
     RDKit          3D

 16 16  0  0  0  0  0  0  0  0999 V2000
   41.4440   83.7550   61.1840 C   0  0  0  0  0  0  0  0  0  0  0  0
   40.9990   84.7150   60.2650 C   0  0  0  0  0  0  0  0  0  0  0  0
   39.6080   84.9570   60.1940 C   0  0  0  0  0  0  0  0  0  0  0  0
   38.7850   84.2380   61.0280 N   0  0  0  0  0  0  0  0  0  0  0  0
   39.2700   83.3220   61.8970 C   0  0  0  0  0  0  0  0  0  0  0  0
   40.5880   83.0900   61.9660 N   0  0  0  0  0  0  0  0  0  0  0  0
   41.8420   85.4140   59.4490 O   0  0  0  0  0  0  0  0  0  0  0  0
   41.3880   83.8230   57.4440 O   0  0  0  0  0  0  0  0  0  0  0  0
   41.8030   85.2500   57.7690 P   0  0  0  0  0  0  0  0  0  0  0  0
   43.3820   85.5320   57.1790 O   0  0  0  0  0  0  0  0  0  0  0  0
   40.7460   86.3180   57.0120 O   0  0  0  0  0  0  0  0  0  0  0  0
   42.5207   83.5443   61.2634 H   0  0  0  0  0  0  0  0  0  0  0  0
   39.1967   85.6980   59.4928 H   0  0  0  0  0  0  0  0  0  0  0  0
   38.5804   82.7658   62.5491 H   0  0  0  0  0  0  0  0  0  0  0  0
   44.0041   85.6431   57.9411 H   0  0  0  0  0  0  0  0  0  0  0  0
   40.2433   86.8259   57.6971 H   0  0  0  0  0  0  0  0  0  0  0  0
  1  6  2  0
  2  1  1  0
  3  2  2  0
  3  4  1  0
  4  5  2  0
  5  6  1  0
  7  2  1  0
  8  9  2  0
  9  7  1  0
 10  9  1  0
 11  9  1  0
  1 12  1  0
  3 13  1  0
  5 14  1  0
 10 15  1  0
 11 16  1  0
M  ISO  5  12  14  13  14  14  14  15   3  16   3
M  END
>  <minimizedAffinity>  (1) 
-4.23241568

>  <minimizedRMSD>  (1) 
2.10304165

$$$$
