
     RDKit          3D

 17 18  0  0  0  0  0  0  0  0999 V2000
   40.0320   82.0010   60.5700 C   0  0  0  0  0  0  0  0  0  0  0  0
   40.0490   82.9500   59.5410 C   0  0  0  0  0  0  0  0  0  0  0  0
   39.5000   84.2020   59.7970 C   0  0  0  0  0  0  0  0  0  0  0  0
   38.9700   84.4440   61.0430 N   0  0  0  0  0  0  0  0  0  0  0  0
   38.9750   83.4970   62.0100 C   0  0  0  0  0  0  0  0  0  0  0  0
   39.5030   82.2860   61.7700 N   0  0  0  0  0  0  0  0  0  0  0  0
   40.6140   82.6510   58.2570 C   0  0  0  0  0  0  0  0  0  0  0  0
   40.4170   81.5260   57.5200 C   0  0  0  0  0  0  0  0  0  0  0  0
   41.1240   81.5760   56.3220 C   0  0  0  0  0  0  0  0  0  0  0  0
   41.7390   82.7710   56.3860 N   0  0  0  0  0  0  0  0  0  0  0  0
   41.4370   83.4000   57.5220 N   0  0  0  0  0  0  0  0  0  0  0  0
   40.4600   81.0035   60.3917 H   0  0  0  0  0  0  0  0  0  0  0  0
   39.4899   84.9811   59.0205 H   0  0  0  0  0  0  0  0  0  0  0  0
   38.5444   83.7205   62.9972 H   0  0  0  0  0  0  0  0  0  0  0  0
   39.7806   80.6842   57.8304 H   0  0  0  0  0  0  0  0  0  0  0  0
   41.1689   80.8239   55.5205 H   0  0  0  0  0  0  0  0  0  0  0  0
   42.3594   83.1489   55.6558 H   0  0  0  0  0  0  0  0  0  0  0  0
  1  6  2  0
  2  3  2  0
  2  1  1  0
  3  4  1  0
  4  5  2  0
  6  5  1  0
  7  2  1  0
  8  7  1  0
  9 10  1  0
  9  8  2  0
 10 11  1  0
 11  7  2  0
  1 12  1  0
  3 13  1  0
  5 14  1  0
  8 15  1  0
  9 16  1  0
 10 17  1  0
M  ISO  6  12  14  13  14  14  14  15  14  16  14  17   9
M  END
>  <minimizedAffinity>  (1) 
-4.12825537

>  <minimizedRMSD>  (1) 
0.47245717

$$$$
