
     RDKit          3D

 13 13  0  0  0  0  0  0  0  0999 V2000
   40.0430   81.9840   60.7060 C   0  0  0  0  0  0  0  0  0  0  0  0
   40.1110   82.8850   59.6330 C   0  0  0  0  0  0  0  0  0  0  0  0
   39.5540   84.1540   59.7840 C   0  0  0  0  0  0  0  0  0  0  0  0
   38.9630   84.4510   60.9910 N   0  0  0  0  0  0  0  0  0  0  0  0
   38.9110   83.5700   62.0040 C   0  0  0  0  0  0  0  0  0  0  0  0
   39.4460   82.3380   61.8710 N   0  0  0  0  0  0  0  0  0  0  0  0
   40.7720   82.4670   58.3710 C   0  0  0  0  0  0  0  0  0  0  0  0
   41.0630   83.6180   57.6600 F   0  0  0  0  0  0  0  0  0  0  0  0
   41.8960   81.7240   58.6510 F   0  0  0  0  0  0  0  0  0  0  0  0
   39.8560   81.7220   57.6400 F   0  0  0  0  0  0  0  0  0  0  0  0
   40.4787   80.9794   60.6013 H   0  0  0  0  0  0  0  0  0  0  0  0
   39.5857   84.8912   58.9682 H   0  0  0  0  0  0  0  0  0  0  0  0
   38.4281   83.8553   62.9503 H   0  0  0  0  0  0  0  0  0  0  0  0
  1  6  2  0
  2  3  2  0
  2  1  1  0
  3  4  1  0
  4  5  2  0
  6  5  1  0
  7  9  1  0
  7  2  1  0
  8  7  1  0
 10  7  1  0
  1 11  1  0
  3 12  1  0
  5 13  1  0
M  ISO  3  11  14  12  14  13  14
M  END
>  <minimizedAffinity>  (1) 
-3.91541529

>  <minimizedRMSD>  (1) 
0.487887681

$$$$
