
     RDKit          3D

 22 23  0  0  0  0  0  0  0  0999 V2000
   40.0560   82.0080   60.6370 C   0  0  0  0  0  0  0  0  0  0  0  0
   40.1080   82.9370   59.5880 C   0  0  0  0  0  0  0  0  0  0  0  0
   39.5290   84.2020   59.8040 C   0  0  0  0  0  0  0  0  0  0  0  0
   38.9520   84.4490   61.0200 N   0  0  0  0  0  0  0  0  0  0  0  0
   38.9200   83.5260   62.0110 C   0  0  0  0  0  0  0  0  0  0  0  0
   39.4750   82.3150   61.8000 N   0  0  0  0  0  0  0  0  0  0  0  0
   40.6750   82.7690   58.3170 N   0  0  0  0  0  0  0  0  0  0  0  0
   41.5370   83.6160   57.5100 C   0  0  0  0  0  0  0  0  0  0  0  0
   42.7400   82.6910   57.3210 C   0  0  0  0  0  0  0  0  0  0  0  0
   42.0320   81.3620   57.1000 C   0  0  0  0  0  0  0  0  0  0  0  0
   40.5630   81.6390   57.3810 C   0  0  0  0  0  0  0  0  0  0  0  0
   40.5005   81.0111   60.5001 H   0  0  0  0  0  0  0  0  0  0  0  0
   39.5401   84.9705   59.0171 H   0  0  0  0  0  0  0  0  0  0  0  0
   38.4472   83.7613   62.9759 H   0  0  0  0  0  0  0  0  0  0  0  0
   41.0682   83.8739   56.5489 H   0  0  0  0  0  0  0  0  0  0  0  0
   41.7748   84.5904   57.9618 H   0  0  0  0  0  0  0  0  0  0  0  0
   43.3425   82.9809   56.4476 H   0  0  0  0  0  0  0  0  0  0  0  0
   43.4588   82.6959   58.1537 H   0  0  0  0  0  0  0  0  0  0  0  0
   42.1684   81.0204   56.0633 H   0  0  0  0  0  0  0  0  0  0  0  0
   42.4322   80.5706   57.7508 H   0  0  0  0  0  0  0  0  0  0  0  0
   40.0213   81.9219   56.4664 H   0  0  0  0  0  0  0  0  0  0  0  0
   40.0011   80.7769   57.7698 H   0  0  0  0  0  0  0  0  0  0  0  0
  1  6  2  0
  2  3  2  0
  2  1  1  0
  3  4  1  0
  4  5  2  0
  6  5  1  0
  7  2  1  0
  8  7  1  0
  9  8  1  0
 10  9  1  0
 10 11  1  0
 11  7  1  0
  1 12  1  0
  3 13  1  0
  5 14  1  0
  8 15  1  0
  8 16  1  0
  9 17  1  0
  9 18  1  0
 10 19  1  0
 10 20  1  0
 11 21  1  0
 11 22  1  0
M  ISO  8  12  14  13  14  14  14  15  13  16  13  17  13  18  13  19  13
M  ISO  3  20  13  21  13  22  13
M  END
>  <minimizedAffinity>  (1) 
-3.83490276

>  <minimizedRMSD>  (1) 
0.369103938

$$$$
