
     RDKit          3D

 11 11  0  0  0  0  0  0  0  0999 V2000
   40.0760   81.9940   60.7140 C   0  0  0  0  0  0  0  0  0  0  0  0
   40.1480   82.9020   59.6450 C   0  0  0  0  0  0  0  0  0  0  0  0
   39.5660   84.1680   59.7940 C   0  0  0  0  0  0  0  0  0  0  0  0
   38.9490   84.4580   60.9870 N   0  0  0  0  0  0  0  0  0  0  0  0
   38.9060   83.5460   61.9880 C   0  0  0  0  0  0  0  0  0  0  0  0
   39.4550   82.3330   61.8660 N   0  0  0  0  0  0  0  0  0  0  0  0
   40.9710   82.4690   58.0990 S   0  0  0  0  0  0  0  0  0  0  0  0
   40.5295   80.9969   60.6129 H   0  0  0  0  0  0  0  0  0  0  0  0
   39.6020   84.9074   58.9804 H   0  0  0  0  0  0  0  0  0  0  0  0
   38.4040   83.8117   62.9300 H   0  0  0  0  0  0  0  0  0  0  0  0
   42.1589   81.8440   58.3735 H   0  0  0  0  0  0  0  0  0  0  0  0
  1  6  2  0
  2  3  2  0
  2  1  1  0
  3  4  1  0
  4  5  2  0
  6  5  1  0
  7  2  1  0
  1  8  1  0
  3  9  1  0
  5 10  1  0
  7 11  1  0
M  ISO  4   8  14   9  14  10  14  11  11
M  END
>  <minimizedAffinity>  (1) 
-3.37362266

>  <minimizedRMSD>  (1) 
0.124160498

$$$$
