
     RDKit          3D

 11 11  0  0  0  0  0  0  0  0999 V2000
   40.0560   82.0120   60.6140 C   0  0  0  0  0  0  0  0  0  0  0  0
   40.1030   82.9570   59.5770 C   0  0  0  0  0  0  0  0  0  0  0  0
   39.5370   84.2150   59.7820 C   0  0  0  0  0  0  0  0  0  0  0  0
   38.9650   84.4560   60.9890 N   0  0  0  0  0  0  0  0  0  0  0  0
   38.9330   83.5320   61.9670 C   0  0  0  0  0  0  0  0  0  0  0  0
   39.4790   82.3010   61.7890 N   0  0  0  0  0  0  0  0  0  0  0  0
   40.7260   82.5310   58.4240 O   0  0  0  0  0  0  0  0  0  0  0  0
   40.5001   81.0175   60.4598 H   0  0  0  0  0  0  0  0  0  0  0  0
   39.5535   84.9832   58.9949 H   0  0  0  0  0  0  0  0  0  0  0  0
   38.4563   83.7780   62.9274 H   0  0  0  0  0  0  0  0  0  0  0  0
   41.0991   81.6155   58.3723 H   0  0  0  0  0  0  0  0  0  0  0  0
  1  6  2  0
  2  3  2  0
  2  1  1  0
  3  4  1  0
  4  5  2  0
  6  5  1  0
  7  2  1  0
  1  8  1  0
  3  9  1  0
  5 10  1  0
  7 11  1  0
M  ISO  4   8  14   9  14  10  14  11   3
M  END
>  <minimizedAffinity>  (1) 
-3.35873532

>  <minimizedRMSD>  (1) 
0.207061455

$$$$
