
     RDKit          3D

 20 21  0  0  0  0  0  0  0  0999 V2000
   39.6270   80.4410   58.1090 Cl  0  0  0  0  0  0  0  0  0  0  0  0
   40.5890   81.7990   57.5660 C   0  0  0  0  0  0  0  0  0  0  0  0
   40.7920   82.9470   58.3170 C   0  0  0  0  0  0  0  0  0  0  0  0
   41.5790   83.9180   57.7360 C   0  0  0  0  0  0  0  0  0  0  0  0
   42.1740   83.8560   56.4950 C   0  0  0  0  0  0  0  0  0  0  0  0
   41.9530   82.7050   55.7780 C   0  0  0  0  0  0  0  0  0  0  0  0
   42.6520   82.4820   54.1700 Cl  0  0  0  0  0  0  0  0  0  0  0  0
   41.1720   81.7010   56.3140 C   0  0  0  0  0  0  0  0  0  0  0  0
   40.2340   82.0850   60.6400 C   0  0  0  0  0  0  0  0  0  0  0  0
   40.1870   83.0420   59.6100 C   0  0  0  0  0  0  0  0  0  0  0  0
   39.4740   84.2320   59.8490 C   0  0  0  0  0  0  0  0  0  0  0  0
   38.8790   84.3750   61.0630 N   0  0  0  0  0  0  0  0  0  0  0  0
   38.9420   83.4430   62.0270 C   0  0  0  0  0  0  0  0  0  0  0  0
   39.6180   82.3030   61.8150 N   0  0  0  0  0  0  0  0  0  0  0  0
   41.7489   84.8336   58.3215 H   0  0  0  0  0  0  0  0  0  0  0  0
   42.7892   84.6787   56.1017 H   0  0  0  0  0  0  0  0  0  0  0  0
   41.0064   80.7877   55.7236 H   0  0  0  0  0  0  0  0  0  0  0  0
   40.7826   81.1448   60.4818 H   0  0  0  0  0  0  0  0  0  0  0  0
   39.4010   85.0171   59.0820 H   0  0  0  0  0  0  0  0  0  0  0  0
   38.4397   83.6135   62.9906 H   0  0  0  0  0  0  0  0  0  0  0  0
  2  1  1  0
  2  3  2  0
  3 10  1  0
  4  3  1  0
  5  4  2  0
  6  8  2  0
  6  5  1  0
  7  6  1  0
  8  2  1  0
  9 14  2  0
 10 11  2  0
 10  9  1  0
 11 12  1  0
 12 13  2  0
 14 13  1  0
  4 15  1  0
  5 16  1  0
  8 17  1  0
  9 18  1  0
 11 19  1  0
 13 20  1  0
M  ISO  6  15  14  16  14  17  14  18  14  19  14  20  14
M  END
>  <minimizedAffinity>  (1) 
-4.68615532

>  <minimizedRMSD>  (1) 
1.16382909

$$$$
