
     RDKit          3D

 24 25  0  0  0  0  0  0  0  0999 V2000
   42.0840   81.8710   61.2860 C   0  0  0  0  0  0  0  0  0  0  0  0
   40.7730   81.4800   60.9170 C   0  0  0  0  0  0  0  0  0  0  0  0
   39.7130   82.2370   61.4200 C   0  0  0  0  0  0  0  0  0  0  0  0
   39.9850   83.2950   62.2240 N   0  0  0  0  0  0  0  0  0  0  0  0
   41.2500   83.6380   62.5540 C   0  0  0  0  0  0  0  0  0  0  0  0
   42.2810   82.9320   62.0880 N   0  0  0  0  0  0  0  0  0  0  0  0
   41.0030   84.6190   64.6970 C   0  0  0  0  0  0  0  0  0  0  0  0
   40.2940   83.6890   65.1250 O   0  0  0  0  0  0  0  0  0  0  0  0
   41.5730   84.7380   63.3940 N   0  0  0  0  0  0  0  0  0  0  0  0
   40.6290   78.7770   62.3340 Cl  0  0  0  0  0  0  0  0  0  0  0  0
   40.3290   79.1170   60.6430 C   0  0  0  0  0  0  0  0  0  0  0  0
   40.4160   80.3800   60.0760 C   0  0  0  0  0  0  0  0  0  0  0  0
   40.1510   80.4730   58.7310 C   0  0  0  0  0  0  0  0  0  0  0  0
   39.8060   79.4300   57.9000 C   0  0  0  0  0  0  0  0  0  0  0  0
   39.7250   78.1960   58.4740 C   0  0  0  0  0  0  0  0  0  0  0  0
   39.3000   76.7490   57.5600 Cl  0  0  0  0  0  0  0  0  0  0  0  0
   39.9810   78.0510   59.8140 C   0  0  0  0  0  0  0  0  0  0  0  0
   42.9481   81.3015   60.9131 H   0  0  0  0  0  0  0  0  0  0  0  0
   38.6737   81.9794   61.1682 H   0  0  0  0  0  0  0  0  0  0  0  0
   41.2129   85.4384   65.4002 H   0  0  0  0  0  0  0  0  0  0  0  0
   42.1547   85.5338   63.0952 H   0  0  0  0  0  0  0  0  0  0  0  0
   40.2208   81.4721   58.2761 H   0  0  0  0  0  0  0  0  0  0  0  0
   39.6063   79.5846   56.8294 H   0  0  0  0  0  0  0  0  0  0  0  0
   39.9083   77.0461   60.2555 H   0  0  0  0  0  0  0  0  0  0  0  0
  1  6  2  0
  2  1  1  0
  2  3  2  0
  3  4  1  0
  4  5  2  0
  5  9  1  0
  6  5  1  0
  7  8  2  0
  9  7  1  0
 11 10  1  0
 12 11  2  0
 12  2  1  0
 13 12  1  0
 14 15  1  0
 14 13  2  0
 15 17  2  0
 16 15  1  0
 17 11  1  0
  1 18  1  0
  3 19  1  0
  7 20  1  0
  9 21  1  0
 13 22  1  0
 14 23  1  0
 17 24  1  0
M  ISO  6  18  14  19  14  20   6  22  14  23  14  24  14
M  END
>  <minimizedAffinity>  (1) 
-5.25805283

>  <minimizedRMSD>  (1) 
4.15818739

$$$$
