
     RDKit          3D

 28 29  0  0  0  0  0  0  0  0999 V2000
   40.2710   81.9170   59.7740 C   0  0  0  0  0  0  0  0  0  0  0  0
   40.6350   82.7950   58.7250 C   0  0  0  0  0  0  0  0  0  0  0  0
   40.6350   84.1680   58.9840 C   0  0  0  0  0  0  0  0  0  0  0  0
   40.2850   84.5720   60.2320 N   0  0  0  0  0  0  0  0  0  0  0  0
   39.9440   83.7340   61.2110 C   0  0  0  0  0  0  0  0  0  0  0  0
   39.9390   82.4210   60.9840 N   0  0  0  0  0  0  0  0  0  0  0  0
   39.5880   84.2260   62.4970 N   0  0  0  0  0  0  0  0  0  0  0  0
   39.3230   80.2440   57.6740 Cl  0  0  0  0  0  0  0  0  0  0  0  0
   40.4620   81.2690   56.8400 C   0  0  0  0  0  0  0  0  0  0  0  0
   41.0120   82.4150   57.3900 C   0  0  0  0  0  0  0  0  0  0  0  0
   41.8920   83.1130   56.6050 C   0  0  0  0  0  0  0  0  0  0  0  0
   42.2820   82.7860   55.3240 C   0  0  0  0  0  0  0  0  0  0  0  0
   41.7160   81.6410   54.8040 C   0  0  0  0  0  0  0  0  0  0  0  0
   42.1130   81.0850   53.1720 Cl  0  0  0  0  0  0  0  0  0  0  0  0
   40.8210   80.9030   55.5610 C   0  0  0  0  0  0  0  0  0  0  0  0
   40.6610   84.1060   63.8450 S   0  0  0  0  0  0  0  0  0  0  0  0
   42.0620   84.2960   63.3380 O   0  0  0  0  0  0  0  0  0  0  0  0
   40.4110   85.2150   64.8270 O   0  0  0  0  0  0  0  0  0  0  0  0
   40.5880   82.6030   64.5700 O   0  0  0  0  0  0  0  0  0  0  0  0
   40.2583   80.8300   59.6056 H   0  0  0  0  0  0  0  0  0  0  0  0
   40.9086   84.8951   58.2052 H   0  0  0  0  0  0  0  0  0  0  0  0
   38.6658   84.6656   62.6279 H   0  0  0  0  0  0  0  0  0  0  0  0
   42.3301   84.0235   57.0398 H   0  0  0  0  0  0  0  0  0  0  0  0
   42.9971   83.3977   54.7544 H   0  0  0  0  0  0  0  0  0  0  0  0
   40.3816   79.9932   55.1260 H   0  0  0  0  0  0  0  0  0  0  0  0
   42.6820   84.3801   64.1052 H   0  0  0  0  0  0  0  0  0  0  0  0
   40.4903   84.8634   65.7491 H   0  0  0  0  0  0  0  0  0  0  0  0
   40.5932   82.7107   65.5541 H   0  0  0  0  0  0  0  0  0  0  0  0
  1  6  2  0
  2  3  2  0
  2  1  1  0
  3  4  1  0
  4  5  2  0
  5  7  1  0
  6  5  1  0
  7 16  1  0
  9 10  2  0
  9  8  1  0
 10  2  1  0
 11 10  1  0
 12 11  2  0
 13 12  1  0
 13 15  2  0
 14 13  1  0
 15  9  1  0
 16 19  1  0
 16 18  1  0
 17 16  1  0
  1 20  1  0
  3 21  1  0
  7 22  1  0
 11 23  1  0
 12 24  1  0
 15 25  1  0
 17 26  1  0
 18 27  1  0
 19 28  1  0
M  ISO  8  20  14  21  14  23  14  24  14  25  14  26   3  27   3  28   3
M  END
>  <minimizedAffinity>  (1) 
-5.17486668

>  <minimizedRMSD>  (1) 
1.4187392

$$$$
