
     RDKit          3D

 37 39  0  0  0  0  0  0  0  0999 V2000
   40.1680   82.5430   58.4630 Cl  0  0  0  0  0  0  0  0  0  0  0  0
   40.1240   80.8290   58.8600 C   0  0  0  0  0  0  0  0  0  0  0  0
   40.3750   80.3720   60.1380 C   0  0  0  0  0  0  0  0  0  0  0  0
   40.2750   78.9960   60.3020 C   0  0  0  0  0  0  0  0  0  0  0  0
   39.9560   78.0730   59.3240 C   0  0  0  0  0  0  0  0  0  0  0  0
   39.7210   78.5960   58.0800 C   0  0  0  0  0  0  0  0  0  0  0  0
   39.3060   77.4980   56.7600 Cl  0  0  0  0  0  0  0  0  0  0  0  0
   39.8040   79.9760   57.8410 C   0  0  0  0  0  0  0  0  0  0  0  0
   39.5550   80.4420   56.4470 C   0  0  0  0  0  0  0  0  0  0  0  0
   40.5250   79.8880   55.4410 C   0  0  0  0  0  0  0  0  0  0  0  0
   39.9280   79.6850   54.0870 C   0  0  0  0  0  0  0  0  0  0  0  0
   38.7700   80.4290   53.8790 O   0  0  0  0  0  0  0  0  0  0  0  0
   37.8030   79.9200   54.7200 C   0  0  0  0  0  0  0  0  0  0  0  0
   38.1150   80.3230   56.1340 C   0  0  0  0  0  0  0  0  0  0  0  0
   41.9680   81.5380   61.7240 C   0  0  0  0  0  0  0  0  0  0  0  0
   40.7050   81.2940   61.1740 C   0  0  0  0  0  0  0  0  0  0  0  0
   39.6030   82.0260   61.6740 C   0  0  0  0  0  0  0  0  0  0  0  0
   39.8590   82.9230   62.6650 N   0  0  0  0  0  0  0  0  0  0  0  0
   41.0740   83.1350   63.1710 C   0  0  0  0  0  0  0  0  0  0  0  0
   42.1300   82.4430   62.7010 N   0  0  0  0  0  0  0  0  0  0  0  0
   41.1770   84.1520   64.2510 C   0  0  0  0  0  0  0  0  0  0  0  0
   40.9980   85.4290   63.7730 F   0  0  0  0  0  0  0  0  0  0  0  0
   40.1920   83.9160   65.1980 F   0  0  0  0  0  0  0  0  0  0  0  0
   42.4220   84.1500   64.8490 F   0  0  0  0  0  0  0  0  0  0  0  0
   40.4690   78.6020   61.3105 H   0  0  0  0  0  0  0  0  0  0  0  0
   39.8951   76.9942   59.5301 H   0  0  0  0  0  0  0  0  0  0  0  0
   39.7829   81.5154   56.3706 H   0  0  0  0  0  0  0  0  0  0  0  0
   41.3683   80.5881   55.3483 H   0  0  0  0  0  0  0  0  0  0  0  0
   40.8414   78.9000   55.8066 H   0  0  0  0  0  0  0  0  0  0  0  0
   40.6712   79.9768   53.3303 H   0  0  0  0  0  0  0  0  0  0  0  0
   39.6517   78.6232   54.0084 H   0  0  0  0  0  0  0  0  0  0  0  0
   36.8188   80.3185   54.4326 H   0  0  0  0  0  0  0  0  0  0  0  0
   37.7875   78.8228   54.6436 H   0  0  0  0  0  0  0  0  0  0  0  0
   37.6431   81.2986   56.3227 H   0  0  0  0  0  0  0  0  0  0  0  0
   37.7266   79.5183   56.7756 H   0  0  0  0  0  0  0  0  0  0  0  0
   42.8396   80.9805   61.3505 H   0  0  0  0  0  0  0  0  0  0  0  0
   38.5867   81.8773   61.2804 H   0  0  0  0  0  0  0  0  0  0  0  0
  1  2  1  0
  2  3  2  0
  3  4  1  0
  3 16  1  0
  5  4  2  0
  6  5  1  0
  7  6  1  0
  8  6  2  0
  8  2  1  0
  9  8  1  0
 10  9  1  0
 11 10  1  0
 12 11  1  0
 12 13  1  0
 13 14  1  0
 14  9  1  0
 15 20  2  0
 16 17  2  0
 16 15  1  0
 17 18  1  0
 18 19  2  0
 19 21  1  0
 20 19  1  0
 21 24  1  0
 21 23  1  0
 22 21  1  0
  4 25  1  0
  5 26  1  0
  9 27  1  0
 10 28  1  0
 10 29  1  0
 11 30  1  0
 11 31  1  0
 13 32  1  0
 13 33  1  0
 14 34  1  0
 14 35  1  0
 15 36  1  0
 17 37  1  0
M  ISO  8  25  14  26  14  27  13  28  13  29  13  30  13  31  13  32  13
M  ISO  5  33  13  34  13  35  13  36  14  37  14
M  END
>  <minimizedAffinity>  (1) 
-6.66004753

>  <minimizedRMSD>  (1) 
2.41869092

$$$$
