
     RDKit          3D

 37 39  0  0  1  0  0  0  0  0999 V2000
   40.1910   82.5430   58.4650 Cl  0  0  0  0  0  0  0  0  0  0  0  0
   40.1500   80.8300   58.8660 C   0  0  0  0  0  0  0  0  0  0  0  0
   40.3750   80.3780   60.1520 C   0  0  0  0  0  0  0  0  0  0  0  0
   40.2580   79.0010   60.3230 C   0  0  0  0  0  0  0  0  0  0  0  0
   39.9480   78.0780   59.3510 C   0  0  0  0  0  0  0  0  0  0  0  0
   39.7400   78.5950   58.0970 C   0  0  0  0  0  0  0  0  0  0  0  0
   39.3100   77.5160   56.7670 Cl  0  0  0  0  0  0  0  0  0  0  0  0
   39.8410   79.9720   57.8490 C   0  0  0  0  0  0  0  0  0  0  0  0
   41.9650   81.5520   61.7340 C   0  0  0  0  0  0  0  0  0  0  0  0
   40.6990   81.3050   61.1890 C   0  0  0  0  0  0  0  0  0  0  0  0
   39.6160   82.0260   61.6890 C   0  0  0  0  0  0  0  0  0  0  0  0
   39.8510   82.9260   62.6770 N   0  0  0  0  0  0  0  0  0  0  0  0
   41.0870   83.1390   63.1810 C   0  0  0  0  0  0  0  0  0  0  0  0
   42.1450   82.4490   62.7070 N   0  0  0  0  0  0  0  0  0  0  0  0
   41.1680   84.1650   64.2640 C   0  0  0  0  0  0  0  0  0  0  0  0
   40.9890   85.4410   63.7840 F   0  0  0  0  0  0  0  0  0  0  0  0
   40.1870   83.9220   65.2050 F   0  0  0  0  0  0  0  0  0  0  0  0
   42.4190   84.1520   64.8690 F   0  0  0  0  0  0  0  0  0  0  0  0
   39.6150   80.4430   56.4510 C   0  0  1  0  0  0  0  0  0  0  0  0
   40.6170   79.7250   55.5900 C   0  0  0  0  0  0  0  0  0  0  0  0
   40.2700   79.9780   54.1540 C   0  0  0  0  0  0  0  0  0  0  0  0
   38.9750   79.1920   53.9600 C   0  0  0  0  0  0  0  0  0  0  0  0
   37.8600   79.8170   54.7370 C   0  0  0  0  0  0  0  0  0  0  0  0
   38.2100   80.4460   56.0260 C   0  0  0  0  0  0  0  0  0  0  0  0
   40.4308   78.6121   61.3373 H   0  0  0  0  0  0  0  0  0  0  0  0
   39.8722   77.0015   59.5640 H   0  0  0  0  0  0  0  0  0  0  0  0
   42.8322   80.9938   61.3515 H   0  0  0  0  0  0  0  0  0  0  0  0
   38.6011   81.8701   61.2945 H   0  0  0  0  0  0  0  0  0  0  0  0
   39.8050   81.5217   56.3493 H   0  0  0  0  0  0  0  0  0  0  0  0
   41.6279   80.1040   55.8008 H   0  0  0  0  0  0  0  0  0  0  0  0
   40.5940   78.6457   55.8011 H   0  0  0  0  0  0  0  0  0  0  0  0
   40.1107   81.0508   53.9705 H   0  0  0  0  0  0  0  0  0  0  0  0
   41.0663   79.6727   53.4592 H   0  0  0  0  0  0  0  0  0  0  0  0
   38.7123   79.1855   52.8918 H   0  0  0  0  0  0  0  0  0  0  0  0
   39.1262   78.1637   54.3202 H   0  0  0  0  0  0  0  0  0  0  0  0
   36.8250   79.8083   54.3645 H   0  0  0  0  0  0  0  0  0  0  0  0
   37.4341   80.9072   56.6547 H   0  0  0  0  0  0  0  0  0  0  0  0
  1  2  1  0
  2  3  2  0
  3  4  1  0
  3 10  1  0
  5  4  2  0
  6  5  1  0
  7  6  1  0
  8  6  2  0
  8  2  1  0
  9 14  2  0
 10 11  2  0
 10  9  1  0
 11 12  1  0
 12 13  2  0
 13 15  1  0
 14 13  1  0
 15 18  1  0
 15 17  1  0
 16 15  1  0
 19  8  1  0
 20 19  1  0
 21 20  1  0
 22 21  1  0
 22 23  1  0
 23 24  2  0
 24 19  1  0
  4 25  1  0
  5 26  1  0
  9 27  1  0
 11 28  1  0
 19 29  1  1
 20 30  1  0
 20 31  1  0
 21 32  1  0
 21 33  1  0
 22 34  1  0
 22 35  1  0
 23 36  1  0
 24 37  1  0
M  ISO  8  25  14  26  14  27  14  28  14  29  13  30  13  31  13  32  13
M  ISO  5  33  13  34  13  35  13  36  13  37  13
M  END
>  <minimizedAffinity>  (1) 
-6.5265851

>  <minimizedRMSD>  (1) 
2.55835128

$$$$
