
     RDKit          3D

 30 32  0  0  0  0  0  0  0  0999 V2000
   40.1300   81.3790   58.3710 Cl  0  0  0  0  0  0  0  0  0  0  0  0
   40.0590   79.7670   59.0550 C   0  0  0  0  0  0  0  0  0  0  0  0
   40.4070   79.5020   60.3640 C   0  0  0  0  0  0  0  0  0  0  0  0
   40.3030   78.1880   60.7610 C   0  0  0  0  0  0  0  0  0  0  0  0
   39.8830   77.1320   59.9590 C   0  0  0  0  0  0  0  0  0  0  0  0
   39.5470   77.4500   58.6620 C   0  0  0  0  0  0  0  0  0  0  0  0
   39.0210   76.1390   57.6280 Cl  0  0  0  0  0  0  0  0  0  0  0  0
   39.6350   78.7470   58.2210 C   0  0  0  0  0  0  0  0  0  0  0  0
   42.1510   80.8930   61.5710 C   0  0  0  0  0  0  0  0  0  0  0  0
   40.8400   80.5670   61.2070 C   0  0  0  0  0  0  0  0  0  0  0  0
   39.7980   81.3830   61.7160 C   0  0  0  0  0  0  0  0  0  0  0  0
   40.1470   82.4200   62.5170 N   0  0  0  0  0  0  0  0  0  0  0  0
   41.4230   82.7030   62.8460 C   0  0  0  0  0  0  0  0  0  0  0  0
   42.4240   81.9320   62.3680 N   0  0  0  0  0  0  0  0  0  0  0  0
   41.6160   83.8820   63.7400 C   0  0  0  0  0  0  0  0  0  0  0  0
   41.4570   85.0700   63.0660 F   0  0  0  0  0  0  0  0  0  0  0  0
   40.6840   83.8450   64.7590 F   0  0  0  0  0  0  0  0  0  0  0  0
   42.9020   83.9040   64.2620 F   0  0  0  0  0  0  0  0  0  0  0  0
   39.2750   79.1340   56.7990 C   0  0  0  0  0  0  0  0  0  0  0  0
   40.0000   79.2470   55.7420 C   0  0  0  0  0  0  0  0  0  0  0  0
   39.5220   79.5980   54.5490 C   0  0  0  0  0  0  0  0  0  0  0  0
   38.1840   79.8430   54.4880 C   0  0  0  0  0  0  0  0  0  0  0  0
   37.6940   79.5220   56.2860 S   0  0  0  0  0  0  0  0  0  0  0  0
   40.5751   77.9532   61.8006 H   0  0  0  0  0  0  0  0  0  0  0  0
   39.8227   76.1015   60.3392 H   0  0  0  0  0  0  0  0  0  0  0  0
   42.9801   80.2779   61.1913 H   0  0  0  0  0  0  0  0  0  0  0  0
   38.7448   81.1821   61.4700 H   0  0  0  0  0  0  0  0  0  0  0  0
   41.0772   79.0418   55.8284 H   0  0  0  0  0  0  0  0  0  0  0  0
   40.1705   79.6848   53.6647 H   0  0  0  0  0  0  0  0  0  0  0  0
   37.5619   80.1436   53.6320 H   0  0  0  0  0  0  0  0  0  0  0  0
  1  2  1  0
  2  3  2  0
  3  4  1  0
  3 10  1  0
  5  4  2  0
  6  5  1  0
  7  6  1  0
  8  6  2  0
  8  2  1  0
  9 14  2  0
 10  9  1  0
 10 11  2  0
 11 12  1  0
 12 13  2  0
 13 15  1  0
 14 13  1  0
 15 18  1  0
 15 17  1  0
 16 15  1  0
 19  8  1  0
 20 19  2  0
 21 20  1  0
 22 21  2  0
 22 23  1  0
 23 19  1  0
  4 24  1  0
  5 25  1  0
  9 26  1  0
 11 27  1  0
 20 28  1  0
 21 29  1  0
 22 30  1  0
M  ISO  7  24  14  25  14  26  14  27  14  28  14  29  14  30  14
M  END
>  <minimizedAffinity>  (1) 
-5.70727873

>  <minimizedRMSD>  (1) 
3.3805995

$$$$
