
     RDKit          3D

 27 28  0  0  0  0  0  0  0  0999 V2000
   40.2880   82.7780   58.4980 Cl  0  0  0  0  0  0  0  0  0  0  0  0
   40.1900   81.0550   58.8680 C   0  0  0  0  0  0  0  0  0  0  0  0
   40.3960   80.5520   60.1430 C   0  0  0  0  0  0  0  0  0  0  0  0
   40.2840   79.1800   60.2690 C   0  0  0  0  0  0  0  0  0  0  0  0
   39.9920   78.3020   59.2370 C   0  0  0  0  0  0  0  0  0  0  0  0
   39.7980   78.8350   58.0040 C   0  0  0  0  0  0  0  0  0  0  0  0
   39.4230   77.7940   56.6440 Cl  0  0  0  0  0  0  0  0  0  0  0  0
   39.8960   80.1950   57.8220 C   0  0  0  0  0  0  0  0  0  0  0  0
   41.9460   81.6880   61.7910 C   0  0  0  0  0  0  0  0  0  0  0  0
   40.6970   81.4480   61.2070 C   0  0  0  0  0  0  0  0  0  0  0  0
   39.6120   82.1630   61.7160 C   0  0  0  0  0  0  0  0  0  0  0  0
   39.8220   83.0340   62.7290 N   0  0  0  0  0  0  0  0  0  0  0  0
   41.0410   83.2400   63.2700 C   0  0  0  0  0  0  0  0  0  0  0  0
   42.1020   82.5580   62.7910 N   0  0  0  0  0  0  0  0  0  0  0  0
   41.1020   84.2300   64.3770 C   0  0  0  0  0  0  0  0  0  0  0  0
   40.9680   85.5200   63.9210 F   0  0  0  0  0  0  0  0  0  0  0  0
   40.0750   83.9880   65.2760 F   0  0  0  0  0  0  0  0  0  0  0  0
   42.3330   84.1920   65.0180 F   0  0  0  0  0  0  0  0  0  0  0  0
   40.7200   80.9050   55.5470 C   0  0  0  0  0  0  0  0  0  0  0  0
   41.9580   80.6430   55.7010 O   0  0  0  0  0  0  0  0  0  0  0  0
   39.6870   80.7170   56.5130 N   0  0  0  0  0  0  0  0  0  0  0  0
   40.4392   78.7501   61.2695 H   0  0  0  0  0  0  0  0  0  0  0  0
   39.9205   77.2181   59.4102 H   0  0  0  0  0  0  0  0  0  0  0  0
   42.8248   81.1437   61.4148 H   0  0  0  0  0  0  0  0  0  0  0  0
   38.6035   82.0206   61.3005 H   0  0  0  0  0  0  0  0  0  0  0  0
   40.4182   81.3169   54.5727 H   0  0  0  0  0  0  0  0  0  0  0  0
   38.7264   80.9759   56.2463 H   0  0  0  0  0  0  0  0  0  0  0  0
  1  2  1  0
  2  3  2  0
  3  4  1  0
  3 10  1  0
  5  4  2  0
  6  5  1  0
  7  6  1  0
  8  6  2  0
  8  2  1  0
  9 14  2  0
 10 11  2  0
 10  9  1  0
 11 12  1  0
 12 13  2  0
 13 15  1  0
 14 13  1  0
 15 18  1  0
 15 17  1  0
 16 15  1  0
 19 20  2  0
 19 21  1  0
 21  8  1  0
  4 22  1  0
  5 23  1  0
  9 24  1  0
 11 25  1  0
 19 26  1  0
 21 27  1  0
M  ISO  5  22  14  23  14  24  14  25  14  26   6
M  END
>  <minimizedAffinity>  (1) 
-5.61260271

>  <minimizedRMSD>  (1) 
1.75457311

$$$$
