
     RDKit          3D

 26 27  0  0  0  0  0  0  0  0999 V2000
   41.9610   82.1660   61.4600 C   0  0  0  0  0  0  0  0  0  0  0  0
   40.9500   82.4630   60.5580 C   0  0  0  0  0  0  0  0  0  0  0  0
   39.9640   83.3850   60.9730 C   0  0  0  0  0  0  0  0  0  0  0  0
   40.0940   83.9010   62.2270 N   0  0  0  0  0  0  0  0  0  0  0  0
   41.0880   83.5880   63.0690 C   0  0  0  0  0  0  0  0  0  0  0  0
   42.0180   82.7180   62.6770 N   0  0  0  0  0  0  0  0  0  0  0  0
   42.4500   83.9880   58.3800 Cl  0  0  0  0  0  0  0  0  0  0  0  0
   41.4040   82.5830   58.1790 C   0  0  0  0  0  0  0  0  0  0  0  0
   40.7620   81.9560   59.2390 C   0  0  0  0  0  0  0  0  0  0  0  0
   39.9810   80.8710   58.9050 C   0  0  0  0  0  0  0  0  0  0  0  0
   39.7870   80.3670   57.6380 C   0  0  0  0  0  0  0  0  0  0  0  0
   40.4390   81.0160   56.6210 C   0  0  0  0  0  0  0  0  0  0  0  0
   40.2610   80.4550   54.9650 Cl  0  0  0  0  0  0  0  0  0  0  0  0
   41.2350   82.1080   56.8960 C   0  0  0  0  0  0  0  0  0  0  0  0
   41.9190   82.7740   55.7470 C   0  0  0  0  0  0  0  0  0  0  0  0
   41.0580   84.2590   64.3980 C   0  0  0  0  0  0  0  0  0  0  0  0
   40.7460   85.5950   64.2910 F   0  0  0  0  0  0  0  0  0  0  0  0
   40.1070   83.6620   65.1970 F   0  0  0  0  0  0  0  0  0  0  0  0
   42.3100   84.2180   64.9990 F   0  0  0  0  0  0  0  0  0  0  0  0
   42.7433   81.4515   61.1641 H   0  0  0  0  0  0  0  0  0  0  0  0
   39.1308   83.6727   60.3150 H   0  0  0  0  0  0  0  0  0  0  0  0
   39.4630   80.3584   59.7290 H   0  0  0  0  0  0  0  0  0  0  0  0
   39.1452   79.4931   57.4523 H   0  0  0  0  0  0  0  0  0  0  0  0
   42.6584   83.4939   56.1278 H   0  0  0  0  0  0  0  0  0  0  0  0
   42.4277   82.0157   55.1336 H   0  0  0  0  0  0  0  0  0  0  0  0
   41.1746   83.3027   55.1336 H   0  0  0  0  0  0  0  0  0  0  0  0
  1  6  2  0
  2  3  2  0
  2  1  1  0
  3  4  1  0
  4  5  2  0
  5 16  1  0
  6  5  1  0
  8  7  1  0
  8  9  2  0
  9  2  1  0
 10  9  1  0
 11 10  2  0
 12 14  2  0
 12 11  1  0
 13 12  1  0
 14  8  1  0
 15 14  1  0
 16 19  1  0
 16 18  1  0
 17 16  1  0
  1 20  1  0
  3 21  1  0
 10 22  1  0
 11 23  1  0
 15 24  1  0
 15 25  1  0
 15 26  1  0
M  ISO  7  20  14  21  14  22  14  23  14  24   8  25   8  26   8
M  END
>  <minimizedAffinity>  (1) 
-5.27108431

>  <minimizedRMSD>  (1) 
0.278533012

$$$$
