
     RDKit          3D

 33 35  0  0  0  0  0  0  0  0999 V2000
   43.2340   83.5150   58.6280 Cl  0  0  0  0  0  0  0  0  0  0  0  0
   41.8890   82.4380   58.2250 C   0  0  0  0  0  0  0  0  0  0  0  0
   40.9630   82.0310   59.1720 C   0  0  0  0  0  0  0  0  0  0  0  0
   39.9680   81.1870   58.6950 C   0  0  0  0  0  0  0  0  0  0  0  0
   39.8310   80.7360   57.3980 C   0  0  0  0  0  0  0  0  0  0  0  0
   40.7740   81.1700   56.5080 C   0  0  0  0  0  0  0  0  0  0  0  0
   40.7080   80.6630   54.8170 Cl  0  0  0  0  0  0  0  0  0  0  0  0
   41.7830   82.0070   56.9210 C   0  0  0  0  0  0  0  0  0  0  0  0
   44.3200   80.3610   56.5200 Cl  0  0  0  0  0  0  0  0  0  0  0  0
   43.9670   81.8230   55.6300 C   0  0  0  0  0  0  0  0  0  0  0  0
   42.7740   82.4500   55.9310 C   0  0  0  0  0  0  0  0  0  0  0  0
   42.3730   83.6220   55.2960 C   0  0  0  0  0  0  0  0  0  0  0  0
   43.2040   84.1790   54.3240 C   0  0  0  0  0  0  0  0  0  0  0  0
   44.3980   83.5540   54.0210 C   0  0  0  0  0  0  0  0  0  0  0  0
   44.7760   82.3980   54.6590 C   0  0  0  0  0  0  0  0  0  0  0  0
   41.8070   81.9180   61.5530 C   0  0  0  0  0  0  0  0  0  0  0  0
   41.0800   82.4800   60.5120 C   0  0  0  0  0  0  0  0  0  0  0  0
   40.3530   83.6570   60.8040 C   0  0  0  0  0  0  0  0  0  0  0  0
   40.4130   84.1510   62.0640 N   0  0  0  0  0  0  0  0  0  0  0  0
   41.1330   83.5720   63.0470 C   0  0  0  0  0  0  0  0  0  0  0  0
   41.8290   82.4520   62.7790 N   0  0  0  0  0  0  0  0  0  0  0  0
   41.0850   84.2500   64.3700 C   0  0  0  0  0  0  0  0  0  0  0  0
   40.7700   85.5860   64.2480 F   0  0  0  0  0  0  0  0  0  0  0  0
   40.1380   83.6510   65.1660 F   0  0  0  0  0  0  0  0  0  0  0  0
   42.3330   84.2150   64.9910 F   0  0  0  0  0  0  0  0  0  0  0  0
   39.2164   80.8450   59.4217 H   0  0  0  0  0  0  0  0  0  0  0  0
   39.0113   80.0667   57.0978 H   0  0  0  0  0  0  0  0  0  0  0  0
   41.4174   84.1006   55.5562 H   0  0  0  0  0  0  0  0  0  0  0  0
   42.9122   85.1042   53.8054 H   0  0  0  0  0  0  0  0  0  0  0  0
   45.0573   83.9896   53.2557 H   0  0  0  0  0  0  0  0  0  0  0  0
   45.7322   81.9214   54.3973 H   0  0  0  0  0  0  0  0  0  0  0  0
   42.3850   81.0016   61.3627 H   0  0  0  0  0  0  0  0  0  0  0  0
   39.7547   84.1582   60.0288 H   0  0  0  0  0  0  0  0  0  0  0  0
  2  1  1  0
  2  3  2  0
  3 17  1  0
  4  3  1  0
  5  4  2  0
  6  8  2  0
  6  5  1  0
  7  6  1  0
  8  2  1  0
 10 11  2  0
 10  9  1  0
 11  8  1  0
 12 11  1  0
 13 12  2  0
 14 13  1  0
 14 15  2  0
 15 10  1  0
 16 21  2  0
 17 18  2  0
 17 16  1  0
 18 19  1  0
 19 20  2  0
 20 22  1  0
 21 20  1  0
 22 25  1  0
 22 24  1  0
 23 22  1  0
  4 26  1  0
  5 27  1  0
 12 28  1  0
 13 29  1  0
 14 30  1  0
 15 31  1  0
 16 32  1  0
 18 33  1  0
M  ISO  8  26  14  27  14  28  14  29  14  30  14  31  14  32  14  33  14
M  END
>  <minimizedAffinity>  (1) 
-5.21136999

>  <minimizedRMSD>  (1) 
1.25581264

$$$$
