
     RDKit          3D

 25 26  0  0  0  0  0  0  0  0999 V2000
   42.1100   83.8950   58.2320 Cl  0  0  0  0  0  0  0  0  0  0  0  0
   41.1630   82.4180   58.1150 C   0  0  0  0  0  0  0  0  0  0  0  0
   40.6470   81.7730   59.2300 C   0  0  0  0  0  0  0  0  0  0  0  0
   39.9180   80.6150   58.9860 C   0  0  0  0  0  0  0  0  0  0  0  0
   39.6750   80.0700   57.7310 C   0  0  0  0  0  0  0  0  0  0  0  0
   40.2040   80.7420   56.6640 C   0  0  0  0  0  0  0  0  0  0  0  0
   39.9600   80.1460   55.0230 Cl  0  0  0  0  0  0  0  0  0  0  0  0
   40.9300   81.8920   56.8650 C   0  0  0  0  0  0  0  0  0  0  0  0
   41.9730   82.1130   61.3620 C   0  0  0  0  0  0  0  0  0  0  0  0
   40.8880   82.3180   60.5210 C   0  0  0  0  0  0  0  0  0  0  0  0
   39.8780   83.1790   60.9950 C   0  0  0  0  0  0  0  0  0  0  0  0
   40.0200   83.7460   62.2170 N   0  0  0  0  0  0  0  0  0  0  0  0
   41.0980   83.5160   63.0020 C   0  0  0  0  0  0  0  0  0  0  0  0
   42.0670   82.6970   62.5610 N   0  0  0  0  0  0  0  0  0  0  0  0
   41.1100   84.2090   64.3140 C   0  0  0  0  0  0  0  0  0  0  0  0
   40.7980   85.5480   64.1880 F   0  0  0  0  0  0  0  0  0  0  0  0
   40.1580   83.6390   65.1490 F   0  0  0  0  0  0  0  0  0  0  0  0
   42.3650   84.1740   64.8930 F   0  0  0  0  0  0  0  0  0  0  0  0
   41.4630   82.5590   55.7230 N   0  0  0  0  0  0  0  0  0  0  0  0
   39.4999   80.0877   59.8561 H   0  0  0  0  0  0  0  0  0  0  0  0
   39.0889   79.1480   57.6028 H   0  0  0  0  0  0  0  0  0  0  0  0
   42.7834   81.4471   61.0306 H   0  0  0  0  0  0  0  0  0  0  0  0
   38.9885   83.3873   60.3824 H   0  0  0  0  0  0  0  0  0  0  0  0
   42.0114   83.4229   55.8405 H   0  0  0  0  0  0  0  0  0  0  0  0
   41.2996   82.1769   54.7806 H   0  0  0  0  0  0  0  0  0  0  0  0
  2  1  1  0
  2  3  2  0
  3 10  1  0
  4  3  1  0
  5  4  2  0
  6  8  2  0
  6  5  1  0
  7  6  1  0
  8  2  1  0
  9 14  2  0
 10 11  2  0
 10  9  1  0
 11 12  1  0
 12 13  2  0
 13 15  1  0
 14 13  1  0
 15 18  1  0
 15 17  1  0
 16 15  1  0
 19  8  1  0
  4 20  1  0
  5 21  1  0
  9 22  1  0
 11 23  1  0
 19 24  1  0
 19 25  1  0
M  ISO  4  20  14  21  14  22  14  23  14
M  END
>  <minimizedAffinity>  (1) 
-5.17715645

>  <minimizedRMSD>  (1) 
0.193539187

$$$$
