
     RDKit          3D

 25 26  0  0  0  0  0  0  0  0999 V2000
   42.8220   83.9600   58.4830 Cl  0  0  0  0  0  0  0  0  0  0  0  0
   41.6530   82.6680   58.1760 C   0  0  0  0  0  0  0  0  0  0  0  0
   40.8900   82.0970   59.1830 C   0  0  0  0  0  0  0  0  0  0  0  0
   40.0260   81.1000   58.7690 C   0  0  0  0  0  0  0  0  0  0  0  0
   39.8660   80.6390   57.4780 C   0  0  0  0  0  0  0  0  0  0  0  0
   40.6530   81.2450   56.5250 C   0  0  0  0  0  0  0  0  0  0  0  0
   40.5270   80.7330   54.8410 Cl  0  0  0  0  0  0  0  0  0  0  0  0
   41.5310   82.2460   56.8780 C   0  0  0  0  0  0  0  0  0  0  0  0
   41.9530   82.1430   61.4770 C   0  0  0  0  0  0  0  0  0  0  0  0
   41.0420   82.5600   60.5190 C   0  0  0  0  0  0  0  0  0  0  0  0
   40.1350   83.5780   60.8960 C   0  0  0  0  0  0  0  0  0  0  0  0
   40.2260   84.0660   62.1610 N   0  0  0  0  0  0  0  0  0  0  0  0
   41.1340   83.6250   63.0610 C   0  0  0  0  0  0  0  0  0  0  0  0
   41.9910   82.6640   62.7100 N   0  0  0  0  0  0  0  0  0  0  0  0
   41.0810   84.2790   64.3940 C   0  0  0  0  0  0  0  0  0  0  0  0
   40.7500   85.6190   64.3060 F   0  0  0  0  0  0  0  0  0  0  0  0
   40.1290   83.6500   65.1860 F   0  0  0  0  0  0  0  0  0  0  0  0
   42.3190   84.2310   65.0120 F   0  0  0  0  0  0  0  0  0  0  0  0
   42.3350   82.8450   55.8110 C   0  0  0  0  0  0  0  0  0  0  0  0
   42.2230   83.9000   55.1640 O   0  0  0  0  0  0  0  0  0  0  0  0
   39.4052   80.6279   59.5448 H   0  0  0  0  0  0  0  0  0  0  0  0
   39.1549   79.8383   57.2266 H   0  0  0  0  0  0  0  0  0  0  0  0
   42.6725   81.3536   61.2142 H   0  0  0  0  0  0  0  0  0  0  0  0
   39.3830   83.9609   60.1904 H   0  0  0  0  0  0  0  0  0  0  0  0
   43.2103   82.2427   55.5261 H   0  0  0  0  0  0  0  0  0  0  0  0
  2  1  1  0
  2  3  2  0
  3 10  1  0
  4  3  1  0
  5  4  2  0
  6  8  2  0
  6  5  1  0
  7  6  1  0
  8  2  1  0
  9 14  2  0
 10 11  2  0
 10  9  1  0
 11 12  1  0
 12 13  2  0
 13 15  1  0
 14 13  1  0
 15 18  1  0
 15 17  1  0
 16 15  1  0
 19  8  1  0
 20 19  2  0
  4 21  1  0
  5 22  1  0
  9 23  1  0
 11 24  1  0
 19 25  1  0
M  ISO  5  21  14  22  14  23  14  24  14  25   6
M  END
>  <minimizedAffinity>  (1) 
-5.03656816

>  <minimizedRMSD>  (1) 
0.637411356

$$$$
