
     RDKit          3D

 24 25  0  0  0  0  0  0  0  0999 V2000
   41.9720   82.1780   61.4180 C   0  0  0  0  0  0  0  0  0  0  0  0
   40.9130   82.4580   60.5390 C   0  0  0  0  0  0  0  0  0  0  0  0
   39.9280   83.3400   60.9820 C   0  0  0  0  0  0  0  0  0  0  0  0
   40.0530   83.8700   62.2270 N   0  0  0  0  0  0  0  0  0  0  0  0
   41.0820   83.5760   63.0420 C   0  0  0  0  0  0  0  0  0  0  0  0
   42.0420   82.7290   62.6350 N   0  0  0  0  0  0  0  0  0  0  0  0
   42.2820   84.0350   58.3260 Cl  0  0  0  0  0  0  0  0  0  0  0  0
   41.2970   82.5850   58.1520 C   0  0  0  0  0  0  0  0  0  0  0  0
   40.7180   81.9430   59.2280 C   0  0  0  0  0  0  0  0  0  0  0  0
   39.9720   80.8140   58.9170 C   0  0  0  0  0  0  0  0  0  0  0  0
   39.7630   80.2910   57.6630 C   0  0  0  0  0  0  0  0  0  0  0  0
   40.3590   80.9650   56.6280 C   0  0  0  0  0  0  0  0  0  0  0  0
   40.1780   80.4070   54.9650 Cl  0  0  0  0  0  0  0  0  0  0  0  0
   41.1190   82.1040   56.8750 C   0  0  0  0  0  0  0  0  0  0  0  0
   41.7000   82.7440   55.7800 O   0  0  0  0  0  0  0  0  0  0  0  0
   41.0550   84.2490   64.3680 C   0  0  0  0  0  0  0  0  0  0  0  0
   40.7630   85.5940   64.2680 F   0  0  0  0  0  0  0  0  0  0  0  0
   40.1190   83.6510   65.1870 F   0  0  0  0  0  0  0  0  0  0  0  0
   42.3180   84.2110   64.9700 F   0  0  0  0  0  0  0  0  0  0  0  0
   42.7653   81.4869   61.0971 H   0  0  0  0  0  0  0  0  0  0  0  0
   39.0727   83.5998   60.3409 H   0  0  0  0  0  0  0  0  0  0  0  0
   39.5009   80.2849   59.7585 H   0  0  0  0  0  0  0  0  0  0  0  0
   39.1557   79.3884   57.5000 H   0  0  0  0  0  0  0  0  0  0  0  0
   42.2478   83.5574   55.9155 H   0  0  0  0  0  0  0  0  0  0  0  0
  1  6  2  0
  2  3  2  0
  2  1  1  0
  3  4  1  0
  4  5  2  0
  5 16  1  0
  6  5  1  0
  8  7  1  0
  8  9  2  0
  9  2  1  0
 10  9  1  0
 11 10  2  0
 12 14  2  0
 12 11  1  0
 13 12  1  0
 14  8  1  0
 15 14  1  0
 16 19  1  0
 16 18  1  0
 17 16  1  0
  1 20  1  0
  3 21  1  0
 10 22  1  0
 11 23  1  0
 15 24  1  0
M  ISO  5  20  14  21  14  22  14  23  14  24   3
M  END
>  <minimizedAffinity>  (1) 
-5.26226187

>  <minimizedRMSD>  (1) 
0.200316057

$$$$
