
     RDKit          3D

 39 41  0  0  0  0  0  0  0  0999 V2000
   41.7890   83.9040   58.2160 Cl  0  0  0  0  0  0  0  0  0  0  0  0
   40.9950   82.3420   58.1540 C   0  0  0  0  0  0  0  0  0  0  0  0
   40.5970   81.6830   59.2950 C   0  0  0  0  0  0  0  0  0  0  0  0
   39.9720   80.4500   59.0940 C   0  0  0  0  0  0  0  0  0  0  0  0
   39.7290   79.8560   57.8770 C   0  0  0  0  0  0  0  0  0  0  0  0
   40.1460   80.5550   56.7760 C   0  0  0  0  0  0  0  0  0  0  0  0
   39.8810   79.8930   55.1710 Cl  0  0  0  0  0  0  0  0  0  0  0  0
   40.7790   81.7970   56.9130 C   0  0  0  0  0  0  0  0  0  0  0  0
   41.9730   82.1360   61.3660 C   0  0  0  0  0  0  0  0  0  0  0  0
   40.8300   82.2690   60.5770 C   0  0  0  0  0  0  0  0  0  0  0  0
   39.7770   83.0580   61.0660 C   0  0  0  0  0  0  0  0  0  0  0  0
   39.9330   83.6460   62.2820 N   0  0  0  0  0  0  0  0  0  0  0  0
   41.0570   83.4930   63.0180 C   0  0  0  0  0  0  0  0  0  0  0  0
   42.0730   82.7390   62.5600 N   0  0  0  0  0  0  0  0  0  0  0  0
   41.0600   84.2060   64.3260 C   0  0  0  0  0  0  0  0  0  0  0  0
   40.7820   85.5540   64.1820 F   0  0  0  0  0  0  0  0  0  0  0  0
   40.1280   83.6510   65.1750 F   0  0  0  0  0  0  0  0  0  0  0  0
   42.3220   84.1700   64.9080 F   0  0  0  0  0  0  0  0  0  0  0  0
   41.1730   82.4460   55.7600 O   0  0  0  0  0  0  0  0  0  0  0  0
   44.6140   82.9700   53.6740 N   0  0  0  0  0  0  0  0  0  0  0  0
   43.7870   81.8430   53.3000 C   0  0  0  0  0  0  0  0  0  0  0  0
   42.9070   81.5000   54.4760 C   0  0  0  0  0  0  0  0  0  0  0  0
   42.5320   82.6290   55.3560 C   0  0  0  0  0  0  0  0  0  0  0  0
   42.6780   83.9870   54.7710 C   0  0  0  0  0  0  0  0  0  0  0  0
   43.7180   84.1160   53.6820 C   0  0  0  0  0  0  0  0  0  0  0  0
   39.6441   79.9040   59.9908 H   0  0  0  0  0  0  0  0  0  0  0  0
   39.2302   78.8792   57.7936 H   0  0  0  0  0  0  0  0  0  0  0  0
   42.8104   81.5233   61.0009 H   0  0  0  0  0  0  0  0  0  0  0  0
   38.8542   83.1963   60.4835 H   0  0  0  0  0  0  0  0  0  0  0  0
   45.3694   83.1071   52.9873 H   0  0  0  0  0  0  0  0  0  0  0  0
   43.1645   82.1083   52.4328 H   0  0  0  0  0  0  0  0  0  0  0  0
   44.4150   80.9816   53.0286 H   0  0  0  0  0  0  0  0  0  0  0  0
   41.9799   81.0560   54.0845 H   0  0  0  0  0  0  0  0  0  0  0  0
   43.5017   80.8196   55.1032 H   0  0  0  0  0  0  0  0  0  0  0  0
   43.2435   82.6017   56.1944 H   0  0  0  0  0  0  0  0  0  0  0  0
   41.7059   84.2806   54.3482 H   0  0  0  0  0  0  0  0  0  0  0  0
   43.0173   84.6356   55.5921 H   0  0  0  0  0  0  0  0  0  0  0  0
   44.3056   85.0300   53.8531 H   0  0  0  0  0  0  0  0  0  0  0  0
   43.2028   84.1630   52.7112 H   0  0  0  0  0  0  0  0  0  0  0  0
  2  1  1  0
  2  3  2  0
  3 10  1  0
  4  3  1  0
  5  4  2  0
  6  8  2  0
  6  5  1  0
  7  6  1  0
  8  2  1  0
  9 14  2  0
 10 11  2  0
 10  9  1  0
 11 12  1  0
 12 13  2  0
 13 15  1  0
 14 13  1  0
 15 18  1  0
 15 17  1  0
 16 15  1  0
 19  8  1  0
 20 25  1  0
 21 20  1  0
 21 22  1  0
 22 23  1  0
 23 19  1  0
 24 23  1  0
 25 24  1  0
  4 26  1  0
  5 27  1  0
  9 28  1  0
 11 29  1  0
 20 30  1  0
 21 31  1  0
 21 32  1  0
 22 33  1  0
 22 34  1  0
 23 35  1  0
 24 36  1  0
 24 37  1  0
 25 38  1  0
 25 39  1  0
M  ISO  8  26  14  27  14  28  14  29  14  30   5  31  13  32  13  33  13
M  ISO  6  34  13  35  13  36  13  37  13  38  13  39  13
M  END
>  <minimizedAffinity>  (1) 
-5.19544506

>  <minimizedRMSD>  (1) 
0.495454222

$$$$
