
     RDKit          3D

 37 39  0  0  0  0  0  0  0  0999 V2000
   43.2800   83.4780   58.5810 Cl  0  0  0  0  0  0  0  0  0  0  0  0
   41.9140   82.4620   58.1710 C   0  0  0  0  0  0  0  0  0  0  0  0
   40.9390   82.0960   59.0820 C   0  0  0  0  0  0  0  0  0  0  0  0
   39.9330   81.2930   58.5900 C   0  0  0  0  0  0  0  0  0  0  0  0
   39.8080   80.8260   57.3090 C   0  0  0  0  0  0  0  0  0  0  0  0
   40.7870   81.2060   56.4430 C   0  0  0  0  0  0  0  0  0  0  0  0
   40.7810   80.6450   54.7730 Cl  0  0  0  0  0  0  0  0  0  0  0  0
   41.8250   82.0120   56.8640 C   0  0  0  0  0  0  0  0  0  0  0  0
   41.8050   81.9480   61.4680 C   0  0  0  0  0  0  0  0  0  0  0  0
   41.0500   82.5500   60.4300 C   0  0  0  0  0  0  0  0  0  0  0  0
   40.3410   83.6980   60.7250 C   0  0  0  0  0  0  0  0  0  0  0  0
   40.4280   84.1590   62.0060 N   0  0  0  0  0  0  0  0  0  0  0  0
   41.1440   83.5760   62.9680 C   0  0  0  0  0  0  0  0  0  0  0  0
   41.8420   82.4570   62.6990 N   0  0  0  0  0  0  0  0  0  0  0  0
   41.1040   84.2400   64.3000 C   0  0  0  0  0  0  0  0  0  0  0  0
   40.7910   85.5700   64.2110 F   0  0  0  0  0  0  0  0  0  0  0  0
   40.1570   83.6230   65.1050 F   0  0  0  0  0  0  0  0  0  0  0  0
   42.3490   84.1980   64.9180 F   0  0  0  0  0  0  0  0  0  0  0  0
   42.8170   82.3820   55.9370 O   0  0  0  0  0  0  0  0  0  0  0  0
   42.8610   83.5830   55.2430 C   0  0  0  0  0  0  0  0  0  0  0  0
   44.2500   84.2000   55.2200 C   0  0  0  0  0  0  0  0  0  0  0  0
   44.3350   84.7640   53.7940 C   0  0  0  0  0  0  0  0  0  0  0  0
   43.7210   83.6160   53.0310 C   0  0  0  0  0  0  0  0  0  0  0  0
   42.4560   83.3510   53.8130 C   0  0  0  0  0  0  0  0  0  0  0  0
   39.1480   80.9960   59.3010 H   0  0  0  0  0  0  0  0  0  0  0  0
   38.9698   80.1845   56.9994 H   0  0  0  0  0  0  0  0  0  0  0  0
   42.3771   81.0339   61.2509 H   0  0  0  0  0  0  0  0  0  0  0  0
   39.7364   84.2147   59.9651 H   0  0  0  0  0  0  0  0  0  0  0  0
   42.1762   84.2688   55.7634 H   0  0  0  0  0  0  0  0  0  0  0  0
   44.3434   84.9989   55.9704 H   0  0  0  0  0  0  0  0  0  0  0  0
   45.0524   83.4868   55.4598 H   0  0  0  0  0  0  0  0  0  0  0  0
   43.7498   85.6889   53.6836 H   0  0  0  0  0  0  0  0  0  0  0  0
   45.3439   85.0554   53.4667 H   0  0  0  0  0  0  0  0  0  0  0  0
   43.4953   83.9026   51.9932 H   0  0  0  0  0  0  0  0  0  0  0  0
   44.3800   82.7391   52.9482 H   0  0  0  0  0  0  0  0  0  0  0  0
   41.6580   84.0466   53.5142 H   0  0  0  0  0  0  0  0  0  0  0  0
   42.0557   82.3406   53.6435 H   0  0  0  0  0  0  0  0  0  0  0  0
  2  1  1  0
  2  3  2  0
  3 10  1  0
  4  3  1  0
  5  4  2  0
  6  8  2  0
  6  5  1  0
  7  6  1  0
  8  2  1  0
  9 14  2  0
 10 11  2  0
 10  9  1  0
 11 12  1  0
 12 13  2  0
 13 15  1  0
 14 13  1  0
 15 18  1  0
 15 17  1  0
 16 15  1  0
 19  8  1  0
 20 19  1  0
 21 20  1  0
 22 21  1  0
 23 22  1  0
 23 24  1  0
 24 20  1  0
  4 25  1  0
  5 26  1  0
  9 27  1  0
 11 28  1  0
 20 29  1  0
 21 30  1  0
 21 31  1  0
 22 32  1  0
 22 33  1  0
 23 34  1  0
 23 35  1  0
 24 36  1  0
 24 37  1  0
M  ISO  8  25  14  26  14  27  14  28  14  29  13  30  13  31  13  32  13
M  ISO  5  33  13  34  13  35  13  36  13  37  13
M  END
>  <minimizedAffinity>  (1) 
-4.91976452

>  <minimizedRMSD>  (1) 
1.28558612

$$$$
