
     RDKit          3D

 27 28  0  0  0  0  0  0  0  0999 V2000
   43.1120   83.9780   58.6070 Cl  0  0  0  0  0  0  0  0  0  0  0  0
   41.8900   82.7850   58.2160 C   0  0  0  0  0  0  0  0  0  0  0  0
   41.0190   82.2540   59.1530 C   0  0  0  0  0  0  0  0  0  0  0  0
   40.1180   81.3260   58.6750 C   0  0  0  0  0  0  0  0  0  0  0  0
   39.9930   80.8770   57.3820 C   0  0  0  0  0  0  0  0  0  0  0  0
   40.8690   81.4220   56.4880 C   0  0  0  0  0  0  0  0  0  0  0  0
   40.8350   80.9480   54.7910 Cl  0  0  0  0  0  0  0  0  0  0  0  0
   41.8050   82.3640   56.9040 C   0  0  0  0  0  0  0  0  0  0  0  0
   41.9560   82.1720   61.5130 C   0  0  0  0  0  0  0  0  0  0  0  0
   41.1140   82.6910   60.5040 C   0  0  0  0  0  0  0  0  0  0  0  0
   40.2840   83.7410   60.8530 C   0  0  0  0  0  0  0  0  0  0  0  0
   40.3460   84.1890   62.1390 N   0  0  0  0  0  0  0  0  0  0  0  0
   41.1520   83.6770   63.0710 C   0  0  0  0  0  0  0  0  0  0  0  0
   41.9710   82.6520   62.7540 N   0  0  0  0  0  0  0  0  0  0  0  0
   41.0620   84.3120   64.4110 C   0  0  0  0  0  0  0  0  0  0  0  0
   40.7320   85.6410   64.3420 F   0  0  0  0  0  0  0  0  0  0  0  0
   40.1150   83.6570   65.1860 F   0  0  0  0  0  0  0  0  0  0  0  0
   42.3050   84.2720   65.0610 F   0  0  0  0  0  0  0  0  0  0  0  0
   42.6780   82.8880   55.9450 O   0  0  0  0  0  0  0  0  0  0  0  0
   42.4540   84.0730   55.2300 C   0  0  0  0  0  0  0  0  0  0  0  0
   39.4216   80.8972   59.4106 H   0  0  0  0  0  0  0  0  0  0  0  0
   39.2400   80.1309   57.0882 H   0  0  0  0  0  0  0  0  0  0  0  0
   42.6266   81.3369   61.2624 H   0  0  0  0  0  0  0  0  0  0  0  0
   39.6006   84.1967   60.1214 H   0  0  0  0  0  0  0  0  0  0  0  0
   42.2972   84.9026   55.9351 H   0  0  0  0  0  0  0  0  0  0  0  0
   43.3271   84.2899   54.5970 H   0  0  0  0  0  0  0  0  0  0  0  0
   41.5620   83.9562   54.5970 H   0  0  0  0  0  0  0  0  0  0  0  0
  2  1  1  0
  2  3  2  0
  3 10  1  0
  4  3  1  0
  5  4  2  0
  6  8  2  0
  6  5  1  0
  7  6  1  0
  8  2  1  0
  9 14  2  0
 10 11  2  0
 10  9  1  0
 11 12  1  0
 12 13  2  0
 13 15  1  0
 14 13  1  0
 15 18  1  0
 15 17  1  0
 16 15  1  0
 19  8  1  0
 20 19  1  0
  4 21  1  0
  5 22  1  0
  9 23  1  0
 11 24  1  0
 20 25  1  0
 20 26  1  0
 20 27  1  0
M  ISO  7  21  14  22  14  23  14  24  14  25   8  26   8  27   8
M  END
>  <minimizedAffinity>  (1) 
-4.95323801

>  <minimizedRMSD>  (1) 
0.611788571

$$$$
