
     RDKit          3D

 36 38  0  0  0  0  0  0  0  0999 V2000
   42.9910   83.9130   58.6490 Cl  0  0  0  0  0  0  0  0  0  0  0  0
   41.7910   82.7020   58.2980 C   0  0  0  0  0  0  0  0  0  0  0  0
   40.9350   82.1630   59.2550 C   0  0  0  0  0  0  0  0  0  0  0  0
   40.0470   81.2170   58.8090 C   0  0  0  0  0  0  0  0  0  0  0  0
   39.9030   80.7380   57.5290 C   0  0  0  0  0  0  0  0  0  0  0  0
   40.7580   81.2860   56.6090 C   0  0  0  0  0  0  0  0  0  0  0  0
   40.7020   80.7800   54.9250 Cl  0  0  0  0  0  0  0  0  0  0  0  0
   41.6880   82.2550   56.9950 C   0  0  0  0  0  0  0  0  0  0  0  0
   41.9160   82.1370   61.6070 C   0  0  0  0  0  0  0  0  0  0  0  0
   41.0450   82.6270   60.5970 C   0  0  0  0  0  0  0  0  0  0  0  0
   40.2050   83.6690   60.9390 C   0  0  0  0  0  0  0  0  0  0  0  0
   40.2850   84.1380   62.2190 N   0  0  0  0  0  0  0  0  0  0  0  0
   41.1050   83.6670   63.1490 C   0  0  0  0  0  0  0  0  0  0  0  0
   41.9330   82.6510   62.8370 N   0  0  0  0  0  0  0  0  0  0  0  0
   41.0380   84.3140   64.4790 C   0  0  0  0  0  0  0  0  0  0  0  0
   40.6880   85.6460   64.3860 F   0  0  0  0  0  0  0  0  0  0  0  0
   40.1000   83.6740   65.2740 F   0  0  0  0  0  0  0  0  0  0  0  0
   42.2760   84.2970   65.1200 F   0  0  0  0  0  0  0  0  0  0  0  0
   42.5300   82.7760   56.0210 O   0  0  0  0  0  0  0  0  0  0  0  0
   42.3380   84.0280   55.4020 C   0  0  0  0  0  0  0  0  0  0  0  0
   42.9470   84.1130   54.0680 C   0  0  0  0  0  0  0  0  0  0  0  0
   42.4760   83.2500   53.0960 C   0  0  0  0  0  0  0  0  0  0  0  0
   43.0160   83.2940   51.8320 C   0  0  0  0  0  0  0  0  0  0  0  0
   44.0290   84.2390   51.6330 C   0  0  0  0  0  0  0  0  0  0  0  0
   44.4930   85.1040   52.6290 C   0  0  0  0  0  0  0  0  0  0  0  0
   43.9240   85.0120   53.8450 N   0  0  0  0  0  0  0  0  0  0  0  0
   39.3706   80.7918   59.5651 H   0  0  0  0  0  0  0  0  0  0  0  0
   39.1584   79.9732   57.2633 H   0  0  0  0  0  0  0  0  0  0  0  0
   42.5975   81.3077   61.3666 H   0  0  0  0  0  0  0  0  0  0  0  0
   39.5023   84.1021   60.2119 H   0  0  0  0  0  0  0  0  0  0  0  0
   41.2572   84.2081   55.3051 H   0  0  0  0  0  0  0  0  0  0  0  0
   42.8276   84.7837   56.0338 H   0  0  0  0  0  0  0  0  0  0  0  0
   41.6753   82.5336   53.3319 H   0  0  0  0  0  0  0  0  0  0  0  0
   42.6729   82.6275   51.0270 H   0  0  0  0  0  0  0  0  0  0  0  0
   44.4869   84.3052   50.6350 H   0  0  0  0  0  0  0  0  0  0  0  0
   45.2925   85.8318   52.4262 H   0  0  0  0  0  0  0  0  0  0  0  0
  2  1  1  0
  2  3  2  0
  3 10  1  0
  4  3  1  0
  5  4  2  0
  6  8  2  0
  6  5  1  0
  7  6  1  0
  8  2  1  0
  9 14  2  0
 10 11  2  0
 10  9  1  0
 11 12  1  0
 12 13  2  0
 13 15  1  0
 14 13  1  0
 15 18  1  0
 15 17  1  0
 16 15  1  0
 19  8  1  0
 20 19  1  0
 21 20  1  0
 22 21  2  0
 23 22  1  0
 24 23  2  0
 24 25  1  0
 25 26  2  0
 26 21  1  0
  4 27  1  0
  5 28  1  0
  9 29  1  0
 11 30  1  0
 20 31  1  0
 20 32  1  0
 22 33  1  0
 23 34  1  0
 24 35  1  0
 25 36  1  0
M  ISO  8  27  14  28  14  29  14  30  14  31   8  32   8  33  14  34  14
M  ISO  2  35  14  36  14
M  END
>  <minimizedAffinity>  (1) 
-5.20856953

>  <minimizedRMSD>  (1) 
0.680483043

$$$$
