
     RDKit          3D

 41 44  0  0  0  0  0  0  0  0999 V2000
   43.0690   83.8390   58.6470 Cl  0  0  0  0  0  0  0  0  0  0  0  0
   41.8270   82.6630   58.2880 C   0  0  0  0  0  0  0  0  0  0  0  0
   40.9460   82.1660   59.2390 C   0  0  0  0  0  0  0  0  0  0  0  0
   40.0350   81.2520   58.7820 C   0  0  0  0  0  0  0  0  0  0  0  0
   39.8930   80.7700   57.5020 C   0  0  0  0  0  0  0  0  0  0  0  0
   40.7830   81.2860   56.5930 C   0  0  0  0  0  0  0  0  0  0  0  0
   40.7160   80.7590   54.9140 Cl  0  0  0  0  0  0  0  0  0  0  0  0
   41.7410   82.2260   56.9910 C   0  0  0  0  0  0  0  0  0  0  0  0
   41.9120   82.1340   61.5870 C   0  0  0  0  0  0  0  0  0  0  0  0
   41.0530   82.6330   60.5760 C   0  0  0  0  0  0  0  0  0  0  0  0
   40.2190   83.6950   60.9160 C   0  0  0  0  0  0  0  0  0  0  0  0
   40.3080   84.1570   62.1940 N   0  0  0  0  0  0  0  0  0  0  0  0
   41.1200   83.6730   63.1260 C   0  0  0  0  0  0  0  0  0  0  0  0
   41.9420   82.6390   62.8190 N   0  0  0  0  0  0  0  0  0  0  0  0
   41.0500   84.3300   64.4510 C   0  0  0  0  0  0  0  0  0  0  0  0
   40.7260   85.6540   64.3610 F   0  0  0  0  0  0  0  0  0  0  0  0
   40.1020   83.6810   65.2450 F   0  0  0  0  0  0  0  0  0  0  0  0
   42.3020   84.2900   65.0970 F   0  0  0  0  0  0  0  0  0  0  0  0
   42.6010   82.6950   56.0060 O   0  0  0  0  0  0  0  0  0  0  0  0
   42.4510   83.9180   55.3410 C   0  0  0  0  0  0  0  0  0  0  0  0
   44.0920   84.5750   53.6370 C   0  0  0  0  0  0  0  0  0  0  0  0
   42.9290   83.9150   53.9620 C   0  0  0  0  0  0  0  0  0  0  0  0
   42.2520   83.2620   52.9320 C   0  0  0  0  0  0  0  0  0  0  0  0
   42.7270   83.2760   51.6450 C   0  0  0  0  0  0  0  0  0  0  0  0
   42.2310   82.7180   50.5260 N   0  0  0  0  0  0  0  0  0  0  0  0
   43.0400   83.0030   49.5130 C   0  0  0  0  0  0  0  0  0  0  0  0
   44.1160   83.7750   49.9380 C   0  0  0  0  0  0  0  0  0  0  0  0
   43.8910   83.9330   51.3020 C   0  0  0  0  0  0  0  0  0  0  0  0
   44.5630   84.5810   52.3190 C   0  0  0  0  0  0  0  0  0  0  0  0
   39.3317   80.8553   59.5289 H   0  0  0  0  0  0  0  0  0  0  0  0
   39.1270   80.0296   57.2281 H   0  0  0  0  0  0  0  0  0  0  0  0
   42.5812   81.2954   61.3441 H   0  0  0  0  0  0  0  0  0  0  0  0
   39.5231   84.1386   60.1887 H   0  0  0  0  0  0  0  0  0  0  0  0
   41.3821   84.1776   55.3344 H   0  0  0  0  0  0  0  0  0  0  0  0
   43.0656   84.6499   55.8856 H   0  0  0  0  0  0  0  0  0  0  0  0
   44.6565   85.1025   54.4200 H   0  0  0  0  0  0  0  0  0  0  0  0
   41.3185   82.7250   53.1561 H   0  0  0  0  0  0  0  0  0  0  0  0
   41.3664   82.1616   50.4653 H   0  0  0  0  0  0  0  0  0  0  0  0
   42.8807   82.6727   48.4759 H   0  0  0  0  0  0  0  0  0  0  0  0
   44.9492   84.1683   49.3370 H   0  0  0  0  0  0  0  0  0  0  0  0
   45.4950   85.1172   52.0870 H   0  0  0  0  0  0  0  0  0  0  0  0
  2  1  1  0
  2  3  2  0
  3 10  1  0
  4  3  1  0
  5  4  2  0
  6  8  2  0
  6  5  1  0
  7  6  1  0
  8  2  1  0
  9 14  2  0
 10 11  2  0
 10  9  1  0
 11 12  1  0
 12 13  2  0
 13 15  1  0
 14 13  1  0
 15 18  1  0
 15 17  1  0
 16 15  1  0
 19  8  1  0
 20 19  1  0
 21 22  2  0
 22 20  1  0
 23 22  1  0
 24 23  2  0
 25 24  1  0
 26 27  2  0
 26 25  1  0
 27 28  1  0
 28 24  1  0
 28 29  2  0
 29 21  1  0
  4 30  1  0
  5 31  1  0
  9 32  1  0
 11 33  1  0
 20 34  1  0
 20 35  1  0
 21 36  1  0
 23 37  1  0
 25 38  1  0
 26 39  1  0
 27 40  1  0
 29 41  1  0
M  ISO  8  30  14  31  14  32  14  33  14  34   8  35   8  36  14  37  14
M  ISO  4  38   9  39  14  40  14  41  14
M  END
>  <minimizedAffinity>  (1) 
-5.13861847

>  <minimizedRMSD>  (1) 
1.51244867

$$$$
