
     RDKit          3D

 33 35  0  0  0  0  0  0  0  0999 V2000
   42.9370   83.9970   58.6360 Cl  0  0  0  0  0  0  0  0  0  0  0  0
   41.7630   82.7450   58.2830 C   0  0  0  0  0  0  0  0  0  0  0  0
   40.9510   82.1860   59.2500 C   0  0  0  0  0  0  0  0  0  0  0  0
   40.0840   81.2140   58.8050 C   0  0  0  0  0  0  0  0  0  0  0  0
   39.9340   80.7430   57.5220 C   0  0  0  0  0  0  0  0  0  0  0  0
   40.7580   81.3230   56.5970 C   0  0  0  0  0  0  0  0  0  0  0  0
   40.7020   80.8410   54.9070 Cl  0  0  0  0  0  0  0  0  0  0  0  0
   41.6620   82.3160   56.9800 C   0  0  0  0  0  0  0  0  0  0  0  0
   41.9280   82.1670   61.5980 C   0  0  0  0  0  0  0  0  0  0  0  0
   41.0640   82.6370   60.5980 C   0  0  0  0  0  0  0  0  0  0  0  0
   40.1990   83.6740   60.9440 C   0  0  0  0  0  0  0  0  0  0  0  0
   40.2670   84.1430   62.2240 N   0  0  0  0  0  0  0  0  0  0  0  0
   41.1050   83.6690   63.1500 C   0  0  0  0  0  0  0  0  0  0  0  0
   41.9460   82.6680   62.8300 N   0  0  0  0  0  0  0  0  0  0  0  0
   41.0150   84.3230   64.4820 C   0  0  0  0  0  0  0  0  0  0  0  0
   40.6830   85.6470   64.3980 F   0  0  0  0  0  0  0  0  0  0  0  0
   40.0840   83.6830   65.2710 F   0  0  0  0  0  0  0  0  0  0  0  0
   42.2680   84.3030   65.1160 F   0  0  0  0  0  0  0  0  0  0  0  0
   42.4700   82.8680   55.9980 O   0  0  0  0  0  0  0  0  0  0  0  0
   42.2700   84.1020   55.3750 C   0  0  0  0  0  0  0  0  0  0  0  0
   42.9990   84.1210   54.0560 C   0  0  0  0  0  0  0  0  0  0  0  0
   42.5360   83.2320   52.9370 C   0  0  0  0  0  0  0  0  0  0  0  0
   43.7950   83.7350   51.6860 S   0  0  0  0  0  0  0  0  0  0  0  0
   44.6540   84.9480   52.7870 C   0  0  0  0  0  0  0  0  0  0  0  0
   44.0150   84.9630   54.0260 N   0  0  0  0  0  0  0  0  0  0  0  0
   39.4334   80.7598   59.5668 H   0  0  0  0  0  0  0  0  0  0  0  0
   39.2073   79.9600   57.2596 H   0  0  0  0  0  0  0  0  0  0  0  0
   42.6208   81.3485   61.3527 H   0  0  0  0  0  0  0  0  0  0  0  0
   39.4911   84.0967   60.2158 H   0  0  0  0  0  0  0  0  0  0  0  0
   41.1946   84.2558   55.2022 H   0  0  0  0  0  0  0  0  0  0  0  0
   42.6556   84.9057   56.0195 H   0  0  0  0  0  0  0  0  0  0  0  0
   41.7082   82.5097   52.8812 H   0  0  0  0  0  0  0  0  0  0  0  0
   45.5264   85.5578   52.5095 H   0  0  0  0  0  0  0  0  0  0  0  0
  2  1  1  0
  2  3  2  0
  3 10  1  0
  4  3  1  0
  5  4  2  0
  6  8  2  0
  6  5  1  0
  7  6  1  0
  8  2  1  0
  9 14  2  0
 10 11  2  0
 10  9  1  0
 11 12  1  0
 12 13  2  0
 13 15  1  0
 14 13  1  0
 15 18  1  0
 15 17  1  0
 16 15  1  0
 19  8  1  0
 20 19  1  0
 21 20  1  0
 22 21  2  0
 23 24  1  0
 23 22  1  0
 24 25  2  0
 25 21  1  0
  4 26  1  0
  5 27  1  0
  9 28  1  0
 11 29  1  0
 20 30  1  0
 20 31  1  0
 22 32  1  0
 24 33  1  0
M  ISO  8  26  14  27  14  28  14  29  14  30   8  31   8  32  14  33  14
M  END
>  <minimizedAffinity>  (1) 
-5.12087393

>  <minimizedRMSD>  (1) 
0.698686779

$$$$
