
     RDKit          3D

 33 34  0  0  0  0  0  0  0  0999 V2000
   42.9200   84.1230   58.5850 Cl  0  0  0  0  0  0  0  0  0  0  0  0
   41.7860   82.8430   58.2250 C   0  0  0  0  0  0  0  0  0  0  0  0
   40.9780   82.2360   59.1880 C   0  0  0  0  0  0  0  0  0  0  0  0
   40.1440   81.2480   58.7370 C   0  0  0  0  0  0  0  0  0  0  0  0
   40.0130   80.7880   57.4470 C   0  0  0  0  0  0  0  0  0  0  0  0
   40.8200   81.4050   56.5220 C   0  0  0  0  0  0  0  0  0  0  0  0
   40.7660   80.9270   54.8300 Cl  0  0  0  0  0  0  0  0  0  0  0  0
   41.6940   82.4200   56.9130 C   0  0  0  0  0  0  0  0  0  0  0  0
   41.9630   82.1990   61.5290 C   0  0  0  0  0  0  0  0  0  0  0  0
   41.0840   82.6830   60.5420 C   0  0  0  0  0  0  0  0  0  0  0  0
   40.2120   83.7070   60.8970 C   0  0  0  0  0  0  0  0  0  0  0  0
   40.2840   84.1570   62.1810 N   0  0  0  0  0  0  0  0  0  0  0  0
   41.1310   83.6760   63.0950 C   0  0  0  0  0  0  0  0  0  0  0  0
   41.9800   82.6870   62.7700 N   0  0  0  0  0  0  0  0  0  0  0  0
   41.0400   84.3180   64.4430 C   0  0  0  0  0  0  0  0  0  0  0  0
   40.7140   85.6460   64.3700 F   0  0  0  0  0  0  0  0  0  0  0  0
   40.1100   83.6530   65.2240 F   0  0  0  0  0  0  0  0  0  0  0  0
   42.2840   84.2860   65.0860 F   0  0  0  0  0  0  0  0  0  0  0  0
   42.4810   83.0020   55.9290 O   0  0  0  0  0  0  0  0  0  0  0  0
   42.2550   84.2560   55.3670 C   0  0  0  0  0  0  0  0  0  0  0  0
   43.3610   84.6950   54.6820 O   0  0  0  0  0  0  0  0  0  0  0  0
   44.1300   84.4630   52.1400 O   0  0  0  0  0  0  0  0  0  0  0  0
   43.4130   83.7540   53.2540 P   0  0  0  0  0  0  0  0  0  0  0  0
   41.7690   83.5260   52.8370 O   0  0  0  0  0  0  0  0  0  0  0  0
   44.0640   82.2310   53.5980 O   0  0  0  0  0  0  0  0  0  0  0  0
   39.5056   80.7670   59.4927 H   0  0  0  0  0  0  0  0  0  0  0  0
   39.3127   79.9842   57.1758 H   0  0  0  0  0  0  0  0  0  0  0  0
   42.6606   81.3897   61.2675 H   0  0  0  0  0  0  0  0  0  0  0  0
   39.4988   84.1329   60.1759 H   0  0  0  0  0  0  0  0  0  0  0  0
   41.4043   84.1910   54.6727 H   0  0  0  0  0  0  0  0  0  0  0  0
   42.0384   84.9688   56.1763 H   0  0  0  0  0  0  0  0  0  0  0  0
   41.2267   83.4508   53.6618 H   0  0  0  0  0  0  0  0  0  0  0  0
   44.1164   82.1084   54.5790 H   0  0  0  0  0  0  0  0  0  0  0  0
  2  1  1  0
  2  3  2  0
  3 10  1  0
  4  3  1  0
  5  4  2  0
  6  8  2  0
  6  5  1  0
  7  6  1  0
  8  2  1  0
  9 14  2  0
 10 11  2  0
 10  9  1  0
 11 12  1  0
 12 13  2  0
 13 15  1  0
 14 13  1  0
 15 18  1  0
 15 17  1  0
 16 15  1  0
 19  8  1  0
 20 19  1  0
 21 20  1  0
 22 23  2  0
 23 25  1  0
 23 21  1  0
 24 23  1  0
  4 26  1  0
  5 27  1  0
  9 28  1  0
 11 29  1  0
 20 30  1  0
 20 31  1  0
 24 32  1  0
 25 33  1  0
M  ISO  8  26  14  27  14  28  14  29  14  30   8  31   8  32   3  33   3
M  END
>  <minimizedAffinity>  (1) 
-5.08763885

>  <minimizedRMSD>  (1) 
0.544224262

$$$$
