
     RDKit          3D

 17 18  0  0  0  0  0  0  0  0999 V2000
   41.8750   83.7770   57.5080 C   0  0  0  0  0  0  0  0  0  0  0  0
   41.6490   85.0520   56.9600 C   0  0  0  0  0  0  0  0  0  0  0  0
   40.8840   85.9580   57.7010 C   0  0  0  0  0  0  0  0  0  0  0  0
   40.4050   85.5470   58.9120 N   0  0  0  0  0  0  0  0  0  0  0  0
   40.6360   84.3190   59.4140 C   0  0  0  0  0  0  0  0  0  0  0  0
   41.3690   83.4500   58.7050 N   0  0  0  0  0  0  0  0  0  0  0  0
   40.0520   84.0370   60.7240 C   0  0  0  0  0  0  0  0  0  0  0  0
   40.8590   83.7000   61.8040 C   0  0  0  0  0  0  0  0  0  0  0  0
   40.0290   83.4940   62.8880 C   0  0  0  0  0  0  0  0  0  0  0  0
   38.7530   83.7060   62.4580 N   0  0  0  0  0  0  0  0  0  0  0  0
   38.7620   84.0290   61.1690 N   0  0  0  0  0  0  0  0  0  0  0  0
   42.4724   83.0415   56.9493 H   0  0  0  0  0  0  0  0  0  0  0  0
   42.0614   85.3283   55.9784 H   0  0  0  0  0  0  0  0  0  0  0  0
   40.6748   86.9688   57.3209 H   0  0  0  0  0  0  0  0  0  0  0  0
   41.9556   83.6134   61.7966 H   0  0  0  0  0  0  0  0  0  0  0  0
   40.3386   83.2123   63.9053 H   0  0  0  0  0  0  0  0  0  0  0  0
   37.9093   83.6277   63.0437 H   0  0  0  0  0  0  0  0  0  0  0  0
  1  6  2  0
  2  1  1  0
  2  3  2  0
  3  4  1  0
  4  5  2  0
  5  7  1  0
  6  5  1  0
  7 11  2  0
  7  8  1  0
  8  9  2  0
 10  9  1  0
 11 10  1  0
  1 12  1  0
  2 13  1  0
  3 14  1  0
  8 15  1  0
  9 16  1  0
 10 17  1  0
M  ISO  6  12  14  13  14  14  14  15  14  16  14  17   9
M  END
>  <minimizedAffinity>  (1) 
-3.99335909

>  <minimizedRMSD>  (1) 
3.41352463

$$$$
