
     RDKit          3D

 40 42  0  0  0  0  0  0  0  0999 V2000
   43.1360   84.0070   58.6540 Cl  0  0  0  0  0  0  0  0  0  0  0  0
   41.9240   82.8180   58.2480 C   0  0  0  0  0  0  0  0  0  0  0  0
   41.0410   82.2720   59.1770 C   0  0  0  0  0  0  0  0  0  0  0  0
   40.1520   81.3490   58.6870 C   0  0  0  0  0  0  0  0  0  0  0  0
   40.0390   80.9080   57.3970 C   0  0  0  0  0  0  0  0  0  0  0  0
   40.9130   81.4570   56.5140 C   0  0  0  0  0  0  0  0  0  0  0  0
   40.8930   80.9900   54.8090 Cl  0  0  0  0  0  0  0  0  0  0  0  0
   41.8530   82.4080   56.9340 C   0  0  0  0  0  0  0  0  0  0  0  0
   41.9520   82.1950   61.5470 C   0  0  0  0  0  0  0  0  0  0  0  0
   41.1290   82.7080   60.5310 C   0  0  0  0  0  0  0  0  0  0  0  0
   40.3030   83.7600   60.8790 C   0  0  0  0  0  0  0  0  0  0  0  0
   40.3430   84.2180   62.1560 N   0  0  0  0  0  0  0  0  0  0  0  0
   41.1460   83.6990   63.0970 C   0  0  0  0  0  0  0  0  0  0  0  0
   41.9650   82.6670   62.7860 N   0  0  0  0  0  0  0  0  0  0  0  0
   41.0540   84.3290   64.4400 C   0  0  0  0  0  0  0  0  0  0  0  0
   40.7020   85.6490   64.3730 F   0  0  0  0  0  0  0  0  0  0  0  0
   40.0980   83.6590   65.2080 F   0  0  0  0  0  0  0  0  0  0  0  0
   42.2800   84.3010   65.0990 F   0  0  0  0  0  0  0  0  0  0  0  0
   42.7140   82.9260   55.9790 O   0  0  0  0  0  0  0  0  0  0  0  0
   42.4620   84.0960   55.2500 C   0  0  0  0  0  0  0  0  0  0  0  0
   43.6510   84.6950   54.7050 N   0  0  0  0  0  0  0  0  0  0  0  0
   43.7920   84.5070   53.2910 C   0  0  0  0  0  0  0  0  0  0  0  0
   44.3810   83.1830   52.9090 C   0  0  0  0  0  0  0  0  0  0  0  0
   45.4840   82.8230   53.6630 O   0  0  0  0  0  0  0  0  0  0  0  0
   45.9040   83.8300   54.5220 C   0  0  0  0  0  0  0  0  0  0  0  0
   44.7990   84.2480   55.4600 C   0  0  0  0  0  0  0  0  0  0  0  0
   39.4504   80.9142   59.4141 H   0  0  0  0  0  0  0  0  0  0  0  0
   39.2913   80.1597   57.0953 H   0  0  0  0  0  0  0  0  0  0  0  0
   42.6213   81.3572   61.3018 H   0  0  0  0  0  0  0  0  0  0  0  0
   39.6290   84.2154   60.1385 H   0  0  0  0  0  0  0  0  0  0  0  0
   41.7830   83.8507   54.4201 H   0  0  0  0  0  0  0  0  0  0  0  0
   42.0204   84.8243   55.9460 H   0  0  0  0  0  0  0  0  0  0  0  0
   42.7966   84.5890   52.8300 H   0  0  0  0  0  0  0  0  0  0  0  0
   44.4883   85.2804   52.9345 H   0  0  0  0  0  0  0  0  0  0  0  0
   43.6080   82.4105   53.0348 H   0  0  0  0  0  0  0  0  0  0  0  0
   44.7214   83.2730   51.8669 H   0  0  0  0  0  0  0  0  0  0  0  0
   46.7563   83.4640   55.1132 H   0  0  0  0  0  0  0  0  0  0  0  0
   46.1946   84.7022   53.9180 H   0  0  0  0  0  0  0  0  0  0  0  0
   45.1557   85.0684   56.1001 H   0  0  0  0  0  0  0  0  0  0  0  0
   44.5091   83.3880   56.0816 H   0  0  0  0  0  0  0  0  0  0  0  0
  2  1  1  0
  2  3  2  0
  3 10  1  0
  4  3  1  0
  5  4  2  0
  6  8  2  0
  6  5  1  0
  7  6  1  0
  8  2  1  0
  9 14  2  0
 10 11  2  0
 10  9  1  0
 11 12  1  0
 12 13  2  0
 13 15  1  0
 14 13  1  0
 15 18  1  0
 15 17  1  0
 16 15  1  0
 19  8  1  0
 20 19  1  0
 21 20  1  0
 21 26  1  0
 22 21  1  0
 23 22  1  0
 23 24  1  0
 24 25  1  0
 25 26  1  0
  4 27  1  0
  5 28  1  0
  9 29  1  0
 11 30  1  0
 20 31  1  0
 20 32  1  0
 22 33  1  0
 22 34  1  0
 23 35  1  0
 23 36  1  0
 25 37  1  0
 25 38  1  0
 26 39  1  0
 26 40  1  0
M  ISO  8  27  14  28  14  29  14  30  14  31   8  32   8  33  13  34  13
M  ISO  6  35  13  36  13  37  13  38  13  39  13  40  13
M  END
>  <minimizedAffinity>  (1) 
-5.05017948

>  <minimizedRMSD>  (1) 
1.29340792

$$$$
