
     RDKit          3D

 34 36  0  0  0  0  0  0  0  0999 V2000
   43.7490   82.7720   59.3020 Cl  0  0  0  0  0  0  0  0  0  0  0  0
   42.2710   82.1950   58.5840 C   0  0  0  0  0  0  0  0  0  0  0  0
   41.0760   82.1050   59.2780 C   0  0  0  0  0  0  0  0  0  0  0  0
   40.0060   81.6130   58.5690 C   0  0  0  0  0  0  0  0  0  0  0  0
   39.9980   81.2070   57.2520 C   0  0  0  0  0  0  0  0  0  0  0  0
   41.1940   81.3130   56.6030 C   0  0  0  0  0  0  0  0  0  0  0  0
   41.3380   80.8230   54.9230 Cl  0  0  0  0  0  0  0  0  0  0  0  0
   42.3260   81.8070   57.2710 C   0  0  0  0  0  0  0  0  0  0  0  0
   40.9910   81.7100   61.7810 C   0  0  0  0  0  0  0  0  0  0  0  0
   41.0440   82.5210   60.6380 C   0  0  0  0  0  0  0  0  0  0  0  0
   41.0680   83.8980   60.8430 C   0  0  0  0  0  0  0  0  0  0  0  0
   41.0390   84.3500   62.1310 N   0  0  0  0  0  0  0  0  0  0  0  0
   40.9880   83.5540   63.1900 C   0  0  0  0  0  0  0  0  0  0  0  0
   40.9640   82.2250   63.0170 N   0  0  0  0  0  0  0  0  0  0  0  0
   40.9630   84.2430   64.5070 C   0  0  0  0  0  0  0  0  0  0  0  0
   40.6140   85.5610   64.4050 F   0  0  0  0  0  0  0  0  0  0  0  0
   40.0630   83.6160   65.3560 F   0  0  0  0  0  0  0  0  0  0  0  0
   42.2460   84.2410   65.0930 F   0  0  0  0  0  0  0  0  0  0  0  0
   43.5240   81.8960   56.5560 O   0  0  0  0  0  0  0  0  0  0  0  0
   43.8910   82.9270   55.7270 C   0  0  0  0  0  0  0  0  0  0  0  0
   44.4180   84.1640   56.3140 C   0  0  0  0  0  0  0  0  0  0  0  0
   45.7040   84.6330   56.6130 C   0  0  0  0  0  0  0  0  0  0  0  0
   45.5630   85.8910   57.1630 C   0  0  0  0  0  0  0  0  0  0  0  0
   44.2380   86.1640   57.1920 N   0  0  0  0  0  0  0  0  0  0  0  0
   43.5740   85.1430   56.6920 N   0  0  0  0  0  0  0  0  0  0  0  0
   39.0525   81.5348   59.1118 H   0  0  0  0  0  0  0  0  0  0  0  0
   39.0921   80.8247   56.7589 H   0  0  0  0  0  0  0  0  0  0  0  0
   40.9710   80.6170   61.6585 H   0  0  0  0  0  0  0  0  0  0  0  0
   41.1090   84.5982   59.9956 H   0  0  0  0  0  0  0  0  0  0  0  0
   43.0005   83.2023   55.1428 H   0  0  0  0  0  0  0  0  0  0  0  0
   44.7443   82.5198   55.1648 H   0  0  0  0  0  0  0  0  0  0  0  0
   46.6498   84.0982   56.4414 H   0  0  0  0  0  0  0  0  0  0  0  0
   46.3740   86.5473   57.5117 H   0  0  0  0  0  0  0  0  0  0  0  0
   43.8157   87.0331   57.5488 H   0  0  0  0  0  0  0  0  0  0  0  0
  2  3  2  0
  2  1  1  0
  3 10  1  0
  4  3  1  0
  5  4  2  0
  6  5  1  0
  6  8  2  0
  7  6  1  0
  8  2  1  0
  9 14  2  0
 10 11  2  0
 10  9  1  0
 11 12  1  0
 12 13  2  0
 13 15  1  0
 14 13  1  0
 15 18  1  0
 15 17  1  0
 16 15  1  0
 19  8  1  0
 20 21  1  0
 20 19  1  0
 21 22  1  0
 21 25  2  0
 22 23  2  0
 23 24  1  0
 25 24  1  0
  4 26  1  0
  5 27  1  0
  9 28  1  0
 11 29  1  0
 20 30  1  0
 20 31  1  0
 22 32  1  0
 23 33  1  0
 24 34  1  0
M  ISO  8  26  14  27  14  28  14  29  14  30   8  31   8  32  14  33  14
M  ISO  1  34   9
M  END
>  <minimizedAffinity>  (1) 
-5.04593182

>  <minimizedRMSD>  (1) 
1.5399065

$$$$
