
     RDKit          3D

 34 36  0  0  0  0  0  0  0  0999 V2000
   43.1060   83.5990   58.6140 Cl  0  0  0  0  0  0  0  0  0  0  0  0
   41.8170   82.4870   58.2480 C   0  0  0  0  0  0  0  0  0  0  0  0
   40.9140   82.0270   59.1960 C   0  0  0  0  0  0  0  0  0  0  0  0
   39.9600   81.1480   58.7460 C   0  0  0  0  0  0  0  0  0  0  0  0
   39.8050   80.6770   57.4620 C   0  0  0  0  0  0  0  0  0  0  0  0
   40.7100   81.1500   56.5590 C   0  0  0  0  0  0  0  0  0  0  0  0
   40.6420   80.6380   54.8740 Cl  0  0  0  0  0  0  0  0  0  0  0  0
   41.7100   82.0500   56.9540 C   0  0  0  0  0  0  0  0  0  0  0  0
   41.8280   81.9560   61.5670 C   0  0  0  0  0  0  0  0  0  0  0  0
   41.0410   82.4960   60.5380 C   0  0  0  0  0  0  0  0  0  0  0  0
   40.2880   83.6250   60.8500 C   0  0  0  0  0  0  0  0  0  0  0  0
   40.3680   84.1180   62.1160 N   0  0  0  0  0  0  0  0  0  0  0  0
   41.1280   83.5780   63.0700 C   0  0  0  0  0  0  0  0  0  0  0  0
   41.8620   82.4910   62.7930 N   0  0  0  0  0  0  0  0  0  0  0  0
   41.0880   84.2560   64.3900 C   0  0  0  0  0  0  0  0  0  0  0  0
   40.7630   85.5890   64.2790 F   0  0  0  0  0  0  0  0  0  0  0  0
   40.1360   83.6530   65.2040 F   0  0  0  0  0  0  0  0  0  0  0  0
   42.3390   84.2190   65.0140 F   0  0  0  0  0  0  0  0  0  0  0  0
   42.6090   82.5010   55.9820 O   0  0  0  0  0  0  0  0  0  0  0  0
   42.4890   83.6630   55.2550 C   0  0  0  0  0  0  0  0  0  0  0  0
   43.7120   84.3710   54.8630 C   0  0  0  0  0  0  0  0  0  0  0  0
   44.1440   84.5610   53.5440 C   0  0  0  0  0  0  0  0  0  0  0  0
   45.3070   85.2260   53.4770 N   0  0  0  0  0  0  0  0  0  0  0  0
   45.6320   85.4680   54.7580 C   0  0  0  0  0  0  0  0  0  0  0  0
   44.7020   84.9710   55.5890 N   0  0  0  0  0  0  0  0  0  0  0  0
   39.2413   80.7801   59.4930 H   0  0  0  0  0  0  0  0  0  0  0  0
   39.0089   79.9704   57.1847 H   0  0  0  0  0  0  0  0  0  0  0  0
   42.4368   81.0638   61.3588 H   0  0  0  0  0  0  0  0  0  0  0  0
   39.6472   84.1044   60.0953 H   0  0  0  0  0  0  0  0  0  0  0  0
   41.9474   83.4136   54.3306 H   0  0  0  0  0  0  0  0  0  0  0  0
   41.9821   84.3587   55.9398 H   0  0  0  0  0  0  0  0  0  0  0  0
   43.5914   84.2048   52.6621 H   0  0  0  0  0  0  0  0  0  0  0  0
   45.8332   85.4917   52.6324 H   0  0  0  0  0  0  0  0  0  0  0  0
   46.5378   86.0013   55.0822 H   0  0  0  0  0  0  0  0  0  0  0  0
  2  1  1  0
  2  3  2  0
  3 10  1  0
  4  3  1  0
  5  4  2  0
  6  8  2  0
  6  5  1  0
  7  6  1  0
  8  2  1  0
  9 14  2  0
 10 11  2  0
 10  9  1  0
 11 12  1  0
 12 13  2  0
 13 15  1  0
 14 13  1  0
 15 18  1  0
 15 17  1  0
 16 15  1  0
 19  8  1  0
 20 19  1  0
 21 20  1  0
 21 25  1  0
 22 21  2  0
 23 22  1  0
 23 24  1  0
 24 25  2  0
  4 26  1  0
  5 27  1  0
  9 28  1  0
 11 29  1  0
 20 30  1  0
 20 31  1  0
 22 32  1  0
 23 33  1  0
 24 34  1  0
M  ISO  8  26  14  27  14  28  14  29  14  30   8  31   8  32  14  33   9
M  ISO  1  34  14
M  END
>  <minimizedAffinity>  (1) 
-4.89473057

>  <minimizedRMSD>  (1) 
1.78322101

$$$$
