
     RDKit          3D

 28 29  0  0  0  0  0  0  0  0999 V2000
   43.1010   83.9930   58.5980 Cl  0  0  0  0  0  0  0  0  0  0  0  0
   41.8840   82.7890   58.2080 C   0  0  0  0  0  0  0  0  0  0  0  0
   41.0200   82.2530   59.1520 C   0  0  0  0  0  0  0  0  0  0  0  0
   40.1220   81.3170   58.6810 C   0  0  0  0  0  0  0  0  0  0  0  0
   39.9960   80.8670   57.3900 C   0  0  0  0  0  0  0  0  0  0  0  0
   40.8610   81.4170   56.4950 C   0  0  0  0  0  0  0  0  0  0  0  0
   40.8220   80.9390   54.7990 Cl  0  0  0  0  0  0  0  0  0  0  0  0
   41.7980   82.3690   56.8930 C   0  0  0  0  0  0  0  0  0  0  0  0
   41.9660   82.1800   61.5100 C   0  0  0  0  0  0  0  0  0  0  0  0
   41.1160   82.6910   60.4980 C   0  0  0  0  0  0  0  0  0  0  0  0
   40.2770   83.7400   60.8530 C   0  0  0  0  0  0  0  0  0  0  0  0
   40.3460   84.1820   62.1420 N   0  0  0  0  0  0  0  0  0  0  0  0
   41.1560   83.6820   63.0700 C   0  0  0  0  0  0  0  0  0  0  0  0
   41.9880   82.6550   62.7500 N   0  0  0  0  0  0  0  0  0  0  0  0
   41.0640   84.3180   64.4060 C   0  0  0  0  0  0  0  0  0  0  0  0
   40.7300   85.6430   64.3410 F   0  0  0  0  0  0  0  0  0  0  0  0
   40.1170   83.6540   65.1830 F   0  0  0  0  0  0  0  0  0  0  0  0
   42.3150   84.2730   65.0580 F   0  0  0  0  0  0  0  0  0  0  0  0
   42.6600   82.9030   55.9450 O   0  0  0  0  0  0  0  0  0  0  0  0
   42.3920   84.0670   55.2050 C   0  0  0  0  0  0  0  0  0  0  0  0
   43.5460   84.8800   55.2810 O   0  0  0  0  0  0  0  0  0  0  0  0
   39.4320   80.8843   59.4204 H   0  0  0  0  0  0  0  0  0  0  0  0
   39.2481   80.1145   57.0995 H   0  0  0  0  0  0  0  0  0  0  0  0
   42.6407   81.3492   61.2561 H   0  0  0  0  0  0  0  0  0  0  0  0
   39.5872   84.1944   60.1266 H   0  0  0  0  0  0  0  0  0  0  0  0
   41.5281   84.5964   55.6333 H   0  0  0  0  0  0  0  0  0  0  0  0
   42.1531   83.8213   54.1597 H   0  0  0  0  0  0  0  0  0  0  0  0
   43.7744   85.0409   56.2308 H   0  0  0  0  0  0  0  0  0  0  0  0
  2  1  1  0
  2  3  2  0
  3 10  1  0
  4  3  1  0
  5  4  2  0
  6  8  2  0
  6  5  1  0
  7  6  1  0
  8  2  1  0
  9 14  2  0
 10 11  2  0
 10  9  1  0
 11 12  1  0
 12 13  2  0
 13 15  1  0
 14 13  1  0
 15 18  1  0
 15 17  1  0
 16 15  1  0
 19  8  1  0
 20 21  1  0
 20 19  1  0
  4 22  1  0
  5 23  1  0
  9 24  1  0
 11 25  1  0
 20 26  1  0
 20 27  1  0
 21 28  1  0
M  ISO  7  22  14  23  14  24  14  25  14  26   8  27   8  28   3
M  END
>  <minimizedAffinity>  (1) 
-4.96088028

>  <minimizedRMSD>  (1) 
0.23734051

$$$$
