
     RDKit          3D

 44 46  0  0  1  0  0  0  0  0999 V2000
   43.0120   84.1500   58.6750 Cl  0  0  0  0  0  0  0  0  0  0  0  0
   41.8640   82.8770   58.2800 C   0  0  0  0  0  0  0  0  0  0  0  0
   41.0330   82.2830   59.2300 C   0  0  0  0  0  0  0  0  0  0  0  0
   40.1920   81.3050   58.7650 C   0  0  0  0  0  0  0  0  0  0  0  0
   40.0800   80.8490   57.4710 C   0  0  0  0  0  0  0  0  0  0  0  0
   40.9150   81.4600   56.5730 C   0  0  0  0  0  0  0  0  0  0  0  0
   40.8850   80.9840   54.8810 Cl  0  0  0  0  0  0  0  0  0  0  0  0
   41.7900   82.4570   56.9680 C   0  0  0  0  0  0  0  0  0  0  0  0
   41.9700   82.2410   61.5910 C   0  0  0  0  0  0  0  0  0  0  0  0
   41.1150   82.7230   60.5800 C   0  0  0  0  0  0  0  0  0  0  0  0
   40.2380   83.7540   60.9320 C   0  0  0  0  0  0  0  0  0  0  0  0
   40.2950   84.1950   62.2210 N   0  0  0  0  0  0  0  0  0  0  0  0
   41.1170   83.7180   63.1540 C   0  0  0  0  0  0  0  0  0  0  0  0
   41.9860   82.7070   62.8350 N   0  0  0  0  0  0  0  0  0  0  0  0
   41.0080   84.3450   64.4880 C   0  0  0  0  0  0  0  0  0  0  0  0
   40.6550   85.6640   64.4280 F   0  0  0  0  0  0  0  0  0  0  0  0
   40.0640   83.6620   65.2610 F   0  0  0  0  0  0  0  0  0  0  0  0
   42.2570   84.3260   65.1480 F   0  0  0  0  0  0  0  0  0  0  0  0
   42.6110   83.0410   56.0230 O   0  0  0  0  0  0  0  0  0  0  0  0
   42.2680   84.1630   55.2550 C   0  0  0  0  0  0  0  0  0  0  0  0
   43.4490   84.6010   54.6090 O   0  0  0  0  0  0  0  0  0  0  0  0
   44.4990   84.8110   52.5460 C   0  0  1  0  0  0  0  0  0  0  0  0
   43.7180   83.8740   53.4800 C   0  0  2  0  0  0  0  0  0  0  0  0
   42.5250   83.4280   52.6930 C   0  0  0  0  0  0  0  0  0  0  0  0
   42.9620   82.4100   51.8240 O   0  0  0  0  0  0  0  0  0  0  0  0
   44.1630   82.7030   51.2350 C   0  0  0  0  0  0  0  0  0  0  0  0
   44.4630   84.1830   51.1960 C   0  0  2  0  0  0  0  0  0  0  0  0
   43.7860   86.0260   52.5530 O   0  0  0  0  0  0  0  0  0  0  0  0
   45.6040   84.4670   50.4630 O   0  0  0  0  0  0  0  0  0  0  0  0
   39.5336   80.8322   59.5086 H   0  0  0  0  0  0  0  0  0  0  0  0
   39.3751   80.0560   57.1807 H   0  0  0  0  0  0  0  0  0  0  0  0
   42.6667   81.4293   61.3346 H   0  0  0  0  0  0  0  0  0  0  0  0
   39.5364   84.1880   60.2044 H   0  0  0  0  0  0  0  0  0  0  0  0
   41.5078   83.8910   54.5080 H   0  0  0  0  0  0  0  0  0  0  0  0
   41.8498   84.9588   55.8889 H   0  0  0  0  0  0  0  0  0  0  0  0
   45.5448   84.9813   52.8415 H   0  0  0  0  0  0  0  0  0  0  0  0
   44.2407   82.9654   53.8133 H   0  0  0  0  0  0  0  0  0  0  0  0
   41.7496   83.0398   53.3698 H   0  0  0  0  0  0  0  0  0  0  0  0
   42.0914   84.2666   52.1285 H   0  0  0  0  0  0  0  0  0  0  0  0
   44.9613   82.1995   51.8001 H   0  0  0  0  0  0  0  0  0  0  0  0
   44.1094   82.3534   50.1934 H   0  0  0  0  0  0  0  0  0  0  0  0
   43.6148   84.6444   50.6691 H   0  0  0  0  0  0  0  0  0  0  0  0
   43.6213   86.3066   53.4880 H   0  0  0  0  0  0  0  0  0  0  0  0
   46.3549   84.6539   51.0805 H   0  0  0  0  0  0  0  0  0  0  0  0
  2  1  1  0
  2  3  2  0
  3 10  1  0
  4  3  1  0
  5  4  2  0
  6  8  2  0
  6  5  1  0
  7  6  1  0
  8  2  1  0
  9 14  2  0
 10 11  2  0
 10  9  1  0
 11 12  1  0
 12 13  2  0
 13 15  1  0
 14 13  1  0
 15 18  1  0
 15 17  1  0
 16 15  1  0
 19  8  1  0
 20 19  1  0
 21 20  1  0
 22 28  1  0
 22 23  1  0
 23 21  1  0
 24 23  1  0
 25 24  1  0
 26 25  1  0
 27 29  1  0
 27 26  1  0
 27 22  1  0
  4 30  1  0
  5 31  1  0
  9 32  1  0
 11 33  1  0
 20 34  1  0
 20 35  1  0
 22 36  1  1
 23 37  1  1
 24 38  1  0
 24 39  1  0
 26 40  1  0
 26 41  1  0
 27 42  1  6
 28 43  1  0
 29 44  1  0
M  ISO  8  30  14  31  14  32  14  33  14  34   8  35   8  36  13  37  13
M  ISO  7  38  13  39  13  40  13  41  13  42  13  43   3  44   3
M  END
>  <minimizedAffinity>  (1) 
-5.27949953

>  <minimizedRMSD>  (1) 
1.29335153

$$$$
