
     RDKit          3D

 38 40  0  0  0  0  0  0  0  0999 V2000
   43.0600   84.1410   58.6500 Cl  0  0  0  0  0  0  0  0  0  0  0  0
   41.9020   82.8890   58.2480 C   0  0  0  0  0  0  0  0  0  0  0  0
   41.0640   82.3050   59.2000 C   0  0  0  0  0  0  0  0  0  0  0  0
   40.2010   81.3280   58.7230 C   0  0  0  0  0  0  0  0  0  0  0  0
   40.0980   80.8930   57.4250 C   0  0  0  0  0  0  0  0  0  0  0  0
   40.9290   81.4850   56.5320 C   0  0  0  0  0  0  0  0  0  0  0  0
   40.9080   81.0250   54.8320 Cl  0  0  0  0  0  0  0  0  0  0  0  0
   41.8280   82.4790   56.9360 C   0  0  0  0  0  0  0  0  0  0  0  0
   42.0020   82.2390   61.5580 C   0  0  0  0  0  0  0  0  0  0  0  0
   41.1450   82.7320   60.5420 C   0  0  0  0  0  0  0  0  0  0  0  0
   40.2710   83.7640   60.9010 C   0  0  0  0  0  0  0  0  0  0  0  0
   40.3240   84.2020   62.1960 N   0  0  0  0  0  0  0  0  0  0  0  0
   41.1460   83.7090   63.1220 C   0  0  0  0  0  0  0  0  0  0  0  0
   42.0010   82.7120   62.8010 N   0  0  0  0  0  0  0  0  0  0  0  0
   41.0350   84.3310   64.4600 C   0  0  0  0  0  0  0  0  0  0  0  0
   40.6720   85.6590   64.4020 F   0  0  0  0  0  0  0  0  0  0  0  0
   40.0870   83.6520   65.2230 F   0  0  0  0  0  0  0  0  0  0  0  0
   42.2810   84.3120   65.1240 F   0  0  0  0  0  0  0  0  0  0  0  0
   42.6620   83.0630   55.9980 O   0  0  0  0  0  0  0  0  0  0  0  0
   42.3650   84.2250   55.2890 C   0  0  0  0  0  0  0  0  0  0  0  0
   43.5160   84.6680   54.6270 O   0  0  0  0  0  0  0  0  0  0  0  0
   43.7670   83.5210   51.2000 N   0  0  0  0  0  0  0  0  0  0  0  0
   43.3420   83.4810   52.4760 C   0  0  0  0  0  0  0  0  0  0  0  0
   43.8110   84.4970   53.2920 C   0  0  0  0  0  0  0  0  0  0  0  0
   44.6560   85.4590   52.7780 C   0  0  0  0  0  0  0  0  0  0  0  0
   45.1280   86.4230   53.4670 O   0  0  0  0  0  0  0  0  0  0  0  0
   45.0650   85.4710   51.4950 N   0  0  0  0  0  0  0  0  0  0  0  0
   44.5870   84.4610   50.7180 C   0  0  0  0  0  0  0  0  0  0  0  0
   44.9330   84.4140   49.5050 O   0  0  0  0  0  0  0  0  0  0  0  0
   39.5332   80.8553   59.4582 H   0  0  0  0  0  0  0  0  0  0  0  0
   39.3840   80.1110   57.1272 H   0  0  0  0  0  0  0  0  0  0  0  0
   42.7005   81.4273   61.3065 H   0  0  0  0  0  0  0  0  0  0  0  0
   39.5722   84.2037   60.1741 H   0  0  0  0  0  0  0  0  0  0  0  0
   41.5752   84.0149   54.5528 H   0  0  0  0  0  0  0  0  0  0  0  0
   42.0165   85.0029   55.9843 H   0  0  0  0  0  0  0  0  0  0  0  0
   43.4419   82.7849   50.5571 H   0  0  0  0  0  0  0  0  0  0  0  0
   42.6677   82.6946   52.8460 H   0  0  0  0  0  0  0  0  0  0  0  0
   45.6971   86.1959   51.1265 H   0  0  0  0  0  0  0  0  0  0  0  0
  2  1  1  0
  2  3  2  0
  3 10  1  0
  4  3  1  0
  5  4  2  0
  6  8  2  0
  6  5  1  0
  7  6  1  0
  8  2  1  0
  9 14  2  0
 10 11  2  0
 10  9  1  0
 11 12  1  0
 12 13  2  0
 13 15  1  0
 14 13  1  0
 15 18  1  0
 15 17  1  0
 16 15  1  0
 19  8  1  0
 20 19  1  0
 21 20  1  0
 22 23  1  0
 23 24  2  0
 24 21  1  0
 25 24  1  0
 25 26  2  0
 27 25  1  0
 28 22  1  0
 28 27  1  0
 29 28  2  0
  4 30  1  0
  5 31  1  0
  9 32  1  0
 11 33  1  0
 20 34  1  0
 20 35  1  0
 22 36  1  0
 23 37  1  0
 27 38  1  0
M  ISO  8  30  14  31  14  32  14  33  14  34   8  35   8  36   9  37  14
M  ISO  1  38   9
M  END
>  <minimizedAffinity>  (1) 
-5.14668274

>  <minimizedRMSD>  (1) 
1.82741892

$$$$
