
     RDKit          3D

 36 38  0  0  0  0  0  0  0  0999 V2000
   43.0830   84.0440   58.6560 Cl  0  0  0  0  0  0  0  0  0  0  0  0
   41.8850   82.8190   58.2600 C   0  0  0  0  0  0  0  0  0  0  0  0
   41.0200   82.2590   59.2000 C   0  0  0  0  0  0  0  0  0  0  0  0
   40.1400   81.3130   58.7250 C   0  0  0  0  0  0  0  0  0  0  0  0
   40.0270   80.8650   57.4330 C   0  0  0  0  0  0  0  0  0  0  0  0
   40.8870   81.4330   56.5370 C   0  0  0  0  0  0  0  0  0  0  0  0
   40.8610   80.9610   54.8410 Cl  0  0  0  0  0  0  0  0  0  0  0  0
   41.8050   82.3980   56.9430 C   0  0  0  0  0  0  0  0  0  0  0  0
   41.9450   82.1820   61.5650 C   0  0  0  0  0  0  0  0  0  0  0  0
   41.1080   82.6970   60.5510 C   0  0  0  0  0  0  0  0  0  0  0  0
   40.2670   83.7560   60.8940 C   0  0  0  0  0  0  0  0  0  0  0  0
   40.3380   84.1920   62.1890 N   0  0  0  0  0  0  0  0  0  0  0  0
   41.1350   83.6870   63.1210 C   0  0  0  0  0  0  0  0  0  0  0  0
   41.9600   82.6570   62.8090 N   0  0  0  0  0  0  0  0  0  0  0  0
   41.0330   84.3270   64.4550 C   0  0  0  0  0  0  0  0  0  0  0  0
   40.6820   85.6550   64.3870 F   0  0  0  0  0  0  0  0  0  0  0  0
   40.0920   83.6680   65.2310 F   0  0  0  0  0  0  0  0  0  0  0  0
   42.2900   84.3040   65.1070 F   0  0  0  0  0  0  0  0  0  0  0  0
   42.6650   82.9530   56.0070 O   0  0  0  0  0  0  0  0  0  0  0  0
   42.4030   84.1390   55.3090 C   0  0  0  0  0  0  0  0  0  0  0  0
   43.6260   84.5690   54.7430 O   0  0  0  0  0  0  0  0  0  0  0  0
   43.8450   84.8240   53.4290 C   0  0  0  0  0  0  0  0  0  0  0  0
   43.4720   83.8330   52.5520 C   0  0  0  0  0  0  0  0  0  0  0  0
   43.6240   83.9310   51.1950 C   0  0  0  0  0  0  0  0  0  0  0  0
   44.1700   85.0610   50.6860 N   0  0  0  0  0  0  0  0  0  0  0  0
   44.5400   86.0420   51.5290 C   0  0  0  0  0  0  0  0  0  0  0  0
   44.3830   85.9290   52.8550 N   0  0  0  0  0  0  0  0  0  0  0  0
   39.4534   80.8683   59.4604 H   0  0  0  0  0  0  0  0  0  0  0  0
   39.2933   80.1001   57.1388 H   0  0  0  0  0  0  0  0  0  0  0  0
   42.6173   81.3479   61.3152 H   0  0  0  0  0  0  0  0  0  0  0  0
   39.5845   84.2151   60.1637 H   0  0  0  0  0  0  0  0  0  0  0  0
   41.6645   83.9540   54.5150 H   0  0  0  0  0  0  0  0  0  0  0  0
   41.9926   84.9062   55.9821 H   0  0  0  0  0  0  0  0  0  0  0  0
   43.0284   82.9137   52.9620 H   0  0  0  0  0  0  0  0  0  0  0  0
   43.3098   83.1105   50.5331 H   0  0  0  0  0  0  0  0  0  0  0  0
   44.9832   86.9614   51.1188 H   0  0  0  0  0  0  0  0  0  0  0  0
  2  1  1  0
  2  3  2  0
  3 10  1  0
  4  3  1  0
  5  4  2  0
  6  8  2  0
  6  5  1  0
  7  6  1  0
  8  2  1  0
  9 14  2  0
 10 11  2  0
 10  9  1  0
 11 12  1  0
 12 13  2  0
 13 15  1  0
 14 13  1  0
 15 18  1  0
 15 17  1  0
 16 15  1  0
 19  8  1  0
 20 19  1  0
 21 20  1  0
 22 21  1  0
 23 22  2  0
 24 23  1  0
 25 24  2  0
 25 26  1  0
 26 27  2  0
 27 22  1  0
  4 28  1  0
  5 29  1  0
  9 30  1  0
 11 31  1  0
 20 32  1  0
 20 33  1  0
 23 34  1  0
 24 35  1  0
 26 36  1  0
M  ISO  8  28  14  29  14  30  14  31  14  32   8  33   8  34  14  35  14
M  ISO  1  36  14
M  END
>  <minimizedAffinity>  (1) 
-5.04181719

>  <minimizedRMSD>  (1) 
1.64035726

$$$$
