
     RDKit          3D

 40 42  0  0  1  0  0  0  0  0999 V2000
   43.1010   83.9860   58.5980 Cl  0  0  0  0  0  0  0  0  0  0  0  0
   41.8880   82.7900   58.2130 C   0  0  0  0  0  0  0  0  0  0  0  0
   41.0200   82.2460   59.1500 C   0  0  0  0  0  0  0  0  0  0  0  0
   40.1160   81.3100   58.6880 C   0  0  0  0  0  0  0  0  0  0  0  0
   39.9970   80.8660   57.3920 C   0  0  0  0  0  0  0  0  0  0  0  0
   40.8670   81.4200   56.4950 C   0  0  0  0  0  0  0  0  0  0  0  0
   40.8200   80.9400   54.8010 Cl  0  0  0  0  0  0  0  0  0  0  0  0
   41.8020   82.3720   56.9000 C   0  0  0  0  0  0  0  0  0  0  0  0
   41.9670   82.1740   61.5080 C   0  0  0  0  0  0  0  0  0  0  0  0
   41.1190   82.6870   60.5020 C   0  0  0  0  0  0  0  0  0  0  0  0
   40.2820   83.7370   60.8500 C   0  0  0  0  0  0  0  0  0  0  0  0
   40.3520   84.1830   62.1390 N   0  0  0  0  0  0  0  0  0  0  0  0
   41.1610   83.6850   63.0690 C   0  0  0  0  0  0  0  0  0  0  0  0
   41.9910   82.6530   62.7500 N   0  0  0  0  0  0  0  0  0  0  0  0
   41.0680   84.3260   64.4040 C   0  0  0  0  0  0  0  0  0  0  0  0
   40.7250   85.6460   64.3400 F   0  0  0  0  0  0  0  0  0  0  0  0
   40.1210   83.6600   65.1820 F   0  0  0  0  0  0  0  0  0  0  0  0
   42.3180   84.2690   65.0590 F   0  0  0  0  0  0  0  0  0  0  0  0
   42.6610   82.9020   55.9520 O   0  0  0  0  0  0  0  0  0  0  0  0
   42.3950   84.0790   55.2260 C   0  0  0  0  0  0  0  0  0  0  0  0
   43.6390   84.7370   55.0400 O   0  0  0  0  0  0  0  0  0  0  0  0
   44.4600   85.7850   53.1100 N   0  0  0  0  0  0  0  0  0  0  0  0
   45.3290   85.3760   52.0220 C   0  0  0  0  0  0  0  0  0  0  0  0
   46.0780   84.1630   52.5120 C   0  0  0  0  0  0  0  0  0  0  0  0
   45.4450   83.8330   53.8420 C   0  0  0  0  0  0  0  0  0  0  0  0
   44.1120   84.5440   53.7450 C   0  0  1  0  0  0  0  0  0  0  0  0
   39.4252   80.8784   59.4272 H   0  0  0  0  0  0  0  0  0  0  0  0
   39.2505   80.1141   57.0964 H   0  0  0  0  0  0  0  0  0  0  0  0
   42.6384   81.3406   61.2538 H   0  0  0  0  0  0  0  0  0  0  0  0
   39.5935   84.1897   60.1213 H   0  0  0  0  0  0  0  0  0  0  0  0
   41.9490   83.8302   54.2518 H   0  0  0  0  0  0  0  0  0  0  0  0
   41.6849   84.7231   55.7654 H   0  0  0  0  0  0  0  0  0  0  0  0
   43.6211   86.2632   52.7515 H   0  0  0  0  0  0  0  0  0  0  0  0
   46.0332   86.1835   51.7728 H   0  0  0  0  0  0  0  0  0  0  0  0
   44.7523   85.1496   51.1131 H   0  0  0  0  0  0  0  0  0  0  0  0
   45.9620   83.3252   51.8087 H   0  0  0  0  0  0  0  0  0  0  0  0
   47.1586   84.3487   52.6001 H   0  0  0  0  0  0  0  0  0  0  0  0
   45.3107   82.7478   53.9618 H   0  0  0  0  0  0  0  0  0  0  0  0
   46.0489   84.1418   54.7080 H   0  0  0  0  0  0  0  0  0  0  0  0
   43.3264   84.0095   53.1908 H   0  0  0  0  0  0  0  0  0  0  0  0
  2  1  1  0
  2  3  2  0
  3 10  1  0
  4  3  1  0
  5  4  2  0
  6  8  2  0
  6  5  1  0
  7  6  1  0
  8  2  1  0
  9 14  2  0
 10 11  2  0
 10  9  1  0
 11 12  1  0
 12 13  2  0
 13 15  1  0
 14 13  1  0
 15 18  1  0
 15 17  1  0
 16 15  1  0
 19  8  1  0
 20 19  1  0
 21 20  1  0
 22 26  1  0
 23 24  1  0
 23 22  1  0
 24 25  1  0
 26 25  1  0
 26 21  1  0
  4 27  1  0
  5 28  1  0
  9 29  1  0
 11 30  1  0
 20 31  1  0
 20 32  1  0
 22 33  1  0
 23 34  1  0
 23 35  1  0
 24 36  1  0
 24 37  1  0
 25 38  1  0
 25 39  1  0
 26 40  1  6
M  ISO  8  27  14  28  14  29  14  30  14  31   8  32   8  33   5  34  13
M  ISO  6  35  13  36  13  37  13  38  13  39  13  40  13
M  END
>  <minimizedAffinity>  (1) 
-4.98431158

>  <minimizedRMSD>  (1) 
1.23783946

$$$$
