
     RDKit          3D

 38 40  0  0  0  0  0  0  0  0999 V2000
   43.1370   83.9800   58.6910 Cl  0  0  0  0  0  0  0  0  0  0  0  0
   41.9110   82.7870   58.2770 C   0  0  0  0  0  0  0  0  0  0  0  0
   41.0260   82.2520   59.2160 C   0  0  0  0  0  0  0  0  0  0  0  0
   40.1290   81.3310   58.7320 C   0  0  0  0  0  0  0  0  0  0  0  0
   40.0060   80.8840   57.4480 C   0  0  0  0  0  0  0  0  0  0  0  0
   40.8830   81.4260   56.5630 C   0  0  0  0  0  0  0  0  0  0  0  0
   40.8500   80.9500   54.8640 Cl  0  0  0  0  0  0  0  0  0  0  0  0
   41.8310   82.3720   56.9710 C   0  0  0  0  0  0  0  0  0  0  0  0
   41.9270   82.1720   61.5930 C   0  0  0  0  0  0  0  0  0  0  0  0
   41.1160   82.6860   60.5630 C   0  0  0  0  0  0  0  0  0  0  0  0
   40.2970   83.7530   60.9070 C   0  0  0  0  0  0  0  0  0  0  0  0
   40.3370   84.2160   62.1900 N   0  0  0  0  0  0  0  0  0  0  0  0
   41.1310   83.6880   63.1310 C   0  0  0  0  0  0  0  0  0  0  0  0
   41.9380   82.6490   62.8260 N   0  0  0  0  0  0  0  0  0  0  0  0
   41.0340   84.3290   64.4700 C   0  0  0  0  0  0  0  0  0  0  0  0
   40.6800   85.6530   64.3980 F   0  0  0  0  0  0  0  0  0  0  0  0
   40.0860   83.6580   65.2460 F   0  0  0  0  0  0  0  0  0  0  0  0
   42.2820   84.3080   65.1140 F   0  0  0  0  0  0  0  0  0  0  0  0
   42.7010   82.8940   56.0320 O   0  0  0  0  0  0  0  0  0  0  0  0
   42.5200   84.0770   55.3220 C   0  0  0  0  0  0  0  0  0  0  0  0
   43.4230   84.1000   54.2580 O   0  0  0  0  0  0  0  0  0  0  0  0
   45.0710   86.0040   52.7560 Cl  0  0  0  0  0  0  0  0  0  0  0  0
   43.9110   84.8620   52.1420 C   0  0  0  0  0  0  0  0  0  0  0  0
   43.1580   83.9820   52.9210 C   0  0  0  0  0  0  0  0  0  0  0  0
   42.2750   83.1330   52.2820 C   0  0  0  0  0  0  0  0  0  0  0  0
   42.1290   83.1440   50.9090 C   0  0  0  0  0  0  0  0  0  0  0  0
   42.8820   84.0240   50.1250 C   0  0  0  0  0  0  0  0  0  0  0  0
   43.7660   84.8740   50.7590 C   0  0  0  0  0  0  0  0  0  0  0  0
   39.4282   80.9039   59.4644 H   0  0  0  0  0  0  0  0  0  0  0  0
   39.2522   80.1397   57.1516 H   0  0  0  0  0  0  0  0  0  0  0  0
   42.5890   81.3254   61.3584 H   0  0  0  0  0  0  0  0  0  0  0  0
   39.6314   84.2144   60.1626 H   0  0  0  0  0  0  0  0  0  0  0  0
   41.4910   84.1238   54.9359 H   0  0  0  0  0  0  0  0  0  0  0  0
   42.6929   84.9409   55.9806 H   0  0  0  0  0  0  0  0  0  0  0  0
   41.6746   82.4323   52.8807 H   0  0  0  0  0  0  0  0  0  0  0  0
   41.4165   82.4569   50.4292 H   0  0  0  0  0  0  0  0  0  0  0  0
   42.7726   84.0385   49.0305 H   0  0  0  0  0  0  0  0  0  0  0  0
   44.3667   85.5736   50.1592 H   0  0  0  0  0  0  0  0  0  0  0  0
  2  1  1  0
  2  3  2  0
  3 10  1  0
  4  3  1  0
  5  4  2  0
  6  8  2  0
  6  5  1  0
  7  6  1  0
  8  2  1  0
  9 14  2  0
 10 11  2  0
 10  9  1  0
 11 12  1  0
 12 13  2  0
 13 15  1  0
 14 13  1  0
 15 18  1  0
 15 17  1  0
 16 15  1  0
 19  8  1  0
 20 19  1  0
 21 20  1  0
 23 22  1  0
 23 24  2  0
 24 21  1  0
 25 24  1  0
 26 25  2  0
 27 28  2  0
 27 26  1  0
 28 23  1  0
  4 29  1  0
  5 30  1  0
  9 31  1  0
 11 32  1  0
 20 33  1  0
 20 34  1  0
 25 35  1  0
 26 36  1  0
 27 37  1  0
 28 38  1  0
M  ISO  8  29  14  30  14  31  14  32  14  33   8  34   8  35  14  36  14
M  ISO  2  37  14  38  14
M  END
>  <minimizedAffinity>  (1) 
-4.85566759

>  <minimizedRMSD>  (1) 
2.39719367

$$$$
