
     RDKit          3D

 35 36  0  0  0  0  0  0  0  0999 V2000
   43.0680   84.0770   58.6370 Cl  0  0  0  0  0  0  0  0  0  0  0  0
   41.8910   82.8450   58.2420 C   0  0  0  0  0  0  0  0  0  0  0  0
   41.0410   82.2760   59.1930 C   0  0  0  0  0  0  0  0  0  0  0  0
   40.1660   81.3130   58.7140 C   0  0  0  0  0  0  0  0  0  0  0  0
   40.0560   80.8710   57.4180 C   0  0  0  0  0  0  0  0  0  0  0  0
   40.8950   81.4460   56.5290 C   0  0  0  0  0  0  0  0  0  0  0  0
   40.8640   80.9740   54.8320 Cl  0  0  0  0  0  0  0  0  0  0  0  0
   41.8110   82.4270   56.9270 C   0  0  0  0  0  0  0  0  0  0  0  0
   41.9720   82.2180   61.5490 C   0  0  0  0  0  0  0  0  0  0  0  0
   41.1300   82.7110   60.5360 C   0  0  0  0  0  0  0  0  0  0  0  0
   40.2700   83.7560   60.8850 C   0  0  0  0  0  0  0  0  0  0  0  0
   40.3320   84.1960   62.1720 N   0  0  0  0  0  0  0  0  0  0  0  0
   41.1430   83.7080   63.1080 C   0  0  0  0  0  0  0  0  0  0  0  0
   41.9910   82.6860   62.7890 N   0  0  0  0  0  0  0  0  0  0  0  0
   41.0440   84.3370   64.4460 C   0  0  0  0  0  0  0  0  0  0  0  0
   40.6900   85.6550   64.3840 F   0  0  0  0  0  0  0  0  0  0  0  0
   40.1030   83.6520   65.2180 F   0  0  0  0  0  0  0  0  0  0  0  0
   42.2870   84.3060   65.1040 F   0  0  0  0  0  0  0  0  0  0  0  0
   42.6480   82.9840   55.9760 O   0  0  0  0  0  0  0  0  0  0  0  0
   42.3420   84.1610   55.2590 C   0  0  0  0  0  0  0  0  0  0  0  0
   43.5580   84.7120   54.8270 O   0  0  0  0  0  0  0  0  0  0  0  0
   43.9200   84.5740   53.4940 C   0  0  0  0  0  0  0  0  0  0  0  0
   44.9790   85.1570   52.9560 C   0  0  0  0  0  0  0  0  0  0  0  0
   45.8440   86.0070   53.7850 C   0  0  0  0  0  0  0  0  0  0  0  0
   39.4884   80.8546   59.4493 H   0  0  0  0  0  0  0  0  0  0  0  0
   39.3310   80.0982   57.1229 H   0  0  0  0  0  0  0  0  0  0  0  0
   42.6561   81.3943   61.2970 H   0  0  0  0  0  0  0  0  0  0  0  0
   39.5771   84.2011   60.1557 H   0  0  0  0  0  0  0  0  0  0  0  0
   41.7084   83.9205   54.3926 H   0  0  0  0  0  0  0  0  0  0  0  0
   41.7942   84.8733   55.8935 H   0  0  0  0  0  0  0  0  0  0  0  0
   43.2906   83.9441   52.8482 H   0  0  0  0  0  0  0  0  0  0  0  0
   45.2109   85.0057   51.8914 H   0  0  0  0  0  0  0  0  0  0  0  0
   45.6425   85.8090   54.8481 H   0  0  0  0  0  0  0  0  0  0  0  0
   46.8981   85.7837   53.5638 H   0  0  0  0  0  0  0  0  0  0  0  0
   45.6391   87.0649   53.5638 H   0  0  0  0  0  0  0  0  0  0  0  0
  2  1  1  0
  2  3  2  0
  3 10  1  0
  4  3  1  0
  5  4  2  0
  6  8  2  0
  6  5  1  0
  7  6  1  0
  8  2  1  0
  9 14  2  0
 10 11  2  0
 10  9  1  0
 11 12  1  0
 12 13  2  0
 13 15  1  0
 14 13  1  0
 15 18  1  0
 15 17  1  0
 16 15  1  0
 19  8  1  0
 20 19  1  0
 21 20  1  0
 22 21  1  0
 23 22  2  0
 23 24  1  0
  4 25  1  0
  5 26  1  0
  9 27  1  0
 11 28  1  0
 20 29  1  0
 20 30  1  0
 22 31  1  0
 23 32  1  0
 24 33  1  0
 24 34  1  0
 24 35  1  0
M  ISO  8  25  14  26  14  27  14  28  14  29   8  30   8  33   8  34   8
M  ISO  1  35   8
M  END
>  <minimizedAffinity>  (1) 
-4.76814461

>  <minimizedRMSD>  (1) 
0.738813639

$$$$
