
     RDKit          3D

 41 44  0  0  0  0  0  0  0  0999 V2000
   44.4860   84.7310   59.7300 Cl  0  0  0  0  0  0  0  0  0  0  0  0
   42.8480   84.2410   59.3350 C   0  0  0  0  0  0  0  0  0  0  0  0
   42.5010   83.6700   58.1090 C   0  0  0  0  0  0  0  0  0  0  0  0
   41.1760   83.3400   57.9510 C   0  0  0  0  0  0  0  0  0  0  0  0
   40.1710   83.5170   58.8720 C   0  0  0  0  0  0  0  0  0  0  0  0
   40.5420   84.0750   60.0560 C   0  0  0  0  0  0  0  0  0  0  0  0
   39.3630   84.3570   61.3260 Cl  0  0  0  0  0  0  0  0  0  0  0  0
   41.8730   84.4360   60.2880 C   0  0  0  0  0  0  0  0  0  0  0  0
   44.0230   84.4050   56.2050 C   0  0  0  0  0  0  0  0  0  0  0  0
   43.5200   83.4760   57.1350 C   0  0  0  0  0  0  0  0  0  0  0  0
   44.0800   82.1980   57.1130 C   0  0  0  0  0  0  0  0  0  0  0  0
   45.0630   81.9730   56.1910 N   0  0  0  0  0  0  0  0  0  0  0  0
   45.5130   82.8720   55.3300 C   0  0  0  0  0  0  0  0  0  0  0  0
   44.9820   84.1280   55.3320 N   0  0  0  0  0  0  0  0  0  0  0  0
   46.5890   82.4070   54.4160 C   0  0  0  0  0  0  0  0  0  0  0  0
   47.2340   81.3030   54.8790 F   0  0  0  0  0  0  0  0  0  0  0  0
   46.0510   82.1240   53.1610 F   0  0  0  0  0  0  0  0  0  0  0  0
   47.5840   83.4000   54.2780 F   0  0  0  0  0  0  0  0  0  0  0  0
   42.2020   85.0020   61.5110 O   0  0  0  0  0  0  0  0  0  0  0  0
   42.2290   84.2680   62.7200 C   0  0  0  0  0  0  0  0  0  0  0  0
   43.1360   83.2000   62.5040 O   0  0  0  0  0  0  0  0  0  0  0  0
   43.8270   81.0800   62.0000 C   0  0  0  0  0  0  0  0  0  0  0  0
   42.7500   81.8890   62.3020 C   0  0  0  0  0  0  0  0  0  0  0  0
   41.4710   81.4090   62.3820 C   0  0  0  0  0  0  0  0  0  0  0  0
   41.3120   80.0660   62.1440 C   0  0  0  0  0  0  0  0  0  0  0  0
   40.1590   79.3450   62.1600 N   0  0  0  0  0  0  0  0  0  0  0  0
   40.4610   78.1060   61.8790 N   0  0  0  0  0  0  0  0  0  0  0  0
   41.7830   77.9740   61.6750 C   0  0  0  0  0  0  0  0  0  0  0  0
   42.3640   79.2200   61.8380 C   0  0  0  0  0  0  0  0  0  0  0  0
   43.6590   79.7160   61.7590 C   0  0  0  0  0  0  0  0  0  0  0  0
   40.8908   82.8882   56.9895 H   0  0  0  0  0  0  0  0  0  0  0  0
   39.1309   83.2254   58.6645 H   0  0  0  0  0  0  0  0  0  0  0  0
   43.5962   85.4188   56.2022 H   0  0  0  0  0  0  0  0  0  0  0  0
   43.7463   81.4101   57.8043 H   0  0  0  0  0  0  0  0  0  0  0  0
   42.5770   84.9046   63.5468 H   0  0  0  0  0  0  0  0  0  0  0  0
   41.2287   83.9004   62.9926 H   0  0  0  0  0  0  0  0  0  0  0  0
   44.8347   81.5181   61.9485 H   0  0  0  0  0  0  0  0  0  0  0  0
   40.6190   82.0617   62.6232 H   0  0  0  0  0  0  0  0  0  0  0  0
   39.2167   79.7106   62.3582 H   0  0  0  0  0  0  0  0  0  0  0  0
   42.3097   77.0417   61.4233 H   0  0  0  0  0  0  0  0  0  0  0  0
   44.5117   79.0643   61.5179 H   0  0  0  0  0  0  0  0  0  0  0  0
  2  1  1  0
  2  8  2  0
  3  2  1  0
  4  3  2  0
  4  5  1  0
  5  6  2  0
  6  8  1  0
  6  7  1  0
  8 19  1  0
  9 10  2  0
 10  3  1  0
 11 10  1  0
 12 11  2  0
 13 14  2  0
 13 12  1  0
 14  9  1  0
 15 16  1  0
 15 13  1  0
 17 15  1  0
 18 15  1  0
 19 20  1  0
 21 20  1  0
 22 23  2  0
 23 24  1  0
 23 21  1  0
 25 26  1  0
 25 24  2  0
 27 26  1  0
 28 29  1  0
 28 27  2  0
 29 25  1  0
 30 29  2  0
 30 22  1  0
  4 31  1  0
  5 32  1  0
  9 33  1  0
 11 34  1  0
 20 35  1  0
 20 36  1  0
 22 37  1  0
 24 38  1  0
 26 39  1  0
 28 40  1  0
 30 41  1  0
M  ISO  8  31  14  32  14  33  14  34  14  35   8  36   8  37  14  38  14
M  ISO  3  39   9  40  14  41  14
M  END
>  <minimizedAffinity>  (1) 
-4.59745455

>  <minimizedRMSD>  (1) 
9.15554619

$$$$
