
     RDKit          3D

 22 23  0  0  0  0  0  0  0  0999 V2000
   40.2040   85.1850   59.3870 C   0  0  0  0  0  0  0  0  0  0  0  0
   41.2320   84.3920   59.8390 C   0  0  0  0  0  0  0  0  0  0  0  0
   42.3530   84.3160   59.0620 C   0  0  0  0  0  0  0  0  0  0  0  0
   42.4340   85.0160   57.8740 C   0  0  0  0  0  0  0  0  0  0  0  0
   41.3870   85.7940   57.4600 C   0  0  0  0  0  0  0  0  0  0  0  0
   40.2300   85.9060   58.2060 C   0  0  0  0  0  0  0  0  0  0  0  0
   41.1030   81.6840   62.4630 C   0  0  0  0  0  0  0  0  0  0  0  0
   41.2780   82.3340   61.2330 C   0  0  0  0  0  0  0  0  0  0  0  0
   41.0600   83.6980   61.0930 C   0  0  0  0  0  0  0  0  0  0  0  0
   40.6710   84.3340   62.2260 N   0  0  0  0  0  0  0  0  0  0  0  0
   40.5010   83.7190   63.4090 C   0  0  0  0  0  0  0  0  0  0  0  0
   40.7170   82.4040   63.5200 N   0  0  0  0  0  0  0  0  0  0  0  0
   39.0410   85.2930   60.1450 O   0  0  0  0  0  0  0  0  0  0  0  0
   39.1430   86.6860   57.8240 O   0  0  0  0  0  0  0  0  0  0  0  0
   43.1989   83.6916   59.3854 H   0  0  0  0  0  0  0  0  0  0  0  0
   43.3432   84.9479   57.2586 H   0  0  0  0  0  0  0  0  0  0  0  0
   41.4688   86.3432   56.5105 H   0  0  0  0  0  0  0  0  0  0  0  0
   41.2801   80.6023   62.5558 H   0  0  0  0  0  0  0  0  0  0  0  0
   41.5958   81.7489   60.3574 H   0  0  0  0  0  0  0  0  0  0  0  0
   40.1834   84.2989   64.2881 H   0  0  0  0  0  0  0  0  0  0  0  0
   38.2948   85.8614   59.8284 H   0  0  0  0  0  0  0  0  0  0  0  0
   38.3382   86.7290   58.3989 H   0  0  0  0  0  0  0  0  0  0  0  0
  1  2  2  0
  1 13  1  0
  2  9  1  0
  3  2  1  0
  4  3  2  0
  5  4  1  0
  5  6  2  0
  6  1  1  0
  7 12  2  0
  8  7  1  0
  9  8  2  0
  9 10  1  0
 10 11  2  0
 11 12  1  0
 14  6  1  0
  3 15  1  0
  4 16  1  0
  5 17  1  0
  7 18  1  0
  8 19  1  0
 11 20  1  0
 13 21  1  0
 14 22  1  0
M  ISO  8  15  14  16  14  17  14  18  14  19  14  20  14  21   3  22   3
M  END
>  <minimizedAffinity>  (1) 
-5.17519522

>  <minimizedRMSD>  (1) 
2.04095411

$$$$
