
     RDKit          3D

 23 24  0  0  0  0  0  0  0  0999 V2000
   42.5550   84.3430   64.0780 C   0  0  0  0  0  0  0  0  0  0  0  0
   42.3170   84.3510   62.6850 C   0  0  0  0  0  0  0  0  0  0  0  0
   41.0110   84.0770   62.2440 C   0  0  0  0  0  0  0  0  0  0  0  0
   40.0520   83.8190   63.1670 N   0  0  0  0  0  0  0  0  0  0  0  0
   40.3120   83.8190   64.4990 C   0  0  0  0  0  0  0  0  0  0  0  0
   41.5630   84.0810   64.9370 N   0  0  0  0  0  0  0  0  0  0  0  0
   40.6990   84.0700   60.8060 C   0  0  0  0  0  0  0  0  0  0  0  0
   41.6290   84.9080   59.9610 C   0  0  0  0  0  0  0  0  0  0  0  0
   40.9280   84.8080   58.6150 C   0  0  0  0  0  0  0  0  0  0  0  0
   39.4590   84.8040   58.9600 C   0  0  0  0  0  0  0  0  0  0  0  0
   39.3630   84.6970   60.4770 C   0  0  0  0  0  0  0  0  0  0  0  0
   43.5649   84.5541   64.4596 H   0  0  0  0  0  0  0  0  0  0  0  0
   43.1259   84.5643   61.9707 H   0  0  0  0  0  0  0  0  0  0  0  0
   39.5078   83.6066   65.2188 H   0  0  0  0  0  0  0  0  0  0  0  0
   40.7606   82.9942   60.5849 H   0  0  0  0  0  0  0  0  0  0  0  0
   41.6798   85.9471   60.3183 H   0  0  0  0  0  0  0  0  0  0  0  0
   42.6783   84.5780   59.9617 H   0  0  0  0  0  0  0  0  0  0  0  0
   41.2093   83.8792   58.0970 H   0  0  0  0  0  0  0  0  0  0  0  0
   41.1987   85.6313   57.9376 H   0  0  0  0  0  0  0  0  0  0  0  0
   38.9866   85.7358   58.6155 H   0  0  0  0  0  0  0  0  0  0  0  0
   38.9413   83.9652   58.4717 H   0  0  0  0  0  0  0  0  0  0  0  0
   39.2543   85.6861   60.9459 H   0  0  0  0  0  0  0  0  0  0  0  0
   38.4935   84.1280   60.8377 H   0  0  0  0  0  0  0  0  0  0  0  0
  1  6  2  0
  2  1  1  0
  3  2  2  0
  3  4  1  0
  4  5  2  0
  5  6  1  0
  7  3  1  0
  8  7  1  0
  9 10  1  0
  9  8  1  0
 10 11  1  0
 11  7  1  0
  1 12  1  0
  2 13  1  0
  5 14  1  0
  7 15  1  0
  8 16  1  0
  8 17  1  0
  9 18  1  0
  9 19  1  0
 10 20  1  0
 10 21  1  0
 11 22  1  0
 11 23  1  0
M  ISO  8  12  14  13  14  14  14  15  13  16  13  17  13  18  13  19  13
M  ISO  4  20  13  21  13  22  13  23  13
M  END
>  <minimizedAffinity>  (1) 
-3.98285985

>  <minimizedRMSD>  (1) 
3.34542966

$$$$
