
     RDKit          3D

 26 27  0  0  0  0  0  0  0  0999 V2000
   40.8200   82.0170   62.3290 C   0  0  0  0  0  0  0  0  0  0  0  0
   41.9640   82.6970   61.8630 C   0  0  0  0  0  0  0  0  0  0  0  0
   41.7870   83.9160   61.1940 C   0  0  0  0  0  0  0  0  0  0  0  0
   40.5120   84.3770   61.0280 N   0  0  0  0  0  0  0  0  0  0  0  0
   39.4270   83.6970   61.4890 C   0  0  0  0  0  0  0  0  0  0  0  0
   39.6010   82.5310   62.1290 N   0  0  0  0  0  0  0  0  0  0  0  0
   42.9390   84.6590   60.6930 C   0  0  0  0  0  0  0  0  0  0  0  0
   42.6430   85.6600   59.6360 C   0  0  0  0  0  0  0  0  0  0  0  0
   43.9710   86.0190   58.9970 C   0  0  0  0  0  0  0  0  0  0  0  0
   45.0490   86.1650   60.0060 C   0  0  0  0  0  0  0  0  0  0  0  0
   44.6150   86.3780   61.4200 C   0  0  0  0  0  0  0  0  0  0  0  0
   43.5170   85.4530   61.8720 C   0  0  0  0  0  0  0  0  0  0  0  0
   40.9303   81.0596   62.8594 H   0  0  0  0  0  0  0  0  0  0  0  0
   42.9702   82.2813   62.0205 H   0  0  0  0  0  0  0  0  0  0  0  0
   38.4149   84.1005   61.3379 H   0  0  0  0  0  0  0  0  0  0  0  0
   43.6121   83.9085   60.2529 H   0  0  0  0  0  0  0  0  0  0  0  0
   41.9641   85.2298   58.8850 H   0  0  0  0  0  0  0  0  0  0  0  0
   42.1516   86.5493   60.0575 H   0  0  0  0  0  0  0  0  0  0  0  0
   44.2514   85.2248   58.2894 H   0  0  0  0  0  0  0  0  0  0  0  0
   43.8521   86.9843   58.4830 H   0  0  0  0  0  0  0  0  0  0  0  0
   45.6590   85.2501   59.9780 H   0  0  0  0  0  0  0  0  0  0  0  0
   45.5875   87.0823   59.7257 H   0  0  0  0  0  0  0  0  0  0  0  0
   45.4856   86.2267   62.0751 H   0  0  0  0  0  0  0  0  0  0  0  0
   44.2124   87.4001   61.4776 H   0  0  0  0  0  0  0  0  0  0  0  0
   42.7140   86.0474   62.3322 H   0  0  0  0  0  0  0  0  0  0  0  0
   43.9380   84.7416   62.5977 H   0  0  0  0  0  0  0  0  0  0  0  0
  2  1  2  0
  3  2  1  0
  4  3  2  0
  4  5  1  0
  5  6  2  0
  6  1  1  0
  7  3  1  0
  7 12  1  0
  8  7  1  0
  9  8  1  0
  9 10  1  0
 10 11  1  0
 11 12  1  0
  1 13  1  0
  2 14  1  0
  5 15  1  0
  7 16  1  0
  8 17  1  0
  8 18  1  0
  9 19  1  0
  9 20  1  0
 10 21  1  0
 10 22  1  0
 11 23  1  0
 11 24  1  0
 12 25  1  0
 12 26  1  0
M  ISO  8  13  14  14  14  15  14  16  13  17  13  18  13  19  13  20  13
M  ISO  6  21  13  22  13  23  13  24  13  25  13  26  13
M  END
>  <minimizedAffinity>  (1) 
-3.90198231

>  <minimizedRMSD>  (1) 
3.61135817

$$$$
