
     RDKit          3D

 16 16  0  0  0  0  0  0  0  0999 V2000
   40.1150   82.0780   60.5110 C   0  0  0  0  0  0  0  0  0  0  0  0
   40.1130   83.1070   59.5600 C   0  0  0  0  0  0  0  0  0  0  0  0
   39.4860   84.3070   59.8980 C   0  0  0  0  0  0  0  0  0  0  0  0
   38.9080   84.4240   61.1330 N   0  0  0  0  0  0  0  0  0  0  0  0
   38.9360   83.4010   62.0200 C   0  0  0  0  0  0  0  0  0  0  0  0
   39.5320   82.2400   61.7160 N   0  0  0  0  0  0  0  0  0  0  0  0
   39.4310   85.4700   58.9450 C   0  0  0  0  0  0  0  0  0  0  0  0
   40.7610   85.6150   58.2190 C   0  0  0  0  0  0  0  0  0  0  0  0
   40.6008   81.1209   60.2703 H   0  0  0  0  0  0  0  0  0  0  0  0
   40.5905   82.9732   58.5781 H   0  0  0  0  0  0  0  0  0  0  0  0
   38.4623   83.5250   63.0050 H   0  0  0  0  0  0  0  0  0  0  0  0
   38.6315   85.2997   58.2090 H   0  0  0  0  0  0  0  0  0  0  0  0
   39.2281   86.3906   59.5119 H   0  0  0  0  0  0  0  0  0  0  0  0
   41.5731   85.7035   58.9557 H   0  0  0  0  0  0  0  0  0  0  0  0
   40.9329   84.7303   57.5884 H   0  0  0  0  0  0  0  0  0  0  0  0
   40.7382   86.5160   57.5884 H   0  0  0  0  0  0  0  0  0  0  0  0
  1  6  2  0
  2  3  2  0
  2  1  1  0
  3  4  1  0
  4  5  2  0
  6  5  1  0
  7  3  1  0
  8  7  1  0
  1  9  1  0
  2 10  1  0
  5 11  1  0
  7 12  1  0
  7 13  1  0
  8 14  1  0
  8 15  1  0
  8 16  1  0
M  ISO  8   9  14  10  14  11  14  12   8  13   8  14   8  15   8  16   8
M  END
>  <minimizedAffinity>  (1) 
-3.68328214

>  <minimizedRMSD>  (1) 
0.569889009

$$$$
