
     RDKit          3D

 12 12  0  0  0  0  0  0  0  0999 V2000
   39.0820   83.6570   61.9120 C   0  0  0  0  0  0  0  0  0  0  0  0
   39.3650   84.2900   60.6790 C   0  0  0  0  0  0  0  0  0  0  0  0
   39.9500   83.5260   59.6690 C   0  0  0  0  0  0  0  0  0  0  0  0
   40.2180   82.2140   59.9190 N   0  0  0  0  0  0  0  0  0  0  0  0
   39.9310   81.6530   61.1060 C   0  0  0  0  0  0  0  0  0  0  0  0
   39.3720   82.3500   62.0970 N   0  0  0  0  0  0  0  0  0  0  0  0
   40.2410   80.2480   61.3130 C   0  0  0  0  0  0  0  0  0  0  0  0
   40.2760   79.6740   62.4080 O   0  0  0  0  0  0  0  0  0  0  0  0
   38.6217   84.2338   62.7277 H   0  0  0  0  0  0  0  0  0  0  0  0
   39.1307   85.3531   60.5213 H   0  0  0  0  0  0  0  0  0  0  0  0
   40.1895   83.9729   58.6928 H   0  0  0  0  0  0  0  0  0  0  0  0
   40.4632   79.6444   60.4206 H   0  0  0  0  0  0  0  0  0  0  0  0
  1  6  2  0
  2  1  1  0
  3  4  1  0
  3  2  2  0
  4  5  2  0
  5  7  1  0
  5  6  1  0
  7  8  2  0
  1  9  1  0
  2 10  1  0
  3 11  1  0
  7 12  1  0
M  ISO  4   9  14  10  14  11  14  12   6
M  END
>  <minimizedAffinity>  (1) 
-3.45288563

>  <minimizedRMSD>  (1) 
2.9199338

$$$$
