
     RDKit          3D

 22 23  0  0  0  0  0  0  0  0999 V2000
   39.9310   81.5710   61.1620 C   0  0  0  0  0  0  0  0  0  0  0  0
   40.4570   82.1850   60.0110 C   0  0  0  0  0  0  0  0  0  0  0  0
   40.2190   83.5670   59.8370 C   0  0  0  0  0  0  0  0  0  0  0  0
   39.4940   84.2090   60.7980 N   0  0  0  0  0  0  0  0  0  0  0  0
   39.0050   83.5920   61.8880 C   0  0  0  0  0  0  0  0  0  0  0  0
   39.2250   82.2720   62.0670 N   0  0  0  0  0  0  0  0  0  0  0  0
   40.6910   84.3140   58.7230 N   0  0  0  0  0  0  0  0  0  0  0  0
   41.6160   83.8530   57.6960 C   0  0  0  0  0  0  0  0  0  0  0  0
   41.7320   85.0060   56.7480 C   0  0  0  0  0  0  0  0  0  0  0  0
   41.5420   86.1880   57.7070 C   0  0  0  0  0  0  0  0  0  0  0  0
   40.3010   85.6910   58.4450 C   0  0  0  0  0  0  0  0  0  0  0  0
   40.1004   80.4964   61.3251 H   0  0  0  0  0  0  0  0  0  0  0  0
   41.0336   81.6094   59.2720 H   0  0  0  0  0  0  0  0  0  0  0  0
   38.4275   84.1609   62.6316 H   0  0  0  0  0  0  0  0  0  0  0  0
   42.5951   83.6113   58.1353 H   0  0  0  0  0  0  0  0  0  0  0  0
   41.2645   82.9372   57.1983 H   0  0  0  0  0  0  0  0  0  0  0  0
   42.7188   85.0332   56.2627 H   0  0  0  0  0  0  0  0  0  0  0  0
   41.0191   84.9802   55.9107 H   0  0  0  0  0  0  0  0  0  0  0  0
   42.4013   86.3152   58.3819 H   0  0  0  0  0  0  0  0  0  0  0  0
   41.4490   87.1757   57.2318 H   0  0  0  0  0  0  0  0  0  0  0  0
   40.1249   86.2580   59.3710 H   0  0  0  0  0  0  0  0  0  0  0  0
   39.3608   85.7968   57.8838 H   0  0  0  0  0  0  0  0  0  0  0  0
  1  6  2  0
  2  1  1  0
  3  2  2  0
  3  4  1  0
  4  5  2  0
  5  6  1  0
  7  3  1  0
  8  7  1  0
  9  8  1  0
  9 10  1  0
 10 11  1  0
 11  7  1  0
  1 12  1  0
  2 13  1  0
  5 14  1  0
  8 15  1  0
  8 16  1  0
  9 17  1  0
  9 18  1  0
 10 19  1  0
 10 20  1  0
 11 21  1  0
 11 22  1  0
M  ISO  8  12  14  13  14  14  14  15  13  16  13  17  13  18  13  19  13
M  ISO  3  20  13  21  13  22  13
M  END
>  <minimizedAffinity>  (1) 
-3.67189312

>  <minimizedRMSD>  (1) 
1.24022424

$$$$
