
     RDKit          3D

 13 13  0  0  0  0  0  0  0  0999 V2000
   40.1260   82.1060   60.4680 C   0  0  0  0  0  0  0  0  0  0  0  0
   40.0960   83.1660   59.5430 C   0  0  0  0  0  0  0  0  0  0  0  0
   39.4610   84.3540   59.9020 C   0  0  0  0  0  0  0  0  0  0  0  0
   38.9010   84.4170   61.1420 N   0  0  0  0  0  0  0  0  0  0  0  0
   38.9380   83.3890   62.0230 C   0  0  0  0  0  0  0  0  0  0  0  0
   39.5530   82.2280   61.6830 N   0  0  0  0  0  0  0  0  0  0  0  0
   39.4160   85.4820   58.9470 C   0  0  0  0  0  0  0  0  0  0  0  0
   40.6242   81.1637   60.1962 H   0  0  0  0  0  0  0  0  0  0  0  0
   40.5654   83.0591   58.5539 H   0  0  0  0  0  0  0  0  0  0  0  0
   38.4701   83.4950   63.0129 H   0  0  0  0  0  0  0  0  0  0  0  0
   39.3781   86.4310   59.5020 H   0  0  0  0  0  0  0  0  0  0  0  0
   40.3156   85.4629   58.3143 H   0  0  0  0  0  0  0  0  0  0  0  0
   38.5208   85.3913   58.3143 H   0  0  0  0  0  0  0  0  0  0  0  0
  1  6  2  0
  2  3  2  0
  2  1  1  0
  3  4  1  0
  4  5  2  0
  6  5  1  0
  7  3  1  0
  1  8  1  0
  2  9  1  0
  5 10  1  0
  7 11  1  0
  7 12  1  0
  7 13  1  0
M  ISO  6   8  14   9  14  10  14  11   8  12   8  13   8
M  END
>  <minimizedAffinity>  (1) 
-3.56062508

>  <minimizedRMSD>  (1) 
0.373827577

$$$$
