
     RDKit          3D

 12 12  0  0  0  0  0  0  0  0999 V2000
   40.1240   82.1150   60.4630 C   0  0  0  0  0  0  0  0  0  0  0  0
   40.1020   83.1710   59.5180 C   0  0  0  0  0  0  0  0  0  0  0  0
   39.4550   84.3610   59.9020 C   0  0  0  0  0  0  0  0  0  0  0  0
   38.8950   84.4300   61.1390 N   0  0  0  0  0  0  0  0  0  0  0  0
   38.9420   83.3960   62.0070 C   0  0  0  0  0  0  0  0  0  0  0  0
   39.5520   82.2560   61.6620 N   0  0  0  0  0  0  0  0  0  0  0  0
   39.4160   85.4420   58.9710 N   0  0  0  0  0  0  0  0  0  0  0  0
   40.6186   81.1667   60.2058 H   0  0  0  0  0  0  0  0  0  0  0  0
   40.5699   83.0655   58.5281 H   0  0  0  0  0  0  0  0  0  0  0  0
   38.4778   83.4913   62.9997 H   0  0  0  0  0  0  0  0  0  0  0  0
   38.9493   86.3242   59.2255 H   0  0  0  0  0  0  0  0  0  0  0  0
   39.8546   85.3399   58.0446 H   0  0  0  0  0  0  0  0  0  0  0  0
  1  6  2  0
  2  3  2  0
  2  1  1  0
  3  4  1  0
  4  5  2  0
  6  5  1  0
  7  3  1  0
  1  8  1  0
  2  9  1  0
  5 10  1  0
  7 11  1  0
  7 12  1  0
M  ISO  3   8  14   9  14  10  14
M  END
>  <minimizedAffinity>  (1) 
-3.52717161

>  <minimizedRMSD>  (1) 
0.376905739

$$$$
