
     RDKit          3D

 11 11  0  0  0  0  0  0  0  0999 V2000
   40.1270   82.1240   60.4610 C   0  0  0  0  0  0  0  0  0  0  0  0
   40.0910   83.1810   59.5240 C   0  0  0  0  0  0  0  0  0  0  0  0
   39.4440   84.3600   59.9020 C   0  0  0  0  0  0  0  0  0  0  0  0
   38.8890   84.4290   61.1380 N   0  0  0  0  0  0  0  0  0  0  0  0
   38.9430   83.3990   62.0080 C   0  0  0  0  0  0  0  0  0  0  0  0
   39.5620   82.2520   61.6650 N   0  0  0  0  0  0  0  0  0  0  0  0
   39.4450   85.3430   58.9480 O   0  0  0  0  0  0  0  0  0  0  0  0
   40.6278   81.1814   60.1952 H   0  0  0  0  0  0  0  0  0  0  0  0
   40.5559   83.0791   58.5323 H   0  0  0  0  0  0  0  0  0  0  0  0
   38.4800   83.4959   63.0011 H   0  0  0  0  0  0  0  0  0  0  0  0
   39.0082   86.2121   59.1323 H   0  0  0  0  0  0  0  0  0  0  0  0
  1  6  2  0
  2  3  2  0
  2  1  1  0
  3  4  1  0
  4  5  2  0
  6  5  1  0
  7  3  1  0
  1  8  1  0
  2  9  1  0
  5 10  1  0
  7 11  1  0
M  ISO  4   8  14   9  14  10  14  11   3
M  END
>  <minimizedAffinity>  (1) 
-3.50437951

>  <minimizedRMSD>  (1) 
0.381094635

$$$$
