
     RDKit          3D

 17 18  0  0  0  0  0  0  0  0999 V2000
   40.0780   81.7720   60.8860 C   0  0  0  0  0  0  0  0  0  0  0  0
   40.2610   82.7390   59.8850 C   0  0  0  0  0  0  0  0  0  0  0  0
   39.6980   83.9980   60.0850 C   0  0  0  0  0  0  0  0  0  0  0  0
   39.0040   84.2390   61.2250 N   0  0  0  0  0  0  0  0  0  0  0  0
   38.8490   83.2730   62.1760 C   0  0  0  0  0  0  0  0  0  0  0  0
   39.3830   82.0580   61.9980 N   0  0  0  0  0  0  0  0  0  0  0  0
   39.8660   85.0260   59.0700 C   0  0  0  0  0  0  0  0  0  0  0  0
   40.9860   85.1840   58.2790 C   0  0  0  0  0  0  0  0  0  0  0  0
   40.6470   86.2880   57.4900 C   0  0  0  0  0  0  0  0  0  0  0  0
   39.4010   86.7350   57.8140 N   0  0  0  0  0  0  0  0  0  0  0  0
   38.9270   85.9490   58.7930 N   0  0  0  0  0  0  0  0  0  0  0  0
   40.5092   80.7682   60.7575 H   0  0  0  0  0  0  0  0  0  0  0  0
   40.8305   82.5103   58.9721 H   0  0  0  0  0  0  0  0  0  0  0  0
   38.2828   83.4933   63.0930 H   0  0  0  0  0  0  0  0  0  0  0  0
   41.9123   84.5908   58.2711 H   0  0  0  0  0  0  0  0  0  0  0  0
   41.2934   86.7318   56.7185 H   0  0  0  0  0  0  0  0  0  0  0  0
   38.9111   87.5328   57.3846 H   0  0  0  0  0  0  0  0  0  0  0  0
  1  6  2  0
  2  3  2  0
  2  1  1  0
  3  4  1  0
  4  5  2  0
  6  5  1  0
  7  3  1  0
  8  7  1  0
  9 10  1  0
  9  8  2  0
 10 11  1  0
 11  7  2  0
  1 12  1  0
  2 13  1  0
  5 14  1  0
  8 15  1  0
  9 16  1  0
 10 17  1  0
M  ISO  6  12  14  13  14  14  14  15  14  16  14  17   9
M  END
>  <minimizedAffinity>  (1) 
-4.24595118

>  <minimizedRMSD>  (1) 
0.613468945

$$$$
