
     RDKit          3D

 17 17  0  0  0  0  0  0  0  0999 V2000
   42.5330   84.1180   63.0210 C   0  0  0  0  0  0  0  0  0  0  0  0
   41.8240   84.3800   64.2060 C   0  0  0  0  0  0  0  0  0  0  0  0
   40.5370   83.8590   64.3230 C   0  0  0  0  0  0  0  0  0  0  0  0
   40.0510   83.1320   63.2870 N   0  0  0  0  0  0  0  0  0  0  0  0
   40.7410   82.8900   62.1610 C   0  0  0  0  0  0  0  0  0  0  0  0
   41.9950   83.3910   62.0350 N   0  0  0  0  0  0  0  0  0  0  0  0
   40.2030   82.1040   61.0540 C   0  0  0  0  0  0  0  0  0  0  0  0
   40.7390   82.1340   59.8430 C   0  0  0  0  0  0  0  0  0  0  0  0
   40.1070   81.2850   58.7700 C   0  0  0  0  0  0  0  0  0  0  0  0
   43.5505   84.5186   62.9019 H   0  0  0  0  0  0  0  0  0  0  0  0
   42.2706   84.9770   65.0148 H   0  0  0  0  0  0  0  0  0  0  0  0
   39.9346   84.0320   65.2270 H   0  0  0  0  0  0  0  0  0  0  0  0
   39.3243   81.4665   61.2315 H   0  0  0  0  0  0  0  0  0  0  0  0
   41.6180   82.7591   59.6272 H   0  0  0  0  0  0  0  0  0  0  0  0
   39.5124   80.4862   59.2373 H   0  0  0  0  0  0  0  0  0  0  0  0
   39.4532   81.9109   58.1448 H   0  0  0  0  0  0  0  0  0  0  0  0
   40.8941   80.8383   58.1448 H   0  0  0  0  0  0  0  0  0  0  0  0
  1  2  2  0
  2  3  1  0
  4  3  2  0
  5  4  1  0
  6  5  2  0
  6  1  1  0
  7  5  1  0
  8  7  2  0
  9  8  1  0
  1 10  1  0
  2 11  1  0
  3 12  1  0
  7 13  1  0
  8 14  1  0
  9 15  1  0
  9 16  1  0
  9 17  1  0
M  ISO  6  10  14  11  14  12  14  15   8  16   8  17   8
M  END
>  <minimizedAffinity>  (1) 
-3.39287448

>  <minimizedRMSD>  (1) 
4.55594492

$$$$
