
     RDKit          3D

 16 16  0  0  0  0  0  0  0  0999 V2000
   39.9010   83.6400   59.7950 C   0  0  0  0  0  0  0  0  0  0  0  0
   39.3540   84.2660   60.9280 C   0  0  0  0  0  0  0  0  0  0  0  0
   39.1280   83.4900   62.0650 C   0  0  0  0  0  0  0  0  0  0  0  0
   39.4520   82.1590   62.0170 N   0  0  0  0  0  0  0  0  0  0  0  0
   39.9760   81.5970   60.9070 C   0  0  0  0  0  0  0  0  0  0  0  0
   40.1970   82.3320   59.8080 N   0  0  0  0  0  0  0  0  0  0  0  0
   40.3100   80.1280   60.9170 C   0  0  0  0  0  0  0  0  0  0  0  0
   40.9000   79.7050   62.2340 C   0  0  0  0  0  0  0  0  0  0  0  0
   40.0888   84.2303   58.8860 H   0  0  0  0  0  0  0  0  0  0  0  0
   39.1107   85.3387   60.9186 H   0  0  0  0  0  0  0  0  0  0  0  0
   38.7010   83.9345   62.9761 H   0  0  0  0  0  0  0  0  0  0  0  0
   39.3910   79.5514   60.7356 H   0  0  0  0  0  0  0  0  0  0  0  0
   41.0538   79.9382   60.1292 H   0  0  0  0  0  0  0  0  0  0  0  0
   40.3057   80.1311   63.0558 H   0  0  0  0  0  0  0  0  0  0  0  0
   40.8896   78.6073   62.3048 H   0  0  0  0  0  0  0  0  0  0  0  0
   41.9362   80.0672   62.3048 H   0  0  0  0  0  0  0  0  0  0  0  0
  1  6  2  0
  1  2  1  0
  2  3  2  0
  4  3  1  0
  5  7  1  0
  5  4  2  0
  6  5  1  0
  7  8  1  0
  1  9  1  0
  2 10  1  0
  3 11  1  0
  7 12  1  0
  7 13  1  0
  8 14  1  0
  8 15  1  0
  8 16  1  0
M  ISO  8   9  14  10  14  11  14  12   8  13   8  14   8  15   8  16   8
M  END
>  <minimizedAffinity>  (1) 
-3.33612514

>  <minimizedRMSD>  (1) 
3.38406181

$$$$
