
     RDKit          3D

 29 31  0  0  0  0  0  0  0  0999 V2000
   42.3920   84.8500   61.0240 C   0  0  0  0  0  0  0  0  0  0  0  0
   43.4170   85.2290   61.9040 C   0  0  0  0  0  0  0  0  0  0  0  0
   44.0860   86.1950   61.1400 C   0  0  0  0  0  0  0  0  0  0  0  0
   43.4960   86.3480   59.9410 N   0  0  0  0  0  0  0  0  0  0  0  0
   42.4480   85.5110   59.8810 N   0  0  0  0  0  0  0  0  0  0  0  0
   40.7790   81.5690   61.7630 C   0  0  0  0  0  0  0  0  0  0  0  0
   41.7470   82.5030   61.4470 C   0  0  0  0  0  0  0  0  0  0  0  0
   41.3940   83.8480   61.3500 C   0  0  0  0  0  0  0  0  0  0  0  0
   40.1050   84.1980   61.5700 N   0  0  0  0  0  0  0  0  0  0  0  0
   39.1760   83.2560   61.8790 C   0  0  0  0  0  0  0  0  0  0  0  0
   39.5110   81.9620   61.9730 N   0  0  0  0  0  0  0  0  0  0  0  0
   43.9070   87.2570   58.8840 C   0  0  0  0  0  0  0  0  0  0  0  0
   44.9040   86.5180   58.0450 C   0  0  0  0  0  0  0  0  0  0  0  0
   46.2680   86.5550   58.2400 C   0  0  0  0  0  0  0  0  0  0  0  0
   47.0880   85.8240   57.3950 C   0  0  0  0  0  0  0  0  0  0  0  0
   46.5730   85.0510   56.3510 C   0  0  0  0  0  0  0  0  0  0  0  0
   45.2010   85.0680   56.2250 C   0  0  0  0  0  0  0  0  0  0  0  0
   44.4100   85.7800   57.0490 N   0  0  0  0  0  0  0  0  0  0  0  0
   43.6362   84.8661   62.9190 H   0  0  0  0  0  0  0  0  0  0  0  0
   44.9731   86.7523   61.4754 H   0  0  0  0  0  0  0  0  0  0  0  0
   41.0459   80.5048   61.8426 H   0  0  0  0  0  0  0  0  0  0  0  0
   42.7866   82.1881   61.2736 H   0  0  0  0  0  0  0  0  0  0  0  0
   38.1335   83.5601   62.0546 H   0  0  0  0  0  0  0  0  0  0  0  0
   43.0386   87.5467   58.2740 H   0  0  0  0  0  0  0  0  0  0  0  0
   44.3441   88.1765   59.3004 H   0  0  0  0  0  0  0  0  0  0  0  0
   46.6993   87.1558   59.0542 H   0  0  0  0  0  0  0  0  0  0  0  0
   48.1765   85.8532   57.5508 H   0  0  0  0  0  0  0  0  0  0  0  0
   47.2183   84.4692   55.6764 H   0  0  0  0  0  0  0  0  0  0  0  0
   44.7352   84.4782   55.4218 H   0  0  0  0  0  0  0  0  0  0  0  0
  1  8  1  0
  1  2  1  0
  3  2  2  0
  4  3  1  0
  5  4  1  0
  5  1  2  0
  6 11  2  0
  7  6  1  0
  8  7  2  0
  8  9  1  0
  9 10  2  0
 10 11  1  0
 12  4  1  0
 13 14  2  0
 13 12  1  0
 15 14  1  0
 16 15  2  0
 17 16  1  0
 17 18  2  0
 18 13  1  0
  2 19  1  0
  3 20  1  0
  6 21  1  0
  7 22  1  0
 10 23  1  0
 12 24  1  0
 12 25  1  0
 14 26  1  0
 15 27  1  0
 16 28  1  0
 17 29  1  0
M  ISO  8  19  14  20  14  21  14  22  14  23  14  24   8  25   8  26  14
M  ISO  3  27  14  28  14  29  14
M  END
>  <minimizedAffinity>  (1) 
-4.30930758

>  <minimizedRMSD>  (1) 
0.740060389

$$$$
