
     RDKit          3D

 30 32  0  0  0  0  0  0  0  0999 V2000
   42.6520   84.7420   61.2020 C   0  0  0  0  0  0  0  0  0  0  0  0
   43.8660   84.7600   61.8970 C   0  0  0  0  0  0  0  0  0  0  0  0
   44.5150   85.8500   61.2990 C   0  0  0  0  0  0  0  0  0  0  0  0
   43.7410   86.4070   60.3460 N   0  0  0  0  0  0  0  0  0  0  0  0
   42.6080   85.7150   60.3040 N   0  0  0  0  0  0  0  0  0  0  0  0
   40.8090   81.5620   61.7800 C   0  0  0  0  0  0  0  0  0  0  0  0
   41.8800   82.4330   61.5510 C   0  0  0  0  0  0  0  0  0  0  0  0
   41.5900   83.7850   61.4400 C   0  0  0  0  0  0  0  0  0  0  0  0
   40.3050   84.2020   61.5560 N   0  0  0  0  0  0  0  0  0  0  0  0
   39.2980   83.3260   61.7790 C   0  0  0  0  0  0  0  0  0  0  0  0
   39.5630   82.0090   61.8890 N   0  0  0  0  0  0  0  0  0  0  0  0
   44.1020   87.5520   59.5280 C   0  0  0  0  0  0  0  0  0  0  0  0
   44.8440   87.2070   58.3120 C   0  0  0  0  0  0  0  0  0  0  0  0
   45.5410   88.2110   57.6670 C   0  0  0  0  0  0  0  0  0  0  0  0
   46.2800   88.0230   56.5160 C   0  0  0  0  0  0  0  0  0  0  0  0
   46.3330   86.7580   55.9630 C   0  0  0  0  0  0  0  0  0  0  0  0
   45.6490   85.7400   56.5840 C   0  0  0  0  0  0  0  0  0  0  0  0
   44.9200   85.9610   57.7340 C   0  0  0  0  0  0  0  0  0  0  0  0
   44.2182   84.0954   62.6997 H   0  0  0  0  0  0  0  0  0  0  0  0
   45.5206   86.2031   61.5710 H   0  0  0  0  0  0  0  0  0  0  0  0
   41.0033   80.4832   61.8718 H   0  0  0  0  0  0  0  0  0  0  0  0
   42.9112   82.0603   61.4625 H   0  0  0  0  0  0  0  0  0  0  0  0
   38.2635   83.6886   61.8705 H   0  0  0  0  0  0  0  0  0  0  0  0
   43.1782   88.0715   59.2336 H   0  0  0  0  0  0  0  0  0  0  0  0
   44.7666   88.1814   60.1380 H   0  0  0  0  0  0  0  0  0  0  0  0
   45.5048   89.2227   58.0973 H   0  0  0  0  0  0  0  0  0  0  0  0
   46.8154   88.8628   56.0490 H   0  0  0  0  0  0  0  0  0  0  0  0
   46.9100   86.5695   55.0457 H   0  0  0  0  0  0  0  0  0  0  0  0
   45.6838   84.7278   56.1548 H   0  0  0  0  0  0  0  0  0  0  0  0
   44.3861   85.1199   58.2005 H   0  0  0  0  0  0  0  0  0  0  0  0
  1  8  1  0
  1  2  1  0
  3  2  2  0
  4  3  1  0
  5  4  1  0
  5  1  2  0
  6 11  2  0
  7  6  1  0
  8  7  2  0
  8  9  1  0
  9 10  2  0
 10 11  1  0
 12  4  1  0
 13 12  1  0
 14 13  2  0
 15 14  1  0
 16 15  2  0
 16 17  1  0
 17 18  2  0
 18 13  1  0
  2 19  1  0
  3 20  1  0
  6 21  1  0
  7 22  1  0
 10 23  1  0
 12 24  1  0
 12 25  1  0
 14 26  1  0
 15 27  1  0
 16 28  1  0
 17 29  1  0
 18 30  1  0
M  ISO  8  19  14  20  14  21  14  22  14  23  14  24   8  25   8  26  14
M  ISO  4  27  14  28  14  29  14  30  14
M  END
>  <minimizedAffinity>  (1) 
-4.30428934

>  <minimizedRMSD>  (1) 
0.775808394

$$$$
