
     RDKit          3D

 30 32  0  0  0  0  0  0  0  0999 V2000
   42.3730   84.8730   60.8660 C   0  0  0  0  0  0  0  0  0  0  0  0
   43.4240   85.3320   61.6380 C   0  0  0  0  0  0  0  0  0  0  0  0
   43.9920   86.3010   60.7890 C   0  0  0  0  0  0  0  0  0  0  0  0
   43.3090   86.3770   59.6330 N   0  0  0  0  0  0  0  0  0  0  0  0
   42.3260   85.4980   59.6990 N   0  0  0  0  0  0  0  0  0  0  0  0
   40.9640   81.5600   61.8710 C   0  0  0  0  0  0  0  0  0  0  0  0
   41.8710   82.5320   61.4800 C   0  0  0  0  0  0  0  0  0  0  0  0
   41.4350   83.8400   61.2750 C   0  0  0  0  0  0  0  0  0  0  0  0
   40.1250   84.1400   61.4640 N   0  0  0  0  0  0  0  0  0  0  0  0
   39.2690   83.1400   61.8520 C   0  0  0  0  0  0  0  0  0  0  0  0
   39.6740   81.8860   62.0510 N   0  0  0  0  0  0  0  0  0  0  0  0
   43.6130   87.2650   58.5250 C   0  0  0  0  0  0  0  0  0  0  0  0
   45.6380   89.3750   57.7960 Cl  0  0  0  0  0  0  0  0  0  0  0  0
   45.8720   87.6340   57.5700 C   0  0  0  0  0  0  0  0  0  0  0  0
   44.8890   86.7100   57.9420 C   0  0  0  0  0  0  0  0  0  0  0  0
   45.1170   85.3580   57.7530 C   0  0  0  0  0  0  0  0  0  0  0  0
   46.3360   84.9810   57.1910 C   0  0  0  0  0  0  0  0  0  0  0  0
   47.3160   85.8640   56.8170 C   0  0  0  0  0  0  0  0  0  0  0  0
   47.0800   87.2230   57.0100 C   0  0  0  0  0  0  0  0  0  0  0  0
   43.7340   85.0225   62.6470 H   0  0  0  0  0  0  0  0  0  0  0  0
   44.8728   86.9115   61.0370 H   0  0  0  0  0  0  0  0  0  0  0  0
   41.2997   80.5251   62.0333 H   0  0  0  0  0  0  0  0  0  0  0  0
   42.9297   82.2727   61.3321 H   0  0  0  0  0  0  0  0  0  0  0  0
   38.2071   83.3830   62.0047 H   0  0  0  0  0  0  0  0  0  0  0  0
   42.8045   87.2487   57.7794 H   0  0  0  0  0  0  0  0  0  0  0  0
   43.7169   88.3130   58.8426 H   0  0  0  0  0  0  0  0  0  0  0  0
   44.3637   84.6080   58.0360 H   0  0  0  0  0  0  0  0  0  0  0  0
   46.5233   83.9079   57.0381 H   0  0  0  0  0  0  0  0  0  0  0  0
   48.2602   85.5097   56.3777 H   0  0  0  0  0  0  0  0  0  0  0  0
   47.8399   87.9648   56.7231 H   0  0  0  0  0  0  0  0  0  0  0  0
  1  8  1  0
  1  2  1  0
  3  2  2  0
  4  5  1  0
  4  3  1  0
  5  1  2  0
  6 11  2  0
  7  6  1  0
  8  9  1  0
  8  7  2  0
  9 10  2  0
 10 11  1  0
 12  4  1  0
 14 13  1  0
 14 15  2  0
 15 12  1  0
 16 15  1  0
 17 16  2  0
 18 19  2  0
 18 17  1  0
 19 14  1  0
  2 20  1  0
  3 21  1  0
  6 22  1  0
  7 23  1  0
 10 24  1  0
 12 25  1  0
 12 26  1  0
 16 27  1  0
 17 28  1  0
 18 29  1  0
 19 30  1  0
M  ISO  8  20  14  21  14  22  14  23  14  24  14  25   8  26   8  27  14
M  ISO  3  28  14  29  14  30  14
M  END
>  <minimizedAffinity>  (1) 
-4.28504848

>  <minimizedRMSD>  (1) 
0.650462925

$$$$
