
     RDKit          3D

 34 36  0  0  0  0  0  0  0  0999 V2000
   42.3980   84.8880   60.8390 C   0  0  0  0  0  0  0  0  0  0  0  0
   43.5090   85.2730   61.5970 C   0  0  0  0  0  0  0  0  0  0  0  0
   44.0680   86.2530   60.7550 C   0  0  0  0  0  0  0  0  0  0  0  0
   43.3330   86.4050   59.6170 N   0  0  0  0  0  0  0  0  0  0  0  0
   42.3080   85.5530   59.6910 N   0  0  0  0  0  0  0  0  0  0  0  0
   40.9330   81.6170   61.8920 C   0  0  0  0  0  0  0  0  0  0  0  0
   41.8890   82.5580   61.4820 C   0  0  0  0  0  0  0  0  0  0  0  0
   41.4510   83.8700   61.2650 C   0  0  0  0  0  0  0  0  0  0  0  0
   40.1480   84.1730   61.4560 N   0  0  0  0  0  0  0  0  0  0  0  0
   39.2550   83.2320   61.8530 C   0  0  0  0  0  0  0  0  0  0  0  0
   39.6590   81.9620   62.0670 N   0  0  0  0  0  0  0  0  0  0  0  0
   43.6120   87.3100   58.5330 C   0  0  0  0  0  0  0  0  0  0  0  0
   44.6340   86.7690   57.7330 N   0  0  0  0  0  0  0  0  0  0  0  0
   45.9390   87.3250   57.8140 C   0  0  0  0  0  0  0  0  0  0  0  0
   46.5640   87.0910   56.4430 C   0  0  0  0  0  0  0  0  0  0  0  0
   46.7770   85.6940   56.2630 N   0  0  0  0  0  0  0  0  0  0  0  0
   45.8320   84.8160   56.8600 C   0  0  0  0  0  0  0  0  0  0  0  0
   44.5480   85.4280   57.3120 C   0  0  0  0  0  0  0  0  0  0  0  0
   43.8507   84.9108   62.5779 H   0  0  0  0  0  0  0  0  0  0  0  0
   44.9803   86.8227   60.9856 H   0  0  0  0  0  0  0  0  0  0  0  0
   41.2410   80.5765   62.0720 H   0  0  0  0  0  0  0  0  0  0  0  0
   42.9423   82.2760   61.3366 H   0  0  0  0  0  0  0  0  0  0  0  0
   38.1996   83.5046   62.0008 H   0  0  0  0  0  0  0  0  0  0  0  0
   42.7047   87.4495   57.9269 H   0  0  0  0  0  0  0  0  0  0  0  0
   43.9321   88.2825   58.9354 H   0  0  0  0  0  0  0  0  0  0  0  0
   45.8858   88.4014   58.0342 H   0  0  0  0  0  0  0  0  0  0  0  0
   46.5313   86.8637   58.6180 H   0  0  0  0  0  0  0  0  0  0  0  0
   45.8873   87.4648   55.6605 H   0  0  0  0  0  0  0  0  0  0  0  0
   47.5233   87.6250   56.3757 H   0  0  0  0  0  0  0  0  0  0  0  0
   46.7779   85.5076   55.2500 H   0  0  0  0  0  0  0  0  0  0  0  0
   45.5894   84.0354   56.1239 H   0  0  0  0  0  0  0  0  0  0  0  0
   46.3164   84.4456   57.7755 H   0  0  0  0  0  0  0  0  0  0  0  0
   43.8358   85.3799   56.4750 H   0  0  0  0  0  0  0  0  0  0  0  0
   44.2318   84.8526   58.1946 H   0  0  0  0  0  0  0  0  0  0  0  0
  1  8  1  0
  1  2  1  0
  3  2  2  0
  4  5  1  0
  4  3  1  0
  5  1  2  0
  6 11  2  0
  7  6  1  0
  8  9  1  0
  8  7  2  0
  9 10  2  0
 10 11  1  0
 12  4  1  0
 13 14  1  0
 13 12  1  0
 15 14  1  0
 16 15  1  0
 16 17  1  0
 17 18  1  0
 18 13  1  0
  2 19  1  0
  3 20  1  0
  6 21  1  0
  7 22  1  0
 10 23  1  0
 12 24  1  0
 12 25  1  0
 14 26  1  0
 14 27  1  0
 15 28  1  0
 15 29  1  0
 16 30  1  0
 17 31  1  0
 17 32  1  0
 18 33  1  0
 18 34  1  0
M  ISO  8  19  14  20  14  21  14  22  14  23  14  24   8  25   8  26  13
M  ISO  8  27  13  28  13  29  13  30   5  31  13  32  13  33  13  34  13
M  END
>  <minimizedAffinity>  (1) 
-4.22203445

>  <minimizedRMSD>  (1) 
0.597536922

$$$$
