
     RDKit          3D

 13 13  0  0  0  0  0  0  0  0999 V2000
   39.9540   83.5050   59.7160 C   0  0  0  0  0  0  0  0  0  0  0  0
   39.3670   84.2490   60.7560 C   0  0  0  0  0  0  0  0  0  0  0  0
   39.0880   83.5860   61.9500 C   0  0  0  0  0  0  0  0  0  0  0  0
   39.3910   82.2670   62.0540 N   0  0  0  0  0  0  0  0  0  0  0  0
   39.9570   81.5810   61.0310 C   0  0  0  0  0  0  0  0  0  0  0  0
   40.2360   82.1970   59.8700 N   0  0  0  0  0  0  0  0  0  0  0  0
   40.3040   80.1380   61.1080 C   0  0  0  0  0  0  0  0  0  0  0  0
   40.1864   83.9997   58.7614 H   0  0  0  0  0  0  0  0  0  0  0  0
   39.1362   85.3172   60.6311 H   0  0  0  0  0  0  0  0  0  0  0  0
   38.6299   84.1228   62.7938 H   0  0  0  0  0  0  0  0  0  0  0  0
   40.3770   79.8342   62.1627 H   0  0  0  0  0  0  0  0  0  0  0  0
   39.5226   79.5459   60.6091 H   0  0  0  0  0  0  0  0  0  0  0  0
   41.2691   79.9658   60.6091 H   0  0  0  0  0  0  0  0  0  0  0  0
  1  6  2  0
  1  2  1  0
  2  3  2  0
  3  4  1  0
  5  7  1  0
  5  4  2  0
  6  5  1  0
  1  8  1  0
  2  9  1  0
  3 10  1  0
  7 11  1  0
  7 12  1  0
  7 13  1  0
M  ISO  6   8  14   9  14  10  14  11   8  12   8  13   8
M  END
>  <minimizedAffinity>  (1) 
-3.15273619

>  <minimizedRMSD>  (1) 
2.75983906

$$$$
