
     RDKit          3D

 22 23  0  0  0  0  0  0  0  0999 V2000
   42.4530   84.8290   61.0830 C   0  0  0  0  0  0  0  0  0  0  0  0
   43.4810   85.1880   61.9630 C   0  0  0  0  0  0  0  0  0  0  0  0
   44.1660   86.1540   61.2120 C   0  0  0  0  0  0  0  0  0  0  0  0
   43.5800   86.3290   60.0140 N   0  0  0  0  0  0  0  0  0  0  0  0
   42.5240   85.5120   59.9370 N   0  0  0  0  0  0  0  0  0  0  0  0
   40.7840   81.5750   61.7960 C   0  0  0  0  0  0  0  0  0  0  0  0
   41.7850   82.4900   61.5000 C   0  0  0  0  0  0  0  0  0  0  0  0
   41.4390   83.8380   61.3910 C   0  0  0  0  0  0  0  0  0  0  0  0
   40.1410   84.2130   61.5760 N   0  0  0  0  0  0  0  0  0  0  0  0
   39.2010   83.2820   61.8630 C   0  0  0  0  0  0  0  0  0  0  0  0
   39.5190   81.9730   61.9720 N   0  0  0  0  0  0  0  0  0  0  0  0
   44.0080   87.2470   58.9690 C   0  0  0  0  0  0  0  0  0  0  0  0
   44.8630   86.5820   58.0080 N   0  0  0  0  0  0  0  0  0  0  0  0
   43.6946   84.8122   62.9745 H   0  0  0  0  0  0  0  0  0  0  0  0
   45.0602   86.6947   61.5556 H   0  0  0  0  0  0  0  0  0  0  0  0
   41.0344   80.5078   61.8871 H   0  0  0  0  0  0  0  0  0  0  0  0
   42.8246   82.1612   61.3550 H   0  0  0  0  0  0  0  0  0  0  0  0
   38.1575   83.5973   62.0104 H   0  0  0  0  0  0  0  0  0  0  0  0
   43.1209   87.6388   58.4498 H   0  0  0  0  0  0  0  0  0  0  0  0
   44.5768   88.0653   59.4347 H   0  0  0  0  0  0  0  0  0  0  0  0
   45.5744   86.0287   58.5066 H   0  0  0  0  0  0  0  0  0  0  0  0
   44.2950   85.9583   57.4169 H   0  0  0  0  0  0  0  0  0  0  0  0
  1  8  1  0
  1  2  1  0
  3  2  2  0
  4  3  1  0
  5  4  1  0
  5  1  2  0
  6 11  2  0
  7  6  1  0
  8  7  2  0
  8  9  1  0
  9 10  2  0
 10 11  1  0
 12  4  1  0
 13 12  1  0
  2 14  1  0
  3 15  1  0
  6 16  1  0
  7 17  1  0
 10 18  1  0
 12 19  1  0
 12 20  1  0
 13 21  1  0
 13 22  1  0
M  ISO  8  14  14  15  14  16  14  17  14  18  14  19   8  20   8  21   5
M  ISO  1  22   5
M  END
>  <minimizedAffinity>  (1) 
-3.88911271

>  <minimizedRMSD>  (1) 
0.113911919

$$$$
