
     RDKit          3D

 12 12  0  0  0  0  0  0  0  0999 V2000
   40.3700   82.1410   60.3860 C   0  0  0  0  0  0  0  0  0  0  0  0
   40.4910   83.1500   59.4150 C   0  0  0  0  0  0  0  0  0  0  0  0
   39.7720   84.3460   59.5950 C   0  0  0  0  0  0  0  0  0  0  0  0
   38.9910   84.4550   60.7150 N   0  0  0  0  0  0  0  0  0  0  0  0
   38.9090   83.4560   61.6190 C   0  0  0  0  0  0  0  0  0  0  0  0
   39.5890   82.3030   61.4640 N   0  0  0  0  0  0  0  0  0  0  0  0
   38.0680   83.6730   62.7480 N   0  0  0  0  0  0  0  0  0  0  0  0
   40.9265   81.2006   60.2593 H   0  0  0  0  0  0  0  0  0  0  0  0
   41.1337   83.0078   58.5337 H   0  0  0  0  0  0  0  0  0  0  0  0
   39.8348   85.1642   58.8625 H   0  0  0  0  0  0  0  0  0  0  0  0
   37.9714   82.9413   63.4665 H   0  0  0  0  0  0  0  0  0  0  0  0
   37.5564   84.5616   62.8459 H   0  0  0  0  0  0  0  0  0  0  0  0
  1  6  2  0
  2  3  2  0
  2  1  1  0
  3  4  1  0
  4  5  2  0
  5  7  1  0
  6  5  1  0
  1  8  1  0
  2  9  1  0
  3 10  1  0
  7 11  1  0
  7 12  1  0
M  ISO  3   8  14   9  14  10  14
M  END
>  <minimizedAffinity>  (1) 
-3.10585523

>  <minimizedRMSD>  (1) 
0.471319139

$$$$
