
     RDKit          3D

 34 36  0  0  0  0  0  0  0  0999 V2000
   42.8140   84.4800   61.4960 C   0  0  0  0  0  0  0  0  0  0  0  0
   43.0410   85.5300   62.3890 C   0  0  0  0  0  0  0  0  0  0  0  0
   44.1030   86.1970   61.7840 C   0  0  0  0  0  0  0  0  0  0  0  0
   44.4630   85.5680   60.6170 N   0  0  0  0  0  0  0  0  0  0  0  0
   43.6560   84.5220   60.4700 N   0  0  0  0  0  0  0  0  0  0  0  0
   41.1380   81.2090   62.1670 C   0  0  0  0  0  0  0  0  0  0  0  0
   42.1080   82.1810   61.9860 C   0  0  0  0  0  0  0  0  0  0  0  0
   41.7900   83.4810   61.6800 C   0  0  0  0  0  0  0  0  0  0  0  0
   40.4870   83.7880   61.5600 N   0  0  0  0  0  0  0  0  0  0  0  0
   39.5310   82.8300   61.7380 C   0  0  0  0  0  0  0  0  0  0  0  0
   39.8570   81.5630   62.0370 N   0  0  0  0  0  0  0  0  0  0  0  0
   45.5200   85.9940   59.7450 C   0  0  0  0  0  0  0  0  0  0  0  0
   45.3420   87.2900   59.3190 O   0  0  0  0  0  0  0  0  0  0  0  0
   45.6180   88.0960   56.8690 O   0  0  0  0  0  0  0  0  0  0  0  0
   44.6090   87.4660   57.8260 P   0  0  2  0  0  0  0  0  0  0  0  0
   43.3160   88.5140   57.9620 O   0  0  0  0  0  0  0  0  0  0  0  0
   44.0960   86.0020   57.2170 O   0  0  0  0  0  0  0  0  0  0  0  0
   42.9620   85.2920   57.4880 C   0  0  0  0  0  0  0  0  0  0  0  0
   42.6890   83.9350   57.3710 C   0  0  0  0  0  0  0  0  0  0  0  0
   41.4480   83.4400   57.7100 C   0  0  0  0  0  0  0  0  0  0  0  0
   40.4790   84.2580   58.1600 N   0  0  0  0  0  0  0  0  0  0  0  0
   40.7430   85.5910   58.2740 C   0  0  0  0  0  0  0  0  0  0  0  0
   41.9490   86.0850   57.9470 N   0  0  0  0  0  0  0  0  0  0  0  0
   42.5170   85.7680   63.3264 H   0  0  0  0  0  0  0  0  0  0  0  0
   44.5859   87.1007   62.1843 H   0  0  0  0  0  0  0  0  0  0  0  0
   41.4155   80.1730   62.4113 H   0  0  0  0  0  0  0  0  0  0  0  0
   43.1670   81.9024   62.0908 H   0  0  0  0  0  0  0  0  0  0  0  0
   38.4704   83.1025   61.6341 H   0  0  0  0  0  0  0  0  0  0  0  0
   46.4760   85.9251   60.2848 H   0  0  0  0  0  0  0  0  0  0  0  0
   45.5165   85.3405   58.8602 H   0  0  0  0  0  0  0  0  0  0  0  0
   43.1195   88.6732   58.9192 H   0  0  0  0  0  0  0  0  0  0  0  0
   43.4687   83.2506   57.0052 H   0  0  0  0  0  0  0  0  0  0  0  0
   41.2473   82.3630   57.6114 H   0  0  0  0  0  0  0  0  0  0  0  0
   39.9585   86.2706   58.6384 H   0  0  0  0  0  0  0  0  0  0  0  0
  1  8  1  0
  1  2  1  0
  3  2  2  0
  4  3  1  0
  5  4  1  0
  5  1  2  0
  7  6  2  0
  8  7  1  0
  9  8  2  0
  9 10  1  0
 10 11  2  0
 11  6  1  0
 12  4  1  0
 13 12  1  0
 15 14  2  0
 15 16  1  0
 15 13  1  0
 17 18  1  0
 17 15  1  0
 18 23  1  0
 19 18  2  0
 19 20  1  0
 20 21  2  0
 21 22  1  0
 23 22  2  0
  2 24  1  0
  3 25  1  0
  6 26  1  0
  7 27  1  0
 10 28  1  0
 12 29  1  0
 12 30  1  0
 16 31  1  0
 19 32  1  0
 20 33  1  0
 22 34  1  0
M  ISO  8  24  14  25  14  26  14  27  14  28  14  29   8  30   8  31   3
M  ISO  3  32  14  33  14  34  14
M  END
>  <minimizedAffinity>  (1) 
-4.39028502

>  <minimizedRMSD>  (1) 
2.59864902

$$$$
