
     RDKit          3D

 32 33  0  0  0  0  0  0  0  0999 V2000
   42.4280   84.6380   61.2780 C   0  0  0  0  0  0  0  0  0  0  0  0
   43.2000   85.1400   62.3390 C   0  0  0  0  0  0  0  0  0  0  0  0
   44.1330   85.9210   61.6480 C   0  0  0  0  0  0  0  0  0  0  0  0
   43.9090   85.8650   60.3120 N   0  0  0  0  0  0  0  0  0  0  0  0
   42.8570   85.0720   60.1160 N   0  0  0  0  0  0  0  0  0  0  0  0
   40.3630   81.5340   61.4500 C   0  0  0  0  0  0  0  0  0  0  0  0
   41.4220   82.3960   61.2710 C   0  0  0  0  0  0  0  0  0  0  0  0
   41.2970   83.7490   61.4730 C   0  0  0  0  0  0  0  0  0  0  0  0
   40.1000   84.2240   61.8570 N   0  0  0  0  0  0  0  0  0  0  0  0
   39.0650   83.3510   62.0290 C   0  0  0  0  0  0  0  0  0  0  0  0
   39.1980   82.0300   61.8280 N   0  0  0  0  0  0  0  0  0  0  0  0
   44.6890   86.5540   59.3180 C   0  0  0  0  0  0  0  0  0  0  0  0
   44.7230   87.9010   59.5250 O   0  0  0  0  0  0  0  0  0  0  0  0
   44.0720   90.2870   58.7160 O   0  0  0  0  0  0  0  0  0  0  0  0
   44.1890   88.8450   58.2670 P   0  0  2  0  0  0  0  0  0  0  0  0
   42.6620   88.3230   57.7820 O   0  0  0  0  0  0  0  0  0  0  0  0
   45.2100   88.7330   56.9300 O   0  0  0  0  0  0  0  0  0  0  0  0
   46.4900   89.1950   57.2040 C   0  0  0  0  0  0  0  0  0  0  0  0
   47.4200   87.9820   57.0710 C   0  0  0  0  0  0  0  0  0  0  0  0
   43.0985   84.9661   63.4204 H   0  0  0  0  0  0  0  0  0  0  0  0
   44.9378   86.5009   62.1235 H   0  0  0  0  0  0  0  0  0  0  0  0
   40.4845   80.4538   61.2816 H   0  0  0  0  0  0  0  0  0  0  0  0
   42.3950   81.9898   60.9576 H   0  0  0  0  0  0  0  0  0  0  0  0
   38.0868   83.7437   62.3436 H   0  0  0  0  0  0  0  0  0  0  0  0
   44.2505   86.3598   58.3280 H   0  0  0  0  0  0  0  0  0  0  0  0
   45.7210   86.1789   59.3827 H   0  0  0  0  0  0  0  0  0  0  0  0
   42.1088   88.1339   58.5809 H   0  0  0  0  0  0  0  0  0  0  0  0
   46.7760   89.9757   56.4838 H   0  0  0  0  0  0  0  0  0  0  0  0
   46.5499   89.6379   58.2091 H   0  0  0  0  0  0  0  0  0  0  0  0
   47.6970   87.6208   58.0724 H   0  0  0  0  0  0  0  0  0  0  0  0
   46.9021   87.1813   56.5226 H   0  0  0  0  0  0  0  0  0  0  0  0
   48.3277   88.2743   56.5226 H   0  0  0  0  0  0  0  0  0  0  0  0
  1  8  1  0
  1  2  1  0
  3  2  2  0
  4  3  1  0
  5  4  1  0
  5  1  2  0
  6 11  2  0
  7  6  1  0
  7  8  2  0
  8  9  1  0
  9 10  2  0
 11 10  1  0
 12 13  1  0
 12  4  1  0
 15 14  2  0
 15 13  1  0
 16 15  1  0
 17 18  1  0
 17 15  1  0
 19 18  1  0
  2 20  1  0
  3 21  1  0
  6 22  1  0
  7 23  1  0
 10 24  1  0
 12 25  1  0
 12 26  1  0
 16 27  1  0
 18 28  1  0
 18 29  1  0
 19 30  1  0
 19 31  1  0
 19 32  1  0
M  ISO  8  20  14  21  14  22  14  23  14  24  14  25   8  26   8  27   3
M  ISO  5  28   8  29   8  30   8  31   8  32   8
M  END
>  <minimizedAffinity>  (1) 
-4.36262989

>  <minimizedRMSD>  (1) 
1.55238938

$$$$
