
     RDKit          3D

 11 11  0  0  0  0  0  0  0  0999 V2000
   40.3040   81.5340   61.5020 C   0  0  0  0  0  0  0  0  0  0  0  0
   39.8760   82.3830   60.4500 C   0  0  0  0  0  0  0  0  0  0  0  0
   39.7400   83.7440   60.7160 C   0  0  0  0  0  0  0  0  0  0  0  0
   40.0230   84.1960   61.9740 N   0  0  0  0  0  0  0  0  0  0  0  0
   40.4280   83.3540   62.9520 C   0  0  0  0  0  0  0  0  0  0  0  0
   40.5700   82.0370   62.7260 N   0  0  0  0  0  0  0  0  0  0  0  0
   40.7300   84.2060   64.4950 S   0  0  0  0  0  0  0  0  0  0  0  0
   40.4203   80.4556   61.3189 H   0  0  0  0  0  0  0  0  0  0  0  0
   39.6572   81.9781   59.4509 H   0  0  0  0  0  0  0  0  0  0  0  0
   39.4117   84.4398   59.9298 H   0  0  0  0  0  0  0  0  0  0  0  0
   40.4348   83.3731   65.5419 H   0  0  0  0  0  0  0  0  0  0  0  0
  1  6  2  0
  2  3  2  0
  2  1  1  0
  3  4  1  0
  4  5  2  0
  5  7  1  0
  6  5  1  0
  1  8  1  0
  2  9  1  0
  3 10  1  0
  7 11  1  0
M  ISO  4   8  14   9  14  10  14  11  11
M  END
>  <minimizedAffinity>  (1) 
-3.05952311

>  <minimizedRMSD>  (1) 
1.6503433

$$$$
