
     RDKit          3D

 20 21  0  0  0  0  0  0  0  0999 V2000
   40.7760   83.1550   60.9260 N   0  0  0  0  0  0  0  0  0  0  0  0
   41.5220   82.1040   60.5840 C   0  0  0  0  0  0  0  0  0  0  0  0
   41.3310   81.5460   59.3160 C   0  0  0  0  0  0  0  0  0  0  0  0
   40.3790   82.1020   58.4620 C   0  0  0  0  0  0  0  0  0  0  0  0
   40.1410   81.6660   57.3080 O   0  0  0  0  0  0  0  0  0  0  0  0
   39.6640   83.1710   58.8900 N   0  0  0  0  0  0  0  0  0  0  0  0
   39.8480   83.7160   60.1260 C   0  0  0  0  0  0  0  0  0  0  0  0
   39.1880   84.7030   60.5180 O   0  0  0  0  0  0  0  0  0  0  0  0
   40.2710   83.2270   63.3240 C   0  0  0  0  0  0  0  0  0  0  0  0
   41.0480   83.6480   62.2360 C   0  0  0  0  0  0  0  0  0  0  0  0
   42.0860   84.5610   62.4820 C   0  0  0  0  0  0  0  0  0  0  0  0
   42.2770   84.9810   63.7630 N   0  0  0  0  0  0  0  0  0  0  0  0
   41.5090   84.5520   64.7810 C   0  0  0  0  0  0  0  0  0  0  0  0
   40.5100   83.6770   64.5600 N   0  0  0  0  0  0  0  0  0  0  0  0
   42.2661   81.6880   61.2791 H   0  0  0  0  0  0  0  0  0  0  0  0
   41.9254   80.6777   58.9956 H   0  0  0  0  0  0  0  0  0  0  0  0
   38.9599   83.5843   58.2620 H   0  0  0  0  0  0  0  0  0  0  0  0
   39.4502   82.5138   63.1579 H   0  0  0  0  0  0  0  0  0  0  0  0
   42.7254   84.9258   61.6647 H   0  0  0  0  0  0  0  0  0  0  0  0
   41.6986   84.9186   65.8006 H   0  0  0  0  0  0  0  0  0  0  0  0
  1 10  1  0
  2  1  1  0
  3  2  2  0
  4  6  1  0
  4  3  1  0
  5  4  2  0
  6  7  1  0
  7  8  2  0
  7  1  1  0
  9 14  2  0
 10 11  2  0
 10  9  1  0
 11 12  1  0
 12 13  2  0
 14 13  1  0
  2 15  1  0
  3 16  1  0
  6 17  1  0
  9 18  1  0
 11 19  1  0
 13 20  1  0
M  ISO  6  15  14  16  14  17   9  18  14  19  14  20  14
M  END
>  <minimizedAffinity>  (1) 
-4.66802979

>  <minimizedRMSD>  (1) 
3.16268682

$$$$
