
     RDKit          3D

 33 35  0  0  1  0  0  0  0  0999 V2000
   39.9660   82.4750   59.0940 C   0  0  0  0  0  0  0  0  0  0  0  0
   40.8880   81.6930   58.3790 C   0  0  0  0  0  0  0  0  0  0  0  0
   42.1640   81.4980   58.9210 C   0  0  0  0  0  0  0  0  0  0  0  0
   42.4410   82.0830   60.1220 N   0  0  0  0  0  0  0  0  0  0  0  0
   41.5420   82.8210   60.7770 C   0  0  0  0  0  0  0  0  0  0  0  0
   40.3030   83.0210   60.2670 N   0  0  0  0  0  0  0  0  0  0  0  0
   40.5090   81.1170   57.1230 N   0  0  0  0  0  0  0  0  0  0  0  0
   39.6890   80.0630   57.2430 C   0  0  0  0  0  0  0  0  0  0  0  0
   39.2680   79.4360   56.0650 C   0  0  0  0  0  0  0  0  0  0  0  0
   39.7030   79.9140   54.8390 C   0  0  0  0  0  0  0  0  0  0  0  0
   39.3640   79.4000   53.7470 O   0  0  0  0  0  0  0  0  0  0  0  0
   40.5250   80.9780   54.8120 N   0  0  0  0  0  0  0  0  0  0  0  0
   40.9480   81.6030   55.9550 C   0  0  0  0  0  0  0  0  0  0  0  0
   41.7160   82.5960   55.9310 O   0  0  0  0  0  0  0  0  0  0  0  0
   40.7980   83.4620   63.0770 C   0  0  2  0  0  0  0  0  0  0  0  0
   41.9250   83.4130   62.0630 C   0  0  2  0  0  0  0  0  0  0  0  0
   42.2800   84.7430   61.9820 O   0  0  0  0  0  0  0  0  0  0  0  0
   42.4450   85.1130   63.3120 C   0  0  0  0  0  0  0  0  0  0  0  0
   41.4730   84.3270   64.1450 C   0  0  1  0  0  0  0  0  0  0  0  0
   40.4900   82.2020   63.5820 O   0  0  0  0  0  0  0  0  0  0  0  0
   40.5660   85.0990   64.8450 O   0  0  0  0  0  0  0  0  0  0  0  0
   38.9581   82.6396   58.6854 H   0  0  0  0  0  0  0  0  0  0  0  0
   42.9181   80.8933   58.3960 H   0  0  0  0  0  0  0  0  0  0  0  0
   39.3598   79.7049   58.2296 H   0  0  0  0  0  0  0  0  0  0  0  0
   38.5947   78.5674   56.1118 H   0  0  0  0  0  0  0  0  0  0  0  0
   40.8473   81.3349   53.9012 H   0  0  0  0  0  0  0  0  0  0  0  0
   39.8389   83.8332   62.6866 H   0  0  0  0  0  0  0  0  0  0  0  0
   42.7544   82.7542   62.3597 H   0  0  0  0  0  0  0  0  0  0  0  0
   43.4735   84.8932   63.6342 H   0  0  0  0  0  0  0  0  0  0  0  0
   42.2605   86.1909   63.4309 H   0  0  0  0  0  0  0  0  0  0  0  0
   41.9621   83.7653   64.9545 H   0  0  0  0  0  0  0  0  0  0  0  0
   40.4974   82.2322   64.5715 H   0  0  0  0  0  0  0  0  0  0  0  0
   40.7095   84.9769   65.8169 H   0  0  0  0  0  0  0  0  0  0  0  0
  1  6  2  0
  2  3  2  0
  2  1  1  0
  3  4  1  0
  4  5  2  0
  6  5  1  0
  7  8  1  0
  7  2  1  0
  9  8  2  0
 10  9  1  0
 11 10  2  0
 12 10  1  0
 12 13  1  0
 13  7  1  0
 14 13  2  0
 15 20  1  0
 15 19  1  0
 16  5  1  0
 16 15  1  0
 17 16  1  0
 17 18  1  0
 18 19  1  0
 19 21  1  0
  1 22  1  0
  3 23  1  0
  8 24  1  0
  9 25  1  0
 12 26  1  0
 15 27  1  6
 16 28  1  1
 18 29  1  0
 18 30  1  0
 19 31  1  1
 20 32  1  0
 21 33  1  0
M  ISO  8  22  14  23  14  24  14  25  14  26   9  27  13  28  13  29  13
M  ISO  4  30  13  31  13  32   3  33   3
M  END
>  <minimizedAffinity>  (1) 
-5.2699213

>  <minimizedRMSD>  (1) 
4.65124512

$$$$
