
     RDKit          3D

 32 34  0  0  1  0  0  0  0  0999 V2000
   42.0460   82.5330   59.4960 C   0  0  0  0  0  0  0  0  0  0  0  0
   41.1430   82.9720   58.5140 C   0  0  0  0  0  0  0  0  0  0  0  0
   40.1760   83.9240   58.8710 C   0  0  0  0  0  0  0  0  0  0  0  0
   40.1780   84.3610   60.1610 N   0  0  0  0  0  0  0  0  0  0  0  0
   41.0470   83.9290   61.0800 C   0  0  0  0  0  0  0  0  0  0  0  0
   41.9710   83.0220   60.7450 N   0  0  0  0  0  0  0  0  0  0  0  0
   41.2290   82.4490   57.1930 N   0  0  0  0  0  0  0  0  0  0  0  0
   42.1260   83.0670   56.4240 C   0  0  0  0  0  0  0  0  0  0  0  0
   42.2820   82.6230   55.1070 C   0  0  0  0  0  0  0  0  0  0  0  0
   41.5030   81.5580   54.6440 C   0  0  0  0  0  0  0  0  0  0  0  0
   41.5830   81.1000   53.4780 O   0  0  0  0  0  0  0  0  0  0  0  0
   40.6150   80.9890   55.4930 N   0  0  0  0  0  0  0  0  0  0  0  0
   40.4640   81.4210   56.7720 C   0  0  0  0  0  0  0  0  0  0  0  0
   39.6400   80.8870   57.5520 O   0  0  0  0  0  0  0  0  0  0  0  0
   40.1850   83.5810   63.4010 C   0  0  2  0  0  0  0  0  0  0  0  0
   40.9870   84.4460   62.4500 C   0  0  1  0  0  0  0  0  0  0  0  0
   42.3140   84.4510   63.1730 C   0  0  0  0  0  0  0  0  0  0  0  0
   42.0550   84.3000   64.5290 O   0  0  0  0  0  0  0  0  0  0  0  0
   40.7010   84.1610   64.7180 C   0  0  0  0  0  0  0  0  0  0  0  0
   40.6490   82.2680   63.3470 O   0  0  0  0  0  0  0  0  0  0  0  0
   42.8150   81.7885   59.2423 H   0  0  0  0  0  0  0  0  0  0  0  0
   39.4466   84.3017   58.1394 H   0  0  0  0  0  0  0  0  0  0  0  0
   42.7261   83.9022   56.8143 H   0  0  0  0  0  0  0  0  0  0  0  0
   43.0113   83.1074   54.4410 H   0  0  0  0  0  0  0  0  0  0  0  0
   40.0365   80.2050   55.1590 H   0  0  0  0  0  0  0  0  0  0  0  0
   39.0993   83.5737   63.2245 H   0  0  0  0  0  0  0  0  0  0  0  0
   40.5642   85.4444   62.2642 H   0  0  0  0  0  0  0  0  0  0  0  0
   42.9387   83.6191   62.8157 H   0  0  0  0  0  0  0  0  0  0  0  0
   42.8522   85.3918   62.9853 H   0  0  0  0  0  0  0  0  0  0  0  0
   40.2352   85.1365   64.9216 H   0  0  0  0  0  0  0  0  0  0  0  0
   40.4639   83.5178   65.5783 H   0  0  0  0  0  0  0  0  0  0  0  0
   40.7709   81.9230   64.2669 H   0  0  0  0  0  0  0  0  0  0  0  0
  1  6  2  0
  2  3  2  0
  2  1  1  0
  3  4  1  0
  4  5  2  0
  6  5  1  0
  7  2  1  0
  8  7  1  0
  9  8  2  0
 10  9  1  0
 10 12  1  0
 11 10  2  0
 12 13  1  0
 13  7  1  0
 13 14  2  0
 15 20  1  0
 15 19  1  0
 16  5  1  0
 16 17  1  0
 16 15  1  0
 17 18  1  0
 18 19  1  0
  1 21  1  0
  3 22  1  0
  8 23  1  0
  9 24  1  0
 12 25  1  0
 15 26  1  6
 16 27  1  6
 17 28  1  0
 17 29  1  0
 19 30  1  0
 19 31  1  0
 20 32  1  0
M  ISO  8  21  14  22  14  23  14  24  14  25   9  26  13  27  13  28  13
M  ISO  4  29  13  30  13  31  13  32   3
M  END
>  <minimizedAffinity>  (1) 
-5.19318676

>  <minimizedRMSD>  (1) 
4.16939211

$$$$
