
     RDKit          3D

 21 22  0  0  0  0  0  0  0  0999 V2000
   40.8720   83.1150   60.7120 N   0  0  0  0  0  0  0  0  0  0  0  0
   41.7980   82.2650   60.2870 C   0  0  0  0  0  0  0  0  0  0  0  0
   41.7290   81.8130   58.9700 C   0  0  0  0  0  0  0  0  0  0  0  0
   40.7050   82.2590   58.1500 C   0  0  0  0  0  0  0  0  0  0  0  0
   40.5470   81.9180   56.9480 O   0  0  0  0  0  0  0  0  0  0  0  0
   39.8010   83.1240   58.6580 N   0  0  0  0  0  0  0  0  0  0  0  0
   39.8700   83.5650   59.9460 C   0  0  0  0  0  0  0  0  0  0  0  0
   39.0260   84.3730   60.4180 O   0  0  0  0  0  0  0  0  0  0  0  0
   40.3190   82.8890   63.0880 C   0  0  0  0  0  0  0  0  0  0  0  0
   41.0360   83.5130   62.0710 C   0  0  0  0  0  0  0  0  0  0  0  0
   41.9150   84.5400   62.4390 C   0  0  0  0  0  0  0  0  0  0  0  0
   42.0040   84.8510   63.7600 N   0  0  0  0  0  0  0  0  0  0  0  0
   41.2990   84.2290   64.7090 C   0  0  0  0  0  0  0  0  0  0  0  0
   40.4470   83.2360   64.3710 N   0  0  0  0  0  0  0  0  0  0  0  0
   41.6020   84.7630   65.9580 O   0  0  0  0  0  0  0  0  0  0  0  0
   42.6009   81.9251   60.9577 H   0  0  0  0  0  0  0  0  0  0  0  0
   42.4810   81.1084   58.5852 H   0  0  0  0  0  0  0  0  0  0  0  0
   39.0370   83.4604   58.0546 H   0  0  0  0  0  0  0  0  0  0  0  0
   39.6213   82.0803   62.8250 H   0  0  0  0  0  0  0  0  0  0  0  0
   42.5119   85.0758   61.6863 H   0  0  0  0  0  0  0  0  0  0  0  0
   41.1595   84.4073   66.7690 H   0  0  0  0  0  0  0  0  0  0  0  0
  1 10  1  0
  2  1  1  0
  3  2  2  0
  4  6  1  0
  4  3  1  0
  5  4  2  0
  6  7  1  0
  7  8  2  0
  7  1  1  0
  9 14  2  0
 10 11  2  0
 10  9  1  0
 11 12  1  0
 12 13  2  0
 13 15  1  0
 14 13  1  0
  2 16  1  0
  3 17  1  0
  6 18  1  0
  9 19  1  0
 11 20  1  0
 15 21  1  0
M  ISO  6  16  14  17  14  18   9  19  14  20  14  21   3
M  END
>  <minimizedAffinity>  (1) 
-5.08372641

>  <minimizedRMSD>  (1) 
0.403706044

$$$$
