
     RDKit          3D

 27 29  0  0  0  0  0  0  0  0999 V2000
   39.7660   80.7470   61.1070 C   0  0  0  0  0  0  0  0  0  0  0  0
   40.5950   80.2350   60.0950 C   0  0  0  0  0  0  0  0  0  0  0  0
   41.9300   80.6620   60.0410 C   0  0  0  0  0  0  0  0  0  0  0  0
   42.3450   81.5570   60.9840 N   0  0  0  0  0  0  0  0  0  0  0  0
   41.5250   82.0210   61.9300 C   0  0  0  0  0  0  0  0  0  0  0  0
   40.2420   81.6200   61.9940 N   0  0  0  0  0  0  0  0  0  0  0  0
   40.0740   79.2950   59.1450 N   0  0  0  0  0  0  0  0  0  0  0  0
   40.0430   78.0430   59.5820 C   0  0  0  0  0  0  0  0  0  0  0  0
   39.5480   77.0600   58.7170 C   0  0  0  0  0  0  0  0  0  0  0  0
   39.1080   77.4210   57.4430 C   0  0  0  0  0  0  0  0  0  0  0  0
   38.6490   76.6130   56.6000 O   0  0  0  0  0  0  0  0  0  0  0  0
   39.1750   78.7270   57.0790 N   0  0  0  0  0  0  0  0  0  0  0  0
   39.6570   79.6810   57.9210 C   0  0  0  0  0  0  0  0  0  0  0  0
   39.7160   80.8910   57.5760 O   0  0  0  0  0  0  0  0  0  0  0  0
   41.9190   82.9790   62.9590 C   0  0  0  0  0  0  0  0  0  0  0  0
   43.1030   83.5280   63.4070 C   0  0  0  0  0  0  0  0  0  0  0  0
   42.7640   84.3770   64.4200 N   0  0  0  0  0  0  0  0  0  0  0  0
   41.4300   84.3650   64.6030 C   0  0  0  0  0  0  0  0  0  0  0  0
   40.8930   83.4970   63.6980 N   0  0  0  0  0  0  0  0  0  0  0  0
   38.7160   80.4248   61.1676 H   0  0  0  0  0  0  0  0  0  0  0  0
   42.6171   80.2892   59.2671 H   0  0  0  0  0  0  0  0  0  0  0  0
   40.3950   77.7854   60.5918 H   0  0  0  0  0  0  0  0  0  0  0  0
   39.5061   76.0092   59.0397 H   0  0  0  0  0  0  0  0  0  0  0  0
   38.8524   79.0031   56.1406 H   0  0  0  0  0  0  0  0  0  0  0  0
   44.1141   83.3230   63.0253 H   0  0  0  0  0  0  0  0  0  0  0  0
   43.4302   84.9434   64.9643 H   0  0  0  0  0  0  0  0  0  0  0  0
   40.8728   84.9506   65.3491 H   0  0  0  0  0  0  0  0  0  0  0  0
  1  6  2  0
  2  1  1  0
  3  2  2  0
  3  4  1  0
  4  5  2  0
  5  6  1  0
  5 15  1  0
  7  8  1  0
  7  2  1  0
  9  8  2  0
 10  9  1  0
 11 10  2  0
 12 10  1  0
 12 13  1  0
 13  7  1  0
 14 13  2  0
 15 16  2  0
 15 19  1  0
 16 17  1  0
 17 18  1  0
 19 18  2  0
  1 20  1  0
  3 21  1  0
  8 22  1  0
  9 23  1  0
 12 24  1  0
 16 25  1  0
 17 26  1  0
 18 27  1  0
M  ISO  8  20  14  21  14  22  14  23  14  24   9  25  14  26   9  27  14
M  END
>  <minimizedAffinity>  (1) 
-4.83525467

>  <minimizedRMSD>  (1) 
4.35556555

$$$$
