
     RDKit          3D

 23 25  0  0  0  0  0  0  0  0999 V2000
   39.5310   83.0830   61.0420 C   0  0  0  0  0  0  0  0  0  0  0  0
   40.8020   83.1230   60.4630 C   0  0  0  0  0  0  0  0  0  0  0  0
   41.9060   83.5140   61.1960 C   0  0  0  0  0  0  0  0  0  0  0  0
   41.7900   83.8800   62.5300 C   0  0  0  0  0  0  0  0  0  0  0  0
   42.6050   84.2950   63.5140 N   0  0  0  0  0  0  0  0  0  0  0  0
   41.8990   84.5080   64.6520 C   0  0  0  0  0  0  0  0  0  0  0  0
   40.6090   84.2080   64.3370 N   0  0  0  0  0  0  0  0  0  0  0  0
   40.5180   83.8230   63.0520 C   0  0  0  0  0  0  0  0  0  0  0  0
   39.3760   83.4430   62.3760 C   0  0  0  0  0  0  0  0  0  0  0  0
   40.3440   81.3130   57.3150 C   0  0  0  0  0  0  0  0  0  0  0  0
   41.1800   82.0100   56.4100 C   0  0  0  0  0  0  0  0  0  0  0  0
   41.8900   83.1000   56.9150 C   0  0  0  0  0  0  0  0  0  0  0  0
   41.7490   83.4340   58.2220 N   0  0  0  0  0  0  0  0  0  0  0  0
   40.9350   82.7410   59.0610 C   0  0  0  0  0  0  0  0  0  0  0  0
   40.2390   81.6850   58.6010 N   0  0  0  0  0  0  0  0  0  0  0  0
   38.6603   82.7693   60.4474 H   0  0  0  0  0  0  0  0  0  0  0  0
   42.8945   83.5357   60.7139 H   0  0  0  0  0  0  0  0  0  0  0  0
   43.6213   84.4319   63.4178 H   0  0  0  0  0  0  0  0  0  0  0  0
   42.2862   84.8503   65.6230 H   0  0  0  0  0  0  0  0  0  0  0  0
   38.3924   83.4259   62.8682 H   0  0  0  0  0  0  0  0  0  0  0  0
   39.7675   80.4473   56.9568 H   0  0  0  0  0  0  0  0  0  0  0  0
   41.2661   81.7061   55.3563 H   0  0  0  0  0  0  0  0  0  0  0  0
   42.5562   83.6815   56.2608 H   0  0  0  0  0  0  0  0  0  0  0  0
  1  9  2  0
  2  1  1  0
  2  3  2  0
  3  4  1  0
  4  8  2  0
  4  5  1  0
  5  6  1  0
  7  6  2  0
  8  7  1  0
  9  8  1  0
 10 15  2  0
 11 12  2  0
 11 10  1  0
 12 13  1  0
 13 14  2  0
 14  2  1  0
 15 14  1  0
  1 16  1  0
  3 17  1  0
  5 18  1  0
  6 19  1  0
  9 20  1  0
 10 21  1  0
 11 22  1  0
 12 23  1  0
M  ISO  8  16  14  17  14  18   9  19  14  20  14  21  14  22  14  23  14
M  END
>  <minimizedAffinity>  (1) 
-4.55190277

>  <minimizedRMSD>  (1) 
4.25963926

$$$$
