
     RDKit          3D

 44 48  0  0  0  0  0  0  0  0999 V2000
   42.8090   82.1260   62.5580 C   0  0  0  0  0  0  0  0  0  0  0  0
   43.3810   81.0930   61.8420 C   0  0  0  0  0  0  0  0  0  0  0  0
   44.7420   80.8670   61.9030 C   0  0  0  0  0  0  0  0  0  0  0  0
   45.6030   81.6440   62.6700 C   0  0  0  0  0  0  0  0  0  0  0  0
   45.0560   82.6770   63.3930 C   0  0  0  0  0  0  0  0  0  0  0  0
   43.6880   82.9090   63.3340 C   0  0  0  0  0  0  0  0  0  0  0  0
   41.4930   78.1710   60.6070 C   0  0  0  0  0  0  0  0  0  0  0  0
   41.0400   78.6200   59.3630 C   0  0  0  0  0  0  0  0  0  0  0  0
   41.4040   79.9170   58.9900 C   0  0  0  0  0  0  0  0  0  0  0  0
   42.1630   80.6540   59.8450 N   0  0  0  0  0  0  0  0  0  0  0  0
   42.5770   80.2050   61.0180 C   0  0  0  0  0  0  0  0  0  0  0  0
   42.2370   78.9570   61.3930 N   0  0  0  0  0  0  0  0  0  0  0  0
   40.2530   77.7870   58.5330 N   0  0  0  0  0  0  0  0  0  0  0  0
   39.1230   77.3660   59.1140 C   0  0  0  0  0  0  0  0  0  0  0  0
   38.2700   76.5370   58.3910 C   0  0  0  0  0  0  0  0  0  0  0  0
   38.6140   76.1780   57.1000 C   0  0  0  0  0  0  0  0  0  0  0  0
   37.9450   75.4410   56.3360 O   0  0  0  0  0  0  0  0  0  0  0  0
   39.7880   76.6520   56.5780 N   0  0  0  0  0  0  0  0  0  0  0  0
   40.6200   77.4620   57.2880 C   0  0  0  0  0  0  0  0  0  0  0  0
   41.6860   77.8960   56.8200 O   0  0  0  0  0  0  0  0  0  0  0  0
   41.1120   82.4460   62.4970 S   0  0  0  0  0  0  0  0  0  0  0  0
   40.6400   83.0020   63.8150 O   0  0  0  0  0  0  0  0  0  0  0  0
   40.4070   81.0990   62.3880 O   0  0  0  0  0  0  0  0  0  0  0  0
   39.4680   84.1670   60.8650 N   0  0  0  0  0  0  0  0  0  0  0  0
   40.5980   83.5290   61.2590 C   0  0  0  0  0  0  0  0  0  0  0  0
   41.5600   83.9390   60.3780 N   0  0  0  0  0  0  0  0  0  0  0  0
   41.0430   84.7800   59.4960 C   0  0  0  0  0  0  0  0  0  0  0  0
   41.4550   85.5160   58.4000 C   0  0  0  0  0  0  0  0  0  0  0  0
   40.6290   86.3200   57.6800 N   0  0  0  0  0  0  0  0  0  0  0  0
   39.3350   86.4370   58.0130 C   0  0  0  0  0  0  0  0  0  0  0  0
   38.8780   85.7290   59.0870 N   0  0  0  0  0  0  0  0  0  0  0  0
   39.7060   84.9360   59.7920 C   0  0  0  0  0  0  0  0  0  0  0  0
   45.1635   80.0356   61.3190 H   0  0  0  0  0  0  0  0  0  0  0  0
   46.6834   81.4392   62.6972 H   0  0  0  0  0  0  0  0  0  0  0  0
   45.6987   83.3170   64.0154 H   0  0  0  0  0  0  0  0  0  0  0  0
   43.2712   83.7417   63.9195 H   0  0  0  0  0  0  0  0  0  0  0  0
   41.2338   77.1566   60.9443 H   0  0  0  0  0  0  0  0  0  0  0  0
   41.0829   80.3336   58.0239 H   0  0  0  0  0  0  0  0  0  0  0  0
   38.8736   77.6689   60.1416 H   0  0  0  0  0  0  0  0  0  0  0  0
   37.3346   76.1721   58.8403 H   0  0  0  0  0  0  0  0  0  0  0  0
   40.0496   76.3871   55.6176 H   0  0  0  0  0  0  0  0  0  0  0  0
   38.5520   84.0738   61.3267 H   0  0  0  0  0  0  0  0  0  0  0  0
   42.5094   85.4469   58.0942 H   0  0  0  0  0  0  0  0  0  0  0  0
   38.6600   87.0862   57.4360 H   0  0  0  0  0  0  0  0  0  0  0  0
  1  6  2  0
  2  3  2  0
  2  1  1  0
  3  4  1  0
  4  5  2  0
  6  5  1  0
  7 12  2  0
  8  7  1  0
  9  8  2  0
  9 10  1  0
 10 11  2  0
 11 12  1  0
 11  2  1  0
 13 14  1  0
 13  8  1  0
 15 14  2  0
 16 15  1  0
 17 16  2  0
 18 16  1  0
 18 19  1  0
 19 13  1  0
 20 19  2  0
 21  1  1  0
 21 22  2  0
 23 21  2  0
 24 25  1  0
 25 21  1  0
 26 25  2  0
 27 32  2  0
 27 26  1  0
 28 27  1  0
 29 30  1  0
 29 28  2  0
 30 31  2  0
 31 32  1  0
 32 24  1  0
  3 33  1  0
  4 34  1  0
  5 35  1  0
  6 36  1  0
  7 37  1  0
  9 38  1  0
 14 39  1  0
 15 40  1  0
 18 41  1  0
 24 42  1  0
 28 43  1  0
 30 44  1  0
M  ISO  8  33  14  34  14  35  14  36  14  37  14  38  14  39  14  40  14
M  ISO  4  41   9  42   9  43  14  44  14
M  END
>  <minimizedAffinity>  (1) 
-7.29086351

>  <minimizedRMSD>  (1) 
2.42836213

$$$$
