
     RDKit          3D

 43 46  0  0  0  0  0  0  0  0999 V2000
   43.2790   82.4160   62.5690 C   0  0  0  0  0  0  0  0  0  0  0  0
   43.5430   81.3070   61.7780 C   0  0  0  0  0  0  0  0  0  0  0  0
   44.7820   80.6990   61.8090 C   0  0  0  0  0  0  0  0  0  0  0  0
   45.8250   81.1510   62.6230 C   0  0  0  0  0  0  0  0  0  0  0  0
   45.5850   82.2450   63.4130 C   0  0  0  0  0  0  0  0  0  0  0  0
   44.3430   82.8560   63.3810 C   0  0  0  0  0  0  0  0  0  0  0  0
   40.6680   79.3750   60.5030 C   0  0  0  0  0  0  0  0  0  0  0  0
   40.6290   79.7450   59.1740 C   0  0  0  0  0  0  0  0  0  0  0  0
   41.5980   80.6580   58.7440 C   0  0  0  0  0  0  0  0  0  0  0  0
   42.5180   81.1270   59.6390 N   0  0  0  0  0  0  0  0  0  0  0  0
   42.5230   80.7460   60.9070 C   0  0  0  0  0  0  0  0  0  0  0  0
   41.5960   79.8710   61.3290 N   0  0  0  0  0  0  0  0  0  0  0  0
   39.6500   79.2260   58.2910 N   0  0  0  0  0  0  0  0  0  0  0  0
   39.2170   80.1060   57.3920 C   0  0  0  0  0  0  0  0  0  0  0  0
   38.2510   79.7120   56.4660 C   0  0  0  0  0  0  0  0  0  0  0  0
   37.7730   78.4080   56.5140 C   0  0  0  0  0  0  0  0  0  0  0  0
   36.9060   77.9080   55.7510 O   0  0  0  0  0  0  0  0  0  0  0  0
   38.2650   77.5670   57.4630 N   0  0  0  0  0  0  0  0  0  0  0  0
   39.2090   77.9560   58.3650 C   0  0  0  0  0  0  0  0  0  0  0  0
   39.6660   77.1950   59.2370 O   0  0  0  0  0  0  0  0  0  0  0  0
   41.7420   83.2100   62.5530 S   0  0  0  0  0  0  0  0  0  0  0  0
   41.6510   84.1880   63.6960 O   0  0  0  0  0  0  0  0  0  0  0  0
   40.7000   82.1410   62.8990 O   0  0  0  0  0  0  0  0  0  0  0  0
   38.7260   83.5190   62.1060 Cl  0  0  0  0  0  0  0  0  0  0  0  0
   39.9320   84.1420   60.9680 C   0  0  0  0  0  0  0  0  0  0  0  0
   41.3220   84.0550   61.1200 C   0  0  0  0  0  0  0  0  0  0  0  0
   42.0750   84.6180   60.0950 C   0  0  0  0  0  0  0  0  0  0  0  0
   41.5070   85.2220   58.9980 C   0  0  0  0  0  0  0  0  0  0  0  0
   40.1370   85.2970   58.8650 C   0  0  0  0  0  0  0  0  0  0  0  0
   39.3470   84.7550   59.8580 C   0  0  0  0  0  0  0  0  0  0  0  0
   44.9558   79.8229   61.1669 H   0  0  0  0  0  0  0  0  0  0  0  0
   46.8027   80.6469   62.6292 H   0  0  0  0  0  0  0  0  0  0  0  0
   46.3760   82.6360   64.0698 H   0  0  0  0  0  0  0  0  0  0  0  0
   44.1780   83.7327   64.0246 H   0  0  0  0  0  0  0  0  0  0  0  0
   39.9249   78.6616   60.8888 H   0  0  0  0  0  0  0  0  0  0  0  0
   41.6191   80.9946   57.6970 H   0  0  0  0  0  0  0  0  0  0  0  0
   39.6156   81.1311   57.3791 H   0  0  0  0  0  0  0  0  0  0  0  0
   37.8749   80.4197   55.7125 H   0  0  0  0  0  0  0  0  0  0  0  0
   37.9109   76.6005   57.5011 H   0  0  0  0  0  0  0  0  0  0  0  0
   43.1721   84.5784   60.1649 H   0  0  0  0  0  0  0  0  0  0  0  0
   42.1533   85.6502   58.2176 H   0  0  0  0  0  0  0  0  0  0  0  0
   39.6833   85.7786   57.9862 H   0  0  0  0  0  0  0  0  0  0  0  0
   38.2513   84.8060   59.7749 H   0  0  0  0  0  0  0  0  0  0  0  0
  1  6  2  0
  2  3  2  0
  2  1  1  0
  3  4  1  0
  4  5  2  0
  6  5  1  0
  7 12  2  0
  8  7  1  0
  9  8  2  0
  9 10  1  0
 10 11  2  0
 11 12  1  0
 11  2  1  0
 13 19  1  0
 13  8  1  0
 14 13  1  0
 15 16  1  0
 15 14  2  0
 16 18  1  0
 17 16  2  0
 18 19  1  0
 19 20  2  0
 21  1  1  0
 21 23  2  0
 21 22  2  0
 25 26  2  0
 25 24  1  0
 26 21  1  0
 27 26  1  0
 28 27  2  0
 29 28  1  0
 29 30  2  0
 30 25  1  0
  3 31  1  0
  4 32  1  0
  5 33  1  0
  6 34  1  0
  7 35  1  0
  9 36  1  0
 14 37  1  0
 15 38  1  0
 18 39  1  0
 27 40  1  0
 28 41  1  0
 29 42  1  0
 30 43  1  0
M  ISO  8  31  14  32  14  33  14  34  14  35  14  36  14  37  14  38  14
M  ISO  5  39   9  40  14  41  14  42  14  43  14
M  END
>  <minimizedAffinity>  (1) 
-7.2644515

>  <minimizedRMSD>  (1) 
2.24203444

$$$$
