
     RDKit          3D

 42 45  0  0  0  0  0  0  0  0999 V2000
   42.6970   82.4950   62.5380 C   0  0  0  0  0  0  0  0  0  0  0  0
   43.0680   81.3180   61.9030 C   0  0  0  0  0  0  0  0  0  0  0  0
   44.3490   80.8280   62.0230 C   0  0  0  0  0  0  0  0  0  0  0  0
   45.3400   81.4560   62.7670 C   0  0  0  0  0  0  0  0  0  0  0  0
   44.9940   82.6380   63.4130 C   0  0  0  0  0  0  0  0  0  0  0  0
   43.7080   83.1270   63.2910 C   0  0  0  0  0  0  0  0  0  0  0  0
   40.5030   78.9010   60.8170 C   0  0  0  0  0  0  0  0  0  0  0  0
   40.3390   79.2180   59.4840 C   0  0  0  0  0  0  0  0  0  0  0  0
   41.1230   80.2650   58.9850 C   0  0  0  0  0  0  0  0  0  0  0  0
   41.9900   80.9060   59.8230 N   0  0  0  0  0  0  0  0  0  0  0  0
   42.1160   80.5680   61.1000 C   0  0  0  0  0  0  0  0  0  0  0  0
   41.3720   79.5720   61.5800 N   0  0  0  0  0  0  0  0  0  0  0  0
   39.4210   78.5180   58.6590 N   0  0  0  0  0  0  0  0  0  0  0  0
   39.0200   79.2260   57.5940 C   0  0  0  0  0  0  0  0  0  0  0  0
   38.1130   78.6190   56.7180 C   0  0  0  0  0  0  0  0  0  0  0  0
   37.6680   77.3340   56.9760 C   0  0  0  0  0  0  0  0  0  0  0  0
   36.8530   76.7250   56.2330 O   0  0  0  0  0  0  0  0  0  0  0  0
   38.1280   76.6900   58.0790 N   0  0  0  0  0  0  0  0  0  0  0  0
   39.0070   77.2670   58.9340 C   0  0  0  0  0  0  0  0  0  0  0  0
   39.4340   76.6830   59.9500 O   0  0  0  0  0  0  0  0  0  0  0  0
   41.1010   83.1380   62.4240 S   0  0  0  0  0  0  0  0  0  0  0  0
   40.8130   84.0370   63.6000 O   0  0  0  0  0  0  0  0  0  0  0  0
   40.1370   81.9600   62.6190 O   0  0  0  0  0  0  0  0  0  0  0  0
   40.6860   83.9720   60.9790 C   0  0  0  0  0  0  0  0  0  0  0  0
   39.4480   84.2890   60.4020 C   0  0  0  0  0  0  0  0  0  0  0  0
   39.3510   85.0130   59.2550 C   0  0  0  0  0  0  0  0  0  0  0  0
   40.4630   85.4800   58.5890 C   0  0  0  0  0  0  0  0  0  0  0  0
   41.6690   85.1550   59.1760 C   0  0  0  0  0  0  0  0  0  0  0  0
   41.7950   84.4300   60.3260 N   0  0  0  0  0  0  0  0  0  0  0  0
   44.6006   79.8917   61.5034 H   0  0  0  0  0  0  0  0  0  0  0  0
   46.3542   81.0366   62.8419 H   0  0  0  0  0  0  0  0  0  0  0  0
   45.7382   83.1789   64.0160 H   0  0  0  0  0  0  0  0  0  0  0  0
   43.4581   84.0634   63.8112 H   0  0  0  0  0  0  0  0  0  0  0  0
   39.9109   78.0854   61.2577 H   0  0  0  0  0  0  0  0  0  0  0  0
   41.0416   80.5677   57.9306 H   0  0  0  0  0  0  0  0  0  0  0  0
   39.3901   80.2463   57.4151 H   0  0  0  0  0  0  0  0  0  0  0  0
   37.7557   79.1601   55.8294 H   0  0  0  0  0  0  0  0  0  0  0  0
   37.7988   75.7333   58.2720 H   0  0  0  0  0  0  0  0  0  0  0  0
   38.5268   83.9413   60.8923 H   0  0  0  0  0  0  0  0  0  0  0  0
   38.3537   85.2326   58.8462 H   0  0  0  0  0  0  0  0  0  0  0  0
   40.3948   86.0666   57.6610 H   0  0  0  0  0  0  0  0  0  0  0  0
   42.5896   85.5031   58.6848 H   0  0  0  0  0  0  0  0  0  0  0  0
  1  6  2  0
  2  3  2  0
  2  1  1  0
  3  4  1  0
  4  5  2  0
  6  5  1  0
  7 12  2  0
  8  7  1  0
  9  8  2  0
  9 10  1  0
 10 11  2  0
 11 12  1  0
 11  2  1  0
 13 19  1  0
 13  8  1  0
 14 13  1  0
 15 16  1  0
 15 14  2  0
 16 18  1  0
 17 16  2  0
 18 19  1  0
 19 20  2  0
 21  1  1  0
 21 23  2  0
 21 22  2  0
 24 21  1  0
 25 24  2  0
 26 25  1  0
 27 28  1  0
 27 26  2  0
 28 29  2  0
 29 24  1  0
  3 30  1  0
  4 31  1  0
  5 32  1  0
  6 33  1  0
  7 34  1  0
  9 35  1  0
 14 36  1  0
 15 37  1  0
 18 38  1  0
 25 39  1  0
 26 40  1  0
 27 41  1  0
 28 42  1  0
M  ISO  8  30  14  31  14  32  14  33  14  34  14  35  14  36  14  37  14
M  ISO  5  38   9  39  14  40  14  41  14  42  14
M  END
>  <minimizedAffinity>  (1) 
-7.16125393

>  <minimizedRMSD>  (1) 
2.52204442

$$$$
