
     RDKit          3D

 46 49  0  0  1  0  0  0  0  0999 V2000
   42.5510   81.7100   62.1950 C   0  0  0  0  0  0  0  0  0  0  0  0
   43.1470   80.6240   61.5820 C   0  0  0  0  0  0  0  0  0  0  0  0
   44.4880   80.3680   61.7560 C   0  0  0  0  0  0  0  0  0  0  0  0
   45.3180   81.1620   62.5420 C   0  0  0  0  0  0  0  0  0  0  0  0
   44.7480   82.2460   63.1610 C   0  0  0  0  0  0  0  0  0  0  0  0
   43.4040   82.5050   62.9880 C   0  0  0  0  0  0  0  0  0  0  0  0
   41.2210   77.7010   60.3940 C   0  0  0  0  0  0  0  0  0  0  0  0
   40.9160   78.0690   59.0860 C   0  0  0  0  0  0  0  0  0  0  0  0
   41.3890   79.3230   58.6440 C   0  0  0  0  0  0  0  0  0  0  0  0
   42.0980   80.0540   59.5320 N   0  0  0  0  0  0  0  0  0  0  0  0
   42.3780   79.6960   60.7630 C   0  0  0  0  0  0  0  0  0  0  0  0
   41.9310   78.5140   61.1810 N   0  0  0  0  0  0  0  0  0  0  0  0
   40.1590   77.2130   58.2430 N   0  0  0  0  0  0  0  0  0  0  0  0
   38.8400   77.3690   58.3640 C   0  0  0  0  0  0  0  0  0  0  0  0
   38.0050   76.5730   57.5760 C   0  0  0  0  0  0  0  0  0  0  0  0
   38.5770   75.6550   56.7030 C   0  0  0  0  0  0  0  0  0  0  0  0
   37.9200   74.8880   55.9480 O   0  0  0  0  0  0  0  0  0  0  0  0
   39.9370   75.5530   56.6360 N   0  0  0  0  0  0  0  0  0  0  0  0
   40.7460   76.3300   57.4030 C   0  0  0  0  0  0  0  0  0  0  0  0
   41.9860   76.2520   57.3560 O   0  0  0  0  0  0  0  0  0  0  0  0
   40.8860   82.0820   61.9910 S   0  0  0  0  0  0  0  0  0  0  0  0
   40.4060   82.9180   63.1710 O   0  0  0  0  0  0  0  0  0  0  0  0
   40.1040   80.7930   62.2390 O   0  0  0  0  0  0  0  0  0  0  0  0
   39.7700   84.3260   60.9730 C   0  0  1  0  0  0  0  0  0  0  0  0
   40.3640   82.9440   60.5950 C   0  0  1  0  0  0  0  0  0  0  0  0
   41.4770   83.4910   59.8780 O   0  0  0  0  0  0  0  0  0  0  0  0
   40.7390   84.0830   58.8260 C   0  0  0  0  0  0  0  0  0  0  0  0
   39.7990   84.9970   59.6180 C   0  0  1  0  0  0  0  0  0  0  0  0
   38.5260   84.2200   61.5330 O   0  0  0  0  0  0  0  0  0  0  0  0
   38.5350   85.0540   59.0660 O   0  0  0  0  0  0  0  0  0  0  0  0
   44.9246   79.4944   61.2498 H   0  0  0  0  0  0  0  0  0  0  0  0
   46.3866   80.9302   62.6620 H   0  0  0  0  0  0  0  0  0  0  0  0
   45.3605   82.9060   63.7928 H   0  0  0  0  0  0  0  0  0  0  0  0
   42.9739   83.3802   63.4969 H   0  0  0  0  0  0  0  0  0  0  0  0
   40.8741   76.7321   60.7826 H   0  0  0  0  0  0  0  0  0  0  0  0
   41.1900   79.6878   57.6255 H   0  0  0  0  0  0  0  0  0  0  0  0
   38.4206   78.1050   59.0657 H   0  0  0  0  0  0  0  0  0  0  0  0
   36.9116   76.6712   57.6454 H   0  0  0  0  0  0  0  0  0  0  0  0
   40.3593   74.8716   55.9893 H   0  0  0  0  0  0  0  0  0  0  0  0
   40.3101   84.8851   61.7512 H   0  0  0  0  0  0  0  0  0  0  0  0
   39.7134   82.2233   60.0780 H   0  0  0  0  0  0  0  0  0  0  0  0
   40.1816   83.3308   58.2486 H   0  0  0  0  0  0  0  0  0  0  0  0
   41.3518   84.6004   58.0731 H   0  0  0  0  0  0  0  0  0  0  0  0
   40.1355   86.0440   59.6400 H   0  0  0  0  0  0  0  0  0  0  0  0
   38.6066   84.2269   62.5197 H   0  0  0  0  0  0  0  0  0  0  0  0
   37.8600   85.0844   59.7896 H   0  0  0  0  0  0  0  0  0  0  0  0
  1  6  2  0
  2  3  2  0
  2  1  1  0
  3  4  1  0
  4  5  2  0
  6  5  1  0
  7 12  2  0
  8  7  1  0
  9  8  2  0
  9 10  1  0
 10 11  2  0
 11 12  1  0
 11  2  1  0
 13 14  1  0
 13  8  1  0
 15 14  2  0
 16 15  1  0
 17 16  2  0
 18 16  1  0
 18 19  1  0
 19 13  1  0
 20 19  2  0
 21  1  1  0
 21 23  2  0
 21 22  2  0
 24 29  1  0
 25 24  1  0
 25 21  1  0
 26 25  1  0
 27 28  1  0
 27 26  1  0
 28 30  1  0
 28 24  1  0
  3 31  1  0
  4 32  1  0
  5 33  1  0
  6 34  1  0
  7 35  1  0
  9 36  1  0
 14 37  1  0
 15 38  1  0
 18 39  1  0
 24 40  1  1
 25 41  1  6
 27 42  1  0
 27 43  1  0
 28 44  1  1
 29 45  1  0
 30 46  1  0
M  ISO  8  31  14  32  14  33  14  34  14  35  14  36  14  37  14  38  14
M  ISO  8  39   9  40  13  41  13  42  13  43  13  44  13  45   3  46   3
M  END
>  <minimizedAffinity>  (1) 
-7.0498991

>  <minimizedRMSD>  (1) 
2.83618808

$$$$
