
     RDKit          3D

 47 51  0  0  0  0  0  0  0  0999 V2000
   42.9590   82.0590   62.6030 C   0  0  0  0  0  0  0  0  0  0  0  0
   43.5740   80.9940   61.9580 C   0  0  0  0  0  0  0  0  0  0  0  0
   44.9340   80.7890   62.0640 C   0  0  0  0  0  0  0  0  0  0  0  0
   45.7720   81.6190   62.8120 C   0  0  0  0  0  0  0  0  0  0  0  0
   45.1920   82.6820   63.4630 C   0  0  0  0  0  0  0  0  0  0  0  0
   43.8210   82.8870   63.3540 C   0  0  0  0  0  0  0  0  0  0  0  0
   41.7000   78.0080   60.8600 C   0  0  0  0  0  0  0  0  0  0  0  0
   41.3190   78.3480   59.5780 C   0  0  0  0  0  0  0  0  0  0  0  0
   41.7210   79.6050   59.1200 C   0  0  0  0  0  0  0  0  0  0  0  0
   42.4530   80.4190   59.9410 N   0  0  0  0  0  0  0  0  0  0  0  0
   42.7960   80.0510   61.1650 C   0  0  0  0  0  0  0  0  0  0  0  0
   42.4170   78.8460   61.6160 N   0  0  0  0  0  0  0  0  0  0  0  0
   40.5590   77.4680   58.7710 N   0  0  0  0  0  0  0  0  0  0  0  0
   39.2500   77.5190   59.0070 C   0  0  0  0  0  0  0  0  0  0  0  0
   38.4060   76.6890   58.2690 C   0  0  0  0  0  0  0  0  0  0  0  0
   38.9680   75.8330   57.3070 C   0  0  0  0  0  0  0  0  0  0  0  0
   38.3160   75.0420   56.5830 O   0  0  0  0  0  0  0  0  0  0  0  0
   40.3200   75.8430   57.1270 N   0  0  0  0  0  0  0  0  0  0  0  0
   41.1270   76.6590   57.8550 C   0  0  0  0  0  0  0  0  0  0  0  0
   42.3630   76.6720   57.6950 O   0  0  0  0  0  0  0  0  0  0  0  0
   41.2630   82.3510   62.4860 S   0  0  0  0  0  0  0  0  0  0  0  0
   40.7500   82.9340   63.7830 O   0  0  0  0  0  0  0  0  0  0  0  0
   40.5880   80.9750   62.4250 O   0  0  0  0  0  0  0  0  0  0  0  0
   39.4510   83.7880   60.7470 C   0  0  0  0  0  0  0  0  0  0  0  0
   40.6990   83.3840   61.2360 C   0  0  0  0  0  0  0  0  0  0  0  0
   41.7870   83.9380   60.5640 C   0  0  0  0  0  0  0  0  0  0  0  0
   41.6570   84.8270   59.4880 C   0  0  0  0  0  0  0  0  0  0  0  0
   42.4630   85.5110   58.6590 N   0  0  0  0  0  0  0  0  0  0  0  0
   41.7550   86.2370   57.7790 C   0  0  0  0  0  0  0  0  0  0  0  0
   40.4060   86.0520   58.0030 C   0  0  0  0  0  0  0  0  0  0  0  0
   40.3850   85.1740   59.0660 C   0  0  0  0  0  0  0  0  0  0  0  0
   39.2800   84.6510   59.7020 C   0  0  0  0  0  0  0  0  0  0  0  0
   45.3787   79.9329   61.5354 H   0  0  0  0  0  0  0  0  0  0  0  0
   46.8536   81.4296   62.8777 H   0  0  0  0  0  0  0  0  0  0  0  0
   45.8081   83.3654   64.0658 H   0  0  0  0  0  0  0  0  0  0  0  0
   43.3823   83.7451   63.8843 H   0  0  0  0  0  0  0  0  0  0  0  0
   41.4083   77.0289   61.2678 H   0  0  0  0  0  0  0  0  0  0  0  0
   41.4511   79.9380   58.1069 H   0  0  0  0  0  0  0  0  0  0  0  0
   38.8425   78.2011   59.7677 H   0  0  0  0  0  0  0  0  0  0  0  0
   37.3191   76.7044   58.4373 H   0  0  0  0  0  0  0  0  0  0  0  0
   40.7388   75.2180   56.4235 H   0  0  0  0  0  0  0  0  0  0  0  0
   38.5513   83.3851   61.2351 H   0  0  0  0  0  0  0  0  0  0  0  0
   42.7995   83.6636   60.8949 H   0  0  0  0  0  0  0  0  0  0  0  0
   43.4920   85.4822   58.6940 H   0  0  0  0  0  0  0  0  0  0  0  0
   42.1850   86.8814   56.9981 H   0  0  0  0  0  0  0  0  0  0  0  0
   39.5555   86.4963   57.4651 H   0  0  0  0  0  0  0  0  0  0  0  0
   38.2679   84.9264   59.3707 H   0  0  0  0  0  0  0  0  0  0  0  0
  1  6  2  0
  2  3  2  0
  2  1  1  0
  3  4  1  0
  4  5  2  0
  6  5  1  0
  7 12  2  0
  8  7  1  0
  9  8  2  0
  9 10  1  0
 10 11  2  0
 11 12  1  0
 11  2  1  0
 13 14  1  0
 13  8  1  0
 15 14  2  0
 16 15  1  0
 17 16  2  0
 18 16  1  0
 18 19  1  0
 19 13  1  0
 20 19  2  0
 21  1  1  0
 21 22  2  0
 23 21  2  0
 24 25  2  0
 25 21  1  0
 26 25  1  0
 27 26  2  0
 28 27  1  0
 29 30  2  0
 29 28  1  0
 30 31  1  0
 31 27  1  0
 31 32  2  0
 32 24  1  0
  3 33  1  0
  4 34  1  0
  5 35  1  0
  6 36  1  0
  7 37  1  0
  9 38  1  0
 14 39  1  0
 15 40  1  0
 18 41  1  0
 24 42  1  0
 26 43  1  0
 28 44  1  0
 29 45  1  0
 30 46  1  0
 32 47  1  0
M  ISO  8  33  14  34  14  35  14  36  14  37  14  38  14  39  14  40  14
M  ISO  7  41   9  42  14  43  14  44   9  45  14  46  14  47  14
M  END
>  <minimizedAffinity>  (1) 
-6.98982763

>  <minimizedRMSD>  (1) 
2.82395172

$$$$
