
     RDKit          3D

 43 46  0  0  0  0  0  0  0  0999 V2000
   42.8470   82.5690   62.5800 C   0  0  0  0  0  0  0  0  0  0  0  0
   43.1920   81.4460   61.8450 C   0  0  0  0  0  0  0  0  0  0  0  0
   44.4690   80.9200   61.9010 C   0  0  0  0  0  0  0  0  0  0  0  0
   45.4750   81.4780   62.6910 C   0  0  0  0  0  0  0  0  0  0  0  0
   45.1610   82.5890   63.4300 C   0  0  0  0  0  0  0  0  0  0  0  0
   43.8800   83.1140   63.3700 C   0  0  0  0  0  0  0  0  0  0  0  0
   40.4560   79.2670   60.6510 C   0  0  0  0  0  0  0  0  0  0  0  0
   40.4140   79.5610   59.3010 C   0  0  0  0  0  0  0  0  0  0  0  0
   41.3330   80.5050   58.8330 C   0  0  0  0  0  0  0  0  0  0  0  0
   42.2040   81.0750   59.7150 N   0  0  0  0  0  0  0  0  0  0  0  0
   42.2150   80.7680   61.0000 C   0  0  0  0  0  0  0  0  0  0  0  0
   41.3390   79.8640   61.4610 N   0  0  0  0  0  0  0  0  0  0  0  0
   39.4820   78.9340   58.4330 N   0  0  0  0  0  0  0  0  0  0  0  0
   39.0140   79.7550   57.4770 C   0  0  0  0  0  0  0  0  0  0  0  0
   38.0850   79.2460   56.5660 C   0  0  0  0  0  0  0  0  0  0  0  0
   37.6830   77.9270   56.6810 C   0  0  0  0  0  0  0  0  0  0  0  0
   36.8580   77.3400   55.9390 O   0  0  0  0  0  0  0  0  0  0  0  0
   38.2080   77.1510   57.6860 N   0  0  0  0  0  0  0  0  0  0  0  0
   39.1140   77.6530   58.5710 C   0  0  0  0  0  0  0  0  0  0  0  0
   39.6000   76.9650   59.4870 O   0  0  0  0  0  0  0  0  0  0  0  0
   41.2630   83.2530   62.5200 S   0  0  0  0  0  0  0  0  0  0  0  0
   41.1200   84.3150   63.5850 O   0  0  0  0  0  0  0  0  0  0  0  0
   40.2970   82.1560   62.9820 O   0  0  0  0  0  0  0  0  0  0  0  0
   40.7510   83.9630   61.0430 C   0  0  0  0  0  0  0  0  0  0  0  0
   41.8550   84.5840   60.4270 C   0  0  0  0  0  0  0  0  0  0  0  0
   41.7470   85.2960   59.2330 C   0  0  0  0  0  0  0  0  0  0  0  0
   40.5340   85.4160   58.6060 C   0  0  0  0  0  0  0  0  0  0  0  0
   39.4310   84.8260   59.1690 C   0  0  0  0  0  0  0  0  0  0  0  0
   39.5490   84.1280   60.3440 C   0  0  0  0  0  0  0  0  0  0  0  0
   44.7010   80.0281   61.3004 H   0  0  0  0  0  0  0  0  0  0  0  0
   46.4844   81.0417   62.7197 H   0  0  0  0  0  0  0  0  0  0  0  0
   45.9225   83.0617   64.0678 H   0  0  0  0  0  0  0  0  0  0  0  0
   43.6563   84.0065   63.9728 H   0  0  0  0  0  0  0  0  0  0  0  0
   39.7525   78.5305   61.0665 H   0  0  0  0  0  0  0  0  0  0  0  0
   41.3535   80.7841   57.7692 H   0  0  0  0  0  0  0  0  0  0  0  0
   39.3533   80.7994   57.4137 H   0  0  0  0  0  0  0  0  0  0  0  0
   37.6787   79.8851   55.7682 H   0  0  0  0  0  0  0  0  0  0  0  0
   37.9102   76.1688   57.7721 H   0  0  0  0  0  0  0  0  0  0  0  0
   42.8416   84.5041   60.9069 H   0  0  0  0  0  0  0  0  0  0  0  0
   42.6396   85.7637   58.7920 H   0  0  0  0  0  0  0  0  0  0  0  0
   40.4463   85.9777   57.6643 H   0  0  0  0  0  0  0  0  0  0  0  0
   38.4507   84.9127   58.6776 H   0  0  0  0  0  0  0  0  0  0  0  0
   38.6418   83.6688   60.7637 H   0  0  0  0  0  0  0  0  0  0  0  0
  1  6  2  0
  2  3  2  0
  2  1  1  0
  3  4  1  0
  4  5  2  0
  6  5  1  0
  7 12  2  0
  8  7  1  0
  9  8  2  0
  9 10  1  0
 10 11  2  0
 11 12  1  0
 11  2  1  0
 13 19  1  0
 13  8  1  0
 14 13  1  0
 15 16  1  0
 15 14  2  0
 16 18  1  0
 17 16  2  0
 18 19  1  0
 19 20  2  0
 21  1  1  0
 21 23  2  0
 21 22  2  0
 24 21  1  0
 25 24  2  0
 26 25  1  0
 27 28  1  0
 27 26  2  0
 28 29  2  0
 29 24  1  0
  3 30  1  0
  4 31  1  0
  5 32  1  0
  6 33  1  0
  7 34  1  0
  9 35  1  0
 14 36  1  0
 15 37  1  0
 18 38  1  0
 25 39  1  0
 26 40  1  0
 27 41  1  0
 28 42  1  0
 29 43  1  0
M  ISO  8  30  14  31  14  32  14  33  14  34  14  35  14  36  14  37  14
M  ISO  6  38   9  39  14  40  14  41  14  42  14  43  14
M  END
>  <minimizedAffinity>  (1) 
-6.94628525

>  <minimizedRMSD>  (1) 
2.34644699

$$$$
