
     RDKit          3D

 40 43  0  0  0  0  0  0  0  0999 V2000
   42.6030   82.6830   62.3710 C   0  0  0  0  0  0  0  0  0  0  0  0
   42.9480   81.5110   61.7130 C   0  0  0  0  0  0  0  0  0  0  0  0
   44.1820   80.9320   61.8980 C   0  0  0  0  0  0  0  0  0  0  0  0
   45.1540   81.4740   62.7440 C   0  0  0  0  0  0  0  0  0  0  0  0
   44.8360   82.6370   63.4090 C   0  0  0  0  0  0  0  0  0  0  0  0
   43.5930   83.2180   63.2210 C   0  0  0  0  0  0  0  0  0  0  0  0
   40.2340   79.3780   60.3990 C   0  0  0  0  0  0  0  0  0  0  0  0
   40.2620   79.6590   59.0480 C   0  0  0  0  0  0  0  0  0  0  0  0
   41.2200   80.5810   58.6150 C   0  0  0  0  0  0  0  0  0  0  0  0
   42.0640   81.1480   59.5310 N   0  0  0  0  0  0  0  0  0  0  0  0
   42.0040   80.8510   60.8190 C   0  0  0  0  0  0  0  0  0  0  0  0
   41.0870   79.9670   61.2420 N   0  0  0  0  0  0  0  0  0  0  0  0
   39.3620   79.0410   58.1430 N   0  0  0  0  0  0  0  0  0  0  0  0
   38.8920   79.8660   57.2090 C   0  0  0  0  0  0  0  0  0  0  0  0
   37.9950   79.3550   56.2660 C   0  0  0  0  0  0  0  0  0  0  0  0
   37.6270   78.0240   56.3330 C   0  0  0  0  0  0  0  0  0  0  0  0
   36.8290   77.4880   55.5260 O   0  0  0  0  0  0  0  0  0  0  0  0
   38.1520   77.2380   57.3210 N   0  0  0  0  0  0  0  0  0  0  0  0
   39.0240   77.7340   58.2380 C   0  0  0  0  0  0  0  0  0  0  0  0
   39.5100   77.0360   59.1400 O   0  0  0  0  0  0  0  0  0  0  0  0
   41.0640   83.4410   62.1560 S   0  0  0  0  0  0  0  0  0  0  0  0
   40.8360   84.4690   63.2350 O   0  0  0  0  0  0  0  0  0  0  0  0
   40.0090   82.3740   62.4210 O   0  0  0  0  0  0  0  0  0  0  0  0
   40.8000   84.2210   60.6430 C   0  0  0  0  0  0  0  0  0  0  0  0
   41.4460   84.6760   59.4900 C   0  0  0  0  0  0  0  0  0  0  0  0
   40.5270   85.2390   58.6310 C   0  0  0  0  0  0  0  0  0  0  0  0
   39.3380   85.1040   59.3010 C   0  0  0  0  0  0  0  0  0  0  0  0
   39.5120   84.5170   60.4580 O   0  0  0  0  0  0  0  0  0  0  0  0
   44.4139   80.0027   61.3571 H   0  0  0  0  0  0  0  0  0  0  0  0
   46.1337   80.9907   62.8733 H   0  0  0  0  0  0  0  0  0  0  0  0
   45.5664   83.1028   64.0869 H   0  0  0  0  0  0  0  0  0  0  0  0
   43.3656   84.1471   63.7641 H   0  0  0  0  0  0  0  0  0  0  0  0
   39.4984   78.6583   60.7875 H   0  0  0  0  0  0  0  0  0  0  0  0
   41.2944   80.8475   57.5504 H   0  0  0  0  0  0  0  0  0  0  0  0
   39.2013   80.9212   57.1803 H   0  0  0  0  0  0  0  0  0  0  0  0
   37.5862   80.0054   55.4787 H   0  0  0  0  0  0  0  0  0  0  0  0
   37.8800   76.2458   57.3716 H   0  0  0  0  0  0  0  0  0  0  0  0
   42.5260   84.5966   59.2971 H   0  0  0  0  0  0  0  0  0  0  0  0
   40.7048   85.6894   57.6433 H   0  0  0  0  0  0  0  0  0  0  0  0
   38.3653   85.4445   58.9164 H   0  0  0  0  0  0  0  0  0  0  0  0
  1  6  2  0
  2  3  2  0
  2  1  1  0
  3  4  1  0
  4  5  2  0
  6  5  1  0
  7 12  2  0
  8  7  1  0
  9  8  2  0
  9 10  1  0
 10 11  2  0
 11 12  1  0
 11  2  1  0
 13 19  1  0
 13  8  1  0
 14 13  1  0
 15 16  1  0
 15 14  2  0
 16 18  1  0
 17 16  2  0
 18 19  1  0
 19 20  2  0
 21  1  1  0
 21 23  2  0
 21 22  2  0
 24 21  1  0
 25 24  2  0
 26 27  2  0
 26 25  1  0
 27 28  1  0
 28 24  1  0
  3 29  1  0
  4 30  1  0
  5 31  1  0
  6 32  1  0
  7 33  1  0
  9 34  1  0
 14 35  1  0
 15 36  1  0
 18 37  1  0
 25 38  1  0
 26 39  1  0
 27 40  1  0
M  ISO  8  29  14  30  14  31  14  32  14  33  14  34  14  35  14  36  14
M  ISO  4  37   9  38  14  39  14  40  14
M  END
>  <minimizedAffinity>  (1) 
-6.63501215

>  <minimizedRMSD>  (1) 
2.10582161

$$$$
