
     RDKit          3D

 34 36  0  0  0  0  0  0  0  0999 V2000
   40.7320   81.5690   61.3610 C   0  0  0  0  0  0  0  0  0  0  0  0
   39.6730   82.4400   61.6170 C   0  0  0  0  0  0  0  0  0  0  0  0
   39.7870   83.5700   62.4000 C   0  0  0  0  0  0  0  0  0  0  0  0
   41.0100   83.8730   62.9720 C   0  0  0  0  0  0  0  0  0  0  0  0
   42.0640   83.0200   62.7260 C   0  0  0  0  0  0  0  0  0  0  0  0
   43.3260   83.2230   63.2480 C   0  0  0  0  0  0  0  0  0  0  0  0
   44.3810   82.3580   63.0020 C   0  0  0  0  0  0  0  0  0  0  0  0
   44.2060   81.2390   62.2090 C   0  0  0  0  0  0  0  0  0  0  0  0
   42.9510   81.0160   61.6740 C   0  0  0  0  0  0  0  0  0  0  0  0
   41.9310   81.9030   61.9460 C   0  0  0  0  0  0  0  0  0  0  0  0
   40.2070   79.0940   60.7900 C   0  0  0  0  0  0  0  0  0  0  0  0
   40.4040   80.4420   60.5060 C   0  0  0  0  0  0  0  0  0  0  0  0
   40.2790   80.8280   59.1440 C   0  0  0  0  0  0  0  0  0  0  0  0
   39.9800   79.8900   58.2110 N   0  0  0  0  0  0  0  0  0  0  0  0
   39.7970   78.5850   58.5440 C   0  0  0  0  0  0  0  0  0  0  0  0
   39.9180   78.2260   59.8370 N   0  0  0  0  0  0  0  0  0  0  0  0
   39.4870   77.6430   57.5290 N   0  0  0  0  0  0  0  0  0  0  0  0
   38.0080   76.7600   57.6210 S   0  0  0  0  0  0  0  0  0  0  0  0
   38.0160   75.6280   56.6080 O   0  0  0  0  0  0  0  0  0  0  0  0
   36.8500   77.6570   57.3210 O   0  0  0  0  0  0  0  0  0  0  0  0
   37.8700   76.0780   59.1620 O   0  0  0  0  0  0  0  0  0  0  0  0
   38.6937   82.2135   61.1702 H   0  0  0  0  0  0  0  0  0  0  0  0
   38.9169   84.2218   62.5675 H   0  0  0  0  0  0  0  0  0  0  0  0
   41.1367   84.7655   63.6024 H   0  0  0  0  0  0  0  0  0  0  0  0
   43.5008   84.1041   63.8829 H   0  0  0  0  0  0  0  0  0  0  0  0
   45.3677   82.5641   63.4423 H   0  0  0  0  0  0  0  0  0  0  0  0
   45.0387   80.5483   62.0102 H   0  0  0  0  0  0  0  0  0  0  0  0
   42.7677   80.1384   61.0367 H   0  0  0  0  0  0  0  0  0  0  0  0
   40.2937   78.7441   61.8293 H   0  0  0  0  0  0  0  0  0  0  0  0
   40.4234   81.8779   58.8491 H   0  0  0  0  0  0  0  0  0  0  0  0
   40.1380   77.4882   56.7459 H   0  0  0  0  0  0  0  0  0  0  0  0
   38.0221   74.7597   57.0835 H   0  0  0  0  0  0  0  0  0  0  0  0
   36.4464   77.9697   58.1692 H   0  0  0  0  0  0  0  0  0  0  0  0
   38.0118   76.7787   59.8469 H   0  0  0  0  0  0  0  0  0  0  0  0
  1  2  2  0
  1 10  1  0
  2  3  1  0
  3  4  2  0
  5  4  1  0
  5  6  2  0
  7  6  1  0
  8  7  2  0
  9 10  2  0
  9  8  1  0
 10  5  1  0
 12 11  2  0
 12  1  1  0
 13 12  1  0
 14 15  1  0
 14 13  2  0
 15 16  2  0
 16 11  1  0
 17 18  1  0
 17 15  1  0
 18 21  1  0
 19 18  1  0
 20 18  1  0
  2 22  1  0
  3 23  1  0
  4 24  1  0
  6 25  1  0
  7 26  1  0
  8 27  1  0
  9 28  1  0
 11 29  1  0
 13 30  1  0
 17 31  1  0
 19 32  1  0
 20 33  1  0
 21 34  1  0
M  ISO  8  22  14  23  14  24  14  25  14  26  14  27  14  28  14  29  14
M  ISO  4  30  14  32   3  33   3  34   3
M  END
>  <minimizedAffinity>  (1) 
-6.1972847

>  <minimizedRMSD>  (1) 
7.14862537

$$$$
