
     RDKit          3D

 38 41  0  0  0  0  0  0  0  0999 V2000
   40.6610   80.9480   56.6700 C   0  0  0  0  0  0  0  0  0  0  0  0
   41.6890   81.3240   55.8040 C   0  0  0  0  0  0  0  0  0  0  0  0
   41.6790   81.0760   54.4470 C   0  0  0  0  0  0  0  0  0  0  0  0
   40.5900   80.4150   53.8960 C   0  0  0  0  0  0  0  0  0  0  0  0
   39.5600   80.0340   54.7400 C   0  0  0  0  0  0  0  0  0  0  0  0
   38.4340   79.3700   54.2800 C   0  0  0  0  0  0  0  0  0  0  0  0
   37.4170   78.9990   55.1420 C   0  0  0  0  0  0  0  0  0  0  0  0
   37.4830   79.2760   56.4920 C   0  0  0  0  0  0  0  0  0  0  0  0
   38.5910   79.9350   56.9750 C   0  0  0  0  0  0  0  0  0  0  0  0
   39.5870   80.2890   56.0890 C   0  0  0  0  0  0  0  0  0  0  0  0
   41.4400   80.5900   59.1100 C   0  0  0  0  0  0  0  0  0  0  0  0
   40.8670   81.3020   58.0600 C   0  0  0  0  0  0  0  0  0  0  0  0
   40.3820   82.6010   58.3630 C   0  0  0  0  0  0  0  0  0  0  0  0
   40.4910   83.0790   59.6270 N   0  0  0  0  0  0  0  0  0  0  0  0
   41.0620   82.3280   60.6100 C   0  0  0  0  0  0  0  0  0  0  0  0
   41.5200   81.1110   60.3350 N   0  0  0  0  0  0  0  0  0  0  0  0
   41.1350   82.9050   61.9090 N   0  0  0  0  0  0  0  0  0  0  0  0
   40.0340   83.6120   62.5480 C   0  0  0  0  0  0  0  0  0  0  0  0
   40.4510   83.7820   63.9880 C   0  0  0  0  0  0  0  0  0  0  0  0
   41.9610   83.9520   63.8200 C   0  0  0  0  0  0  0  0  0  0  0  0
   42.2760   82.9020   62.8060 C   0  0  0  0  0  0  0  0  0  0  0  0
   42.5578   81.8486   56.2283 H   0  0  0  0  0  0  0  0  0  0  0  0
   42.5189   81.3963   53.8131 H   0  0  0  0  0  0  0  0  0  0  0  0
   40.5461   80.1996   52.8182 H   0  0  0  0  0  0  0  0  0  0  0  0
   38.3470   79.1333   53.2093 H   0  0  0  0  0  0  0  0  0  0  0  0
   36.5377   78.4723   54.7426 H   0  0  0  0  0  0  0  0  0  0  0  0
   36.6681   78.9768   57.1676 H   0  0  0  0  0  0  0  0  0  0  0  0
   38.6801   80.1742   58.0450 H   0  0  0  0  0  0  0  0  0  0  0  0
   41.8339   79.5795   58.9260 H   0  0  0  0  0  0  0  0  0  0  0  0
   39.9203   83.2164   57.5768 H   0  0  0  0  0  0  0  0  0  0  0  0
   39.8789   84.5923   62.0737 H   0  0  0  0  0  0  0  0  0  0  0  0
   39.0862   83.0609   62.4583 H   0  0  0  0  0  0  0  0  0  0  0  0
   39.9899   84.6713   64.4425 H   0  0  0  0  0  0  0  0  0  0  0  0
   40.1527   82.9580   64.6529 H   0  0  0  0  0  0  0  0  0  0  0  0
   42.2120   84.9562   63.4478 H   0  0  0  0  0  0  0  0  0  0  0  0
   42.5276   83.8502   64.7573 H   0  0  0  0  0  0  0  0  0  0  0  0
   42.3892   81.9192   63.2870 H   0  0  0  0  0  0  0  0  0  0  0  0
   43.2210   83.1009   62.2794 H   0  0  0  0  0  0  0  0  0  0  0  0
  1 12  1  0
  2  1  2  0
  3  2  1  0
  4  3  2  0
  4  5  1  0
  5 10  2  0
  6  5  1  0
  6  7  2  0
  7  8  1  0
  8  9  2  0
 10  1  1  0
 10  9  1  0
 11 16  2  0
 12 13  2  0
 12 11  1  0
 13 14  1  0
 14 15  2  0
 15 17  1  0
 16 15  1  0
 17 18  1  0
 17 21  1  0
 18 19  1  0
 20 19  1  0
 21 20  1  0
  2 22  1  0
  3 23  1  0
  4 24  1  0
  6 25  1  0
  7 26  1  0
  8 27  1  0
  9 28  1  0
 11 29  1  0
 13 30  1  0
 18 31  1  0
 18 32  1  0
 19 33  1  0
 19 34  1  0
 20 35  1  0
 20 36  1  0
 21 37  1  0
 21 38  1  0
M  ISO  8  22  14  23  14  24  14  25  14  26  14  27  14  28  14  29  14
M  ISO  8  30  14  31  13  32  13  33  13  34  13  35  13  36  13  37  13
M  ISO  1  38  13
M  END
>  <minimizedAffinity>  (1) 
-5.55036783

>  <minimizedRMSD>  (1) 
3.00431275

$$$$
