
     RDKit          3D

 39 42  0  0  0  0  0  0  0  0999 V2000
   40.5860   80.8820   56.8620 C   0  0  0  0  0  0  0  0  0  0  0  0
   41.6570   81.2860   56.0630 C   0  0  0  0  0  0  0  0  0  0  0  0
   41.7000   81.1010   54.6930 C   0  0  0  0  0  0  0  0  0  0  0  0
   40.6300   80.4820   54.0610 C   0  0  0  0  0  0  0  0  0  0  0  0
   39.5700   80.0800   54.8370 C   0  0  0  0  0  0  0  0  0  0  0  0
   38.4500   79.4530   54.3100 C   0  0  0  0  0  0  0  0  0  0  0  0
   37.3890   79.0540   55.1060 C   0  0  0  0  0  0  0  0  0  0  0  0
   37.4010   79.2660   56.4740 C   0  0  0  0  0  0  0  0  0  0  0  0
   38.5040   79.8880   57.0240 C   0  0  0  0  0  0  0  0  0  0  0  0
   39.5320   80.2670   56.2010 C   0  0  0  0  0  0  0  0  0  0  0  0
   40.9830   80.3290   59.3570 C   0  0  0  0  0  0  0  0  0  0  0  0
   40.7380   81.1650   58.2710 C   0  0  0  0  0  0  0  0  0  0  0  0
   40.6020   82.5470   58.5600 C   0  0  0  0  0  0  0  0  0  0  0  0
   40.7130   82.9820   59.8430 N   0  0  0  0  0  0  0  0  0  0  0  0
   40.9530   82.1060   60.8580 C   0  0  0  0  0  0  0  0  0  0  0  0
   41.0830   80.8090   60.5990 N   0  0  0  0  0  0  0  0  0  0  0  0
   41.0710   82.5780   62.2370 C   0  0  0  0  0  0  0  0  0  0  0  0
   39.9040   83.4840   62.6500 C   0  0  0  0  0  0  0  0  0  0  0  0
   40.3830   83.8400   64.0600 C   0  0  0  0  0  0  0  0  0  0  0  0
   41.8970   83.9860   63.9120 C   0  0  0  0  0  0  0  0  0  0  0  0
   42.2260   83.5030   62.5060 C   0  0  0  0  0  0  0  0  0  0  0  0
   42.5125   81.7778   56.5490 H   0  0  0  0  0  0  0  0  0  0  0  0
   42.5704   81.4398   54.1119 H   0  0  0  0  0  0  0  0  0  0  0  0
   40.6309   80.3186   52.9732 H   0  0  0  0  0  0  0  0  0  0  0  0
   38.4033   79.2671   53.2268 H   0  0  0  0  0  0  0  0  0  0  0  0
   36.5219   78.5601   54.6432 H   0  0  0  0  0  0  0  0  0  0  0  0
   36.5570   78.9484   57.1039 H   0  0  0  0  0  0  0  0  0  0  0  0
   38.5568   80.0765   58.1064 H   0  0  0  0  0  0  0  0  0  0  0  0
   41.0968   79.2480   59.1880 H   0  0  0  0  0  0  0  0  0  0  0  0
   40.4074   83.2641   57.7489 H   0  0  0  0  0  0  0  0  0  0  0  0
   41.1506   81.6210   62.7735 H   0  0  0  0  0  0  0  0  0  0  0  0
   39.8189   84.3708   62.0047 H   0  0  0  0  0  0  0  0  0  0  0  0
   38.9026   83.0336   62.5846 H   0  0  0  0  0  0  0  0  0  0  0  0
   39.9308   84.7835   64.3997 H   0  0  0  0  0  0  0  0  0  0  0  0
   40.1023   83.0818   64.8058 H   0  0  0  0  0  0  0  0  0  0  0  0
   42.1940   85.0380   64.0347 H   0  0  0  0  0  0  0  0  0  0  0  0
   42.4358   83.4056   64.6754 H   0  0  0  0  0  0  0  0  0  0  0  0
   43.1864   82.9673   62.4782 H   0  0  0  0  0  0  0  0  0  0  0  0
   42.3401   84.3095   61.7668 H   0  0  0  0  0  0  0  0  0  0  0  0
  1 12  1  0
  2  1  2  0
  3  2  1  0
  4  3  2  0
  4  5  1  0
  5 10  2  0
  6  5  1  0
  6  7  2  0
  7  8  1  0
  8  9  2  0
 10  1  1  0
 10  9  1  0
 11 16  2  0
 12 13  2  0
 12 11  1  0
 13 14  1  0
 14 15  2  0
 15 17  1  0
 16 15  1  0
 17 21  1  0
 17 18  1  0
 18 19  1  0
 20 19  1  0
 21 20  1  0
  2 22  1  0
  3 23  1  0
  4 24  1  0
  6 25  1  0
  7 26  1  0
  8 27  1  0
  9 28  1  0
 11 29  1  0
 13 30  1  0
 17 31  1  0
 18 32  1  0
 18 33  1  0
 19 34  1  0
 19 35  1  0
 20 36  1  0
 20 37  1  0
 21 38  1  0
 21 39  1  0
M  ISO  8  22  14  23  14  24  14  25  14  26  14  27  14  28  14  29  14
M  ISO  8  30  14  31  13  32  13  33  13  34  13  35  13  36  13  37  13
M  ISO  2  38  13  39  13
M  END
>  <minimizedAffinity>  (1) 
-5.36531734

>  <minimizedRMSD>  (1) 
2.92126274

$$$$
