
     RDKit          3D

 27 29  0  0  0  0  0  0  0  0999 V2000
   40.9010   82.7390   58.0370 C   0  0  0  0  0  0  0  0  0  0  0  0
   41.8290   83.7260   57.7250 C   0  0  0  0  0  0  0  0  0  0  0  0
   42.5070   83.8060   56.5280 C   0  0  0  0  0  0  0  0  0  0  0  0
   42.2640   82.8640   55.5700 C   0  0  0  0  0  0  0  0  0  0  0  0
   41.3500   81.8720   55.8500 C   0  0  0  0  0  0  0  0  0  0  0  0
   41.0260   80.8490   54.9540 C   0  0  0  0  0  0  0  0  0  0  0  0
   40.1140   79.8660   55.2610 C   0  0  0  0  0  0  0  0  0  0  0  0
   39.4730   79.8390   56.4730 C   0  0  0  0  0  0  0  0  0  0  0  0
   39.7620   80.8320   57.3880 C   0  0  0  0  0  0  0  0  0  0  0  0
   40.6740   81.7940   57.0490 C   0  0  0  0  0  0  0  0  0  0  0  0
   40.2540   81.9460   60.4150 C   0  0  0  0  0  0  0  0  0  0  0  0
   40.2940   82.8580   59.3620 C   0  0  0  0  0  0  0  0  0  0  0  0
   39.6580   84.1190   59.5320 C   0  0  0  0  0  0  0  0  0  0  0  0
   39.0430   84.3660   60.7190 N   0  0  0  0  0  0  0  0  0  0  0  0
   39.0220   83.4510   61.7240 C   0  0  0  0  0  0  0  0  0  0  0  0
   39.6220   82.2790   61.5490 N   0  0  0  0  0  0  0  0  0  0  0  0
   38.3760   83.7640   62.9140 O   0  0  0  0  0  0  0  0  0  0  0  0
   42.0359   84.4945   58.4844 H   0  0  0  0  0  0  0  0  0  0  0  0
   43.2310   84.6143   56.3475 H   0  0  0  0  0  0  0  0  0  0  0  0
   42.7838   82.8963   54.6011 H   0  0  0  0  0  0  0  0  0  0  0  0
   41.5171   80.8294   53.9699 H   0  0  0  0  0  0  0  0  0  0  0  0
   39.8942   79.0849   54.5184 H   0  0  0  0  0  0  0  0  0  0  0  0
   38.7475   79.0469   56.7101 H   0  0  0  0  0  0  0  0  0  0  0  0
   39.2683   80.8493   58.3709 H   0  0  0  0  0  0  0  0  0  0  0  0
   40.7365   80.9624   60.3164 H   0  0  0  0  0  0  0  0  0  0  0  0
   39.6636   84.8703   58.7286 H   0  0  0  0  0  0  0  0  0  0  0  0
   38.3539   83.1058   63.6532 H   0  0  0  0  0  0  0  0  0  0  0  0
  1 12  1  0
  2  1  2  0
  3  2  1  0
  4  5  1  0
  4  3  2  0
  5 10  2  0
  6  7  2  0
  6  5  1  0
  7  8  1  0
  8  9  2  0
 10  9  1  0
 10  1  1  0
 11 16  2  0
 12 13  2  0
 12 11  1  0
 13 14  1  0
 14 15  2  0
 15 17  1  0
 16 15  1  0
  2 18  1  0
  3 19  1  0
  4 20  1  0
  6 21  1  0
  7 22  1  0
  8 23  1  0
  9 24  1  0
 11 25  1  0
 13 26  1  0
 17 27  1  0
M  ISO  8  18  14  19  14  20  14  21  14  22  14  23  14  24  14  25  14
M  ISO  2  26  14  27   3
M  END
>  <minimizedAffinity>  (1) 
-5.23584986

>  <minimizedRMSD>  (1) 
0.309499383

$$$$
