
     RDKit          3D

 28 30  0  0  0  0  0  0  0  0999 V2000
   41.0980   82.8740   58.5650 C   0  0  0  0  0  0  0  0  0  0  0  0
   41.8530   83.8830   57.9540 C   0  0  0  0  0  0  0  0  0  0  0  0
   42.2160   83.8700   56.6290 C   0  0  0  0  0  0  0  0  0  0  0  0
   41.8250   82.8140   55.8340 C   0  0  0  0  0  0  0  0  0  0  0  0
   41.0850   81.8130   56.4110 C   0  0  0  0  0  0  0  0  0  0  0  0
   40.6400   80.7080   55.7130 C   0  0  0  0  0  0  0  0  0  0  0  0
   39.8950   79.7090   56.3120 C   0  0  0  0  0  0  0  0  0  0  0  0
   39.5530   79.7620   57.6500 C   0  0  0  0  0  0  0  0  0  0  0  0
   39.9830   80.8560   58.3770 C   0  0  0  0  0  0  0  0  0  0  0  0
   40.7180   81.8230   57.7480 C   0  0  0  0  0  0  0  0  0  0  0  0
   39.8230   82.5560   60.7950 C   0  0  0  0  0  0  0  0  0  0  0  0
   40.8200   83.0890   59.9830 C   0  0  0  0  0  0  0  0  0  0  0  0
   41.7410   83.9970   60.5710 C   0  0  0  0  0  0  0  0  0  0  0  0
   41.5970   84.2940   61.8890 N   0  0  0  0  0  0  0  0  0  0  0  0
   40.6060   83.7470   62.6410 C   0  0  0  0  0  0  0  0  0  0  0  0
   39.7480   82.8990   62.0850 N   0  0  0  0  0  0  0  0  0  0  0  0
   40.4350   84.0540   64.0580 C   0  0  0  0  0  0  0  0  0  0  0  0
   40.3880   83.1600   64.9470 O   0  0  0  0  0  0  0  0  0  0  0  0
   42.1740   84.7354   58.5708 H   0  0  0  0  0  0  0  0  0  0  0  0
   42.8119   84.6929   56.2074 H   0  0  0  0  0  0  0  0  0  0  0  0
   42.0980   82.7750   54.7691 H   0  0  0  0  0  0  0  0  0  0  0  0
   40.8864   80.6194   54.6446 H   0  0  0  0  0  0  0  0  0  0  0  0
   39.5662   78.8503   55.7083 H   0  0  0  0  0  0  0  0  0  0  0  0
   38.9603   78.9628   58.1191 H   0  0  0  0  0  0  0  0  0  0  0  0
   39.7378   80.9477   59.4454 H   0  0  0  0  0  0  0  0  0  0  0  0
   39.0933   81.8491   60.3733 H   0  0  0  0  0  0  0  0  0  0  0  0
   42.5487   84.4473   59.9754 H   0  0  0  0  0  0  0  0  0  0  0  0
   40.3435   85.1070   64.3628 H   0  0  0  0  0  0  0  0  0  0  0  0
  1 12  1  0
  2  1  2  0
  3  2  1  0
  4  5  1  0
  4  3  2  0
  5 10  2  0
  6  7  2  0
  6  5  1  0
  7  8  1  0
  8  9  2  0
 10  9  1  0
 10  1  1  0
 11 16  2  0
 12 13  2  0
 12 11  1  0
 13 14  1  0
 14 15  2  0
 15 17  1  0
 16 15  1  0
 17 18  2  0
  2 19  1  0
  3 20  1  0
  4 21  1  0
  6 22  1  0
  7 23  1  0
  8 24  1  0
  9 25  1  0
 11 26  1  0
 13 27  1  0
 17 28  1  0
M  ISO  8  19  14  20  14  21  14  22  14  23  14  24  14  25  14  26  14
M  ISO  2  27  14  28   6
M  END
>  <minimizedAffinity>  (1) 
-5.05195141

>  <minimizedRMSD>  (1) 
1.29805017

$$$$
