
     RDKit          3D

 38 41  0  0  0  0  0  0  0  0999 V2000
   40.1600   78.8570   59.2510 C   0  0  0  0  0  0  0  0  0  0  0  0
   39.7410   79.6530   58.1840 C   0  0  0  0  0  0  0  0  0  0  0  0
   40.0980   81.0540   58.1820 C   0  0  0  0  0  0  0  0  0  0  0  0
   40.8270   81.5220   59.2330 N   0  0  0  0  0  0  0  0  0  0  0  0
   41.2110   80.6750   60.2590 C   0  0  0  0  0  0  0  0  0  0  0  0
   40.8760   79.3560   60.2550 N   0  0  0  0  0  0  0  0  0  0  0  0
   38.9360   79.3080   57.0290 C   0  0  0  0  0  0  0  0  0  0  0  0
   38.4500   80.4260   56.3090 C   0  0  0  0  0  0  0  0  0  0  0  0
   37.6250   80.3280   55.2270 C   0  0  0  0  0  0  0  0  0  0  0  0
   37.2270   79.0760   54.7900 C   0  0  0  0  0  0  0  0  0  0  0  0
   37.6920   77.9700   55.4800 C   0  0  0  0  0  0  0  0  0  0  0  0
   37.3490   76.6770   55.1440 C   0  0  0  0  0  0  0  0  0  0  0  0
   37.8210   75.5870   55.8590 C   0  0  0  0  0  0  0  0  0  0  0  0
   38.6630   75.7410   56.9440 C   0  0  0  0  0  0  0  0  0  0  0  0
   39.0140   77.0380   57.2890 C   0  0  0  0  0  0  0  0  0  0  0  0
   38.5300   78.0790   56.5740 C   0  0  0  0  0  0  0  0  0  0  0  0
   41.9500   81.1350   61.4390 C   0  0  0  0  0  0  0  0  0  0  0  0
   42.8660   80.4380   61.9210 O   0  0  0  0  0  0  0  0  0  0  0  0
   43.8120   83.5650   60.9060 Cl  0  0  0  0  0  0  0  0  0  0  0  0
   42.5660   83.5020   62.1180 C   0  0  0  0  0  0  0  0  0  0  0  0
   41.8250   82.3480   62.2430 C   0  0  0  0  0  0  0  0  0  0  0  0
   40.8640   82.4340   63.2590 C   0  0  0  0  0  0  0  0  0  0  0  0
   40.6380   83.5180   64.0720 C   0  0  0  0  0  0  0  0  0  0  0  0
   41.4280   84.6290   63.8730 C   0  0  0  0  0  0  0  0  0  0  0  0
   42.3980   84.6280   62.8940 C   0  0  0  0  0  0  0  0  0  0  0  0
   39.8915   77.7903   59.2621 H   0  0  0  0  0  0  0  0  0  0  0  0
   39.7917   81.7185   57.3607 H   0  0  0  0  0  0  0  0  0  0  0  0
   38.7546   81.4296   56.6406 H   0  0  0  0  0  0  0  0  0  0  0  0
   37.2797   81.2339   54.7073 H   0  0  0  0  0  0  0  0  0  0  0  0
   36.5617   78.9638   53.9212 H   0  0  0  0  0  0  0  0  0  0  0  0
   36.6829   76.5060   54.2855 H   0  0  0  0  0  0  0  0  0  0  0  0
   37.5177   74.5743   55.5551 H   0  0  0  0  0  0  0  0  0  0  0  0
   39.0379   74.8745   57.5084 H   0  0  0  0  0  0  0  0  0  0  0  0
   39.6844   77.2193   58.1421 H   0  0  0  0  0  0  0  0  0  0  0  0
   40.2304   81.5496   63.4210 H   0  0  0  0  0  0  0  0  0  0  0  0
   39.8594   83.4997   64.8488 H   0  0  0  0  0  0  0  0  0  0  0  0
   41.2837   85.5219   64.4990 H   0  0  0  0  0  0  0  0  0  0  0  0
   43.0296   85.5143   62.7343 H   0  0  0  0  0  0  0  0  0  0  0  0
  1  6  2  0
  2  1  1  0
  3  2  2  0
  3  4  1  0
  4  5  2  0
  5 17  1  0
  6  5  1  0
  7  2  1  0
  8  7  2  0
  9  8  1  0
 10  9  2  0
 10 11  1  0
 11 16  2  0
 12 11  1  0
 12 13  2  0
 13 14  1  0
 14 15  2  0
 16  7  1  0
 16 15  1  0
 17 18  2  0
 17 21  1  0
 19 20  1  0
 20 21  2  0
 20 25  1  0
 21 22  1  0
 22 23  2  0
 24 23  1  0
 25 24  2  0
  1 26  1  0
  3 27  1  0
  8 28  1  0
  9 29  1  0
 10 30  1  0
 12 31  1  0
 13 32  1  0
 14 33  1  0
 15 34  1  0
 22 35  1  0
 23 36  1  0
 24 37  1  0
 25 38  1  0
M  ISO  8  26  14  27  14  28  14  29  14  30  14  31  14  32  14  33  14
M  ISO  5  34  14  35  14  36  14  37  14  38  14
M  END
>  <minimizedAffinity>  (1) 
-6.48370123

>  <minimizedRMSD>  (1) 
4.54883194

$$$$
