
     RDKit          3D

 35 38  0  0  0  0  0  0  0  0999 V2000
   40.3280   81.0250   58.8970 C   0  0  0  0  0  0  0  0  0  0  0  0
   40.3970   79.7990   59.5930 C   0  0  0  0  0  0  0  0  0  0  0  0
   40.1860   79.7780   61.0200 C   0  0  0  0  0  0  0  0  0  0  0  0
   39.9270   80.9750   61.6130 N   0  0  0  0  0  0  0  0  0  0  0  0
   39.8650   82.1510   60.8900 C   0  0  0  0  0  0  0  0  0  0  0  0
   40.0650   82.1630   59.5500 N   0  0  0  0  0  0  0  0  0  0  0  0
   40.6780   78.4820   59.0590 C   0  0  0  0  0  0  0  0  0  0  0  0
   41.9630   77.9940   59.3870 C   0  0  0  0  0  0  0  0  0  0  0  0
   42.4630   76.8150   58.9290 C   0  0  0  0  0  0  0  0  0  0  0  0
   41.6920   76.0250   58.0900 C   0  0  0  0  0  0  0  0  0  0  0  0
   40.4280   76.4830   57.7570 C   0  0  0  0  0  0  0  0  0  0  0  0
   39.5810   75.7810   56.9360 C   0  0  0  0  0  0  0  0  0  0  0  0
   38.3210   76.2540   56.6190 C   0  0  0  0  0  0  0  0  0  0  0  0
   37.8490   77.4570   57.1170 C   0  0  0  0  0  0  0  0  0  0  0  0
   38.6990   78.1650   57.9440 C   0  0  0  0  0  0  0  0  0  0  0  0
   39.9270   77.6820   58.2300 C   0  0  0  0  0  0  0  0  0  0  0  0
   39.5870   83.4250   61.5570 C   0  0  0  0  0  0  0  0  0  0  0  0
   38.6860   84.2020   61.1810 O   0  0  0  0  0  0  0  0  0  0  0  0
   40.4080   83.7920   62.7150 C   0  0  0  0  0  0  0  0  0  0  0  0
   41.7760   84.0600   62.6000 C   0  0  0  0  0  0  0  0  0  0  0  0
   42.2110   84.3650   63.8710 C   0  0  0  0  0  0  0  0  0  0  0  0
   41.0980   84.2680   64.6840 C   0  0  0  0  0  0  0  0  0  0  0  0
   40.0720   83.9320   63.9620 O   0  0  0  0  0  0  0  0  0  0  0  0
   40.4917   81.0451   57.8094 H   0  0  0  0  0  0  0  0  0  0  0  0
   40.2321   78.8434   61.5983 H   0  0  0  0  0  0  0  0  0  0  0  0
   42.5950   78.6024   60.0506 H   0  0  0  0  0  0  0  0  0  0  0  0
   43.4723   76.4904   59.2222 H   0  0  0  0  0  0  0  0  0  0  0  0
   42.0710   75.0679   57.7024 H   0  0  0  0  0  0  0  0  0  0  0  0
   39.9129   74.8183   56.5200 H   0  0  0  0  0  0  0  0  0  0  0  0
   37.6770   75.6596   55.9542 H   0  0  0  0  0  0  0  0  0  0  0  0
   36.8453   77.8307   56.8660 H   0  0  0  0  0  0  0  0  0  0  0  0
   38.3745   79.1254   58.3710 H   0  0  0  0  0  0  0  0  0  0  0  0
   42.3811   84.0328   61.6818 H   0  0  0  0  0  0  0  0  0  0  0  0
   43.2339   84.6310   64.1759 H   0  0  0  0  0  0  0  0  0  0  0  0
   41.0832   84.4468   65.7693 H   0  0  0  0  0  0  0  0  0  0  0  0
  1  6  2  0
  1  2  1  0
  2  3  2  0
  3  4  1  0
  5 17  1  0
  5  4  2  0
  6  5  1  0
  7  8  2  0
  7  2  1  0
  9  8  1  0
 10  9  2  0
 11 10  1  0
 11 16  2  0
 12 11  1  0
 13 12  2  0
 13 14  1  0
 14 15  2  0
 15 16  1  0
 16  7  1  0
 17 19  1  0
 18 17  2  0
 19 23  1  0
 20 19  2  0
 20 21  1  0
 21 22  2  0
 23 22  1  0
  1 24  1  0
  3 25  1  0
  8 26  1  0
  9 27  1  0
 10 28  1  0
 12 29  1  0
 13 30  1  0
 14 31  1  0
 15 32  1  0
 20 33  1  0
 21 34  1  0
 22 35  1  0
M  ISO  8  24  14  25  14  26  14  27  14  28  14  29  14  30  14  31  14
M  ISO  4  32  14  33  14  34  14  35  14
M  END
>  <minimizedAffinity>  (1) 
-6.11586332

>  <minimizedRMSD>  (1) 
4.2527194

$$$$
