
     RDKit          3D

 34 37  0  0  0  0  0  0  0  0999 V2000
   41.8980   80.3610   61.5530 C   0  0  0  0  0  0  0  0  0  0  0  0
   43.2660   80.0240   61.6880 C   0  0  0  0  0  0  0  0  0  0  0  0
   44.2070   80.8750   62.1860 C   0  0  0  0  0  0  0  0  0  0  0  0
   43.8280   82.1460   62.5910 C   0  0  0  0  0  0  0  0  0  0  0  0
   42.4940   82.4980   62.4670 C   0  0  0  0  0  0  0  0  0  0  0  0
   42.0130   83.7220   62.8500 C   0  0  0  0  0  0  0  0  0  0  0  0
   40.6680   84.0430   62.7220 C   0  0  0  0  0  0  0  0  0  0  0  0
   39.7470   83.1450   62.2000 C   0  0  0  0  0  0  0  0  0  0  0  0
   40.2330   81.9060   61.8120 C   0  0  0  0  0  0  0  0  0  0  0  0
   41.5480   81.6260   61.9560 C   0  0  0  0  0  0  0  0  0  0  0  0
   40.5900   78.1440   61.7010 C   0  0  0  0  0  0  0  0  0  0  0  0
   41.0660   79.2810   61.0550 C   0  0  0  0  0  0  0  0  0  0  0  0
   40.7410   79.4680   59.6590 C   0  0  0  0  0  0  0  0  0  0  0  0
   39.9850   78.5290   59.0380 N   0  0  0  0  0  0  0  0  0  0  0  0
   39.5410   77.4140   59.7580 C   0  0  0  0  0  0  0  0  0  0  0  0
   39.8480   77.2390   61.0760 N   0  0  0  0  0  0  0  0  0  0  0  0
   38.7450   76.3570   59.1150 C   0  0  0  0  0  0  0  0  0  0  0  0
   38.4190   75.3410   59.7530 O   0  0  0  0  0  0  0  0  0  0  0  0
   38.3260   76.4970   57.6970 C   0  0  0  0  0  0  0  0  0  0  0  0
   37.1010   77.1190   57.4370 C   0  0  0  0  0  0  0  0  0  0  0  0
   36.9950   77.0720   55.6090 S   0  0  0  0  0  0  0  0  0  0  0  0
   38.6770   76.1920   55.5060 C   0  0  0  0  0  0  0  0  0  0  0  0
   38.9590   76.1080   56.6150 N   0  0  0  0  0  0  0  0  0  0  0  0
   43.5874   79.0201   61.3737 H   0  0  0  0  0  0  0  0  0  0  0  0
   45.2569   80.5567   62.2659 H   0  0  0  0  0  0  0  0  0  0  0  0
   44.5649   82.8537   62.9986 H   0  0  0  0  0  0  0  0  0  0  0  0
   42.7068   84.4664   63.2678 H   0  0  0  0  0  0  0  0  0  0  0  0
   40.3227   85.0368   63.0433 H   0  0  0  0  0  0  0  0  0  0  0  0
   38.6827   83.4041   62.0991 H   0  0  0  0  0  0  0  0  0  0  0  0
   39.5515   81.1535   61.3886 H   0  0  0  0  0  0  0  0  0  0  0  0
   40.8364   77.9910   62.7621 H   0  0  0  0  0  0  0  0  0  0  0  0
   41.0991   80.3528   59.1123 H   0  0  0  0  0  0  0  0  0  0  0  0
   36.3781   77.5347   58.1544 H   0  0  0  0  0  0  0  0  0  0  0  0
   39.2323   75.8533   54.6189 H   0  0  0  0  0  0  0  0  0  0  0  0
  1  2  2  0
  1 10  1  0
  2  3  1  0
  3  4  2  0
  5  4  1  0
  5  6  2  0
  7  6  1  0
  8  7  2  0
  9 10  2  0
  9  8  1  0
 10  5  1  0
 12  1  1  0
 12 11  2  0
 13 12  1  0
 14 13  2  0
 14 15  1  0
 15 16  2  0
 16 11  1  0
 17 18  2  0
 17 15  1  0
 19 17  1  0
 20 19  2  0
 21 20  1  0
 22 21  1  0
 22 23  2  0
 23 19  1  0
  2 24  1  0
  3 25  1  0
  4 26  1  0
  6 27  1  0
  7 28  1  0
  8 29  1  0
  9 30  1  0
 11 31  1  0
 13 32  1  0
 20 33  1  0
 22 34  1  0
M  ISO  8  24  14  25  14  26  14  27  14  28  14  29  14  30  14  31  14
M  ISO  3  32  14  33  14  34  14
M  END
>  <minimizedAffinity>  (1) 
-5.95815563

>  <minimizedRMSD>  (1) 
8.36958599

$$$$
