
     RDKit          3D

 36 40  0  0  0  0  0  0  0  0999 V2000
   40.3810   82.2230   61.3270 C   0  0  0  0  0  0  0  0  0  0  0  0
   40.0560   81.4890   60.1540 C   0  0  0  0  0  0  0  0  0  0  0  0
   40.5540   81.9580   58.9480 C   0  0  0  0  0  0  0  0  0  0  0  0
   41.3120   83.0700   58.9340 N   0  0  0  0  0  0  0  0  0  0  0  0
   41.6070   83.7530   60.0830 C   0  0  0  0  0  0  0  0  0  0  0  0
   41.1450   83.3320   61.2660 N   0  0  0  0  0  0  0  0  0  0  0  0
   43.2270   85.2660   61.1450 C   0  0  0  0  0  0  0  0  0  0  0  0
   42.4340   84.9560   60.0230 C   0  0  0  0  0  0  0  0  0  0  0  0
   42.4510   85.7700   58.9200 C   0  0  0  0  0  0  0  0  0  0  0  0
   43.2280   86.9110   58.8510 C   0  0  0  0  0  0  0  0  0  0  0  0
   43.4850   87.8940   57.9800 N   0  0  0  0  0  0  0  0  0  0  0  0
   44.3740   88.7750   58.4930 C   0  0  0  0  0  0  0  0  0  0  0  0
   44.6720   88.2980   59.7410 N   0  0  0  0  0  0  0  0  0  0  0  0
   43.9880   87.1650   59.9830 C   0  0  0  0  0  0  0  0  0  0  0  0
   44.0270   86.4020   61.1230 C   0  0  0  0  0  0  0  0  0  0  0  0
   41.0990   81.6460   56.6040 C   0  0  0  0  0  0  0  0  0  0  0  0
   40.2970   81.3020   57.6710 C   0  0  0  0  0  0  0  0  0  0  0  0
   39.3070   80.3650   57.4730 C   0  0  0  0  0  0  0  0  0  0  0  0
   39.1350   79.7890   56.2080 C   0  0  0  0  0  0  0  0  0  0  0  0
   38.2230   78.8530   55.8100 N   0  0  0  0  0  0  0  0  0  0  0  0
   38.4860   78.6410   54.4980 C   0  0  0  0  0  0  0  0  0  0  0  0
   39.5160   79.4120   54.0980 N   0  0  0  0  0  0  0  0  0  0  0  0
   39.9440   80.1410   55.1460 C   0  0  0  0  0  0  0  0  0  0  0  0
   40.9350   81.0760   55.3350 C   0  0  0  0  0  0  0  0  0  0  0  0
   40.0026   81.8802   62.3013 H   0  0  0  0  0  0  0  0  0  0  0  0
   39.4332   80.5835   60.2012 H   0  0  0  0  0  0  0  0  0  0  0  0
   43.2132   84.6144   62.0311 H   0  0  0  0  0  0  0  0  0  0  0  0
   41.8224   85.5050   58.0571 H   0  0  0  0  0  0  0  0  0  0  0  0
   43.0622   87.9696   57.0438 H   0  0  0  0  0  0  0  0  0  0  0  0
   44.7719   89.6801   58.0110 H   0  0  0  0  0  0  0  0  0  0  0  0
   44.6614   86.6766   61.9787 H   0  0  0  0  0  0  0  0  0  0  0  0
   41.8933   82.3921   56.7538 H   0  0  0  0  0  0  0  0  0  0  0  0
   38.6529   80.0697   58.3066 H   0  0  0  0  0  0  0  0  0  0  0  0
   37.4935   78.4055   56.3832 H   0  0  0  0  0  0  0  0  0  0  0  0
   37.9373   77.9399   53.8519 H   0  0  0  0  0  0  0  0  0  0  0  0
   41.5893   81.3718   54.5017 H   0  0  0  0  0  0  0  0  0  0  0  0
  2  1  2  0
  3  2  1  0
  4  3  2  0
  4  5  1  0
  5  6  2  0
  6  1  1  0
  8  5  1  0
  8  7  2  0
  9  8  1  0
 10  9  2  0
 10 14  1  0
 11 12  1  0
 11 10  1  0
 12 13  2  0
 13 14  1  0
 14 15  2  0
 15  7  1  0
 16 17  2  0
 17  3  1  0
 18 17  1  0
 19 18  2  0
 20 19  1  0
 21 20  1  0
 22 21  2  0
 22 23  1  0
 23 24  2  0
 23 19  1  0
 24 16  1  0
  1 25  1  0
  2 26  1  0
  7 27  1  0
  9 28  1  0
 11 29  1  0
 12 30  1  0
 15 31  1  0
 16 32  1  0
 18 33  1  0
 20 34  1  0
 21 35  1  0
 24 36  1  0
M  ISO  8  25  14  26  14  27  14  28  14  29   9  30  14  31  14  32  14
M  ISO  4  33  14  34   9  35  14  36  14
M  END
>  <minimizedAffinity>  (1) 
-5.70516825

>  <minimizedRMSD>  (1) 
5.78339815

$$$$
