
     RDKit          3D

 18 19  0  0  0  0  0  0  0  0999 V2000
   40.0350   83.5310   62.9270 C   0  0  0  0  0  0  0  0  0  0  0  0
   40.5490   83.7940   64.2060 C   0  0  0  0  0  0  0  0  0  0  0  0
   41.8720   84.3030   64.3000 C   0  0  0  0  0  0  0  0  0  0  0  0
   42.5340   84.4960   63.1420 N   0  0  0  0  0  0  0  0  0  0  0  0
   42.0350   84.2420   61.9260 C   0  0  0  0  0  0  0  0  0  0  0  0
   40.7820   83.7570   61.8120 N   0  0  0  0  0  0  0  0  0  0  0  0
   42.7760   84.4660   60.7760 O   0  0  0  0  0  0  0  0  0  0  0  0
   42.4050   85.4010   59.7900 C   0  0  0  0  0  0  0  0  0  0  0  0
   43.4280   86.4540   59.4690 C   0  0  0  0  0  0  0  0  0  0  0  0
   43.1470   85.3220   58.4930 C   0  0  0  0  0  0  0  0  0  0  0  0
   39.0134   83.1364   62.8241 H   0  0  0  0  0  0  0  0  0  0  0  0
   39.9462   83.6117   65.1079 H   0  0  0  0  0  0  0  0  0  0  0  0
   42.3343   84.5290   65.2722 H   0  0  0  0  0  0  0  0  0  0  0  0
   41.3415   85.4127   60.0709 H   0  0  0  0  0  0  0  0  0  0  0  0
   43.1086   87.4795   59.2315 H   0  0  0  0  0  0  0  0  0  0  0  0
   44.3240   86.8515   59.9682 H   0  0  0  0  0  0  0  0  0  0  0  0
   42.6253   85.5275   57.5467 H   0  0  0  0  0  0  0  0  0  0  0  0
   43.7571   84.5576   57.9895 H   0  0  0  0  0  0  0  0  0  0  0  0
  1  2  2  0
  2  3  1  0
  4  3  2  0
  5  4  1  0
  6  5  2  0
  6  1  1  0
  7  5  1  0
  8  7  1  0
  9  8  1  0
 10  9  1  0
 10  8  1  0
  1 11  1  0
  2 12  1  0
  3 13  1  0
  8 14  1  0
  9 15  1  0
  9 16  1  0
 10 17  1  0
 10 18  1  0
M  ISO  8  11  14  12  14  13  14  14  13  15  13  16  13  17  13  18  13
M  END
>  <minimizedAffinity>  (1) 
-3.30064058

>  <minimizedRMSD>  (1) 
5.60237837

$$$$
