
     RDKit          3D

 24 25  0  0  1  0  0  0  0  0999 V2000
   43.1840   85.8600   60.3600 C   0  0  1  0  0  0  0  0  0  0  0  0
   44.5200   86.3640   59.8460 C   0  0  0  0  0  0  0  0  0  0  0  0
   43.5570   85.6230   58.9470 C   0  0  2  0  0  0  0  0  0  0  0  0
   43.3310   84.7860   61.2770 O   0  0  0  0  0  0  0  0  0  0  0  0
   40.2300   83.4270   62.5660 C   0  0  0  0  0  0  0  0  0  0  0  0
   40.3420   83.7200   63.9220 C   0  0  0  0  0  0  0  0  0  0  0  0
   41.4970   84.3890   64.3800 C   0  0  0  0  0  0  0  0  0  0  0  0
   42.4150   84.6930   63.4330 N   0  0  0  0  0  0  0  0  0  0  0  0
   42.3010   84.4070   62.1260 C   0  0  0  0  0  0  0  0  0  0  0  0
   41.2100   83.7720   61.6810 N   0  0  0  0  0  0  0  0  0  0  0  0
   42.8510   86.2970   57.9780 O   0  0  0  0  0  0  0  0  0  0  0  0
   41.1500   84.2450   58.0880 O   0  0  0  0  0  0  0  0  0  0  0  0
   41.5660   85.4670   57.3190 P   0  0  0  0  0  0  0  0  0  0  0  0
   41.9870   85.1010   55.7130 O   0  0  0  0  0  0  0  0  0  0  0  0
   40.2050   86.4870   57.2500 O   0  0  0  0  0  0  0  0  0  0  0  0
   42.2852   86.2850   60.8307 H   0  0  0  0  0  0  0  0  0  0  0  0
   44.6894   87.4420   59.7075 H   0  0  0  0  0  0  0  0  0  0  0  0
   45.5727   86.2423   60.1409 H   0  0  0  0  0  0  0  0  0  0  0  0
   43.6559   84.7426   58.2949 H   0  0  0  0  0  0  0  0  0  0  0  0
   39.3328   82.9064   62.1999 H   0  0  0  0  0  0  0  0  0  0  0  0
   39.5445   83.4352   64.6241 H   0  0  0  0  0  0  0  0  0  0  0  0
   41.6421   84.6470   65.4394 H   0  0  0  0  0  0  0  0  0  0  0  0
   42.7341   84.4515   55.7075 H   0  0  0  0  0  0  0  0  0  0  0  0
   39.9109   86.7074   58.1692 H   0  0  0  0  0  0  0  0  0  0  0  0
  1  4  1  0
  2  1  1  0
  3  2  1  0
  3  1  1  0
  4  9  1  0
  5  6  2  0
  6  7  1  0
  8  7  2  0
  9  8  1  0
 10  9  2  0
 10  5  1  0
 11  3  1  0
 13 11  1  0
 13 12  2  0
 14 13  1  0
 15 13  1  0
  1 16  1  6
  2 17  1  0
  2 18  1  0
  3 19  1  6
  5 20  1  0
  6 21  1  0
  7 22  1  0
 14 23  1  0
 15 24  1  0
M  ISO  8  16  13  17  13  18  13  19  13  20  14  21  14  22  14  23   3
M  ISO  1  24   3
M  END
>  <minimizedAffinity>  (1) 
-4.47475004

>  <minimizedRMSD>  (1) 
0.981797934

$$$$
