
     RDKit          3D

 31 33  0  0  1  0  0  0  0  0999 V2000
   43.2490   85.0430   60.6750 C   0  0  1  0  0  0  0  0  0  0  0  0
   43.0030   84.5860   62.1020 C   0  0  0  0  0  0  0  0  0  0  0  0
   41.9260   84.4940   61.0470 C   0  0  2  0  0  0  0  0  0  0  0  0
   40.7710   83.2110   59.1920 C   0  0  1  0  0  0  0  0  0  0  0  0
   41.4890   83.1860   60.5070 C   0  0  2  0  0  0  0  0  0  0  0  0
   40.5670   82.5250   61.3140 O   0  0  0  0  0  0  0  0  0  0  0  0
   40.0610   81.4890   60.5740 C   0  0  0  0  0  0  0  0  0  0  0  0
   40.4510   81.7090   59.1110 C   0  0  1  0  0  0  0  0  0  0  0  0
   39.5110   83.8090   59.2490 O   0  0  0  0  0  0  0  0  0  0  0  0
   39.4370   81.4290   58.2300 O   0  0  0  0  0  0  0  0  0  0  0  0
   43.3920   86.4420   60.5530 O   0  0  0  0  0  0  0  0  0  0  0  0
   44.9470   88.8290   58.3170 C   0  0  0  0  0  0  0  0  0  0  0  0
   45.5630   87.9930   57.3890 C   0  0  0  0  0  0  0  0  0  0  0  0
   45.4280   86.6000   57.5580 C   0  0  0  0  0  0  0  0  0  0  0  0
   44.7030   86.2000   58.6180 N   0  0  0  0  0  0  0  0  0  0  0  0
   44.1080   87.0110   59.5120 C   0  0  0  0  0  0  0  0  0  0  0  0
   44.2350   88.3340   59.3550 N   0  0  0  0  0  0  0  0  0  0  0  0
   43.9517   84.8081   59.8619 H   0  0  0  0  0  0  0  0  0  0  0  0
   43.4853   83.6735   62.4826 H   0  0  0  0  0  0  0  0  0  0  0  0
   43.0899   85.0411   63.0997 H   0  0  0  0  0  0  0  0  0  0  0  0
   40.8877   84.8512   60.9817 H   0  0  0  0  0  0  0  0  0  0  0  0
   41.3445   83.7240   58.4059 H   0  0  0  0  0  0  0  0  0  0  0  0
   42.4696   82.6935   60.4297 H   0  0  0  0  0  0  0  0  0  0  0  0
   40.4800   80.5369   60.9316 H   0  0  0  0  0  0  0  0  0  0  0  0
   38.9661   81.4515   60.6731 H   0  0  0  0  0  0  0  0  0  0  0  0
   41.2579   81.0633   58.7343 H   0  0  0  0  0  0  0  0  0  0  0  0
   39.2476   83.9340   60.1951 H   0  0  0  0  0  0  0  0  0  0  0  0
   38.6155   81.2021   58.7337 H   0  0  0  0  0  0  0  0  0  0  0  0
   45.0419   89.9190   58.2030 H   0  0  0  0  0  0  0  0  0  0  0  0
   46.1384   88.4078   56.5482 H   0  0  0  0  0  0  0  0  0  0  0  0
   45.8887   85.8820   56.8635 H   0  0  0  0  0  0  0  0  0  0  0  0
  1  3  1  0
  1  2  1  0
  3  2  1  0
  4  9  1  0
  4  5  1  0
  5  3  1  0
  5  6  1  0
  7  6  1  0
  8 10  1  0
  8  4  1  0
  8  7  1  0
 11  1  1  0
 12 17  2  0
 13 14  2  0
 13 12  1  0
 14 15  1  0
 15 16  2  0
 16 11  1  0
 17 16  1  0
  1 18  1  6
  2 19  1  0
  2 20  1  0
  3 21  1  1
  4 22  1  6
  5 23  1  6
  7 24  1  0
  7 25  1  0
  8 26  1  6
  9 27  1  0
 10 28  1  0
 12 29  1  0
 13 30  1  0
 14 31  1  0
M  ISO  8  18  13  19  13  20  13  21  13  22  13  23  13  24  13  25  13
M  ISO  6  26  13  27   3  28   3  29  14  30  14  31  14
M  END
>  <minimizedAffinity>  (1) 
-4.23954058

>  <minimizedRMSD>  (1) 
5.94208527

$$$$
