
     RDKit          3D

 25 27  0  0  1  0  0  0  0  0999 V2000
   43.4720   85.5160   60.7860 C   0  0  1  0  0  0  0  0  0  0  0  0
   44.7540   85.7100   60.0060 C   0  0  0  0  0  0  0  0  0  0  0  0
   43.7380   84.6780   59.5900 C   0  0  2  0  0  0  0  0  0  0  0  0
   42.8230   85.0080   58.4430 C   0  0  0  0  0  0  0  0  0  0  0  0
   42.9020   84.7000   57.0990 C   0  0  0  0  0  0  0  0  0  0  0  0
   41.8140   85.2380   56.4840 N   0  0  0  0  0  0  0  0  0  0  0  0
   41.0570   85.8770   57.4200 C   0  0  0  0  0  0  0  0  0  0  0  0
   41.6760   85.7310   58.5980 N   0  0  0  0  0  0  0  0  0  0  0  0
   43.6670   84.9190   62.0570 O   0  0  0  0  0  0  0  0  0  0  0  0
   41.0770   82.6680   63.2080 C   0  0  0  0  0  0  0  0  0  0  0  0
   40.4890   83.4040   64.2430 C   0  0  0  0  0  0  0  0  0  0  0  0
   41.0150   84.6840   64.5200 C   0  0  0  0  0  0  0  0  0  0  0  0
   42.0410   85.0680   63.7490 N   0  0  0  0  0  0  0  0  0  0  0  0
   42.6050   84.3730   62.7630 C   0  0  0  0  0  0  0  0  0  0  0  0
   42.1140   83.1400   62.4800 N   0  0  0  0  0  0  0  0  0  0  0  0
   42.6223   86.1419   61.0960 H   0  0  0  0  0  0  0  0  0  0  0  0
   44.9013   86.6165   59.4006 H   0  0  0  0  0  0  0  0  0  0  0  0
   45.8273   85.7015   60.2465 H   0  0  0  0  0  0  0  0  0  0  0  0
   43.8207   83.6061   59.3571 H   0  0  0  0  0  0  0  0  0  0  0  0
   43.7019   84.1226   56.6124 H   0  0  0  0  0  0  0  0  0  0  0  0
   41.5985   85.1732   55.4789 H   0  0  0  0  0  0  0  0  0  0  0  0
   40.1132   86.4129   57.2409 H   0  0  0  0  0  0  0  0  0  0  0  0
   40.6806   81.6680   62.9781 H   0  0  0  0  0  0  0  0  0  0  0  0
   39.6455   82.9986   64.8210 H   0  0  0  0  0  0  0  0  0  0  0  0
   40.6090   85.3245   65.3169 H   0  0  0  0  0  0  0  0  0  0  0  0
  1  9  1  0
  2  1  1  0
  3  2  1  0
  3  1  1  0
  4  8  1  0
  4  3  1  0
  5  4  2  0
  6  5  1  0
  6  7  1  0
  7  8  2  0
  9 14  1  0
 10 11  2  0
 11 12  1  0
 13 12  2  0
 14 13  1  0
 15 14  2  0
 15 10  1  0
  1 16  1  1
  2 17  1  0
  2 18  1  0
  3 19  1  1
  5 20  1  0
  6 21  1  0
  7 22  1  0
 10 23  1  0
 11 24  1  0
 12 25  1  0
M  ISO  8  16  13  17  13  18  13  19  13  20  14  21   9  22  14  23  14
M  ISO  2  24  14  25  14
M  END
>  <minimizedAffinity>  (1) 
-4.23810816

>  <minimizedRMSD>  (1) 
1.34112096

$$$$
