
     RDKit          3D

 30 33  0  0  0  0  0  0  0  0999 V2000
   40.0160   80.5180   57.7830 C   0  0  0  0  0  0  0  0  0  0  0  0
   40.6370   81.1580   56.6840 C   0  0  0  0  0  0  0  0  0  0  0  0
   41.2520   82.3750   56.9370 C   0  0  0  0  0  0  0  0  0  0  0  0
   41.2330   82.8880   58.1960 N   0  0  0  0  0  0  0  0  0  0  0  0
   40.6290   82.2520   59.2270 C   0  0  0  0  0  0  0  0  0  0  0  0
   40.0210   81.0620   59.0130 N   0  0  0  0  0  0  0  0  0  0  0  0
   39.3930   83.0520   61.1760 C   0  0  0  0  0  0  0  0  0  0  0  0
   40.6150   82.8110   60.5680 C   0  0  0  0  0  0  0  0  0  0  0  0
   41.8110   83.0930   61.2170 C   0  0  0  0  0  0  0  0  0  0  0  0
   41.8110   83.6280   62.4990 C   0  0  0  0  0  0  0  0  0  0  0  0
   42.7170   84.0140   63.4040 N   0  0  0  0  0  0  0  0  0  0  0  0
   42.1160   84.4730   64.5190 C   0  0  0  0  0  0  0  0  0  0  0  0
   40.7780   84.3630   64.2850 N   0  0  0  0  0  0  0  0  0  0  0  0
   40.5640   83.8480   63.0540 C   0  0  0  0  0  0  0  0  0  0  0  0
   39.3490   83.5860   62.4560 C   0  0  0  0  0  0  0  0  0  0  0  0
   41.9280   83.1410   55.8980 C   0  0  0  0  0  0  0  0  0  0  0  0
   42.4150   82.6660   54.6980 C   0  0  0  0  0  0  0  0  0  0  0  0
   42.9960   83.7040   53.9770 C   0  0  0  0  0  0  0  0  0  0  0  0
   42.8430   84.7980   54.7760 N   0  0  0  0  0  0  0  0  0  0  0  0
   42.2200   84.4410   55.8850 N   0  0  0  0  0  0  0  0  0  0  0  0
   39.5163   79.5505   57.6271 H   0  0  0  0  0  0  0  0  0  0  0  0
   40.6321   80.7120   55.6785 H   0  0  0  0  0  0  0  0  0  0  0  0
   38.4585   82.8201   60.6441 H   0  0  0  0  0  0  0  0  0  0  0  0
   42.7665   82.8907   60.7109 H   0  0  0  0  0  0  0  0  0  0  0  0
   43.7367   83.9667   63.2670 H   0  0  0  0  0  0  0  0  0  0  0  0
   42.6032   84.8562   65.4277 H   0  0  0  0  0  0  0  0  0  0  0  0
   38.3961   83.7895   62.9665 H   0  0  0  0  0  0  0  0  0  0  0  0
   42.3530   81.6207   54.3610 H   0  0  0  0  0  0  0  0  0  0  0  0
   43.4714   83.6536   52.9863 H   0  0  0  0  0  0  0  0  0  0  0  0
   43.1623   85.7511   54.5509 H   0  0  0  0  0  0  0  0  0  0  0  0
  1  6  2  0
  2  3  2  0
  2  1  1  0
  3  4  1  0
  4  5  2  0
  5  8  1  0
  6  5  1  0
  7 15  2  0
  8  7  1  0
  8  9  2  0
  9 10  1  0
 10 14  2  0
 10 11  1  0
 11 12  1  0
 13 12  2  0
 14 13  1  0
 15 14  1  0
 16  3  1  0
 17 16  1  0
 18 17  2  0
 18 19  1  0
 19 20  1  0
 20 16  2  0
  1 21  1  0
  2 22  1  0
  7 23  1  0
  9 24  1  0
 11 25  1  0
 12 26  1  0
 15 27  1  0
 17 28  1  0
 18 29  1  0
 19 30  1  0
M  ISO  8  21  14  22  14  23  14  24  14  25   9  26  14  27  14  28  14
M  ISO  2  29  14  30   9
M  END
>  <minimizedAffinity>  (1) 
-5.36793232

>  <minimizedRMSD>  (1) 
0.882717967

$$$$
