
     RDKit          3D

 33 35  0  0  1  0  0  0  0  0999 V2000
   43.7190   83.1760   62.9890 C   0  0  1  0  0  0  0  0  0  0  0  0
   44.8890   82.2430   63.2310 C   0  0  0  0  0  0  0  0  0  0  0  0
   44.7570   83.0050   61.9440 C   0  0  2  0  0  0  0  0  0  0  0  0
   45.6420   84.0870   61.6340 N   0  0  0  0  0  0  0  0  0  0  0  0
   44.9250   85.3170   61.4450 C   0  0  0  0  0  0  0  0  0  0  0  0
   44.4150   85.3250   60.0170 C   0  0  0  0  0  0  0  0  0  0  0  0
   45.6640   85.5940   59.1800 C   0  0  0  0  0  0  0  0  0  0  0  0
   46.5290   84.3880   59.3310 C   0  0  0  0  0  0  0  0  0  0  0  0
   46.6650   83.8260   60.6910 C   0  0  0  0  0  0  0  0  0  0  0  0
   42.4930   82.4900   62.7900 O   0  0  0  0  0  0  0  0  0  0  0  0
   40.4740   84.4230   60.4890 C   0  0  0  0  0  0  0  0  0  0  0  0
   39.1880   84.2150   60.9800 C   0  0  0  0  0  0  0  0  0  0  0  0
   39.0510   83.3940   62.1160 C   0  0  0  0  0  0  0  0  0  0  0  0
   40.1900   82.8800   62.6320 N   0  0  0  0  0  0  0  0  0  0  0  0
   41.4230   83.0880   62.1480 C   0  0  0  0  0  0  0  0  0  0  0  0
   41.5690   83.8650   61.0700 N   0  0  0  0  0  0  0  0  0  0  0  0
   43.2795   84.0541   63.4846 H   0  0  0  0  0  0  0  0  0  0  0  0
   45.6710   82.5130   63.9560 H   0  0  0  0  0  0  0  0  0  0  0  0
   45.0041   81.1846   63.5077 H   0  0  0  0  0  0  0  0  0  0  0  0
   44.7523   82.7181   60.8821 H   0  0  0  0  0  0  0  0  0  0  0  0
   44.0800   85.3722   62.1471 H   0  0  0  0  0  0  0  0  0  0  0  0
   45.5787   86.1820   61.6306 H   0  0  0  0  0  0  0  0  0  0  0  0
   43.9706   84.3535   59.7551 H   0  0  0  0  0  0  0  0  0  0  0  0
   43.6263   86.0741   59.8533 H   0  0  0  0  0  0  0  0  0  0  0  0
   46.1869   86.4880   59.5505 H   0  0  0  0  0  0  0  0  0  0  0  0
   45.4100   85.7777   58.1256 H   0  0  0  0  0  0  0  0  0  0  0  0
   46.1143   83.5993   58.6860 H   0  0  0  0  0  0  0  0  0  0  0  0
   47.5399   84.7257   59.0590 H   0  0  0  0  0  0  0  0  0  0  0  0
   46.7385   82.7336   60.5853 H   0  0  0  0  0  0  0  0  0  0  0  0
   47.5493   84.3326   61.1051 H   0  0  0  0  0  0  0  0  0  0  0  0
   40.6084   85.0596   59.6020 H   0  0  0  0  0  0  0  0  0  0  0  0
   38.3120   84.6745   60.4988 H   0  0  0  0  0  0  0  0  0  0  0  0
   38.0675   83.1818   62.5607 H   0  0  0  0  0  0  0  0  0  0  0  0
  1  2  1  0
  3  1  1  0
  3  2  1  0
  4  3  1  0
  5  4  1  0
  6  5  1  0
  7  8  1  0
  7  6  1  0
  8  9  1  0
  9  4  1  0
 10  1  1  0
 11 12  2  0
 11 16  1  0
 12 13  1  0
 13 14  2  0
 15 14  1  0
 15 10  1  0
 16 15  2  0
  1 17  1  1
  2 18  1  0
  2 19  1  0
  3 20  1  6
  5 21  1  0
  5 22  1  0
  6 23  1  0
  6 24  1  0
  7 25  1  0
  7 26  1  0
  8 27  1  0
  8 28  1  0
  9 29  1  0
  9 30  1  0
 11 31  1  0
 12 32  1  0
 13 33  1  0
M  ISO  8  17  13  18  13  19  13  20  13  21  13  22  13  23  13  24  13
M  ISO  8  25  13  26  13  27  13  28  13  29  13  30  13  31  14  32  14
M  ISO  1  33  14
M  END
>  <minimizedAffinity>  (1) 
-4.21629

>  <minimizedRMSD>  (1) 
4.506248

$$$$
