
     RDKit          3D

 31 33  0  0  1  0  0  0  0  0999 V2000
   43.3230   85.8640   60.7770 C   0  0  1  0  0  0  0  0  0  0  0  0
   44.2710   87.0420   60.9430 C   0  0  0  0  0  0  0  0  0  0  0  0
   44.3340   86.1400   59.7380 C   0  0  2  0  0  0  0  0  0  0  0  0
   44.0590   86.7670   58.4400 C   0  0  0  0  0  0  0  0  0  0  0  0
   45.2140   86.4090   57.4900 C   0  0  0  0  0  0  0  0  0  0  0  0
   46.2000   87.5240   57.6100 C   0  0  0  0  0  0  0  0  0  0  0  0
   45.3810   88.7330   58.0060 C   0  0  0  0  0  0  0  0  0  0  0  0
   43.9880   88.2370   58.3470 C   0  0  0  0  0  0  0  0  0  0  0  0
   43.6090   84.8040   61.6800 O   0  0  0  0  0  0  0  0  0  0  0  0
   41.1350   82.5340   63.0480 C   0  0  0  0  0  0  0  0  0  0  0  0
   40.6390   83.2880   64.1110 C   0  0  0  0  0  0  0  0  0  0  0  0
   41.1670   84.5750   64.3450 C   0  0  0  0  0  0  0  0  0  0  0  0
   42.1250   84.9670   63.4980 N   0  0  0  0  0  0  0  0  0  0  0  0
   42.6090   84.2430   62.4670 C   0  0  0  0  0  0  0  0  0  0  0  0
   42.1150   83.0220   62.2390 N   0  0  0  0  0  0  0  0  0  0  0  0
   42.2344   85.7084   60.7479 H   0  0  0  0  0  0  0  0  0  0  0  0
   43.8978   88.0722   60.8457 H   0  0  0  0  0  0  0  0  0  0  0  0
   44.9812   87.3788   61.7125 H   0  0  0  0  0  0  0  0  0  0  0  0
   45.0592   85.4746   59.2467 H   0  0  0  0  0  0  0  0  0  0  0  0
   43.0529   86.3864   58.2099 H   0  0  0  0  0  0  0  0  0  0  0  0
   44.8487   86.3304   56.4554 H   0  0  0  0  0  0  0  0  0  0  0  0
   45.6654   85.4398   57.7487 H   0  0  0  0  0  0  0  0  0  0  0  0
   46.9494   87.2954   58.3821 H   0  0  0  0  0  0  0  0  0  0  0  0
   46.7520   87.6889   56.6729 H   0  0  0  0  0  0  0  0  0  0  0  0
   45.8315   89.2235   58.8815 H   0  0  0  0  0  0  0  0  0  0  0  0
   45.3455   89.4667   57.1872 H   0  0  0  0  0  0  0  0  0  0  0  0
   43.6622   88.6601   59.3087 H   0  0  0  0  0  0  0  0  0  0  0  0
   43.2647   88.5450   57.5776 H   0  0  0  0  0  0  0  0  0  0  0  0
   40.7281   81.5294   62.8603 H   0  0  0  0  0  0  0  0  0  0  0  0
   39.8465   82.8846   64.7585 H   0  0  0  0  0  0  0  0  0  0  0  0
   40.8145   85.2132   65.1687 H   0  0  0  0  0  0  0  0  0  0  0  0
  1  2  1  0
  1  9  1  0
  3  1  1  0
  3  2  1  0
  4  3  1  0
  5  6  1  0
  5  4  1  0
  6  7  1  0
  7  8  1  0
  8  4  1  0
  9 14  1  0
 10 11  2  0
 11 12  1  0
 13 12  2  0
 14 13  1  0
 15 14  2  0
 15 10  1  0
  1 16  1  6
  2 17  1  0
  2 18  1  0
  3 19  1  6
  4 20  1  0
  5 21  1  0
  5 22  1  0
  6 23  1  0
  6 24  1  0
  7 25  1  0
  7 26  1  0
  8 27  1  0
  8 28  1  0
 10 29  1  0
 11 30  1  0
 12 31  1  0
M  ISO  8  16  13  17  13  18  13  19  13  20  13  21  13  22  13  23  13
M  ISO  8  24  13  25  13  26  13  27  13  28  13  29  14  30  14  31  14
M  END
>  <minimizedAffinity>  (1) 
-3.98796606

>  <minimizedRMSD>  (1) 
1.864797

$$$$
