
     RDKit          3D

 22 23  0  0  1  0  0  0  0  0999 V2000
   42.2040   85.0510   59.8650 C   0  0  1  0  0  0  0  0  0  0  0  0
   42.9630   86.1210   59.1060 C   0  0  0  0  0  0  0  0  0  0  0  0
   42.9570   84.6630   58.6530 C   0  0  2  0  0  0  0  0  0  0  0  0
   41.4470   85.4050   56.8070 C   0  0  0  0  0  0  0  0  0  0  0  0
   41.6280   86.5880   57.2410 O   0  0  0  0  0  0  0  0  0  0  0  0
   42.1080   84.3690   57.4950 N   0  0  0  0  0  0  0  0  0  0  0  0
   42.7730   84.7600   61.1320 O   0  0  0  0  0  0  0  0  0  0  0  0
   40.0470   83.5040   63.1550 C   0  0  0  0  0  0  0  0  0  0  0  0
   40.4940   83.7640   64.4490 C   0  0  0  0  0  0  0  0  0  0  0  0
   41.7550   84.3800   64.5910 C   0  0  0  0  0  0  0  0  0  0  0  0
   42.4150   84.6620   63.4380 N   0  0  0  0  0  0  0  0  0  0  0  0
   41.9760   84.4080   62.2100 C   0  0  0  0  0  0  0  0  0  0  0  0
   40.7630   83.8140   62.0550 N   0  0  0  0  0  0  0  0  0  0  0  0
   41.1648   84.8753   60.1799 H   0  0  0  0  0  0  0  0  0  0  0  0
   42.4193   86.8837   58.5292 H   0  0  0  0  0  0  0  0  0  0  0  0
   43.7330   86.8668   59.3529 H   0  0  0  0  0  0  0  0  0  0  0  0
   43.7408   83.9282   58.4172 H   0  0  0  0  0  0  0  0  0  0  0  0
   40.8055   85.2018   55.9369 H   0  0  0  0  0  0  0  0  0  0  0  0
   41.9936   83.3947   57.1811 H   0  0  0  0  0  0  0  0  0  0  0  0
   39.0657   83.0242   63.0249 H   0  0  0  0  0  0  0  0  0  0  0  0
   39.8863   83.4988   65.3267 H   0  0  0  0  0  0  0  0  0  0  0  0
   42.1789   84.6180   65.5777 H   0  0  0  0  0  0  0  0  0  0  0  0
  1  7  1  0
  2  1  1  0
  3  2  1  0
  3  1  1  0
  4  5  2  0
  4  6  1  0
  6  3  1  0
  7 12  1  0
  8  9  2  0
  9 10  1  0
 11 10  2  0
 12 11  1  0
 13 12  2  0
 13  8  1  0
  1 14  1  1
  2 15  1  0
  2 16  1  0
  3 17  1  1
  4 18  1  0
  6 19  1  0
  8 20  1  0
  9 21  1  0
 10 22  1  0
M  ISO  8  14  13  15  13  16  13  17  13  18   6  20  14  21  14  22  14
M  END
>  <minimizedAffinity>  (1) 
-3.97948718

>  <minimizedRMSD>  (1) 
0.842217326

$$$$
