
     RDKit          3D

 36 39  0  0  1  0  0  0  0  0999 V2000
   40.7340   81.3020   57.3640 C   0  0  0  0  0  0  0  0  0  0  0  0
   41.2750   82.1900   56.4110 C   0  0  0  0  0  0  0  0  0  0  0  0
   41.6590   83.4350   56.8780 C   0  0  0  0  0  0  0  0  0  0  0  0
   41.5120   83.7550   58.1800 N   0  0  0  0  0  0  0  0  0  0  0  0
   40.9830   82.8720   59.0790 C   0  0  0  0  0  0  0  0  0  0  0  0
   40.6010   81.6550   58.6520 N   0  0  0  0  0  0  0  0  0  0  0  0
   39.5610   83.1130   61.0550 C   0  0  0  0  0  0  0  0  0  0  0  0
   40.8210   83.2150   60.4870 C   0  0  0  0  0  0  0  0  0  0  0  0
   41.9100   83.6310   61.2320 C   0  0  0  0  0  0  0  0  0  0  0  0
   41.7780   83.9600   62.5650 C   0  0  0  0  0  0  0  0  0  0  0  0
   42.5640   84.3850   63.5680 N   0  0  0  0  0  0  0  0  0  0  0  0
   41.8540   84.5460   64.7100 C   0  0  0  0  0  0  0  0  0  0  0  0
   40.5850   84.2020   64.3780 N   0  0  0  0  0  0  0  0  0  0  0  0
   40.5020   83.8420   63.0830 C   0  0  0  0  0  0  0  0  0  0  0  0
   39.3790   83.4320   62.3920 C   0  0  0  0  0  0  0  0  0  0  0  0
   42.6730   83.8440   54.6450 C   0  0  1  0  0  0  0  0  0  0  0  0
   42.2360   84.4370   55.9680 C   0  0  2  0  0  0  0  0  0  0  0  0
   43.3930   84.9760   56.4860 O   0  0  0  0  0  0  0  0  0  0  0  0
   44.4670   84.2040   56.1090 C   0  0  0  0  0  0  0  0  0  0  0  0
   44.1620   83.5880   54.7680 C   0  0  2  0  0  0  0  0  0  0  0  0
   41.9530   82.7030   54.2940 O   0  0  0  0  0  0  0  0  0  0  0  0
   44.8560   84.3250   53.8060 O   0  0  0  0  0  0  0  0  0  0  0  0
   40.4144   80.2990   57.0448 H   0  0  0  0  0  0  0  0  0  0  0  0
   41.3858   81.9082   55.3535 H   0  0  0  0  0  0  0  0  0  0  0  0
   38.7073   82.7798   60.4466 H   0  0  0  0  0  0  0  0  0  0  0  0
   42.8979   83.7006   60.7532 H   0  0  0  0  0  0  0  0  0  0  0  0
   43.5744   84.5649   63.4801 H   0  0  0  0  0  0  0  0  0  0  0  0
   42.2246   84.8815   65.6898 H   0  0  0  0  0  0  0  0  0  0  0  0
   38.3936   83.3623   62.8759 H   0  0  0  0  0  0  0  0  0  0  0  0
   42.4652   84.5423   53.8209 H   0  0  0  0  0  0  0  0  0  0  0  0
   41.4344   85.1787   55.8365 H   0  0  0  0  0  0  0  0  0  0  0  0
   45.3674   84.8314   56.0336 H   0  0  0  0  0  0  0  0  0  0  0  0
   44.6466   83.4159   56.8551 H   0  0  0  0  0  0  0  0  0  0  0  0
   44.4333   82.5282   54.6530 H   0  0  0  0  0  0  0  0  0  0  0  0
   41.6572   82.2342   55.1142 H   0  0  0  0  0  0  0  0  0  0  0  0
   45.4608   84.9673   54.2553 H   0  0  0  0  0  0  0  0  0  0  0  0
  1  6  2  0
  2  3  2  0
  2  1  1  0
  3  4  1  0
  4  5  2  0
  5  8  1  0
  6  5  1  0
  7 15  2  0
  8  7  1  0
  8  9  2  0
  9 10  1  0
 10 14  2  0
 10 11  1  0
 11 12  1  0
 13 12  2  0
 14 13  1  0
 15 14  1  0
 16 21  1  0
 16 20  1  0
 16 17  1  0
 17 18  1  0
 17  3  1  0
 19 18  1  0
 20 22  1  0
 20 19  1  0
  1 23  1  0
  2 24  1  0
  7 25  1  0
  9 26  1  0
 11 27  1  0
 12 28  1  0
 15 29  1  0
 16 30  1  6
 17 31  1  6
 19 32  1  0
 19 33  1  0
 20 34  1  1
 21 35  1  0
 22 36  1  0
M  ISO  8  23  14  24  14  25  14  26  14  27   9  28  14  29  14  30  13
M  ISO  6  31  13  32  13  33  13  34  13  35   3  36   3
M  END
>  <minimizedAffinity>  (1) 
-5.27589989

>  <minimizedRMSD>  (1) 
0.83549577

$$$$
