
     RDKit          3D

 19 20  0  0  1  0  0  0  0  0999 V2000
   42.7710   84.4740   60.7940 O   0  0  0  0  0  0  0  0  0  0  0  0
   40.0270   83.5290   62.9270 C   0  0  0  0  0  0  0  0  0  0  0  0
   40.5490   83.7930   64.2110 C   0  0  0  0  0  0  0  0  0  0  0  0
   41.8770   84.3070   64.3050 C   0  0  0  0  0  0  0  0  0  0  0  0
   42.5280   84.4980   63.1290 N   0  0  0  0  0  0  0  0  0  0  0  0
   42.0240   84.2450   61.9250 C   0  0  0  0  0  0  0  0  0  0  0  0
   40.7830   83.7630   61.8020 N   0  0  0  0  0  0  0  0  0  0  0  0
   42.4120   85.3850   59.7900 C   0  0  1  0  0  0  0  0  0  0  0  0
   43.4410   86.4680   59.5580 C   0  0  0  0  0  0  0  0  0  0  0  0
   43.1690   85.3880   58.5160 C   0  0  1  0  0  0  0  0  0  0  0  0
   44.3690   84.0420   58.3080 S   0  0  0  0  0  0  0  0  0  0  0  0
   39.0061   83.1324   62.8247 H   0  0  0  0  0  0  0  0  0  0  0  0
   39.9491   83.6078   65.1143 H   0  0  0  0  0  0  0  0  0  0  0  0
   42.3458   84.5351   65.2736 H   0  0  0  0  0  0  0  0  0  0  0  0
   41.3357   85.3338   60.0110 H   0  0  0  0  0  0  0  0  0  0  0  0
   43.1229   87.5054   59.3772 H   0  0  0  0  0  0  0  0  0  0  0  0
   44.3271   86.8395   60.0936 H   0  0  0  0  0  0  0  0  0  0  0  0
   42.9224   85.4146   57.4443 H   0  0  0  0  0  0  0  0  0  0  0  0
   44.7694   83.5929   59.5388 H   0  0  0  0  0  0  0  0  0  0  0  0
  1  6  1  0
  2  3  2  0
  3  4  1  0
  5  4  2  0
  6  5  1  0
  7  6  2  0
  7  2  1  0
  8  1  1  0
  9  8  1  0
 10  9  1  0
 10  8  1  0
 11 10  1  0
  2 12  1  0
  3 13  1  0
  4 14  1  0
  8 15  1  6
  9 16  1  0
  9 17  1  0
 10 18  1  6
 11 19  1  0
M  ISO  8  12  14  13  14  14  14  15  13  16  13  17  13  18  13  19  11
M  END
>  <minimizedAffinity>  (1) 
-3.41486287

>  <minimizedRMSD>  (1) 
0.0833642334

$$$$
