
     RDKit          3D

 20 21  0  0  1  0  0  0  0  0999 V2000
   42.8400   84.6070   60.8810 O   0  0  0  0  0  0  0  0  0  0  0  0
   40.0370   83.5300   62.8850 C   0  0  0  0  0  0  0  0  0  0  0  0
   40.4980   83.7420   64.1890 C   0  0  0  0  0  0  0  0  0  0  0  0
   41.8080   84.2690   64.3410 C   0  0  0  0  0  0  0  0  0  0  0  0
   42.5160   84.5280   63.2100 N   0  0  0  0  0  0  0  0  0  0  0  0
   42.0450   84.3120   61.9640 C   0  0  0  0  0  0  0  0  0  0  0  0
   40.8180   83.8180   61.7950 N   0  0  0  0  0  0  0  0  0  0  0  0
   42.3960   85.4090   59.7990 C   0  0  1  0  0  0  0  0  0  0  0  0
   43.4240   86.4430   59.3840 C   0  0  0  0  0  0  0  0  0  0  0  0
   43.0890   85.2620   58.4970 C   0  0  1  0  0  0  0  0  0  0  0  0
   44.0780   84.2040   58.3930 N   0  0  0  0  0  0  0  0  0  0  0  0
   39.0265   83.1236   62.7308 H   0  0  0  0  0  0  0  0  0  0  0  0
   39.8705   83.5096   65.0620 H   0  0  0  0  0  0  0  0  0  0  0  0
   42.2338   84.4605   65.3370 H   0  0  0  0  0  0  0  0  0  0  0  0
   41.3332   85.3964   60.0825 H   0  0  0  0  0  0  0  0  0  0  0  0
   43.1062   87.4570   59.0997 H   0  0  0  0  0  0  0  0  0  0  0  0
   44.3416   86.8601   59.8245 H   0  0  0  0  0  0  0  0  0  0  0  0
   42.7629   85.1493   57.4525 H   0  0  0  0  0  0  0  0  0  0  0  0
   44.3594   83.9030   59.3370 H   0  0  0  0  0  0  0  0  0  0  0  0
   43.6737   83.4049   57.8841 H   0  0  0  0  0  0  0  0  0  0  0  0
  1  6  1  0
  2  3  2  0
  3  4  1  0
  5  4  2  0
  6  5  1  0
  7  6  2  0
  7  2  1  0
  8  1  1  0
  9  8  1  0
 10  9  1  0
 10  8  1  0
 11 10  1  0
  2 12  1  0
  3 13  1  0
  4 14  1  0
  8 15  1  6
  9 16  1  0
  9 17  1  0
 10 18  1  6
 11 19  1  0
 11 20  1  0
M  ISO  8  12  14  13  14  14  14  15  13  16  13  17  13  18  13  19   5
M  ISO  1  20   5
M  END
>  <minimizedAffinity>  (1) 
-3.4096489

>  <minimizedRMSD>  (1) 
0.0767259225

$$$$
