
     RDKit          3D

 32 34  0  0  1  0  0  0  0  0999 V2000
   43.9730   85.8020   61.2900 C   0  0  1  0  0  0  0  0  0  0  0  0
   44.7950   85.7960   60.0060 C   0  0  0  0  0  0  0  0  0  0  0  0
   43.2980   86.0530   60.0080 C   0  0  1  0  0  0  0  0  0  0  0  0
   43.8980   84.4950   61.8630 O   0  0  0  0  0  0  0  0  0  0  0  0
   41.1040   82.5800   63.1400 C   0  0  0  0  0  0  0  0  0  0  0  0
   40.5480   83.4590   64.0680 C   0  0  0  0  0  0  0  0  0  0  0  0
   41.1700   84.7180   64.2280 C   0  0  0  0  0  0  0  0  0  0  0  0
   42.2580   84.9490   63.4570 N   0  0  0  0  0  0  0  0  0  0  0  0
   42.7860   84.0930   62.5640 C   0  0  0  0  0  0  0  0  0  0  0  0
   42.2200   82.9040   62.3940 N   0  0  0  0  0  0  0  0  0  0  0  0
   42.4550   85.0380   59.5320 O   0  0  0  0  0  0  0  0  0  0  0  0
   41.5450   84.8550   57.3180 C   0  0  2  0  0  0  0  0  0  0  0  0
   42.7690   84.7630   58.2090 C   0  0  2  0  0  0  0  0  0  0  0  0
   43.2580   83.4780   58.0330 O   0  0  0  0  0  0  0  0  0  0  0  0
   42.9660   83.0850   56.7450 C   0  0  0  0  0  0  0  0  0  0  0  0
   42.0190   84.0540   56.1220 C   0  0  2  0  0  0  0  0  0  0  0  0
   41.2500   86.1700   56.9760 O   0  0  0  0  0  0  0  0  0  0  0  0
   42.6170   84.8990   55.1910 O   0  0  0  0  0  0  0  0  0  0  0  0
   43.9529   86.3463   62.2457 H   0  0  0  0  0  0  0  0  0  0  0  0
   45.1967   84.8528   59.6073 H   0  0  0  0  0  0  0  0  0  0  0  0
   45.6871   86.3225   59.6359 H   0  0  0  0  0  0  0  0  0  0  0  0
   42.6614   86.8555   59.6072 H   0  0  0  0  0  0  0  0  0  0  0  0
   40.6376   81.5941   62.9969 H   0  0  0  0  0  0  0  0  0  0  0  0
   39.6587   83.1832   64.6537 H   0  0  0  0  0  0  0  0  0  0  0  0
   40.7914   85.4674   64.9387 H   0  0  0  0  0  0  0  0  0  0  0  0
   40.6146   84.4895   57.7770 H   0  0  0  0  0  0  0  0  0  0  0  0
   43.5303   85.5105   57.9413 H   0  0  0  0  0  0  0  0  0  0  0  0
   43.8936   83.0506   56.1548 H   0  0  0  0  0  0  0  0  0  0  0  0
   42.5023   82.0877   56.7666 H   0  0  0  0  0  0  0  0  0  0  0  0
   41.2272   83.5425   55.5551 H   0  0  0  0  0  0  0  0  0  0  0  0
   41.1297   86.7061   57.7995 H   0  0  0  0  0  0  0  0  0  0  0  0
   43.1193   85.6088   55.6643 H   0  0  0  0  0  0  0  0  0  0  0  0
  1  4  1  0
  2  3  1  0
  2  1  1  0
  3  1  1  0
  4  9  1  0
  5  6  2  0
  6  7  1  0
  8  7  2  0
  9  8  1  0
 10  9  2  0
 10  5  1  0
 11  3  1  0
 12 17  1  0
 12 13  1  0
 13 11  1  0
 14 13  1  0
 15 14  1  0
 16 18  1  0
 16 15  1  0
 16 12  1  0
  1 19  1  1
  2 20  1  0
  2 21  1  0
  3 22  1  1
  5 23  1  0
  6 24  1  0
  7 25  1  0
 12 26  1  1
 13 27  1  6
 15 28  1  0
 15 29  1  0
 16 30  1  6
 17 31  1  0
 18 32  1  0
M  ISO  8  19  13  20  13  21  13  22  13  23  14  24  14  25  14  26  13
M  ISO  6  27  13  28  13  29  13  30  13  31   3  32   3
M  END
>  <minimizedAffinity>  (1) 
-4.90419292

>  <minimizedRMSD>  (1) 
1.63229454

$$$$
