
     RDKit          3D

 36 38  0  0  1  0  0  0  0  0999 V2000
   42.6420   85.4040   59.9710 C   0  0  1  0  0  0  0  0  0  0  0  0
   43.7470   85.4690   58.9210 C   0  0  0  0  0  0  0  0  0  0  0  0
   42.3510   84.9290   58.6090 C   0  0  1  0  0  0  0  0  0  0  0  0
   42.9390   84.4370   60.9790 O   0  0  0  0  0  0  0  0  0  0  0  0
   40.0240   83.5970   62.9560 C   0  0  0  0  0  0  0  0  0  0  0  0
   40.4920   83.8130   64.2520 C   0  0  0  0  0  0  0  0  0  0  0  0
   41.8270   84.2500   64.4170 C   0  0  0  0  0  0  0  0  0  0  0  0
   42.5160   84.4140   63.2690 N   0  0  0  0  0  0  0  0  0  0  0  0
   42.0830   84.2130   62.0310 C   0  0  0  0  0  0  0  0  0  0  0  0
   40.8160   83.7960   61.8520 N   0  0  0  0  0  0  0  0  0  0  0  0
   42.2110   83.5610   58.4250 O   0  0  0  0  0  0  0  0  0  0  0  0
   41.2880   82.0520   56.7920 C   0  0  2  0  0  0  0  0  0  0  0  0
   41.0560   83.1740   57.7950 C   0  0  1  0  0  0  0  0  0  0  0  0
   40.0770   82.8110   58.7220 O   0  0  0  0  0  0  0  0  0  0  0  0
   40.3300   81.5250   59.1950 C   0  0  0  0  0  0  0  0  0  0  0  0
   39.9300   80.5360   58.1360 C   0  0  1  0  0  0  0  0  0  0  0  0
   40.0090   81.2390   56.7970 C   0  0  2  0  0  0  0  0  0  0  0  0
   42.3020   81.1890   57.2300 O   0  0  0  0  0  0  0  0  0  0  0  0
   40.8960   79.5160   58.1550 O   0  0  0  0  0  0  0  0  0  0  0  0
   40.0530   80.3430   55.7320 O   0  0  0  0  0  0  0  0  0  0  0  0
   42.1070   86.1014   60.6324 H   0  0  0  0  0  0  0  0  0  0  0  0
   44.0725   86.4381   58.5148 H   0  0  0  0  0  0  0  0  0  0  0  0
   44.7781   85.0961   58.8327 H   0  0  0  0  0  0  0  0  0  0  0  0
   41.5863   85.1638   57.8540 H   0  0  0  0  0  0  0  0  0  0  0  0
   38.9878   83.2565   62.8137 H   0  0  0  0  0  0  0  0  0  0  0  0
   39.8402   83.6479   65.1226 H   0  0  0  0  0  0  0  0  0  0  0  0
   42.2695   84.4415   65.4057 H   0  0  0  0  0  0  0  0  0  0  0  0
   41.5624   82.4696   55.8121 H   0  0  0  0  0  0  0  0  0  0  0  0
   40.6980   84.0460   57.2281 H   0  0  0  0  0  0  0  0  0  0  0  0
   41.4018   81.4163   59.4174 H   0  0  0  0  0  0  0  0  0  0  0  0
   39.7546   81.3434   60.1147 H   0  0  0  0  0  0  0  0  0  0  0  0
   38.9184   80.1376   58.3031 H   0  0  0  0  0  0  0  0  0  0  0  0
   39.1112   81.8619   56.6704 H   0  0  0  0  0  0  0  0  0  0  0  0
   42.3186   81.1749   58.2198 H   0  0  0  0  0  0  0  0  0  0  0  0
   41.1142   79.2856   59.0928 H   0  0  0  0  0  0  0  0  0  0  0  0
   40.0984   79.4176   56.0809 H   0  0  0  0  0  0  0  0  0  0  0  0
  1  4  1  0
  2  1  1  0
  3  2  1  0
  3  1  1  0
  4  9  1  0
  5  6  2  0
  6  7  1  0
  8  7  2  0
  9  8  1  0
 10  9  2  0
 10  5  1  0
 11  3  1  0
 12 17  1  0
 12 18  1  0
 12 13  1  0
 13 11  1  0
 13 14  1  0
 14 15  1  0
 16 19  1  0
 16 15  1  0
 17 20  1  0
 17 16  1  0
  1 21  1  1
  2 22  1  0
  2 23  1  0
  3 24  1  6
  5 25  1  0
  6 26  1  0
  7 27  1  0
 12 28  1  6
 13 29  1  6
 15 30  1  0
 15 31  1  0
 16 32  1  1
 17 33  1  6
 18 34  1  0
 19 35  1  0
 20 36  1  0
M  ISO  8  21  13  22  13  23  13  24  13  25  14  26  14  27  14  28  13
M  ISO  8  29  13  30  13  31  13  32  13  33  13  34   3  35   3  36   3
M  END
>  <minimizedAffinity>  (1) 
-4.47951698

>  <minimizedRMSD>  (1) 
2.60766721

$$$$
