
     RDKit          3D

 29 31  0  0  1  0  0  0  0  0999 V2000
   42.1660   85.3440   59.6850 C   0  0  1  0  0  0  0  0  0  0  0  0
   43.1600   85.4560   58.5340 C   0  0  0  0  0  0  0  0  0  0  0  0
   41.9360   84.5420   58.4550 C   0  0  1  0  0  0  0  0  0  0  0  0
   42.7360   84.7050   60.8130 O   0  0  0  0  0  0  0  0  0  0  0  0
   40.0510   83.5050   62.9210 C   0  0  0  0  0  0  0  0  0  0  0  0
   40.5710   83.7350   64.2070 C   0  0  0  0  0  0  0  0  0  0  0  0
   41.8620   84.3100   64.2990 C   0  0  0  0  0  0  0  0  0  0  0  0
   42.4750   84.5850   63.1370 N   0  0  0  0  0  0  0  0  0  0  0  0
   41.9710   84.3620   61.9090 C   0  0  0  0  0  0  0  0  0  0  0  0
   40.7650   83.8250   61.7800 N   0  0  0  0  0  0  0  0  0  0  0  0
   42.1210   83.1800   58.5530 O   0  0  0  0  0  0  0  0  0  0  0  0
   41.3180   82.3000   57.8550 C   0  0  0  0  0  0  0  0  0  0  0  0
   41.7670   82.2580   56.5320 C   0  0  0  0  0  0  0  0  0  0  0  0
   41.1440   81.4460   55.5750 C   0  0  0  0  0  0  0  0  0  0  0  0
   40.0550   80.6610   55.9410 C   0  0  0  0  0  0  0  0  0  0  0  0
   39.6330   80.7220   57.2520 C   0  0  0  0  0  0  0  0  0  0  0  0
   40.2380   81.5170   58.2020 C   0  0  0  0  0  0  0  0  0  0  0  0
   41.5090   86.0140   60.2590 H   0  0  0  0  0  0  0  0  0  0  0  0
   43.2073   86.3735   57.9290 H   0  0  0  0  0  0  0  0  0  0  0  0
   44.2464   85.3302   58.4159 H   0  0  0  0  0  0  0  0  0  0  0  0
   41.1115   84.4294   57.7356 H   0  0  0  0  0  0  0  0  0  0  0  0
   39.0506   83.0591   62.8195 H   0  0  0  0  0  0  0  0  0  0  0  0
   39.9960   83.4777   65.1088 H   0  0  0  0  0  0  0  0  0  0  0  0
   42.3362   84.5197   65.2692 H   0  0  0  0  0  0  0  0  0  0  0  0
   42.6278   82.8755   56.2358 H   0  0  0  0  0  0  0  0  0  0  0  0
   41.5141   81.4292   54.5393 H   0  0  0  0  0  0  0  0  0  0  0  0
   39.5484   80.0142   55.2096 H   0  0  0  0  0  0  0  0  0  0  0  0
   38.7726   80.1070   57.5545 H   0  0  0  0  0  0  0  0  0  0  0  0
   39.8596   81.5264   59.2348 H   0  0  0  0  0  0  0  0  0  0  0  0
  1  4  1  0
  2  1  1  0
  3  2  1  0
  3 11  1  0
  3  1  1  0
  4  9  1  0
  5  6  2  0
  6  7  1  0
  8  7  2  0
  9  8  1  0
 10  9  2  0
 10  5  1  0
 12 17  1  0
 12 11  1  0
 13 12  2  0
 14 15  2  0
 14 13  1  0
 15 16  1  0
 16 17  2  0
  1 18  1  1
  2 19  1  0
  2 20  1  0
  3 21  1  6
  5 22  1  0
  6 23  1  0
  7 24  1  0
 13 25  1  0
 14 26  1  0
 15 27  1  0
 16 28  1  0
 17 29  1  0
M  ISO  8  18  13  19  13  20  13  21  13  22  14  23  14  24  14  25  14
M  ISO  4  26  14  27  14  28  14  29  14
M  END
>  <minimizedAffinity>  (1) 
-4.32836294

>  <minimizedRMSD>  (1) 
2.72162652

$$$$
