
     RDKit          3D

 28 30  0  0  1  0  0  0  0  0999 V2000
   41.7940   85.3550   59.4780 C   0  0  1  0  0  0  0  0  0  0  0  0
   42.7870   85.9330   58.4730 C   0  0  0  0  0  0  0  0  0  0  0  0
   41.8260   84.8000   58.1150 C   0  0  1  0  0  0  0  0  0  0  0  0
   42.4550   84.6570   60.5260 O   0  0  0  0  0  0  0  0  0  0  0  0
   39.9570   83.5320   62.8900 C   0  0  0  0  0  0  0  0  0  0  0  0
   40.6110   83.7140   64.1090 C   0  0  0  0  0  0  0  0  0  0  0  0
   41.9330   84.2350   64.0800 C   0  0  0  0  0  0  0  0  0  0  0  0
   42.4290   84.5040   62.8640 N   0  0  0  0  0  0  0  0  0  0  0  0
   41.7960   84.3270   61.6890 C   0  0  0  0  0  0  0  0  0  0  0  0
   40.5600   83.8420   61.6840 N   0  0  0  0  0  0  0  0  0  0  0  0
   42.3660   83.5130   57.9790 O   0  0  0  0  0  0  0  0  0  0  0  0
   41.5000   82.4840   57.5960 C   0  0  0  0  0  0  0  0  0  0  0  0
   40.8290   81.8600   58.6360 C   0  0  0  0  0  0  0  0  0  0  0  0
   39.9400   80.8210   58.3590 C   0  0  0  0  0  0  0  0  0  0  0  0
   39.7970   80.4900   57.0140 C   0  0  0  0  0  0  0  0  0  0  0  0
   40.4690   81.1150   55.9730 C   0  0  0  0  0  0  0  0  0  0  0  0
   41.3050   82.1040   56.3260 N   0  0  0  0  0  0  0  0  0  0  0  0
   40.9602   85.7137   60.0994 H   0  0  0  0  0  0  0  0  0  0  0  0
   42.6372   86.9413   58.0596 H   0  0  0  0  0  0  0  0  0  0  0  0
   43.8752   86.0894   58.4359 H   0  0  0  0  0  0  0  0  0  0  0  0
   41.0826   84.6496   57.3183 H   0  0  0  0  0  0  0  0  0  0  0  0
   38.9328   83.1306   62.8878 H   0  0  0  0  0  0  0  0  0  0  0  0
   40.1199   83.4627   65.0606 H   0  0  0  0  0  0  0  0  0  0  0  0
   42.5133   84.4069   64.9985 H   0  0  0  0  0  0  0  0  0  0  0  0
   40.9965   82.1823   59.6743 H   0  0  0  0  0  0  0  0  0  0  0  0
   39.3873   80.2967   59.1525 H   0  0  0  0  0  0  0  0  0  0  0  0
   39.1026   79.6760   56.7587 H   0  0  0  0  0  0  0  0  0  0  0  0
   40.3254   80.8183   54.9236 H   0  0  0  0  0  0  0  0  0  0  0  0
  1  4  1  0
  2  1  1  0
  3  2  1  0
  3  1  1  0
  4  9  1  0
  5  6  2  0
  7  6  1  0
  8  7  2  0
  9  8  1  0
 10  9  2  0
 10  5  1  0
 11  3  1  0
 12 11  1  0
 12 13  2  0
 14 13  1  0
 15 14  2  0
 16 17  2  0
 16 15  1  0
 17 12  1  0
  1 18  1  1
  2 19  1  0
  2 20  1  0
  3 21  1  6
  5 22  1  0
  6 23  1  0
  7 24  1  0
 13 25  1  0
 14 26  1  0
 15 27  1  0
 16 28  1  0
M  ISO  8  18  13  19  13  20  13  21  13  22  14  23  14  24  14  25  14
M  ISO  3  26  14  27  14  28  14
M  END
>  <minimizedAffinity>  (1) 
-4.26405191

>  <minimizedRMSD>  (1) 
2.68875718

$$$$
