
     RDKit          3D

 21 22  0  0  1  0  0  0  0  0999 V2000
   42.1900   85.2920   59.7570 C   0  0  1  0  0  0  0  0  0  0  0  0
   43.1140   85.2420   58.5450 C   0  0  0  0  0  0  0  0  0  0  0  0
   41.7190   84.6380   58.5250 C   0  0  1  0  0  0  0  0  0  0  0  0
   42.6830   84.4790   60.8190 O   0  0  0  0  0  0  0  0  0  0  0  0
   40.0040   83.5840   63.0800 C   0  0  0  0  0  0  0  0  0  0  0  0
   40.5760   83.8450   64.3240 C   0  0  0  0  0  0  0  0  0  0  0  0
   41.9020   84.3350   64.3460 C   0  0  0  0  0  0  0  0  0  0  0  0
   42.4770   84.4980   63.1440 N   0  0  0  0  0  0  0  0  0  0  0  0
   41.9320   84.2490   61.9460 C   0  0  0  0  0  0  0  0  0  0  0  0
   40.6890   83.7880   61.8950 N   0  0  0  0  0  0  0  0  0  0  0  0
   41.6160   83.2380   58.5560 O   0  0  0  0  0  0  0  0  0  0  0  0
   40.4000   82.5870   58.4070 C   0  0  0  0  0  0  0  0  0  0  0  0
   40.1620   81.6840   59.2780 O   0  0  0  0  0  0  0  0  0  0  0  0
   41.7299   86.0546   60.4026 H   0  0  0  0  0  0  0  0  0  0  0  0
   43.3320   86.1566   57.9741 H   0  0  0  0  0  0  0  0  0  0  0  0
   44.1338   84.8827   58.3429 H   0  0  0  0  0  0  0  0  0  0  0  0
   40.8436   84.7550   57.8692 H   0  0  0  0  0  0  0  0  0  0  0  0
   38.9730   83.2029   63.0388 H   0  0  0  0  0  0  0  0  0  0  0  0
   40.0157   83.6758   65.2554 H   0  0  0  0  0  0  0  0  0  0  0  0
   42.4269   84.5669   65.2844 H   0  0  0  0  0  0  0  0  0  0  0  0
   39.6940   82.8304   57.5993 H   0  0  0  0  0  0  0  0  0  0  0  0
  1  4  1  0
  2  1  1  0
  3  2  1  0
  3 11  1  0
  3  1  1  0
  4  9  1  0
  5  6  2  0
  6  7  1  0
  8  7  2  0
  9  8  1  0
 10  9  2  0
 10  5  1  0
 12 11  1  0
 12 13  2  0
  1 14  1  1
  2 15  1  0
  2 16  1  0
  3 17  1  6
  5 18  1  0
  6 19  1  0
  7 20  1  0
 12 21  1  0
M  ISO  8  14  13  15  13  16  13  17  13  18  14  19  14  20  14  21   6
M  END
>  <minimizedAffinity>  (1) 
-3.5524044

>  <minimizedRMSD>  (1) 
1.90392232

$$$$
