
     RDKit          3D

 27 28  0  0  1  0  0  0  0  0999 V2000
   41.4390   80.4110   61.9000 C   0  0  2  0  0  0  0  0  0  0  0  0
   40.6730   80.7220   60.6530 C   0  0  1  0  0  0  0  0  0  0  0  0
   39.7760   79.7220   60.3780 O   0  0  0  0  0  0  0  0  0  0  0  0
   40.4700   78.5630   60.0410 C   0  0  0  0  0  0  0  0  0  0  0  0
   41.2700   78.0340   61.2220 C   0  0  1  0  0  0  0  0  0  0  0  0
   41.2440   78.9850   62.3760 C   0  0  2  0  0  0  0  0  0  0  0  0
   40.0510   82.0610   60.7500 C   0  0  0  0  0  0  0  0  0  0  0  0
   40.2260   82.9480   59.6710 C   0  0  0  0  0  0  0  0  0  0  0  0
   39.6430   84.2180   59.7500 C   0  0  0  0  0  0  0  0  0  0  0  0
   38.9310   84.5300   60.8780 N   0  0  0  0  0  0  0  0  0  0  0  0
   38.7860   83.6500   61.8940 C   0  0  0  0  0  0  0  0  0  0  0  0
   39.3400   82.4320   61.8280 N   0  0  0  0  0  0  0  0  0  0  0  0
   41.0910   81.2160   62.9910 O   0  0  0  0  0  0  0  0  0  0  0  0
   40.7500   76.8140   61.6420 O   0  0  0  0  0  0  0  0  0  0  0  0
   40.1270   78.8520   63.1950 O   0  0  0  0  0  0  0  0  0  0  0  0
   42.4798   80.5956   61.5957 H   0  0  0  0  0  0  0  0  0  0  0  0
   41.3626   80.7614   59.7969 H   0  0  0  0  0  0  0  0  0  0  0  0
   39.7504   77.7943   59.7227 H   0  0  0  0  0  0  0  0  0  0  0  0
   41.1701   78.8021   59.2269 H   0  0  0  0  0  0  0  0  0  0  0  0
   42.3101   77.9131   60.8849 H   0  0  0  0  0  0  0  0  0  0  0  0
   42.0941   78.7142   63.0194 H   0  0  0  0  0  0  0  0  0  0  0  0
   40.8075   82.6499   58.7862 H   0  0  0  0  0  0  0  0  0  0  0  0
   39.7532   84.9438   58.9309 H   0  0  0  0  0  0  0  0  0  0  0  0
   38.2071   83.9371   62.7842 H   0  0  0  0  0  0  0  0  0  0  0  0
   41.2976   80.7380   63.8330 H   0  0  0  0  0  0  0  0  0  0  0  0
   40.7371   76.7838   62.6315 H   0  0  0  0  0  0  0  0  0  0  0  0
   40.4076   78.8854   64.1438 H   0  0  0  0  0  0  0  0  0  0  0  0
  1  6  1  0
  1 13  1  0
  2  7  1  0
  2  1  1  0
  3  2  1  0
  4  3  1  0
  4  5  1  0
  5 14  1  0
  5  6  1  0
  6 15  1  0
  7 12  2  0
  8  9  2  0
  8  7  1  0
  9 10  1  0
 10 11  2  0
 12 11  1  0
  1 16  1  6
  2 17  1  6
  4 18  1  0
  4 19  1  0
  5 20  1  6
  6 21  1  1
  8 22  1  0
  9 23  1  0
 11 24  1  0
 13 25  1  0
 14 26  1  0
 15 27  1  0
M  ISO  8  16  13  17  13  18  13  19  13  20  13  21  13  22  14  23  14
M  ISO  4  24  14  25   3  26   3  27   3
M  END
>  <minimizedAffinity>  (1) 
-5.46829939

>  <minimizedRMSD>  (1) 
0.480791748

$$$$
