
     RDKit          3D

 20 21  0  0  0  0  0  0  0  0999 V2000
   41.1000   83.1430   61.7220 C   0  0  0  0  0  0  0  0  0  0  0  0
   41.0000   83.9920   60.6100 C   0  0  0  0  0  0  0  0  0  0  0  0
   39.7920   84.5790   60.2390 C   0  0  0  0  0  0  0  0  0  0  0  0
   38.7210   84.2700   61.0290 N   0  0  0  0  0  0  0  0  0  0  0  0
   38.8340   83.4550   62.0900 C   0  0  0  0  0  0  0  0  0  0  0  0
   39.9990   82.8980   62.4380 N   0  0  0  0  0  0  0  0  0  0  0  0
   42.7160   84.8390   63.4930 Cl  0  0  0  0  0  0  0  0  0  0  0  0
   43.2300   83.2520   62.9070 C   0  0  0  0  0  0  0  0  0  0  0  0
   42.3810   82.5480   62.0780 C   0  0  0  0  0  0  0  0  0  0  0  0
   42.8450   81.3190   61.6600 C   0  0  0  0  0  0  0  0  0  0  0  0
   44.0790   80.8430   62.0550 C   0  0  0  0  0  0  0  0  0  0  0  0
   44.8980   81.5730   62.8820 C   0  0  0  0  0  0  0  0  0  0  0  0
   44.4680   82.7960   63.3150 C   0  0  0  0  0  0  0  0  0  0  0  0
   41.9007   84.2003   60.0139 H   0  0  0  0  0  0  0  0  0  0  0  0
   39.7064   85.2462   59.3687 H   0  0  0  0  0  0  0  0  0  0  0  0
   37.9395   83.2384   62.6925 H   0  0  0  0  0  0  0  0  0  0  0  0
   42.2182   80.7043   60.9972 H   0  0  0  0  0  0  0  0  0  0  0  0
   44.4141   79.8573   61.6998 H   0  0  0  0  0  0  0  0  0  0  0  0
   45.8790   81.1815   63.1891 H   0  0  0  0  0  0  0  0  0  0  0  0
   45.0980   83.4073   63.9779 H   0  0  0  0  0  0  0  0  0  0  0  0
  1  9  1  0
  1  6  1  0
  2  1  2  0
  3  2  1  0
  3  4  2  0
  4  5  1  0
  5  6  2  0
  8 13  2  0
  8  7  1  0
  9  8  1  0
 10 11  1  0
 10  9  2  0
 11 12  2  0
 12 13  1  0
  2 14  1  0
  3 15  1  0
  5 16  1  0
 10 17  1  0
 11 18  1  0
 12 19  1  0
 13 20  1  0
M  ISO  7  14  14  15  14  16  14  17  14  18  14  19  14  20  14
M  END
>  <minimizedAffinity>  (1) 
-4.82839251

>  <minimizedRMSD>  (1) 
3.63055968

$$$$
