
     RDKit          3D

 33 36  0  0  0  0  0  0  0  0999 V2000
   41.1660   82.4880   57.0600 C   0  0  0  0  0  0  0  0  0  0  0  0
   42.2650   83.1930   56.4900 C   0  0  0  0  0  0  0  0  0  0  0  0
   42.9760   84.0340   57.3300 C   0  0  0  0  0  0  0  0  0  0  0  0
   42.5940   84.1360   58.6220 N   0  0  0  0  0  0  0  0  0  0  0  0
   41.5490   83.4570   59.1340 C   0  0  0  0  0  0  0  0  0  0  0  0
   40.8390   82.6370   58.3550 N   0  0  0  0  0  0  0  0  0  0  0  0
   39.8640   83.2680   60.9090 C   0  0  0  0  0  0  0  0  0  0  0  0
   41.1790   83.6040   60.5340 C   0  0  0  0  0  0  0  0  0  0  0  0
   42.0730   84.0560   61.4760 C   0  0  0  0  0  0  0  0  0  0  0  0
   41.7230   84.1970   62.8150 C   0  0  0  0  0  0  0  0  0  0  0  0
   42.3150   84.5910   63.9500 N   0  0  0  0  0  0  0  0  0  0  0  0
   41.4290   84.5090   64.9820 C   0  0  0  0  0  0  0  0  0  0  0  0
   40.2620   84.0480   64.4370 N   0  0  0  0  0  0  0  0  0  0  0  0
   40.4230   83.8510   63.1140 C   0  0  0  0  0  0  0  0  0  0  0  0
   39.4700   83.3920   62.2310 C   0  0  0  0  0  0  0  0  0  0  0  0
   43.9460   86.1740   58.7610 F   0  0  0  0  0  0  0  0  0  0  0  0
   44.5840   85.8720   57.5950 C   0  0  0  0  0  0  0  0  0  0  0  0
   44.1180   84.8040   56.8580 C   0  0  0  0  0  0  0  0  0  0  0  0
   44.8080   84.5610   55.6990 C   0  0  0  0  0  0  0  0  0  0  0  0
   45.8920   85.3460   55.3170 C   0  0  0  0  0  0  0  0  0  0  0  0
   46.3160   86.3960   56.0840 C   0  0  0  0  0  0  0  0  0  0  0  0
   45.6390   86.6770   57.2730 C   0  0  0  0  0  0  0  0  0  0  0  0
   40.5741   81.8091   56.4285 H   0  0  0  0  0  0  0  0  0  0  0  0
   42.5366   83.0748   55.4306 H   0  0  0  0  0  0  0  0  0  0  0  0
   39.1507   82.9076   60.1531 H   0  0  0  0  0  0  0  0  0  0  0  0
   43.0951   84.3137   61.1615 H   0  0  0  0  0  0  0  0  0  0  0  0
   43.2917   84.9079   64.0305 H   0  0  0  0  0  0  0  0  0  0  0  0
   41.6141   84.7616   66.0365 H   0  0  0  0  0  0  0  0  0  0  0  0
   38.4511   83.1377   62.5584 H   0  0  0  0  0  0  0  0  0  0  0  0
   44.4975   83.7251   55.0549 H   0  0  0  0  0  0  0  0  0  0  0  0
   46.4186   85.1172   54.3788 H   0  0  0  0  0  0  0  0  0  0  0  0
   47.1745   87.0080   55.7702 H   0  0  0  0  0  0  0  0  0  0  0  0
   45.9428   87.5113   57.9224 H   0  0  0  0  0  0  0  0  0  0  0  0
  1  6  2  0
  2  1  1  0
  2  3  2  0
  3  4  1  0
  4  5  2  0
  5  8  1  0
  6  5  1  0
  7 15  2  0
  8  7  1  0
  8  9  2  0
  9 10  1  0
 10 14  2  0
 10 11  1  0
 11 12  1  0
 13 12  2  0
 14 13  1  0
 15 14  1  0
 17 16  1  0
 18  3  1  0
 18 17  2  0
 19 18  1  0
 20 19  2  0
 20 21  1  0
 21 22  2  0
 22 17  1  0
  1 23  1  0
  2 24  1  0
  7 25  1  0
  9 26  1  0
 11 27  1  0
 12 28  1  0
 15 29  1  0
 19 30  1  0
 20 31  1  0
 21 32  1  0
 22 33  1  0
M  ISO  8  23  14  24  14  25  14  26  14  27   9  28  14  29  14  30  14
M  ISO  3  31  14  32  14  33  14
M  END
>  <minimizedAffinity>  (1) 
-5.01337242

>  <minimizedRMSD>  (1) 
1.40515208

$$$$
