
     RDKit          3D

 18 19  0  0  0  0  0  0  0  0999 V2000
   39.8210   81.8780   61.1530 C   0  0  0  0  0  0  0  0  0  0  0  0
   40.0980   82.5130   59.9360 C   0  0  0  0  0  0  0  0  0  0  0  0
   39.7070   83.8610   59.7800 C   0  0  0  0  0  0  0  0  0  0  0  0
   39.0770   84.4640   60.8360 N   0  0  0  0  0  0  0  0  0  0  0  0
   38.8320   83.8120   61.9870 C   0  0  0  0  0  0  0  0  0  0  0  0
   39.2020   82.5220   62.1480 N   0  0  0  0  0  0  0  0  0  0  0  0
   40.2290   80.4840   61.3050 C   0  0  0  0  0  0  0  0  0  0  0  0
   40.4630   79.7230   60.1760 C   0  0  0  0  0  0  0  0  0  0  0  0
   40.8550   78.3880   60.2200 C   0  0  0  0  0  0  0  0  0  0  0  0
   40.9900   77.8880   61.4730 N   0  0  0  0  0  0  0  0  0  0  0  0
   40.7670   78.6150   62.5840 C   0  0  0  0  0  0  0  0  0  0  0  0
   40.3850   79.9210   62.4970 N   0  0  0  0  0  0  0  0  0  0  0  0
   40.6071   81.9756   59.1224 H   0  0  0  0  0  0  0  0  0  0  0  0
   39.9013   84.4066   58.8448 H   0  0  0  0  0  0  0  0  0  0  0  0
   38.3231   84.3364   62.8092 H   0  0  0  0  0  0  0  0  0  0  0  0
   40.3329   80.1963   59.1916 H   0  0  0  0  0  0  0  0  0  0  0  0
   41.0395   77.7898   59.3155 H   0  0  0  0  0  0  0  0  0  0  0  0
   40.8944   78.1502   63.5728 H   0  0  0  0  0  0  0  0  0  0  0  0
  1  7  1  0
  1  6  1  0
  2  1  2  0
  3  2  1  0
  3  4  2  0
  4  5  1  0
  5  6  2  0
  7 12  2  0
  8  9  2  0
  8  7  1  0
  9 10  1  0
 10 11  2  0
 12 11  1  0
  2 13  1  0
  3 14  1  0
  5 15  1  0
  8 16  1  0
  9 17  1  0
 11 18  1  0
M  ISO  6  13  14  14  14  15  14  16  14  17  14  18  14
M  END
>  <minimizedAffinity>  (1) 
-4.67097902

>  <minimizedRMSD>  (1) 
1.09626639

$$$$
