
     RDKit          3D

 37 40  0  0  0  0  0  0  0  0999 V2000
   40.2060   81.3120   57.2800 C   0  0  0  0  0  0  0  0  0  0  0  0
   41.2050   81.8510   56.4170 C   0  0  0  0  0  0  0  0  0  0  0  0
   42.0620   82.7890   56.9620 C   0  0  0  0  0  0  0  0  0  0  0  0
   41.9150   83.1390   58.2520 N   0  0  0  0  0  0  0  0  0  0  0  0
   40.9600   82.6140   59.0470 C   0  0  0  0  0  0  0  0  0  0  0  0
   40.1090   81.7050   58.5620 N   0  0  0  0  0  0  0  0  0  0  0  0
   39.5600   83.0300   61.0250 C   0  0  0  0  0  0  0  0  0  0  0  0
   40.8430   83.0320   60.4460 C   0  0  0  0  0  0  0  0  0  0  0  0
   41.9400   83.4150   61.1750 C   0  0  0  0  0  0  0  0  0  0  0  0
   41.8250   83.8100   62.5010 C   0  0  0  0  0  0  0  0  0  0  0  0
   42.6490   84.2290   63.4770 N   0  0  0  0  0  0  0  0  0  0  0  0
   41.9280   84.4790   64.6100 C   0  0  0  0  0  0  0  0  0  0  0  0
   40.6380   84.1990   64.2980 N   0  0  0  0  0  0  0  0  0  0  0  0
   40.5400   83.7880   63.0190 C   0  0  0  0  0  0  0  0  0  0  0  0
   39.4040   83.4180   62.3490 C   0  0  0  0  0  0  0  0  0  0  0  0
   43.0990   83.4030   56.2160 N   0  0  0  0  0  0  0  0  0  0  0  0
   43.5450   83.0150   54.8960 C   0  0  0  0  0  0  0  0  0  0  0  0
   43.5410   84.3130   54.0770 C   0  0  0  0  0  0  0  0  0  0  0  0
   44.7010   85.0550   54.4960 N   0  0  0  0  0  0  0  0  0  0  0  0
   45.0240   84.8470   55.8750 C   0  0  0  0  0  0  0  0  0  0  0  0
   43.8370   84.5320   56.7450 C   0  0  0  0  0  0  0  0  0  0  0  0
   39.5025   80.5616   56.8900 H   0  0  0  0  0  0  0  0  0  0  0  0
   41.2898   81.5352   55.3667 H   0  0  0  0  0  0  0  0  0  0  0  0
   38.6860   82.7228   60.4320 H   0  0  0  0  0  0  0  0  0  0  0  0
   42.9317   83.4091   60.6990 H   0  0  0  0  0  0  0  0  0  0  0  0
   43.6684   84.3440   63.3846 H   0  0  0  0  0  0  0  0  0  0  0  0
   42.3142   84.8344   65.5767 H   0  0  0  0  0  0  0  0  0  0  0  0
   38.4175   83.4278   62.8355 H   0  0  0  0  0  0  0  0  0  0  0  0
   44.5582   82.5890   54.9401 H   0  0  0  0  0  0  0  0  0  0  0  0
   42.8980   82.2444   54.4515 H   0  0  0  0  0  0  0  0  0  0  0  0
   42.6261   84.8890   54.2796 H   0  0  0  0  0  0  0  0  0  0  0  0
   43.5659   84.1059   52.9970 H   0  0  0  0  0  0  0  0  0  0  0  0
   45.5043   84.7617   53.9219 H   0  0  0  0  0  0  0  0  0  0  0  0
   45.7325   84.0081   55.9408 H   0  0  0  0  0  0  0  0  0  0  0  0
   45.4472   85.7918   56.2469 H   0  0  0  0  0  0  0  0  0  0  0  0
   43.1750   85.4097   56.7841 H   0  0  0  0  0  0  0  0  0  0  0  0
   44.1954   84.2787   57.7537 H   0  0  0  0  0  0  0  0  0  0  0  0
  1  6  2  0
  2  3  2  0
  2  1  1  0
  3  4  1  0
  4  5  2  0
  5  8  1  0
  6  5  1  0
  7 15  2  0
  8  7  1  0
  8  9  2  0
  9 10  1  0
 10 14  2  0
 10 11  1  0
 11 12  1  0
 13 12  2  0
 14 13  1  0
 15 14  1  0
 16 21  1  0
 16  3  1  0
 17 16  1  0
 18 19  1  0
 18 17  1  0
 19 20  1  0
 20 21  1  0
  1 22  1  0
  2 23  1  0
  7 24  1  0
  9 25  1  0
 11 26  1  0
 12 27  1  0
 15 28  1  0
 17 29  1  0
 17 30  1  0
 18 31  1  0
 18 32  1  0
 19 33  1  0
 20 34  1  0
 20 35  1  0
 21 36  1  0
 21 37  1  0
M  ISO  8  22  14  23  14  24  14  25  14  26   9  27  14  28  14  29  13
M  ISO  8  30  13  31  13  32  13  33   5  34  13  35  13  36  13  37  13
M  END
>  <minimizedAffinity>  (1) 
-4.98866034

>  <minimizedRMSD>  (1) 
0.525757611

$$$$
