
     RDKit          3D

 16 16  0  0  0  0  0  0  0  0999 V2000
   39.9630   81.9590   60.7310 C   0  0  0  0  0  0  0  0  0  0  0  0
   40.1070   82.8270   59.6400 C   0  0  0  0  0  0  0  0  0  0  0  0
   39.6080   84.1330   59.7550 C   0  0  0  0  0  0  0  0  0  0  0  0
   39.0090   84.4840   60.9250 N   0  0  0  0  0  0  0  0  0  0  0  0
   38.8820   83.6250   61.9650 C   0  0  0  0  0  0  0  0  0  0  0  0
   39.3570   82.3720   61.8630 N   0  0  0  0  0  0  0  0  0  0  0  0
   40.4260   80.5570   60.7830 C   0  0  0  0  0  0  0  0  0  0  0  0
   41.0090   80.1850   62.1200 C   0  0  0  0  0  0  0  0  0  0  0  0
   40.5997   82.4920   58.7153 H   0  0  0  0  0  0  0  0  0  0  0  0
   39.6981   84.8502   58.9259 H   0  0  0  0  0  0  0  0  0  0  0  0
   38.3902   83.9531   62.8926 H   0  0  0  0  0  0  0  0  0  0  0  0
   39.5710   79.8965   60.5763 H   0  0  0  0  0  0  0  0  0  0  0  0
   41.2209   80.4424   60.0314 H   0  0  0  0  0  0  0  0  0  0  0  0
   40.3745   80.5899   62.9221 H   0  0  0  0  0  0  0  0  0  0  0  0
   41.0562   79.0895   62.2074 H   0  0  0  0  0  0  0  0  0  0  0  0
   42.0224   80.6038   62.2074 H   0  0  0  0  0  0  0  0  0  0  0  0
  1  7  1  0
  1  6  2  0
  2  3  2  0
  2  1  1  0
  3  4  1  0
  4  5  2  0
  6  5  1  0
  7  8  1  0
  2  9  1  0
  3 10  1  0
  5 11  1  0
  7 12  1  0
  7 13  1  0
  8 14  1  0
  8 15  1  0
  8 16  1  0
M  ISO  8   9  14  10  14  11  14  12   8  13   8  14   8  15   8  16   8
M  END
>  <minimizedAffinity>  (1) 
-3.65389991

>  <minimizedRMSD>  (1) 
0.369870842

$$$$
