
     RDKit          3D

 13 13  0  0  0  0  0  0  0  0999 V2000
   39.9600   81.9430   60.8780 C   0  0  0  0  0  0  0  0  0  0  0  0
   40.1380   82.7270   59.7300 C   0  0  0  0  0  0  0  0  0  0  0  0
   39.6460   84.0480   59.7380 C   0  0  0  0  0  0  0  0  0  0  0  0
   39.0260   84.4670   60.8740 N   0  0  0  0  0  0  0  0  0  0  0  0
   38.8720   83.6890   61.9590 C   0  0  0  0  0  0  0  0  0  0  0  0
   39.3410   82.4160   61.9650 N   0  0  0  0  0  0  0  0  0  0  0  0
   40.4730   80.5450   60.8880 C   0  0  0  0  0  0  0  0  0  0  0  0
   40.6491   82.3214   58.8444 H   0  0  0  0  0  0  0  0  0  0  0  0
   39.7582   84.7093   58.8661 H   0  0  0  0  0  0  0  0  0  0  0  0
   38.3620   84.0872   62.8486 H   0  0  0  0  0  0  0  0  0  0  0  0
   40.5969   80.2073   61.9275 H   0  0  0  0  0  0  0  0  0  0  0  0
   39.7573   79.8881   60.3719 H   0  0  0  0  0  0  0  0  0  0  0  0
   41.4437   80.5069   60.3719 H   0  0  0  0  0  0  0  0  0  0  0  0
  1  7  1  0
  1  6  2  0
  2  3  2  0
  2  1  1  0
  3  4  1  0
  4  5  2  0
  5  6  1  0
  2  8  1  0
  3  9  1  0
  5 10  1  0
  7 11  1  0
  7 12  1  0
  7 13  1  0
M  ISO  6   8  14   9  14  10  14  11   8  12   8  13   8
M  END
>  <minimizedAffinity>  (1) 
-3.46332097

>  <minimizedRMSD>  (1) 
0.143511131

$$$$
