
     RDKit          3D

 12 12  0  0  0  0  0  0  0  0999 V2000
   40.0110   81.9640   60.7930 C   0  0  0  0  0  0  0  0  0  0  0  0
   40.1450   82.8200   59.6770 C   0  0  0  0  0  0  0  0  0  0  0  0
   39.6030   84.1120   59.7800 C   0  0  0  0  0  0  0  0  0  0  0  0
   38.9890   84.4500   60.9430 N   0  0  0  0  0  0  0  0  0  0  0  0
   38.8820   83.6060   61.9850 C   0  0  0  0  0  0  0  0  0  0  0  0
   39.3920   82.3690   61.9060 N   0  0  0  0  0  0  0  0  0  0  0  0
   40.6050   80.6940   60.5450 N   0  0  0  0  0  0  0  0  0  0  0  0
   40.6550   82.4870   58.7610 H   0  0  0  0  0  0  0  0  0  0  0  0
   39.6737   84.8261   58.9463 H   0  0  0  0  0  0  0  0  0  0  0  0
   38.3744   83.9321   62.9048 H   0  0  0  0  0  0  0  0  0  0  0  0
   41.0551   80.5042   59.6382 H   0  0  0  0  0  0  0  0  0  0  0  0
   40.5846   79.9650   61.2724 H   0  0  0  0  0  0  0  0  0  0  0  0
  1  6  2  0
  2  3  2  0
  2  1  1  0
  3  4  1  0
  4  5  2  0
  6  5  1  0
  7  1  1  0
  2  8  1  0
  3  9  1  0
  5 10  1  0
  7 11  1  0
  7 12  1  0
M  ISO  3   8  14   9  14  10  14
M  END
>  <minimizedAffinity>  (1) 
-3.3813467

>  <minimizedRMSD>  (1) 
0.0796533376

$$$$
