
     RDKit          3D

 19 20  0  0  0  0  0  0  0  0999 V2000
   41.6190   85.3140   58.9700 C   0  0  0  0  0  0  0  0  0  0  0  0
   40.3840   85.6620   58.4090 C   0  0  0  0  0  0  0  0  0  0  0  0
   39.2110   85.4200   59.1260 C   0  0  0  0  0  0  0  0  0  0  0  0
   39.3470   84.8480   60.3500 N   0  0  0  0  0  0  0  0  0  0  0  0
   40.5410   84.5270   60.8610 C   0  0  0  0  0  0  0  0  0  0  0  0
   41.6830   84.7500   60.1930 N   0  0  0  0  0  0  0  0  0  0  0  0
   42.7130   85.6210   58.1260 N   0  0  0  0  0  0  0  0  0  0  0  0
   40.5580   83.9180   62.1880 C   0  0  0  0  0  0  0  0  0  0  0  0
   41.2340   84.6800   63.1430 C   0  0  0  0  0  0  0  0  0  0  0  0
   41.1680   83.9790   64.3500 C   0  0  0  0  0  0  0  0  0  0  0  0
   40.4800   82.8600   64.0870 N   0  0  0  0  0  0  0  0  0  0  0  0
   40.1170   82.8160   62.8190 N   0  0  0  0  0  0  0  0  0  0  0  0
   40.3386   86.1225   57.4111 H   0  0  0  0  0  0  0  0  0  0  0  0
   38.2230   85.6804   58.7186 H   0  0  0  0  0  0  0  0  0  0  0  0
   42.5481   86.0537   57.2060 H   0  0  0  0  0  0  0  0  0  0  0  0
   43.6740   85.4117   58.4319 H   0  0  0  0  0  0  0  0  0  0  0  0
   41.7259   85.6497   62.9765 H   0  0  0  0  0  0  0  0  0  0  0  0
   41.5936   84.2835   65.3175 H   0  0  0  0  0  0  0  0  0  0  0  0
   40.2633   82.1312   64.7818 H   0  0  0  0  0  0  0  0  0  0  0  0
  1  6  2  0
  2  1  1  0
  2  3  2  0
  3  4  1  0
  4  5  2  0
  5  8  1  0
  6  5  1  0
  7  1  1  0
  8 12  2  0
  8  9  1  0
  9 10  2  0
 11 10  1  0
 12 11  1  0
  2 13  1  0
  3 14  1  0
  7 15  1  0
  7 16  1  0
  9 17  1  0
 10 18  1  0
 11 19  1  0
M  ISO  5  13  14  14  14  17  14  18  14  19   9
M  END
>  <minimizedAffinity>  (1) 
-4.51771164

>  <minimizedRMSD>  (1) 
3.60975289

$$$$
