
     RDKit          3D

 33 36  0  0  0  0  0  0  0  0999 V2000
   40.2060   81.2610   57.2860 C   0  0  0  0  0  0  0  0  0  0  0  0
   41.1250   81.8510   56.4000 C   0  0  0  0  0  0  0  0  0  0  0  0
   41.9400   82.8500   56.9010 C   0  0  0  0  0  0  0  0  0  0  0  0
   41.8250   83.2150   58.2020 N   0  0  0  0  0  0  0  0  0  0  0  0
   40.9260   82.6220   59.0250 C   0  0  0  0  0  0  0  0  0  0  0  0
   40.1090   81.6410   58.5760 N   0  0  0  0  0  0  0  0  0  0  0  0
   39.5480   83.0430   61.0150 C   0  0  0  0  0  0  0  0  0  0  0  0
   40.8240   83.0380   60.4230 C   0  0  0  0  0  0  0  0  0  0  0  0
   41.9330   83.4090   61.1430 C   0  0  0  0  0  0  0  0  0  0  0  0
   41.8240   83.8020   62.4740 C   0  0  0  0  0  0  0  0  0  0  0  0
   42.6680   84.2140   63.4410 N   0  0  0  0  0  0  0  0  0  0  0  0
   41.9770   84.4660   64.5690 C   0  0  0  0  0  0  0  0  0  0  0  0
   40.6640   84.1960   64.2770 N   0  0  0  0  0  0  0  0  0  0  0  0
   40.5490   83.7880   62.9990 C   0  0  0  0  0  0  0  0  0  0  0  0
   39.4060   83.4290   62.3370 C   0  0  0  0  0  0  0  0  0  0  0  0
   42.9130   83.5070   56.0570 C   0  0  0  0  0  0  0  0  0  0  0  0
   44.1040   84.0100   56.4700 C   0  0  0  0  0  0  0  0  0  0  0  0
   45.0390   84.6390   55.6740 C   0  0  0  0  0  0  0  0  0  0  0  0
   44.7480   84.7760   54.3300 C   0  0  0  0  0  0  0  0  0  0  0  0
   43.5520   84.2890   53.8300 C   0  0  0  0  0  0  0  0  0  0  0  0
   42.6660   83.6680   54.7060 C   0  0  0  0  0  0  0  0  0  0  0  0
   39.5451   80.4639   56.9147 H   0  0  0  0  0  0  0  0  0  0  0  0
   41.1930   81.5306   55.3499 H   0  0  0  0  0  0  0  0  0  0  0  0
   38.6666   82.7415   60.4300 H   0  0  0  0  0  0  0  0  0  0  0  0
   42.9217   83.3954   60.6610 H   0  0  0  0  0  0  0  0  0  0  0  0
   43.6869   84.3200   63.3334 H   0  0  0  0  0  0  0  0  0  0  0  0
   42.3828   84.8170   65.5293 H   0  0  0  0  0  0  0  0  0  0  0  0
   38.4233   83.4463   62.8309 H   0  0  0  0  0  0  0  0  0  0  0  0
   44.3462   83.9066   57.5380 H   0  0  0  0  0  0  0  0  0  0  0  0
   45.9824   85.0179   56.0941 H   0  0  0  0  0  0  0  0  0  0  0  0
   45.4651   85.2710   53.6586 H   0  0  0  0  0  0  0  0  0  0  0  0
   43.3070   84.3908   52.7625 H   0  0  0  0  0  0  0  0  0  0  0  0
   41.7177   83.2845   54.3014 H   0  0  0  0  0  0  0  0  0  0  0  0
  1  6  2  0
  2  3  2  0
  2  1  1  0
  3  4  1  0
  4  5  2  0
  5  8  1  0
  6  5  1  0
  7 15  2  0
  8  7  1  0
  8  9  2  0
  9 10  1  0
 10 14  2  0
 10 11  1  0
 11 12  1  0
 13 12  2  0
 14 13  1  0
 15 14  1  0
 16 17  2  0
 16  3  1  0
 18 17  1  0
 19 18  2  0
 20 19  1  0
 20 21  2  0
 21 16  1  0
  1 22  1  0
  2 23  1  0
  7 24  1  0
  9 25  1  0
 11 26  1  0
 12 27  1  0
 15 28  1  0
 17 29  1  0
 18 30  1  0
 19 31  1  0
 20 32  1  0
 21 33  1  0
M  ISO  8  22  14  23  14  24  14  25  14  26   9  27  14  28  14  29  14
M  ISO  4  30  14  31  14  32  14  33  14
M  END
>  <minimizedAffinity>  (1) 
-4.95243263

>  <minimizedRMSD>  (1) 
0.384530693

$$$$
