
     RDKit          3D

 18 19  0  0  0  0  0  0  0  0999 V2000
   40.7410   82.6750   62.0590 C   0  0  0  0  0  0  0  0  0  0  0  0
   39.4900   83.0430   61.5380 C   0  0  0  0  0  0  0  0  0  0  0  0
   39.4120   84.1600   60.7000 C   0  0  0  0  0  0  0  0  0  0  0  0
   40.5640   84.8190   60.4480 N   0  0  0  0  0  0  0  0  0  0  0  0
   41.7460   84.4480   60.9580 C   0  0  0  0  0  0  0  0  0  0  0  0
   41.8400   83.3840   61.7590 N   0  0  0  0  0  0  0  0  0  0  0  0
   40.6650   81.5280   62.8870 N   0  0  0  0  0  0  0  0  0  0  0  0
   42.9340   85.2280   60.6230 C   0  0  0  0  0  0  0  0  0  0  0  0
   43.0470   85.8730   59.3600 C   0  0  0  0  0  0  0  0  0  0  0  0
   44.7510   86.6870   59.5380 S   0  0  0  0  0  0  0  0  0  0  0  0
   44.9170   85.9640   61.2900 C   0  0  0  0  0  0  0  0  0  0  0  0
   43.9470   85.3750   61.4580 N   0  0  0  0  0  0  0  0  0  0  0  0
   38.5881   82.4635   61.7844 H   0  0  0  0  0  0  0  0  0  0  0  0
   38.4558   84.4872   60.2657 H   0  0  0  0  0  0  0  0  0  0  0  0
   41.5167   81.1560   63.3310 H   0  0  0  0  0  0  0  0  0  0  0  0
   39.7581   81.0661   63.0450 H   0  0  0  0  0  0  0  0  0  0  0  0
   42.3425   85.8938   58.5155 H   0  0  0  0  0  0  0  0  0  0  0  0
   45.7583   86.0843   61.9884 H   0  0  0  0  0  0  0  0  0  0  0  0
  1  7  1  0
  2  1  2  0
  3  2  1  0
  4  3  2  0
  4  5  1  0
  5  6  2  0
  6  1  1  0
  8  5  1  0
  8 12  1  0
  9 10  1  0
  9  8  2  0
 10 11  1  0
 11 12  2  0
  2 13  1  0
  3 14  1  0
  7 15  1  0
  7 16  1  0
  9 17  1  0
 11 18  1  0
M  ISO  4  13  14  14  14  17  14  18  14
M  END
>  <minimizedAffinity>  (1) 
-4.06451988

>  <minimizedRMSD>  (1) 
5.14178896

$$$$
