
     RDKit          3D

 13 13  0  0  0  0  0  0  0  0999 V2000
   40.9350   82.8950   61.8970 C   0  0  0  0  0  0  0  0  0  0  0  0
   41.2840   83.5870   60.7060 C   0  0  0  0  0  0  0  0  0  0  0  0
   40.3070   84.3910   60.1160 C   0  0  0  0  0  0  0  0  0  0  0  0
   39.0950   84.4640   60.7080 N   0  0  0  0  0  0  0  0  0  0  0  0
   38.7960   83.8000   61.8300 C   0  0  0  0  0  0  0  0  0  0  0  0
   39.7160   83.0260   62.4090 N   0  0  0  0  0  0  0  0  0  0  0  0
   42.0140   82.1200   62.3850 N   0  0  0  0  0  0  0  0  0  0  0  0
   37.5680   83.8380   62.4800 O   0  0  0  0  0  0  0  0  0  0  0  0
   42.2873   83.4927   60.2650 H   0  0  0  0  0  0  0  0  0  0  0  0
   40.5187   84.9506   59.1929 H   0  0  0  0  0  0  0  0  0  0  0  0
   42.9121   82.1124   61.8808 H   0  0  0  0  0  0  0  0  0  0  0  0
   41.9012   81.5636   63.2444 H   0  0  0  0  0  0  0  0  0  0  0  0
   37.4302   83.3143   63.3087 H   0  0  0  0  0  0  0  0  0  0  0  0
  1  7  1  0
  1  6  2  0
  2  1  1  0
  3  2  2  0
  3  4  1  0
  4  5  2  0
  5  6  1  0
  5  8  1  0
  2  9  1  0
  3 10  1  0
  7 11  1  0
  7 12  1  0
  8 13  1  0
M  ISO  3   9  14  10  14  13   3
M  END
>  <minimizedAffinity>  (1) 
-4.02475071

>  <minimizedRMSD>  (1) 
1.40907717

$$$$
