
     RDKit          3D

 23 24  0  0  1  0  0  0  0  0999 V2000
   39.9640   81.4990   61.1560 C   0  0  0  0  0  0  0  0  0  0  0  0
   40.1930   80.1570   61.5290 C   0  0  0  0  0  0  0  0  0  0  0  0
   40.4690   79.2410   60.4980 C   0  0  0  0  0  0  0  0  0  0  0  0
   40.4960   79.7010   59.2280 N   0  0  0  0  0  0  0  0  0  0  0  0
   40.2700   80.9970   58.9140 C   0  0  0  0  0  0  0  0  0  0  0  0
   40.0060   81.8910   59.8680 N   0  0  0  0  0  0  0  0  0  0  0  0
   39.7000   82.3090   62.2870 N   0  0  0  0  0  0  0  0  0  0  0  0
   38.3440   80.1270   56.6150 O   0  0  0  0  0  0  0  0  0  0  0  0
   39.4590   80.7300   56.5820 C   0  0  0  0  0  0  0  0  0  0  0  0
   40.3090   81.4530   57.5310 C   0  0  2  0  0  0  0  0  0  0  0  0
   41.6840   81.2710   56.8740 C   0  0  0  0  0  0  0  0  0  0  0  0
   41.2840   81.5940   55.4380 C   0  0  0  0  0  0  0  0  0  0  0  0
   40.1090   80.7400   55.2940 N   0  0  0  0  0  0  0  0  0  0  0  0
   40.1571   79.8408   62.5820 H   0  0  0  0  0  0  0  0  0  0  0  0
   40.6575   78.1801   60.7194 H   0  0  0  0  0  0  0  0  0  0  0  0
   39.5135   83.3149   62.1678 H   0  0  0  0  0  0  0  0  0  0  0  0
   39.6945   81.8923   63.2289 H   0  0  0  0  0  0  0  0  0  0  0  0
   39.9839   82.4942   57.6734 H   0  0  0  0  0  0  0  0  0  0  0  0
   42.4294   81.9781   57.2670 H   0  0  0  0  0  0  0  0  0  0  0  0
   42.1661   80.2947   57.0306 H   0  0  0  0  0  0  0  0  0  0  0  0
   41.0311   82.6575   55.3157 H   0  0  0  0  0  0  0  0  0  0  0  0
   42.0727   81.4204   54.6911 H   0  0  0  0  0  0  0  0  0  0  0  0
   39.8051   80.2442   54.4439 H   0  0  0  0  0  0  0  0  0  0  0  0
  1  2  2  0
  1  7  1  0
  3  2  1  0
  4  3  2  0
  5  4  1  0
  5  6  2  0
  6  1  1  0
  9  8  2  0
  9 10  1  0
 10  5  1  0
 11 10  1  0
 12 11  1  0
 13 12  1  0
 13  9  1  0
  2 14  1  0
  3 15  1  0
  7 16  1  0
  7 17  1  0
 10 18  1  1
 11 19  1  0
 11 20  1  0
 12 21  1  0
 12 22  1  0
 13 23  1  0
M  ISO  8  14  14  15  14  18  13  19  13  20  13  21  13  22  13  23  10
M  END
>  <minimizedAffinity>  (1) 
-3.75807834

>  <minimizedRMSD>  (1) 
6.59732056

$$$$
