
     RDKit          3D

 27 28  0  0  0  0  0  0  0  0999 V2000
   42.3910   81.3020   58.7010 C   0  0  0  0  0  0  0  0  0  0  0  0
   41.2060   81.4660   57.9420 C   0  0  0  0  0  0  0  0  0  0  0  0
   40.1780   82.2070   58.5450 C   0  0  0  0  0  0  0  0  0  0  0  0
   40.3690   82.7110   59.7810 N   0  0  0  0  0  0  0  0  0  0  0  0
   41.5090   82.5320   60.4670 C   0  0  0  0  0  0  0  0  0  0  0  0
   42.5190   81.8240   59.9150 N   0  0  0  0  0  0  0  0  0  0  0  0
   43.3570   80.5430   58.0010 N   0  0  0  0  0  0  0  0  0  0  0  0
   41.6170   83.1010   61.7640 N   0  0  0  0  0  0  0  0  0  0  0  0
   42.1350   84.4320   61.9010 C   0  0  0  0  0  0  0  0  0  0  0  0
   42.4620   84.8150   63.3040 C   0  0  0  0  0  0  0  0  0  0  0  0
   41.4680   84.4050   64.3390 C   0  0  0  0  0  0  0  0  0  0  0  0
   40.4780   83.3770   63.8440 C   0  0  0  0  0  0  0  0  0  0  0  0
   41.2240   82.3890   62.9570 C   0  0  0  0  0  0  0  0  0  0  0  0
   41.0977   81.0361   56.9353 H   0  0  0  0  0  0  0  0  0  0  0  0
   39.2283   82.3746   58.0159 H   0  0  0  0  0  0  0  0  0  0  0  0
   43.1470   80.1862   57.0579 H   0  0  0  0  0  0  0  0  0  0  0  0
   44.2707   80.3469   58.4342 H   0  0  0  0  0  0  0  0  0  0  0  0
   43.0522   84.5097   61.2987 H   0  0  0  0  0  0  0  0  0  0  0  0
   41.3447   85.1172   61.5605 H   0  0  0  0  0  0  0  0  0  0  0  0
   43.4273   84.3555   63.5628 H   0  0  0  0  0  0  0  0  0  0  0  0
   42.4711   85.9149   63.3184 H   0  0  0  0  0  0  0  0  0  0  0  0
   42.0116   83.9815   65.1964 H   0  0  0  0  0  0  0  0  0  0  0  0
   40.8949   85.3029   64.6134 H   0  0  0  0  0  0  0  0  0  0  0  0
   40.0320   82.8474   64.6987 H   0  0  0  0  0  0  0  0  0  0  0  0
   39.6732   83.8663   63.2758 H   0  0  0  0  0  0  0  0  0  0  0  0
   40.5666   81.5470   62.6944 H   0  0  0  0  0  0  0  0  0  0  0  0
   42.1037   81.9828   63.4777 H   0  0  0  0  0  0  0  0  0  0  0  0
  1  6  2  0
  2  3  2  0
  2  1  1  0
  3  4  1  0
  4  5  2  0
  5  8  1  0
  6  5  1  0
  7  1  1  0
  8  9  1  0
  8 13  1  0
  9 10  1  0
 10 11  1  0
 12 11  1  0
 13 12  1  0
  2 14  1  0
  3 15  1  0
  7 16  1  0
  7 17  1  0
  9 18  1  0
  9 19  1  0
 10 20  1  0
 10 21  1  0
 11 22  1  0
 11 23  1  0
 12 24  1  0
 12 25  1  0
 13 26  1  0
 13 27  1  0
M  ISO  8  14  14  15  14  18  13  19  13  20  13  21  13  22  13  23  13
M  ISO  4  24  13  25  13  26  13  27  13
M  END
>  <minimizedAffinity>  (1) 
-3.73613381

>  <minimizedRMSD>  (1) 
3.77424359

$$$$
