
     RDKit          3D

 14 14  0  0  0  0  0  0  0  0999 V2000
   40.3520   82.1170   60.4260 C   0  0  0  0  0  0  0  0  0  0  0  0
   40.4800   83.1270   59.4490 C   0  0  0  0  0  0  0  0  0  0  0  0
   39.7740   84.3260   59.6060 C   0  0  0  0  0  0  0  0  0  0  0  0
   39.0020   84.4370   60.7070 N   0  0  0  0  0  0  0  0  0  0  0  0
   38.8960   83.4590   61.6260 C   0  0  0  0  0  0  0  0  0  0  0  0
   39.5670   82.3150   61.4820 N   0  0  0  0  0  0  0  0  0  0  0  0
   41.1320   80.9790   60.1090 N   0  0  0  0  0  0  0  0  0  0  0  0
   38.0530   83.6750   62.7540 N   0  0  0  0  0  0  0  0  0  0  0  0
   41.1277   82.9741   58.5731 H   0  0  0  0  0  0  0  0  0  0  0  0
   39.8453   85.1381   58.8675 H   0  0  0  0  0  0  0  0  0  0  0  0
   41.6973   80.9656   59.2481 H   0  0  0  0  0  0  0  0  0  0  0  0
   41.1343   80.1644   60.7393 H   0  0  0  0  0  0  0  0  0  0  0  0
   37.9548   82.9424   63.4713 H   0  0  0  0  0  0  0  0  0  0  0  0
   37.5418   84.5638   62.8522 H   0  0  0  0  0  0  0  0  0  0  0  0
  1  6  2  0
  2  3  2  0
  2  1  1  0
  3  4  1  0
  4  5  2  0
  5  8  1  0
  6  5  1  0
  7  1  1  0
  2  9  1  0
  3 10  1  0
  7 11  1  0
  7 12  1  0
  8 13  1  0
  8 14  1  0
M  ISO  2   9  14  10  14
M  END
>  <minimizedAffinity>  (1) 
-3.26083422

>  <minimizedRMSD>  (1) 
0.491672128

$$$$
