
     RDKit          3D

 13 13  0  0  0  0  0  0  0  0999 V2000
   39.4230   83.8010   61.0100 C   0  0  0  0  0  0  0  0  0  0  0  0
   39.8120   82.4780   60.7390 C   0  0  0  0  0  0  0  0  0  0  0  0
   40.5050   82.2260   59.5500 C   0  0  0  0  0  0  0  0  0  0  0  0
   40.7590   83.2670   58.7300 N   0  0  0  0  0  0  0  0  0  0  0  0
   40.3740   84.5240   59.0140 C   0  0  0  0  0  0  0  0  0  0  0  0
   39.7140   84.7700   60.1480 N   0  0  0  0  0  0  0  0  0  0  0  0
   38.7290   83.9270   62.2440 N   0  0  0  0  0  0  0  0  0  0  0  0
   40.6870   85.9360   57.9640 S   0  0  0  0  0  0  0  0  0  0  0  0
   39.5784   81.6642   61.4413 H   0  0  0  0  0  0  0  0  0  0  0  0
   40.8333   81.2085   59.2911 H   0  0  0  0  0  0  0  0  0  0  0  0
   38.3921   84.8498   62.5535 H   0  0  0  0  0  0  0  0  0  0  0  0
   38.5629   83.0955   62.8287 H   0  0  0  0  0  0  0  0  0  0  0  0
   40.9312   87.0376   58.7409 H   0  0  0  0  0  0  0  0  0  0  0  0
  1  7  1  0
  2  1  2  0
  3  2  1  0
  4  5  1  0
  4  3  2  0
  5  6  2  0
  6  1  1  0
  8  5  1  0
  2  9  1  0
  3 10  1  0
  7 11  1  0
  7 12  1  0
  8 13  1  0
M  ISO  3   9  14  10  14  13  11
M  END
>  <minimizedAffinity>  (1) 
-3.173527

>  <minimizedRMSD>  (1) 
3.50084376

$$$$
