
     RDKit          3D

 19 20  0  0  0  0  0  0  0  0999 V2000
   40.5620   81.1140   55.7850 C   0  0  0  0  0  0  0  0  0  0  0  0
   41.1600   80.9240   57.0410 C   0  0  0  0  0  0  0  0  0  0  0  0
   40.4560   80.2160   58.0230 C   0  0  0  0  0  0  0  0  0  0  0  0
   39.2260   79.7570   57.6870 N   0  0  0  0  0  0  0  0  0  0  0  0
   38.6700   79.9480   56.4790 C   0  0  0  0  0  0  0  0  0  0  0  0
   39.3400   80.6220   55.5430 N   0  0  0  0  0  0  0  0  0  0  0  0
   41.3950   81.8460   54.8990 N   0  0  0  0  0  0  0  0  0  0  0  0
   37.3110   79.4200   56.1590 C   0  0  0  0  0  0  0  0  0  0  0  0
   37.2900   78.0640   55.4030 C   0  0  0  0  0  0  0  0  0  0  0  0
   36.8320   78.1750   56.8100 C   0  0  0  0  0  0  0  0  0  0  0  0
   42.1632   81.3240   57.2499 H   0  0  0  0  0  0  0  0  0  0  0  0
   40.8821   80.0404   59.0218 H   0  0  0  0  0  0  0  0  0  0  0  0
   41.0729   82.0540   53.9430 H   0  0  0  0  0  0  0  0  0  0  0  0
   42.3215   82.1691   55.2120 H   0  0  0  0  0  0  0  0  0  0  0  0
   36.8854   80.4268   56.0359 H   0  0  0  0  0  0  0  0  0  0  0  0
   36.5632   77.8908   54.5957 H   0  0  0  0  0  0  0  0  0  0  0  0
   38.0279   77.4536   54.8617 H   0  0  0  0  0  0  0  0  0  0  0  0
   37.4309   77.7185   57.6118 H   0  0  0  0  0  0  0  0  0  0  0  0
   35.9027   77.8992   57.3299 H   0  0  0  0  0  0  0  0  0  0  0  0
  1  2  2  0
  2  3  1  0
  4  3  2  0
  5  4  1  0
  6  1  1  0
  6  5  2  0
  7  1  1  0
  8  5  1  0
  8 10  1  0
  9  8  1  0
  9 10  1  0
  2 11  1  0
  3 12  1  0
  7 13  1  0
  7 14  1  0
  8 15  1  0
  9 16  1  0
  9 17  1  0
 10 18  1  0
 10 19  1  0
M  ISO  7  11  14  12  14  15  13  16  13  17  13  18  13  19  13
M  END
>  <minimizedAffinity>  (1) 
-2.96301603

>  <minimizedRMSD>  (1) 
7.09707689

$$$$
