
     RDKit          3D

 34 37  0  0  0  0  0  0  0  0999 V2000
   41.7070   83.8500   61.4130 C   0  0  0  0  0  0  0  0  0  0  0  0
   41.4750   84.1040   62.7380 C   0  0  0  0  0  0  0  0  0  0  0  0
   40.9410   83.1230   63.5860 C   0  0  0  0  0  0  0  0  0  0  0  0
   40.6490   81.9010   63.0890 N   0  0  0  0  0  0  0  0  0  0  0  0
   40.8820   81.6710   61.7920 C   0  0  0  0  0  0  0  0  0  0  0  0
   41.4000   82.6220   60.9690 N   0  0  0  0  0  0  0  0  0  0  0  0
   40.4180   80.2600   59.8110 C   0  0  0  0  0  0  0  0  0  0  0  0
   40.5960   80.3800   61.1730 C   0  0  0  0  0  0  0  0  0  0  0  0
   40.4830   79.2000   61.8790 C   0  0  0  0  0  0  0  0  0  0  0  0
   40.2120   77.9970   61.2610 C   0  0  0  0  0  0  0  0  0  0  0  0
   40.0480   76.7250   61.6620 N   0  0  0  0  0  0  0  0  0  0  0  0
   39.7910   75.8970   60.6340 C   0  0  0  0  0  0  0  0  0  0  0  0
   39.7820   76.6630   59.4710 C   0  0  0  0  0  0  0  0  0  0  0  0
   40.0440   77.9480   59.8930 C   0  0  0  0  0  0  0  0  0  0  0  0
   40.1440   79.1040   59.1130 C   0  0  0  0  0  0  0  0  0  0  0  0
   43.7490   86.5830   60.0900 C   0  0  0  0  0  0  0  0  0  0  0  0
   43.2600   86.7120   58.7920 C   0  0  0  0  0  0  0  0  0  0  0  0
   42.2410   85.8740   58.3700 C   0  0  0  0  0  0  0  0  0  0  0  0
   41.7670   84.9550   59.2630 N   0  0  0  0  0  0  0  0  0  0  0  0
   42.2640   84.8610   60.5050 C   0  0  0  0  0  0  0  0  0  0  0  0
   43.2460   85.6580   60.9330 N   0  0  0  0  0  0  0  0  0  0  0  0
   44.7900   87.5040   60.3850 N   0  0  0  0  0  0  0  0  0  0  0  0
   41.7122   85.0977   63.1458 H   0  0  0  0  0  0  0  0  0  0  0  0
   40.7612   83.3467   64.6479 H   0  0  0  0  0  0  0  0  0  0  0  0
   40.5037   81.1837   59.2198 H   0  0  0  0  0  0  0  0  0  0  0  0
   40.6134   79.2192   62.9711 H   0  0  0  0  0  0  0  0  0  0  0  0
   40.1118   76.4194   62.6436 H   0  0  0  0  0  0  0  0  0  0  0  0
   39.6192   74.8125   60.6997 H   0  0  0  0  0  0  0  0  0  0  0  0
   39.6047   76.3179   58.4417 H   0  0  0  0  0  0  0  0  0  0  0  0
   40.0134   79.0916   58.0209 H   0  0  0  0  0  0  0  0  0  0  0  0
   43.6773   87.4689   58.1116 H   0  0  0  0  0  0  0  0  0  0  0  0
   41.8284   85.9458   57.3528 H   0  0  0  0  0  0  0  0  0  0  0  0
   45.1035   88.1738   59.6681 H   0  0  0  0  0  0  0  0  0  0  0  0
   45.2311   87.5018   61.3158 H   0  0  0  0  0  0  0  0  0  0  0  0
  1  2  2  0
  2  3  1  0
  4  3  2  0
  5  4  1  0
  6  1  1  0
  6  5  2  0
  7  8  2  0
  8  5  1  0
  8  9  1  0
 10 11  1  0
 10  9  2  0
 12 11  1  0
 13 14  1  0
 13 12  2  0
 14 10  1  0
 15  7  1  0
 15 14  2  0
 16 22  1  0
 16 21  2  0
 17 16  1  0
 18 17  2  0
 18 19  1  0
 19 20  2  0
 20 21  1  0
 20  1  1  0
  2 23  1  0
  3 24  1  0
  7 25  1  0
  9 26  1  0
 11 27  1  0
 12 28  1  0
 13 29  1  0
 15 30  1  0
 17 31  1  0
 18 32  1  0
 22 33  1  0
 22 34  1  0
M  ISO  8  23  14  24  14  25  14  26  14  27   9  28  14  29  14  30  14
M  ISO  2  31  14  32  14
M  END
>  <minimizedAffinity>  (1) 
-6.30309296

>  <minimizedRMSD>  (1) 
1.19994092

$$$$
