
     RDKit          3D

 33 35  0  0  0  0  0  0  0  0999 V2000
   41.8840   83.7510   61.4930 C   0  0  0  0  0  0  0  0  0  0  0  0
   40.8590   84.1370   62.3140 C   0  0  0  0  0  0  0  0  0  0  0  0
   39.6920   83.3680   62.4290 C   0  0  0  0  0  0  0  0  0  0  0  0
   39.5710   82.2200   61.7130 N   0  0  0  0  0  0  0  0  0  0  0  0
   40.5790   81.8550   60.9140 C   0  0  0  0  0  0  0  0  0  0  0  0
   41.6920   82.6140   60.8230 N   0  0  0  0  0  0  0  0  0  0  0  0
   44.2300   86.5550   61.5350 C   0  0  0  0  0  0  0  0  0  0  0  0
   45.4040   85.9540   61.0850 C   0  0  0  0  0  0  0  0  0  0  0  0
   45.3980   84.5860   60.7670 C   0  0  0  0  0  0  0  0  0  0  0  0
   44.2140   83.9160   60.9200 N   0  0  0  0  0  0  0  0  0  0  0  0
   43.1070   84.5280   61.3540 C   0  0  0  0  0  0  0  0  0  0  0  0
   43.1110   85.8250   61.6580 N   0  0  0  0  0  0  0  0  0  0  0  0
   44.4100   87.9240   61.8080 N   0  0  0  0  0  0  0  0  0  0  0  0
   40.6050   79.3580   60.6930 C   0  0  0  0  0  0  0  0  0  0  0  0
   40.3980   80.6160   60.1690 C   0  0  0  0  0  0  0  0  0  0  0  0
   39.9930   80.6790   58.8540 C   0  0  0  0  0  0  0  0  0  0  0  0
   39.7940   79.5430   58.0660 C   0  0  0  0  0  0  0  0  0  0  0  0
   40.0060   78.2970   58.6030 C   0  0  0  0  0  0  0  0  0  0  0  0
   40.4100   78.2390   59.9200 C   0  0  0  0  0  0  0  0  0  0  0  0
   41.1140   79.1820   62.3350 S   0  0  0  0  0  0  0  0  0  0  0  0
   39.9970   78.7290   63.2580 O   0  0  0  0  0  0  0  0  0  0  0  0
   42.2360   78.1770   62.4350 O   0  0  0  0  0  0  0  0  0  0  0  0
   40.9524   85.0670   62.8939 H   0  0  0  0  0  0  0  0  0  0  0  0
   38.8791   83.6926   63.0953 H   0  0  0  0  0  0  0  0  0  0  0  0
   46.3258   86.5449   60.9799 H   0  0  0  0  0  0  0  0  0  0  0  0
   46.3048   84.0754   60.4107 H   0  0  0  0  0  0  0  0  0  0  0  0
   45.3325   88.3601   61.6678 H   0  0  0  0  0  0  0  0  0  0  0  0
   43.6192   88.4897   62.1479 H   0  0  0  0  0  0  0  0  0  0  0  0
   39.8186   81.6677   58.4045 H   0  0  0  0  0  0  0  0  0  0  0  0
   39.4690   79.6460   57.0202 H   0  0  0  0  0  0  0  0  0  0  0  0
   39.8597   77.3837   58.0076 H   0  0  0  0  0  0  0  0  0  0  0  0
   40.5842   77.2516   60.3725 H   0  0  0  0  0  0  0  0  0  0  0  0
   41.5281   80.4258   62.7331 H   0  0  0  0  0  0  0  0  0  0  0  0
  1  2  2  0
  2  3  1  0
  4  3  2  0
  5  4  1  0
  6  5  2  0
  6  1  1  0
  7 12  2  0
  7 13  1  0
  8  7  1  0
  9 10  1  0
  9  8  2  0
 10 11  2  0
 11  1  1  0
 11 12  1  0
 14 20  1  0
 15 14  2  0
 15  5  1  0
 16 15  1  0
 17 18  1  0
 17 16  2  0
 18 19  2  0
 19 14  1  0
 20 22  2  0
 20 21  2  0
  2 23  1  0
  3 24  1  0
  8 25  1  0
  9 26  1  0
 13 27  1  0
 13 28  1  0
 16 29  1  0
 17 30  1  0
 18 31  1  0
 19 32  1  0
 20 33  1  0
M  ISO  8  23  14  24  14  25  14  26  14  29  14  30  14  31  14  32  14
M  ISO  1  33  11
M  END
>  <minimizedAffinity>  (1) 
-5.77707863

>  <minimizedRMSD>  (1) 
2.52791691

$$$$
