
     RDKit          3D

 33 35  0  0  0  0  0  0  0  0999 V2000
   41.7370   83.8760   61.3400 C   0  0  0  0  0  0  0  0  0  0  0  0
   41.1490   84.2260   62.5410 C   0  0  0  0  0  0  0  0  0  0  0  0
   40.6920   83.2680   63.4410 C   0  0  0  0  0  0  0  0  0  0  0  0
   40.8220   81.9510   63.1390 N   0  0  0  0  0  0  0  0  0  0  0  0
   41.3940   81.6300   61.9730 C   0  0  0  0  0  0  0  0  0  0  0  0
   41.8410   82.5680   61.0910 N   0  0  0  0  0  0  0  0  0  0  0  0
   41.5300   80.2460   61.6590 N   0  0  0  0  0  0  0  0  0  0  0  0
   40.3280   79.4470   61.5740 C   0  0  0  0  0  0  0  0  0  0  0  0
   40.5540   77.9950   61.4550 C   0  0  0  0  0  0  0  0  0  0  0  0
   41.8130   77.5130   61.6220 O   0  0  0  0  0  0  0  0  0  0  0  0
   42.7280   78.3180   62.2350 C   0  0  0  0  0  0  0  0  0  0  0  0
   42.8170   79.6170   61.4220 C   0  0  0  0  0  0  0  0  0  0  0  0
   43.6830   86.5940   59.8520 C   0  0  0  0  0  0  0  0  0  0  0  0
   43.0620   86.7270   58.5930 C   0  0  0  0  0  0  0  0  0  0  0  0
   42.0000   85.8980   58.2710 C   0  0  0  0  0  0  0  0  0  0  0  0
   41.6140   84.9860   59.2120 N   0  0  0  0  0  0  0  0  0  0  0  0
   42.2180   84.8810   60.3930 C   0  0  0  0  0  0  0  0  0  0  0  0
   43.2400   85.6640   60.7290 N   0  0  0  0  0  0  0  0  0  0  0  0
   44.7490   87.5020   60.0450 N   0  0  0  0  0  0  0  0  0  0  0  0
   41.0393   85.2913   62.7923 H   0  0  0  0  0  0  0  0  0  0  0  0
   40.2288   83.5757   64.3901 H   0  0  0  0  0  0  0  0  0  0  0  0
   39.7334   79.6268   62.4818 H   0  0  0  0  0  0  0  0  0  0  0  0
   39.8172   79.7561   60.6501 H   0  0  0  0  0  0  0  0  0  0  0  0
   39.9181   77.5060   62.2077 H   0  0  0  0  0  0  0  0  0  0  0  0
   40.3223   77.7750   60.4024 H   0  0  0  0  0  0  0  0  0  0  0  0
   42.4046   78.5395   63.2628 H   0  0  0  0  0  0  0  0  0  0  0  0
   43.7091   77.8229   62.2833 H   0  0  0  0  0  0  0  0  0  0  0  0
   42.9608   79.4038   60.3525 H   0  0  0  0  0  0  0  0  0  0  0  0
   43.6671   80.2511   61.7140 H   0  0  0  0  0  0  0  0  0  0  0  0
   43.4169   87.4806   57.8746 H   0  0  0  0  0  0  0  0  0  0  0  0
   41.4894   85.9709   57.2994 H   0  0  0  0  0  0  0  0  0  0  0  0
   44.9980   88.1696   59.3012 H   0  0  0  0  0  0  0  0  0  0  0  0
   45.2768   87.4961   60.9295 H   0  0  0  0  0  0  0  0  0  0  0  0
  1  2  2  0
  2  3  1  0
  4  3  2  0
  5  4  1  0
  6  1  1  0
  6  5  2  0
  7  5  1  0
  8  7  1  0
  9  8  1  0
  9 10  1  0
 10 11  1  0
 12  7  1  0
 12 11  1  0
 13 19  1  0
 13 18  2  0
 14 13  1  0
 15 14  2  0
 15 16  1  0
 16 17  2  0
 17 18  1  0
 17  1  1  0
  2 20  1  0
  3 21  1  0
  8 22  1  0
  8 23  1  0
  9 24  1  0
  9 25  1  0
 11 26  1  0
 11 27  1  0
 12 28  1  0
 12 29  1  0
 14 30  1  0
 15 31  1  0
 19 32  1  0
 19 33  1  0
M  ISO  8  20  14  21  14  22  13  23  13  24  13  25  13  26  13  27  13
M  ISO  4  28  13  29  13  30  14  31  14
M  END
>  <minimizedAffinity>  (1) 
-5.36413574

>  <minimizedRMSD>  (1) 
0.471439362

$$$$
