
     RDKit          3D

 23 24  0  0  0  0  0  0  0  0999 V2000
   41.6470   83.8650   61.5320 C   0  0  0  0  0  0  0  0  0  0  0  0
   41.2630   84.2690   62.7830 C   0  0  0  0  0  0  0  0  0  0  0  0
   40.7700   83.3860   63.7400 C   0  0  0  0  0  0  0  0  0  0  0  0
   40.6660   82.0720   63.4160 N   0  0  0  0  0  0  0  0  0  0  0  0
   41.0410   81.6810   62.1940 C   0  0  0  0  0  0  0  0  0  0  0  0
   41.5220   82.5610   61.2680 N   0  0  0  0  0  0  0  0  0  0  0  0
   43.6610   86.4240   59.8700 C   0  0  0  0  0  0  0  0  0  0  0  0
   43.0450   86.5130   58.6260 C   0  0  0  0  0  0  0  0  0  0  0  0
   41.9530   85.7100   58.3490 C   0  0  0  0  0  0  0  0  0  0  0  0
   41.5480   84.8680   59.3420 N   0  0  0  0  0  0  0  0  0  0  0  0
   42.1620   84.8030   60.5360 C   0  0  0  0  0  0  0  0  0  0  0  0
   43.2060   85.5650   60.8110 N   0  0  0  0  0  0  0  0  0  0  0  0
   44.7680   87.3080   60.0080 N   0  0  0  0  0  0  0  0  0  0  0  0
   40.9190   80.2270   61.8540 C   0  0  0  0  0  0  0  0  0  0  0  0
   42.0810   79.7710   61.2550 F   0  0  0  0  0  0  0  0  0  0  0  0
   39.8720   80.0070   60.9620 F   0  0  0  0  0  0  0  0  0  0  0  0
   40.7170   79.4310   62.9460 F   0  0  0  0  0  0  0  0  0  0  0  0
   41.3475   85.3347   63.0423 H   0  0  0  0  0  0  0  0  0  0  0  0
   40.4716   83.7451   64.7360 H   0  0  0  0  0  0  0  0  0  0  0  0
   43.4229   87.2159   57.8689 H   0  0  0  0  0  0  0  0  0  0  0  0
   41.4381   85.7488   57.3777 H   0  0  0  0  0  0  0  0  0  0  0  0
   45.0347   87.9251   59.2276 H   0  0  0  0  0  0  0  0  0  0  0  0
   45.3024   87.3306   60.8882 H   0  0  0  0  0  0  0  0  0  0  0  0
  1  2  2  0
  2  3  1  0
  4  3  2  0
  5  4  1  0
  6  1  1  0
  6  5  2  0
  7 13  1  0
  7 12  2  0
  8  7  1  0
  9  8  2  0
  9 10  1  0
 10 11  2  0
 11 12  1  0
 11  1  1  0
 14  5  1  0
 14 17  1  0
 15 14  1  0
 16 14  1  0
  2 18  1  0
  3 19  1  0
  8 20  1  0
  9 21  1  0
 13 22  1  0
 13 23  1  0
M  ISO  4  18  14  19  14  20  14  21  14
M  END
>  <minimizedAffinity>  (1) 
-4.99142313

>  <minimizedRMSD>  (1) 
0.34630394

$$$$
