
     RDKit          3D

 26 27  0  0  0  0  0  0  0  0999 V2000
   43.8570   86.0970   60.2870 C   0  0  0  0  0  0  0  0  0  0  0  0
   43.6050   86.6180   59.0030 C   0  0  0  0  0  0  0  0  0  0  0  0
   42.4640   86.2300   58.3150 C   0  0  0  0  0  0  0  0  0  0  0  0
   41.6350   85.3420   58.9420 N   0  0  0  0  0  0  0  0  0  0  0  0
   41.8950   84.8600   60.1640 C   0  0  0  0  0  0  0  0  0  0  0  0
   42.9900   85.2250   60.8410 N   0  0  0  0  0  0  0  0  0  0  0  0
   45.0480   86.5780   60.8660 N   0  0  0  0  0  0  0  0  0  0  0  0
   40.9560   83.9180   60.7560 C   0  0  0  0  0  0  0  0  0  0  0  0
   39.8740   84.3170   61.4950 C   0  0  0  0  0  0  0  0  0  0  0  0
   38.9760   83.3990   62.0610 C   0  0  0  0  0  0  0  0  0  0  0  0
   39.1860   82.0730   61.8690 N   0  0  0  0  0  0  0  0  0  0  0  0
   40.2510   81.6910   61.1430 C   0  0  0  0  0  0  0  0  0  0  0  0
   41.1030   82.5980   60.6060 N   0  0  0  0  0  0  0  0  0  0  0  0
   40.4770   80.2240   60.9350 C   0  0  0  0  0  0  0  0  0  0  0  0
   40.8310   79.5290   62.2090 C   0  0  0  0  0  0  0  0  0  0  0  0
   44.3096   87.3294   58.5475 H   0  0  0  0  0  0  0  0  0  0  0  0
   42.2371   86.6190   57.3114 H   0  0  0  0  0  0  0  0  0  0  0  0
   45.6383   87.2460   60.3500 H   0  0  0  0  0  0  0  0  0  0  0  0
   45.3284   86.2617   61.8053 H   0  0  0  0  0  0  0  0  0  0  0  0
   39.7033   85.3926   61.6500 H   0  0  0  0  0  0  0  0  0  0  0  0
   38.1160   83.7492   62.6507 H   0  0  0  0  0  0  0  0  0  0  0  0
   39.5577   79.7765   60.5293 H   0  0  0  0  0  0  0  0  0  0  0  0
   41.3180   80.1043   60.2362 H   0  0  0  0  0  0  0  0  0  0  0  0
   40.5164   80.1466   63.0632 H   0  0  0  0  0  0  0  0  0  0  0  0
   40.3183   78.5567   62.2510 H   0  0  0  0  0  0  0  0  0  0  0  0
   41.9189   79.3720   62.2510 H   0  0  0  0  0  0  0  0  0  0  0  0
  1  6  2  0
  1  7  1  0
  2  1  1  0
  3  4  1  0
  3  2  2  0
  4  5  2  0
  5  8  1  0
  5  6  1  0
  8  9  2  0
  9 10  1  0
 11 10  2  0
 12 11  1  0
 13  8  1  0
 13 12  2  0
 14 12  1  0
 14 15  1  0
  2 16  1  0
  3 17  1  0
  7 18  1  0
  7 19  1  0
  9 20  1  0
 10 21  1  0
 14 22  1  0
 14 23  1  0
 15 24  1  0
 15 25  1  0
 15 26  1  0
M  ISO  8  16  14  17  14  20  14  21  14  22   8  23   8  24   8  25   8
M  ISO  1  26   8
M  END
>  <minimizedAffinity>  (1) 
-4.57628822

>  <minimizedRMSD>  (1) 
1.29421437

$$$$
