
     RDKit          3D

 22 23  0  0  0  0  0  0  0  0999 V2000
   43.6060   86.3530   59.7230 C   0  0  0  0  0  0  0  0  0  0  0  0
   42.9070   86.4670   58.5160 C   0  0  0  0  0  0  0  0  0  0  0  0
   41.7570   85.7190   58.3250 C   0  0  0  0  0  0  0  0  0  0  0  0
   41.3740   84.9060   59.3450 N   0  0  0  0  0  0  0  0  0  0  0  0
   42.0600   84.8150   60.4920 C   0  0  0  0  0  0  0  0  0  0  0  0
   43.1700   85.5260   60.6940 N   0  0  0  0  0  0  0  0  0  0  0  0
   44.7690   87.1730   59.7910 N   0  0  0  0  0  0  0  0  0  0  0  0
   41.5740   83.9160   61.5300 C   0  0  0  0  0  0  0  0  0  0  0  0
   41.0800   84.3660   62.7280 C   0  0  0  0  0  0  0  0  0  0  0  0
   40.6140   83.5080   63.7230 C   0  0  0  0  0  0  0  0  0  0  0  0
   40.6510   82.1760   63.4990 N   0  0  0  0  0  0  0  0  0  0  0  0
   41.1350   81.7270   62.3230 C   0  0  0  0  0  0  0  0  0  0  0  0
   41.5880   82.5790   61.3560 N   0  0  0  0  0  0  0  0  0  0  0  0
   41.1630   80.3070   62.1050 N   0  0  0  0  0  0  0  0  0  0  0  0
   43.2672   87.1437   57.7271 H   0  0  0  0  0  0  0  0  0  0  0  0
   41.1799   85.7800   57.3905 H   0  0  0  0  0  0  0  0  0  0  0  0
   45.0222   87.7747   58.9943 H   0  0  0  0  0  0  0  0  0  0  0  0
   45.3566   87.1642   60.6369 H   0  0  0  0  0  0  0  0  0  0  0  0
   41.0503   85.4502   62.9114 H   0  0  0  0  0  0  0  0  0  0  0  0
   40.2242   83.9071   64.6710 H   0  0  0  0  0  0  0  0  0  0  0  0
   41.5261   79.9292   61.2183 H   0  0  0  0  0  0  0  0  0  0  0  0
   40.8199   79.6670   62.8355 H   0  0  0  0  0  0  0  0  0  0  0  0
  1  7  1  0
  1  6  2  0
  2  1  1  0
  3  2  2  0
  3  4  1  0
  4  5  2  0
  5  6  1  0
  5  8  1  0
  8  9  2  0
  9 10  1  0
 11 10  2  0
 12 11  1  0
 13  8  1  0
 13 12  2  0
 14 12  1  0
  2 15  1  0
  3 16  1  0
  7 17  1  0
  7 18  1  0
  9 19  1  0
 10 20  1  0
 14 21  1  0
 14 22  1  0
M  ISO  4  15  14  16  14  19  14  20  14
M  END
>  <minimizedAffinity>  (1) 
-4.42201233

>  <minimizedRMSD>  (1) 
0.0105653256

$$$$
