
     RDKit          3D

 21 22  0  0  0  0  0  0  0  0999 V2000
   43.6190   86.3510   59.7380 C   0  0  0  0  0  0  0  0  0  0  0  0
   42.9180   86.4640   58.5260 C   0  0  0  0  0  0  0  0  0  0  0  0
   41.7500   85.7160   58.3210 C   0  0  0  0  0  0  0  0  0  0  0  0
   41.3680   84.9070   59.3500 N   0  0  0  0  0  0  0  0  0  0  0  0
   42.0480   84.8160   60.4900 C   0  0  0  0  0  0  0  0  0  0  0  0
   43.1640   85.5230   60.7010 N   0  0  0  0  0  0  0  0  0  0  0  0
   44.7700   87.1580   59.7830 N   0  0  0  0  0  0  0  0  0  0  0  0
   41.5640   83.9190   61.5400 C   0  0  0  0  0  0  0  0  0  0  0  0
   41.0760   84.3870   62.7310 C   0  0  0  0  0  0  0  0  0  0  0  0
   40.6170   83.4950   63.7240 C   0  0  0  0  0  0  0  0  0  0  0  0
   40.6560   82.1770   63.5020 N   0  0  0  0  0  0  0  0  0  0  0  0
   41.1380   81.7180   62.3220 C   0  0  0  0  0  0  0  0  0  0  0  0
   41.5830   82.5750   61.3620 N   0  0  0  0  0  0  0  0  0  0  0  0
   41.2710   80.0010   61.8420 S   0  0  0  0  0  0  0  0  0  0  0  0
   43.2850   87.1387   57.7385 H   0  0  0  0  0  0  0  0  0  0  0  0
   41.1755   85.7781   57.3850 H   0  0  0  0  0  0  0  0  0  0  0  0
   45.0143   87.7521   58.9778 H   0  0  0  0  0  0  0  0  0  0  0  0
   45.3687   87.1549   60.6211 H   0  0  0  0  0  0  0  0  0  0  0  0
   41.0413   85.4708   62.9159 H   0  0  0  0  0  0  0  0  0  0  0  0
   40.2285   83.8828   64.6773 H   0  0  0  0  0  0  0  0  0  0  0  0
   41.3318   79.2167   62.9636 H   0  0  0  0  0  0  0  0  0  0  0  0
  1  7  1  0
  1  6  2  0
  2  1  1  0
  3  2  2  0
  3  4  1  0
  4  5  2  0
  5  6  1  0
  5  8  1  0
  8  9  2  0
  9 10  1  0
 11 10  2  0
 12 11  1  0
 13  8  1  0
 13 12  2  0
 14 12  1  0
  2 15  1  0
  3 16  1  0
  7 17  1  0
  7 18  1  0
  9 19  1  0
 10 20  1  0
 14 21  1  0
M  ISO  5  15  14  16  14  19  14  20  14  21  11
M  END
>  <minimizedAffinity>  (1) 
-4.40276051

>  <minimizedRMSD>  (1) 
0.0258716177

$$$$
