
     RDKit          3D

 39 42  0  0  1  0  0  0  0  0999 V2000
   41.6980   83.7800   61.3310 C   0  0  0  0  0  0  0  0  0  0  0  0
   41.1410   84.1150   62.5230 C   0  0  0  0  0  0  0  0  0  0  0  0
   40.7280   83.1390   63.4320 C   0  0  0  0  0  0  0  0  0  0  0  0
   40.8790   81.8340   63.1350 N   0  0  0  0  0  0  0  0  0  0  0  0
   41.4360   81.5180   61.9430 C   0  0  0  0  0  0  0  0  0  0  0  0
   41.8370   82.4540   61.0590 N   0  0  0  0  0  0  0  0  0  0  0  0
   43.5870   86.4530   59.6910 C   0  0  0  0  0  0  0  0  0  0  0  0
   42.9060   86.6040   58.4930 C   0  0  0  0  0  0  0  0  0  0  0  0
   41.7930   85.7960   58.2300 C   0  0  0  0  0  0  0  0  0  0  0  0
   41.4520   84.8970   59.2000 N   0  0  0  0  0  0  0  0  0  0  0  0
   42.1320   84.7720   60.3550 C   0  0  0  0  0  0  0  0  0  0  0  0
   43.2000   85.5400   60.6190 N   0  0  0  0  0  0  0  0  0  0  0  0
   44.6910   87.3180   59.8130 N   0  0  0  0  0  0  0  0  0  0  0  0
   41.5630   80.0510   61.6620 C   0  0  1  0  0  0  0  0  0  0  0  0
   40.9990   79.0560   62.5470 C   0  0  0  0  0  0  0  0  0  0  0  0
   40.1860   79.4170   61.3510 C   0  0  2  0  0  0  0  0  0  0  0  0
   39.9590   77.1580   60.2610 C   0  0  0  0  0  0  0  0  0  0  0  0
   40.1690   78.5180   60.1680 C   0  0  0  0  0  0  0  0  0  0  0  0
   40.3690   79.0500   58.8970 C   0  0  0  0  0  0  0  0  0  0  0  0
   40.3580   78.2410   57.7780 C   0  0  0  0  0  0  0  0  0  0  0  0
   40.1500   76.8800   57.8660 C   0  0  0  0  0  0  0  0  0  0  0  0
   39.9530   76.3720   59.1230 C   0  0  0  0  0  0  0  0  0  0  0  0
   39.7560   76.6110   61.5210 O   0  0  0  0  0  0  0  0  0  0  0  0
   39.7350   74.9940   59.2740 O   0  0  0  0  0  0  0  0  0  0  0  0
   41.0124   85.1773   62.7779 H   0  0  0  0  0  0  0  0  0  0  0  0
   40.2790   83.4360   64.3913 H   0  0  0  0  0  0  0  0  0  0  0  0
   43.2366   87.3510   57.7564 H   0  0  0  0  0  0  0  0  0  0  0  0
   41.2239   85.8808   57.2925 H   0  0  0  0  0  0  0  0  0  0  0  0
   44.9116   87.9813   59.0565 H   0  0  0  0  0  0  0  0  0  0  0  0
   45.2781   87.2875   60.6587 H   0  0  0  0  0  0  0  0  0  0  0  0
   42.5672   80.1387   61.2216 H   0  0  0  0  0  0  0  0  0  0  0  0
   41.4621   78.0599   62.6043 H   0  0  0  0  0  0  0  0  0  0  0  0
   40.7886   79.0365   63.6265 H   0  0  0  0  0  0  0  0  0  0  0  0
   39.1446   79.7370   61.1994 H   0  0  0  0  0  0  0  0  0  0  0  0
   40.5383   80.1308   58.7825 H   0  0  0  0  0  0  0  0  0  0  0  0
   40.5196   78.6943   56.7889 H   0  0  0  0  0  0  0  0  0  0  0  0
   40.1427   76.2366   56.9738 H   0  0  0  0  0  0  0  0  0  0  0  0
   39.6027   75.6379   61.6193 H   0  0  0  0  0  0  0  0  0  0  0  0
   39.5910   74.6115   60.1757 H   0  0  0  0  0  0  0  0  0  0  0  0
  1  2  2  0
  2  3  1  0
  4  3  2  0
  5  4  1  0
  6  1  1  0
  6  5  2  0
  7 13  1  0
  7 12  2  0
  8  7  1  0
  9  8  2  0
  9 10  1  0
 10 11  2  0
 11 12  1  0
 11  1  1  0
 14  5  1  0
 14 15  1  0
 16 14  1  0
 16 15  1  0
 17 23  1  0
 18 17  2  0
 18 16  1  0
 19 18  1  0
 20 21  1  0
 20 19  2  0
 21 22  2  0
 22 24  1  0
 22 17  1  0
  2 25  1  0
  3 26  1  0
  8 27  1  0
  9 28  1  0
 13 29  1  0
 13 30  1  0
 14 31  1  6
 15 32  1  0
 15 33  1  0
 16 34  1  1
 19 35  1  0
 20 36  1  0
 21 37  1  0
 23 38  1  0
 24 39  1  0
M  ISO  8  25  14  26  14  27  14  28  14  31  13  32  13  33  13  34  13
M  ISO  5  35  14  36  14  37  14  38   3  39   3
M  END
>  <minimizedAffinity>  (1) 
-6.11132336

>  <minimizedRMSD>  (1) 
0.80060488

$$$$
