
     RDKit          3D

 35 37  0  0  1  0  0  0  0  0999 V2000
   41.5680   83.7750   61.3150 C   0  0  0  0  0  0  0  0  0  0  0  0
   40.8330   84.1770   62.4100 C   0  0  0  0  0  0  0  0  0  0  0  0
   40.3810   83.2560   63.3560 C   0  0  0  0  0  0  0  0  0  0  0  0
   40.6630   81.9430   63.2020 N   0  0  0  0  0  0  0  0  0  0  0  0
   41.3860   81.5780   62.1180 C   0  0  0  0  0  0  0  0  0  0  0  0
   41.8320   82.4500   61.1940 N   0  0  0  0  0  0  0  0  0  0  0  0
   43.4850   86.3830   59.6310 C   0  0  0  0  0  0  0  0  0  0  0  0
   42.8480   86.4700   58.3870 C   0  0  0  0  0  0  0  0  0  0  0  0
   41.7690   85.6410   58.1270 C   0  0  0  0  0  0  0  0  0  0  0  0
   41.4040   84.7850   59.1280 N   0  0  0  0  0  0  0  0  0  0  0  0
   42.0370   84.7250   60.3130 C   0  0  0  0  0  0  0  0  0  0  0  0
   43.0670   85.5110   60.5730 N   0  0  0  0  0  0  0  0  0  0  0  0
   44.5710   87.2950   59.7560 N   0  0  0  0  0  0  0  0  0  0  0  0
   41.6570   80.1100   61.9890 C   0  0  1  0  0  0  0  0  0  0  0  0
   40.7790   79.1180   62.5670 C   0  0  0  0  0  0  0  0  0  0  0  0
   40.5780   79.4130   61.1200 C   0  0  2  0  0  0  0  0  0  0  0  0
   41.0440   78.5650   60.0720 N   0  0  0  0  0  0  0  0  0  0  0  0
   40.1450   77.1160   59.8950 S   0  0  0  0  0  0  0  0  0  0  0  0
   41.0280   76.1420   59.1360 O   0  0  0  0  0  0  0  0  0  0  0  0
   38.9180   77.2820   59.0820 O   0  0  0  0  0  0  0  0  0  0  0  0
   39.7090   76.4290   61.3640 O   0  0  0  0  0  0  0  0  0  0  0  0
   40.5985   85.2438   62.5404 H   0  0  0  0  0  0  0  0  0  0  0  0
   39.7974   83.5972   64.2238 H   0  0  0  0  0  0  0  0  0  0  0  0
   43.1988   87.1852   57.6284 H   0  0  0  0  0  0  0  0  0  0  0  0
   41.2344   85.6701   57.1661 H   0  0  0  0  0  0  0  0  0  0  0  0
   44.8100   87.9215   58.9742 H   0  0  0  0  0  0  0  0  0  0  0  0
   45.1178   87.3283   60.6283 H   0  0  0  0  0  0  0  0  0  0  0  0
   42.7496   80.2249   62.0437 H   0  0  0  0  0  0  0  0  0  0  0  0
   41.1903   78.1427   62.8665 H   0  0  0  0  0  0  0  0  0  0  0  0
   40.1076   79.1198   63.4383 H   0  0  0  0  0  0  0  0  0  0  0  0
   39.6977   79.6739   60.5142 H   0  0  0  0  0  0  0  0  0  0  0  0
   40.9935   79.0877   59.1859 H   0  0  0  0  0  0  0  0  0  0  0  0
   41.5334   75.5845   59.7793 H   0  0  0  0  0  0  0  0  0  0  0  0
   38.1370   77.3877   59.6811 H   0  0  0  0  0  0  0  0  0  0  0  0
   40.0608   76.9834   62.1049 H   0  0  0  0  0  0  0  0  0  0  0  0
  1  2  2  0
  2  3  1  0
  4  3  2  0
  5  4  1  0
  6  1  1  0
  6  5  2  0
  7 13  1  0
  7 12  2  0
  8  7  1  0
  9  8  2  0
  9 10  1  0
 10 11  2  0
 11 12  1  0
 11  1  1  0
 14  5  1  0
 14 15  1  0
 16 14  1  0
 16 15  1  0
 17 16  1  0
 18 17  1  0
 18 21  1  0
 19 18  1  0
 20 18  1  0
  2 22  1  0
  3 23  1  0
  8 24  1  0
  9 25  1  0
 13 26  1  0
 13 27  1  0
 14 28  1  6
 15 29  1  0
 15 30  1  0
 16 31  1  1
 17 32  1  0
 19 33  1  0
 20 34  1  0
 21 35  1  0
M  ISO  8  22  14  23  14  24  14  25  14  28  13  29  13  30  13  31  13
M  ISO  4  32   5  33   3  34   3  35   3
M  END
>  <minimizedAffinity>  (1) 
-5.32246637

>  <minimizedRMSD>  (1) 
1.42393804

$$$$
