
     RDKit          3D

 42 45  0  0  1  0  0  0  0  0999 V2000
   41.8740   83.7670   61.2870 C   0  0  0  0  0  0  0  0  0  0  0  0
   40.5730   84.1640   61.3180 C   0  0  0  0  0  0  0  0  0  0  0  0
   39.5480   83.2640   61.6210 C   0  0  0  0  0  0  0  0  0  0  0  0
   39.8350   81.9840   61.8880 N   0  0  0  0  0  0  0  0  0  0  0  0
   41.1310   81.5970   61.8550 C   0  0  0  0  0  0  0  0  0  0  0  0
   42.1040   82.4750   61.5630 N   0  0  0  0  0  0  0  0  0  0  0  0
   44.1400   86.6410   61.2930 C   0  0  0  0  0  0  0  0  0  0  0  0
   45.0350   86.3190   60.2830 C   0  0  0  0  0  0  0  0  0  0  0  0
   44.8740   85.1110   59.5870 C   0  0  0  0  0  0  0  0  0  0  0  0
   43.8300   84.3410   59.9690 N   0  0  0  0  0  0  0  0  0  0  0  0
   42.9710   84.6740   60.9540 C   0  0  0  0  0  0  0  0  0  0  0  0
   43.1200   85.8100   61.6140 N   0  0  0  0  0  0  0  0  0  0  0  0
   44.4120   87.8820   61.9260 N   0  0  0  0  0  0  0  0  0  0  0  0
   41.4120   80.1510   62.1350 C   0  0  1  0  0  0  0  0  0  0  0  0
   40.4020   79.1460   61.8920 C   0  0  0  0  0  0  0  0  0  0  0  0
   41.4530   79.3150   60.8680 C   0  0  1  0  0  0  0  0  0  0  0  0
   41.2720   79.8640   59.5730 N   0  0  0  0  0  0  0  0  0  0  0  0
   40.1360   79.2570   58.8780 C   0  0  0  0  0  0  0  0  0  0  0  0
   40.3300   77.7880   58.6010 C   0  0  0  0  0  0  0  0  0  0  0  0
   41.5970   77.5390   57.8070 C   0  0  0  0  0  0  0  0  0  0  0  0
   42.2200   78.8860   57.5040 C   0  0  0  0  0  0  0  0  0  0  0  0
   42.4770   79.6950   58.7650 C   0  0  0  0  0  0  0  0  0  0  0  0
   40.3234   85.2130   61.1005 H   0  0  0  0  0  0  0  0  0  0  0  0
   38.5033   83.6079   61.6402 H   0  0  0  0  0  0  0  0  0  0  0  0
   45.8600   87.0016   60.0310 H   0  0  0  0  0  0  0  0  0  0  0  0
   45.5563   84.8085   58.7789 H   0  0  0  0  0  0  0  0  0  0  0  0
   45.2118   88.4531   61.6176 H   0  0  0  0  0  0  0  0  0  0  0  0
   43.8096   88.2115   62.6938 H   0  0  0  0  0  0  0  0  0  0  0  0
   42.0446   80.3583   63.0107 H   0  0  0  0  0  0  0  0  0  0  0  0
   40.3850   78.2340   62.5068 H   0  0  0  0  0  0  0  0  0  0  0  0
   39.3024   79.1613   61.8654 H   0  0  0  0  0  0  0  0  0  0  0  0
   42.1621   78.6411   60.3650 H   0  0  0  0  0  0  0  0  0  0  0  0
   39.2377   79.3804   59.5008 H   0  0  0  0  0  0  0  0  0  0  0  0
   40.0360   79.7640   57.9069 H   0  0  0  0  0  0  0  0  0  0  0  0
   40.3949   77.2487   59.5575 H   0  0  0  0  0  0  0  0  0  0  0  0
   39.4742   77.4306   58.0095 H   0  0  0  0  0  0  0  0  0  0  0  0
   42.2952   76.9270   58.3970 H   0  0  0  0  0  0  0  0  0  0  0  0
   41.3694   77.0004   56.8753 H   0  0  0  0  0  0  0  0  0  0  0  0
   43.1763   78.7255   56.9847 H   0  0  0  0  0  0  0  0  0  0  0  0
   41.5148   79.4515   56.8771 H   0  0  0  0  0  0  0  0  0  0  0  0
   43.2371   79.1771   59.3683 H   0  0  0  0  0  0  0  0  0  0  0  0
   42.8184   80.6948   58.4585 H   0  0  0  0  0  0  0  0  0  0  0  0
  1  2  2  0
  1  6  1  0
  2  3  1  0
  3  4  2  0
  5  4  1  0
  5 14  1  0
  6  5  2  0
  7 12  2  0
  7 13  1  0
  8  7  1  0
  9 10  1  0
  9  8  2  0
 10 11  2  0
 11  1  1  0
 11 12  1  0
 15 14  1  0
 16 15  1  0
 16 14  1  0
 17 16  1  0
 18 17  1  0
 19 18  1  0
 20 19  1  0
 21 20  1  0
 21 22  1  0
 22 17  1  0
  2 23  1  0
  3 24  1  0
  8 25  1  0
  9 26  1  0
 13 27  1  0
 13 28  1  0
 14 29  1  1
 15 30  1  0
 15 31  1  0
 16 32  1  6
 18 33  1  0
 18 34  1  0
 19 35  1  0
 19 36  1  0
 20 37  1  0
 20 38  1  0
 21 39  1  0
 21 40  1  0
 22 41  1  0
 22 42  1  0
M  ISO  8  23  14  24  14  25  14  26  14  29  13  30  13  31  13  32  13
M  ISO  8  33  13  34  13  35  13  36  13  37  13  38  13  39  13  40  13
M  ISO  2  41  13  42  13
M  END
>  <minimizedAffinity>  (1) 
-4.85663223

>  <minimizedRMSD>  (1) 
2.24829292

$$$$
