
     RDKit          3D

 24 26  0  0  0  0  0  0  0  0999 V2000
   40.2660   80.8210   59.6140 C   0  0  0  0  0  0  0  0  0  0  0  0
   40.5340   80.0330   60.7530 C   0  0  0  0  0  0  0  0  0  0  0  0
   40.8700   80.6590   61.9090 C   0  0  0  0  0  0  0  0  0  0  0  0
   40.9390   82.0720   61.9290 C   0  0  0  0  0  0  0  0  0  0  0  0
   40.4950   82.5320   60.1840 S   0  0  0  0  0  0  0  0  0  0  0  0
   39.3480   78.3820   57.0600 C   0  0  0  0  0  0  0  0  0  0  0  0
   39.1920   79.1590   55.8960 C   0  0  0  0  0  0  0  0  0  0  0  0
   39.4070   80.5410   56.0010 C   0  0  0  0  0  0  0  0  0  0  0  0
   39.7520   81.0430   57.2190 N   0  0  0  0  0  0  0  0  0  0  0  0
   39.8900   80.2610   58.3030 C   0  0  0  0  0  0  0  0  0  0  0  0
   39.6930   78.9500   58.2350 N   0  0  0  0  0  0  0  0  0  0  0  0
   41.2520   82.9820   62.9490 C   0  0  0  0  0  0  0  0  0  0  0  0
   42.4210   83.6610   63.2150 C   0  0  0  0  0  0  0  0  0  0  0  0
   42.2750   84.4300   64.2970 N   0  0  0  0  0  0  0  0  0  0  0  0
   40.9940   84.2390   64.7260 C   0  0  0  0  0  0  0  0  0  0  0  0
   40.3910   83.3670   63.9090 N   0  0  0  0  0  0  0  0  0  0  0  0
   40.4720   78.9358   60.7051 H   0  0  0  0  0  0  0  0  0  0  0  0
   41.0855   80.0766   62.8170 H   0  0  0  0  0  0  0  0  0  0  0  0
   39.1862   77.2951   57.0110 H   0  0  0  0  0  0  0  0  0  0  0  0
   38.9112   78.6980   54.9375 H   0  0  0  0  0  0  0  0  0  0  0  0
   39.3002   81.1993   55.1262 H   0  0  0  0  0  0  0  0  0  0  0  0
   43.3432   83.5811   62.6208 H   0  0  0  0  0  0  0  0  0  0  0  0
   42.9855   85.0431   64.7216 H   0  0  0  0  0  0  0  0  0  0  0  0
   40.5326   84.7223   65.5998 H   0  0  0  0  0  0  0  0  0  0  0  0
  1  5  1  0
  1  2  2  0
  2  3  1  0
  3  4  2  0
  4 12  1  0
  5  4  1  0
  6 11  2  0
  7  8  2  0
  7  6  1  0
  8  9  1  0
  9 10  2  0
 10  1  1  0
 11 10  1  0
 12 13  2  0
 12 16  1  0
 13 14  1  0
 14 15  1  0
 16 15  2  0
  2 17  1  0
  3 18  1  0
  6 19  1  0
  7 20  1  0
  8 21  1  0
 13 22  1  0
 14 23  1  0
 15 24  1  0
M  ISO  8  17  14  18  14  19  14  20  14  21  14  22  14  23   9  24  14
M  END
>  <minimizedAffinity>  (1) 
-4.61814928

>  <minimizedRMSD>  (1) 
7.42344856

$$$$
