
     RDKit          3D

 20 21  0  0  0  0  0  0  0  0999 V2000
   40.4850   81.7360   61.3270 C   0  0  0  0  0  0  0  0  0  0  0  0
   39.4950   82.7230   61.5320 C   0  0  0  0  0  0  0  0  0  0  0  0
   39.7770   83.7530   62.3720 C   0  0  0  0  0  0  0  0  0  0  0  0
   41.0360   83.7980   63.0010 C   0  0  0  0  0  0  0  0  0  0  0  0
   41.8840   82.2800   62.3650 S   0  0  0  0  0  0  0  0  0  0  0  0
   40.1580   78.2720   60.2200 C   0  0  0  0  0  0  0  0  0  0  0  0
   40.0020   78.3900   58.8230 C   0  0  0  0  0  0  0  0  0  0  0  0
   40.0100   79.6780   58.2700 C   0  0  0  0  0  0  0  0  0  0  0  0
   40.1650   80.7180   59.1100 N   0  0  0  0  0  0  0  0  0  0  0  0
   40.3110   80.5730   60.4420 C   0  0  0  0  0  0  0  0  0  0  0  0
   40.3100   79.3640   61.0110 N   0  0  0  0  0  0  0  0  0  0  0  0
   41.6420   84.7090   63.9160 C   0  0  0  0  0  0  0  0  0  0  0  0
   42.2960   84.0300   64.9320 F   0  0  0  0  0  0  0  0  0  0  0  0
   42.5270   85.5320   63.2180 F   0  0  0  0  0  0  0  0  0  0  0  0
   40.6710   85.5000   64.4910 F   0  0  0  0  0  0  0  0  0  0  0  0
   38.5211   82.6592   61.0246 H   0  0  0  0  0  0  0  0  0  0  0  0
   39.0322   84.5408   62.5581 H   0  0  0  0  0  0  0  0  0  0  0  0
   40.1564   77.2721   60.6785 H   0  0  0  0  0  0  0  0  0  0  0  0
   39.8781   77.5002   58.1882 H   0  0  0  0  0  0  0  0  0  0  0  0
   39.8937   79.8333   57.1873 H   0  0  0  0  0  0  0  0  0  0  0  0
  1  2  2  0
  1  5  1  0
  2  3  1  0
  3  4  2  0
  4 12  1  0
  5  4  1  0
  6 11  2  0
  7  6  1  0
  8  7  2  0
  8  9  1  0
  9 10  2  0
 10 11  1  0
 10  1  1  0
 12 15  1  0
 12 13  1  0
 14 12  1  0
  2 16  1  0
  3 17  1  0
  6 18  1  0
  7 19  1  0
  8 20  1  0
M  ISO  5  16  14  17  14  18  14  19  14  20  14
M  END
>  <minimizedAffinity>  (1) 
-4.5465045

>  <minimizedRMSD>  (1) 
6.53415585

$$$$
