
     RDKit          3D

 23 24  0  0  0  0  0  0  0  0999 V2000
   41.1380   81.2770   61.3990 C   0  0  0  0  0  0  0  0  0  0  0  0
   40.4850   80.0530   61.6600 C   0  0  0  0  0  0  0  0  0  0  0  0
   40.3190   79.1660   60.6490 C   0  0  0  0  0  0  0  0  0  0  0  0
   40.8110   79.5060   59.3650 C   0  0  0  0  0  0  0  0  0  0  0  0
   41.5510   81.1880   59.6230 S   0  0  0  0  0  0  0  0  0  0  0  0
   42.8580   83.7870   63.4010 C   0  0  0  0  0  0  0  0  0  0  0  0
   41.8510   84.2400   64.2990 C   0  0  0  0  0  0  0  0  0  0  0  0
   40.5560   83.6600   64.2010 C   0  0  0  0  0  0  0  0  0  0  0  0
   40.3720   82.7090   63.2520 N   0  0  0  0  0  0  0  0  0  0  0  0
   41.3730   82.3130   62.4170 C   0  0  0  0  0  0  0  0  0  0  0  0
   42.5930   82.8320   62.4790 N   0  0  0  0  0  0  0  0  0  0  0  0
   40.8140   78.8840   58.1960 O   0  0  0  0  0  0  0  0  0  0  0  0
   38.4340   78.0850   57.5880 O   0  0  0  0  0  0  0  0  0  0  0  0
   39.4980   79.0850   57.1440 P   0  0  0  0  0  0  0  0  0  0  0  0
   38.8060   80.6380   57.2460 O   0  0  0  0  0  0  0  0  0  0  0  0
   39.8730   78.6850   55.5480 O   0  0  0  0  0  0  0  0  0  0  0  0
   40.1159   79.8223   62.6702 H   0  0  0  0  0  0  0  0  0  0  0  0
   39.8138   78.2042   60.8215 H   0  0  0  0  0  0  0  0  0  0  0  0
   43.8677   84.2198   63.4571 H   0  0  0  0  0  0  0  0  0  0  0  0
   42.0680   85.0164   65.0474 H   0  0  0  0  0  0  0  0  0  0  0  0
   39.7376   83.9700   64.8674 H   0  0  0  0  0  0  0  0  0  0  0  0
   38.6947   80.8878   58.1975 H   0  0  0  0  0  0  0  0  0  0  0  0
   40.5501   77.9628   55.5392 H   0  0  0  0  0  0  0  0  0  0  0  0
  1  2  2  0
  1 10  1  0
  3  2  1  0
  4  5  1  0
  4  3  2  0
  5  1  1  0
  6  7  2  0
  8  7  1  0
  9  8  2  0
 10 11  2  0
 10  9  1  0
 11  6  1  0
 12  4  1  0
 14 15  1  0
 14 13  2  0
 14 12  1  0
 16 14  1  0
  2 17  1  0
  3 18  1  0
  6 19  1  0
  7 20  1  0
  8 21  1  0
 15 22  1  0
 16 23  1  0
M  ISO  7  17  14  18  14  19  14  20  14  21  14  22   3  23   3
M  END
>  <minimizedAffinity>  (1) 
-4.39648199

>  <minimizedRMSD>  (1) 
5.69130421

$$$$
