
     RDKit          3D

 23 24  0  0  0  0  0  0  0  0999 V2000
   40.6710   82.4760   60.8120 C   0  0  0  0  0  0  0  0  0  0  0  0
   40.3490   81.1030   60.7410 C   0  0  0  0  0  0  0  0  0  0  0  0
   40.0900   80.5570   59.5270 C   0  0  0  0  0  0  0  0  0  0  0  0
   40.1540   81.3830   58.3860 C   0  0  0  0  0  0  0  0  0  0  0  0
   40.6110   83.0450   59.0720 S   0  0  0  0  0  0  0  0  0  0  0  0
   42.3170   84.6740   63.2210 C   0  0  0  0  0  0  0  0  0  0  0  0
   41.5350   84.5370   64.3820 C   0  0  0  0  0  0  0  0  0  0  0  0
   40.4320   83.6770   64.3230 C   0  0  0  0  0  0  0  0  0  0  0  0
   40.1720   83.0190   63.1550 N   0  0  0  0  0  0  0  0  0  0  0  0
   40.9710   83.1960   62.0620 C   0  0  0  0  0  0  0  0  0  0  0  0
   42.0240   84.0030   62.0800 N   0  0  0  0  0  0  0  0  0  0  0  0
   39.9390   81.1210   56.9770 C   0  0  0  0  0  0  0  0  0  0  0  0
   38.9000   80.0350   56.8340 C   0  0  0  0  0  0  0  0  0  0  0  0
   40.3090   80.4884   61.6524 H   0  0  0  0  0  0  0  0  0  0  0  0
   39.8351   79.4910   59.4342 H   0  0  0  0  0  0  0  0  0  0  0  0
   43.1896   85.3435   63.2393 H   0  0  0  0  0  0  0  0  0  0  0  0
   41.7812   85.0857   65.3030 H   0  0  0  0  0  0  0  0  0  0  0  0
   39.7862   83.5338   65.2019 H   0  0  0  0  0  0  0  0  0  0  0  0
   39.5862   82.0371   56.4808 H   0  0  0  0  0  0  0  0  0  0  0  0
   40.8814   80.7987   56.5100 H   0  0  0  0  0  0  0  0  0  0  0  0
   38.5798   79.7003   57.8317 H   0  0  0  0  0  0  0  0  0  0  0  0
   38.0326   80.4276   56.2831 H   0  0  0  0  0  0  0  0  0  0  0  0
   39.3306   79.1859   56.2831 H   0  0  0  0  0  0  0  0  0  0  0  0
  1 10  1  0
  2  1  2  0
  3  2  1  0
  4  5  1  0
  4  3  2  0
  5  1  1  0
  6  7  2  0
  8  7  1  0
  9  8  2  0
 10 11  2  0
 10  9  1  0
 11  6  1  0
 12  4  1  0
 13 12  1  0
  2 14  1  0
  3 15  1  0
  6 16  1  0
  7 17  1  0
  8 18  1  0
 12 19  1  0
 12 20  1  0
 13 21  1  0
 13 22  1  0
 13 23  1  0
M  ISO  8  14  14  15  14  16  14  17  14  18  14  19   8  20   8  21   8
M  ISO  2  22   8  23   8
M  END
>  <minimizedAffinity>  (1) 
-4.1679759

>  <minimizedRMSD>  (1) 
3.4741559

$$$$
