
     RDKit          3D

 19 20  0  0  0  0  0  0  0  0999 V2000
   42.7630   82.1650   62.4200 C   0  0  0  0  0  0  0  0  0  0  0  0
   41.8780   81.2020   61.8970 C   0  0  0  0  0  0  0  0  0  0  0  0
   40.5830   81.5490   61.6790 C   0  0  0  0  0  0  0  0  0  0  0  0
   40.1650   82.8610   61.9820 C   0  0  0  0  0  0  0  0  0  0  0  0
   41.7070   83.6580   62.6180 S   0  0  0  0  0  0  0  0  0  0  0  0
   46.2410   82.8300   63.2780 C   0  0  0  0  0  0  0  0  0  0  0  0
   46.8390   81.5380   63.2340 C   0  0  0  0  0  0  0  0  0  0  0  0
   46.0120   80.4370   62.9030 C   0  0  0  0  0  0  0  0  0  0  0  0
   44.7030   80.6920   62.6500 N   0  0  0  0  0  0  0  0  0  0  0  0
   44.1830   81.9300   62.7030 C   0  0  0  0  0  0  0  0  0  0  0  0
   44.9280   82.9860   63.0100 N   0  0  0  0  0  0  0  0  0  0  0  0
   38.9730   83.5500   61.8950 C   0  0  0  0  0  0  0  0  0  0  0  0
   38.8130   84.3820   60.9650 O   0  0  0  0  0  0  0  0  0  0  0  0
   42.2300   80.1851   61.6688 H   0  0  0  0  0  0  0  0  0  0  0  0
   39.8704   80.8167   61.2718 H   0  0  0  0  0  0  0  0  0  0  0  0
   46.8542   83.7071   63.5324 H   0  0  0  0  0  0  0  0  0  0  0  0
   47.9087   81.3998   63.4501 H   0  0  0  0  0  0  0  0  0  0  0  0
   46.4149   79.4147   62.8529 H   0  0  0  0  0  0  0  0  0  0  0  0
   38.1729   83.3742   62.6292 H   0  0  0  0  0  0  0  0  0  0  0  0
  1  5  1  0
  1 10  1  0
  2  1  2  0
  3  2  1  0
  3  4  2  0
  4  5  1  0
  7  6  2  0
  8  7  1  0
  9 10  1  0
  9  8  2  0
 10 11  2  0
 11  6  1  0
 12  4  1  0
 13 12  2  0
  2 14  1  0
  3 15  1  0
  6 16  1  0
  7 17  1  0
  8 18  1  0
 12 19  1  0
M  ISO  6  14  14  15  14  16  14  17  14  18  14  19   6
M  END
>  <minimizedAffinity>  (1) 
-4.1636982

>  <minimizedRMSD>  (1) 
5.81078434

$$$$
