
     RDKit          3D

 29 31  0  0  0  0  0  0  0  0999 V2000
   42.9120   84.3500   60.7710 C   0  0  0  0  0  0  0  0  0  0  0  0
   41.7480   84.0720   61.5500 C   0  0  0  0  0  0  0  0  0  0  0  0
   41.3730   82.7630   61.6730 C   0  0  0  0  0  0  0  0  0  0  0  0
   42.1390   81.7590   61.0360 C   0  0  0  0  0  0  0  0  0  0  0  0
   43.4800   82.7180   60.2040 S   0  0  0  0  0  0  0  0  0  0  0  0
   44.4110   87.5960   61.4860 C   0  0  0  0  0  0  0  0  0  0  0  0
   44.3870   88.2460   60.2260 C   0  0  0  0  0  0  0  0  0  0  0  0
   43.8550   87.5580   59.1300 C   0  0  0  0  0  0  0  0  0  0  0  0
   43.3900   86.2960   59.3440 N   0  0  0  0  0  0  0  0  0  0  0  0
   43.4300   85.7070   60.5620 C   0  0  0  0  0  0  0  0  0  0  0  0
   43.9340   86.3350   61.6420 N   0  0  0  0  0  0  0  0  0  0  0  0
   41.7950   80.4390   61.1340 N   0  0  0  0  0  0  0  0  0  0  0  0
   40.4970   80.1430   61.7400 C   0  0  0  0  0  0  0  0  0  0  0  0
   40.6080   78.7640   62.3500 C   0  0  0  0  0  0  0  0  0  0  0  0
   42.0950   78.4470   62.1810 C   0  0  0  0  0  0  0  0  0  0  0  0
   42.3080   79.1160   60.8200 C   0  0  0  0  0  0  0  0  0  0  0  0
   41.1760   84.8786   62.0318 H   0  0  0  0  0  0  0  0  0  0  0  0
   40.4839   82.4932   62.2618 H   0  0  0  0  0  0  0  0  0  0  0  0
   44.8255   88.1256   62.3565 H   0  0  0  0  0  0  0  0  0  0  0  0
   44.7778   89.2680   60.1128 H   0  0  0  0  0  0  0  0  0  0  0  0
   43.8138   88.0194   58.1323 H   0  0  0  0  0  0  0  0  0  0  0  0
   40.2639   80.8844   62.5184 H   0  0  0  0  0  0  0  0  0  0  0  0
   39.6922   80.1813   60.9911 H   0  0  0  0  0  0  0  0  0  0  0  0
   40.3219   78.7748   63.4121 H   0  0  0  0  0  0  0  0  0  0  0  0
   39.9450   78.0220   61.8811 H   0  0  0  0  0  0  0  0  0  0  0  0
   42.7099   78.9046   62.9700 H   0  0  0  0  0  0  0  0  0  0  0  0
   42.3698   77.3836   62.2422 H   0  0  0  0  0  0  0  0  0  0  0  0
   41.7271   78.6265   60.0244 H   0  0  0  0  0  0  0  0  0  0  0  0
   43.3380   79.0872   60.4348 H   0  0  0  0  0  0  0  0  0  0  0  0
  1  2  2  0
  2  3  1  0
  4 12  1  0
  4  3  2  0
  5  1  1  0
  5  4  1  0
  6 11  2  0
  7  6  1  0
  8  9  1  0
  8  7  2  0
  9 10  2  0
 10  1  1  0
 10 11  1  0
 12 13  1  0
 13 14  1  0
 15 14  1  0
 16 12  1  0
 16 15  1  0
  2 17  1  0
  3 18  1  0
  6 19  1  0
  7 20  1  0
  8 21  1  0
 13 22  1  0
 13 23  1  0
 14 24  1  0
 14 25  1  0
 15 26  1  0
 15 27  1  0
 16 28  1  0
 16 29  1  0
M  ISO  8  17  14  18  14  19  14  20  14  21  14  22  13  23  13  24  13
M  ISO  5  25  13  26  13  27  13  28  13  29  13
M  END
>  <minimizedAffinity>  (1) 
-4.12363577

>  <minimizedRMSD>  (1) 
6.79298925

$$$$
