
     RDKit          3D

 19 20  0  0  0  0  0  0  0  0999 V2000
   41.2760   83.8910   58.9580 C   0  0  0  0  0  0  0  0  0  0  0  0
   41.3580   82.7730   58.1040 C   0  0  0  0  0  0  0  0  0  0  0  0
   41.7400   82.9500   56.8140 C   0  0  0  0  0  0  0  0  0  0  0  0
   42.0430   84.2490   56.3630 C   0  0  0  0  0  0  0  0  0  0  0  0
   41.7670   85.3000   57.8840 S   0  0  0  0  0  0  0  0  0  0  0  0
   41.4360   84.1280   62.5810 C   0  0  0  0  0  0  0  0  0  0  0  0
   40.1400   83.7480   62.9950 C   0  0  0  0  0  0  0  0  0  0  0  0
   39.2070   83.4070   62.0000 C   0  0  0  0  0  0  0  0  0  0  0  0
   39.6050   83.4620   60.6920 N   0  0  0  0  0  0  0  0  0  0  0  0
   40.8740   83.8380   60.3610 C   0  0  0  0  0  0  0  0  0  0  0  0
   41.7810   84.1660   61.2740 N   0  0  0  0  0  0  0  0  0  0  0  0
   42.4410   84.7990   55.1990 N   0  0  0  0  0  0  0  0  0  0  0  0
   41.1150   81.7679   58.4790 H   0  0  0  0  0  0  0  0  0  0  0  0
   41.8119   82.0911   56.1305 H   0  0  0  0  0  0  0  0  0  0  0  0
   42.1834   84.3999   63.3409 H   0  0  0  0  0  0  0  0  0  0  0  0
   39.8696   83.7198   64.0609 H   0  0  0  0  0  0  0  0  0  0  0  0
   38.1836   83.1039   62.2661 H   0  0  0  0  0  0  0  0  0  0  0  0
   42.5976   85.8151   55.1365 H   0  0  0  0  0  0  0  0  0  0  0  0
   42.5887   84.2033   54.3718 H   0  0  0  0  0  0  0  0  0  0  0  0
  1 10  1  0
  2  1  2  0
  3  2  1  0
  4  3  2  0
  4  5  1  0
  5  1  1  0
  6  7  2  0
  8  7  1  0
  9  8  2  0
 10  9  1  0
 10 11  2  0
 11  6  1  0
 12  4  1  0
  2 13  1  0
  3 14  1  0
  6 15  1  0
  7 16  1  0
  8 17  1  0
 12 18  1  0
 12 19  1  0
M  ISO  5  13  14  14  14  15  14  16  14  17  14
M  END
>  <minimizedAffinity>  (1) 
-3.86245298

>  <minimizedRMSD>  (1) 
0.373976022

$$$$
