
     RDKit          3D

 21 22  0  0  0  0  0  0  0  0999 V2000
   42.3010   81.1380   61.1810 C   0  0  0  0  0  0  0  0  0  0  0  0
   40.9590   80.8940   61.5050 C   0  0  0  0  0  0  0  0  0  0  0  0
   39.9870   81.6130   60.9010 C   0  0  0  0  0  0  0  0  0  0  0  0
   40.3740   82.5890   59.9630 C   0  0  0  0  0  0  0  0  0  0  0  0
   42.2400   82.4690   59.9420 S   0  0  0  0  0  0  0  0  0  0  0  0
   44.3820   78.3890   62.3880 C   0  0  0  0  0  0  0  0  0  0  0  0
   45.5270   79.0350   62.8930 C   0  0  0  0  0  0  0  0  0  0  0  0
   45.5820   80.4530   62.8150 C   0  0  0  0  0  0  0  0  0  0  0  0
   44.5200   81.0740   62.2550 N   0  0  0  0  0  0  0  0  0  0  0  0
   43.4360   80.4110   61.7810 C   0  0  0  0  0  0  0  0  0  0  0  0
   43.3590   79.0870   61.8430 N   0  0  0  0  0  0  0  0  0  0  0  0
   39.2180   84.7120   59.7370 C   0  0  0  0  0  0  0  0  0  0  0  0
   39.4610   84.8950   60.9780 O   0  0  0  0  0  0  0  0  0  0  0  0
   39.6870   83.4990   59.1610 N   0  0  0  0  0  0  0  0  0  0  0  0
   40.6991   80.1231   62.2453 H   0  0  0  0  0  0  0  0  0  0  0  0
   38.9261   81.4409   61.1351 H   0  0  0  0  0  0  0  0  0  0  0  0
   44.3179   77.2920   62.4378 H   0  0  0  0  0  0  0  0  0  0  0  0
   46.3539   78.4594   63.3345 H   0  0  0  0  0  0  0  0  0  0  0  0
   46.4472   81.0180   63.1922 H   0  0  0  0  0  0  0  0  0  0  0  0
   38.6713   85.4581   59.1416 H   0  0  0  0  0  0  0  0  0  0  0  0
   39.5213   83.2958   58.1649 H   0  0  0  0  0  0  0  0  0  0  0  0
  1  2  2  0
  1 10  1  0
  3  2  1  0
  4  3  2  0
  5  4  1  0
  5  1  1  0
  6  7  2  0
  8  7  1  0
  9  8  2  0
 10 11  2  0
 10  9  1  0
 11  6  1  0
 12 13  2  0
 14 12  1  0
 14  4  1  0
  2 15  1  0
  3 16  1  0
  6 17  1  0
  7 18  1  0
  8 19  1  0
 12 20  1  0
 14 21  1  0
M  ISO  6  15  14  16  14  17  14  18  14  19  14  20   6
M  END
>  <minimizedAffinity>  (1) 
-3.78042698

>  <minimizedRMSD>  (1) 
5.34924221

$$$$
