
     RDKit          3D

 20 21  0  0  0  0  0  0  0  0999 V2000
   41.4680   83.9940   62.6360 C   0  0  0  0  0  0  0  0  0  0  0  0
   40.1660   83.7250   63.1010 C   0  0  0  0  0  0  0  0  0  0  0  0
   39.1910   83.4020   62.1470 C   0  0  0  0  0  0  0  0  0  0  0  0
   39.5640   83.3700   60.8440 N   0  0  0  0  0  0  0  0  0  0  0  0
   40.8190   83.6320   60.4420 C   0  0  0  0  0  0  0  0  0  0  0  0
   41.7920   83.9480   61.3190 N   0  0  0  0  0  0  0  0  0  0  0  0
   41.2050   83.5850   59.0220 C   0  0  0  0  0  0  0  0  0  0  0  0
   40.9810   82.4650   58.1910 C   0  0  0  0  0  0  0  0  0  0  0  0
   41.3910   82.5420   56.8960 C   0  0  0  0  0  0  0  0  0  0  0  0
   42.0160   83.7190   56.4360 C   0  0  0  0  0  0  0  0  0  0  0  0
   42.0270   84.8000   57.9390 S   0  0  0  0  0  0  0  0  0  0  0  0
   42.5530   84.1320   55.1880 C   0  0  0  0  0  0  0  0  0  0  0  0
   42.2498   84.2504   63.3661 H   0  0  0  0  0  0  0  0  0  0  0  0
   39.9232   83.7668   64.1731 H   0  0  0  0  0  0  0  0  0  0  0  0
   38.1557   83.1814   62.4462 H   0  0  0  0  0  0  0  0  0  0  0  0
   40.4908   81.5596   58.5784 H   0  0  0  0  0  0  0  0  0  0  0  0
   41.2362   81.6932   56.2137 H   0  0  0  0  0  0  0  0  0  0  0  0
   43.4142   84.7943   55.3605 H   0  0  0  0  0  0  0  0  0  0  0  0
   42.8780   83.2489   54.6184 H   0  0  0  0  0  0  0  0  0  0  0  0
   41.7829   84.6728   54.6184 H   0  0  0  0  0  0  0  0  0  0  0  0
  1  2  2  0
  3  2  1  0
  4  3  2  0
  5  4  1  0
  5  6  2  0
  6  1  1  0
  7  5  1  0
  8  7  2  0
  9  8  1  0
 10  9  2  0
 10 11  1  0
 11  7  1  0
 12 10  1  0
  1 13  1  0
  2 14  1  0
  3 15  1  0
  8 16  1  0
  9 17  1  0
 12 18  1  0
 12 19  1  0
 12 20  1  0
M  ISO  8  13  14  14  14  15  14  16  14  17  14  18   8  19   8  20   8
M  END
>  <minimizedAffinity>  (1) 
-3.46174455

>  <minimizedRMSD>  (1) 
0.70210278

$$$$
