
     RDKit          3D

 25 27  0  0  0  0  0  0  0  0999 V2000
   43.1120   80.9930   60.4620 C   0  0  0  0  0  0  0  0  0  0  0  0
   42.8530   80.7870   59.0940 C   0  0  0  0  0  0  0  0  0  0  0  0
   42.1840   81.7430   58.4070 C   0  0  0  0  0  0  0  0  0  0  0  0
   41.7720   82.9070   59.0840 C   0  0  0  0  0  0  0  0  0  0  0  0
   42.3800   82.6190   60.8110 S   0  0  0  0  0  0  0  0  0  0  0  0
   45.6940   79.6070   62.6390 C   0  0  0  0  0  0  0  0  0  0  0  0
   45.2060   78.2900   62.9120 C   0  0  0  0  0  0  0  0  0  0  0  0
   43.9890   77.9020   62.3390 C   0  0  0  0  0  0  0  0  0  0  0  0
   43.3480   78.8000   61.5590 N   0  0  0  0  0  0  0  0  0  0  0  0
   43.8280   80.0340   61.3170 C   0  0  0  0  0  0  0  0  0  0  0  0
   44.9780   80.4260   61.8480 N   0  0  0  0  0  0  0  0  0  0  0  0
   41.0730   84.1030   58.7440 C   0  0  0  0  0  0  0  0  0  0  0  0
   39.8940   84.3910   59.3910 C   0  0  0  0  0  0  0  0  0  0  0  0
   39.3090   85.5910   58.9660 C   0  0  0  0  0  0  0  0  0  0  0  0
   39.8380   86.3910   58.0210 N   0  0  0  0  0  0  0  0  0  0  0  0
   41.0100   86.0220   57.4370 C   0  0  0  0  0  0  0  0  0  0  0  0
   41.6340   84.8650   57.8040 N   0  0  0  0  0  0  0  0  0  0  0  0
   43.1877   79.8669   58.5925 H   0  0  0  0  0  0  0  0  0  0  0  0
   41.9658   81.6124   57.3368 H   0  0  0  0  0  0  0  0  0  0  0  0
   46.6463   79.9467   63.0722 H   0  0  0  0  0  0  0  0  0  0  0  0
   45.7722   77.6004   63.5553 H   0  0  0  0  0  0  0  0  0  0  0  0
   43.5693   76.9010   62.5175 H   0  0  0  0  0  0  0  0  0  0  0  0
   39.4545   83.7441   60.1645 H   0  0  0  0  0  0  0  0  0  0  0  0
   38.3611   85.8979   59.4321 H   0  0  0  0  0  0  0  0  0  0  0  0
   41.4585   86.6615   56.6625 H   0  0  0  0  0  0  0  0  0  0  0  0
  1  5  1  0
  1 10  1  0
  2  1  2  0
  3  4  2  0
  3  2  1  0
  4  5  1  0
  6  7  2  0
  8  7  1  0
  9  8  2  0
 10  9  1  0
 10 11  2  0
 11  6  1  0
 12  4  1  0
 12 13  2  0
 14 13  1  0
 15 14  2  0
 16 17  2  0
 16 15  1  0
 17 12  1  0
  2 18  1  0
  3 19  1  0
  6 20  1  0
  7 21  1  0
  8 22  1  0
 13 23  1  0
 14 24  1  0
 16 25  1  0
M  ISO  8  18  14  19  14  20  14  21  14  22  14  23  14  24  14  25  14
M  END
>  <minimizedAffinity>  (1) 
-3.3675642

>  <minimizedRMSD>  (1) 
5.0819068

$$$$
