
     RDKit          3D

 31 33  0  0  0  0  0  0  0  0999 V2000
   40.9700   80.3670   61.8520 C   0  0  0  0  0  0  0  0  0  0  0  0
   40.9900   79.1340   62.4990 C   0  0  0  0  0  0  0  0  0  0  0  0
   40.6000   78.0440   61.8030 C   0  0  0  0  0  0  0  0  0  0  0  0
   40.1920   78.1830   60.4740 C   0  0  0  0  0  0  0  0  0  0  0  0
   40.3720   79.9970   60.1740 S   0  0  0  0  0  0  0  0  0  0  0  0
   43.0670   83.1900   62.8630 C   0  0  0  0  0  0  0  0  0  0  0  0
   42.1780   83.9960   63.6300 C   0  0  0  0  0  0  0  0  0  0  0  0
   40.8710   83.5500   63.7840 C   0  0  0  0  0  0  0  0  0  0  0  0
   40.5220   82.3880   63.2000 N   0  0  0  0  0  0  0  0  0  0  0  0
   41.3710   81.6460   62.4840 C   0  0  0  0  0  0  0  0  0  0  0  0
   42.6120   82.0500   62.3270 N   0  0  0  0  0  0  0  0  0  0  0  0
   39.7240   77.3100   59.4400 C   0  0  0  0  0  0  0  0  0  0  0  0
   40.1340   75.9870   59.4610 C   0  0  0  0  0  0  0  0  0  0  0  0
   39.6050   75.2420   58.3950 C   0  0  0  0  0  0  0  0  0  0  0  0
   38.7900   75.7490   57.4540 N   0  0  0  0  0  0  0  0  0  0  0  0
   38.4470   77.0620   57.5250 C   0  0  0  0  0  0  0  0  0  0  0  0
   38.9230   77.8480   58.5340 N   0  0  0  0  0  0  0  0  0  0  0  0
   37.5430   77.5980   56.4710 C   0  0  0  0  0  0  0  0  0  0  0  0
   36.1210   77.3390   56.9190 C   0  0  0  0  0  0  0  0  0  0  0  0
   41.3141   79.0501   63.5468 H   0  0  0  0  0  0  0  0  0  0  0  0
   40.6036   77.0527   62.2798 H   0  0  0  0  0  0  0  0  0  0  0  0
   44.1119   83.4992   62.7130 H   0  0  0  0  0  0  0  0  0  0  0  0
   42.5145   84.9393   64.0849 H   0  0  0  0  0  0  0  0  0  0  0  0
   40.1411   84.1306   64.3673 H   0  0  0  0  0  0  0  0  0  0  0  0
   40.8006   75.5664   60.2283 H   0  0  0  0  0  0  0  0  0  0  0  0
   39.8741   74.1777   58.3256 H   0  0  0  0  0  0  0  0  0  0  0  0
   37.7351   77.0874   55.5158 H   0  0  0  0  0  0  0  0  0  0  0  0
   37.7136   78.6747   56.3241 H   0  0  0  0  0  0  0  0  0  0  0  0
   36.0785   77.3313   58.0182 H   0  0  0  0  0  0  0  0  0  0  0  0
   35.4645   78.1323   56.5323 H   0  0  0  0  0  0  0  0  0  0  0  0
   35.7863   76.3651   56.5323 H   0  0  0  0  0  0  0  0  0  0  0  0
  1 10  1  0
  1  2  2  0
  3  2  1  0
  4  3  2  0
  5  4  1  0
  5  1  1  0
  6  7  2  0
  7  8  1  0
  9  8  2  0
 10  9  1  0
 11 10  2  0
 11  6  1  0
 12 13  2  0
 12  4  1  0
 14 13  1  0
 15 16  1  0
 15 14  2  0
 16 17  2  0
 17 12  1  0
 18 19  1  0
 18 16  1  0
  2 20  1  0
  3 21  1  0
  6 22  1  0
  7 23  1  0
  8 24  1  0
 13 25  1  0
 14 26  1  0
 18 27  1  0
 18 28  1  0
 19 29  1  0
 19 30  1  0
 19 31  1  0
M  ISO  8  20  14  21  14  22  14  23  14  24  14  25  14  26  14  27   8
M  ISO  4  28   8  29   8  30   8  31   8
M  END
>  <minimizedAffinity>  (1) 
-5.36106348

>  <minimizedRMSD>  (1) 
7.15719509

$$$$
