
     RDKit          3D

 27 29  0  0  0  0  0  0  0  0999 V2000
   40.9030   80.2480   61.7090 C   0  0  0  0  0  0  0  0  0  0  0  0
   40.8200   79.0250   62.3720 C   0  0  0  0  0  0  0  0  0  0  0  0
   40.4560   77.9380   61.6570 C   0  0  0  0  0  0  0  0  0  0  0  0
   40.1770   78.0690   60.2950 C   0  0  0  0  0  0  0  0  0  0  0  0
   40.4500   79.8790   59.9850 S   0  0  0  0  0  0  0  0  0  0  0  0
   42.9460   83.0670   62.8350 C   0  0  0  0  0  0  0  0  0  0  0  0
   42.0190   83.8730   63.5480 C   0  0  0  0  0  0  0  0  0  0  0  0
   40.7030   83.4360   63.6320 C   0  0  0  0  0  0  0  0  0  0  0  0
   40.3780   82.2680   63.0300 N   0  0  0  0  0  0  0  0  0  0  0  0
   41.2870   81.5220   62.3570 C   0  0  0  0  0  0  0  0  0  0  0  0
   42.5370   81.9210   62.2670 N   0  0  0  0  0  0  0  0  0  0  0  0
   39.7770   77.2000   59.2320 C   0  0  0  0  0  0  0  0  0  0  0  0
   40.4590   76.0360   59.0290 C   0  0  0  0  0  0  0  0  0  0  0  0
   39.9580   75.2880   57.9530 C   0  0  0  0  0  0  0  0  0  0  0  0
   38.9140   75.6650   57.1900 N   0  0  0  0  0  0  0  0  0  0  0  0
   38.3020   76.8370   57.4680 C   0  0  0  0  0  0  0  0  0  0  0  0
   38.7330   77.6180   58.4980 N   0  0  0  0  0  0  0  0  0  0  0  0
   37.1740   77.2450   56.6440 C   0  0  0  0  0  0  0  0  0  0  0  0
   36.0370   77.2470   57.1810 O   0  0  0  0  0  0  0  0  0  0  0  0
   41.0443   78.9470   63.4461 H   0  0  0  0  0  0  0  0  0  0  0  0
   40.3798   76.9551   62.1451 H   0  0  0  0  0  0  0  0  0  0  0  0
   43.9967   83.3809   62.7483 H   0  0  0  0  0  0  0  0  0  0  0  0
   42.3338   84.8155   64.0198 H   0  0  0  0  0  0  0  0  0  0  0  0
   39.9460   84.0229   64.1728 H   0  0  0  0  0  0  0  0  0  0  0  0
   41.3128   75.7171   59.6449 H   0  0  0  0  0  0  0  0  0  0  0  0
   40.4493   74.3324   57.7174 H   0  0  0  0  0  0  0  0  0  0  0  0
   37.3106   77.5399   55.5931 H   0  0  0  0  0  0  0  0  0  0  0  0
  1 10  1  0
  1  2  2  0
  3  2  1  0
  4  3  2  0
  5  4  1  0
  5  1  1  0
  6  7  2  0
  7  8  1  0
  9  8  2  0
 10  9  1  0
 11 10  2  0
 11  6  1  0
 12  4  1  0
 13 12  2  0
 14 13  1  0
 15 16  1  0
 15 14  2  0
 16 17  2  0
 17 12  1  0
 18 19  2  0
 18 16  1  0
  2 20  1  0
  3 21  1  0
  6 22  1  0
  7 23  1  0
  8 24  1  0
 13 25  1  0
 14 26  1  0
 18 27  1  0
M  ISO  8  20  14  21  14  22  14  23  14  24  14  25  14  26  14  27   6
M  END
>  <minimizedAffinity>  (1) 
-5.2207036

>  <minimizedRMSD>  (1) 
7.23395777

$$$$
