
     RDKit          3D

 28 30  0  0  0  0  0  0  0  0999 V2000
   42.9420   78.2040   62.2360 C   0  0  0  0  0  0  0  0  0  0  0  0
   41.5840   78.5110   62.2530 C   0  0  0  0  0  0  0  0  0  0  0  0
   41.2220   79.7990   62.0540 C   0  0  0  0  0  0  0  0  0  0  0  0
   42.2030   80.7700   61.8400 C   0  0  0  0  0  0  0  0  0  0  0  0
   43.7710   79.7880   61.9260 S   0  0  0  0  0  0  0  0  0  0  0  0
   43.6300   74.6570   61.6590 C   0  0  0  0  0  0  0  0  0  0  0  0
   44.4530   74.3040   62.7600 C   0  0  0  0  0  0  0  0  0  0  0  0
   44.7600   75.2940   63.6860 C   0  0  0  0  0  0  0  0  0  0  0  0
   44.2580   76.5200   63.4790 N   0  0  0  0  0  0  0  0  0  0  0  0
   43.4850   76.8390   62.4370 C   0  0  0  0  0  0  0  0  0  0  0  0
   43.1760   75.9140   61.5390 N   0  0  0  0  0  0  0  0  0  0  0  0
   42.2320   82.1780   61.6010 C   0  0  0  0  0  0  0  0  0  0  0  0
   43.2480   82.9240   62.1710 C   0  0  0  0  0  0  0  0  0  0  0  0
   43.1660   84.2880   61.8640 C   0  0  0  0  0  0  0  0  0  0  0  0
   42.2100   84.8310   61.1000 N   0  0  0  0  0  0  0  0  0  0  0  0
   41.2510   84.0070   60.5850 C   0  0  0  0  0  0  0  0  0  0  0  0
   41.2590   82.6620   60.8370 N   0  0  0  0  0  0  0  0  0  0  0  0
   40.1490   84.5520   59.7190 C   0  0  0  0  0  0  0  0  0  0  0  0
   40.7470   85.5750   58.9730 F   0  0  0  0  0  0  0  0  0  0  0  0
   39.2070   85.1520   60.4970 F   0  0  0  0  0  0  0  0  0  0  0  0
   39.6200   83.5970   58.9050 F   0  0  0  0  0  0  0  0  0  0  0  0
   40.8285   77.7298   62.4231 H   0  0  0  0  0  0  0  0  0  0  0  0
   40.1587   80.0808   62.0607 H   0  0  0  0  0  0  0  0  0  0  0  0
   43.3647   73.9012   60.9051 H   0  0  0  0  0  0  0  0  0  0  0  0
   44.8358   73.2794   62.8768 H   0  0  0  0  0  0  0  0  0  0  0  0
   45.3934   75.0790   64.5592 H   0  0  0  0  0  0  0  0  0  0  0  0
   44.0390   82.4905   62.8006 H   0  0  0  0  0  0  0  0  0  0  0  0
   43.9363   84.9559   62.2770 H   0  0  0  0  0  0  0  0  0  0  0  0
  1  2  2  0
  1 10  1  0
  3  2  1  0
  4  5  1  0
  4  3  2  0
  5  1  1  0
  6  7  2  0
  7  8  1  0
  9  8  2  0
 10  9  1  0
 11  6  1  0
 11 10  2  0
 12  4  1  0
 12 13  2  0
 14 13  1  0
 15 14  2  0
 16 17  2  0
 16 15  1  0
 17 12  1  0
 18 20  1  0
 18 16  1  0
 19 18  1  0
 21 18  1  0
  2 22  1  0
  3 23  1  0
  6 24  1  0
  7 25  1  0
  8 26  1  0
 13 27  1  0
 14 28  1  0
M  ISO  7  22  14  23  14  24  14  25  14  26  14  27  14  28  14
M  END
>  <minimizedAffinity>  (1) 
-4.89236784

>  <minimizedRMSD>  (1) 
4.15276051

$$$$
