
     RDKit          3D

 26 28  0  0  0  0  0  0  0  0999 V2000
   39.5240   83.0930   61.0500 C   0  0  0  0  0  0  0  0  0  0  0  0
   40.8130   83.1430   60.4860 C   0  0  0  0  0  0  0  0  0  0  0  0
   41.9080   83.5320   61.2180 C   0  0  0  0  0  0  0  0  0  0  0  0
   41.7870   83.8950   62.5500 C   0  0  0  0  0  0  0  0  0  0  0  0
   42.5910   84.3100   63.5380 N   0  0  0  0  0  0  0  0  0  0  0  0
   41.8890   84.5190   64.6670 C   0  0  0  0  0  0  0  0  0  0  0  0
   40.6030   84.2180   64.3540 N   0  0  0  0  0  0  0  0  0  0  0  0
   40.5060   83.8350   63.0730 C   0  0  0  0  0  0  0  0  0  0  0  0
   39.3800   83.4530   62.3860 C   0  0  0  0  0  0  0  0  0  0  0  0
   40.4870   81.2560   57.3580 C   0  0  0  0  0  0  0  0  0  0  0  0
   41.1690   82.0510   56.4190 C   0  0  0  0  0  0  0  0  0  0  0  0
   41.7250   83.2260   56.8990 C   0  0  0  0  0  0  0  0  0  0  0  0
   41.6080   83.5730   58.2080 N   0  0  0  0  0  0  0  0  0  0  0  0
   40.9340   82.7610   59.0800 C   0  0  0  0  0  0  0  0  0  0  0  0
   40.3880   81.6240   58.6450 N   0  0  0  0  0  0  0  0  0  0  0  0
   42.4500   84.0810   55.9190 C   0  0  0  0  0  0  0  0  0  0  0  0
   38.6561   82.7785   60.4518 H   0  0  0  0  0  0  0  0  0  0  0  0
   42.8979   83.5559   60.7389 H   0  0  0  0  0  0  0  0  0  0  0  0
   43.6073   84.4499   63.4461 H   0  0  0  0  0  0  0  0  0  0  0  0
   42.2757   84.8614   65.6382 H   0  0  0  0  0  0  0  0  0  0  0  0
   38.3956   83.4323   62.8764 H   0  0  0  0  0  0  0  0  0  0  0  0
   40.0251   80.3129   57.0306 H   0  0  0  0  0  0  0  0  0  0  0  0
   41.2561   81.7564   55.3628 H   0  0  0  0  0  0  0  0  0  0  0  0
   43.0700   84.8122   56.4585 H   0  0  0  0  0  0  0  0  0  0  0  0
   43.0928   83.4504   55.2873 H   0  0  0  0  0  0  0  0  0  0  0  0
   41.7228   84.6121   55.2873 H   0  0  0  0  0  0  0  0  0  0  0  0
  1  9  2  0
  2  1  1  0
  2  3  2  0
  3  4  1  0
  4  8  2  0
  4  5  1  0
  5  6  1  0
  7  6  2  0
  8  7  1  0
  9  8  1  0
 10 15  2  0
 11 12  2  0
 11 10  1  0
 12 13  1  0
 13 14  2  0
 14  2  1  0
 15 14  1  0
 16 12  1  0
  1 17  1  0
  3 18  1  0
  5 19  1  0
  6 20  1  0
  9 21  1  0
 10 22  1  0
 11 23  1  0
 16 24  1  0
 16 25  1  0
 16 26  1  0
M  ISO  8  17  14  18  14  19   9  20  14  21  14  22  14  23  14  24   8
M  ISO  2  25   8  26   8
M  END
>  <minimizedAffinity>  (1) 
-4.76274729

>  <minimizedRMSD>  (1) 
0.129342169

$$$$
