
     RDKit          3D

 28 30  0  0  0  0  0  0  0  0999 V2000
   42.6650   79.6620   61.8590 C   0  0  0  0  0  0  0  0  0  0  0  0
   41.2900   79.4570   61.8510 C   0  0  0  0  0  0  0  0  0  0  0  0
   40.4970   80.4520   61.3860 C   0  0  0  0  0  0  0  0  0  0  0  0
   41.0820   81.6360   60.9360 C   0  0  0  0  0  0  0  0  0  0  0  0
   42.8980   81.3340   61.1830 S   0  0  0  0  0  0  0  0  0  0  0  0
   45.8580   78.1810   62.8640 C   0  0  0  0  0  0  0  0  0  0  0  0
   45.4870   76.8290   63.1980 C   0  0  0  0  0  0  0  0  0  0  0  0
   44.1460   76.4650   63.0740 C   0  0  0  0  0  0  0  0  0  0  0  0
   43.2780   77.4040   62.6450 N   0  0  0  0  0  0  0  0  0  0  0  0
   43.6480   78.6620   62.3360 C   0  0  0  0  0  0  0  0  0  0  0  0
   44.9160   79.0410   62.4460 N   0  0  0  0  0  0  0  0  0  0  0  0
   40.6230   82.8840   60.3900 C   0  0  0  0  0  0  0  0  0  0  0  0
   39.6180   83.5580   61.0220 C   0  0  0  0  0  0  0  0  0  0  0  0
   39.2590   84.7600   60.3970 C   0  0  0  0  0  0  0  0  0  0  0  0
   39.8500   85.2040   59.2840 N   0  0  0  0  0  0  0  0  0  0  0  0
   40.8470   84.4710   58.7130 C   0  0  0  0  0  0  0  0  0  0  0  0
   41.2390   83.2890   59.2780 N   0  0  0  0  0  0  0  0  0  0  0  0
   41.5270   84.9450   57.4610 C   0  0  0  0  0  0  0  0  0  0  0  0
   40.8576   78.5123   62.2125 H   0  0  0  0  0  0  0  0  0  0  0  0
   39.4043   80.3279   61.3635 H   0  0  0  0  0  0  0  0  0  0  0  0
   46.9054   78.5057   62.9510 H   0  0  0  0  0  0  0  0  0  0  0  0
   46.2401   76.1044   63.5411 H   0  0  0  0  0  0  0  0  0  0  0  0
   43.8081   75.4470   63.3178 H   0  0  0  0  0  0  0  0  0  0  0  0
   39.1337   83.1909   61.9389 H   0  0  0  0  0  0  0  0  0  0  0  0
   38.4552   85.3645   60.8424 H   0  0  0  0  0  0  0  0  0  0  0  0
   42.4025   85.5552   57.7278 H   0  0  0  0  0  0  0  0  0  0  0  0
   41.8519   84.0767   56.8690 H   0  0  0  0  0  0  0  0  0  0  0  0
   40.8248   85.5503   56.8690 H   0  0  0  0  0  0  0  0  0  0  0  0
  1 10  1  0
  2  1  2  0
  3  2  1  0
  4  5  1  0
  4  3  2  0
  5  1  1  0
  6  7  2  0
  8  7  1  0
  9  8  2  0
 10 11  2  0
 10  9  1  0
 11  6  1  0
 12  4  1  0
 12 13  2  0
 14 13  1  0
 15 14  2  0
 16 17  2  0
 16 15  1  0
 17 12  1  0
 18 16  1  0
  2 19  1  0
  3 20  1  0
  6 21  1  0
  7 22  1  0
  8 23  1  0
 13 24  1  0
 14 25  1  0
 18 26  1  0
 18 27  1  0
 18 28  1  0
M  ISO  8  19  14  20  14  21  14  22  14  23  14  24  14  25  14  26   8
M  ISO  2  27   8  28   8
M  END
>  <minimizedAffinity>  (1) 
-4.34843779

>  <minimizedRMSD>  (1) 
2.1016674

$$$$
