
     RDKit          3D

 26 28  0  0  0  0  0  0  0  0999 V2000
   42.9280   80.2260   60.9120 C   0  0  0  0  0  0  0  0  0  0  0  0
   42.6030   80.0640   59.5670 C   0  0  0  0  0  0  0  0  0  0  0  0
   41.9380   81.0660   58.9480 C   0  0  0  0  0  0  0  0  0  0  0  0
   41.6030   82.2170   59.6660 C   0  0  0  0  0  0  0  0  0  0  0  0
   42.2770   81.8670   61.3580 S   0  0  0  0  0  0  0  0  0  0  0  0
   45.6450   78.6020   62.7480 C   0  0  0  0  0  0  0  0  0  0  0  0
   45.0410   77.3890   63.2010 C   0  0  0  0  0  0  0  0  0  0  0  0
   43.6930   77.1480   62.8630 C   0  0  0  0  0  0  0  0  0  0  0  0
   43.0660   78.0840   62.1350 N   0  0  0  0  0  0  0  0  0  0  0  0
   43.6530   79.2170   61.7200 C   0  0  0  0  0  0  0  0  0  0  0  0
   44.9110   79.4530   62.0270 N   0  0  0  0  0  0  0  0  0  0  0  0
   40.9280   83.4500   59.3890 C   0  0  0  0  0  0  0  0  0  0  0  0
   39.8510   83.8040   60.1850 C   0  0  0  0  0  0  0  0  0  0  0  0
   39.2880   85.0310   59.8000 C   0  0  0  0  0  0  0  0  0  0  0  0
   39.7270   85.7850   58.7860 N   0  0  0  0  0  0  0  0  0  0  0  0
   40.7940   85.3470   58.0650 C   0  0  0  0  0  0  0  0  0  0  0  0
   41.3970   84.1620   58.3770 N   0  0  0  0  0  0  0  0  0  0  0  0
   41.2820   86.0990   57.0030 O   0  0  0  0  0  0  0  0  0  0  0  0
   42.8792   79.1479   59.0243 H   0  0  0  0  0  0  0  0  0  0  0  0
   41.6628   80.9755   57.8868 H   0  0  0  0  0  0  0  0  0  0  0  0
   46.6939   78.8303   62.9884 H   0  0  0  0  0  0  0  0  0  0  0  0
   45.6121   76.6624   63.7975 H   0  0  0  0  0  0  0  0  0  0  0  0
   43.1773   76.2306   63.1831 H   0  0  0  0  0  0  0  0  0  0  0  0
   39.4799   83.1942   61.0219 H   0  0  0  0  0  0  0  0  0  0  0  0
   38.4241   85.3987   60.3731 H   0  0  0  0  0  0  0  0  0  0  0  0
   40.8530   86.9596   56.7675 H   0  0  0  0  0  0  0  0  0  0  0  0
  1  5  1  0
  1 10  1  0
  2  1  2  0
  3  2  1  0
  3  4  2  0
  4  5  1  0
  6  7  2  0
  8  7  1  0
  9  8  2  0
 10 11  2  0
 10  9  1  0
 11  6  1  0
 12  4  1  0
 12 13  2  0
 14 13  1  0
 15 14  2  0
 16 17  2  0
 16 15  1  0
 17 12  1  0
 18 16  1  0
  2 19  1  0
  3 20  1  0
  6 21  1  0
  7 22  1  0
  8 23  1  0
 13 24  1  0
 14 25  1  0
 18 26  1  0
M  ISO  8  19  14  20  14  21  14  22  14  23  14  24  14  25  14  26   3
M  END
>  <minimizedAffinity>  (1) 
-4.14344072

>  <minimizedRMSD>  (1) 
0.951776922

$$$$
