
     RDKit          3D

 24 26  0  0  0  0  0  0  0  0999 V2000
   39.5060   83.1000   61.0580 C   0  0  0  0  0  0  0  0  0  0  0  0
   40.7900   83.1020   60.4800 C   0  0  0  0  0  0  0  0  0  0  0  0
   41.8950   83.4680   61.2060 C   0  0  0  0  0  0  0  0  0  0  0  0
   41.7720   83.8520   62.5390 C   0  0  0  0  0  0  0  0  0  0  0  0
   42.6170   84.2580   63.5110 N   0  0  0  0  0  0  0  0  0  0  0  0
   41.9340   84.5050   64.6440 C   0  0  0  0  0  0  0  0  0  0  0  0
   40.6470   84.2380   64.3340 N   0  0  0  0  0  0  0  0  0  0  0  0
   40.5110   83.8370   63.0630 C   0  0  0  0  0  0  0  0  0  0  0  0
   39.3710   83.4810   62.3900 C   0  0  0  0  0  0  0  0  0  0  0  0
   40.3530   81.2010   57.3780 C   0  0  0  0  0  0  0  0  0  0  0  0
   41.0830   81.9540   56.4390 C   0  0  0  0  0  0  0  0  0  0  0  0
   41.7200   83.1200   56.8990 C   0  0  0  0  0  0  0  0  0  0  0  0
   41.6120   83.4700   58.2080 N   0  0  0  0  0  0  0  0  0  0  0  0
   40.8890   82.6970   59.0780 C   0  0  0  0  0  0  0  0  0  0  0  0
   40.2800   81.5890   58.6520 N   0  0  0  0  0  0  0  0  0  0  0  0
   42.6470   84.0840   55.7170 S   0  0  0  0  0  0  0  0  0  0  0  0
   38.6263   82.8030   60.4681 H   0  0  0  0  0  0  0  0  0  0  0  0
   42.8871   83.4581   60.7310 H   0  0  0  0  0  0  0  0  0  0  0  0
   43.6357   84.3633   63.4012 H   0  0  0  0  0  0  0  0  0  0  0  0
   42.3352   84.8484   65.6089 H   0  0  0  0  0  0  0  0  0  0  0  0
   38.3879   83.4958   62.8833 H   0  0  0  0  0  0  0  0  0  0  0  0
   39.8376   80.2834   57.0579 H   0  0  0  0  0  0  0  0  0  0  0  0
   41.1524   81.6423   55.3864 H   0  0  0  0  0  0  0  0  0  0  0  0
   43.4771   84.9472   56.3824 H   0  0  0  0  0  0  0  0  0  0  0  0
  1  9  2  0
  2  1  1  0
  2  3  2  0
  3  4  1  0
  4  8  2  0
  4  5  1  0
  5  6  1  0
  7  6  2  0
  8  7  1  0
  9  8  1  0
 10 15  2  0
 11 12  2  0
 11 10  1  0
 12 13  1  0
 13 14  2  0
 14  2  1  0
 15 14  1  0
 16 12  1  0
  1 17  1  0
  3 18  1  0
  5 19  1  0
  6 20  1  0
  9 21  1  0
 10 22  1  0
 11 23  1  0
 16 24  1  0
M  ISO  8  17  14  18  14  19   9  20  14  21  14  22  14  23  14  24  11
M  END
>  <minimizedAffinity>  (1) 
-4.72197485

>  <minimizedRMSD>  (1) 
0.109416597

$$$$
