
     RDKit          3D

 37 40  0  0  0  0  0  0  0  0999 V2000
   39.7710   77.1570   59.4400 C   0  0  0  0  0  0  0  0  0  0  0  0
   40.3710   75.9540   59.2530 C   0  0  0  0  0  0  0  0  0  0  0  0
   39.7910   75.2050   58.2190 C   0  0  0  0  0  0  0  0  0  0  0  0
   38.7410   75.6230   57.4750 N   0  0  0  0  0  0  0  0  0  0  0  0
   38.2130   76.8350   57.7370 C   0  0  0  0  0  0  0  0  0  0  0  0
   38.7250   77.6190   58.7270 N   0  0  0  0  0  0  0  0  0  0  0  0
   41.0210   80.2230   61.8160 C   0  0  0  0  0  0  0  0  0  0  0  0
   41.1030   78.9990   62.4540 C   0  0  0  0  0  0  0  0  0  0  0  0
   40.7180   77.9060   61.7710 C   0  0  0  0  0  0  0  0  0  0  0  0
   40.2580   78.0350   60.4690 C   0  0  0  0  0  0  0  0  0  0  0  0
   40.3740   79.8620   60.1660 S   0  0  0  0  0  0  0  0  0  0  0  0
   43.0550   83.1060   62.8150 C   0  0  0  0  0  0  0  0  0  0  0  0
   42.1650   83.8840   63.5840 C   0  0  0  0  0  0  0  0  0  0  0  0
   40.8760   83.4100   63.7500 C   0  0  0  0  0  0  0  0  0  0  0  0
   40.5330   82.2410   63.1750 N   0  0  0  0  0  0  0  0  0  0  0  0
   41.4130   81.5180   62.4430 C   0  0  0  0  0  0  0  0  0  0  0  0
   42.6450   81.9510   62.2730 N   0  0  0  0  0  0  0  0  0  0  0  0
   37.0830   77.2860   56.9380 C   0  0  0  0  0  0  0  0  0  0  0  0
   35.9550   76.7590   57.1730 O   0  0  0  0  0  0  0  0  0  0  0  0
   37.3190   76.0710   54.2110 Cl  0  0  0  0  0  0  0  0  0  0  0  0
   37.3220   77.7850   54.6030 C   0  0  0  0  0  0  0  0  0  0  0  0
   37.2100   78.3070   55.8960 C   0  0  0  0  0  0  0  0  0  0  0  0
   37.2250   79.6750   56.0740 C   0  0  0  0  0  0  0  0  0  0  0  0
   37.3530   80.4940   54.9540 C   0  0  0  0  0  0  0  0  0  0  0  0
   37.4650   79.9860   53.6880 C   0  0  0  0  0  0  0  0  0  0  0  0
   37.4490   78.6170   53.5060 C   0  0  0  0  0  0  0  0  0  0  0  0
   41.2247   75.6026   59.8512 H   0  0  0  0  0  0  0  0  0  0  0  0
   40.2167   74.2149   57.9988 H   0  0  0  0  0  0  0  0  0  0  0  0
   41.4715   78.9215   63.4875 H   0  0  0  0  0  0  0  0  0  0  0  0
   40.7678   76.9138   62.2433 H   0  0  0  0  0  0  0  0  0  0  0  0
   44.0888   83.4482   62.6596 H   0  0  0  0  0  0  0  0  0  0  0  0
   42.4846   84.8345   64.0360 H   0  0  0  0  0  0  0  0  0  0  0  0
   40.1432   83.9782   64.3417 H   0  0  0  0  0  0  0  0  0  0  0  0
   37.1376   80.1106   57.0803 H   0  0  0  0  0  0  0  0  0  0  0  0
   37.3644   81.5853   55.0919 H   0  0  0  0  0  0  0  0  0  0  0  0
   37.5666   80.6606   52.8251 H   0  0  0  0  0  0  0  0  0  0  0  0
   37.5367   78.1916   52.4954 H   0  0  0  0  0  0  0  0  0  0  0  0
  1 10  1  0
  2  1  2  0
  3  2  1  0
  4  5  1  0
  4  3  2  0
  5  6  2  0
  6  1  1  0
  7 16  1  0
  7  8  2  0
  9  8  1  0
 10  9  2  0
 11 10  1  0
 11  7  1  0
 12 13  2  0
 13 14  1  0
 15 14  2  0
 16 15  1  0
 17 16  2  0
 17 12  1  0
 18 19  2  0
 18  5  1  0
 20 21  1  0
 21 22  2  0
 22 23  1  0
 22 18  1  0
 24 23  2  0
 25 24  1  0
 26 25  2  0
 26 21  1  0
  2 27  1  0
  3 28  1  0
  8 29  1  0
  9 30  1  0
 12 31  1  0
 13 32  1  0
 14 33  1  0
 23 34  1  0
 24 35  1  0
 25 36  1  0
 26 37  1  0
M  ISO  8  27  14  28  14  29  14  30  14  31  14  32  14  33  14  34  14
M  ISO  3  35  14  36  14  37  14
M  END
>  <minimizedAffinity>  (1) 
-6.87923384

>  <minimizedRMSD>  (1) 
0.935150981

$$$$
