
     RDKit          3D

 29 31  0  0  0  0  0  0  0  0999 V2000
   39.5350   83.0960   61.0560 C   0  0  0  0  0  0  0  0  0  0  0  0
   40.8130   83.1410   60.4740 C   0  0  0  0  0  0  0  0  0  0  0  0
   41.8910   83.5330   61.2270 C   0  0  0  0  0  0  0  0  0  0  0  0
   41.7740   83.8930   62.5590 C   0  0  0  0  0  0  0  0  0  0  0  0
   42.5910   84.3110   63.5460 N   0  0  0  0  0  0  0  0  0  0  0  0
   41.8840   84.5160   64.6730 C   0  0  0  0  0  0  0  0  0  0  0  0
   40.5840   84.2100   64.3590 N   0  0  0  0  0  0  0  0  0  0  0  0
   40.5060   83.8290   63.0690 C   0  0  0  0  0  0  0  0  0  0  0  0
   39.3650   83.4480   62.3910 C   0  0  0  0  0  0  0  0  0  0  0  0
   40.4860   81.2850   57.3500 C   0  0  0  0  0  0  0  0  0  0  0  0
   41.1860   82.0710   56.4170 C   0  0  0  0  0  0  0  0  0  0  0  0
   41.7580   83.2350   56.9050 C   0  0  0  0  0  0  0  0  0  0  0  0
   41.6370   83.5800   58.2220 N   0  0  0  0  0  0  0  0  0  0  0  0
   40.9390   82.7660   59.0750 C   0  0  0  0  0  0  0  0  0  0  0  0
   40.3740   81.6350   58.6380 N   0  0  0  0  0  0  0  0  0  0  0  0
   42.5280   84.1720   56.0560 C   0  0  0  0  0  0  0  0  0  0  0  0
   42.5910   83.7490   54.6180 C   0  0  0  0  0  0  0  0  0  0  0  0
   38.6683   82.7822   60.4556 H   0  0  0  0  0  0  0  0  0  0  0  0
   42.8843   83.5624   60.7554 H   0  0  0  0  0  0  0  0  0  0  0  0
   43.6068   84.4527   63.4518 H   0  0  0  0  0  0  0  0  0  0  0  0
   42.2690   84.8582   65.6449 H   0  0  0  0  0  0  0  0  0  0  0  0
   38.3791   83.4242   62.8782 H   0  0  0  0  0  0  0  0  0  0  0  0
   40.0145   80.3510   57.0103 H   0  0  0  0  0  0  0  0  0  0  0  0
   41.2743   81.7784   55.3603 H   0  0  0  0  0  0  0  0  0  0  0  0
   42.0531   85.1628   56.1087 H   0  0  0  0  0  0  0  0  0  0  0  0
   43.5594   84.1880   56.4381 H   0  0  0  0  0  0  0  0  0  0  0  0
   42.7528   82.6624   54.5622 H   0  0  0  0  0  0  0  0  0  0  0  0
   41.6448   84.0049   54.1187 H   0  0  0  0  0  0  0  0  0  0  0  0
   43.4215   84.2695   54.1187 H   0  0  0  0  0  0  0  0  0  0  0  0
  1  9  2  0
  2  1  1  0
  2  3  2  0
  3  4  1  0
  4  8  2  0
  4  5  1  0
  5  6  1  0
  7  6  2  0
  8  7  1  0
  9  8  1  0
 10 15  2  0
 11 12  2  0
 11 10  1  0
 12 13  1  0
 13 14  2  0
 14  2  1  0
 15 14  1  0
 16 12  1  0
 17 16  1  0
  1 18  1  0
  3 19  1  0
  5 20  1  0
  6 21  1  0
  9 22  1  0
 10 23  1  0
 11 24  1  0
 16 25  1  0
 16 26  1  0
 17 27  1  0
 17 28  1  0
 17 29  1  0
M  ISO  8  18  14  19  14  20   9  21  14  22  14  23  14  24  14  25   8
M  ISO  4  26   8  27   8  28   8  29   8
M  END
>  <minimizedAffinity>  (1) 
-4.71026611

>  <minimizedRMSD>  (1) 
0.120224178

$$$$
