
     RDKit          3D

 38 41  0  0  1  0  0  0  0  0999 V2000
   39.6060   77.3950   59.4740 C   0  0  0  0  0  0  0  0  0  0  0  0
   39.6730   76.0480   59.6270 C   0  0  0  0  0  0  0  0  0  0  0  0
   39.1200   75.3440   58.5450 C   0  0  0  0  0  0  0  0  0  0  0  0
   38.5790   75.9250   57.4650 N   0  0  0  0  0  0  0  0  0  0  0  0
   38.5560   77.2840   57.3950 C   0  0  0  0  0  0  0  0  0  0  0  0
   39.0760   78.0190   58.4120 N   0  0  0  0  0  0  0  0  0  0  0  0
   40.9560   80.4080   61.8730 C   0  0  0  0  0  0  0  0  0  0  0  0
   41.0470   79.1670   62.4760 C   0  0  0  0  0  0  0  0  0  0  0  0
   40.6340   78.0890   61.7860 C   0  0  0  0  0  0  0  0  0  0  0  0
   40.1320   78.2520   60.5020 C   0  0  0  0  0  0  0  0  0  0  0  0
   40.2500   80.0860   60.2340 S   0  0  0  0  0  0  0  0  0  0  0  0
   43.0880   83.2140   62.8840 C   0  0  0  0  0  0  0  0  0  0  0  0
   42.2040   84.0150   63.6690 C   0  0  0  0  0  0  0  0  0  0  0  0
   40.8960   83.5810   63.8360 C   0  0  0  0  0  0  0  0  0  0  0  0
   40.5240   82.4200   63.2490 N   0  0  0  0  0  0  0  0  0  0  0  0
   41.3760   81.6840   62.5140 C   0  0  0  0  0  0  0  0  0  0  0  0
   42.6280   82.0800   62.3410 N   0  0  0  0  0  0  0  0  0  0  0  0
   37.9700   77.8990   56.2260 C   0  0  0  0  0  0  0  0  0  0  0  0
   37.0590   78.7580   56.4270 O   0  0  0  0  0  0  0  0  0  0  0  0
   38.4400   77.5140   54.8690 C   0  0  1  0  0  0  0  0  0  0  0  0
   37.5280   76.4110   54.3190 C   0  0  0  0  0  0  0  0  0  0  0  0
   36.3730   77.2600   53.8490 C   0  0  0  0  0  0  0  0  0  0  0  0
   36.7930   78.5740   53.7730 O   0  0  0  0  0  0  0  0  0  0  0  0
   38.1720   78.5850   53.8320 C   0  0  0  0  0  0  0  0  0  0  0  0
   40.1148   75.5584   60.5074 H   0  0  0  0  0  0  0  0  0  0  0  0
   39.1316   74.2448   58.5865 H   0  0  0  0  0  0  0  0  0  0  0  0
   41.4475   79.0640   63.4953 H   0  0  0  0  0  0  0  0  0  0  0  0
   40.6935   77.0867   62.2352 H   0  0  0  0  0  0  0  0  0  0  0  0
   44.1317   83.5242   62.7277 H   0  0  0  0  0  0  0  0  0  0  0  0
   42.5506   84.9519   64.1295 H   0  0  0  0  0  0  0  0  0  0  0  0
   40.1796   84.1665   64.4309 H   0  0  0  0  0  0  0  0  0  0  0  0
   39.5055   77.2724   54.9970 H   0  0  0  0  0  0  0  0  0  0  0  0
   37.9996   75.8632   53.4898 H   0  0  0  0  0  0  0  0  0  0  0  0
   37.2669   75.6172   55.0343 H   0  0  0  0  0  0  0  0  0  0  0  0
   36.0422   76.9189   52.8569 H   0  0  0  0  0  0  0  0  0  0  0  0
   35.5330   77.1746   54.5540 H   0  0  0  0  0  0  0  0  0  0  0  0
   38.6176   78.3240   52.8607 H   0  0  0  0  0  0  0  0  0  0  0  0
   38.6019   79.5666   54.0805 H   0  0  0  0  0  0  0  0  0  0  0  0
  1  2  2  0
  1 10  1  0
  3  2  1  0
  4  3  2  0
  5  4  1  0
  5  6  2  0
  6  1  1  0
  7  8  2  0
  7 16  1  0
  9  8  1  0
 10  9  2  0
 11 10  1  0
 11  7  1  0
 12 13  2  0
 13 14  1  0
 15 14  2  0
 16 15  1  0
 17 16  2  0
 17 12  1  0
 18 19  2  0
 18  5  1  0
 20 18  1  0
 21 20  1  0
 22 21  1  0
 23 24  1  0
 23 22  1  0
 24 20  1  0
  2 25  1  0
  3 26  1  0
  8 27  1  0
  9 28  1  0
 12 29  1  0
 13 30  1  0
 14 31  1  0
 20 32  1  1
 21 33  1  0
 21 34  1  0
 22 35  1  0
 22 36  1  0
 24 37  1  0
 24 38  1  0
M  ISO  8  25  14  26  14  27  14  28  14  29  14  30  14  31  14  32  13
M  ISO  6  33  13  34  13  35  13  36  13  37  13  38  13
M  END
>  <minimizedAffinity>  (1) 
-6.07798147

>  <minimizedRMSD>  (1) 
0.896837175

$$$$
