
     RDKit          3D

 28 30  0  0  0  0  0  0  0  0999 V2000
   40.8870   80.1950   61.6530 C   0  0  0  0  0  0  0  0  0  0  0  0
   40.7950   78.9780   62.3000 C   0  0  0  0  0  0  0  0  0  0  0  0
   40.4320   77.8980   61.5830 C   0  0  0  0  0  0  0  0  0  0  0  0
   40.1630   78.0380   60.2300 C   0  0  0  0  0  0  0  0  0  0  0  0
   40.4430   79.8500   59.9270 S   0  0  0  0  0  0  0  0  0  0  0  0
   42.9510   83.0010   62.7960 C   0  0  0  0  0  0  0  0  0  0  0  0
   42.0350   83.8090   63.5090 C   0  0  0  0  0  0  0  0  0  0  0  0
   40.7060   83.3820   63.5940 C   0  0  0  0  0  0  0  0  0  0  0  0
   40.3810   82.2130   62.9820 N   0  0  0  0  0  0  0  0  0  0  0  0
   41.2790   81.4710   62.3130 C   0  0  0  0  0  0  0  0  0  0  0  0
   42.5430   81.8530   62.2180 N   0  0  0  0  0  0  0  0  0  0  0  0
   39.7600   77.1710   59.1560 C   0  0  0  0  0  0  0  0  0  0  0  0
   40.4520   76.0300   58.9170 C   0  0  0  0  0  0  0  0  0  0  0  0
   39.9370   75.2910   57.8380 C   0  0  0  0  0  0  0  0  0  0  0  0
   38.8710   75.6630   57.1100 N   0  0  0  0  0  0  0  0  0  0  0  0
   38.2410   76.8190   57.4200 C   0  0  0  0  0  0  0  0  0  0  0  0
   38.6890   77.5830   58.4520 N   0  0  0  0  0  0  0  0  0  0  0  0
   37.0890   77.2150   56.6290 C   0  0  0  0  0  0  0  0  0  0  0  0
   35.9760   77.2460   57.2260 O   0  0  0  0  0  0  0  0  0  0  0  0
   36.9310   77.5840   55.2960 O   0  0  0  0  0  0  0  0  0  0  0  0
   41.0130   78.8934   63.3749 H   0  0  0  0  0  0  0  0  0  0  0  0
   40.3495   76.9132   62.0662 H   0  0  0  0  0  0  0  0  0  0  0  0
   44.0031   83.3110   62.7124 H   0  0  0  0  0  0  0  0  0  0  0  0
   42.3589   84.7471   63.9834 H   0  0  0  0  0  0  0  0  0  0  0  0
   39.9515   83.9707   64.1363 H   0  0  0  0  0  0  0  0  0  0  0  0
   41.3258   75.7152   59.5063 H   0  0  0  0  0  0  0  0  0  0  0  0
   40.4385   74.3485   57.5729 H   0  0  0  0  0  0  0  0  0  0  0  0
   37.7157   77.6090   54.6929 H   0  0  0  0  0  0  0  0  0  0  0  0
  1  2  2  0
  1 10  1  0
  3  2  1  0
  4  3  2  0
  5  4  1  0
  5  1  1  0
  6  7  2  0
  7  8  1  0
  9  8  2  0
 10  9  1  0
 11 10  2  0
 11  6  1  0
 12  4  1  0
 13 12  2  0
 14 13  1  0
 15 16  1  0
 15 14  2  0
 16 17  2  0
 17 12  1  0
 18 19  2  0
 18 16  1  0
 20 18  1  0
  2 21  1  0
  3 22  1  0
  6 23  1  0
  7 24  1  0
  8 25  1  0
 13 26  1  0
 14 27  1  0
 20 28  1  0
M  ISO  8  21  14  22  14  23  14  24  14  25  14  26  14  27  14  28   3
M  END
>  <minimizedAffinity>  (1) 
-5.49700451

>  <minimizedRMSD>  (1) 
0.0884535909

$$$$
