
     RDKit          3D

 29 31  0  0  0  0  0  0  0  0999 V2000
   40.8900   80.2270   61.6780 C   0  0  0  0  0  0  0  0  0  0  0  0
   40.8170   79.0110   62.3300 C   0  0  0  0  0  0  0  0  0  0  0  0
   40.4560   77.9310   61.6110 C   0  0  0  0  0  0  0  0  0  0  0  0
   40.1720   78.0670   60.2600 C   0  0  0  0  0  0  0  0  0  0  0  0
   40.4330   79.8770   59.9600 S   0  0  0  0  0  0  0  0  0  0  0  0
   42.9510   83.0360   62.8240 C   0  0  0  0  0  0  0  0  0  0  0  0
   42.0270   83.8420   63.5430 C   0  0  0  0  0  0  0  0  0  0  0  0
   40.7170   83.4100   63.6210 C   0  0  0  0  0  0  0  0  0  0  0  0
   40.3820   82.2500   63.0150 N   0  0  0  0  0  0  0  0  0  0  0  0
   41.2760   81.5050   62.3410 C   0  0  0  0  0  0  0  0  0  0  0  0
   42.5380   81.8960   62.2490 N   0  0  0  0  0  0  0  0  0  0  0  0
   39.7660   77.1990   59.1860 C   0  0  0  0  0  0  0  0  0  0  0  0
   40.4550   76.0530   58.9620 C   0  0  0  0  0  0  0  0  0  0  0  0
   39.9380   75.3130   57.8810 C   0  0  0  0  0  0  0  0  0  0  0  0
   38.8830   75.6870   57.1450 N   0  0  0  0  0  0  0  0  0  0  0  0
   38.2620   76.8460   57.4460 C   0  0  0  0  0  0  0  0  0  0  0  0
   38.6970   77.6210   58.4730 N   0  0  0  0  0  0  0  0  0  0  0  0
   37.1170   77.2490   56.6450 C   0  0  0  0  0  0  0  0  0  0  0  0
   35.9770   77.1920   57.1950 O   0  0  0  0  0  0  0  0  0  0  0  0
   37.2960   77.6820   55.3110 N   0  0  0  0  0  0  0  0  0  0  0  0
   41.0465   78.9277   63.4026 H   0  0  0  0  0  0  0  0  0  0  0  0
   40.3866   76.9448   62.0932 H   0  0  0  0  0  0  0  0  0  0  0  0
   44.0029   83.3462   62.7390 H   0  0  0  0  0  0  0  0  0  0  0  0
   42.3448   84.7798   64.0221 H   0  0  0  0  0  0  0  0  0  0  0  0
   39.9630   83.9979   64.1648 H   0  0  0  0  0  0  0  0  0  0  0  0
   41.3227   75.7360   59.5591 H   0  0  0  0  0  0  0  0  0  0  0  0
   40.4333   74.3651   57.6240 H   0  0  0  0  0  0  0  0  0  0  0  0
   38.2408   77.7133   54.9021 H   0  0  0  0  0  0  0  0  0  0  0  0
   36.4816   77.9661   54.7481 H   0  0  0  0  0  0  0  0  0  0  0  0
  1  2  2  0
  1 10  1  0
  3  2  1  0
  4  3  2  0
  5  4  1  0
  5  1  1  0
  6  7  2  0
  7  8  1  0
  9  8  2  0
 10  9  1  0
 11 10  2  0
 11  6  1  0
 12  4  1  0
 13 12  2  0
 14 13  1  0
 15 16  1  0
 15 14  2  0
 16 17  2  0
 17 12  1  0
 18 19  2  0
 18 16  1  0
 20 18  1  0
  2 21  1  0
  3 22  1  0
  6 23  1  0
  7 24  1  0
  8 25  1  0
 13 26  1  0
 14 27  1  0
 20 28  1  0
 20 29  1  0
M  ISO  7  21  14  22  14  23  14  24  14  25  14  26  14  27  14
M  END
>  <minimizedAffinity>  (1) 
-5.46028757

>  <minimizedRMSD>  (1) 
0.0537521057

$$$$
