
     RDKit          3D

 25 27  0  0  0  0  0  0  0  0999 V2000
   39.5210   83.0960   61.0470 C   0  0  0  0  0  0  0  0  0  0  0  0
   40.7950   83.1280   60.4690 C   0  0  0  0  0  0  0  0  0  0  0  0
   41.8820   83.5110   61.2150 C   0  0  0  0  0  0  0  0  0  0  0  0
   41.7730   83.8750   62.5450 C   0  0  0  0  0  0  0  0  0  0  0  0
   42.6080   84.2870   63.5270 N   0  0  0  0  0  0  0  0  0  0  0  0
   41.9070   84.5040   64.6560 C   0  0  0  0  0  0  0  0  0  0  0  0
   40.6010   84.2130   64.3500 N   0  0  0  0  0  0  0  0  0  0  0  0
   40.5100   83.8280   63.0620 C   0  0  0  0  0  0  0  0  0  0  0  0
   39.3710   83.4560   62.3840 C   0  0  0  0  0  0  0  0  0  0  0  0
   40.4630   81.2510   57.3500 C   0  0  0  0  0  0  0  0  0  0  0  0
   41.1660   82.0400   56.4210 C   0  0  0  0  0  0  0  0  0  0  0  0
   41.7520   83.2250   56.8960 C   0  0  0  0  0  0  0  0  0  0  0  0
   41.6180   83.5540   58.2070 N   0  0  0  0  0  0  0  0  0  0  0  0
   40.9230   82.7480   59.0670 C   0  0  0  0  0  0  0  0  0  0  0  0
   40.3580   81.6190   58.6350 N   0  0  0  0  0  0  0  0  0  0  0  0
   42.4910   84.1370   56.1120 N   0  0  0  0  0  0  0  0  0  0  0  0
   38.6478   82.7900   60.4521 H   0  0  0  0  0  0  0  0  0  0  0  0
   42.8734   83.5290   60.7388 H   0  0  0  0  0  0  0  0  0  0  0  0
   43.6250   84.4151   63.4262 H   0  0  0  0  0  0  0  0  0  0  0  0
   42.3004   84.8447   65.6251 H   0  0  0  0  0  0  0  0  0  0  0  0
   38.3872   83.4437   62.8759 H   0  0  0  0  0  0  0  0  0  0  0  0
   39.9910   80.3153   57.0160 H   0  0  0  0  0  0  0  0  0  0  0  0
   41.2531   81.7411   55.3660 H   0  0  0  0  0  0  0  0  0  0  0  0
   42.8869   84.9843   56.5436 H   0  0  0  0  0  0  0  0  0  0  0  0
   42.6343   83.9552   55.1083 H   0  0  0  0  0  0  0  0  0  0  0  0
  1  9  2  0
  2  1  1  0
  2  3  2  0
  3  4  1  0
  4  8  2  0
  4  5  1  0
  5  6  1  0
  7  6  2  0
  8  7  1  0
  9  8  1  0
 10 15  2  0
 11 12  2  0
 11 10  1  0
 12 13  1  0
 13 14  2  0
 14  2  1  0
 15 14  1  0
 16 12  1  0
  1 17  1  0
  3 18  1  0
  5 19  1  0
  6 20  1  0
  9 21  1  0
 10 22  1  0
 11 23  1  0
 16 24  1  0
 16 25  1  0
M  ISO  7  17  14  18  14  19   9  20  14  21  14  22  14  23  14
M  END
>  <minimizedAffinity>  (1) 
-4.70641232

>  <minimizedRMSD>  (1) 
0.127705991

$$$$
