
     RDKit          3D

 24 26  0  0  0  0  0  0  0  0999 V2000
   39.5310   83.1030   61.0540 C   0  0  0  0  0  0  0  0  0  0  0  0
   40.8100   83.1600   60.4750 C   0  0  0  0  0  0  0  0  0  0  0  0
   41.9150   83.5550   61.2070 C   0  0  0  0  0  0  0  0  0  0  0  0
   41.7720   83.9070   62.5470 C   0  0  0  0  0  0  0  0  0  0  0  0
   42.5880   84.3250   63.5350 N   0  0  0  0  0  0  0  0  0  0  0  0
   41.8790   84.5210   64.6650 C   0  0  0  0  0  0  0  0  0  0  0  0
   40.5990   84.2140   64.3540 N   0  0  0  0  0  0  0  0  0  0  0  0
   40.5090   83.8380   63.0710 C   0  0  0  0  0  0  0  0  0  0  0  0
   39.3700   83.4510   62.3870 C   0  0  0  0  0  0  0  0  0  0  0  0
   40.4820   81.2650   57.3610 C   0  0  0  0  0  0  0  0  0  0  0  0
   41.1840   82.0670   56.4200 C   0  0  0  0  0  0  0  0  0  0  0  0
   41.7520   83.2450   56.8920 C   0  0  0  0  0  0  0  0  0  0  0  0
   41.6140   83.5660   58.2000 N   0  0  0  0  0  0  0  0  0  0  0  0
   40.9420   82.7890   59.0740 C   0  0  0  0  0  0  0  0  0  0  0  0
   40.3900   81.6540   58.6370 N   0  0  0  0  0  0  0  0  0  0  0  0
   42.4460   84.0520   56.0020 O   0  0  0  0  0  0  0  0  0  0  0  0
   38.6647   82.7851   60.4552 H   0  0  0  0  0  0  0  0  0  0  0  0
   42.9061   83.5911   60.7312 H   0  0  0  0  0  0  0  0  0  0  0  0
   43.6030   84.4728   63.4407 H   0  0  0  0  0  0  0  0  0  0  0  0
   42.2623   84.8604   65.6386 H   0  0  0  0  0  0  0  0  0  0  0  0
   38.3853   83.4208   62.8764 H   0  0  0  0  0  0  0  0  0  0  0  0
   40.0139   80.3231   57.0389 H   0  0  0  0  0  0  0  0  0  0  0  0
   41.2738   81.7686   55.3650 H   0  0  0  0  0  0  0  0  0  0  0  0
   42.8584   84.8952   56.3165 H   0  0  0  0  0  0  0  0  0  0  0  0
  1  9  2  0
  2  1  1  0
  2  3  2  0
  3  4  1  0
  4  8  2  0
  4  5  1  0
  5  6  1  0
  7  6  2  0
  8  7  1  0
  9  8  1  0
 10 15  2  0
 11 12  2  0
 11 10  1  0
 12 13  1  0
 13 14  2  0
 14  2  1  0
 15 14  1  0
 16 12  1  0
  1 17  1  0
  3 18  1  0
  5 19  1  0
  6 20  1  0
  9 21  1  0
 10 22  1  0
 11 23  1  0
 16 24  1  0
M  ISO  8  17  14  18  14  19   9  20  14  21  14  22  14  23  14  24   3
M  END
>  <minimizedAffinity>  (1) 
-4.70053053

>  <minimizedRMSD>  (1) 
0.124722026

$$$$
