
     RDKit          3D

 41 45  0  0  1  0  0  0  0  0999 V2000
   39.7810   77.4150   59.1640 C   0  0  0  0  0  0  0  0  0  0  0  0
   40.4740   76.2810   58.8860 C   0  0  0  0  0  0  0  0  0  0  0  0
   39.9290   75.5730   57.8020 C   0  0  0  0  0  0  0  0  0  0  0  0
   38.8420   75.9680   57.1110 N   0  0  0  0  0  0  0  0  0  0  0  0
   38.2210   77.1280   57.4780 C   0  0  0  0  0  0  0  0  0  0  0  0
   38.6930   77.8590   58.5130 N   0  0  0  0  0  0  0  0  0  0  0  0
   40.9710   80.3490   61.7380 C   0  0  0  0  0  0  0  0  0  0  0  0
   40.9510   79.1080   62.3400 C   0  0  0  0  0  0  0  0  0  0  0  0
   40.5710   78.0580   61.5800 C   0  0  0  0  0  0  0  0  0  0  0  0
   40.2250   78.2560   60.2600 C   0  0  0  0  0  0  0  0  0  0  0  0
   40.4380   80.0660   60.0240 S   0  0  0  0  0  0  0  0  0  0  0  0
   43.0280   83.1460   62.9130 C   0  0  0  0  0  0  0  0  0  0  0  0
   42.1300   83.9020   63.7090 C   0  0  0  0  0  0  0  0  0  0  0  0
   40.8060   83.4360   63.8320 C   0  0  0  0  0  0  0  0  0  0  0  0
   40.4650   82.3030   63.1910 N   0  0  0  0  0  0  0  0  0  0  0  0
   41.3610   81.6040   62.4320 C   0  0  0  0  0  0  0  0  0  0  0  0
   42.6160   82.0300   62.3040 N   0  0  0  0  0  0  0  0  0  0  0  0
   37.0550   77.5380   56.7150 C   0  0  0  0  0  0  0  0  0  0  0  0
   35.9500   77.1430   57.1130 O   0  0  0  0  0  0  0  0  0  0  0  0
   37.1670   78.3990   55.4780 C   0  0  1  0  0  0  0  0  0  0  0  0
   37.3670   79.8600   55.8010 C   0  0  0  0  0  0  0  0  0  0  0  0
   38.4150   79.0600   55.1660 C   0  0  2  0  0  0  0  0  0  0  0  0
   38.8520   79.3200   53.7640 C   0  0  0  0  0  0  0  0  0  0  0  0
   38.4300   78.5830   52.6680 C   0  0  0  0  0  0  0  0  0  0  0  0
   39.0590   79.1460   51.6090 N   0  0  0  0  0  0  0  0  0  0  0  0
   39.8440   80.1870   51.9930 C   0  0  0  0  0  0  0  0  0  0  0  0
   39.6990   80.2780   53.3480 N   0  0  0  0  0  0  0  0  0  0  0  0
   41.3621   75.9536   59.4464 H   0  0  0  0  0  0  0  0  0  0  0  0
   40.4207   74.6371   57.4982 H   0  0  0  0  0  0  0  0  0  0  0  0
   41.2329   78.9788   63.3954 H   0  0  0  0  0  0  0  0  0  0  0  0
   40.5376   77.0474   62.0131 H   0  0  0  0  0  0  0  0  0  0  0  0
   44.0695   83.4801   62.7962 H   0  0  0  0  0  0  0  0  0  0  0  0
   42.4568   84.8228   64.2143 H   0  0  0  0  0  0  0  0  0  0  0  0
   40.0693   83.9848   64.4371 H   0  0  0  0  0  0  0  0  0  0  0  0
   36.4910   77.7715   54.8787 H   0  0  0  0  0  0  0  0  0  0  0  0
   36.8347   80.6331   55.2274 H   0  0  0  0  0  0  0  0  0  0  0  0
   37.2901   80.4857   56.7024 H   0  0  0  0  0  0  0  0  0  0  0  0
   39.4671   78.8440   55.4036 H   0  0  0  0  0  0  0  0  0  0  0  0
   37.7368   77.7289   52.6603 H   0  0  0  0  0  0  0  0  0  0  0  0
   38.9556   78.8258   50.6355 H   0  0  0  0  0  0  0  0  0  0  0  0
   40.4664   80.8236   51.3470 H   0  0  0  0  0  0  0  0  0  0  0  0
  1 10  1  0
  2  1  2  0
  3  2  1  0
  4  5  1  0
  4  3  2  0
  5  6  2  0
  6  1  1  0
  7  8  2  0
  7 16  1  0
  9  8  1  0
 10  9  2  0
 11 10  1  0
 11  7  1  0
 12 13  2  0
 13 14  1  0
 15 14  2  0
 16 15  1  0
 17 16  2  0
 17 12  1  0
 18 19  2  0
 18  5  1  0
 20 21  1  0
 20 18  1  0
 22 20  1  0
 22 21  1  0
 23 22  1  0
 24 23  2  0
 25 26  1  0
 25 24  1  0
 26 27  2  0
 27 23  1  0
  2 28  1  0
  3 29  1  0
  8 30  1  0
  9 31  1  0
 12 32  1  0
 13 33  1  0
 14 34  1  0
 20 35  1  6
 21 36  1  0
 21 37  1  0
 22 38  1  1
 24 39  1  0
 25 40  1  0
 26 41  1  0
M  ISO  8  28  14  29  14  30  14  31  14  32  14  33  14  34  14  35  13
M  ISO  6  36  13  37  13  38  13  39  14  40   9  41  14
M  END
>  <minimizedAffinity>  (1) 
-6.41279316

>  <minimizedRMSD>  (1) 
0.246275514

$$$$
