
     RDKit          3D

 40 43  0  0  1  0  0  0  0  0999 V2000
   39.7980   77.4090   59.1850 C   0  0  0  0  0  0  0  0  0  0  0  0
   40.4810   76.2720   58.9210 C   0  0  0  0  0  0  0  0  0  0  0  0
   39.9430   75.5600   57.8410 C   0  0  0  0  0  0  0  0  0  0  0  0
   38.8640   75.9570   57.1380 N   0  0  0  0  0  0  0  0  0  0  0  0
   38.2480   77.1250   57.4890 C   0  0  0  0  0  0  0  0  0  0  0  0
   38.7280   77.8490   58.5240 N   0  0  0  0  0  0  0  0  0  0  0  0
   40.9800   80.3460   61.7610 C   0  0  0  0  0  0  0  0  0  0  0  0
   40.9580   79.1100   62.3570 C   0  0  0  0  0  0  0  0  0  0  0  0
   40.5840   78.0540   61.6110 C   0  0  0  0  0  0  0  0  0  0  0  0
   40.2390   78.2540   60.2790 C   0  0  0  0  0  0  0  0  0  0  0  0
   40.4520   80.0620   60.0440 S   0  0  0  0  0  0  0  0  0  0  0  0
   43.0430   83.1560   62.9160 C   0  0  0  0  0  0  0  0  0  0  0  0
   42.1360   83.9070   63.7090 C   0  0  0  0  0  0  0  0  0  0  0  0
   40.8150   83.4470   63.8410 C   0  0  0  0  0  0  0  0  0  0  0  0
   40.4700   82.3080   63.2050 N   0  0  0  0  0  0  0  0  0  0  0  0
   41.3670   81.6070   62.4480 C   0  0  0  0  0  0  0  0  0  0  0  0
   42.6230   82.0350   62.3160 N   0  0  0  0  0  0  0  0  0  0  0  0
   37.0960   77.5360   56.7120 C   0  0  0  0  0  0  0  0  0  0  0  0
   35.9890   77.0880   57.0520 O   0  0  0  0  0  0  0  0  0  0  0  0
   37.2160   78.4610   55.5250 C   0  0  1  0  0  0  0  0  0  0  0  0
   37.3050   79.9160   55.9220 C   0  0  0  0  0  0  0  0  0  0  0  0
   38.4330   79.2130   55.3100 C   0  0  2  0  0  0  0  0  0  0  0  0
   38.9380   79.5730   53.9310 C   0  0  0  0  0  0  0  0  0  0  0  0
   37.7630   79.8220   52.9970 C   0  0  0  0  0  0  0  0  0  0  0  0
   41.3619   75.9425   59.4914 H   0  0  0  0  0  0  0  0  0  0  0  0
   40.4315   74.6187   57.5488 H   0  0  0  0  0  0  0  0  0  0  0  0
   41.2379   78.9860   63.4135 H   0  0  0  0  0  0  0  0  0  0  0  0
   40.5517   77.0457   62.0495 H   0  0  0  0  0  0  0  0  0  0  0  0
   44.0833   83.4926   62.7953 H   0  0  0  0  0  0  0  0  0  0  0  0
   42.4610   84.8307   64.2101 H   0  0  0  0  0  0  0  0  0  0  0  0
   40.0819   84.0003   64.4464 H   0  0  0  0  0  0  0  0  0  0  0  0
   36.6130   77.8217   54.8634 H   0  0  0  0  0  0  0  0  0  0  0  0
   36.7540   80.6807   55.3549 H   0  0  0  0  0  0  0  0  0  0  0  0
   37.1423   80.4928   56.8444 H   0  0  0  0  0  0  0  0  0  0  0  0
   39.4832   79.0497   55.5936 H   0  0  0  0  0  0  0  0  0  0  0  0
   39.5529   80.4829   53.9940 H   0  0  0  0  0  0  0  0  0  0  0  0
   39.5423   78.7418   53.5386 H   0  0  0  0  0  0  0  0  0  0  0  0
   36.8570   80.0140   53.5906 H   0  0  0  0  0  0  0  0  0  0  0  0
   37.9774   80.6946   52.3626 H   0  0  0  0  0  0  0  0  0  0  0  0
   37.6050   78.9374   52.3626 H   0  0  0  0  0  0  0  0  0  0  0  0
  1 10  1  0
  2  1  2  0
  3  2  1  0
  4  5  1  0
  4  3  2  0
  5  6  2  0
  6  1  1  0
  7  8  2  0
  7 16  1  0
  9  8  1  0
 10  9  2  0
 11 10  1  0
 11  7  1  0
 12 13  2  0
 13 14  1  0
 15 14  2  0
 16 15  1  0
 17 16  2  0
 17 12  1  0
 18 19  2  0
 18  5  1  0
 20 21  1  0
 20 18  1  0
 22 20  1  0
 22 21  1  0
 23 22  1  0
 24 23  1  0
  2 25  1  0
  3 26  1  0
  8 27  1  0
  9 28  1  0
 12 29  1  0
 13 30  1  0
 14 31  1  0
 20 32  1  6
 21 33  1  0
 21 34  1  0
 22 35  1  1
 23 36  1  0
 23 37  1  0
 24 38  1  0
 24 39  1  0
 24 40  1  0
M  ISO  8  25  14  26  14  27  14  28  14  29  14  30  14  31  14  32  13
M  ISO  8  33  13  34  13  35  13  36   8  37   8  38   8  39   8  40   8
M  END
>  <minimizedAffinity>  (1) 
-5.98816538

>  <minimizedRMSD>  (1) 
0.226671726

$$$$
