
     RDKit          3D

 36 39  0  0  1  0  0  0  0  0999 V2000
   39.7580   77.2680   59.2330 C   0  0  0  0  0  0  0  0  0  0  0  0
   40.4160   76.0970   59.0140 C   0  0  0  0  0  0  0  0  0  0  0  0
   39.8720   75.3750   57.9400 C   0  0  0  0  0  0  0  0  0  0  0  0
   38.8200   75.7850   57.2070 N   0  0  0  0  0  0  0  0  0  0  0  0
   38.2340   76.9780   57.5150 C   0  0  0  0  0  0  0  0  0  0  0  0
   38.7100   77.7250   58.5390 N   0  0  0  0  0  0  0  0  0  0  0  0
   40.9670   80.2500   61.7410 C   0  0  0  0  0  0  0  0  0  0  0  0
   40.9350   79.0210   62.3720 C   0  0  0  0  0  0  0  0  0  0  0  0
   40.5490   77.9560   61.6400 C   0  0  0  0  0  0  0  0  0  0  0  0
   40.2060   78.1270   60.3110 C   0  0  0  0  0  0  0  0  0  0  0  0
   40.4350   79.9310   60.0340 S   0  0  0  0  0  0  0  0  0  0  0  0
   43.0480   83.0740   62.8290 C   0  0  0  0  0  0  0  0  0  0  0  0
   42.1600   83.8380   63.6160 C   0  0  0  0  0  0  0  0  0  0  0  0
   40.8420   83.3840   63.7690 C   0  0  0  0  0  0  0  0  0  0  0  0
   40.4850   82.2390   63.1560 N   0  0  0  0  0  0  0  0  0  0  0  0
   41.3650   81.5180   62.3990 C   0  0  0  0  0  0  0  0  0  0  0  0
   42.6230   81.9390   62.2450 N   0  0  0  0  0  0  0  0  0  0  0  0
   37.1080   77.4020   56.7060 C   0  0  0  0  0  0  0  0  0  0  0  0
   35.9710   77.2510   57.1770 O   0  0  0  0  0  0  0  0  0  0  0  0
   37.2810   78.0010   55.3300 C   0  0  1  0  0  0  0  0  0  0  0  0
   37.3380   79.5090   55.3470 C   0  0  0  0  0  0  0  0  0  0  0  0
   38.5070   78.7030   54.9950 C   0  0  1  0  0  0  0  0  0  0  0  0
   39.6500   78.5140   55.8560 N   0  0  0  0  0  0  0  0  0  0  0  0
   41.2752   75.7556   59.6100 H   0  0  0  0  0  0  0  0  0  0  0  0
   40.3354   74.4117   57.6806 H   0  0  0  0  0  0  0  0  0  0  0  0
   41.2137   78.9153   63.4308 H   0  0  0  0  0  0  0  0  0  0  0  0
   40.5072   76.9566   62.0976 H   0  0  0  0  0  0  0  0  0  0  0  0
   44.0877   83.4065   62.6931 H   0  0  0  0  0  0  0  0  0  0  0  0
   42.4941   84.7684   64.0984 H   0  0  0  0  0  0  0  0  0  0  0  0
   40.1179   83.9488   64.3745 H   0  0  0  0  0  0  0  0  0  0  0  0
   36.7177   77.2039   54.8227 H   0  0  0  0  0  0  0  0  0  0  0  0
   36.8141   80.0921   54.5753 H   0  0  0  0  0  0  0  0  0  0  0  0
   37.1179   80.2964   56.0829 H   0  0  0  0  0  0  0  0  0  0  0  0
   39.1921   78.7541   54.1359 H   0  0  0  0  0  0  0  0  0  0  0  0
   39.3504   78.5635   56.8402 H   0  0  0  0  0  0  0  0  0  0  0  0
   40.0704   77.5921   55.6711 H   0  0  0  0  0  0  0  0  0  0  0  0
  1 10  1  0
  2  1  2  0
  3  2  1  0
  4  5  1  0
  4  3  2  0
  5  6  2  0
  6  1  1  0
  7  8  2  0
  7 16  1  0
  9  8  1  0
 10  9  2  0
 11 10  1  0
 11  7  1  0
 12 13  2  0
 13 14  1  0
 15 14  2  0
 16 15  1  0
 17 16  2  0
 17 12  1  0
 18 19  2  0
 18  5  1  0
 20 21  1  0
 20 18  1  0
 22 20  1  0
 22 21  1  0
 22 23  1  0
  2 24  1  0
  3 25  1  0
  8 26  1  0
  9 27  1  0
 12 28  1  0
 13 29  1  0
 14 30  1  0
 20 31  1  6
 21 32  1  0
 21 33  1  0
 22 34  1  6
 23 35  1  0
 23 36  1  0
M  ISO  8  24  14  25  14  26  14  27  14  28  14  29  14  30  14  31  13
M  ISO  5  32  13  33  13  34  13  35   5  36   5
M  END
>  <minimizedAffinity>  (1) 
-5.86059046

>  <minimizedRMSD>  (1) 
0.254527271

$$$$
