
     RDKit          3D

 20 21  0  0  0  0  0  0  0  0999 V2000
   42.4620   84.6120   58.1390 C   0  0  0  0  0  0  0  0  0  0  0  0
   43.4480   85.6040   58.0740 C   0  0  0  0  0  0  0  0  0  0  0  0
   43.8610   86.2060   59.2760 C   0  0  0  0  0  0  0  0  0  0  0  0
   43.2750   85.7850   60.4240 N   0  0  0  0  0  0  0  0  0  0  0  0
   42.3220   84.8190   60.4550 C   0  0  0  0  0  0  0  0  0  0  0  0
   41.9200   84.2390   59.3180 N   0  0  0  0  0  0  0  0  0  0  0  0
   41.7350   84.4140   61.7260 C   0  0  0  0  0  0  0  0  0  0  0  0
   42.4620   84.5840   62.9010 C   0  0  0  0  0  0  0  0  0  0  0  0
   41.9580   84.2180   64.1310 C   0  0  0  0  0  0  0  0  0  0  0  0
   40.6780   83.6610   64.2020 C   0  0  0  0  0  0  0  0  0  0  0  0
   39.9470   83.4900   63.0220 C   0  0  0  0  0  0  0  0  0  0  0  0
   40.4570   83.8590   61.7860 C   0  0  0  0  0  0  0  0  0  0  0  0
   42.1225   84.1273   57.2118 H   0  0  0  0  0  0  0  0  0  0  0  0
   43.8868   85.9037   57.1109 H   0  0  0  0  0  0  0  0  0  0  0  0
   44.6320   86.9905   59.2846 H   0  0  0  0  0  0  0  0  0  0  0  0
   43.4689   85.0236   62.8464 H   0  0  0  0  0  0  0  0  0  0  0  0
   42.5548   84.3623   65.0437 H   0  0  0  0  0  0  0  0  0  0  0  0
   40.2522   83.3617   65.1711 H   0  0  0  0  0  0  0  0  0  0  0  0
   38.9399   83.0508   63.0756 H   0  0  0  0  0  0  0  0  0  0  0  0
   39.8645   83.7165   60.8702 H   0  0  0  0  0  0  0  0  0  0  0  0
  1  6  2  0
  2  1  1  0
  2  3  2  0
  3  4  1  0
  4  5  2  0
  5  7  1  0
  6  5  1  0
  7 12  1  0
  7  8  2  0
  8  9  1  0
  9 10  2  0
 11 10  1  0
 12 11  2  0
  1 13  1  0
  2 14  1  0
  3 15  1  0
  8 16  1  0
  9 17  1  0
 10 18  1  0
 11 19  1  0
 12 20  1  0
M  ISO  8  13  14  14  14  15  14  16  14  17  14  18  14  19  14  20  14
M  END
>  <minimizedAffinity>  (1) 
-4.01747084

>  <minimizedRMSD>  (1) 
4.23953152

$$$$
