
     RDKit          3D

 35 37  0  0  0  0  0  0  0  0999 V2000
   42.3920   84.5150   62.5340 C   0  0  0  0  0  0  0  0  0  0  0  0
   42.4160   84.4720   63.9170 C   0  0  0  0  0  0  0  0  0  0  0  0
   41.2840   84.0970   64.6270 C   0  0  0  0  0  0  0  0  0  0  0  0
   40.1200   83.7620   63.9530 C   0  0  0  0  0  0  0  0  0  0  0  0
   40.0890   83.8040   62.5660 C   0  0  0  0  0  0  0  0  0  0  0  0
   41.2170   84.1770   61.8880 C   0  0  0  0  0  0  0  0  0  0  0  0
   45.4820   84.3850   60.5930 C   0  0  0  0  0  0  0  0  0  0  0  0
   45.7880   85.7370   60.3920 C   0  0  0  0  0  0  0  0  0  0  0  0
   44.9170   86.6870   60.9290 C   0  0  0  0  0  0  0  0  0  0  0  0
   43.8470   86.2220   61.6010 N   0  0  0  0  0  0  0  0  0  0  0  0
   43.5660   84.9020   61.7860 C   0  0  0  0  0  0  0  0  0  0  0  0
   44.3910   83.9940   61.2770 N   0  0  0  0  0  0  0  0  0  0  0  0
   41.0190   84.1500   60.4810 N   0  0  0  0  0  0  0  0  0  0  0  0
   40.9610   85.0220   59.3270 C   0  0  0  0  0  0  0  0  0  0  0  0
   42.0240   84.5010   58.3410 C   0  0  0  0  0  0  0  0  0  0  0  0
   41.5120   83.2380   57.6720 C   0  0  0  0  0  0  0  0  0  0  0  0
   40.4390   82.6790   58.5750 C   0  0  0  0  0  0  0  0  0  0  0  0
   40.7920   82.7930   60.0230 C   0  0  0  0  0  0  0  0  0  0  0  0
   43.3374   84.7365   64.4565 H   0  0  0  0  0  0  0  0  0  0  0  0
   41.3105   84.0656   65.7262 H   0  0  0  0  0  0  0  0  0  0  0  0
   39.2232   83.4637   64.5159 H   0  0  0  0  0  0  0  0  0  0  0  0
   39.1709   83.5412   62.0200 H   0  0  0  0  0  0  0  0  0  0  0  0
   46.1543   83.6191   60.1789 H   0  0  0  0  0  0  0  0  0  0  0  0
   46.6839   86.0400   59.8303 H   0  0  0  0  0  0  0  0  0  0  0  0
   45.0967   87.7655   60.8086 H   0  0  0  0  0  0  0  0  0  0  0  0
   39.9623   84.9810   58.8678 H   0  0  0  0  0  0  0  0  0  0  0  0
   41.1515   86.0689   59.6056 H   0  0  0  0  0  0  0  0  0  0  0  0
   42.2230   85.2668   57.5768 H   0  0  0  0  0  0  0  0  0  0  0  0
   42.9537   84.2787   58.8852 H   0  0  0  0  0  0  0  0  0  0  0  0
   41.0913   83.4753   56.6837 H   0  0  0  0  0  0  0  0  0  0  0  0
   42.3235   82.5108   57.5213 H   0  0  0  0  0  0  0  0  0  0  0  0
   39.5043   83.2305   58.3954 H   0  0  0  0  0  0  0  0  0  0  0  0
   40.3293   81.6098   58.3412 H   0  0  0  0  0  0  0  0  0  0  0  0
   39.9679   82.3647   60.6124 H   0  0  0  0  0  0  0  0  0  0  0  0
   41.7416   82.2543   60.1571 H   0  0  0  0  0  0  0  0  0  0  0  0
  1  2  2  0
  2  3  1  0
  4  3  2  0
  5  4  1  0
  6  1  1  0
  6  5  2  0
  7 12  2  0
  8  7  1  0
  8  9  2  0
  9 10  1  0
 10 11  2  0
 11  1  1  0
 12 11  1  0
 13  6  1  0
 14 13  1  0
 15 14  1  0
 16 15  1  0
 16 17  1  0
 17 18  1  0
 18 13  1  0
  2 19  1  0
  3 20  1  0
  4 21  1  0
  5 22  1  0
  7 23  1  0
  8 24  1  0
  9 25  1  0
 14 26  1  0
 14 27  1  0
 15 28  1  0
 15 29  1  0
 16 30  1  0
 16 31  1  0
 17 32  1  0
 17 33  1  0
 18 34  1  0
 18 35  1  0
M  ISO  8  19  14  20  14  21  14  22  14  23  14  24  14  25  14  26  13
M  ISO  8  27  13  28  13  29  13  30  13  31  13  32  13  33  13  34  13
M  ISO  1  35  13
M  END
>  <minimizedAffinity>  (1) 
-5.08399105

>  <minimizedRMSD>  (1) 
2.12128186

$$$$
