
     RDKit          3D

 32 34  0  0  0  0  0  0  0  0999 V2000
   42.1460   84.2860   62.1500 C   0  0  0  0  0  0  0  0  0  0  0  0
   42.6000   84.4050   63.4700 C   0  0  0  0  0  0  0  0  0  0  0  0
   41.7370   84.1490   64.5230 C   0  0  0  0  0  0  0  0  0  0  0  0
   40.4190   83.7730   64.3040 C   0  0  0  0  0  0  0  0  0  0  0  0
   39.9880   83.6600   62.9880 C   0  0  0  0  0  0  0  0  0  0  0  0
   40.8340   83.9130   61.9270 C   0  0  0  0  0  0  0  0  0  0  0  0
   44.5830   83.8060   59.4550 C   0  0  0  0  0  0  0  0  0  0  0  0
   44.7670   85.1010   58.9810 C   0  0  0  0  0  0  0  0  0  0  0  0
   44.0470   86.1620   59.5880 C   0  0  0  0  0  0  0  0  0  0  0  0
   43.2150   85.8380   60.6070 N   0  0  0  0  0  0  0  0  0  0  0  0
   43.0520   84.5540   61.0560 C   0  0  0  0  0  0  0  0  0  0  0  0
   43.7370   83.5800   60.4700 N   0  0  0  0  0  0  0  0  0  0  0  0
   40.2790   83.7680   60.6380 N   0  0  0  0  0  0  0  0  0  0  0  0
   40.2490   82.8460   59.4930 C   0  0  0  0  0  0  0  0  0  0  0  0
   40.7940   83.8050   58.4220 C   0  0  0  0  0  0  0  0  0  0  0  0
   40.2160   85.1660   58.8160 C   0  0  0  0  0  0  0  0  0  0  0  0
   39.3980   84.7920   60.0560 C   0  0  0  0  0  0  0  0  0  0  0  0
   43.6403   84.7013   63.6700 H   0  0  0  0  0  0  0  0  0  0  0  0
   42.1043   84.2458   65.5553 H   0  0  0  0  0  0  0  0  0  0  0  0
   39.7384   83.5712   65.1443 H   0  0  0  0  0  0  0  0  0  0  0  0
   38.9484   83.3620   62.7869 H   0  0  0  0  0  0  0  0  0  0  0  0
   45.1308   82.9689   58.9976 H   0  0  0  0  0  0  0  0  0  0  0  0
   45.4593   85.2989   58.1494 H   0  0  0  0  0  0  0  0  0  0  0  0
   44.1593   87.2016   59.2465 H   0  0  0  0  0  0  0  0  0  0  0  0
   40.9043   81.9754   59.6433 H   0  0  0  0  0  0  0  0  0  0  0  0
   39.2747   82.3849   59.2734 H   0  0  0  0  0  0  0  0  0  0  0  0
   40.4495   83.5090   57.4202 H   0  0  0  0  0  0  0  0  0  0  0  0
   41.8931   83.8087   58.3764 H   0  0  0  0  0  0  0  0  0  0  0  0
   41.0107   85.8867   59.0592 H   0  0  0  0  0  0  0  0  0  0  0  0
   39.6345   85.6573   58.0220 H   0  0  0  0  0  0  0  0  0  0  0  0
   39.2650   85.6494   60.7322 H   0  0  0  0  0  0  0  0  0  0  0  0
   38.3696   84.4593   59.8519 H   0  0  0  0  0  0  0  0  0  0  0  0
  1  2  2  0
  2  3  1  0
  4  3  2  0
  5  4  1  0
  6  1  1  0
  6  5  2  0
  7 12  2  0
  8  7  1  0
  8  9  2  0
  9 10  1  0
 10 11  2  0
 11  1  1  0
 12 11  1  0
 13  6  1  0
 14 13  1  0
 15 16  1  0
 15 14  1  0
 16 17  1  0
 17 13  1  0
  2 18  1  0
  3 19  1  0
  4 20  1  0
  5 21  1  0
  7 22  1  0
  8 23  1  0
  9 24  1  0
 14 25  1  0
 14 26  1  0
 15 27  1  0
 15 28  1  0
 16 29  1  0
 16 30  1  0
 17 31  1  0
 17 32  1  0
M  ISO  8  18  14  19  14  20  14  21  14  22  14  23  14  24  14  25  13
M  ISO  7  26  13  27  13  28  13  29  13  30  13  31  13  32  13
M  END
>  <minimizedAffinity>  (1) 
-5.0786624

>  <minimizedRMSD>  (1) 
1.46453345

$$$$
