
     RDKit          3D

 24 25  0  0  0  0  0  0  0  0999 V2000
   42.0580   84.4020   61.8760 C   0  0  0  0  0  0  0  0  0  0  0  0
   42.4700   84.6700   63.1800 C   0  0  0  0  0  0  0  0  0  0  0  0
   41.7210   84.3070   64.2750 C   0  0  0  0  0  0  0  0  0  0  0  0
   40.5120   83.6530   64.0770 C   0  0  0  0  0  0  0  0  0  0  0  0
   40.0800   83.3750   62.7680 C   0  0  0  0  0  0  0  0  0  0  0  0
   40.8520   83.7490   61.6830 C   0  0  0  0  0  0  0  0  0  0  0  0
   43.9640   84.3250   58.7600 C   0  0  0  0  0  0  0  0  0  0  0  0
   44.4730   85.6170   58.6580 C   0  0  0  0  0  0  0  0  0  0  0  0
   44.1510   86.5170   59.6760 C   0  0  0  0  0  0  0  0  0  0  0  0
   43.3670   86.0890   60.7010 N   0  0  0  0  0  0  0  0  0  0  0  0
   42.8910   84.8080   60.7590 C   0  0  0  0  0  0  0  0  0  0  0  0
   43.1910   83.9400   59.7930 N   0  0  0  0  0  0  0  0  0  0  0  0
   39.4380   84.3130   59.7060 C   0  0  0  0  0  0  0  0  0  0  0  0
   39.2000   85.2550   60.5080 O   0  0  0  0  0  0  0  0  0  0  0  0
   40.3820   83.4510   60.3720 N   0  0  0  0  0  0  0  0  0  0  0  0
   43.4265   85.1894   63.3390 H   0  0  0  0  0  0  0  0  0  0  0  0
   42.0743   84.5313   65.2923 H   0  0  0  0  0  0  0  0  0  0  0  0
   39.8964   83.3544   64.9384 H   0  0  0  0  0  0  0  0  0  0  0  0
   39.1230   82.8573   62.6061 H   0  0  0  0  0  0  0  0  0  0  0  0
   44.2010   83.5956   57.9715 H   0  0  0  0  0  0  0  0  0  0  0  0
   45.1042   85.9171   57.8086 H   0  0  0  0  0  0  0  0  0  0  0  0
   44.5242   87.5514   59.6491 H   0  0  0  0  0  0  0  0  0  0  0  0
   39.0118   84.1761   58.7012 H   0  0  0  0  0  0  0  0  0  0  0  0
   40.7222   82.6056   59.8919 H   0  0  0  0  0  0  0  0  0  0  0  0
  1  2  2  0
  2  3  1  0
  4  3  2  0
  5  4  1  0
  6  1  1  0
  6  5  2  0
  7 12  2  0
  8  7  1  0
  8  9  2  0
  9 10  1  0
 10 11  2  0
 11  1  1  0
 12 11  1  0
 13 15  1  0
 13 14  2  0
 15  6  1  0
  2 16  1  0
  3 17  1  0
  4 18  1  0
  5 19  1  0
  7 20  1  0
  8 21  1  0
  9 22  1  0
 13 23  1  0
 15 24  1  0
M  ISO  8  16  14  17  14  18  14  19  14  20  14  21  14  22  14  23   6
M  END
>  <minimizedAffinity>  (1) 
-4.92268085

>  <minimizedRMSD>  (1) 
0.791318595

$$$$
