
     RDKit          3D

 27 29  0  0  0  0  0  0  0  0999 V2000
   42.3770   84.5050   62.3870 C   0  0  0  0  0  0  0  0  0  0  0  0
   42.3630   84.4470   63.7700 C   0  0  0  0  0  0  0  0  0  0  0  0
   41.2370   84.0660   64.4640 C   0  0  0  0  0  0  0  0  0  0  0  0
   40.0750   83.7290   63.7800 C   0  0  0  0  0  0  0  0  0  0  0  0
   40.0890   83.7870   62.3920 C   0  0  0  0  0  0  0  0  0  0  0  0
   41.2220   84.1690   61.7030 C   0  0  0  0  0  0  0  0  0  0  0  0
   45.5920   84.3530   60.6410 C   0  0  0  0  0  0  0  0  0  0  0  0
   45.8700   85.6930   60.3770 C   0  0  0  0  0  0  0  0  0  0  0  0
   44.9410   86.6460   60.8050 C   0  0  0  0  0  0  0  0  0  0  0  0
   43.8240   86.2240   61.4510 N   0  0  0  0  0  0  0  0  0  0  0  0
   43.5870   84.9120   61.6910 C   0  0  0  0  0  0  0  0  0  0  0  0
   44.4670   84.0040   61.2860 N   0  0  0  0  0  0  0  0  0  0  0  0
   41.1690   84.2090   60.2310 C   0  0  0  0  0  0  0  0  0  0  0  0
   40.1310   83.2940   59.6100 C   0  0  0  0  0  0  0  0  0  0  0  0
   40.0520   84.8110   59.4990 C   0  0  0  0  0  0  0  0  0  0  0  0
   43.2734   84.7117   64.3277 H   0  0  0  0  0  0  0  0  0  0  0  0
   41.2569   84.0281   65.5632 H   0  0  0  0  0  0  0  0  0  0  0  0
   39.1683   83.4244   64.3232 H   0  0  0  0  0  0  0  0  0  0  0  0
   39.1798   83.5235   61.8317 H   0  0  0  0  0  0  0  0  0  0  0  0
   46.2997   83.5751   60.3185 H   0  0  0  0  0  0  0  0  0  0  0  0
   46.7886   85.9904   59.8501 H   0  0  0  0  0  0  0  0  0  0  0  0
   45.1118   87.7171   60.6219 H   0  0  0  0  0  0  0  0  0  0  0  0
   42.2538   84.3778   60.1619 H   0  0  0  0  0  0  0  0  0  0  0  0
   40.3822   82.6840   58.7298 H   0  0  0  0  0  0  0  0  0  0  0  0
   39.4692   82.4909   59.9664 H   0  0  0  0  0  0  0  0  0  0  0  0
   40.2324   85.2990   58.5298 H   0  0  0  0  0  0  0  0  0  0  0  0
   39.2873   85.5640   59.7402 H   0  0  0  0  0  0  0  0  0  0  0  0
  1  2  2  0
  2  3  1  0
  4  3  2  0
  5  4  1  0
  6  1  1  0
  6  5  2  0
  7 12  2  0
  8  7  1  0
  8  9  2  0
  9 10  1  0
 10 11  2  0
 11  1  1  0
 12 11  1  0
 13  6  1  0
 14 13  1  0
 15 14  1  0
 15 13  1  0
  2 16  1  0
  3 17  1  0
  4 18  1  0
  5 19  1  0
  7 20  1  0
  8 21  1  0
  9 22  1  0
 13 23  1  0
 14 24  1  0
 14 25  1  0
 15 26  1  0
 15 27  1  0
M  ISO  8  16  14  17  14  18  14  19  14  20  14  21  14  22  14  23  13
M  ISO  4  24  13  25  13  26  13  27  13
M  END
>  <minimizedAffinity>  (1) 
-4.58556175

>  <minimizedRMSD>  (1) 
2.03006315

$$$$
