
     RDKit          3D

 27 28  0  0  0  0  0  0  0  0999 V2000
   42.3920   84.4740   62.4640 C   0  0  0  0  0  0  0  0  0  0  0  0
   42.3230   84.6080   63.8590 C   0  0  0  0  0  0  0  0  0  0  0  0
   41.2160   84.2510   64.5810 C   0  0  0  0  0  0  0  0  0  0  0  0
   40.1090   83.7270   63.8860 C   0  0  0  0  0  0  0  0  0  0  0  0
   40.1740   83.5930   62.5060 C   0  0  0  0  0  0  0  0  0  0  0  0
   41.3030   83.9620   61.8020 C   0  0  0  0  0  0  0  0  0  0  0  0
   45.6930   84.3320   60.9030 C   0  0  0  0  0  0  0  0  0  0  0  0
   45.8860   85.6650   60.4860 C   0  0  0  0  0  0  0  0  0  0  0  0
   44.8810   86.6050   60.7390 C   0  0  0  0  0  0  0  0  0  0  0  0
   43.7800   86.1630   61.3760 N   0  0  0  0  0  0  0  0  0  0  0  0
   43.6070   84.8640   61.7760 C   0  0  0  0  0  0  0  0  0  0  0  0
   44.5570   83.9670   61.5380 N   0  0  0  0  0  0  0  0  0  0  0  0
   41.2420   83.7930   60.3710 C   0  0  0  0  0  0  0  0  0  0  0  0
   40.5840   82.8190   59.7630 C   0  0  0  0  0  0  0  0  0  0  0  0
   40.4110   82.4890   58.3470 C   0  0  0  0  0  0  0  0  0  0  0  0
   43.1932   85.0162   64.3939 H   0  0  0  0  0  0  0  0  0  0  0  0
   41.1919   84.3702   65.6743 H   0  0  0  0  0  0  0  0  0  0  0  0
   39.2020   83.4269   64.4312 H   0  0  0  0  0  0  0  0  0  0  0  0
   39.3091   83.1848   61.9626 H   0  0  0  0  0  0  0  0  0  0  0  0
   46.4742   83.5821   60.7097 H   0  0  0  0  0  0  0  0  0  0  0  0
   46.8114   85.9610   59.9703 H   0  0  0  0  0  0  0  0  0  0  0  0
   44.9854   87.6561   60.4319 H   0  0  0  0  0  0  0  0  0  0  0  0
   41.7773   84.5212   59.7440 H   0  0  0  0  0  0  0  0  0  0  0  0
   40.0716   82.1287   60.4493 H   0  0  0  0  0  0  0  0  0  0  0  0
   39.9020   81.5181   58.2563 H   0  0  0  0  0  0  0  0  0  0  0  0
   39.8051   83.2675   57.8604 H   0  0  0  0  0  0  0  0  0  0  0  0
   41.3960   82.4335   57.8604 H   0  0  0  0  0  0  0  0  0  0  0  0
  1  2  2  0
  2  3  1  0
  4  3  2  0
  5  4  1  0
  6  1  1  0
  6  5  2  0
  7 12  2  0
  8  9  2  0
  8  7  1  0
  9 10  1  0
 10 11  2  0
 11  1  1  0
 12 11  1  0
 13  6  1  0
 14 13  2  0
 15 14  1  0
  2 16  1  0
  3 17  1  0
  4 18  1  0
  5 19  1  0
  7 20  1  0
  8 21  1  0
  9 22  1  0
 13 23  1  0
 14 24  1  0
 15 25  1  0
 15 26  1  0
 15 27  1  0
M  ISO  8  16  14  17  14  18  14  19  14  20  14  21  14  22  14  25   8
M  ISO  2  26   8  27   8
M  END
>  <minimizedAffinity>  (1) 
-4.47072029

>  <minimizedRMSD>  (1) 
2.04165339

$$$$
