
     RDKit          3D

 21 22  0  0  0  0  0  0  0  0999 V2000
   41.6820   84.3440   61.6930 C   0  0  0  0  0  0  0  0  0  0  0  0
   42.5680   84.4360   62.7710 C   0  0  0  0  0  0  0  0  0  0  0  0
   42.1310   84.1680   64.0520 C   0  0  0  0  0  0  0  0  0  0  0  0
   40.8000   83.8030   64.2860 C   0  0  0  0  0  0  0  0  0  0  0  0
   39.9350   83.7170   63.2030 C   0  0  0  0  0  0  0  0  0  0  0  0
   40.3560   83.9810   61.9180 C   0  0  0  0  0  0  0  0  0  0  0  0
   42.3780   84.0340   58.1140 C   0  0  0  0  0  0  0  0  0  0  0  0
   43.1020   85.1950   57.8260 C   0  0  0  0  0  0  0  0  0  0  0  0
   43.3480   86.0840   58.8760 C   0  0  0  0  0  0  0  0  0  0  0  0
   42.8750   85.7810   60.1180 N   0  0  0  0  0  0  0  0  0  0  0  0
   42.1740   84.6350   60.3430 C   0  0  0  0  0  0  0  0  0  0  0  0
   41.9190   83.7570   59.3560 N   0  0  0  0  0  0  0  0  0  0  0  0
   39.5100   83.9020   60.8260 O   0  0  0  0  0  0  0  0  0  0  0  0
   43.6157   84.7227   62.5973 H   0  0  0  0  0  0  0  0  0  0  0  0
   42.8334   84.2417   64.8953 H   0  0  0  0  0  0  0  0  0  0  0  0
   40.4469   83.5890   65.3056 H   0  0  0  0  0  0  0  0  0  0  0  0
   38.8870   83.4308   63.3755 H   0  0  0  0  0  0  0  0  0  0  0  0
   42.1744   83.3206   57.3018 H   0  0  0  0  0  0  0  0  0  0  0  0
   43.4653   85.4015   56.8085 H   0  0  0  0  0  0  0  0  0  0  0  0
   43.9133   87.0117   58.7032 H   0  0  0  0  0  0  0  0  0  0  0  0
   38.5618   83.6467   60.9519 H   0  0  0  0  0  0  0  0  0  0  0  0
  1  6  1  0
  1  2  2  0
  2  3  1  0
  3  4  2  0
  5  4  1  0
  6  5  2  0
  7 12  2  0
  8  7  1  0
  8  9  2  0
  9 10  1  0
 10 11  2  0
 11  1  1  0
 12 11  1  0
 13  6  1  0
  2 14  1  0
  3 15  1  0
  4 16  1  0
  5 17  1  0
  7 18  1  0
  8 19  1  0
  9 20  1  0
 13 21  1  0
M  ISO  8  14  14  15  14  16  14  17  14  18  14  19  14  20  14  21   3
M  END
>  <minimizedAffinity>  (1) 
-4.28884649

>  <minimizedRMSD>  (1) 
0.393487751

$$$$
