
     RDKit          3D

 28 30  0  0  0  0  0  0  0  0999 V2000
   41.8170   84.2330   61.5900 C   0  0  0  0  0  0  0  0  0  0  0  0
   41.4280   83.9700   62.8980 C   0  0  0  0  0  0  0  0  0  0  0  0
   40.1390   83.5640   63.2060 C   0  0  0  0  0  0  0  0  0  0  0  0
   39.2130   83.4170   62.1770 C   0  0  0  0  0  0  0  0  0  0  0  0
   39.6020   83.6810   60.8620 C   0  0  0  0  0  0  0  0  0  0  0  0
   40.8870   84.0830   60.5760 C   0  0  0  0  0  0  0  0  0  0  0  0
   45.3870   84.0970   60.8170 C   0  0  0  0  0  0  0  0  0  0  0  0
   45.7610   85.4380   60.8240 C   0  0  0  0  0  0  0  0  0  0  0  0
   44.7690   86.4080   61.1010 C   0  0  0  0  0  0  0  0  0  0  0  0
   43.5070   85.9760   61.3420 N   0  0  0  0  0  0  0  0  0  0  0  0
   43.1780   84.6540   61.3260 C   0  0  0  0  0  0  0  0  0  0  0  0
   44.1160   83.7480   61.0660 N   0  0  0  0  0  0  0  0  0  0  0  0
   41.2460   84.3470   59.1940 C   0  0  0  0  0  0  0  0  0  0  0  0
   40.7710   85.5900   58.7650 C   0  0  0  0  0  0  0  0  0  0  0  0
   41.0100   86.0350   57.4680 C   0  0  0  0  0  0  0  0  0  0  0  0
   41.7070   85.2230   56.6610 N   0  0  0  0  0  0  0  0  0  0  0  0
   42.1700   84.0110   57.0800 C   0  0  0  0  0  0  0  0  0  0  0  0
   41.9400   83.5790   58.3340 N   0  0  0  0  0  0  0  0  0  0  0  0
   42.1615   84.0870   63.7093 H   0  0  0  0  0  0  0  0  0  0  0  0
   39.8519   83.3609   64.2483 H   0  0  0  0  0  0  0  0  0  0  0  0
   38.1843   83.0958   62.3977 H   0  0  0  0  0  0  0  0  0  0  0  0
   38.8735   83.5664   60.0458 H   0  0  0  0  0  0  0  0  0  0  0  0
   46.1370   83.3204   60.6064 H   0  0  0  0  0  0  0  0  0  0  0  0
   46.8001   85.7355   60.6196 H   0  0  0  0  0  0  0  0  0  0  0  0
   45.0144   87.4801   61.1202 H   0  0  0  0  0  0  0  0  0  0  0  0
   40.2016   86.2238   59.4608 H   0  0  0  0  0  0  0  0  0  0  0  0
   40.6424   87.0117   57.1201 H   0  0  0  0  0  0  0  0  0  0  0  0
   42.7393   83.3775   56.3838 H   0  0  0  0  0  0  0  0  0  0  0  0
  1  2  2  0
  2  3  1  0
  4  3  2  0
  5  4  1  0
  6  5  2  0
  6  1  1  0
  7  8  2  0
  7 12  1  0
  8  9  1  0
  9 10  2  0
 11 10  1  0
 11  1  1  0
 12 11  2  0
 13  6  1  0
 14 13  2  0
 15 14  1  0
 16 17  1  0
 16 15  2  0
 17 18  2  0
 18 13  1  0
  2 19  1  0
  3 20  1  0
  4 21  1  0
  5 22  1  0
  7 23  1  0
  8 24  1  0
  9 25  1  0
 14 26  1  0
 15 27  1  0
 17 28  1  0
M  ISO  8  19  14  20  14  21  14  22  14  23  14  24  14  25  14  26  14
M  ISO  2  27  14  28  14
M  END
>  <minimizedAffinity>  (1) 
-5.20976257

>  <minimizedRMSD>  (1) 
2.72130084

$$$$
