
     RDKit          3D

 43 46  0  0  0  0  0  0  0  0999 V2000
   41.7920   84.1540   61.5520 C   0  0  0  0  0  0  0  0  0  0  0  0
   41.4370   83.8730   62.8650 C   0  0  0  0  0  0  0  0  0  0  0  0
   40.1400   83.5300   63.2060 C   0  0  0  0  0  0  0  0  0  0  0  0
   39.1680   83.4620   62.2120 C   0  0  0  0  0  0  0  0  0  0  0  0
   39.5260   83.7450   60.8900 C   0  0  0  0  0  0  0  0  0  0  0  0
   40.8290   84.0870   60.5710 C   0  0  0  0  0  0  0  0  0  0  0  0
   41.1480   84.3710   59.1790 C   0  0  0  0  0  0  0  0  0  0  0  0
   40.9310   85.7130   58.8700 C   0  0  0  0  0  0  0  0  0  0  0  0
   41.1800   86.1880   57.5770 C   0  0  0  0  0  0  0  0  0  0  0  0
   41.6270   85.3060   56.6720 N   0  0  0  0  0  0  0  0  0  0  0  0
   41.8330   84.0000   56.9890 C   0  0  0  0  0  0  0  0  0  0  0  0
   41.5990   83.5340   58.2200 N   0  0  0  0  0  0  0  0  0  0  0  0
   42.3070   83.0670   56.0250 N   0  0  0  0  0  0  0  0  0  0  0  0
   41.9820   81.6540   56.0400 C   0  0  0  0  0  0  0  0  0  0  0  0
   41.4930   81.1480   54.7210 C   0  0  0  0  0  0  0  0  0  0  0  0
   42.1220   81.7670   53.5200 C   0  0  0  0  0  0  0  0  0  0  0  0
   42.4070   83.2300   53.6250 C   0  0  0  0  0  0  0  0  0  0  0  0
   43.1750   83.4360   54.9170 C   0  0  0  0  0  0  0  0  0  0  0  0
   45.2830   83.8800   60.4950 C   0  0  0  0  0  0  0  0  0  0  0  0
   45.7640   85.1780   60.6700 C   0  0  0  0  0  0  0  0  0  0  0  0
   44.8800   86.1560   61.1570 C   0  0  0  0  0  0  0  0  0  0  0  0
   43.6030   85.7900   61.4310 N   0  0  0  0  0  0  0  0  0  0  0  0
   43.1620   84.5100   61.2490 C   0  0  0  0  0  0  0  0  0  0  0  0
   44.0100   83.5880   60.7870 N   0  0  0  0  0  0  0  0  0  0  0  0
   42.2040   83.9242   63.6519 H   0  0  0  0  0  0  0  0  0  0  0  0
   39.8799   83.3132   64.2526 H   0  0  0  0  0  0  0  0  0  0  0  0
   38.1323   83.1894   62.4629 H   0  0  0  0  0  0  0  0  0  0  0  0
   38.7656   83.6954   60.0967 H   0  0  0  0  0  0  0  0  0  0  0  0
   40.5627   86.4012   59.6451 H   0  0  0  0  0  0  0  0  0  0  0  0
   41.0154   87.2433   57.3140 H   0  0  0  0  0  0  0  0  0  0  0  0
   42.8850   81.0905   56.3176 H   0  0  0  0  0  0  0  0  0  0  0  0
   41.1677   81.5136   56.7661 H   0  0  0  0  0  0  0  0  0  0  0  0
   41.6832   80.0652   54.6824 H   0  0  0  0  0  0  0  0  0  0  0  0
   40.4269   81.4146   54.6732 H   0  0  0  0  0  0  0  0  0  0  0  0
   41.4455   81.6140   52.6663 H   0  0  0  0  0  0  0  0  0  0  0  0
   43.0997   81.2764   53.4045 H   0  0  0  0  0  0  0  0  0  0  0  0
   43.0124   83.5602   52.7680 H   0  0  0  0  0  0  0  0  0  0  0  0
   41.4752   83.8145   53.6226 H   0  0  0  0  0  0  0  0  0  0  0  0
   44.0740   82.8021   54.9210 H   0  0  0  0  0  0  0  0  0  0  0  0
   43.4857   84.4870   55.0111 H   0  0  0  0  0  0  0  0  0  0  0  0
   45.9525   83.0939   60.1157 H   0  0  0  0  0  0  0  0  0  0  0  0
   46.8083   85.4294   60.4329 H   0  0  0  0  0  0  0  0  0  0  0  0
   45.2152   87.1921   61.3121 H   0  0  0  0  0  0  0  0  0  0  0  0
  1  2  2  0
  2  3  1  0
  4  3  2  0
  5  4  1  0
  6  5  2  0
  6  1  1  0
  7  6  1  0
  8  7  2  0
  9  8  1  0
 10 11  1  0
 10  9  2  0
 11 12  2  0
 12  7  1  0
 13 14  1  0
 13 11  1  0
 15 14  1  0
 16 17  1  0
 16 15  1  0
 17 18  1  0
 18 13  1  0
 19 20  2  0
 19 24  1  0
 20 21  1  0
 21 22  2  0
 23 22  1  0
 23  1  1  0
 24 23  2  0
  2 25  1  0
  3 26  1  0
  4 27  1  0
  5 28  1  0
  8 29  1  0
  9 30  1  0
 14 31  1  0
 14 32  1  0
 15 33  1  0
 15 34  1  0
 16 35  1  0
 16 36  1  0
 17 37  1  0
 17 38  1  0
 18 39  1  0
 18 40  1  0
 19 41  1  0
 20 42  1  0
 21 43  1  0
M  ISO  8  25  14  26  14  27  14  28  14  29  14  30  14  31  13  32  13
M  ISO  8  33  13  34  13  35  13  36  13  37  13  38  13  39  13  40  13
M  ISO  3  41  14  42  14  43  14
M  END
>  <minimizedAffinity>  (1) 
-5.88373613

>  <minimizedRMSD>  (1) 
0.488805503

$$$$
