
     RDKit          3D

 32 34  0  0  0  0  0  0  0  0999 V2000
   41.8160   84.2240   61.5600 C   0  0  0  0  0  0  0  0  0  0  0  0
   41.4520   83.9700   62.8740 C   0  0  0  0  0  0  0  0  0  0  0  0
   40.1820   83.5530   63.2050 C   0  0  0  0  0  0  0  0  0  0  0  0
   39.2360   83.3790   62.1900 C   0  0  0  0  0  0  0  0  0  0  0  0
   39.6060   83.6340   60.8740 C   0  0  0  0  0  0  0  0  0  0  0  0
   40.8790   84.0520   60.5480 C   0  0  0  0  0  0  0  0  0  0  0  0
   41.2110   84.3040   59.1650 C   0  0  0  0  0  0  0  0  0  0  0  0
   40.8290   85.5970   58.7770 C   0  0  0  0  0  0  0  0  0  0  0  0
   41.0550   86.0510   57.4810 C   0  0  0  0  0  0  0  0  0  0  0  0
   41.6500   85.1990   56.6350 N   0  0  0  0  0  0  0  0  0  0  0  0
   42.0180   83.9500   57.0160 C   0  0  0  0  0  0  0  0  0  0  0  0
   41.8010   83.5020   58.2730 N   0  0  0  0  0  0  0  0  0  0  0  0
   42.0680   81.9660   55.4070 C   0  0  0  0  0  0  0  0  0  0  0  0
   40.8520   81.8010   55.7470 O   0  0  0  0  0  0  0  0  0  0  0  0
   42.6480   83.0830   56.0780 N   0  0  0  0  0  0  0  0  0  0  0  0
   45.3490   84.1540   60.6410 C   0  0  0  0  0  0  0  0  0  0  0  0
   45.7290   85.4870   60.7160 C   0  0  0  0  0  0  0  0  0  0  0  0
   44.7440   86.4350   61.0910 C   0  0  0  0  0  0  0  0  0  0  0  0
   43.5060   85.9790   61.3510 N   0  0  0  0  0  0  0  0  0  0  0  0
   43.1680   84.6610   61.2690 C   0  0  0  0  0  0  0  0  0  0  0  0
   44.0900   83.7750   60.9170 N   0  0  0  0  0  0  0  0  0  0  0  0
   42.1968   84.1051   63.6721 H   0  0  0  0  0  0  0  0  0  0  0  0
   39.9151   83.3593   64.2544 H   0  0  0  0  0  0  0  0  0  0  0  0
   38.2153   83.0457   62.4288 H   0  0  0  0  0  0  0  0  0  0  0  0
   38.8645   83.4989   60.0728 H   0  0  0  0  0  0  0  0  0  0  0  0
   40.3440   86.2613   59.5074 H   0  0  0  0  0  0  0  0  0  0  0  0
   40.7589   87.0624   57.1657 H   0  0  0  0  0  0  0  0  0  0  0  0
   42.6028   81.3285   54.6876 H   0  0  0  0  0  0  0  0  0  0  0  0
   43.6340   83.2855   55.8595 H   0  0  0  0  0  0  0  0  0  0  0  0
   46.0909   83.3955   60.3508 H   0  0  0  0  0  0  0  0  0  0  0  0
   46.7602   85.7974   60.4919 H   0  0  0  0  0  0  0  0  0  0  0  0
   44.9839   87.5058   61.1666 H   0  0  0  0  0  0  0  0  0  0  0  0
  1  2  2  0
  2  3  1  0
  4  3  2  0
  5  4  1  0
  6  5  2  0
  6  1  1  0
  7  6  1  0
  8  7  2  0
  9  8  1  0
 10 11  1  0
 10  9  2  0
 11 12  2  0
 12  7  1  0
 13 14  2  0
 13 15  1  0
 15 11  1  0
 16 17  2  0
 16 21  1  0
 17 18  1  0
 18 19  2  0
 20 19  1  0
 20  1  1  0
 21 20  2  0
  2 22  1  0
  3 23  1  0
  4 24  1  0
  5 25  1  0
  8 26  1  0
  9 27  1  0
 13 28  1  0
 15 29  1  0
 16 30  1  0
 17 31  1  0
 18 32  1  0
M  ISO  8  22  14  23  14  24  14  25  14  26  14  27  14  28   6  30  14
M  ISO  2  31  14  32  14
M  END
>  <minimizedAffinity>  (1) 
-5.71336555

>  <minimizedRMSD>  (1) 
0.164050788

$$$$
