
     RDKit          3D

 40 43  0  0  0  0  0  0  0  0999 V2000
   41.7920   84.1690   61.5550 C   0  0  0  0  0  0  0  0  0  0  0  0
   41.4390   83.8940   62.8710 C   0  0  0  0  0  0  0  0  0  0  0  0
   40.1500   83.5380   63.2150 C   0  0  0  0  0  0  0  0  0  0  0  0
   39.1780   83.4530   62.2200 C   0  0  0  0  0  0  0  0  0  0  0  0
   39.5370   83.7300   60.9000 C   0  0  0  0  0  0  0  0  0  0  0  0
   40.8190   84.0820   60.5720 C   0  0  0  0  0  0  0  0  0  0  0  0
   41.1430   84.3600   59.1900 C   0  0  0  0  0  0  0  0  0  0  0  0
   40.8940   85.7040   58.8640 C   0  0  0  0  0  0  0  0  0  0  0  0
   41.1380   86.1900   57.5770 C   0  0  0  0  0  0  0  0  0  0  0  0
   41.6190   85.3130   56.6740 N   0  0  0  0  0  0  0  0  0  0  0  0
   41.8520   84.0220   57.0050 C   0  0  0  0  0  0  0  0  0  0  0  0
   41.6240   83.5400   58.2330 N   0  0  0  0  0  0  0  0  0  0  0  0
   42.3600   83.0950   56.0530 N   0  0  0  0  0  0  0  0  0  0  0  0
   42.4260   81.6470   56.0590 C   0  0  0  0  0  0  0  0  0  0  0  0
   41.6660   81.3170   54.7920 C   0  0  0  0  0  0  0  0  0  0  0  0
   42.2540   82.3160   53.8180 C   0  0  0  0  0  0  0  0  0  0  0  0
   42.9840   83.2540   54.7550 C   0  0  0  0  0  0  0  0  0  0  0  0
   45.2900   83.9080   60.5260 C   0  0  0  0  0  0  0  0  0  0  0  0
   45.7530   85.2100   60.6680 C   0  0  0  0  0  0  0  0  0  0  0  0
   44.8530   86.2060   61.1250 C   0  0  0  0  0  0  0  0  0  0  0  0
   43.5830   85.8240   61.3990 N   0  0  0  0  0  0  0  0  0  0  0  0
   43.1600   84.5380   61.2500 C   0  0  0  0  0  0  0  0  0  0  0  0
   44.0200   83.6280   60.8220 N   0  0  0  0  0  0  0  0  0  0  0  0
   42.2051   83.9616   63.6575 H   0  0  0  0  0  0  0  0  0  0  0  0
   39.8932   83.3238   64.2629 H   0  0  0  0  0  0  0  0  0  0  0  0
   38.1445   83.1721   62.4709 H   0  0  0  0  0  0  0  0  0  0  0  0
   38.7760   83.6643   60.1085 H   0  0  0  0  0  0  0  0  0  0  0  0
   40.5009   86.3840   59.6341 H   0  0  0  0  0  0  0  0  0  0  0  0
   40.9462   87.2405   57.3129 H   0  0  0  0  0  0  0  0  0  0  0  0
   43.4653   81.2899   56.0111 H   0  0  0  0  0  0  0  0  0  0  0  0
   42.0183   81.1786   56.9669 H   0  0  0  0  0  0  0  0  0  0  0  0
   41.8538   80.2825   54.4688 H   0  0  0  0  0  0  0  0  0  0  0  0
   40.5728   81.3816   54.8952 H   0  0  0  0  0  0  0  0  0  0  0  0
   41.4673   82.8407   53.2560 H   0  0  0  0  0  0  0  0  0  0  0  0
   42.8936   81.8662   53.0443 H   0  0  0  0  0  0  0  0  0  0  0  0
   44.0496   82.9863   54.8088 H   0  0  0  0  0  0  0  0  0  0  0  0
   42.9243   84.2956   54.4064 H   0  0  0  0  0  0  0  0  0  0  0  0
   45.9650   83.1147   60.1724 H   0  0  0  0  0  0  0  0  0  0  0  0
   46.7968   85.4633   60.4307 H   0  0  0  0  0  0  0  0  0  0  0  0
   45.1745   87.2502   61.2522 H   0  0  0  0  0  0  0  0  0  0  0  0
  1  2  2  0
  2  3  1  0
  4  3  2  0
  5  4  1  0
  6  5  2  0
  6  1  1  0
  7  6  1  0
  8  7  2  0
  9  8  1  0
 10 11  1  0
 10  9  2  0
 11 12  2  0
 12  7  1  0
 13 14  1  0
 13 11  1  0
 15 14  1  0
 16 17  1  0
 16 15  1  0
 17 13  1  0
 18 19  2  0
 18 23  1  0
 19 20  1  0
 20 21  2  0
 22 21  1  0
 22  1  1  0
 23 22  2  0
  2 24  1  0
  3 25  1  0
  4 26  1  0
  5 27  1  0
  8 28  1  0
  9 29  1  0
 14 30  1  0
 14 31  1  0
 15 32  1  0
 15 33  1  0
 16 34  1  0
 16 35  1  0
 17 36  1  0
 17 37  1  0
 18 38  1  0
 19 39  1  0
 20 40  1  0
M  ISO  8  24  14  25  14  26  14  27  14  28  14  29  14  30  13  31  13
M  ISO  8  32  13  33  13  34  13  35  13  36  13  37  13  38  14  39  14
M  ISO  1  40  14
M  END
>  <minimizedAffinity>  (1) 
-5.7086134

>  <minimizedRMSD>  (1) 
0.424577951

$$$$
