
     RDKit          3D

 42 45  0  0  0  0  0  0  0  0999 V2000
   41.8040   84.2470   61.5690 C   0  0  0  0  0  0  0  0  0  0  0  0
   41.4680   83.9500   62.8780 C   0  0  0  0  0  0  0  0  0  0  0  0
   40.1960   83.5270   63.2200 C   0  0  0  0  0  0  0  0  0  0  0  0
   39.2320   83.3990   62.2130 C   0  0  0  0  0  0  0  0  0  0  0  0
   39.5800   83.6990   60.8980 C   0  0  0  0  0  0  0  0  0  0  0  0
   40.8420   84.1170   60.5790 C   0  0  0  0  0  0  0  0  0  0  0  0
   41.1560   84.4170   59.2010 C   0  0  0  0  0  0  0  0  0  0  0  0
   40.7220   85.6990   58.8400 C   0  0  0  0  0  0  0  0  0  0  0  0
   40.9320   86.1820   57.5430 C   0  0  0  0  0  0  0  0  0  0  0  0
   41.5600   85.3680   56.6740 N   0  0  0  0  0  0  0  0  0  0  0  0
   41.9760   84.1290   57.0330 C   0  0  0  0  0  0  0  0  0  0  0  0
   41.7770   83.6580   58.2800 N   0  0  0  0  0  0  0  0  0  0  0  0
   42.6430   83.2520   56.1280 N   0  0  0  0  0  0  0  0  0  0  0  0
   41.9520   82.3010   55.2780 C   0  0  0  0  0  0  0  0  0  0  0  0
   42.4910   82.3880   53.8460 C   0  0  0  0  0  0  0  0  0  0  0  0
   43.8390   81.8920   53.9430 N   0  0  0  0  0  0  0  0  0  0  0  0
   44.6380   82.7130   54.7770 C   0  0  0  0  0  0  0  0  0  0  0  0
   44.0600   83.2580   56.0060 C   0  0  0  0  0  0  0  0  0  0  0  0
   45.3320   84.1540   60.6120 C   0  0  0  0  0  0  0  0  0  0  0  0
   45.7180   85.4860   60.6980 C   0  0  0  0  0  0  0  0  0  0  0  0
   44.7560   86.4350   61.0900 C   0  0  0  0  0  0  0  0  0  0  0  0
   43.5030   85.9970   61.3630 N   0  0  0  0  0  0  0  0  0  0  0  0
   43.1570   84.6870   61.2700 C   0  0  0  0  0  0  0  0  0  0  0  0
   44.0740   83.8050   60.8980 N   0  0  0  0  0  0  0  0  0  0  0  0
   42.2298   84.0526   63.6648 H   0  0  0  0  0  0  0  0  0  0  0  0
   39.9462   83.2951   64.2659 H   0  0  0  0  0  0  0  0  0  0  0  0
   38.2125   83.0657   62.4571 H   0  0  0  0  0  0  0  0  0  0  0  0
   38.8267   83.5979   60.1028 H   0  0  0  0  0  0  0  0  0  0  0  0
   40.2120   86.3313   59.5817 H   0  0  0  0  0  0  0  0  0  0  0  0
   40.5972   87.1867   57.2457 H   0  0  0  0  0  0  0  0  0  0  0  0
   42.1108   81.2839   55.6656 H   0  0  0  0  0  0  0  0  0  0  0  0
   40.8773   82.5357   55.2737 H   0  0  0  0  0  0  0  0  0  0  0  0
   42.4833   83.4285   53.4892 H   0  0  0  0  0  0  0  0  0  0  0  0
   41.8822   81.8140   53.1320 H   0  0  0  0  0  0  0  0  0  0  0  0
   43.8173   80.9392   54.3337 H   0  0  0  0  0  0  0  0  0  0  0  0
   45.5144   82.1166   55.0708 H   0  0  0  0  0  0  0  0  0  0  0  0
   44.8307   83.6036   54.1608 H   0  0  0  0  0  0  0  0  0  0  0  0
   44.4648   82.6750   56.8464 H   0  0  0  0  0  0  0  0  0  0  0  0
   44.3341   84.3232   55.9943 H   0  0  0  0  0  0  0  0  0  0  0  0
   46.0608   83.3878   60.3089 H   0  0  0  0  0  0  0  0  0  0  0  0
   46.7491   85.7907   60.4656 H   0  0  0  0  0  0  0  0  0  0  0  0
   45.0135   87.5013   61.1724 H   0  0  0  0  0  0  0  0  0  0  0  0
  1  2  2  0
  2  3  1  0
  4  3  2  0
  5  4  1  0
  6  5  2  0
  6  1  1  0
  7  6  1  0
  8  7  2  0
  9  8  1  0
 10 11  1  0
 10  9  2  0
 11 12  2  0
 12  7  1  0
 13 11  1  0
 14 13  1  0
 15 16  1  0
 15 14  1  0
 16 17  1  0
 17 18  1  0
 18 13  1  0
 19 20  2  0
 19 24  1  0
 20 21  1  0
 21 22  2  0
 23 22  1  0
 23  1  1  0
 24 23  2  0
  2 25  1  0
  3 26  1  0
  4 27  1  0
  5 28  1  0
  8 29  1  0
  9 30  1  0
 14 31  1  0
 14 32  1  0
 15 33  1  0
 15 34  1  0
 16 35  1  0
 17 36  1  0
 17 37  1  0
 18 38  1  0
 18 39  1  0
 19 40  1  0
 20 41  1  0
 21 42  1  0
M  ISO  8  25  14  26  14  27  14  28  14  29  14  30  14  31  13  32  13
M  ISO  8  33  13  34  13  35   5  36  13  37  13  38  13  39  13  40  14
M  ISO  2  41  14  42  14
M  END
>  <minimizedAffinity>  (1) 
-5.69408512

>  <minimizedRMSD>  (1) 
0.234478191

$$$$
