
     RDKit          3D

 44 47  0  0  0  0  0  0  0  0999 V2000
   41.8000   84.1630   61.5660 C   0  0  0  0  0  0  0  0  0  0  0  0
   41.4370   83.8860   62.8800 C   0  0  0  0  0  0  0  0  0  0  0  0
   40.1420   83.5360   63.2170 C   0  0  0  0  0  0  0  0  0  0  0  0
   39.1790   83.4570   62.2260 C   0  0  0  0  0  0  0  0  0  0  0  0
   39.5300   83.7320   60.9110 C   0  0  0  0  0  0  0  0  0  0  0  0
   40.8270   84.0830   60.5720 C   0  0  0  0  0  0  0  0  0  0  0  0
   45.2850   83.8820   60.5070 C   0  0  0  0  0  0  0  0  0  0  0  0
   45.7690   85.1680   60.6690 C   0  0  0  0  0  0  0  0  0  0  0  0
   44.8810   86.1470   61.1510 C   0  0  0  0  0  0  0  0  0  0  0  0
   43.6040   85.7900   61.4320 N   0  0  0  0  0  0  0  0  0  0  0  0
   43.1620   84.5250   61.2620 C   0  0  0  0  0  0  0  0  0  0  0  0
   44.0070   83.5980   60.8050 N   0  0  0  0  0  0  0  0  0  0  0  0
   41.1460   84.3600   59.1920 C   0  0  0  0  0  0  0  0  0  0  0  0
   40.9310   85.7090   58.8760 C   0  0  0  0  0  0  0  0  0  0  0  0
   41.1810   86.1780   57.5860 C   0  0  0  0  0  0  0  0  0  0  0  0
   41.6280   85.2910   56.6820 N   0  0  0  0  0  0  0  0  0  0  0  0
   41.8340   83.9890   56.9990 C   0  0  0  0  0  0  0  0  0  0  0  0
   41.5930   83.5380   58.2360 N   0  0  0  0  0  0  0  0  0  0  0  0
   42.3300   83.0470   55.9600 C   0  0  0  0  0  0  0  0  0  0  0  0
   41.3980   81.8550   55.8110 C   0  0  0  0  0  0  0  0  0  0  0  0
   42.1530   80.8350   54.9790 C   0  0  0  0  0  0  0  0  0  0  0  0
   42.3020   81.4560   53.5900 C   0  0  0  0  0  0  0  0  0  0  0  0
   43.0770   82.7360   53.6570 C   0  0  0  0  0  0  0  0  0  0  0  0
   42.5270   83.7330   54.6330 C   0  0  0  0  0  0  0  0  0  0  0  0
   42.1990   83.9468   63.6709 H   0  0  0  0  0  0  0  0  0  0  0  0
   39.8797   83.3223   64.2637 H   0  0  0  0  0  0  0  0  0  0  0  0
   38.1450   83.1789   62.4779 H   0  0  0  0  0  0  0  0  0  0  0  0
   38.7643   83.6701   60.1237 H   0  0  0  0  0  0  0  0  0  0  0  0
   45.9496   83.0894   60.1327 H   0  0  0  0  0  0  0  0  0  0  0  0
   46.8133   85.4167   60.4289 H   0  0  0  0  0  0  0  0  0  0  0  0
   45.2172   87.1841   61.2973 H   0  0  0  0  0  0  0  0  0  0  0  0
   40.5636   86.4006   59.6485 H   0  0  0  0  0  0  0  0  0  0  0  0
   41.0184   87.2328   57.3198 H   0  0  0  0  0  0  0  0  0  0  0  0
   43.3110   82.6808   56.2970 H   0  0  0  0  0  0  0  0  0  0  0  0
   41.1521   81.4364   56.7981 H   0  0  0  0  0  0  0  0  0  0  0  0
   40.4498   82.1423   55.3331 H   0  0  0  0  0  0  0  0  0  0  0  0
   43.1421   80.6390   55.4187 H   0  0  0  0  0  0  0  0  0  0  0  0
   41.6201   79.8737   54.9368 H   0  0  0  0  0  0  0  0  0  0  0  0
   41.3028   81.6611   53.1782 H   0  0  0  0  0  0  0  0  0  0  0  0
   42.8456   80.7494   52.9456 H   0  0  0  0  0  0  0  0  0  0  0  0
   44.1105   82.4994   53.9500 H   0  0  0  0  0  0  0  0  0  0  0  0
   43.0137   83.1983   52.6609 H   0  0  0  0  0  0  0  0  0  0  0  0
   43.2341   84.5677   54.7485 H   0  0  0  0  0  0  0  0  0  0  0  0
   41.5675   84.1275   54.2673 H   0  0  0  0  0  0  0  0  0  0  0  0
  1  2  2  0
  2  3  1  0
  4  3  2  0
  5  4  1  0
  6  5  2  0
  6  1  1  0
  7  8  2  0
  7 12  1  0
  8  9  1  0
  9 10  2  0
 11 10  1  0
 11  1  1  0
 12 11  2  0
 13  6  1  0
 14 13  2  0
 15 14  1  0
 16 17  1  0
 16 15  2  0
 17 18  2  0
 18 13  1  0
 19 17  1  0
 20 19  1  0
 21 20  1  0
 22 23  1  0
 22 21  1  0
 23 24  1  0
 24 19  1  0
  2 25  1  0
  3 26  1  0
  4 27  1  0
  5 28  1  0
  7 29  1  0
  8 30  1  0
  9 31  1  0
 14 32  1  0
 15 33  1  0
 19 34  1  0
 20 35  1  0
 20 36  1  0
 21 37  1  0
 21 38  1  0
 22 39  1  0
 22 40  1  0
 23 41  1  0
 23 42  1  0
 24 43  1  0
 24 44  1  0
M  ISO  8  25  14  26  14  27  14  28  14  29  14  30  14  31  14  32  14
M  ISO  8  33  14  34  13  35  13  36  13  37  13  38  13  39  13  40  13
M  ISO  4  41  13  42  13  43  13  44  13
M  END
>  <minimizedAffinity>  (1) 
-5.64997005

>  <minimizedRMSD>  (1) 
0.850501418

$$$$
