
     RDKit          3D

 38 41  0  0  0  0  0  0  0  0999 V2000
   41.8350   84.2360   61.5690 C   0  0  0  0  0  0  0  0  0  0  0  0
   41.4820   83.9750   62.8970 C   0  0  0  0  0  0  0  0  0  0  0  0
   40.2130   83.5550   63.2460 C   0  0  0  0  0  0  0  0  0  0  0  0
   39.2530   83.3850   62.2430 C   0  0  0  0  0  0  0  0  0  0  0  0
   39.6060   83.6470   60.9130 C   0  0  0  0  0  0  0  0  0  0  0  0
   40.8800   84.0650   60.5860 C   0  0  0  0  0  0  0  0  0  0  0  0
   45.3520   84.1680   60.6150 C   0  0  0  0  0  0  0  0  0  0  0  0
   45.7300   85.4950   60.7020 C   0  0  0  0  0  0  0  0  0  0  0  0
   44.7630   86.4340   61.0940 C   0  0  0  0  0  0  0  0  0  0  0  0
   43.5140   85.9820   61.3640 N   0  0  0  0  0  0  0  0  0  0  0  0
   43.1730   84.6720   61.2710 C   0  0  0  0  0  0  0  0  0  0  0  0
   44.0910   83.7970   60.9010 N   0  0  0  0  0  0  0  0  0  0  0  0
   41.1950   84.3230   59.1940 C   0  0  0  0  0  0  0  0  0  0  0  0
   40.8210   85.6240   58.8280 C   0  0  0  0  0  0  0  0  0  0  0  0
   41.0420   86.0690   57.5220 C   0  0  0  0  0  0  0  0  0  0  0  0
   41.6070   85.2230   56.6650 N   0  0  0  0  0  0  0  0  0  0  0  0
   41.9670   83.9550   57.0340 C   0  0  0  0  0  0  0  0  0  0  0  0
   41.7620   83.5110   58.2850 N   0  0  0  0  0  0  0  0  0  0  0  0
   40.5560   81.8300   56.0350 F   0  0  0  0  0  0  0  0  0  0  0  0
   41.8490   81.9920   55.6010 C   0  0  0  0  0  0  0  0  0  0  0  0
   42.5760   83.0560   56.0930 C   0  0  0  0  0  0  0  0  0  0  0  0
   43.8640   83.1510   55.6100 C   0  0  0  0  0  0  0  0  0  0  0  0
   44.3850   82.2430   54.7000 C   0  0  0  0  0  0  0  0  0  0  0  0
   43.6030   81.1950   54.2450 C   0  0  0  0  0  0  0  0  0  0  0  0
   42.3070   81.0560   54.6970 C   0  0  0  0  0  0  0  0  0  0  0  0
   42.2366   84.1080   63.6863 H   0  0  0  0  0  0  0  0  0  0  0  0
   39.9610   83.3570   64.2983 H   0  0  0  0  0  0  0  0  0  0  0  0
   38.2358   83.0505   62.4949 H   0  0  0  0  0  0  0  0  0  0  0  0
   38.8570   83.5177   60.1178 H   0  0  0  0  0  0  0  0  0  0  0  0
   46.0880   83.4097   60.3096 H   0  0  0  0  0  0  0  0  0  0  0  0
   46.7594   85.8062   60.4706 H   0  0  0  0  0  0  0  0  0  0  0  0
   45.0109   87.5023   61.1793 H   0  0  0  0  0  0  0  0  0  0  0  0
   40.3549   86.2924   59.5670 H   0  0  0  0  0  0  0  0  0  0  0  0
   40.7580   87.0857   57.2127 H   0  0  0  0  0  0  0  0  0  0  0  0
   44.5014   83.9768   55.9590 H   0  0  0  0  0  0  0  0  0  0  0  0
   45.4184   82.3555   54.3402 H   0  0  0  0  0  0  0  0  0  0  0  0
   44.0147   80.4738   53.5237 H   0  0  0  0  0  0  0  0  0  0  0  0
   41.6651   80.2325   54.3507 H   0  0  0  0  0  0  0  0  0  0  0  0
  1  2  2  0
  2  3  1  0
  4  3  2  0
  5  4  1  0
  6  5  2  0
  6  1  1  0
  7  8  2  0
  7 12  1  0
  8  9  1  0
  9 10  2  0
 11 10  1  0
 11  1  1  0
 12 11  2  0
 13  6  1  0
 14 13  2  0
 15 14  1  0
 16 17  1  0
 16 15  2  0
 17 18  2  0
 18 13  1  0
 20 19  1  0
 20 21  2  0
 21 17  1  0
 22 21  1  0
 23 22  2  0
 24 25  2  0
 24 23  1  0
 25 20  1  0
  2 26  1  0
  3 27  1  0
  4 28  1  0
  5 29  1  0
  7 30  1  0
  8 31  1  0
  9 32  1  0
 14 33  1  0
 15 34  1  0
 22 35  1  0
 23 36  1  0
 24 37  1  0
 25 38  1  0
M  ISO  8  26  14  27  14  28  14  29  14  30  14  31  14  32  14  33  14
M  ISO  5  34  14  35  14  36  14  37  14  38  14
M  END
>  <minimizedAffinity>  (1) 
-5.64223766

>  <minimizedRMSD>  (1) 
0.774782956

$$$$
