
     RDKit          3D

 38 41  0  0  0  0  0  0  0  0999 V2000
   41.8170   84.2330   61.5670 C   0  0  0  0  0  0  0  0  0  0  0  0
   41.4700   83.9670   62.8870 C   0  0  0  0  0  0  0  0  0  0  0  0
   40.1990   83.5500   63.2480 C   0  0  0  0  0  0  0  0  0  0  0  0
   39.2460   83.3940   62.2480 C   0  0  0  0  0  0  0  0  0  0  0  0
   39.5860   83.6600   60.9190 C   0  0  0  0  0  0  0  0  0  0  0  0
   40.8460   84.0710   60.5840 C   0  0  0  0  0  0  0  0  0  0  0  0
   45.3180   84.1490   60.5430 C   0  0  0  0  0  0  0  0  0  0  0  0
   45.7170   85.4650   60.6790 C   0  0  0  0  0  0  0  0  0  0  0  0
   44.7690   86.4100   61.1320 C   0  0  0  0  0  0  0  0  0  0  0  0
   43.5250   85.9660   61.4060 N   0  0  0  0  0  0  0  0  0  0  0  0
   43.1600   84.6660   61.2630 C   0  0  0  0  0  0  0  0  0  0  0  0
   44.0570   83.7740   60.8340 N   0  0  0  0  0  0  0  0  0  0  0  0
   41.1620   84.3370   59.1980 C   0  0  0  0  0  0  0  0  0  0  0  0
   40.9170   85.6740   58.8600 C   0  0  0  0  0  0  0  0  0  0  0  0
   41.1580   86.1370   57.5660 C   0  0  0  0  0  0  0  0  0  0  0  0
   41.6270   85.2540   56.6820 N   0  0  0  0  0  0  0  0  0  0  0  0
   41.8650   83.9560   57.0040 C   0  0  0  0  0  0  0  0  0  0  0  0
   41.6310   83.5080   58.2600 N   0  0  0  0  0  0  0  0  0  0  0  0
   42.3810   82.9980   56.0200 C   0  0  0  0  0  0  0  0  0  0  0  0
   41.5570   81.9210   55.6730 C   0  0  0  0  0  0  0  0  0  0  0  0
   42.0780   81.0410   54.7420 C   0  0  0  0  0  0  0  0  0  0  0  0
   43.3260   81.1940   54.1790 C   0  0  0  0  0  0  0  0  0  0  0  0
   44.1160   82.2680   54.5400 C   0  0  0  0  0  0  0  0  0  0  0  0
   43.6270   83.1470   55.4520 C   0  0  0  0  0  0  0  0  0  0  0  0
   42.2308   84.0919   63.6716 H   0  0  0  0  0  0  0  0  0  0  0  0
   39.9501   83.3473   64.3001 H   0  0  0  0  0  0  0  0  0  0  0  0
   38.2283   83.0625   62.5019 H   0  0  0  0  0  0  0  0  0  0  0  0
   38.8286   83.5369   60.1308 H   0  0  0  0  0  0  0  0  0  0  0  0
   46.0401   83.3970   60.1922 H   0  0  0  0  0  0  0  0  0  0  0  0
   46.7468   85.7694   60.4406 H   0  0  0  0  0  0  0  0  0  0  0  0
   45.0359   87.4698   61.2567 H   0  0  0  0  0  0  0  0  0  0  0  0
   40.5306   86.3662   59.6226 H   0  0  0  0  0  0  0  0  0  0  0  0
   40.9696   87.1841   57.2867 H   0  0  0  0  0  0  0  0  0  0  0  0
   40.5583   81.7833   56.1130 H   0  0  0  0  0  0  0  0  0  0  0  0
   41.4673   80.1785   54.4367 H   0  0  0  0  0  0  0  0  0  0  0  0
   43.6925   80.4626   53.4437 H   0  0  0  0  0  0  0  0  0  0  0  0
   45.1146   82.4074   54.1004 H   0  0  0  0  0  0  0  0  0  0  0  0
   44.2465   84.0067   55.7471 H   0  0  0  0  0  0  0  0  0  0  0  0
  1  2  2  0
  2  3  1  0
  4  3  2  0
  5  4  1  0
  6  5  2  0
  6  1  1  0
  7  8  2  0
  7 12  1  0
  8  9  1  0
  9 10  2  0
 11 10  1  0
 11  1  1  0
 12 11  2  0
 13  6  1  0
 14 13  2  0
 15 14  1  0
 16 17  1  0
 16 15  2  0
 17 18  2  0
 18 13  1  0
 19 17  1  0
 20 19  2  0
 21 20  1  0
 22 23  1  0
 22 21  2  0
 23 24  2  0
 24 19  1  0
  2 25  1  0
  3 26  1  0
  4 27  1  0
  5 28  1  0
  7 29  1  0
  8 30  1  0
  9 31  1  0
 14 32  1  0
 15 33  1  0
 20 34  1  0
 21 35  1  0
 22 36  1  0
 23 37  1  0
 24 38  1  0
M  ISO  8  25  14  26  14  27  14  28  14  29  14  30  14  31  14  32  14
M  ISO  6  33  14  34  14  35  14  36  14  37  14  38  14
M  END
>  <minimizedAffinity>  (1) 
-5.50415897

>  <minimizedRMSD>  (1) 
0.497614056

$$$$
