
     RDKit          3D

 31 33  0  0  0  0  0  0  0  0999 V2000
   41.7960   84.1480   61.5520 C   0  0  0  0  0  0  0  0  0  0  0  0
   41.4460   83.8780   62.8650 C   0  0  0  0  0  0  0  0  0  0  0  0
   40.1540   83.5390   63.2200 C   0  0  0  0  0  0  0  0  0  0  0  0
   39.1830   83.4680   62.2280 C   0  0  0  0  0  0  0  0  0  0  0  0
   39.5250   83.7380   60.9010 C   0  0  0  0  0  0  0  0  0  0  0  0
   40.8200   84.0750   60.5670 C   0  0  0  0  0  0  0  0  0  0  0  0
   45.2760   83.8880   60.4690 C   0  0  0  0  0  0  0  0  0  0  0  0
   45.7670   85.1740   60.6590 C   0  0  0  0  0  0  0  0  0  0  0  0
   44.8880   86.1470   61.1670 C   0  0  0  0  0  0  0  0  0  0  0  0
   43.6160   85.7780   61.4430 N   0  0  0  0  0  0  0  0  0  0  0  0
   43.1700   84.5000   61.2420 C   0  0  0  0  0  0  0  0  0  0  0  0
   44.0020   83.5930   60.7640 N   0  0  0  0  0  0  0  0  0  0  0  0
   41.1440   84.3490   59.1880 C   0  0  0  0  0  0  0  0  0  0  0  0
   41.0230   85.7130   58.8850 C   0  0  0  0  0  0  0  0  0  0  0  0
   41.2870   86.1950   57.6100 C   0  0  0  0  0  0  0  0  0  0  0  0
   41.6660   85.2910   56.6810 N   0  0  0  0  0  0  0  0  0  0  0  0
   41.7800   83.9770   56.9810 C   0  0  0  0  0  0  0  0  0  0  0  0
   41.5240   83.5180   58.2100 N   0  0  0  0  0  0  0  0  0  0  0  0
   42.2000   83.0190   55.9220 C   0  0  0  0  0  0  0  0  0  0  0  0
   43.4470   82.4800   56.1460 F   0  0  0  0  0  0  0  0  0  0  0  0
   41.2240   82.0720   55.7010 F   0  0  0  0  0  0  0  0  0  0  0  0
   42.3120   83.7230   54.7160 F   0  0  0  0  0  0  0  0  0  0  0  0
   42.2178   83.9350   63.6467 H   0  0  0  0  0  0  0  0  0  0  0  0
   39.8987   83.3291   64.2692 H   0  0  0  0  0  0  0  0  0  0  0  0
   38.1482   83.1999   62.4873 H   0  0  0  0  0  0  0  0  0  0  0  0
   38.7559   83.6815   60.1166 H   0  0  0  0  0  0  0  0  0  0  0  0
   45.9389   83.1047   60.0728 H   0  0  0  0  0  0  0  0  0  0  0  0
   46.8113   85.4232   60.4194 H   0  0  0  0  0  0  0  0  0  0  0  0
   45.2255   87.1803   61.3354 H   0  0  0  0  0  0  0  0  0  0  0  0
   40.7128   86.4149   59.6731 H   0  0  0  0  0  0  0  0  0  0  0  0
   41.1919   87.2638   57.3677 H   0  0  0  0  0  0  0  0  0  0  0  0
  1  2  2  0
  2  3  1  0
  4  3  2  0
  5  4  1  0
  6  5  2  0
  6  1  1  0
  7  8  2  0
  7 12  1  0
  8  9  1  0
  9 10  2  0
 11 10  1  0
 11  1  1  0
 12 11  2  0
 13  6  1  0
 14 13  2  0
 15 14  1  0
 16 17  1  0
 16 15  2  0
 17 18  2  0
 18 13  1  0
 19 20  1  0
 19 17  1  0
 21 19  1  0
 22 19  1  0
  2 23  1  0
  3 24  1  0
  4 25  1  0
  5 26  1  0
  7 27  1  0
  8 28  1  0
  9 29  1  0
 14 30  1  0
 15 31  1  0
M  ISO  8  23  14  24  14  25  14  26  14  27  14  28  14  29  14  30  14
M  ISO  1  31  14
M  END
>  <minimizedAffinity>  (1) 
-5.4265976

>  <minimizedRMSD>  (1) 
0.462354243

$$$$
