
     RDKit          3D

 35 38  0  0  0  0  0  0  0  0999 V2000
   41.8090   84.2400   61.5630 C   0  0  0  0  0  0  0  0  0  0  0  0
   41.4420   83.9440   62.8670 C   0  0  0  0  0  0  0  0  0  0  0  0
   40.1590   83.5330   63.1930 C   0  0  0  0  0  0  0  0  0  0  0  0
   39.2110   83.4160   62.1810 C   0  0  0  0  0  0  0  0  0  0  0  0
   39.5710   83.7110   60.8650 C   0  0  0  0  0  0  0  0  0  0  0  0
   40.8480   84.1160   60.5610 C   0  0  0  0  0  0  0  0  0  0  0  0
   45.3430   84.1340   60.6750 C   0  0  0  0  0  0  0  0  0  0  0  0
   45.7380   85.4570   60.7450 C   0  0  0  0  0  0  0  0  0  0  0  0
   44.7600   86.4160   61.1090 C   0  0  0  0  0  0  0  0  0  0  0  0
   43.4990   85.9830   61.3660 N   0  0  0  0  0  0  0  0  0  0  0  0
   43.1600   84.6630   61.2820 C   0  0  0  0  0  0  0  0  0  0  0  0
   44.0820   83.7700   60.9400 N   0  0  0  0  0  0  0  0  0  0  0  0
   41.1780   84.4130   59.1850 C   0  0  0  0  0  0  0  0  0  0  0  0
   40.7410   85.6760   58.8040 C   0  0  0  0  0  0  0  0  0  0  0  0
   40.9570   86.1600   57.5180 C   0  0  0  0  0  0  0  0  0  0  0  0
   41.6080   85.3490   56.6610 N   0  0  0  0  0  0  0  0  0  0  0  0
   42.0320   84.1170   57.0360 C   0  0  0  0  0  0  0  0  0  0  0  0
   41.8260   83.6440   58.2800 N   0  0  0  0  0  0  0  0  0  0  0  0
   42.7460   83.2510   56.0670 C   0  0  0  0  0  0  0  0  0  0  0  0
   42.4750   83.5680   54.5960 C   0  0  0  0  0  0  0  0  0  0  0  0
   42.0600   82.2900   55.2080 C   0  0  0  0  0  0  0  0  0  0  0  0
   42.1915   84.0382   63.6667 H   0  0  0  0  0  0  0  0  0  0  0  0
   39.8943   83.3029   64.2356 H   0  0  0  0  0  0  0  0  0  0  0  0
   38.1860   83.0936   62.4163 H   0  0  0  0  0  0  0  0  0  0  0  0
   38.8241   83.6182   60.0628 H   0  0  0  0  0  0  0  0  0  0  0  0
   46.0789   83.3655   60.3962 H   0  0  0  0  0  0  0  0  0  0  0  0
   46.7741   85.7546   60.5261 H   0  0  0  0  0  0  0  0  0  0  0  0
   45.0159   87.4834   61.1814 H   0  0  0  0  0  0  0  0  0  0  0  0
   40.2131   86.3062   59.5349 H   0  0  0  0  0  0  0  0  0  0  0  0
   40.6121   87.1594   57.2143 H   0  0  0  0  0  0  0  0  0  0  0  0
   43.6035   83.1498   56.7485 H   0  0  0  0  0  0  0  0  0  0  0  0
   43.3028   83.5939   53.8720 H   0  0  0  0  0  0  0  0  0  0  0  0
   41.9752   84.3765   54.0424 H   0  0  0  0  0  0  0  0  0  0  0  0
   40.9907   82.0871   55.3673 H   0  0  0  0  0  0  0  0  0  0  0  0
   42.2345   81.2334   54.9566 H   0  0  0  0  0  0  0  0  0  0  0  0
  1  2  2  0
  2  3  1  0
  4  3  2  0
  5  4  1  0
  6  5  2  0
  6  1  1  0
  7  8  2  0
  7 12  1  0
  8  9  1  0
  9 10  2  0
 11 10  1  0
 11  1  1  0
 12 11  2  0
 13  6  1  0
 14 13  2  0
 15 14  1  0
 16 17  1  0
 16 15  2  0
 17 18  2  0
 18 13  1  0
 19 17  1  0
 20 21  1  0
 20 19  1  0
 21 19  1  0
  2 22  1  0
  3 23  1  0
  4 24  1  0
  5 25  1  0
  7 26  1  0
  8 27  1  0
  9 28  1  0
 14 29  1  0
 15 30  1  0
 19 31  1  0
 20 32  1  0
 20 33  1  0
 21 34  1  0
 21 35  1  0
M  ISO  8  22  14  23  14  24  14  25  14  26  14  27  14  28  14  29  14
M  ISO  6  30  14  31  13  32  13  33  13  34  13  35  13
M  END
>  <minimizedAffinity>  (1) 
-5.39609003

>  <minimizedRMSD>  (1) 
0.231621131

$$$$
