
     RDKit          3D

 29 31  0  0  0  0  0  0  0  0999 V2000
   41.8190   84.2300   61.5740 C   0  0  0  0  0  0  0  0  0  0  0  0
   41.4470   83.9670   62.8850 C   0  0  0  0  0  0  0  0  0  0  0  0
   40.1500   83.5600   63.2030 C   0  0  0  0  0  0  0  0  0  0  0  0
   39.2230   83.4210   62.1760 C   0  0  0  0  0  0  0  0  0  0  0  0
   39.6060   83.6880   60.8600 C   0  0  0  0  0  0  0  0  0  0  0  0
   40.8830   84.0850   60.5670 C   0  0  0  0  0  0  0  0  0  0  0  0
   45.3800   84.1190   60.7500 C   0  0  0  0  0  0  0  0  0  0  0  0
   45.7490   85.4600   60.7870 C   0  0  0  0  0  0  0  0  0  0  0  0
   44.7680   86.4180   61.0970 C   0  0  0  0  0  0  0  0  0  0  0  0
   43.5100   85.9770   61.3450 N   0  0  0  0  0  0  0  0  0  0  0  0
   43.1840   84.6510   61.3000 C   0  0  0  0  0  0  0  0  0  0  0  0
   44.1110   83.7540   61.0070 N   0  0  0  0  0  0  0  0  0  0  0  0
   41.2310   84.3500   59.1890 C   0  0  0  0  0  0  0  0  0  0  0  0
   40.7740   85.6070   58.7720 C   0  0  0  0  0  0  0  0  0  0  0  0
   41.0120   86.0470   57.4720 C   0  0  0  0  0  0  0  0  0  0  0  0
   41.6850   85.2260   56.6530 N   0  0  0  0  0  0  0  0  0  0  0  0
   42.1290   84.0040   57.0600 C   0  0  0  0  0  0  0  0  0  0  0  0
   41.9020   83.5780   58.3090 N   0  0  0  0  0  0  0  0  0  0  0  0
   42.8250   83.1700   56.1940 O   0  0  0  0  0  0  0  0  0  0  0  0
   42.1887   84.0815   63.6893 H   0  0  0  0  0  0  0  0  0  0  0  0
   39.8669   83.3533   64.2457 H   0  0  0  0  0  0  0  0  0  0  0  0
   38.1940   83.1026   62.3989 H   0  0  0  0  0  0  0  0  0  0  0  0
   38.8720   83.5779   60.0481 H   0  0  0  0  0  0  0  0  0  0  0  0
   46.1309   83.3522   60.5090 H   0  0  0  0  0  0  0  0  0  0  0  0
   46.7854   85.7639   60.5783 H   0  0  0  0  0  0  0  0  0  0  0  0
   45.0128   87.4897   61.1370 H   0  0  0  0  0  0  0  0  0  0  0  0
   40.2242   86.2500   59.4751 H   0  0  0  0  0  0  0  0  0  0  0  0
   40.6608   87.0317   57.1299 H   0  0  0  0  0  0  0  0  0  0  0  0
   43.1407   82.2850   56.5059 H   0  0  0  0  0  0  0  0  0  0  0  0
  1  2  2  0
  2  3  1  0
  4  3  2  0
  5  4  1  0
  6  5  2  0
  6  1  1  0
  7  8  2  0
  7 12  1  0
  8  9  1  0
  9 10  2  0
 11 10  1  0
 11  1  1  0
 12 11  2  0
 13  6  1  0
 14 13  2  0
 15 14  1  0
 16 17  1  0
 16 15  2  0
 17 18  2  0
 18 13  1  0
 19 17  1  0
  2 20  1  0
  3 21  1  0
  4 22  1  0
  5 23  1  0
  7 24  1  0
  8 25  1  0
  9 26  1  0
 14 27  1  0
 15 28  1  0
 19 29  1  0
M  ISO  8  20  14  21  14  22  14  23  14  24  14  25  14  26  14  27  14
M  ISO  2  28  14  29   3
M  END
>  <minimizedAffinity>  (1) 
-5.29526186

>  <minimizedRMSD>  (1) 
0.0355170369

$$$$
