
     RDKit          3D

 47 51  0  0  0  0  0  0  0  0999 V2000
   40.6050   81.8530   57.1020 C   0  0  0  0  0  0  0  0  0  0  0  0
   41.6580   82.4520   56.3840 C   0  0  0  0  0  0  0  0  0  0  0  0
   42.4390   83.3600   57.0600 C   0  0  0  0  0  0  0  0  0  0  0  0
   42.1880   83.6540   58.3770 N   0  0  0  0  0  0  0  0  0  0  0  0
   41.1590   83.0470   59.0320 C   0  0  0  0  0  0  0  0  0  0  0  0
   40.3610   82.1440   58.3950 N   0  0  0  0  0  0  0  0  0  0  0  0
   39.6330   83.1190   60.9410 C   0  0  0  0  0  0  0  0  0  0  0  0
   40.9180   83.3330   60.4390 C   0  0  0  0  0  0  0  0  0  0  0  0
   41.9480   83.7920   61.2620 C   0  0  0  0  0  0  0  0  0  0  0  0
   41.7310   84.0490   62.6050 C   0  0  0  0  0  0  0  0  0  0  0  0
   42.4580   84.4810   63.6450 N   0  0  0  0  0  0  0  0  0  0  0  0
   41.6940   84.5430   64.7590 C   0  0  0  0  0  0  0  0  0  0  0  0
   40.4730   84.1340   64.3600 N   0  0  0  0  0  0  0  0  0  0  0  0
   40.4620   83.8260   63.0500 C   0  0  0  0  0  0  0  0  0  0  0  0
   39.3940   83.3740   62.2960 C   0  0  0  0  0  0  0  0  0  0  0  0
   42.4760   83.1460   54.0890 Cl  0  0  0  0  0  0  0  0  0  0  0  0
   43.6880   84.0130   55.0320 C   0  0  0  0  0  0  0  0  0  0  0  0
   43.5340   84.0300   56.3960 C   0  0  0  0  0  0  0  0  0  0  0  0
   44.5220   84.7480   57.0650 C   0  0  0  0  0  0  0  0  0  0  0  0
   45.5690   85.3910   56.4400 C   0  0  0  0  0  0  0  0  0  0  0  0
   45.6620   85.3300   55.0540 C   0  0  0  0  0  0  0  0  0  0  0  0
   46.9730   86.1300   54.2290 Cl  0  0  0  0  0  0  0  0  0  0  0  0
   44.7070   84.6320   54.3530 C   0  0  0  0  0  0  0  0  0  0  0  0
   44.7630   84.5430   52.9340 N   0  0  0  0  0  0  0  0  0  0  0  0
   45.4580   83.3590   52.4850 C   0  0  0  0  0  0  0  0  0  0  0  0
   45.0590   83.1590   51.0170 C   0  0  0  0  0  0  0  0  0  0  0  0
   43.6510   83.3980   50.8660 N   0  0  0  0  0  0  0  0  0  0  0  0
   43.2360   84.7470   51.1080 C   0  0  0  0  0  0  0  0  0  0  0  0
   44.2180   85.4790   51.9690 C   0  0  0  0  0  0  0  0  0  0  0  0
   39.9602   81.1233   56.5904 H   0  0  0  0  0  0  0  0  0  0  0  0
   41.8475   82.2046   55.3291 H   0  0  0  0  0  0  0  0  0  0  0  0
   38.8264   82.7580   60.2860 H   0  0  0  0  0  0  0  0  0  0  0  0
   42.9494   83.9523   60.8360 H   0  0  0  0  0  0  0  0  0  0  0  0
   43.4565   84.7302   63.6018 H   0  0  0  0  0  0  0  0  0  0  0  0
   42.0009   84.8575   65.7674 H   0  0  0  0  0  0  0  0  0  0  0  0
   38.4001   83.2217   62.7421 H   0  0  0  0  0  0  0  0  0  0  0  0
   44.4632   84.8057   58.1619 H   0  0  0  0  0  0  0  0  0  0  0  0
   46.3177   85.9427   57.0274 H   0  0  0  0  0  0  0  0  0  0  0  0
   46.5456   83.5006   52.5686 H   0  0  0  0  0  0  0  0  0  0  0  0
   45.1929   82.4830   53.0953 H   0  0  0  0  0  0  0  0  0  0  0  0
   45.6201   83.8634   50.3854 H   0  0  0  0  0  0  0  0  0  0  0  0
   45.2903   82.1278   50.7117 H   0  0  0  0  0  0  0  0  0  0  0  0
   43.3867   83.1507   49.9017 H   0  0  0  0  0  0  0  0  0  0  0  0
   43.1453   85.2709   50.1450 H   0  0  0  0  0  0  0  0  0  0  0  0
   42.2698   84.7211   51.6332 H   0  0  0  0  0  0  0  0  0  0  0  0
   45.0285   85.8854   51.3461 H   0  0  0  0  0  0  0  0  0  0  0  0
   43.7207   86.3119   52.4876 H   0  0  0  0  0  0  0  0  0  0  0  0
  1  6  2  0
  2  3  2  0
  2  1  1  0
  3  4  1  0
  4  5  2  0
  5  8  1  0
  6  5  1  0
  7 15  2  0
  8  7  1  0
  8  9  2  0
  9 10  1  0
 10 14  2  0
 10 11  1  0
 11 12  1  0
 13 12  2  0
 14 13  1  0
 15 14  1  0
 16 17  1  0
 17 18  2  0
 18  3  1  0
 18 19  1  0
 20 19  2  0
 21 20  1  0
 22 21  1  0
 23 17  1  0
 23 21  2  0
 24 23  1  0
 25 24  1  0
 26 25  1  0
 27 26  1  0
 27 28  1  0
 28 29  1  0
 29 24  1  0
  1 30  1  0
  2 31  1  0
  7 32  1  0
  9 33  1  0
 11 34  1  0
 12 35  1  0
 15 36  1  0
 19 37  1  0
 20 38  1  0
 25 39  1  0
 25 40  1  0
 26 41  1  0
 26 42  1  0
 27 43  1  0
 28 44  1  0
 28 45  1  0
 29 46  1  0
 29 47  1  0
M  ISO  8  30  14  31  14  32  14  33  14  34   9  35  14  36  14  37  14
M  ISO  8  38  14  39  13  40  13  41  13  42  13  43   5  44  13  45  13
M  ISO  2  46  13  47  13
M  END
>  <minimizedAffinity>  (1) 
-5.13921833

>  <minimizedRMSD>  (1) 
1.09297013

$$$$
