
     RDKit          3D

 46 50  0  0  0  0  0  0  0  0999 V2000
   40.6740   81.8160   57.0900 C   0  0  0  0  0  0  0  0  0  0  0  0
   41.7660   82.3660   56.3970 C   0  0  0  0  0  0  0  0  0  0  0  0
   42.5690   83.2460   57.0800 C   0  0  0  0  0  0  0  0  0  0  0  0
   42.2980   83.5560   58.3820 N   0  0  0  0  0  0  0  0  0  0  0  0
   41.2350   83.0030   59.0230 C   0  0  0  0  0  0  0  0  0  0  0  0
   40.4130   82.1290   58.3810 N   0  0  0  0  0  0  0  0  0  0  0  0
   39.6790   83.1130   60.9050 C   0  0  0  0  0  0  0  0  0  0  0  0
   40.9750   83.3080   60.4230 C   0  0  0  0  0  0  0  0  0  0  0  0
   42.0020   83.7600   61.2550 C   0  0  0  0  0  0  0  0  0  0  0  0
   41.7690   84.0300   62.5940 C   0  0  0  0  0  0  0  0  0  0  0  0
   42.4710   84.4550   63.6550 N   0  0  0  0  0  0  0  0  0  0  0  0
   41.6980   84.5330   64.7450 C   0  0  0  0  0  0  0  0  0  0  0  0
   40.4620   84.1350   64.3300 N   0  0  0  0  0  0  0  0  0  0  0  0
   40.4910   83.8260   63.0230 C   0  0  0  0  0  0  0  0  0  0  0  0
   39.4220   83.3810   62.2540 C   0  0  0  0  0  0  0  0  0  0  0  0
   42.4250   83.4460   54.1110 Cl  0  0  0  0  0  0  0  0  0  0  0  0
   43.7810   84.0210   55.0750 C   0  0  0  0  0  0  0  0  0  0  0  0
   43.7060   83.8650   56.4360 C   0  0  0  0  0  0  0  0  0  0  0  0
   44.8130   84.3590   57.1230 C   0  0  0  0  0  0  0  0  0  0  0  0
   45.8990   84.9530   56.5170 C   0  0  0  0  0  0  0  0  0  0  0  0
   45.9100   85.0780   55.1340 C   0  0  0  0  0  0  0  0  0  0  0  0
   47.2590   85.8210   54.3150 Cl  0  0  0  0  0  0  0  0  0  0  0  0
   44.8400   84.6060   54.4150 C   0  0  0  0  0  0  0  0  0  0  0  0
   44.8290   84.7230   52.9960 N   0  0  0  0  0  0  0  0  0  0  0  0
   44.3280   85.9310   52.4120 C   0  0  0  0  0  0  0  0  0  0  0  0
   44.0940   85.6800   50.9350 C   0  0  0  0  0  0  0  0  0  0  0  0
   43.6500   84.3710   50.7110 O   0  0  0  0  0  0  0  0  0  0  0  0
   44.6900   83.4800   50.8660 C   0  0  0  0  0  0  0  0  0  0  0  0
   45.3320   83.5990   52.2290 C   0  0  0  0  0  0  0  0  0  0  0  0
   40.0115   81.1100   56.5678 H   0  0  0  0  0  0  0  0  0  0  0  0
   41.9694   82.1019   55.3487 H   0  0  0  0  0  0  0  0  0  0  0  0
   38.8787   82.7570   60.2396 H   0  0  0  0  0  0  0  0  0  0  0  0
   43.0109   83.9038   60.8410 H   0  0  0  0  0  0  0  0  0  0  0  0
   43.4735   84.6905   63.6338 H   0  0  0  0  0  0  0  0  0  0  0  0
   41.9954   84.8494   65.7557 H   0  0  0  0  0  0  0  0  0  0  0  0
   38.4196   83.2457   62.6863 H   0  0  0  0  0  0  0  0  0  0  0  0
   44.8206   84.2691   58.2193 H   0  0  0  0  0  0  0  0  0  0  0  0
   46.7428   85.3218   57.1187 H   0  0  0  0  0  0  0  0  0  0  0  0
   43.3819   86.2145   52.8963 H   0  0  0  0  0  0  0  0  0  0  0  0
   45.0512   86.7484   52.5492 H   0  0  0  0  0  0  0  0  0  0  0  0
   43.3344   86.3852   50.5665 H   0  0  0  0  0  0  0  0  0  0  0  0
   45.0450   85.8229   50.4010 H   0  0  0  0  0  0  0  0  0  0  0  0
   44.3043   82.4573   50.7421 H   0  0  0  0  0  0  0  0  0  0  0  0
   45.4528   83.7092   50.1073 H   0  0  0  0  0  0  0  0  0  0  0  0
   45.1347   82.6744   52.7914 H   0  0  0  0  0  0  0  0  0  0  0  0
   46.4085   83.7626   52.0727 H   0  0  0  0  0  0  0  0  0  0  0  0
  1  6  2  0
  2  3  2  0
  2  1  1  0
  3  4  1  0
  4  5  2  0
  5  8  1  0
  6  5  1  0
  7 15  2  0
  8  7  1  0
  8  9  2  0
  9 10  1  0
 10 14  2  0
 10 11  1  0
 11 12  1  0
 13 12  2  0
 14 13  1  0
 15 14  1  0
 16 17  1  0
 17 18  2  0
 18  3  1  0
 18 19  1  0
 20 19  2  0
 21 20  1  0
 22 21  1  0
 23 17  1  0
 23 21  2  0
 24 23  1  0
 25 24  1  0
 26 25  1  0
 27 28  1  0
 27 26  1  0
 28 29  1  0
 29 24  1  0
  1 30  1  0
  2 31  1  0
  7 32  1  0
  9 33  1  0
 11 34  1  0
 12 35  1  0
 15 36  1  0
 19 37  1  0
 20 38  1  0
 25 39  1  0
 25 40  1  0
 26 41  1  0
 26 42  1  0
 28 43  1  0
 28 44  1  0
 29 45  1  0
 29 46  1  0
M  ISO  8  30  14  31  14  32  14  33  14  34   9  35  14  36  14  37  14
M  ISO  8  38  14  39  13  40  13  41  13  42  13  43  13  44  13  45  13
M  ISO  1  46  13
M  END
>  <minimizedAffinity>  (1) 
-5.07306099

>  <minimizedRMSD>  (1) 
0.717055321

$$$$
