
     RDKit          3D

 35 38  0  0  0  0  0  0  0  0999 V2000
   40.7650   81.8040   57.1530 C   0  0  0  0  0  0  0  0  0  0  0  0
   41.8790   82.3390   56.4960 C   0  0  0  0  0  0  0  0  0  0  0  0
   42.6830   83.2120   57.1960 C   0  0  0  0  0  0  0  0  0  0  0  0
   42.3830   83.5280   58.4880 N   0  0  0  0  0  0  0  0  0  0  0  0
   41.2940   82.9890   59.0960 C   0  0  0  0  0  0  0  0  0  0  0  0
   40.4770   82.1240   58.4320 N   0  0  0  0  0  0  0  0  0  0  0  0
   39.6940   83.0950   60.9470 C   0  0  0  0  0  0  0  0  0  0  0  0
   40.9990   83.2960   60.4900 C   0  0  0  0  0  0  0  0  0  0  0  0
   42.0010   83.7610   61.3440 C   0  0  0  0  0  0  0  0  0  0  0  0
   41.7400   84.0390   62.6740 C   0  0  0  0  0  0  0  0  0  0  0  0
   42.4210   84.4780   63.7430 N   0  0  0  0  0  0  0  0  0  0  0  0
   41.6170   84.5560   64.8210 C   0  0  0  0  0  0  0  0  0  0  0  0
   40.4180   84.1520   64.3810 N   0  0  0  0  0  0  0  0  0  0  0  0
   40.4590   83.8290   63.0760 C   0  0  0  0  0  0  0  0  0  0  0  0
   39.4200   83.3740   62.2910 C   0  0  0  0  0  0  0  0  0  0  0  0
   42.4240   83.8550   54.2940 Cl  0  0  0  0  0  0  0  0  0  0  0  0
   43.8760   84.1480   55.2480 C   0  0  0  0  0  0  0  0  0  0  0  0
   43.8430   83.8070   56.5740 C   0  0  0  0  0  0  0  0  0  0  0  0
   45.0250   84.0860   57.2590 C   0  0  0  0  0  0  0  0  0  0  0  0
   46.1400   84.6480   56.6840 C   0  0  0  0  0  0  0  0  0  0  0  0
   46.1170   84.9690   55.3460 C   0  0  0  0  0  0  0  0  0  0  0  0
   47.4820   85.6720   54.5330 Cl  0  0  0  0  0  0  0  0  0  0  0  0
   44.9740   84.7140   54.6300 C   0  0  0  0  0  0  0  0  0  0  0  0
   44.8900   85.0340   53.2030 C   0  0  0  0  0  0  0  0  0  0  0  0
   44.4860   86.1890   52.8720 O   0  0  0  0  0  0  0  0  0  0  0  0
   40.1082   81.1056   56.6137 H   0  0  0  0  0  0  0  0  0  0  0  0
   42.1056   82.0709   55.4535 H   0  0  0  0  0  0  0  0  0  0  0  0
   38.9066   82.7290   60.2717 H   0  0  0  0  0  0  0  0  0  0  0  0
   43.0179   83.9092   60.9517 H   0  0  0  0  0  0  0  0  0  0  0  0
   43.4217   84.7220   63.7400 H   0  0  0  0  0  0  0  0  0  0  0  0
   41.8855   84.8797   65.8374 H   0  0  0  0  0  0  0  0  0  0  0  0
   38.4111   83.2352   62.7068 H   0  0  0  0  0  0  0  0  0  0  0  0
   45.0681   83.8401   58.3303 H   0  0  0  0  0  0  0  0  0  0  0  0
   47.0403   84.8389   57.2865 H   0  0  0  0  0  0  0  0  0  0  0  0
   45.1697   84.2927   52.4400 H   0  0  0  0  0  0  0  0  0  0  0  0
  1  6  2  0
  2  1  1  0
  2  3  2  0
  3  4  1  0
  4  5  2  0
  5  8  1  0
  6  5  1  0
  7 15  2  0
  8  7  1  0
  8  9  2  0
  9 10  1  0
 10 14  2  0
 10 11  1  0
 11 12  1  0
 13 12  2  0
 14 13  1  0
 15 14  1  0
 16 17  1  0
 17 18  2  0
 18  3  1  0
 18 19  1  0
 20 19  2  0
 21 20  1  0
 22 21  1  0
 23 17  1  0
 23 21  2  0
 24 23  1  0
 25 24  2  0
  1 26  1  0
  2 27  1  0
  7 28  1  0
  9 29  1  0
 11 30  1  0
 12 31  1  0
 15 32  1  0
 19 33  1  0
 20 34  1  0
 24 35  1  0
M  ISO  8  26  14  27  14  28  14  29  14  30   9  31  14  32  14  33  14
M  ISO  2  34  14  35   6
M  END
>  <minimizedAffinity>  (1) 
-5.00322008

>  <minimizedRMSD>  (1) 
0.186583623

$$$$
