
     RDKit          3D

 39 42  0  0  0  0  0  0  0  0999 V2000
   40.6100   81.8850   57.0610 C   0  0  0  0  0  0  0  0  0  0  0  0
   41.6770   82.4690   56.3570 C   0  0  0  0  0  0  0  0  0  0  0  0
   42.4690   83.3610   57.0370 C   0  0  0  0  0  0  0  0  0  0  0  0
   42.2100   83.6460   58.3440 N   0  0  0  0  0  0  0  0  0  0  0  0
   41.1710   83.0610   58.9970 C   0  0  0  0  0  0  0  0  0  0  0  0
   40.3660   82.1780   58.3560 N   0  0  0  0  0  0  0  0  0  0  0  0
   39.6360   83.1410   60.8980 C   0  0  0  0  0  0  0  0  0  0  0  0
   40.9280   83.3450   60.4000 C   0  0  0  0  0  0  0  0  0  0  0  0
   41.9580   83.7870   61.2240 C   0  0  0  0  0  0  0  0  0  0  0  0
   41.7480   84.0460   62.5760 C   0  0  0  0  0  0  0  0  0  0  0  0
   42.4520   84.4600   63.6280 N   0  0  0  0  0  0  0  0  0  0  0  0
   41.6880   84.5230   64.7300 C   0  0  0  0  0  0  0  0  0  0  0  0
   40.4770   84.1310   64.3150 N   0  0  0  0  0  0  0  0  0  0  0  0
   40.4760   83.8330   63.0060 C   0  0  0  0  0  0  0  0  0  0  0  0
   39.3930   83.3920   62.2510 C   0  0  0  0  0  0  0  0  0  0  0  0
   42.5210   83.1730   54.0680 Cl  0  0  0  0  0  0  0  0  0  0  0  0
   43.7390   83.9930   55.0180 C   0  0  0  0  0  0  0  0  0  0  0  0
   43.5820   84.0140   56.3830 C   0  0  0  0  0  0  0  0  0  0  0  0
   44.5800   84.7120   57.0590 C   0  0  0  0  0  0  0  0  0  0  0  0
   45.6440   85.3350   56.4500 C   0  0  0  0  0  0  0  0  0  0  0  0
   45.7450   85.2730   55.0590 C   0  0  0  0  0  0  0  0  0  0  0  0
   47.0760   86.0460   54.2410 Cl  0  0  0  0  0  0  0  0  0  0  0  0
   44.7820   84.5940   54.3450 C   0  0  0  0  0  0  0  0  0  0  0  0
   44.9190   84.5430   52.8570 C   0  0  0  0  0  0  0  0  0  0  0  0
   44.2330   85.8330   52.3760 C   0  0  0  0  0  0  0  0  0  0  0  0
   39.9554   81.1692   56.5423 H   0  0  0  0  0  0  0  0  0  0  0  0
   41.8700   82.2213   55.3028 H   0  0  0  0  0  0  0  0  0  0  0  0
   38.8287   82.7904   60.2381 H   0  0  0  0  0  0  0  0  0  0  0  0
   42.9612   83.9353   60.7978 H   0  0  0  0  0  0  0  0  0  0  0  0
   43.4531   84.7007   63.5997 H   0  0  0  0  0  0  0  0  0  0  0  0
   41.9886   84.8274   65.7434 H   0  0  0  0  0  0  0  0  0  0  0  0
   38.3975   83.2485   62.6963 H   0  0  0  0  0  0  0  0  0  0  0  0
   44.5124   84.7688   58.1555 H   0  0  0  0  0  0  0  0  0  0  0  0
   46.3984   85.8701   57.0454 H   0  0  0  0  0  0  0  0  0  0  0  0
   45.9786   84.5302   52.5621 H   0  0  0  0  0  0  0  0  0  0  0  0
   44.4714   83.6376   52.4213 H   0  0  0  0  0  0  0  0  0  0  0  0
   43.9172   86.4268   53.2464 H   0  0  0  0  0  0  0  0  0  0  0  0
   44.9386   86.4190   51.7688 H   0  0  0  0  0  0  0  0  0  0  0  0
   43.3526   85.5756   51.7688 H   0  0  0  0  0  0  0  0  0  0  0  0
  1  6  2  0
  2  3  2  0
  2  1  1  0
  3  4  1  0
  4  5  2  0
  5  8  1  0
  6  5  1  0
  7 15  2  0
  8  7  1  0
  8  9  2  0
  9 10  1  0
 10 14  2  0
 10 11  1  0
 11 12  1  0
 13 12  2  0
 14 13  1  0
 15 14  1  0
 16 17  1  0
 17 18  2  0
 18  3  1  0
 18 19  1  0
 20 19  2  0
 21 20  1  0
 22 21  1  0
 23 17  1  0
 23 21  2  0
 24 23  1  0
 25 24  1  0
  1 26  1  0
  2 27  1  0
  7 28  1  0
  9 29  1  0
 11 30  1  0
 12 31  1  0
 15 32  1  0
 19 33  1  0
 20 34  1  0
 24 35  1  0
 24 36  1  0
 25 37  1  0
 25 38  1  0
 25 39  1  0
M  ISO  8  26  14  27  14  28  14  29  14  30   9  31  14  32  14  33  14
M  ISO  6  34  14  35   8  36   8  37   8  38   8  39   8
M  END
>  <minimizedAffinity>  (1) 
-4.94299889

>  <minimizedRMSD>  (1) 
0.287633151

$$$$
