
     RDKit          3D

 34 37  0  0  0  0  0  0  0  0999 V2000
   40.7860   81.7140   57.2540 C   0  0  0  0  0  0  0  0  0  0  0  0
   41.9570   82.1600   56.6280 C   0  0  0  0  0  0  0  0  0  0  0  0
   42.7960   82.9850   57.3490 C   0  0  0  0  0  0  0  0  0  0  0  0
   42.4800   83.3400   58.6260 N   0  0  0  0  0  0  0  0  0  0  0  0
   41.3320   82.8840   59.2020 C   0  0  0  0  0  0  0  0  0  0  0  0
   40.4780   82.0720   58.5230 N   0  0  0  0  0  0  0  0  0  0  0  0
   39.7010   83.0670   61.0150 C   0  0  0  0  0  0  0  0  0  0  0  0
   41.0180   83.2350   60.5800 C   0  0  0  0  0  0  0  0  0  0  0  0
   42.0110   83.7030   61.4430 C   0  0  0  0  0  0  0  0  0  0  0  0
   41.7340   84.0180   62.7550 C   0  0  0  0  0  0  0  0  0  0  0  0
   42.3980   84.4720   63.8300 N   0  0  0  0  0  0  0  0  0  0  0  0
   41.5730   84.5900   64.8900 C   0  0  0  0  0  0  0  0  0  0  0  0
   40.3680   84.1930   64.4360 N   0  0  0  0  0  0  0  0  0  0  0  0
   40.4380   83.8410   63.1400 C   0  0  0  0  0  0  0  0  0  0  0  0
   39.4030   83.3820   62.3450 C   0  0  0  0  0  0  0  0  0  0  0  0
   42.5200   84.2670   54.6680 Cl  0  0  0  0  0  0  0  0  0  0  0  0
   44.0420   84.0940   55.5270 C   0  0  0  0  0  0  0  0  0  0  0  0
   44.0180   83.4880   56.7620 C   0  0  0  0  0  0  0  0  0  0  0  0
   45.2620   83.4030   57.3840 C   0  0  0  0  0  0  0  0  0  0  0  0
   46.4330   83.8780   56.8280 C   0  0  0  0  0  0  0  0  0  0  0  0
   46.3930   84.4800   55.5780 C   0  0  0  0  0  0  0  0  0  0  0  0
   47.8400   85.0900   54.8250 Cl  0  0  0  0  0  0  0  0  0  0  0  0
   45.1930   84.5800   54.9440 C   0  0  0  0  0  0  0  0  0  0  0  0
   45.1340   85.1790   53.6930 O   0  0  0  0  0  0  0  0  0  0  0  0
   40.0994   81.0564   56.7008 H   0  0  0  0  0  0  0  0  0  0  0  0
   42.1995   81.8628   55.5970 H   0  0  0  0  0  0  0  0  0  0  0  0
   38.9216   82.6980   60.3320 H   0  0  0  0  0  0  0  0  0  0  0  0
   43.0376   83.8228   61.0666 H   0  0  0  0  0  0  0  0  0  0  0  0
   43.4025   84.6995   63.8432 H   0  0  0  0  0  0  0  0  0  0  0  0
   41.8277   84.9347   65.9031 H   0  0  0  0  0  0  0  0  0  0  0  0
   38.3841   83.2690   62.7437 H   0  0  0  0  0  0  0  0  0  0  0  0
   45.3141   82.9299   58.3757 H   0  0  0  0  0  0  0  0  0  0  0  0
   47.3859   83.7806   57.3689 H   0  0  0  0  0  0  0  0  0  0  0  0
   45.9591   85.5288   53.2722 H   0  0  0  0  0  0  0  0  0  0  0  0
  1  6  2  0
  2  1  1  0
  2  3  2  0
  3  4  1  0
  4  5  2  0
  5  8  1  0
  6  5  1  0
  7 15  2  0
  8  7  1  0
  8  9  2  0
  9 10  1  0
 10 14  2  0
 10 11  1  0
 11 12  1  0
 13 12  2  0
 14 13  1  0
 15 14  1  0
 16 17  1  0
 17 18  2  0
 18  3  1  0
 18 19  1  0
 20 19  2  0
 21 20  1  0
 22 21  1  0
 23 17  1  0
 23 21  2  0
 24 23  1  0
  1 25  1  0
  2 26  1  0
  7 27  1  0
  9 28  1  0
 11 29  1  0
 12 30  1  0
 15 31  1  0
 19 32  1  0
 20 33  1  0
 24 34  1  0
M  ISO  8  25  14  26  14  27  14  28  14  29   9  30  14  31  14  32  14
M  ISO  2  33  14  34   3
M  END
>  <minimizedAffinity>  (1) 
-4.82577085

>  <minimizedRMSD>  (1) 
0.539801598

$$$$
