
     RDKit          3D

 20 21  0  0  0  0  0  0  0  0999 V2000
   40.2200   82.0950   60.5920 C   0  0  0  0  0  0  0  0  0  0  0  0
   40.1500   83.0590   59.5790 C   0  0  0  0  0  0  0  0  0  0  0  0
   39.4460   84.2510   59.8540 C   0  0  0  0  0  0  0  0  0  0  0  0
   38.8770   84.3890   61.0880 N   0  0  0  0  0  0  0  0  0  0  0  0
   38.9750   83.4300   62.0240 C   0  0  0  0  0  0  0  0  0  0  0  0
   39.6430   82.2830   61.7840 N   0  0  0  0  0  0  0  0  0  0  0  0
   39.6150   80.4520   58.0820 Cl  0  0  0  0  0  0  0  0  0  0  0  0
   40.6080   81.7540   57.4910 C   0  0  0  0  0  0  0  0  0  0  0  0
   40.7690   82.8830   58.2700 C   0  0  0  0  0  0  0  0  0  0  0  0
   41.5610   83.9470   57.8240 C   0  0  0  0  0  0  0  0  0  0  0  0
   42.1740   83.8210   56.5760 C   0  0  0  0  0  0  0  0  0  0  0  0
   42.0140   82.6870   55.7890 C   0  0  0  0  0  0  0  0  0  0  0  0
   41.2270   81.6420   56.2450 C   0  0  0  0  0  0  0  0  0  0  0  0
   40.7641   81.1579   60.4025 H   0  0  0  0  0  0  0  0  0  0  0  0
   39.3582   85.0447   59.0975 H   0  0  0  0  0  0  0  0  0  0  0  0
   38.5013   83.5832   63.0049 H   0  0  0  0  0  0  0  0  0  0  0  0
   41.6959   84.8513   58.4355 H   0  0  0  0  0  0  0  0  0  0  0  0
   42.8024   84.6439   56.2046 H   0  0  0  0  0  0  0  0  0  0  0  0
   42.5095   82.6194   54.8093 H   0  0  0  0  0  0  0  0  0  0  0  0
   41.0919   80.7373   55.6341 H   0  0  0  0  0  0  0  0  0  0  0  0
  1  6  2  0
  2  3  2  0
  2  1  1  0
  3  4  1  0
  4  5  2  0
  6  5  1  0
  8  7  1  0
  8  9  2  0
  9  2  1  0
 10  9  1  0
 11 10  2  0
 12 13  2  0
 12 11  1  0
 13  8  1  0
  1 14  1  0
  3 15  1  0
  5 16  1  0
 10 17  1  0
 11 18  1  0
 12 19  1  0
 13 20  1  0
M  ISO  7  14  14  15  14  16  14  17  14  18  14  19  14  20  14
M  END
>  <minimizedAffinity>  (1) 
-4.60353374

>  <minimizedRMSD>  (1) 
0.599060774

$$$$
