
     RDKit          3D

 20 21  0  0  0  0  0  0  0  0999 V2000
   40.2080   82.1350   60.4530 C   0  0  0  0  0  0  0  0  0  0  0  0
   40.0980   83.1480   59.4880 C   0  0  0  0  0  0  0  0  0  0  0  0
   39.4150   84.3110   59.8370 C   0  0  0  0  0  0  0  0  0  0  0  0
   38.8920   84.4020   61.0920 N   0  0  0  0  0  0  0  0  0  0  0  0
   39.0150   83.4120   61.9960 C   0  0  0  0  0  0  0  0  0  0  0  0
   39.6690   82.2780   61.6880 N   0  0  0  0  0  0  0  0  0  0  0  0
   39.3830   80.8450   58.1530 F   0  0  0  0  0  0  0  0  0  0  0  0
   40.3240   81.6760   57.6100 C   0  0  0  0  0  0  0  0  0  0  0  0
   40.7240   82.8410   58.2270 C   0  0  0  0  0  0  0  0  0  0  0  0
   41.6770   83.6340   57.6230 C   0  0  0  0  0  0  0  0  0  0  0  0
   42.2390   83.2680   56.3960 C   0  0  0  0  0  0  0  0  0  0  0  0
   41.8020   82.0860   55.8170 C   0  0  0  0  0  0  0  0  0  0  0  0
   40.8490   81.2750   56.4030 C   0  0  0  0  0  0  0  0  0  0  0  0
   40.7422   81.2068   60.2019 H   0  0  0  0  0  0  0  0  0  0  0  0
   39.3008   85.1352   59.1175 H   0  0  0  0  0  0  0  0  0  0  0  0
   38.5758   83.5320   62.9974 H   0  0  0  0  0  0  0  0  0  0  0  0
   41.9988   84.5652   58.1121 H   0  0  0  0  0  0  0  0  0  0  0  0
   42.9999   83.8947   55.9079 H   0  0  0  0  0  0  0  0  0  0  0  0
   42.2318   81.7815   54.8513 H   0  0  0  0  0  0  0  0  0  0  0  0
   40.5216   80.3417   55.9216 H   0  0  0  0  0  0  0  0  0  0  0  0
  1  6  2  0
  2  3  2  0
  2  1  1  0
  3  4  1  0
  4  5  2  0
  6  5  1  0
  8  7  1  0
  8  9  2  0
  9  2  1  0
 10  9  1  0
 11 10  2  0
 12 11  1  0
 12 13  2  0
 13  8  1  0
  1 14  1  0
  3 15  1  0
  5 16  1  0
 10 17  1  0
 11 18  1  0
 12 19  1  0
 13 20  1  0
M  ISO  7  14  14  15  14  16  14  17  14  18  14  19  14  20  14
M  END
>  <minimizedAffinity>  (1) 
-4.55019712

>  <minimizedRMSD>  (1) 
1.13651955

$$$$
