
     RDKit          3D

 50 54  0  0  0  0  0  0  0  0999 V2000
   44.6300   70.1350   31.1270 C   0  0  0  0  0  0  0  0  0  0  0  0
   44.7320   68.8550   30.5840 C   0  0  0  0  0  0  0  0  0  0  0  0
   43.6810   67.9470   30.7150 C   0  0  0  0  0  0  0  0  0  0  0  0
   42.5350   68.3570   31.4020 C   0  0  0  0  0  0  0  0  0  0  0  0
   42.4080   69.6140   31.9490 C   0  0  0  0  0  0  0  0  0  0  0  0
   43.4870   70.4780   31.7870 C   0  0  0  0  0  0  0  0  0  0  0  0
   43.3330   71.8130   32.3760 C   0  0  0  0  0  0  0  0  0  0  0  0
   43.0790   72.0070   33.6920 N   0  0  0  0  0  0  0  0  0  0  0  0
   42.9820   73.2700   33.9860 O   0  0  0  0  0  0  0  0  0  0  0  0
   43.1680   73.9630   32.8800 C   0  0  0  0  0  0  0  0  0  0  0  0
   43.3740   73.0650   31.9390 N   0  0  0  0  0  0  0  0  0  0  0  0
   43.2000   75.3130   32.4710 N   0  0  0  0  0  0  0  0  0  0  0  0
   44.1430   75.7850   31.4410 C   0  0  0  0  0  0  0  0  0  0  0  0
   44.3120   77.2550   31.8380 C   0  0  0  0  0  0  0  0  0  0  0  0
   42.8390   77.6010   32.0480 C   0  0  0  0  0  0  0  0  0  0  0  0
   42.3930   76.4370   32.9250 C   0  0  0  0  0  0  0  0  0  0  0  0
   46.9180   72.8790   29.9240 C   0  0  0  0  0  0  0  0  0  0  0  0
   45.7560   72.0770   30.0410 C   0  0  0  0  0  0  0  0  0  0  0  0
   45.7600   70.9980   30.9420 C   0  0  0  0  0  0  0  0  0  0  0  0
   46.8930   70.7790   31.6620 N   0  0  0  0  0  0  0  0  0  0  0  0
   47.9960   71.5720   31.5240 C   0  0  0  0  0  0  0  0  0  0  0  0
   47.9990   72.5890   30.6780 N   0  0  0  0  0  0  0  0  0  0  0  0
   51.3400   70.5760   33.9390 C   0  0  0  0  0  0  0  0  0  0  0  0
   50.2430   69.7710   33.9520 C   0  0  0  0  0  0  0  0  0  0  0  0
   49.1470   70.1040   33.1570 C   0  0  0  0  0  0  0  0  0  0  0  0
   49.1450   71.2270   32.3560 C   0  0  0  0  0  0  0  0  0  0  0  0
   50.2580   72.0560   32.3320 C   0  0  0  0  0  0  0  0  0  0  0  0
   51.3320   71.6930   33.1390 C   0  0  0  0  0  0  0  0  0  0  0  0
   52.7010   70.1340   34.9450 S   0  0  0  0  0  0  0  0  0  0  0  0
   53.9290   69.8340   34.1420 O   0  0  0  0  0  0  0  0  0  0  0  0
   52.3080   68.8980   35.7400 O   0  0  0  0  0  0  0  0  0  0  0  0
   45.6466   68.5593   30.0491 H   0  0  0  0  0  0  0  0  0  0  0  0
   43.7523   66.9354   30.2890 H   0  0  0  0  0  0  0  0  0  0  0  0
   41.7015   67.6473   31.5099 H   0  0  0  0  0  0  0  0  0  0  0  0
   41.4989   69.9202   32.4873 H   0  0  0  0  0  0  0  0  0  0  0  0
   43.7181   75.6871   30.4311 H   0  0  0  0  0  0  0  0  0  0  0  0
   45.0852   75.2187   31.4001 H   0  0  0  0  0  0  0  0  0  0  0  0
   44.9008   77.3707   32.7599 H   0  0  0  0  0  0  0  0  0  0  0  0
   44.8539   77.8859   31.1181 H   0  0  0  0  0  0  0  0  0  0  0  0
   42.7194   78.5652   32.5638 H   0  0  0  0  0  0  0  0  0  0  0  0
   42.2621   77.7175   31.1187 H   0  0  0  0  0  0  0  0  0  0  0  0
   41.3220   76.2302   32.7826 H   0  0  0  0  0  0  0  0  0  0  0  0
   42.5267   76.6439   33.9971 H   0  0  0  0  0  0  0  0  0  0  0  0
   46.9389   73.7290   29.2261 H   0  0  0  0  0  0  0  0  0  0  0  0
   44.8638   72.2954   29.4357 H   0  0  0  0  0  0  0  0  0  0  0  0
   50.2211   68.8692   34.5815 H   0  0  0  0  0  0  0  0  0  0  0  0
   48.2600   69.4536   33.1689 H   0  0  0  0  0  0  0  0  0  0  0  0
   50.2896   72.9585   31.7039 H   0  0  0  0  0  0  0  0  0  0  0  0
   52.2243   72.3362   33.1363 H   0  0  0  0  0  0  0  0  0  0  0  0
   53.0019   71.1907   35.7634 H   0  0  0  0  0  0  0  0  0  0  0  0
  1  6  2  0
  2  3  2  0
  2  1  1  0
  3  4  1  0
  4  5  2  0
  6  5  1  0
  6  7  1  0
  7  8  2  0
  8  9  1  0
 10  9  1  0
 11  7  1  0
 11 10  2  0
 12 10  1  0
 12 16  1  0
 13 14  1  0
 13 12  1  0
 14 15  1  0
 15 16  1  0
 17 18  2  0
 17 22  1  0
 18 19  1  0
 19  1  1  0
 19 20  2  0
 21 20  1  0
 21 26  1  0
 22 21  2  0
 23 24  2  0
 23 29  1  0
 25 24  1  0
 26 25  2  0
 27 26  1  0
 27 28  2  0
 28 23  1  0
 29 31  2  0
 30 29  2  0
  2 32  1  0
  3 33  1  0
  4 34  1  0
  5 35  1  0
 13 36  1  0
 13 37  1  0
 14 38  1  0
 14 39  1  0
 15 40  1  0
 15 41  1  0
 16 42  1  0
 16 43  1  0
 17 44  1  0
 18 45  1  0
 24 46  1  0
 25 47  1  0
 27 48  1  0
 28 49  1  0
 29 50  1  0
M  END
>  <Score>  (1) 
-7.11893

$$$$
