
     RDKit          3D

 47 51  0  0  0  0  0  0  0  0999 V2000
   44.7400   70.1080   31.1080 C   0  0  0  0  0  0  0  0  0  0  0  0
   44.8270   68.8440   30.5430 C   0  0  0  0  0  0  0  0  0  0  0  0
   43.7510   67.9520   30.6620 C   0  0  0  0  0  0  0  0  0  0  0  0
   42.6160   68.3640   31.3490 C   0  0  0  0  0  0  0  0  0  0  0  0
   42.5150   69.6230   31.9180 C   0  0  0  0  0  0  0  0  0  0  0  0
   43.6030   70.4730   31.7760 C   0  0  0  0  0  0  0  0  0  0  0  0
   43.4720   71.7900   32.3830 C   0  0  0  0  0  0  0  0  0  0  0  0
   43.3290   71.9720   33.7070 N   0  0  0  0  0  0  0  0  0  0  0  0
   43.2300   73.2320   34.0240 O   0  0  0  0  0  0  0  0  0  0  0  0
   43.3040   73.9340   32.9120 C   0  0  0  0  0  0  0  0  0  0  0  0
   43.4490   73.0480   31.9390 N   0  0  0  0  0  0  0  0  0  0  0  0
   43.2720   75.2890   32.5040 N   0  0  0  0  0  0  0  0  0  0  0  0
   44.0990   75.7850   31.3880 C   0  0  0  0  0  0  0  0  0  0  0  0
   44.3040   77.2500   31.8140 C   0  0  0  0  0  0  0  0  0  0  0  0
   42.8520   77.5740   32.1680 C   0  0  0  0  0  0  0  0  0  0  0  0
   42.4880   76.3960   33.0460 C   0  0  0  0  0  0  0  0  0  0  0  0
   47.1060   72.8040   29.9040 C   0  0  0  0  0  0  0  0  0  0  0  0
   45.9180   72.0150   30.0010 C   0  0  0  0  0  0  0  0  0  0  0  0
   45.8920   70.9580   30.9370 C   0  0  0  0  0  0  0  0  0  0  0  0
   46.9880   70.7430   31.6930 N   0  0  0  0  0  0  0  0  0  0  0  0
   48.1060   71.5210   31.5690 C   0  0  0  0  0  0  0  0  0  0  0  0
   48.1570   72.5170   30.7010 N   0  0  0  0  0  0  0  0  0  0  0  0
   49.2480   71.2150   32.4300 C   0  0  0  0  0  0  0  0  0  0  0  0
   49.2530   70.1160   33.2590 C   0  0  0  0  0  0  0  0  0  0  0  0
   50.3590   69.8910   34.0400 C   0  0  0  0  0  0  0  0  0  0  0  0
   51.4630   70.7140   34.0290 C   0  0  0  0  0  0  0  0  0  0  0  0
   51.4990   71.8360   33.2040 C   0  0  0  0  0  0  0  0  0  0  0  0
   50.3650   72.0260   32.4350 C   0  0  0  0  0  0  0  0  0  0  0  0
   45.7368   68.5422   30.0034 H   0  0  0  0  0  0  0  0  0  0  0  0
   43.8048   66.9461   30.2201 H   0  0  0  0  0  0  0  0  0  0  0  0
   41.7698   67.6677   31.4443 H   0  0  0  0  0  0  0  0  0  0  0  0
   41.6103   69.9360   32.4598 H   0  0  0  0  0  0  0  0  0  0  0  0
   43.5685   75.7127   30.4271 H   0  0  0  0  0  0  0  0  0  0  0  0
   45.0300   75.2225   31.2245 H   0  0  0  0  0  0  0  0  0  0  0  0
   44.9747   77.3418   32.6810 H   0  0  0  0  0  0  0  0  0  0  0  0
   44.7776   77.9073   31.0699 H   0  0  0  0  0  0  0  0  0  0  0  0
   42.7742   78.5240   32.7170 H   0  0  0  0  0  0  0  0  0  0  0  0
   42.1950   77.7042   31.2954 H   0  0  0  0  0  0  0  0  0  0  0  0
   41.4114   76.1797   32.9819 H   0  0  0  0  0  0  0  0  0  0  0  0
   42.7003   76.5816   34.1092 H   0  0  0  0  0  0  0  0  0  0  0  0
   47.1632   73.6365   29.1873 H   0  0  0  0  0  0  0  0  0  0  0  0
   45.0469   72.2257   29.3632 H   0  0  0  0  0  0  0  0  0  0  0  0
   48.3907   69.4340   33.2947 H   0  0  0  0  0  0  0  0  0  0  0  0
   50.3637   69.0142   34.7043 H   0  0  0  0  0  0  0  0  0  0  0  0
   52.3223   70.4839   34.6760 H   0  0  0  0  0  0  0  0  0  0  0  0
   52.3617   72.5175   33.1670 H   0  0  0  0  0  0  0  0  0  0  0  0
   50.3522   72.9009   31.7684 H   0  0  0  0  0  0  0  0  0  0  0  0
  1  6  2  0
  2  3  2  0
  2  1  1  0
  3  4  1  0
  4  5  2  0
  6  5  1  0
  6  7  1  0
  7  8  2  0
  8  9  1  0
 10  9  1  0
 11  7  1  0
 11 10  2  0
 12 10  1  0
 12 16  1  0
 13 14  1  0
 13 12  1  0
 14 15  1  0
 15 16  1  0
 17 18  2  0
 17 22  1  0
 18 19  1  0
 19  1  1  0
 19 20  2  0
 21 20  1  0
 21 23  1  0
 22 21  2  0
 23 28  1  0
 23 24  2  0
 24 25  1  0
 26 25  2  0
 27 26  1  0
 28 27  2  0
  2 29  1  0
  3 30  1  0
  4 31  1  0
  5 32  1  0
 13 33  1  0
 13 34  1  0
 14 35  1  0
 14 36  1  0
 15 37  1  0
 15 38  1  0
 16 39  1  0
 16 40  1  0
 17 41  1  0
 18 42  1  0
 24 43  1  0
 25 44  1  0
 26 45  1  0
 27 46  1  0
 28 47  1  0
M  END
>  <Score>  (1) 
-7.07629

$$$$
