
     RDKit          3D

 42 46  0  0  0  0  0  0  0  0999 V2000
   45.1140   70.4770   31.2550 C   0  0  0  0  0  0  0  0  0  0  0  0
   46.3860   69.9730   31.1510 C   0  0  0  0  0  0  0  0  0  0  0  0
   47.4290   70.8360   31.2030 C   0  0  0  0  0  0  0  0  0  0  0  0
   47.2450   72.2100   31.3560 C   0  0  0  0  0  0  0  0  0  0  0  0
   45.9490   72.6880   31.4580 C   0  0  0  0  0  0  0  0  0  0  0  0
   44.9190   71.8010   31.4040 N   0  0  0  0  0  0  0  0  0  0  0  0
   41.7130   69.1540   31.6490 C   0  0  0  0  0  0  0  0  0  0  0  0
   41.8350   67.8600   31.1000 C   0  0  0  0  0  0  0  0  0  0  0  0
   43.0910   67.4420   30.5920 C   0  0  0  0  0  0  0  0  0  0  0  0
   44.1060   68.3310   30.6720 N   0  0  0  0  0  0  0  0  0  0  0  0
   43.9580   69.5520   31.2000 C   0  0  0  0  0  0  0  0  0  0  0  0
   42.7780   69.9680   31.6860 N   0  0  0  0  0  0  0  0  0  0  0  0
   43.2860   66.1630   30.0290 N   0  0  0  0  0  0  0  0  0  0  0  0
   42.8820   64.9930   30.5480 C   0  0  0  0  0  0  0  0  0  0  0  0
   43.1480   63.8120   29.8740 C   0  0  0  0  0  0  0  0  0  0  0  0
   43.8260   63.8100   28.6670 C   0  0  0  0  0  0  0  0  0  0  0  0
   44.0970   62.7760   28.0100 O   0  0  0  0  0  0  0  0  0  0  0  0
   44.2150   64.9940   28.1780 N   0  0  0  0  0  0  0  0  0  0  0  0
   43.9490   66.1340   28.8440 C   0  0  0  0  0  0  0  0  0  0  0  0
   44.3580   67.2060   28.2990 O   0  0  0  0  0  0  0  0  0  0  0  0
   45.5480   74.1010   31.6240 C   0  0  0  0  0  0  0  0  0  0  0  0
   46.0060   75.1750   30.9630 N   0  0  0  0  0  0  0  0  0  0  0  0
   45.4370   76.2540   31.3620 O   0  0  0  0  0  0  0  0  0  0  0  0
   44.5730   75.9580   32.3040 C   0  0  0  0  0  0  0  0  0  0  0  0
   44.6490   74.6350   32.4580 N   0  0  0  0  0  0  0  0  0  0  0  0
   43.7000   76.7830   33.0600 N   0  0  0  0  0  0  0  0  0  0  0  0
   42.3490   76.7170   32.8220 C   0  0  0  0  0  0  0  0  0  0  0  0
   41.6610   77.5540   33.6160 N   0  0  0  0  0  0  0  0  0  0  0  0
   42.6310   78.1570   34.3700 C   0  0  0  0  0  0  0  0  0  0  0  0
   43.8500   77.6790   34.0200 N   0  0  0  0  0  0  0  0  0  0  0  0
   46.5550   68.8930   31.0282 H   0  0  0  0  0  0  0  0  0  0  0  0
   48.4524   70.4409   31.1221 H   0  0  0  0  0  0  0  0  0  0  0  0
   48.1050   72.8948   31.3946 H   0  0  0  0  0  0  0  0  0  0  0  0
   40.7454   69.4947   32.0462 H   0  0  0  0  0  0  0  0  0  0  0  0
   40.9674   67.1846   31.0666 H   0  0  0  0  0  0  0  0  0  0  0  0
   42.3413   64.9718   31.5057 H   0  0  0  0  0  0  0  0  0  0  0  0
   42.8139   62.8573   30.3064 H   0  0  0  0  0  0  0  0  0  0  0  0
   44.7231   65.0335   27.2829 H   0  0  0  0  0  0  0  0  0  0  0  0
   42.1589   76.9852   31.7723 H   0  0  0  0  0  0  0  0  0  0  0  0
   42.0141   75.6911   33.0349 H   0  0  0  0  0  0  0  0  0  0  0  0
   42.4485   78.9164   35.1446 H   0  0  0  0  0  0  0  0  0  0  0  0
   44.7476   77.9672   34.4348 H   0  0  0  0  0  0  0  0  0  0  0  0
  1  6  2  0
  2  3  2  0
  2  1  1  0
  3  4  1  0
  4  5  2  0
  5 21  1  0
  6  5  1  0
  7 12  2  0
  8  7  1  0
  9 10  1  0
  9  8  2  0
 10 11  2  0
 11  1  1  0
 11 12  1  0
 13 14  1  0
 13  9  1  0
 15 14  2  0
 16 15  1  0
 17 16  2  0
 18 16  1  0
 18 19  1  0
 19 13  1  0
 20 19  2  0
 21 25  1  0
 22 23  1  0
 22 21  2  0
 23 24  1  0
 24 25  2  0
 24 26  1  0
 26 30  1  0
 27 26  1  0
 27 28  1  0
 28 29  2  0
 30 29  1  0
  2 31  1  0
  3 32  1  0
  4 33  1  0
  7 34  1  0
  8 35  1  0
 14 36  1  0
 15 37  1  0
 18 38  1  0
 27 39  1  0
 27 40  1  0
 29 41  1  0
 30 42  1  0
M  END
>  <Score>  (1) 
-7.12578

$$$$
