
     RDKit          3D

 48 52  0  0  0  0  0  0  0  0999 V2000
   44.4310   71.7220   31.6460 N   0  0  0  0  0  0  0  0  0  0  0  0
   45.3540   71.0460   30.9450 C   0  0  0  0  0  0  0  0  0  0  0  0
   45.1710   69.6720   30.7140 C   0  0  0  0  0  0  0  0  0  0  0  0
   44.0120   69.1670   31.2600 C   0  0  0  0  0  0  0  0  0  0  0  0
   43.8340   67.9290   31.0590 O   0  0  0  0  0  0  0  0  0  0  0  0
   43.0770   69.8150   31.9600 N   0  0  0  0  0  0  0  0  0  0  0  0
   43.3170   71.1380   32.1470 C   0  0  0  0  0  0  0  0  0  0  0  0
   42.4530   71.7770   32.8050 O   0  0  0  0  0  0  0  0  0  0  0  0
   44.5840   73.1090   31.8990 C   0  0  0  0  0  0  0  0  0  0  0  0
   44.1050   74.0520   30.9800 C   0  0  0  0  0  0  0  0  0  0  0  0
   44.2640   75.4090   31.2460 C   0  0  0  0  0  0  0  0  0  0  0  0
   44.8870   75.7620   32.4030 N   0  0  0  0  0  0  0  0  0  0  0  0
   45.3410   74.8200   33.2760 C   0  0  0  0  0  0  0  0  0  0  0  0
   45.1880   73.5090   33.0190 N   0  0  0  0  0  0  0  0  0  0  0  0
   46.1360   68.8470   29.9510 C   0  0  0  0  0  0  0  0  0  0  0  0
   46.5420   71.6890   30.4120 C   0  0  0  0  0  0  0  0  0  0  0  0
   46.4780   72.3550   29.3270 O   0  0  0  0  0  0  0  0  0  0  0  0
   50.0020   71.7780   31.3110 N   0  0  0  0  0  0  0  0  0  0  0  0
   48.9950   71.9440   30.4540 N   0  0  0  0  0  0  0  0  0  0  0  0
   47.8420   71.6290   31.0440 C   0  0  0  0  0  0  0  0  0  0  0  0
   48.1610   71.2530   32.3190 C   0  0  0  0  0  0  0  0  0  0  0  0
   49.5230   71.3400   32.5040 C   0  0  0  0  0  0  0  0  0  0  0  0
   50.4480   71.1620   33.5910 C   0  0  0  0  0  0  0  0  0  0  0  0
   50.2220   70.1140   34.4910 C   0  0  0  0  0  0  0  0  0  0  0  0
   51.0060   69.8350   35.5660 C   0  0  0  0  0  0  0  0  0  0  0  0
   52.1120   70.6010   35.8390 C   0  0  0  0  0  0  0  0  0  0  0  0
   52.4000   71.6520   35.0030 C   0  0  0  0  0  0  0  0  0  0  0  0
   53.4810   72.4610   35.2610 C   0  0  0  0  0  0  0  0  0  0  0  0
   53.7950   73.5490   34.4710 C   0  0  0  0  0  0  0  0  0  0  0  0
   52.9580   73.7850   33.4000 C   0  0  0  0  0  0  0  0  0  0  0  0
   51.8900   72.9560   33.1760 C   0  0  0  0  0  0  0  0  0  0  0  0
   51.5610   71.8710   33.9410 C   0  0  0  0  0  0  0  0  0  0  0  0
   42.2376   69.3464   32.3298 H   0  0  0  0  0  0  0  0  0  0  0  0
   43.6074   73.7226   30.0559 H   0  0  0  0  0  0  0  0  0  0  0  0
   43.8976   76.1718   30.5432 H   0  0  0  0  0  0  0  0  0  0  0  0
   45.8397   75.1362   34.2041 H   0  0  0  0  0  0  0  0  0  0  0  0
   46.7809   68.2956   30.6510 H   0  0  0  0  0  0  0  0  0  0  0  0
   45.5882   68.1337   29.3177 H   0  0  0  0  0  0  0  0  0  0  0  0
   46.7555   69.4990   29.3177 H   0  0  0  0  0  0  0  0  0  0  0  0
   50.9945   71.9553   31.1002 H   0  0  0  0  0  0  0  0  0  0  0  0
   47.4383   70.9295   33.0826 H   0  0  0  0  0  0  0  0  0  0  0  0
   49.3475   69.4701   34.3159 H   0  0  0  0  0  0  0  0  0  0  0  0
   50.7523   68.9892   36.2219 H   0  0  0  0  0  0  0  0  0  0  0  0
   52.7517   70.3786   36.7058 H   0  0  0  0  0  0  0  0  0  0  0  0
   54.1187   72.2334   36.1279 H   0  0  0  0  0  0  0  0  0  0  0  0
   54.6627   74.1908   34.6834 H   0  0  0  0  0  0  0  0  0  0  0  0
   53.1472   74.6354   32.7284 H   0  0  0  0  0  0  0  0  0  0  0  0
   51.2465   73.1810   32.3127 H   0  0  0  0  0  0  0  0  0  0  0  0
  1  9  1  0
  1  7  1  0
  2  1  1  0
  3  2  2  0
  3  4  1  0
  4  6  1  0
  5  4  2  0
  6  7  1  0
  7  8  2  0
  9 14  2  0
 10 11  2  0
 10  9  1  0
 11 12  1  0
 12 13  2  0
 14 13  1  0
 15  3  1  0
 16  2  1  0
 16 20  1  0
 17 16  2  0
 18 22  1  0
 19 20  2  0
 19 18  1  0
 20 21  1  0
 21 22  2  0
 22 23  1  0
 23 32  1  0
 23 24  2  0
 24 25  1  0
 25 26  2  0
 27 28  2  0
 27 26  1  0
 29 28  1  0
 30 29  2  0
 31 30  1  0
 31 32  2  0
 32 27  1  0
  6 33  1  0
 10 34  1  0
 11 35  1  0
 13 36  1  0
 15 37  1  0
 15 38  1  0
 15 39  1  0
 18 40  1  0
 21 41  1  0
 24 42  1  0
 25 43  1  0
 26 44  1  0
 28 45  1  0
 29 46  1  0
 30 47  1  0
 31 48  1  0
M  END
>  <Score>  (1) 
-7.02372

$$$$
