
     RDKit          3D

 46 49  0  0  0  0  0  0  0  0999 V2000
   43.0970   70.7720   32.2400 C   0  0  0  0  0  0  0  0  0  0  0  0
   44.2490   70.0130   32.1620 C   0  0  0  0  0  0  0  0  0  0  0  0
   44.3000   68.7510   31.6170 C   0  0  0  0  0  0  0  0  0  0  0  0
   43.1510   68.1890   31.1100 C   0  0  0  0  0  0  0  0  0  0  0  0
   41.9640   68.8980   31.1570 C   0  0  0  0  0  0  0  0  0  0  0  0
   40.7960   68.3610   30.6570 C   0  0  0  0  0  0  0  0  0  0  0  0
   39.5990   69.0260   30.6830 C   0  0  0  0  0  0  0  0  0  0  0  0
   39.6390   70.2880   31.2490 C   0  0  0  0  0  0  0  0  0  0  0  0
   40.7920   70.8130   31.7410 C   0  0  0  0  0  0  0  0  0  0  0  0
   41.9760   70.1570   31.7170 C   0  0  0  0  0  0  0  0  0  0  0  0
   42.8590   73.8690   34.4580 C   0  0  0  0  0  0  0  0  0  0  0  0
   42.6450   72.5580   34.0180 C   0  0  0  0  0  0  0  0  0  0  0  0
   43.2020   72.0690   32.8370 C   0  0  0  0  0  0  0  0  0  0  0  0
   43.9550   72.9920   32.1830 N   0  0  0  0  0  0  0  0  0  0  0  0
   44.1710   74.2400   32.5800 C   0  0  0  0  0  0  0  0  0  0  0  0
   43.6120   74.6620   33.7250 N   0  0  0  0  0  0  0  0  0  0  0  0
   44.9740   75.1570   31.8460 N   0  0  0  0  0  0  0  0  0  0  0  0
   44.5150   76.4740   31.6460 C   0  0  0  0  0  0  0  0  0  0  0  0
   43.2930   76.7340   31.4460 N   0  0  0  0  0  0  0  0  0  0  0  0
   45.4460   77.5780   31.6610 N   0  0  0  0  0  0  0  0  0  0  0  0
   42.4830   76.1160   31.3950 H   0  0  0  0  0  0  0  0  0  0  0  0
   43.2270   66.8800   30.5490 N   0  0  0  0  0  0  0  0  0  0  0  0
   42.8060   65.8040   31.2120 C   0  0  0  0  0  0  0  0  0  0  0  0
   42.8880   64.5460   30.6550 C   0  0  0  0  0  0  0  0  0  0  0  0
   43.4310   64.4740   29.3750 C   0  0  0  0  0  0  0  0  0  0  0  0
   43.5250   63.3470   28.8270 O   0  0  0  0  0  0  0  0  0  0  0  0
   43.8490   65.5760   28.7250 N   0  0  0  0  0  0  0  0  0  0  0  0
   43.7560   66.8070   29.3030 C   0  0  0  0  0  0  0  0  0  0  0  0
   44.1730   67.7430   28.6080 O   0  0  0  0  0  0  0  0  0  0  0  0
   42.4390   63.2970   31.3330 C   0  0  0  0  0  0  0  0  0  0  0  0
   45.1802   70.4433   32.5591 H   0  0  0  0  0  0  0  0  0  0  0  0
   45.2497   68.1968   31.5868 H   0  0  0  0  0  0  0  0  0  0  0  0
   40.8274   67.3531   30.2175 H   0  0  0  0  0  0  0  0  0  0  0  0
   38.6726   68.5884   30.2828 H   0  0  0  0  0  0  0  0  0  0  0  0
   38.7143   70.8813   31.3021 H   0  0  0  0  0  0  0  0  0  0  0  0
   40.7617   71.8209   32.1805 H   0  0  0  0  0  0  0  0  0  0  0  0
   42.4084   74.2287   35.3948 H   0  0  0  0  0  0  0  0  0  0  0  0
   42.0157   71.8902   34.6247 H   0  0  0  0  0  0  0  0  0  0  0  0
   45.8834   74.8605   31.4640 H   0  0  0  0  0  0  0  0  0  0  0  0
   45.1071   78.5395   31.5145 H   0  0  0  0  0  0  0  0  0  0  0  0
   46.4489   77.4038   31.8182 H   0  0  0  0  0  0  0  0  0  0  0  0
   42.3856   65.9216   32.2217 H   0  0  0  0  0  0  0  0  0  0  0  0
   44.2445   65.4879   27.7780 H   0  0  0  0  0  0  0  0  0  0  0  0
   42.4881   63.4337   32.4234 H   0  0  0  0  0  0  0  0  0  0  0  0
   41.4035   63.0716   31.0380 H   0  0  0  0  0  0  0  0  0  0  0  0
   43.0939   62.4639   31.0380 H   0  0  0  0  0  0  0  0  0  0  0  0
  1 13  1  0
  2  1  2  0
  3  2  1  0
  4  5  1  0
  4  3  2  0
  5 10  2  0
  6  7  2  0
  6  5  1  0
  7  8  1  0
  8  9  2  0
 10  9  1  0
 10  1  1  0
 12 11  2  0
 13 12  1  0
 14 15  1  0
 14 13  2  0
 15 16  2  0
 16 11  1  0
 17 15  1  0
 18 20  1  0
 18 17  1  0
 19 18  2  0
 21 19  1  0
 22  4  1  0
 22 23  1  0
 24 23  2  0
 24 30  1  0
 25 24  1  0
 26 25  2  0
 27 28  1  0
 27 25  1  0
 28 22  1  0
 29 28  2  0
  2 31  1  0
  3 32  1  0
  6 33  1  0
  7 34  1  0
  8 35  1  0
  9 36  1  0
 11 37  1  0
 12 38  1  0
 17 39  1  0
 20 40  1  0
 20 41  1  0
 23 42  1  0
 27 43  1  0
 30 44  1  0
 30 45  1  0
 30 46  1  0
M  END
>  <Score>  (1) 
-7.4352

$$$$
