
     RDKit          3D

 50 54  0  0  0  0  0  0  0  0999 V2000
   44.7450   70.1310   31.1350 C   0  0  0  0  0  0  0  0  0  0  0  0
   44.7960   68.8730   30.5480 C   0  0  0  0  0  0  0  0  0  0  0  0
   43.7120   67.9870   30.7060 C   0  0  0  0  0  0  0  0  0  0  0  0
   42.6200   68.3900   31.4430 C   0  0  0  0  0  0  0  0  0  0  0  0
   42.5550   69.6390   32.0320 C   0  0  0  0  0  0  0  0  0  0  0  0
   43.6350   70.4900   31.8610 C   0  0  0  0  0  0  0  0  0  0  0  0
   43.5390   71.7940   32.4910 C   0  0  0  0  0  0  0  0  0  0  0  0
   43.6000   71.9780   33.8270 N   0  0  0  0  0  0  0  0  0  0  0  0
   43.4920   73.2290   34.1660 O   0  0  0  0  0  0  0  0  0  0  0  0
   43.3540   73.9290   33.0570 C   0  0  0  0  0  0  0  0  0  0  0  0
   43.3840   73.0550   32.0710 N   0  0  0  0  0  0  0  0  0  0  0  0
   43.1930   75.2860   32.6770 N   0  0  0  0  0  0  0  0  0  0  0  0
   43.8030   75.8180   31.4470 C   0  0  0  0  0  0  0  0  0  0  0  0
   43.9800   77.2940   31.8140 C   0  0  0  0  0  0  0  0  0  0  0  0
   42.6030   77.5460   32.4090 C   0  0  0  0  0  0  0  0  0  0  0  0
   42.4590   76.3560   33.3490 C   0  0  0  0  0  0  0  0  0  0  0  0
   47.0570   72.8260   29.8650 C   0  0  0  0  0  0  0  0  0  0  0  0
   45.8880   72.0360   30.0110 C   0  0  0  0  0  0  0  0  0  0  0  0
   45.8860   70.9750   30.9290 C   0  0  0  0  0  0  0  0  0  0  0  0
   47.0070   70.7510   31.6360 N   0  0  0  0  0  0  0  0  0  0  0  0
   48.1320   71.5310   31.4770 C   0  0  0  0  0  0  0  0  0  0  0  0
   48.1420   72.5320   30.6150 N   0  0  0  0  0  0  0  0  0  0  0  0
   49.2450   71.1760   32.2950 N   0  0  0  0  0  0  0  0  0  0  0  0
   50.3000   71.9920   32.4820 C   0  0  0  0  0  0  0  0  0  0  0  0
   51.3040   71.5150   33.2990 C   0  0  0  0  0  0  0  0  0  0  0  0
   52.4960   72.3680   33.5450 C   0  0  0  0  0  0  0  0  0  0  0  0
   51.2730   70.2790   33.9120 C   0  0  0  0  0  0  0  0  0  0  0  0
   52.2280   69.9110   34.6450 O   0  0  0  0  0  0  0  0  0  0  0  0
   50.1860   69.5070   33.6840 N   0  0  0  0  0  0  0  0  0  0  0  0
   49.1820   69.9640   32.8770 C   0  0  0  0  0  0  0  0  0  0  0  0
   48.2510   69.1240   32.7720 O   0  0  0  0  0  0  0  0  0  0  0  0
   45.6773   68.5704   29.9634 H   0  0  0  0  0  0  0  0  0  0  0  0
   43.7372   66.9875   30.2473 H   0  0  0  0  0  0  0  0  0  0  0  0
   41.7745   67.6972   31.5665 H   0  0  0  0  0  0  0  0  0  0  0  0
   41.6756   69.9468   32.6167 H   0  0  0  0  0  0  0  0  0  0  0  0
   43.1358   75.6956   30.5811 H   0  0  0  0  0  0  0  0  0  0  0  0
   44.7341   75.3126   31.1509 H   0  0  0  0  0  0  0  0  0  0  0  0
   44.7833   77.4444   32.5502 H   0  0  0  0  0  0  0  0  0  0  0  0
   44.2723   77.9595   30.9883 H   0  0  0  0  0  0  0  0  0  0  0  0
   42.5702   78.4986   32.9580 H   0  0  0  0  0  0  0  0  0  0  0  0
   41.7992   77.6292   31.6627 H   0  0  0  0  0  0  0  0  0  0  0  0
   41.4008   76.0842   33.4769 H   0  0  0  0  0  0  0  0  0  0  0  0
   42.8427   76.5643   34.3586 H   0  0  0  0  0  0  0  0  0  0  0  0
   47.0800   73.6642   29.1530 H   0  0  0  0  0  0  0  0  0  0  0  0
   44.9922   72.2530   29.4106 H   0  0  0  0  0  0  0  0  0  0  0  0
   50.3579   72.9837   32.0095 H   0  0  0  0  0  0  0  0  0  0  0  0
   52.6505   72.4785   34.6285 H   0  0  0  0  0  0  0  0  0  0  0  0
   53.3825   71.8980   33.0943 H   0  0  0  0  0  0  0  0  0  0  0  0
   52.3372   73.3588   33.0943 H   0  0  0  0  0  0  0  0  0  0  0  0
   50.1149   68.5757   34.1181 H   0  0  0  0  0  0  0  0  0  0  0  0
  1  6  2  0
  2  3  2  0
  2  1  1  0
  3  4  1  0
  4  5  2  0
  6  5  1  0
  6  7  1  0
  7  8  2  0
  8  9  1  0
 10  9  1  0
 11  7  1  0
 11 10  2  0
 12 10  1  0
 12 16  1  0
 13 14  1  0
 13 12  1  0
 14 15  1  0
 15 16  1  0
 17 18  2  0
 17 22  1  0
 18 19  1  0
 19  1  1  0
 19 20  2  0
 21 20  1  0
 21 23  1  0
 22 21  2  0
 23 24  1  0
 23 30  1  0
 24 25  2  0
 25 26  1  0
 25 27  1  0
 27 28  2  0
 29 27  1  0
 30 29  1  0
 31 30  2  0
  2 32  1  0
  3 33  1  0
  4 34  1  0
  5 35  1  0
 13 36  1  0
 13 37  1  0
 14 38  1  0
 14 39  1  0
 15 40  1  0
 15 41  1  0
 16 42  1  0
 16 43  1  0
 17 44  1  0
 18 45  1  0
 24 46  1  0
 26 47  1  0
 26 48  1  0
 26 49  1  0
 29 50  1  0
M  END
>  <Score>  (1) 
-7.75251

$$$$
