
     RDKit          3D

 48 52  0  0  0  0  0  0  0  0999 V2000
   45.6970   74.9200   31.3890 C   0  0  0  0  0  0  0  0  0  0  0  0
   44.4080   74.4020   31.2020 C   0  0  0  0  0  0  0  0  0  0  0  0
   44.3300   73.1910   30.5250 C   0  0  0  0  0  0  0  0  0  0  0  0
   45.4430   72.5650   30.0800 N   0  0  0  0  0  0  0  0  0  0  0  0
   46.6470   73.1070   30.2870 C   0  0  0  0  0  0  0  0  0  0  0  0
   46.7920   74.2790   30.9360 N   0  0  0  0  0  0  0  0  0  0  0  0
   43.3440   75.2040   31.7490 C   0  0  0  0  0  0  0  0  0  0  0  0
   43.7050   76.5590   31.9040 C   0  0  0  0  0  0  0  0  0  0  0  0
   42.8360   77.4970   32.4090 C   0  0  0  0  0  0  0  0  0  0  0  0
   41.5570   77.1290   32.7860 C   0  0  0  0  0  0  0  0  0  0  0  0
   41.2060   75.7880   32.6310 C   0  0  0  0  0  0  0  0  0  0  0  0
   39.9600   75.3150   32.9740 C   0  0  0  0  0  0  0  0  0  0  0  0
   39.6050   73.9920   32.8230 C   0  0  0  0  0  0  0  0  0  0  0  0
   40.5270   73.1050   32.3100 C   0  0  0  0  0  0  0  0  0  0  0  0
   41.7850   73.5560   31.9580 C   0  0  0  0  0  0  0  0  0  0  0  0
   42.0740   74.8700   32.1300 C   0  0  0  0  0  0  0  0  0  0  0  0
   47.8490   72.3620   29.7700 C   0  0  0  0  0  0  0  0  0  0  0  0
   47.8970   70.9690   30.3420 C   0  0  0  0  0  0  0  0  0  0  0  0
   47.9850   70.7180   31.7390 C   0  0  0  0  0  0  0  0  0  0  0  0
   47.9980   68.8920   31.7650 S   0  0  0  0  0  0  0  0  0  0  0  0
   47.8860   68.7720   29.9270 C   0  0  0  0  0  0  0  0  0  0  0  0
   47.8540   69.9370   29.5370 N   0  0  0  0  0  0  0  0  0  0  0  0
   47.8490   67.5360   29.1950 N   0  0  0  0  0  0  0  0  0  0  0  0
   49.0540   66.9780   29.0090 C   0  0  0  0  0  0  0  0  0  0  0  0
   49.1280   65.7730   28.3090 C   0  0  0  0  0  0  0  0  0  0  0  0
   50.4470   65.1280   28.0860 C   0  0  0  0  0  0  0  0  0  0  0  0
   47.9450   65.2060   27.8340 C   0  0  0  0  0  0  0  0  0  0  0  0
   47.9770   64.1130   27.1940 O   0  0  0  0  0  0  0  0  0  0  0  0
   46.7810   65.8420   28.0690 N   0  0  0  0  0  0  0  0  0  0  0  0
   46.7060   67.0080   28.7470 C   0  0  0  0  0  0  0  0  0  0  0  0
   45.6340   67.6220   28.9820 O   0  0  0  0  0  0  0  0  0  0  0  0
   45.8178   75.8757   31.9200 H   0  0  0  0  0  0  0  0  0  0  0  0
   43.3455   72.7335   30.3479 H   0  0  0  0  0  0  0  0  0  0  0  0
   44.7167   76.8759   31.6107 H   0  0  0  0  0  0  0  0  0  0  0  0
   43.1588   78.5434   32.5136 H   0  0  0  0  0  0  0  0  0  0  0  0
   40.8459   77.8638   33.1914 H   0  0  0  0  0  0  0  0  0  0  0  0
   39.2204   76.0187   33.3837 H   0  0  0  0  0  0  0  0  0  0  0  0
   38.5996   73.6485   33.1080 H   0  0  0  0  0  0  0  0  0  0  0  0
   40.2631   72.0449   32.1816 H   0  0  0  0  0  0  0  0  0  0  0  0
   42.5355   72.8645   31.5473 H   0  0  0  0  0  0  0  0  0  0  0  0
   47.7918   72.3005   28.6732 H   0  0  0  0  0  0  0  0  0  0  0  0
   48.7580   72.9015   30.0744 H   0  0  0  0  0  0  0  0  0  0  0  0
   48.0324   71.4300   32.5762 H   0  0  0  0  0  0  0  0  0  0  0  0
   49.9631   67.4589   29.3991 H   0  0  0  0  0  0  0  0  0  0  0  0
   50.9126   64.9003   29.0563 H   0  0  0  0  0  0  0  0  0  0  0  0
   50.3082   64.1961   27.5183 H   0  0  0  0  0  0  0  0  0  0  0  0
   51.0973   65.8098   27.5183 H   0  0  0  0  0  0  0  0  0  0  0  0
   45.9098   65.4207   27.7162 H   0  0  0  0  0  0  0  0  0  0  0  0
  2  1  2  0
  2  7  1  0
  3  2  1  0
  4  5  1  0
  4  3  2  0
  5  6  2  0
  6  1  1  0
  7  8  2  0
  7 16  1  0
  8  9  1  0
  9 10  2  0
 11 10  1  0
 11 12  2  0
 13 12  1  0
 14 13  2  0
 15 16  2  0
 15 14  1  0
 16 11  1  0
 17  5  1  0
 17 18  1  0
 18 19  2  0
 19 20  1  0
 21 20  1  0
 22 21  2  0
 22 18  1  0
 23 21  1  0
 24 23  1  0
 25 24  2  0
 26 25  1  0
 27 29  1  0
 27 25  1  0
 28 27  2  0
 29 30  1  0
 30 31  2  0
 30 23  1  0
  1 32  1  0
  3 33  1  0
  8 34  1  0
  9 35  1  0
 10 36  1  0
 12 37  1  0
 13 38  1  0
 14 39  1  0
 15 40  1  0
 17 41  1  0
 17 42  1  0
 19 43  1  0
 24 44  1  0
 26 45  1  0
 26 46  1  0
 26 47  1  0
 29 48  1  0
M  END
>  <Score>  (1) 
-7.05482

$$$$
