
     RDKit          3D

 46 51  0  0  0  0  0  0  0  0999 V2000
   42.2020   69.0650   31.7640 C   0  0  0  0  0  0  0  0  0  0  0  0
   42.4360   67.8770   31.0420 C   0  0  0  0  0  0  0  0  0  0  0  0
   43.6540   67.7460   30.3310 C   0  0  0  0  0  0  0  0  0  0  0  0
   44.5220   68.7780   30.3900 N   0  0  0  0  0  0  0  0  0  0  0  0
   44.2780   69.8970   31.0810 C   0  0  0  0  0  0  0  0  0  0  0  0
   43.1260   70.0410   31.7630 N   0  0  0  0  0  0  0  0  0  0  0  0
   43.9060   66.5620   29.6030 N   0  0  0  0  0  0  0  0  0  0  0  0
   44.5410   66.4550   28.4260 C   0  0  0  0  0  0  0  0  0  0  0  0
   44.5840   65.1520   28.0500 N   0  0  0  0  0  0  0  0  0  0  0  0
   43.9700   64.4250   28.9990 C   0  0  0  0  0  0  0  0  0  0  0  0
   43.7440   63.0660   29.0980 C   0  0  0  0  0  0  0  0  0  0  0  0
   44.1140   62.2250   28.2340 O   0  0  0  0  0  0  0  0  0  0  0  0
   43.0950   62.5520   30.1610 N   0  0  0  0  0  0  0  0  0  0  0  0
   42.6890   63.4350   31.1000 C   0  0  0  0  0  0  0  0  0  0  0  0
   41.9810   63.1130   32.3120 N   0  0  0  0  0  0  0  0  0  0  0  0
   42.9080   64.7670   31.0070 N   0  0  0  0  0  0  0  0  0  0  0  0
   43.5500   65.3190   29.9650 C   0  0  0  0  0  0  0  0  0  0  0  0
   45.2550   70.9970   31.1140 C   0  0  0  0  0  0  0  0  0  0  0  0
   46.5790   70.7220   30.8940 C   0  0  0  0  0  0  0  0  0  0  0  0
   47.4730   71.7550   30.9290 C   0  0  0  0  0  0  0  0  0  0  0  0
   47.0710   73.0610   31.1820 C   0  0  0  0  0  0  0  0  0  0  0  0
   45.7160   73.3040   31.4030 C   0  0  0  0  0  0  0  0  0  0  0  0
   44.8550   72.2720   31.3630 N   0  0  0  0  0  0  0  0  0  0  0  0
   45.1240   74.6300   31.6850 C   0  0  0  0  0  0  0  0  0  0  0  0
   45.3940   75.8130   31.1150 N   0  0  0  0  0  0  0  0  0  0  0  0
   44.6790   76.7540   31.6190 O   0  0  0  0  0  0  0  0  0  0  0  0
   43.8980   76.2520   32.5480 C   0  0  0  0  0  0  0  0  0  0  0  0
   44.1860   74.9410   32.5760 N   0  0  0  0  0  0  0  0  0  0  0  0
   42.9380   76.8540   33.3890 N   0  0  0  0  0  0  0  0  0  0  0  0
   41.6070   76.6080   33.1680 C   0  0  0  0  0  0  0  0  0  0  0  0
   40.8270   77.2600   34.0610 N   0  0  0  0  0  0  0  0  0  0  0  0
   41.7030   77.9210   34.8490 C   0  0  0  0  0  0  0  0  0  0  0  0
   42.9670   77.6710   34.4380 N   0  0  0  0  0  0  0  0  0  0  0  0
   41.2655   69.1928   32.3268 H   0  0  0  0  0  0  0  0  0  0  0  0
   41.6891   67.0695   31.0310 H   0  0  0  0  0  0  0  0  0  0  0  0
   44.9621   67.2947   27.8537 H   0  0  0  0  0  0  0  0  0  0  0  0
   42.9180   61.5415   30.2529 H   0  0  0  0  0  0  0  0  0  0  0  0
   41.7144   63.8618   32.9671 H   0  0  0  0  0  0  0  0  0  0  0  0
   41.7412   62.1339   32.5237 H   0  0  0  0  0  0  0  0  0  0  0  0
   46.9146   69.6937   30.6939 H   0  0  0  0  0  0  0  0  0  0  0  0
   48.5387   71.5473   30.7523 H   0  0  0  0  0  0  0  0  0  0  0  0
   47.8029   73.8818   31.2072 H   0  0  0  0  0  0  0  0  0  0  0  0
   41.3453   76.9429   32.1534 H   0  0  0  0  0  0  0  0  0  0  0  0
   41.4323   75.5279   33.2813 H   0  0  0  0  0  0  0  0  0  0  0  0
   41.4293   78.5656   35.6973 H   0  0  0  0  0  0  0  0  0  0  0  0
   43.8198   78.0540   34.8704 H   0  0  0  0  0  0  0  0  0  0  0  0
  2  1  2  0
  3  4  2  0
  3  2  1  0
  4  5  1  0
  5 18  1  0
  5  6  2  0
  6  1  1  0
  7 17  1  0
  7  3  1  0
  8  7  1  0
  9  8  2  0
  9 10  1  0
 10 11  1  0
 10 17  2  0
 11 13  1  0
 12 11  2  0
 13 14  1  0
 14 15  1  0
 16 14  2  0
 17 16  1  0
 18 23  2  0
 19 20  2  0
 19 18  1  0
 20 21  1  0
 21 22  2  0
 22 24  1  0
 23 22  1  0
 24 28  1  0
 25 26  1  0
 25 24  2  0
 26 27  1  0
 27 28  2  0
 27 29  1  0
 29 33  1  0
 30 29  1  0
 30 31  1  0
 31 32  2  0
 33 32  1  0
  1 34  1  0
  2 35  1  0
  8 36  1  0
 13 37  1  0
 15 38  1  0
 15 39  1  0
 19 40  1  0
 20 41  1  0
 21 42  1  0
 30 43  1  0
 30 44  1  0
 32 45  1  0
 33 46  1  0
M  END
>  <Score>  (1) 
-7.04702

$$$$
