
     RDKit          3D

 50 54  0  0  0  0  0  0  0  0999 V2000
   46.7160   71.0150   30.0370 C   0  0  0  0  0  0  0  0  0  0  0  0
   47.6880   72.0090   30.0570 C   0  0  0  0  0  0  0  0  0  0  0  0
   47.1110   73.1700   30.4940 C   0  0  0  0  0  0  0  0  0  0  0  0
   45.8030   72.8290   30.7220 C   0  0  0  0  0  0  0  0  0  0  0  0
   45.5620   71.5420   30.4510 O   0  0  0  0  0  0  0  0  0  0  0  0
   48.3370   69.2150   29.3600 C   0  0  0  0  0  0  0  0  0  0  0  0
   47.0130   69.6400   29.6160 C   0  0  0  0  0  0  0  0  0  0  0  0
   45.9320   68.7730   29.4810 C   0  0  0  0  0  0  0  0  0  0  0  0
   46.2170   67.4950   29.0900 N   0  0  0  0  0  0  0  0  0  0  0  0
   47.5000   67.1000   28.8480 C   0  0  0  0  0  0  0  0  0  0  0  0
   48.5440   67.9510   28.9820 N   0  0  0  0  0  0  0  0  0  0  0  0
   47.7850   65.7650   28.4420 N   0  0  0  0  0  0  0  0  0  0  0  0
   46.8390   64.9750   27.6590 C   0  0  0  0  0  0  0  0  0  0  0  0
   47.7300   64.0170   26.8640 C   0  0  0  0  0  0  0  0  0  0  0  0
   48.8440   64.7260   26.4530 O   0  0  0  0  0  0  0  0  0  0  0  0
   49.7670   64.9560   27.4530 C   0  0  0  0  0  0  0  0  0  0  0  0
   49.0540   65.1370   28.8050 C   0  0  0  0  0  0  0  0  0  0  0  0
   44.7570   73.6600   31.1890 N   0  0  0  0  0  0  0  0  0  0  0  0
   43.4910   73.2960   31.4530 C   0  0  0  0  0  0  0  0  0  0  0  0
   42.8440   74.4350   31.8860 C   0  0  0  0  0  0  0  0  0  0  0  0
   43.7790   75.4330   31.8540 N   0  0  0  0  0  0  0  0  0  0  0  0
   44.9520   74.9610   31.4280 C   0  0  0  0  0  0  0  0  0  0  0  0
   46.0500   75.8340   31.3230 N   0  0  0  0  0  0  0  0  0  0  0  0
   41.4720   74.4550   32.2660 N   0  0  0  0  0  0  0  0  0  0  0  0
   40.8700   73.2470   32.1930 C   0  0  0  0  0  0  0  0  0  0  0  0
   39.5280   73.1820   32.5490 C   0  0  0  0  0  0  0  0  0  0  0  0
   38.8550   74.3360   32.9600 C   0  0  0  0  0  0  0  0  0  0  0  0
   37.4870   74.2060   33.3090 N   0  0  0  0  0  0  0  0  0  0  0  0
   39.5350   75.5080   33.0040 N   0  0  0  0  0  0  0  0  0  0  0  0
   40.8460   75.5810   32.6590 C   0  0  0  0  0  0  0  0  0  0  0  0
   41.4580   76.6620   32.7030 O   0  0  0  0  0  0  0  0  0  0  0  0
   48.7424   71.8832   29.7700 H   0  0  0  0  0  0  0  0  0  0  0  0
   47.5874   74.1520   30.6310 H   0  0  0  0  0  0  0  0  0  0  0  0
   49.1806   69.9123   29.4701 H   0  0  0  0  0  0  0  0  0  0  0  0
   44.9006   69.1002   29.6791 H   0  0  0  0  0  0  0  0  0  0  0  0
   46.1550   64.4186   28.3167 H   0  0  0  0  0  0  0  0  0  0  0  0
   46.2003   65.5954   27.0131 H   0  0  0  0  0  0  0  0  0  0  0  0
   48.0359   63.1738   27.5007 H   0  0  0  0  0  0  0  0  0  0  0  0
   47.1867   63.6142   25.9965 H   0  0  0  0  0  0  0  0  0  0  0  0
   50.4543   64.0995   27.5168 H   0  0  0  0  0  0  0  0  0  0  0  0
   50.3285   65.8723   27.2185 H   0  0  0  0  0  0  0  0  0  0  0  0
   49.6375   65.7877   29.4729 H   0  0  0  0  0  0  0  0  0  0  0  0
   48.9225   64.1902   29.3494 H   0  0  0  0  0  0  0  0  0  0  0  0
   43.0571   72.2909   31.3454 H   0  0  0  0  0  0  0  0  0  0  0  0
   45.9444   76.8270   31.5752 H   0  0  0  0  0  0  0  0  0  0  0  0
   46.9596   75.4802   30.9939 H   0  0  0  0  0  0  0  0  0  0  0  0
   41.4195   72.3522   31.8653 H   0  0  0  0  0  0  0  0  0  0  0  0
   38.9947   72.2208   32.5072 H   0  0  0  0  0  0  0  0  0  0  0  0
   36.9535   75.0314   33.6172 H   0  0  0  0  0  0  0  0  0  0  0  0
   37.0267   73.2862   33.2543 H   0  0  0  0  0  0  0  0  0  0  0  0
  1  2  2  0
  1  5  1  0
  2  3  1  0
  3  4  2  0
  4 18  1  0
  5  4  1  0
  6  7  2  0
  7  1  1  0
  8  7  1  0
  9  8  2  0
 10 11  2  0
 10  9  1  0
 11  6  1  0
 12 17  1  0
 12 10  1  0
 13 12  1  0
 14 13  1  0
 15 14  1  0
 15 16  1  0
 16 17  1  0
 18 22  1  0
 18 19  1  0
 19 20  2  0
 20 24  1  0
 21 20  1  0
 22 21  2  0
 23 22  1  0
 24 30  1  0
 25 24  1  0
 25 26  2  0
 26 27  1  0
 27 29  2  0
 27 28  1  0
 30 31  2  0
 30 29  1  0
  2 32  1  0
  3 33  1  0
  6 34  1  0
  8 35  1  0
 13 36  1  0
 13 37  1  0
 14 38  1  0
 14 39  1  0
 16 40  1  0
 16 41  1  0
 17 42  1  0
 17 43  1  0
 19 44  1  0
 23 45  1  0
 23 46  1  0
 25 47  1  0
 26 48  1  0
 28 49  1  0
 28 50  1  0
M  END
>  <Score>  (1) 
-7.11352

$$$$
