
     RDKit          3D

 43 47  0  0  0  0  0  0  0  0999 V2000
   44.5960   74.7770   31.5880 C   0  0  0  0  0  0  0  0  0  0  0  0
   45.4650   75.8360   31.3920 C   0  0  0  0  0  0  0  0  0  0  0  0
   44.9000   77.0620   31.7460 C   0  0  0  0  0  0  0  0  0  0  0  0
   43.6400   77.2180   32.2310 C   0  0  0  0  0  0  0  0  0  0  0  0
   42.8440   76.1260   32.3950 C   0  0  0  0  0  0  0  0  0  0  0  0
   43.3380   74.8940   32.0670 N   0  0  0  0  0  0  0  0  0  0  0  0
   41.4940   76.1220   32.8960 N   0  0  0  0  0  0  0  0  0  0  0  0
   40.9990   76.7340   33.9800 C   0  0  0  0  0  0  0  0  0  0  0  0
   39.6700   76.5860   34.2600 C   0  0  0  0  0  0  0  0  0  0  0  0
   38.8410   75.8300   33.4580 C   0  0  0  0  0  0  0  0  0  0  0  0
   37.6110   75.7320   33.7740 O   0  0  0  0  0  0  0  0  0  0  0  0
   39.3800   75.2320   32.3780 N   0  0  0  0  0  0  0  0  0  0  0  0
   40.6890   75.3820   32.1090 C   0  0  0  0  0  0  0  0  0  0  0  0
   41.0400   74.7580   31.0630 O   0  0  0  0  0  0  0  0  0  0  0  0
   44.6870   71.0620   31.1650 C   0  0  0  0  0  0  0  0  0  0  0  0
   44.2380   72.3560   31.5020 C   0  0  0  0  0  0  0  0  0  0  0  0
   45.0490   73.4430   31.2560 C   0  0  0  0  0  0  0  0  0  0  0  0
   46.2670   73.2290   30.6920 N   0  0  0  0  0  0  0  0  0  0  0  0
   46.6770   71.9860   30.3790 C   0  0  0  0  0  0  0  0  0  0  0  0
   45.8900   70.9290   30.6170 N   0  0  0  0  0  0  0  0  0  0  0  0
   43.8490   69.9250   31.3740 N   0  0  0  0  0  0  0  0  0  0  0  0
   44.1790   68.6910   30.9730 C   0  0  0  0  0  0  0  0  0  0  0  0
   43.0550   67.9140   31.3530 C   0  0  0  0  0  0  0  0  0  0  0  0
   42.1370   68.7170   31.9480 N   0  0  0  0  0  0  0  0  0  0  0  0
   42.6390   69.9840   31.9610 C   0  0  0  0  0  0  0  0  0  0  0  0
   41.7640   70.8690   32.5630 N   0  0  0  0  0  0  0  0  0  0  0  0
   40.4260   70.7720   32.2880 C   0  0  0  0  0  0  0  0  0  0  0  0
   39.7040   71.7420   32.9460 C   0  0  0  0  0  0  0  0  0  0  0  0
   40.6340   72.4330   33.6290 N   0  0  0  0  0  0  0  0  0  0  0  0
   41.8660   71.9360   33.4180 C   0  0  0  0  0  0  0  0  0  0  0  0
   46.4870   75.7239   31.0009 H   0  0  0  0  0  0  0  0  0  0  0  0
   45.5171   77.9644   31.6241 H   0  0  0  0  0  0  0  0  0  0  0  0
   43.2660   78.2197   32.4892 H   0  0  0  0  0  0  0  0  0  0  0  0
   41.6471   77.3412   34.6291 H   0  0  0  0  0  0  0  0  0  0  0  0
   39.2506   77.0824   35.1475 H   0  0  0  0  0  0  0  0  0  0  0  0
   38.7893   74.6596   31.7580 H   0  0  0  0  0  0  0  0  0  0  0  0
   43.2470   72.4967   31.9582 H   0  0  0  0  0  0  0  0  0  0  0  0
   47.6672   71.8370   29.9237 H   0  0  0  0  0  0  0  0  0  0  0  0
   45.0996   68.3598   30.4702 H   0  0  0  0  0  0  0  0  0  0  0  0
   42.9448   66.8316   31.1910 H   0  0  0  0  0  0  0  0  0  0  0  0
   39.9837   70.0142   31.6246 H   0  0  0  0  0  0  0  0  0  0  0  0
   38.6176   71.9125   32.9193 H   0  0  0  0  0  0  0  0  0  0  0  0
   42.7982   72.3207   33.8573 H   0  0  0  0  0  0  0  0  0  0  0  0
  1  6  1  0
  2  1  2  0
  2  3  1  0
  3  4  2  0
  4  5  1  0
  5  7  1  0
  6  5  2  0
  7  8  1  0
  8  9  2  0
 10 11  2  0
 10  9  1  0
 12 10  1  0
 13 12  1  0
 13  7  1  0
 14 13  2  0
 15 21  1  0
 15 16  2  0
 17 16  1  0
 17  1  1  0
 18 17  2  0
 19 20  2  0
 19 18  1  0
 20 15  1  0
 21 25  1  0
 22 23  2  0
 22 21  1  0
 23 24  1  0
 24 25  2  0
 25 26  1  0
 26 30  1  0
 27 26  1  0
 27 28  2  0
 28 29  1  0
 30 29  2  0
  2 31  1  0
  3 32  1  0
  4 33  1  0
  8 34  1  0
  9 35  1  0
 12 36  1  0
 16 37  1  0
 19 38  1  0
 22 39  1  0
 23 40  1  0
 27 41  1  0
 28 42  1  0
 30 43  1  0
M  END
>  <Score>  (1) 
-7.26108

$$$$
