
     RDKit          3D

 51 56  0  0  0  0  0  0  0  0999 V2000
   44.7710   70.1050   31.0970 C   0  0  0  0  0  0  0  0  0  0  0  0
   44.8510   68.8410   30.5360 C   0  0  0  0  0  0  0  0  0  0  0  0
   43.7760   67.9520   30.6260 C   0  0  0  0  0  0  0  0  0  0  0  0
   42.6290   68.3660   31.2910 C   0  0  0  0  0  0  0  0  0  0  0  0
   42.5170   69.6220   31.8630 C   0  0  0  0  0  0  0  0  0  0  0  0
   43.6120   70.4660   31.7450 C   0  0  0  0  0  0  0  0  0  0  0  0
   43.4700   71.7820   32.3580 C   0  0  0  0  0  0  0  0  0  0  0  0
   43.3110   71.9580   33.6850 N   0  0  0  0  0  0  0  0  0  0  0  0
   43.2100   73.2140   34.0030 O   0  0  0  0  0  0  0  0  0  0  0  0
   43.2970   73.9270   32.8930 C   0  0  0  0  0  0  0  0  0  0  0  0
   43.4550   73.0510   31.9100 N   0  0  0  0  0  0  0  0  0  0  0  0
   43.2700   75.2840   32.5070 N   0  0  0  0  0  0  0  0  0  0  0  0
   44.1220   75.7890   31.4050 C   0  0  0  0  0  0  0  0  0  0  0  0
   44.3090   77.2570   31.8150 C   0  0  0  0  0  0  0  0  0  0  0  0
   42.8620   77.5780   32.1680 C   0  0  0  0  0  0  0  0  0  0  0  0
   42.4930   76.3920   33.0310 C   0  0  0  0  0  0  0  0  0  0  0  0
   47.1980   72.7330   29.9230 C   0  0  0  0  0  0  0  0  0  0  0  0
   46.0140   71.9580   29.9730 C   0  0  0  0  0  0  0  0  0  0  0  0
   45.9180   70.9510   30.9440 C   0  0  0  0  0  0  0  0  0  0  0  0
   46.9630   70.8010   31.7530 N   0  0  0  0  0  0  0  0  0  0  0  0
   48.1060   71.5280   31.7260 C   0  0  0  0  0  0  0  0  0  0  0  0
   48.1840   72.4880   30.7920 N   0  0  0  0  0  0  0  0  0  0  0  0
   49.2870   71.4350   32.5640 C   0  0  0  0  0  0  0  0  0  0  0  0
   50.3730   72.1690   32.3420 N   0  0  0  0  0  0  0  0  0  0  0  0
   51.4820   72.1170   33.0870 C   0  0  0  0  0  0  0  0  0  0  0  0
   51.6060   71.3020   34.1500 N   0  0  0  0  0  0  0  0  0  0  0  0
   50.5470   70.5110   34.4570 C   0  0  0  0  0  0  0  0  0  0  0  0
   50.6420   69.6690   35.5330 C   0  0  0  0  0  0  0  0  0  0  0  0
   49.5900   68.8510   35.8780 C   0  0  0  0  0  0  0  0  0  0  0  0
   48.4360   68.9160   35.0900 C   0  0  0  0  0  0  0  0  0  0  0  0
   48.4120   69.7840   34.0240 C   0  0  0  0  0  0  0  0  0  0  0  0
   49.4330   70.6080   33.6550 C   0  0  0  0  0  0  0  0  0  0  0  0
   45.7695   68.5338   30.0145 H   0  0  0  0  0  0  0  0  0  0  0  0
   43.8370   66.9481   30.1806 H   0  0  0  0  0  0  0  0  0  0  0  0
   41.7794   67.6714   31.3659 H   0  0  0  0  0  0  0  0  0  0  0  0
   41.6022   69.9362   32.3868 H   0  0  0  0  0  0  0  0  0  0  0  0
   43.6144   75.7043   30.4328 H   0  0  0  0  0  0  0  0  0  0  0  0
   45.0634   75.2352   31.2744 H   0  0  0  0  0  0  0  0  0  0  0  0
   44.9802   77.3636   32.6799 H   0  0  0  0  0  0  0  0  0  0  0  0
   44.7728   77.9088   31.0600 H   0  0  0  0  0  0  0  0  0  0  0  0
   42.7846   78.5219   32.7276 H   0  0  0  0  0  0  0  0  0  0  0  0
   42.2076   77.7188   31.2951 H   0  0  0  0  0  0  0  0  0  0  0  0
   41.4166   76.1789   32.9539 H   0  0  0  0  0  0  0  0  0  0  0  0
   42.7045   76.5758   34.0947 H   0  0  0  0  0  0  0  0  0  0  0  0
   47.3058   73.5314   29.1741 H   0  0  0  0  0  0  0  0  0  0  0  0
   45.1900   72.1414   29.2677 H   0  0  0  0  0  0  0  0  0  0  0  0
   52.3278   72.7675   32.8197 H   0  0  0  0  0  0  0  0  0  0  0  0
   51.5675   69.6462   36.1270 H   0  0  0  0  0  0  0  0  0  0  0  0
   49.6544   68.1718   36.7409 H   0  0  0  0  0  0  0  0  0  0  0  0
   47.5646   68.2849   35.3188 H   0  0  0  0  0  0  0  0  0  0  0  0
   47.4936   69.8160   33.4195 H   0  0  0  0  0  0  0  0  0  0  0  0
  1  6  2  0
  2  3  2  0
  2  1  1  0
  3  4  1  0
  4  5  2  0
  6  5  1  0
  6  7  1  0
  7  8  2  0
  8  9  1  0
 10  9  1  0
 11  7  1  0
 11 10  2  0
 12 10  1  0
 12 16  1  0
 13 14  1  0
 13 12  1  0
 14 15  1  0
 15 16  1  0
 17 18  2  0
 17 22  1  0
 18 19  1  0
 19  1  1  0
 19 20  2  0
 21 20  1  0
 21 23  1  0
 22 21  2  0
 23 32  1  0
 24 23  2  0
 24 25  1  0
 25 26  2  0
 26 27  1  0
 27 28  2  0
 28 29  1  0
 30 29  2  0
 31 30  1  0
 32 31  2  0
 32 27  1  0
  2 33  1  0
  3 34  1  0
  4 35  1  0
  5 36  1  0
 13 37  1  0
 13 38  1  0
 14 39  1  0
 14 40  1  0
 15 41  1  0
 15 42  1  0
 16 43  1  0
 16 44  1  0
 17 45  1  0
 18 46  1  0
 25 47  1  0
 28 48  1  0
 29 49  1  0
 30 50  1  0
 31 51  1  0
M  END
>  <Score>  (1) 
-7.23699

$$$$
