
     RDKit          3D

 50 55  0  0  0  0  0  0  0  0999 V2000
   46.6380   71.7150   29.4200 C   0  0  0  0  0  0  0  0  0  0  0  0
   45.7480   71.8170   30.5240 C   0  0  0  0  0  0  0  0  0  0  0  0
   45.2900   70.6490   31.1470 C   0  0  0  0  0  0  0  0  0  0  0  0
   45.7200   69.4520   30.6660 N   0  0  0  0  0  0  0  0  0  0  0  0
   46.5640   69.4030   29.6180 C   0  0  0  0  0  0  0  0  0  0  0  0
   47.0110   70.5100   29.0110 N   0  0  0  0  0  0  0  0  0  0  0  0
   45.3490   73.1700   30.9590 C   0  0  0  0  0  0  0  0  0  0  0  0
   46.2880   74.2200   30.9520 C   0  0  0  0  0  0  0  0  0  0  0  0
   45.3150   75.6650   31.5670 S   0  0  0  0  0  0  0  0  0  0  0  0
   43.7850   74.5480   31.7230 C   0  0  0  0  0  0  0  0  0  0  0  0
   44.1810   73.5750   31.3790 N   0  0  0  0  0  0  0  0  0  0  0  0
   42.5040   75.0030   32.1860 N   0  0  0  0  0  0  0  0  0  0  0  0
   42.1060   76.3760   32.2990 C   0  0  0  0  0  0  0  0  0  0  0  0
   40.9390   76.3730   33.3080 C   0  0  0  0  0  0  0  0  0  0  0  0
   39.8790   75.6350   32.8730 O   0  0  0  0  0  0  0  0  0  0  0  0
   40.1880   74.4730   32.2300 C   0  0  0  0  0  0  0  0  0  0  0  0
   41.5560   73.9690   32.5650 C   0  0  0  0  0  0  0  0  0  0  0  0
   46.9730   68.0770   29.1680 C   0  0  0  0  0  0  0  0  0  0  0  0
   48.1590   67.4700   29.1690 N   0  0  0  0  0  0  0  0  0  0  0  0
   48.0530   66.2590   28.6600 O   0  0  0  0  0  0  0  0  0  0  0  0
   46.7960   66.0380   28.3120 C   0  0  0  0  0  0  0  0  0  0  0  0
   46.1670   67.1600   28.6340 N   0  0  0  0  0  0  0  0  0  0  0  0
   46.4530   64.7610   27.7290 C   0  0  0  0  0  0  0  0  0  0  0  0
   47.3070   64.1400   26.8680 C   0  0  0  0  0  0  0  0  0  0  0  0
   47.0250   62.9030   26.2750 C   0  0  0  0  0  0  0  0  0  0  0  0
   45.8570   62.2570   26.5420 C   0  0  0  0  0  0  0  0  0  0  0  0
   44.9710   62.8450   27.4000 C   0  0  0  0  0  0  0  0  0  0  0  0
   43.7820   62.2100   27.6850 C   0  0  0  0  0  0  0  0  0  0  0  0
   42.8460   62.7510   28.5420 C   0  0  0  0  0  0  0  0  0  0  0  0
   43.1490   63.9870   29.1240 C   0  0  0  0  0  0  0  0  0  0  0  0
   44.3490   64.5820   28.8080 C   0  0  0  0  0  0  0  0  0  0  0  0
   45.2920   64.0630   27.9590 C   0  0  0  0  0  0  0  0  0  0  0  0
   47.0101   72.6185   28.9147 H   0  0  0  0  0  0  0  0  0  0  0  0
   44.6007   70.6988   32.0028 H   0  0  0  0  0  0  0  0  0  0  0  0
   47.3459   74.1874   30.6525 H   0  0  0  0  0  0  0  0  0  0  0  0
   42.9385   76.9901   32.6729 H   0  0  0  0  0  0  0  0  0  0  0  0
   41.8112   76.8014   31.3284 H   0  0  0  0  0  0  0  0  0  0  0  0
   41.2957   75.9523   34.2597 H   0  0  0  0  0  0  0  0  0  0  0  0
   40.5977   77.4116   33.4297 H   0  0  0  0  0  0  0  0  0  0  0  0
   40.1338   74.6469   31.1452 H   0  0  0  0  0  0  0  0  0  0  0  0
   39.4657   73.7113   32.5588 H   0  0  0  0  0  0  0  0  0  0  0  0
   41.7638   73.0449   32.0057 H   0  0  0  0  0  0  0  0  0  0  0  0
   41.6351   73.7437   33.6388 H   0  0  0  0  0  0  0  0  0  0  0  0
   48.2609   64.6324   26.6278 H   0  0  0  0  0  0  0  0  0  0  0  0
   47.7539   62.4494   25.5873 H   0  0  0  0  0  0  0  0  0  0  0  0
   45.6319   61.2852   26.0783 H   0  0  0  0  0  0  0  0  0  0  0  0
   43.5719   61.2388   27.2132 H   0  0  0  0  0  0  0  0  0  0  0  0
   41.9006   62.2322   28.7589 H   0  0  0  0  0  0  0  0  0  0  0  0
   42.4453   64.4711   29.8171 H   0  0  0  0  0  0  0  0  0  0  0  0
   44.5695   65.5533   29.2748 H   0  0  0  0  0  0  0  0  0  0  0  0
  1  2  2  0
  2  7  1  0
  2  3  1  0
  4  3  2  0
  5  4  1  0
  6  1  1  0
  6  5  2  0
  7 11  1  0
  8  7  2  0
  8  9  1  0
  9 10  1  0
 10 12  1  0
 11 10  2  0
 12 13  1  0
 12 17  1  0
 13 14  1  0
 15 14  1  0
 16 17  1  0
 16 15  1  0
 18 19  2  0
 18  5  1  0
 20 19  1  0
 21 22  2  0
 21 20  1  0
 22 18  1  0
 23 32  1  0
 23 21  1  0
 24 23  2  0
 25 26  2  0
 25 24  1  0
 26 27  1  0
 27 28  1  0
 27 32  2  0
 28 29  2  0
 29 30  1  0
 31 30  2  0
 32 31  1  0
  1 33  1  0
  3 34  1  0
  8 35  1  0
 13 36  1  0
 13 37  1  0
 14 38  1  0
 14 39  1  0
 16 40  1  0
 16 41  1  0
 17 42  1  0
 17 43  1  0
 24 44  1  0
 25 45  1  0
 26 46  1  0
 28 47  1  0
 29 48  1  0
 30 49  1  0
 31 50  1  0
M  END
>  <Score>  (1) 
-7.03085

$$$$
