
     RDKit          3D

 50 55  0  0  0  0  0  0  0  0999 V2000
   44.9570   71.1650   30.9590 C   0  0  0  0  0  0  0  0  0  0  0  0
   44.4890   72.4290   31.3290 C   0  0  0  0  0  0  0  0  0  0  0  0
   45.2430   73.5480   31.0600 C   0  0  0  0  0  0  0  0  0  0  0  0
   46.4440   73.3890   30.4220 N   0  0  0  0  0  0  0  0  0  0  0  0
   46.8750   72.1770   30.0730 C   0  0  0  0  0  0  0  0  0  0  0  0
   46.1470   71.0830   30.3380 N   0  0  0  0  0  0  0  0  0  0  0  0
   44.7900   74.8630   31.4880 C   0  0  0  0  0  0  0  0  0  0  0  0
   45.6740   75.9290   31.4350 C   0  0  0  0  0  0  0  0  0  0  0  0
   45.1190   77.1120   31.8820 C   0  0  0  0  0  0  0  0  0  0  0  0
   43.8320   77.2520   32.3350 C   0  0  0  0  0  0  0  0  0  0  0  0
   43.0280   76.1480   32.3540 C   0  0  0  0  0  0  0  0  0  0  0  0
   43.5170   74.9510   31.9280 N   0  0  0  0  0  0  0  0  0  0  0  0
   41.6570   76.1200   32.7970 N   0  0  0  0  0  0  0  0  0  0  0  0
   41.1220   76.6580   33.9170 C   0  0  0  0  0  0  0  0  0  0  0  0
   39.7930   76.5080   34.1580 C   0  0  0  0  0  0  0  0  0  0  0  0
   38.9780   75.8040   33.2580 C   0  0  0  0  0  0  0  0  0  0  0  0
   37.7440   75.6850   33.5170 O   0  0  0  0  0  0  0  0  0  0  0  0
   39.5700   75.2900   32.1590 N   0  0  0  0  0  0  0  0  0  0  0  0
   40.8770   75.4470   31.9400 C   0  0  0  0  0  0  0  0  0  0  0  0
   41.2630   74.9030   30.8670 O   0  0  0  0  0  0  0  0  0  0  0  0
   44.1890   69.9900   31.2500 N   0  0  0  0  0  0  0  0  0  0  0  0
   44.5070   68.7690   30.7420 C   0  0  0  0  0  0  0  0  0  0  0  0
   43.4740   67.9410   31.2170 C   0  0  0  0  0  0  0  0  0  0  0  0
   42.6310   68.6970   31.9570 N   0  0  0  0  0  0  0  0  0  0  0  0
   43.0550   69.9940   32.0040 C   0  0  0  0  0  0  0  0  0  0  0  0
   42.3530   70.9540   32.7920 C   0  0  0  0  0  0  0  0  0  0  0  0
   42.2170   71.8000   33.6470 N   0  0  0  0  0  0  0  0  0  0  0  0
   41.9810   72.6650   34.4770 C   0  0  0  0  0  0  0  0  0  0  0  0
   40.7320   72.8470   34.0980 N   0  0  0  0  0  0  0  0  0  0  0  0
   40.1730   72.1490   33.0790 C   0  0  0  0  0  0  0  0  0  0  0  0
   38.8290   72.3230   32.6310 C   0  0  0  0  0  0  0  0  0  0  0  0
   38.2990   71.6410   31.6200 C   0  0  0  0  0  0  0  0  0  0  0  0
   38.9900   70.7040   30.9130 C   0  0  0  0  0  0  0  0  0  0  0  0
   40.2970   70.5720   31.3910 C   0  0  0  0  0  0  0  0  0  0  0  0
   41.0120   71.2200   32.4570 C   0  0  0  0  0  0  0  0  0  0  0  0
   43.5176   72.5292   31.8354 H   0  0  0  0  0  0  0  0  0  0  0  0
   47.8424   72.0729   29.5599 H   0  0  0  0  0  0  0  0  0  0  0  0
   46.7096   75.8420   31.0745 H   0  0  0  0  0  0  0  0  0  0  0  0
   45.7564   78.0085   31.8741 H   0  0  0  0  0  0  0  0  0  0  0  0
   43.4568   78.2287   32.6744 H   0  0  0  0  0  0  0  0  0  0  0  0
   41.7562   77.2112   34.6254 H   0  0  0  0  0  0  0  0  0  0  0  0
   39.3518   76.9425   35.0671 H   0  0  0  0  0  0  0  0  0  0  0  0
   39.0024   74.7670   31.4769 H   0  0  0  0  0  0  0  0  0  0  0  0
   45.3656   68.4950   30.1113 H   0  0  0  0  0  0  0  0  0  0  0  0
   43.3696   66.8637   31.0205 H   0  0  0  0  0  0  0  0  0  0  0  0
   42.5947   73.1285   35.2634 H   0  0  0  0  0  0  0  0  0  0  0  0
   38.1984   73.0602   33.1495 H   0  0  0  0  0  0  0  0  0  0  0  0
   37.2541   71.8429   31.3417 H   0  0  0  0  0  0  0  0  0  0  0  0
   38.5736   70.1262   30.0747 H   0  0  0  0  0  0  0  0  0  0  0  0
   40.8950   69.8273   30.8453 H   0  0  0  0  0  0  0  0  0  0  0  0
  1 21  1  0
  1  2  2  0
  3  2  1  0
  3  7  1  0
  4  3  2  0
  5  6  2  0
  5  4  1  0
  6  1  1  0
  7 12  1  0
  8  7  2  0
  8  9  1  0
  9 10  2  0
 10 11  1  0
 11 13  1  0
 12 11  2  0
 13 14  1  0
 14 15  2  0
 16 17  2  0
 16 15  1  0
 18 16  1  0
 19 18  1  0
 19 13  1  0
 20 19  2  0
 21 25  1  0
 22 23  2  0
 22 21  1  0
 23 24  1  0
 24 25  2  0
 25 26  1  0
 26 27  2  0
 27 28  1  0
 29 28  2  0
 30 29  1  0
 31 30  2  0
 32 31  1  0
 33 34  1  0
 33 32  2  0
 34 35  2  0
 35 26  1  0
 35 30  1  0
  2 36  1  0
  5 37  1  0
  8 38  1  0
  9 39  1  0
 10 40  1  0
 14 41  1  0
 15 42  1  0
 18 43  1  0
 22 44  1  0
 23 45  1  0
 28 46  1  0
 31 47  1  0
 32 48  1  0
 33 49  1  0
 34 50  1  0
M  END
>  <Score>  (1) 
-7.72263

$$$$
