
     RDKit          3D

 55 60  0  0  0  0  0  0  0  0999 V2000
   46.7250   70.9810   30.0560 C   0  0  0  0  0  0  0  0  0  0  0  0
   47.7170   71.9730   30.0460 C   0  0  0  0  0  0  0  0  0  0  0  0
   47.1710   73.1530   30.4920 C   0  0  0  0  0  0  0  0  0  0  0  0
   45.8650   72.8190   30.7530 C   0  0  0  0  0  0  0  0  0  0  0  0
   45.6230   71.5440   30.4930 O   0  0  0  0  0  0  0  0  0  0  0  0
   48.3200   69.1470   29.3940 C   0  0  0  0  0  0  0  0  0  0  0  0
   47.0150   69.6130   29.6300 C   0  0  0  0  0  0  0  0  0  0  0  0
   45.9130   68.7760   29.4650 C   0  0  0  0  0  0  0  0  0  0  0  0
   46.1740   67.4880   29.0640 N   0  0  0  0  0  0  0  0  0  0  0  0
   47.4330   67.0570   28.8430 C   0  0  0  0  0  0  0  0  0  0  0  0
   48.5010   67.8810   29.0070 N   0  0  0  0  0  0  0  0  0  0  0  0
   47.7200   65.7230   28.4260 N   0  0  0  0  0  0  0  0  0  0  0  0
   46.7600   64.9480   27.6630 C   0  0  0  0  0  0  0  0  0  0  0  0
   47.6150   64.0000   26.8110 C   0  0  0  0  0  0  0  0  0  0  0  0
   48.7470   64.6990   26.3920 O   0  0  0  0  0  0  0  0  0  0  0  0
   49.6770   64.9110   27.3820 C   0  0  0  0  0  0  0  0  0  0  0  0
   48.9730   65.0870   28.7440 C   0  0  0  0  0  0  0  0  0  0  0  0
   44.8310   73.6600   31.2420 N   0  0  0  0  0  0  0  0  0  0  0  0
   43.5970   73.3210   31.5750 C   0  0  0  0  0  0  0  0  0  0  0  0
   42.9240   74.4310   31.9960 C   0  0  0  0  0  0  0  0  0  0  0  0
   43.8630   75.4400   31.8830 N   0  0  0  0  0  0  0  0  0  0  0  0
   45.0100   74.9570   31.4250 C   0  0  0  0  0  0  0  0  0  0  0  0
   46.1120   75.8460   31.2380 N   0  0  0  0  0  0  0  0  0  0  0  0
   41.6260   74.7420   32.5300 C   0  0  0  0  0  0  0  0  0  0  0  0
   41.4490   75.9980   33.1330 C   0  0  0  0  0  0  0  0  0  0  0  0
   40.2690   76.4440   33.6810 C   0  0  0  0  0  0  0  0  0  0  0  0
   39.1570   75.6400   33.6580 C   0  0  0  0  0  0  0  0  0  0  0  0
   39.2690   74.3990   33.0780 C   0  0  0  0  0  0  0  0  0  0  0  0
   38.1550   73.5930   33.0250 C   0  0  0  0  0  0  0  0  0  0  0  0
   38.1800   72.3470   32.4340 C   0  0  0  0  0  0  0  0  0  0  0  0
   39.4080   71.9540   31.8920 C   0  0  0  0  0  0  0  0  0  0  0  0
   40.4910   72.7890   31.9680 C   0  0  0  0  0  0  0  0  0  0  0  0
   40.4670   74.0180   32.5530 C   0  0  0  0  0  0  0  0  0  0  0  0
   48.7616   71.8298   29.7323 H   0  0  0  0  0  0  0  0  0  0  0  0
   47.6622   74.1300   30.6112 H   0  0  0  0  0  0  0  0  0  0  0  0
   49.1824   69.8169   29.5264 H   0  0  0  0  0  0  0  0  0  0  0  0
   44.8869   69.1284   29.6465 H   0  0  0  0  0  0  0  0  0  0  0  0
   46.1003   64.3783   28.3340 H   0  0  0  0  0  0  0  0  0  0  0  0
   46.1054   65.5839   27.0489 H   0  0  0  0  0  0  0  0  0  0  0  0
   47.9155   63.1280   27.4105 H   0  0  0  0  0  0  0  0  0  0  0  0
   47.0415   63.6456   25.9418 H   0  0  0  0  0  0  0  0  0  0  0  0
   50.3569   64.0478   27.4330 H   0  0  0  0  0  0  0  0  0  0  0  0
   50.2462   65.8235   27.1510 H   0  0  0  0  0  0  0  0  0  0  0  0
   49.5727   65.7229   29.4118 H   0  0  0  0  0  0  0  0  0  0  0  0
   48.8338   64.1301   29.2684 H   0  0  0  0  0  0  0  0  0  0  0  0
   43.1790   72.3049   31.5212 H   0  0  0  0  0  0  0  0  0  0  0  0
   46.0087   76.8473   31.4563 H   0  0  0  0  0  0  0  0  0  0  0  0
   47.0100   75.4859   30.8848 H   0  0  0  0  0  0  0  0  0  0  0  0
   42.3164   76.6735   33.1696 H   0  0  0  0  0  0  0  0  0  0  0  0
   40.2166   77.4436   34.1370 H   0  0  0  0  0  0  0  0  0  0  0  0
   38.2042   75.9788   34.0910 H   0  0  0  0  0  0  0  0  0  0  0  0
   37.2149   73.9537   33.4679 H   0  0  0  0  0  0  0  0  0  0  0  0
   37.2896   71.7025   32.3916 H   0  0  0  0  0  0  0  0  0  0  0  0
   39.5041   70.9729   31.4040 H   0  0  0  0  0  0  0  0  0  0  0  0
   41.4392   72.4452   31.5290 H   0  0  0  0  0  0  0  0  0  0  0  0
  1  5  1  0
  2  1  2  0
  2  3  1  0
  3  4  2  0
  4 18  1  0
  5  4  1  0
  6  7  2  0
  7  1  1  0
  8  7  1  0
  9  8  2  0
 10 11  2  0
 10  9  1  0
 11  6  1  0
 12 17  1  0
 12 10  1  0
 13 12  1  0
 14 13  1  0
 15 14  1  0
 15 16  1  0
 16 17  1  0
 18 22  1  0
 18 19  1  0
 19 20  2  0
 20 24  1  0
 21 20  1  0
 22 21  2  0
 23 22  1  0
 24 33  1  0
 24 25  2  0
 25 26  1  0
 27 26  2  0
 28 27  1  0
 29 28  2  0
 30 29  1  0
 31 32  1  0
 31 30  2  0
 32 33  2  0
 33 28  1  0
  2 34  1  0
  3 35  1  0
  6 36  1  0
  8 37  1  0
 13 38  1  0
 13 39  1  0
 14 40  1  0
 14 41  1  0
 16 42  1  0
 16 43  1  0
 17 44  1  0
 17 45  1  0
 19 46  1  0
 23 47  1  0
 23 48  1  0
 25 49  1  0
 26 50  1  0
 27 51  1  0
 29 52  1  0
 30 53  1  0
 31 54  1  0
 32 55  1  0
M  END
>  <Score>  (1) 
-7.55315

$$$$
