
     RDKit          3D

 50 54  0  0  0  0  0  0  0  0999 V2000
   44.7360   70.1280   31.1360 C   0  0  0  0  0  0  0  0  0  0  0  0
   44.8340   68.8620   30.5710 C   0  0  0  0  0  0  0  0  0  0  0  0
   43.7520   67.9670   30.6510 C   0  0  0  0  0  0  0  0  0  0  0  0
   42.6040   68.3790   31.3020 C   0  0  0  0  0  0  0  0  0  0  0  0
   42.4880   69.6460   31.8750 C   0  0  0  0  0  0  0  0  0  0  0  0
   43.5830   70.4870   31.7670 C   0  0  0  0  0  0  0  0  0  0  0  0
   43.4420   71.8020   32.3700 C   0  0  0  0  0  0  0  0  0  0  0  0
   43.2640   71.9920   33.7010 N   0  0  0  0  0  0  0  0  0  0  0  0
   43.1640   73.2520   34.0100 O   0  0  0  0  0  0  0  0  0  0  0  0
   43.2710   73.9540   32.8940 C   0  0  0  0  0  0  0  0  0  0  0  0
   43.4380   73.0690   31.9210 N   0  0  0  0  0  0  0  0  0  0  0  0
   43.2570   75.3080   32.4980 N   0  0  0  0  0  0  0  0  0  0  0  0
   44.1210   75.7950   31.4190 C   0  0  0  0  0  0  0  0  0  0  0  0
   44.3030   77.2670   31.8220 C   0  0  0  0  0  0  0  0  0  0  0  0
   42.8410   77.5960   32.1100 C   0  0  0  0  0  0  0  0  0  0  0  0
   42.4690   76.4230   33.0050 C   0  0  0  0  0  0  0  0  0  0  0  0
   47.1980   72.7270   29.9150 C   0  0  0  0  0  0  0  0  0  0  0  0
   46.0180   71.9370   29.9830 C   0  0  0  0  0  0  0  0  0  0  0  0
   45.8960   70.9660   31.0000 C   0  0  0  0  0  0  0  0  0  0  0  0
   46.9230   70.8270   31.8820 N   0  0  0  0  0  0  0  0  0  0  0  0
   48.0380   71.6140   31.7730 C   0  0  0  0  0  0  0  0  0  0  0  0
   48.1730   72.5280   30.8280 N   0  0  0  0  0  0  0  0  0  0  0  0
   49.1000   71.4550   32.7010 N   0  0  0  0  0  0  0  0  0  0  0  0
   50.4110   71.9970   32.4860 C   0  0  0  0  0  0  0  0  0  0  0  0
   51.4440   71.4970   33.4240 C   0  0  0  0  0  0  0  0  0  0  0  0
   51.3290   70.2110   33.8620 O   0  0  0  0  0  0  0  0  0  0  0  0
   50.0830   69.6520   33.8530 C   0  0  0  0  0  0  0  0  0  0  0  0
   49.0480   70.7510   33.9650 C   0  0  0  0  0  0  0  0  0  0  0  0
   45.7599   68.5593   30.0601 H   0  0  0  0  0  0  0  0  0  0  0  0
   43.8176   66.9631   30.2062 H   0  0  0  0  0  0  0  0  0  0  0  0
   41.7535   67.6847   31.3705 H   0  0  0  0  0  0  0  0  0  0  0  0
   41.5685   69.9625   32.3892 H   0  0  0  0  0  0  0  0  0  0  0  0
   43.6313   75.7033   30.4383 H   0  0  0  0  0  0  0  0  0  0  0  0
   45.0630   75.2377   31.3091 H   0  0  0  0  0  0  0  0  0  0  0  0
   44.9378   77.3787   32.7134 H   0  0  0  0  0  0  0  0  0  0  0  0
   44.8039   77.9095   31.0829 H   0  0  0  0  0  0  0  0  0  0  0  0
   42.7359   78.5572   32.6344 H   0  0  0  0  0  0  0  0  0  0  0  0
   42.2104   77.7109   31.2161 H   0  0  0  0  0  0  0  0  0  0  0  0
   41.3936   76.2038   32.9306 H   0  0  0  0  0  0  0  0  0  0  0  0
   42.6721   76.6281   34.0665 H   0  0  0  0  0  0  0  0  0  0  0  0
   47.3151   73.4890   29.1304 H   0  0  0  0  0  0  0  0  0  0  0  0
   45.2093   72.0809   29.2513 H   0  0  0  0  0  0  0  0  0  0  0  0
   50.7243   71.7429   31.4626 H   0  0  0  0  0  0  0  0  0  0  0  0
   50.3331   73.0811   32.6552 H   0  0  0  0  0  0  0  0  0  0  0  0
   52.4176   71.5873   32.9201 H   0  0  0  0  0  0  0  0  0  0  0  0
   51.3221   72.1121   34.3278 H   0  0  0  0  0  0  0  0  0  0  0  0
   49.9337   69.0993   32.9137 H   0  0  0  0  0  0  0  0  0  0  0  0
   49.9812   68.9583   34.7006 H   0  0  0  0  0  0  0  0  0  0  0  0
   49.2950   71.4298   34.7946 H   0  0  0  0  0  0  0  0  0  0  0  0
   48.0445   70.3499   34.1700 H   0  0  0  0  0  0  0  0  0  0  0  0
  1  6  2  0
  2  3  2  0
  2  1  1  0
  3  4  1  0
  4  5  2  0
  6  5  1  0
  6  7  1  0
  7  8  2  0
  8  9  1  0
 10  9  1  0
 11  7  1  0
 11 10  2  0
 12 10  1  0
 12 16  1  0
 13 14  1  0
 13 12  1  0
 14 15  1  0
 15 16  1  0
 17 18  2  0
 17 22  1  0
 18 19  1  0
 19  1  1  0
 19 20  2  0
 21 20  1  0
 21 23  1  0
 22 21  2  0
 23 28  1  0
 24 23  1  0
 24 25  1  0
 25 26  1  0
 27 26  1  0
 27 28  1  0
  2 29  1  0
  3 30  1  0
  4 31  1  0
  5 32  1  0
 13 33  1  0
 13 34  1  0
 14 35  1  0
 14 36  1  0
 15 37  1  0
 15 38  1  0
 16 39  1  0
 16 40  1  0
 17 41  1  0
 18 42  1  0
 24 43  1  0
 24 44  1  0
 25 45  1  0
 25 46  1  0
 27 47  1  0
 27 48  1  0
 28 49  1  0
 28 50  1  0
M  END
>  <Score>  (1) 
-7.17026

$$$$
