
     RDKit          3D

 53 58  0  0  0  0  0  0  0  0999 V2000
   46.6260   71.3020   30.0630 C   0  0  0  0  0  0  0  0  0  0  0  0
   47.5790   72.3080   29.9680 C   0  0  0  0  0  0  0  0  0  0  0  0
   47.0460   73.4920   30.4070 C   0  0  0  0  0  0  0  0  0  0  0  0
   45.7570   73.1420   30.7590 C   0  0  0  0  0  0  0  0  0  0  0  0
   45.5290   71.8540   30.5500 O   0  0  0  0  0  0  0  0  0  0  0  0
   48.2220   69.4810   29.3840 C   0  0  0  0  0  0  0  0  0  0  0  0
   46.9080   69.9240   29.6660 C   0  0  0  0  0  0  0  0  0  0  0  0
   45.8140   69.0650   29.5850 C   0  0  0  0  0  0  0  0  0  0  0  0
   46.0660   67.7660   29.2190 N   0  0  0  0  0  0  0  0  0  0  0  0
   47.3320   67.3510   28.9510 C   0  0  0  0  0  0  0  0  0  0  0  0
   48.3950   68.1970   29.0320 N   0  0  0  0  0  0  0  0  0  0  0  0
   47.6000   66.0040   28.5720 N   0  0  0  0  0  0  0  0  0  0  0  0
   46.6410   65.1970   27.8650 C   0  0  0  0  0  0  0  0  0  0  0  0
   47.4970   64.2090   27.0690 C   0  0  0  0  0  0  0  0  0  0  0  0
   48.5960   64.9000   26.5940 O   0  0  0  0  0  0  0  0  0  0  0  0
   49.5490   65.1590   27.5470 C   0  0  0  0  0  0  0  0  0  0  0  0
   48.8860   65.3930   28.9020 C   0  0  0  0  0  0  0  0  0  0  0  0
   44.7420   73.9860   31.2850 N   0  0  0  0  0  0  0  0  0  0  0  0
   43.4940   73.6470   31.5700 C   0  0  0  0  0  0  0  0  0  0  0  0
   42.8610   74.7820   32.0640 C   0  0  0  0  0  0  0  0  0  0  0  0
   43.8220   75.7460   32.0330 N   0  0  0  0  0  0  0  0  0  0  0  0
   44.9610   75.2610   31.5600 C   0  0  0  0  0  0  0  0  0  0  0  0
   46.0860   76.1220   31.4510 N   0  0  0  0  0  0  0  0  0  0  0  0
   41.4620   74.6950   32.4590 C   0  0  0  0  0  0  0  0  0  0  0  0
   40.7240   75.7780   32.8270 N   0  0  0  0  0  0  0  0  0  0  0  0
   39.4460   75.7310   33.1950 C   0  0  0  0  0  0  0  0  0  0  0  0
   38.7680   74.5470   33.2260 N   0  0  0  0  0  0  0  0  0  0  0  0
   39.4150   73.4010   32.8760 C   0  0  0  0  0  0  0  0  0  0  0  0
   38.7440   72.1970   32.9030 C   0  0  0  0  0  0  0  0  0  0  0  0
   39.3850   71.0280   32.5530 C   0  0  0  0  0  0  0  0  0  0  0  0
   40.7120   71.1210   32.1790 C   0  0  0  0  0  0  0  0  0  0  0  0
   41.3270   72.3490   32.1700 C   0  0  0  0  0  0  0  0  0  0  0  0
   40.7230   73.5360   32.5130 C   0  0  0  0  0  0  0  0  0  0  0  0
   48.6058   72.1747   29.5967 H   0  0  0  0  0  0  0  0  0  0  0  0
   47.5271   74.4795   30.4649 H   0  0  0  0  0  0  0  0  0  0  0  0
   49.0775   70.1692   29.4513 H   0  0  0  0  0  0  0  0  0  0  0  0
   44.7936   69.4122   29.8046 H   0  0  0  0  0  0  0  0  0  0  0  0
   45.9840   64.6652   28.5689 H   0  0  0  0  0  0  0  0  0  0  0  0
   45.9793   65.7953   27.2215 H   0  0  0  0  0  0  0  0  0  0  0  0
   47.8241   63.3855   27.7208 H   0  0  0  0  0  0  0  0  0  0  0  0
   46.9200   63.7796   26.2367 H   0  0  0  0  0  0  0  0  0  0  0  0
   50.2331   64.3007   27.6201 H   0  0  0  0  0  0  0  0  0  0  0  0
   50.1094   66.0610   27.2599 H   0  0  0  0  0  0  0  0  0  0  0  0
   49.4923   66.0706   29.5210 H   0  0  0  0  0  0  0  0  0  0  0  0
   48.7747   64.4651   29.4821 H   0  0  0  0  0  0  0  0  0  0  0  0
   43.0422   72.6525   31.4401 H   0  0  0  0  0  0  0  0  0  0  0  0
   46.0094   77.1083   31.7379 H   0  0  0  0  0  0  0  0  0  0  0  0
   46.9781   75.7599   31.0851 H   0  0  0  0  0  0  0  0  0  0  0  0
   38.9288   76.6596   33.4782 H   0  0  0  0  0  0  0  0  0  0  0  0
   37.6871   72.1690   33.2067 H   0  0  0  0  0  0  0  0  0  0  0  0
   38.8616   70.0607   32.5707 H   0  0  0  0  0  0  0  0  0  0  0  0
   41.2713   70.2187   31.8908 H   0  0  0  0  0  0  0  0  0  0  0  0
   42.3833   72.3860   31.8652 H   0  0  0  0  0  0  0  0  0  0  0  0
  1  5  1  0
  2  1  2  0
  2  3  1  0
  3  4  2  0
  4 18  1  0
  5  4  1  0
  6  7  2  0
  7  1  1  0
  8  7  1  0
  9  8  2  0
 10 11  2  0
 10  9  1  0
 11  6  1  0
 12 17  1  0
 12 10  1  0
 13 12  1  0
 14 13  1  0
 15 14  1  0
 15 16  1  0
 16 17  1  0
 18 22  1  0
 18 19  1  0
 19 20  2  0
 20 24  1  0
 21 20  1  0
 22 21  2  0
 23 22  1  0
 24 33  1  0
 24 25  2  0
 25 26  1  0
 26 27  2  0
 28 29  2  0
 28 27  1  0
 30 29  1  0
 31 30  2  0
 32 31  1  0
 32 33  2  0
 33 28  1  0
  2 34  1  0
  3 35  1  0
  6 36  1  0
  8 37  1  0
 13 38  1  0
 13 39  1  0
 14 40  1  0
 14 41  1  0
 16 42  1  0
 16 43  1  0
 17 44  1  0
 17 45  1  0
 19 46  1  0
 23 47  1  0
 23 48  1  0
 26 49  1  0
 29 50  1  0
 30 51  1  0
 31 52  1  0
 32 53  1  0
M  END
>  <Score>  (1) 
-7.3308

$$$$
