
     RDKit          3D

 39 43  0  0  1  0  0  0  0  0999 V2000
   45.2770   70.7070   32.1040 N   0  0  0  0  0  0  0  0  0  0  0  0
   45.1450   72.0380   32.3190 C   0  0  0  0  0  0  0  0  0  0  0  0
   46.3800   72.5070   32.6480 N   0  0  0  0  0  0  0  0  0  0  0  0
   47.2450   71.4910   32.6350 C   0  0  0  0  0  0  0  0  0  0  0  0
   48.6000   71.3920   32.8840 C   0  0  2  0  0  0  0  0  0  0  0  0
   49.1690   70.1830   32.7760 N   0  0  0  0  0  0  0  0  0  0  0  0
   48.4880   69.0730   32.4410 C   0  0  0  0  0  0  0  0  0  0  0  0
   47.1580   69.1440   32.1930 N   0  0  0  0  0  0  0  0  0  0  0  0
   46.5450   70.3300   32.2870 C   0  0  0  0  0  0  0  0  0  0  0  0
   41.7670   69.6030   31.7250 C   0  0  0  0  0  0  0  0  0  0  0  0
   42.8780   70.3670   32.1010 C   0  0  0  0  0  0  0  0  0  0  0  0
   44.1400   69.9350   31.7310 C   0  0  0  0  0  0  0  0  0  0  0  0
   44.2590   68.7670   31.0050 N   0  0  0  0  0  0  0  0  0  0  0  0
   43.1560   68.0650   30.6660 C   0  0  0  0  0  0  0  0  0  0  0  0
   41.9180   68.4670   31.0150 N   0  0  0  0  0  0  0  0  0  0  0  0
   43.5350   66.9080   29.9250 N   0  0  0  0  0  0  0  0  0  0  0  0
   44.2650   67.0480   28.7820 C   0  0  0  0  0  0  0  0  0  0  0  0
   44.5340   65.8410   28.2110 N   0  0  0  0  0  0  0  0  0  0  0  0
   43.9450   64.9260   29.0350 C   0  0  0  0  0  0  0  0  0  0  0  0
   43.8340   63.5450   29.0450 C   0  0  0  0  0  0  0  0  0  0  0  0
   44.3860   62.9320   28.0950 O   0  0  0  0  0  0  0  0  0  0  0  0
   43.1530   62.9540   30.0540 N   0  0  0  0  0  0  0  0  0  0  0  0
   42.5780   63.6380   31.0500 C   0  0  0  0  0  0  0  0  0  0  0  0
   41.9240   62.7860   31.9850 N   0  0  0  0  0  0  0  0  0  0  0  0
   42.6630   64.9950   31.0790 N   0  0  0  0  0  0  0  0  0  0  0  0
   43.3360   65.5860   30.0830 C   0  0  0  0  0  0  0  0  0  0  0  0
   49.3750   72.5290   33.2370 N   0  0  0  0  0  0  0  0  0  0  0  0
   44.2187   72.6263   32.2425 H   0  0  0  0  0  0  0  0  0  0  0  0
   48.8091   71.5796   31.8205 H   0  0  0  0  0  0  0  0  0  0  0  0
   49.0105   68.1078   32.3683 H   0  0  0  0  0  0  0  0  0  0  0  0
   46.6274   68.2993   31.9364 H   0  0  0  0  0  0  0  0  0  0  0  0
   40.7580   69.9337   32.0125 H   0  0  0  0  0  0  0  0  0  0  0  0
   42.7506   71.2936   32.6799 H   0  0  0  0  0  0  0  0  0  0  0  0
   44.5952   68.0141   28.3725 H   0  0  0  0  0  0  0  0  0  0  0  0
   43.0733   61.9271   30.0554 H   0  0  0  0  0  0  0  0  0  0  0  0
   41.4415   63.1903   32.8002 H   0  0  0  0  0  0  0  0  0  0  0  0
   41.9335   61.7655   31.8461 H   0  0  0  0  0  0  0  0  0  0  0  0
   49.4264   72.6044   34.2629 H   0  0  0  0  0  0  0  0  0  0  0  0
   50.3252   72.4298   32.8520 H   0  0  0  0  0  0  0  0  0  0  0  0
  1  9  1  0
  1  2  1  0
  2  3  2  0
  4  3  1  0
  4  5  1  0
  5 27  1  0
  6  5  1  0
  7  6  2  0
  8  9  1  0
  8  7  1  0
  9  4  2  0
 10 11  2  0
 12 11  1  0
 12  1  1  0
 13 12  2  0
 14 13  1  0
 14 15  2  0
 15 10  1  0
 16 26  1  0
 16 14  1  0
 17 16  1  0
 18 17  2  0
 18 19  1  0
 19 20  1  0
 19 26  2  0
 20 22  1  0
 21 20  2  0
 22 23  1  0
 23 25  2  0
 23 24  1  0
 26 25  1  0
  2 28  1  0
  5 29  1  6
  7 30  1  0
  8 31  1  0
 10 32  1  0
 11 33  1  0
 17 34  1  0
 22 35  1  0
 24 36  1  0
 24 37  1  0
 27 38  1  0
 27 39  1  0
M  END
>  <Score>  (1) 
-7.02528

$$$$
