
     RDKit          3D

 51 56  0  0  1  0  0  0  0  0999 V2000
   45.0060   73.6140   31.0120 C   0  0  0  0  0  0  0  0  0  0  0  0
   45.6860   74.5930   31.6770 C   0  0  0  0  0  0  0  0  0  0  0  0
   44.8570   75.6610   31.9580 C   0  0  0  0  0  0  0  0  0  0  0  0
   43.6620   75.2860   31.4410 N   0  0  0  0  0  0  0  0  0  0  0  0
   43.7650   74.1150   30.9040 N   0  0  0  0  0  0  0  0  0  0  0  0
   45.7280   71.2720   31.4360 C   0  0  0  0  0  0  0  0  0  0  0  0
   45.5730   72.3740   30.5670 C   0  0  0  0  0  0  0  0  0  0  0  0
   46.0080   72.1890   29.2660 C   0  0  0  0  0  0  0  0  0  0  0  0
   46.5430   70.9930   28.9120 N   0  0  0  0  0  0  0  0  0  0  0  0
   46.6650   69.9670   29.8020 C   0  0  0  0  0  0  0  0  0  0  0  0
   46.2610   70.1080   31.0480 N   0  0  0  0  0  0  0  0  0  0  0  0
   47.2340   68.7300   29.3880 N   0  0  0  0  0  0  0  0  0  0  0  0
   48.5450   68.5120   29.3470 C   0  0  0  0  0  0  0  0  0  0  0  0
   48.7420   67.2370   28.9100 N   0  0  0  0  0  0  0  0  0  0  0  0
   47.5540   66.6600   28.6810 C   0  0  0  0  0  0  0  0  0  0  0  0
   47.1750   65.4140   28.2400 C   0  0  0  0  0  0  0  0  0  0  0  0
   48.0820   64.5600   27.9660 O   0  0  0  0  0  0  0  0  0  0  0  0
   45.8640   65.1370   28.1100 N   0  0  0  0  0  0  0  0  0  0  0  0
   44.9140   66.0670   28.4080 C   0  0  0  0  0  0  0  0  0  0  0  0
   43.5640   65.6510   28.2300 N   0  0  0  0  0  0  0  0  0  0  0  0
   45.3090   67.2970   28.8430 N   0  0  0  0  0  0  0  0  0  0  0  0
   46.5980   67.6140   28.9860 C   0  0  0  0  0  0  0  0  0  0  0  0
   42.4910   76.0660   31.4790 C   0  0  1  0  0  0  0  0  0  0  0  0
   41.2940   75.6730   30.6850 C   0  0  0  0  0  0  0  0  0  0  0  0
   41.1590   75.5420   32.1000 C   0  0  1  0  0  0  0  0  0  0  0  0
   41.1320   74.2060   32.7630 C   0  0  0  0  0  0  0  0  0  0  0  0
   40.5320   73.2200   31.9300 C   0  0  0  0  0  0  0  0  0  0  0  0
   40.3570   71.9100   32.4100 C   0  0  0  0  0  0  0  0  0  0  0  0
   40.7590   71.5670   33.6790 C   0  0  0  0  0  0  0  0  0  0  0  0
   41.3310   72.5570   34.4460 C   0  0  0  0  0  0  0  0  0  0  0  0
   41.5090   73.8290   34.0030 C   0  0  0  0  0  0  0  0  0  0  0  0
   42.1060   74.8720   34.8220 C   0  0  0  0  0  0  0  0  0  0  0  0
   41.5270   75.7780   35.4660 O   0  0  0  0  0  0  0  0  0  0  0  0
   43.4780   74.9200   34.9470 O   0  0  0  0  0  0  0  0  0  0  0  0
   46.7498   74.5386   31.9517 H   0  0  0  0  0  0  0  0  0  0  0  0
   45.1079   76.5966   32.4792 H   0  0  0  0  0  0  0  0  0  0  0  0
   45.3954   71.3753   32.4794 H   0  0  0  0  0  0  0  0  0  0  0  0
   45.9212   73.0007   28.5287 H   0  0  0  0  0  0  0  0  0  0  0  0
   49.3305   69.2329   29.6177 H   0  0  0  0  0  0  0  0  0  0  0  0
   45.5741   64.2056   27.7794 H   0  0  0  0  0  0  0  0  0  0  0  0
   42.7930   66.3022   28.4360 H   0  0  0  0  0  0  0  0  0  0  0  0
   43.3584   64.6989   27.8952 H   0  0  0  0  0  0  0  0  0  0  0  0
   43.1269   76.9548   31.6039 H   0  0  0  0  0  0  0  0  0  0  0  0
   40.7189   76.4504   30.1607 H   0  0  0  0  0  0  0  0  0  0  0  0
   41.1455   74.9726   29.8499 H   0  0  0  0  0  0  0  0  0  0  0  0
   40.4313   75.9081   32.8392 H   0  0  0  0  0  0  0  0  0  0  0  0
   40.2059   73.4823   30.9127 H   0  0  0  0  0  0  0  0  0  0  0  0
   39.8932   71.1511   31.7627 H   0  0  0  0  0  0  0  0  0  0  0  0
   40.6292   70.5452   34.0652 H   0  0  0  0  0  0  0  0  0  0  0  0
   41.6594   72.3063   35.4655 H   0  0  0  0  0  0  0  0  0  0  0  0
   43.9003   75.6236   35.5008 H   0  0  0  0  0  0  0  0  0  0  0  0
  1  2  1  0
  2  3  2  0
  4 23  1  0
  4  3  1  0
  5  1  2  0
  5  4  1  0
  7  1  1  0
  7  6  2  0
  8  7  1  0
  9  8  2  0
  9 10  1  0
 10 11  2  0
 11  6  1  0
 12 10  1  0
 13 12  1  0
 14 13  2  0
 15 14  1  0
 15 22  2  0
 16 15  1  0
 17 16  2  0
 18 16  1  0
 18 19  1  0
 19 21  2  0
 20 19  1  0
 21 22  1  0
 22 12  1  0
 23 25  1  0
 24 23  1  0
 24 25  1  0
 25 26  1  0
 26 31  2  0
 27 28  2  0
 27 26  1  0
 28 29  1  0
 29 30  2  0
 31 30  1  0
 31 32  1  0
 32 34  1  0
 32 33  2  0
  2 35  1  0
  3 36  1  0
  6 37  1  0
  8 38  1  0
 13 39  1  0
 18 40  1  0
 20 41  1  0
 20 42  1  0
 23 43  1  1
 24 44  1  0
 24 45  1  0
 25 46  1  1
 27 47  1  0
 28 48  1  0
 29 49  1  0
 30 50  1  0
 34 51  1  0
M  END
>  <Score>  (1) 
-7.00603

$$$$
