
     RDKit          3D

 44 49  0  0  0  0  0  0  0  0999 V2000
   44.3410   71.2230   31.8310 N   0  0  0  0  0  0  0  0  0  0  0  0
   43.4220   71.7990   32.6220 C   0  0  0  0  0  0  0  0  0  0  0  0
   42.3810   70.9560   32.7270 N   0  0  0  0  0  0  0  0  0  0  0  0
   42.6610   69.8670   32.0000 C   0  0  0  0  0  0  0  0  0  0  0  0
   41.9020   68.7180   31.7930 C   0  0  0  0  0  0  0  0  0  0  0  0
   42.4610   67.7790   31.0000 N   0  0  0  0  0  0  0  0  0  0  0  0
   43.6740   67.9190   30.4310 C   0  0  0  0  0  0  0  0  0  0  0  0
   44.4000   69.0350   30.6380 N   0  0  0  0  0  0  0  0  0  0  0  0
   43.8970   70.0200   31.4270 C   0  0  0  0  0  0  0  0  0  0  0  0
   44.0130   66.7760   29.6450 N   0  0  0  0  0  0  0  0  0  0  0  0
   44.7870   66.7400   28.5500 C   0  0  0  0  0  0  0  0  0  0  0  0
   44.8590   65.4670   28.1040 N   0  0  0  0  0  0  0  0  0  0  0  0
   44.1190   64.7290   28.9420 C   0  0  0  0  0  0  0  0  0  0  0  0
   43.8670   63.3690   28.9240 C   0  0  0  0  0  0  0  0  0  0  0  0
   44.3800   62.6570   28.0130 O   0  0  0  0  0  0  0  0  0  0  0  0
   43.0840   62.8600   29.8840 N   0  0  0  0  0  0  0  0  0  0  0  0
   42.5440   63.6490   30.8570 C   0  0  0  0  0  0  0  0  0  0  0  0
   41.7350   62.9810   31.8080 N   0  0  0  0  0  0  0  0  0  0  0  0
   42.8020   64.9790   30.8540 N   0  0  0  0  0  0  0  0  0  0  0  0
   43.5800   65.5310   29.9140 C   0  0  0  0  0  0  0  0  0  0  0  0
   45.6260   71.6870   31.3940 C   0  0  0  0  0  0  0  0  0  0  0  0
   45.7190   72.5380   30.2770 C   0  0  0  0  0  0  0  0  0  0  0  0
   47.0100   72.9640   29.8920 C   0  0  0  0  0  0  0  0  0  0  0  0
   48.0620   72.5290   30.6170 N   0  0  0  0  0  0  0  0  0  0  0  0
   47.9290   71.7150   31.6790 C   0  0  0  0  0  0  0  0  0  0  0  0
   46.7030   71.2930   32.0680 N   0  0  0  0  0  0  0  0  0  0  0  0
   49.0300   71.2470   32.4590 N   0  0  0  0  0  0  0  0  0  0  0  0
   50.0820   72.1030   32.5230 C   0  0  0  0  0  0  0  0  0  0  0  0
   51.0490   71.4920   33.3160 C   0  0  0  0  0  0  0  0  0  0  0  0
   50.5550   70.2790   33.7110 N   0  0  0  0  0  0  0  0  0  0  0  0
   49.3200   70.1520   33.1760 C   0  0  0  0  0  0  0  0  0  0  0  0
   43.5063   72.7863   33.0996 H   0  0  0  0  0  0  0  0  0  0  0  0
   41.7091   68.2597   32.7742 H   0  0  0  0  0  0  0  0  0  0  0  0
   40.9943   69.0503   31.2680 H   0  0  0  0  0  0  0  0  0  0  0  0
   45.3273   69.1403   30.2023 H   0  0  0  0  0  0  0  0  0  0  0  0
   45.2830   67.6072   28.0896 H   0  0  0  0  0  0  0  0  0  0  0  0
   42.8850   61.8494   29.8877 H   0  0  0  0  0  0  0  0  0  0  0  0
   41.2935   63.5120   32.5722 H   0  0  0  0  0  0  0  0  0  0  0  0
   41.5880   61.9641   31.7355 H   0  0  0  0  0  0  0  0  0  0  0  0
   44.8227   72.8586   29.7258 H   0  0  0  0  0  0  0  0  0  0  0  0
   47.1532   73.6296   29.0280 H   0  0  0  0  0  0  0  0  0  0  0  0
   50.1558   73.0891   32.0411 H   0  0  0  0  0  0  0  0  0  0  0  0
   52.0326   71.9091   33.5778 H   0  0  0  0  0  0  0  0  0  0  0  0
   48.6562   69.2849   33.3084 H   0  0  0  0  0  0  0  0  0  0  0  0
  1  2  1  0
  2  3  2  0
  4  3  1  0
  5  4  1  0
  6  5  1  0
  7  8  1  0
  7  6  2  0
  8  9  1  0
  9  1  1  0
  9  4  2  0
 10 20  1  0
 10  7  1  0
 11 10  1  0
 12 11  2  0
 12 13  1  0
 13 20  2  0
 14 13  1  0
 14 16  1  0
 15 14  2  0
 16 17  1  0
 17 18  1  0
 19 17  2  0
 20 19  1  0
 21  1  1  0
 21 26  1  0
 22 21  2  0
 23 22  1  0
 23 24  2  0
 24 25  1  0
 25 26  2  0
 25 27  1  0
 27 28  1  0
 27 31  1  0
 28 29  2  0
 29 30  1  0
 31 30  2  0
  2 32  1  0
  5 33  1  0
  5 34  1  0
  8 35  1  0
 11 36  1  0
 16 37  1  0
 18 38  1  0
 18 39  1  0
 22 40  1  0
 23 41  1  0
 28 42  1  0
 29 43  1  0
 31 44  1  0
M  END
>  <Score>  (1) 
-7.53886

$$$$
