
     RDKit          3D

 40 44  0  0  0  0  0  0  0  0999 V2000
   47.6950   72.5420   30.3440 C   0  0  0  0  0  0  0  0  0  0  0  0
   46.7390   71.6300   29.9290 C   0  0  0  0  0  0  0  0  0  0  0  0
   46.6230   70.3590   30.4800 C   0  0  0  0  0  0  0  0  0  0  0  0
   47.5430   70.1120   31.4590 N   0  0  0  0  0  0  0  0  0  0  0  0
   48.4690   70.9790   31.8680 C   0  0  0  0  0  0  0  0  0  0  0  0
   48.5390   72.1860   31.3090 N   0  0  0  0  0  0  0  0  0  0  0  0
   49.3680   70.5810   32.9060 N   0  0  0  0  0  0  0  0  0  0  0  0
   49.1310   69.5220   33.7330 C   0  0  0  0  0  0  0  0  0  0  0  0
   50.1020   69.3440   34.6160 N   0  0  0  0  0  0  0  0  0  0  0  0
   51.0150   70.3030   34.3820 C   0  0  0  0  0  0  0  0  0  0  0  0
   52.2360   70.6340   34.9700 C   0  0  0  0  0  0  0  0  0  0  0  0
   52.6600   69.9530   35.9250 O   0  0  0  0  0  0  0  0  0  0  0  0
   52.8900   71.7000   34.4450 N   0  0  0  0  0  0  0  0  0  0  0  0
   52.4300   72.4320   33.4140 C   0  0  0  0  0  0  0  0  0  0  0  0
   53.2980   73.4920   33.0520 N   0  0  0  0  0  0  0  0  0  0  0  0
   51.2360   72.1160   32.8320 N   0  0  0  0  0  0  0  0  0  0  0  0
   50.5430   71.0560   33.3240 C   0  0  0  0  0  0  0  0  0  0  0  0
   45.7000   69.2940   30.1860 C   0  0  0  0  0  0  0  0  0  0  0  0
   46.1020   68.3270   29.2830 C   0  0  0  0  0  0  0  0  0  0  0  0
   45.3360   67.2500   28.9090 C   0  0  0  0  0  0  0  0  0  0  0  0
   44.0920   67.1000   29.4510 C   0  0  0  0  0  0  0  0  0  0  0  0
   43.6280   68.0180   30.3520 C   0  0  0  0  0  0  0  0  0  0  0  0
   42.3660   67.9020   30.9140 C   0  0  0  0  0  0  0  0  0  0  0  0
   41.8580   68.8110   31.8180 C   0  0  0  0  0  0  0  0  0  0  0  0
   42.6980   69.8690   32.1400 C   0  0  0  0  0  0  0  0  0  0  0  0
   43.9330   69.9710   31.5810 C   0  0  0  0  0  0  0  0  0  0  0  0
   44.4450   69.0700   30.6790 C   0  0  0  0  0  0  0  0  0  0  0  0
   47.7553   73.5400   29.8853 H   0  0  0  0  0  0  0  0  0  0  0  0
   46.0423   71.9236   29.1300 H   0  0  0  0  0  0  0  0  0  0  0  0
   48.2344   68.8875   33.6731 H   0  0  0  0  0  0  0  0  0  0  0  0
   53.7941   71.9654   34.8610 H   0  0  0  0  0  0  0  0  0  0  0  0
   53.0481   74.1196   32.2745 H   0  0  0  0  0  0  0  0  0  0  0  0
   54.1789   73.6348   33.5664 H   0  0  0  0  0  0  0  0  0  0  0  0
   47.1014   68.4269   28.8345 H   0  0  0  0  0  0  0  0  0  0  0  0
   45.7196   66.5183   28.1827 H   0  0  0  0  0  0  0  0  0  0  0  0
   43.4648   66.2432   29.1638 H   0  0  0  0  0  0  0  0  0  0  0  0
   41.7405   67.0445   30.6252 H   0  0  0  0  0  0  0  0  0  0  0  0
   40.8541   68.7051   32.2550 H   0  0  0  0  0  0  0  0  0  0  0  0
   42.3602   70.6332   32.8555 H   0  0  0  0  0  0  0  0  0  0  0  0
   44.5608   70.8273   31.8685 H   0  0  0  0  0  0  0  0  0  0  0  0
  1  6  2  0
  2  1  1  0
  2  3  2  0
  3  4  1  0
  4  5  2  0
  5  7  1  0
  6  5  1  0
  7 17  1  0
  7  8  1  0
  8  9  2  0
 10  9  1  0
 10 11  1  0
 11 12  2  0
 13 11  1  0
 14 13  1  0
 15 14  1  0
 16 17  1  0
 16 14  2  0
 17 10  2  0
 18  3  1  0
 18 27  1  0
 19 18  2  0
 20 19  1  0
 20 21  2  0
 21 22  1  0
 22 27  2  0
 22 23  1  0
 23 24  2  0
 24 25  1  0
 26 25  2  0
 27 26  1  0
  1 28  1  0
  2 29  1  0
  8 30  1  0
 13 31  1  0
 15 32  1  0
 15 33  1  0
 19 34  1  0
 20 35  1  0
 21 36  1  0
 23 37  1  0
 24 38  1  0
 25 39  1  0
 26 40  1  0
M  END
>  <Score>  (1) 
-7.11914

$$$$
