
     RDKit          3D

 41 45  0  0  0  0  0  0  0  0999 V2000
   47.8070   68.2280   29.1180 C   0  0  0  0  0  0  0  0  0  0  0  0
   48.9640   67.4970   29.0120 C   0  0  0  0  0  0  0  0  0  0  0  0
   48.6360   66.2190   28.6550 C   0  0  0  0  0  0  0  0  0  0  0  0
   47.2280   66.2300   28.5560 C   0  0  0  0  0  0  0  0  0  0  0  0
   46.7980   67.4160   28.8350 O   0  0  0  0  0  0  0  0  0  0  0  0
   46.4590   71.6950   29.7180 C   0  0  0  0  0  0  0  0  0  0  0  0
   46.4970   70.3390   29.3460 C   0  0  0  0  0  0  0  0  0  0  0  0
   47.6680   69.6340   29.4740 C   0  0  0  0  0  0  0  0  0  0  0  0
   48.7430   70.3090   29.9640 N   0  0  0  0  0  0  0  0  0  0  0  0
   48.7080   71.5950   30.3160 C   0  0  0  0  0  0  0  0  0  0  0  0
   47.5650   72.2750   30.1890 N   0  0  0  0  0  0  0  0  0  0  0  0
   49.9230   72.1230   30.8030 N   0  0  0  0  0  0  0  0  0  0  0  0
   46.4020   65.0460   28.1890 C   0  0  0  0  0  0  0  0  0  0  0  0
   46.7000   64.3620   27.0040 C   0  0  0  0  0  0  0  0  0  0  0  0
   45.4550   63.0530   27.0230 S   0  0  0  0  0  0  0  0  0  0  0  0
   44.7120   63.6290   28.6400 C   0  0  0  0  0  0  0  0  0  0  0  0
   45.3990   64.5150   28.8260 N   0  0  0  0  0  0  0  0  0  0  0  0
   43.5880   63.1980   29.5420 C   0  0  0  0  0  0  0  0  0  0  0  0
   43.5830   63.6120   30.8560 C   0  0  0  0  0  0  0  0  0  0  0  0
   42.5380   63.1940   31.6320 C   0  0  0  0  0  0  0  0  0  0  0  0
   41.5200   62.4060   31.1930 C   0  0  0  0  0  0  0  0  0  0  0  0
   41.5470   62.0060   29.8820 C   0  0  0  0  0  0  0  0  0  0  0  0
   40.5130   61.2080   29.4430 C   0  0  0  0  0  0  0  0  0  0  0  0
   40.4570   60.7620   28.1420 C   0  0  0  0  0  0  0  0  0  0  0  0
   41.5050   61.1660   27.3180 C   0  0  0  0  0  0  0  0  0  0  0  0
   42.5070   61.9590   27.8050 C   0  0  0  0  0  0  0  0  0  0  0  0
   42.5870   62.4130   29.0780 C   0  0  0  0  0  0  0  0  0  0  0  0
   49.9823   67.8754   29.1850 H   0  0  0  0  0  0  0  0  0  0  0  0
   49.3166   65.3720   28.4834 H   0  0  0  0  0  0  0  0  0  0  0  0
   45.5272   72.2716   29.6217 H   0  0  0  0  0  0  0  0  0  0  0  0
   45.5943   69.8467   28.9551 H   0  0  0  0  0  0  0  0  0  0  0  0
   49.9756   73.1093   31.0951 H   0  0  0  0  0  0  0  0  0  0  0  0
   50.7571   71.5220   30.8663 H   0  0  0  0  0  0  0  0  0  0  0  0
   47.4836   64.5671   26.2597 H   0  0  0  0  0  0  0  0  0  0  0  0
   44.3826   64.2492   31.2618 H   0  0  0  0  0  0  0  0  0  0  0  0
   42.5192   63.5170   32.6833 H   0  0  0  0  0  0  0  0  0  0  0  0
   40.7047   62.1008   31.8654 H   0  0  0  0  0  0  0  0  0  0  0  0
   39.7168   60.9218   30.1459 H   0  0  0  0  0  0  0  0  0  0  0  0
   39.6368   60.1269   27.7762 H   0  0  0  0  0  0  0  0  0  0  0  0
   41.5267   60.8443   26.2663 H   0  0  0  0  0  0  0  0  0  0  0  0
   43.3085   62.2500   27.1100 H   0  0  0  0  0  0  0  0  0  0  0  0
  1  8  1  0
  2  1  2  0
  3  2  1  0
  4  3  2  0
  4  5  1  0
  5  1  1  0
  6 11  2  0
  7  8  2  0
  7  6  1  0
  8  9  1  0
  9 10  2  0
 10 12  1  0
 11 10  1  0
 13  4  1  0
 13 17  1  0
 14 15  1  0
 14 13  2  0
 15 16  1  0
 16 17  2  0
 16 18  1  0
 18 19  2  0
 19 20  1  0
 21 20  2  0
 22 21  1  0
 23 22  2  0
 24 23  1  0
 25 26  1  0
 25 24  2  0
 26 27  2  0
 27 18  1  0
 27 22  1  0
  2 28  1  0
  3 29  1  0
  6 30  1  0
  7 31  1  0
 12 32  1  0
 12 33  1  0
 14 34  1  0
 19 35  1  0
 20 36  1  0
 21 37  1  0
 23 38  1  0
 24 39  1  0
 25 40  1  0
 26 41  1  0
M  END
>  <Score>  (1) 
-7.07618

$$$$
