
     RDKit          3D

 51 55  0  0  0  0  0  0  0  0999 V2000
   44.6970   71.0260   31.2280 C   0  0  0  0  0  0  0  0  0  0  0  0
   44.2390   72.3260   31.5390 C   0  0  0  0  0  0  0  0  0  0  0  0
   45.0370   73.4130   31.2160 C   0  0  0  0  0  0  0  0  0  0  0  0
   46.2410   73.1950   30.6060 N   0  0  0  0  0  0  0  0  0  0  0  0
   46.6500   71.9490   30.3210 C   0  0  0  0  0  0  0  0  0  0  0  0
   45.8870   70.8940   30.6290 N   0  0  0  0  0  0  0  0  0  0  0  0
   44.5950   74.7540   31.5460 C   0  0  0  0  0  0  0  0  0  0  0  0
   45.4760   75.8060   31.3450 C   0  0  0  0  0  0  0  0  0  0  0  0
   44.9360   77.0370   31.7150 C   0  0  0  0  0  0  0  0  0  0  0  0
   43.6840   77.2060   32.2190 C   0  0  0  0  0  0  0  0  0  0  0  0
   42.8790   76.1190   32.3850 C   0  0  0  0  0  0  0  0  0  0  0  0
   43.3460   74.8810   32.0430 N   0  0  0  0  0  0  0  0  0  0  0  0
   41.5320   76.1320   32.9070 N   0  0  0  0  0  0  0  0  0  0  0  0
   41.0570   76.7510   34.0020 C   0  0  0  0  0  0  0  0  0  0  0  0
   39.7380   76.6230   34.3130 C   0  0  0  0  0  0  0  0  0  0  0  0
   38.8920   75.8680   33.5220 C   0  0  0  0  0  0  0  0  0  0  0  0
   37.6580   75.7690   33.8470 O   0  0  0  0  0  0  0  0  0  0  0  0
   39.4060   75.2510   32.4170 N   0  0  0  0  0  0  0  0  0  0  0  0
   40.7190   75.3960   32.1330 C   0  0  0  0  0  0  0  0  0  0  0  0
   41.0390   74.7700   31.0850 O   0  0  0  0  0  0  0  0  0  0  0  0
   43.8990   69.8910   31.5550 N   0  0  0  0  0  0  0  0  0  0  0  0
   44.0150   68.7000   30.9320 C   0  0  0  0  0  0  0  0  0  0  0  0
   43.0470   67.8950   31.5870 C   0  0  0  0  0  0  0  0  0  0  0  0
   42.4220   68.6370   32.5410 N   0  0  0  0  0  0  0  0  0  0  0  0
   42.9640   69.8940   32.5150 C   0  0  0  0  0  0  0  0  0  0  0  0
   42.3730   70.6990   33.4650 N   0  0  0  0  0  0  0  0  0  0  0  0
   41.4970   71.8800   33.3510 C   0  0  0  0  0  0  0  0  0  0  0  0
   40.1080   71.3790   33.7050 C   0  0  0  0  0  0  0  0  0  0  0  0
   40.0630   70.6610   35.0090 C   0  0  0  0  0  0  0  0  0  0  0  0
   41.2660   69.8810   35.3890 C   0  0  0  0  0  0  0  0  0  0  0  0
   42.5780   70.3810   34.8880 C   0  0  0  0  0  0  0  0  0  0  0  0
   43.2654   72.4733   32.0293 H   0  0  0  0  0  0  0  0  0  0  0  0
   47.6218   71.7936   29.8295 H   0  0  0  0  0  0  0  0  0  0  0  0
   46.4904   75.6826   30.9379 H   0  0  0  0  0  0  0  0  0  0  0  0
   45.5644   77.9313   31.5910 H   0  0  0  0  0  0  0  0  0  0  0  0
   43.3249   78.2098   32.4898 H   0  0  0  0  0  0  0  0  0  0  0  0
   41.7244   77.3520   34.6371 H   0  0  0  0  0  0  0  0  0  0  0  0
   39.3398   77.1272   35.2059 H   0  0  0  0  0  0  0  0  0  0  0  0
   38.8004   74.6824   31.8080 H   0  0  0  0  0  0  0  0  0  0  0  0
   44.6954   68.4205   30.1141 H   0  0  0  0  0  0  0  0  0  0  0  0
   42.8357   66.8397   31.3597 H   0  0  0  0  0  0  0  0  0  0  0  0
   41.8146   72.6653   34.0527 H   0  0  0  0  0  0  0  0  0  0  0  0
   41.5311   72.3223   32.3444 H   0  0  0  0  0  0  0  0  0  0  0  0
   39.4268   72.2412   33.7559 H   0  0  0  0  0  0  0  0  0  0  0  0
   39.8076   70.6638   32.9251 H   0  0  0  0  0  0  0  0  0  0  0  0
   39.8915   71.4110   35.7952 H   0  0  0  0  0  0  0  0  0  0  0  0
   39.2620   69.9154   34.8976 H   0  0  0  0  0  0  0  0  0  0  0  0
   41.3155   69.8601   36.4877 H   0  0  0  0  0  0  0  0  0  0  0  0
   41.1328   68.8976   34.9144 H   0  0  0  0  0  0  0  0  0  0  0  0
   43.3505   69.6058   34.9992 H   0  0  0  0  0  0  0  0  0  0  0  0
   42.9168   71.2616   35.4535 H   0  0  0  0  0  0  0  0  0  0  0  0
  1  2  2  0
  1 21  1  0
  3  2  1  0
  3  7  1  0
  4  3  2  0
  5  4  1  0
  5  6  2  0
  6  1  1  0
  7 12  1  0
  8  7  2  0
  8  9  1  0
  9 10  2  0
 10 11  1  0
 11 13  1  0
 12 11  2  0
 13 14  1  0
 14 15  2  0
 16 17  2  0
 16 15  1  0
 18 16  1  0
 19 18  1  0
 19 13  1  0
 20 19  2  0
 21 25  1  0
 22 21  1  0
 22 23  2  0
 23 24  1  0
 25 24  2  0
 25 26  1  0
 26 31  1  0
 27 26  1  0
 27 28  1  0
 28 29  1  0
 29 30  1  0
 31 30  1  0
  2 32  1  0
  5 33  1  0
  8 34  1  0
  9 35  1  0
 10 36  1  0
 14 37  1  0
 15 38  1  0
 18 39  1  0
 22 40  1  0
 23 41  1  0
 27 42  1  0
 27 43  1  0
 28 44  1  0
 28 45  1  0
 29 46  1  0
 29 47  1  0
 30 48  1  0
 30 49  1  0
 31 50  1  0
 31 51  1  0
M  END
>  <Score>  (1) 
-7.11208

$$$$
