
     RDKit          3D

 40 44  0  0  0  0  0  0  0  0999 V2000
   46.7240   71.4330   29.0200 C   0  0  0  0  0  0  0  0  0  0  0  0
   45.9680   71.6270   30.1680 C   0  0  0  0  0  0  0  0  0  0  0  0
   45.6040   70.5220   30.9480 C   0  0  0  0  0  0  0  0  0  0  0  0
   46.0160   69.2800   30.5380 N   0  0  0  0  0  0  0  0  0  0  0  0
   46.7670   69.1400   29.3890 C   0  0  0  0  0  0  0  0  0  0  0  0
   47.1050   70.2120   28.6550 N   0  0  0  0  0  0  0  0  0  0  0  0
   47.1680   67.8330   29.0100 N   0  0  0  0  0  0  0  0  0  0  0  0
   48.3940   67.3460   28.8620 C   0  0  0  0  0  0  0  0  0  0  0  0
   48.3590   66.0420   28.4870 N   0  0  0  0  0  0  0  0  0  0  0  0
   47.0720   65.6790   28.3900 C   0  0  0  0  0  0  0  0  0  0  0  0
   46.3840   64.5080   28.0550 C   0  0  0  0  0  0  0  0  0  0  0  0
   47.0440   63.4950   27.7600 O   0  0  0  0  0  0  0  0  0  0  0  0
   45.0310   64.5190   28.0660 N   0  0  0  0  0  0  0  0  0  0  0  0
   44.3180   65.6150   28.3860 C   0  0  0  0  0  0  0  0  0  0  0  0
   42.8940   65.6270   28.3970 N   0  0  0  0  0  0  0  0  0  0  0  0
   45.0110   66.7220   28.7020 N   0  0  0  0  0  0  0  0  0  0  0  0
   46.3580   66.7980   28.7160 C   0  0  0  0  0  0  0  0  0  0  0  0
   45.5010   72.9040   30.6570 C   0  0  0  0  0  0  0  0  0  0  0  0
   46.4290   73.9340   30.9150 C   0  0  0  0  0  0  0  0  0  0  0  0
   45.7640   75.0370   31.3650 C   0  0  0  0  0  0  0  0  0  0  0  0
   44.4370   74.6300   31.3620 C   0  0  0  0  0  0  0  0  0  0  0  0
   44.3190   73.3800   30.9430 O   0  0  0  0  0  0  0  0  0  0  0  0
   43.3000   75.3820   31.7400 N   0  0  0  0  0  0  0  0  0  0  0  0
   42.0520   74.9160   31.9520 C   0  0  0  0  0  0  0  0  0  0  0  0
   41.2870   76.0280   32.3010 C   0  0  0  0  0  0  0  0  0  0  0  0
   42.1240   77.0940   32.2760 N   0  0  0  0  0  0  0  0  0  0  0  0
   43.3610   76.7040   31.9330 C   0  0  0  0  0  0  0  0  0  0  0  0
   44.3900   77.6680   31.8480 N   0  0  0  0  0  0  0  0  0  0  0  0
   47.0112   72.2988   28.4052 H   0  0  0  0  0  0  0  0  0  0  0  0
   45.0054   70.6468   31.8624 H   0  0  0  0  0  0  0  0  0  0  0  0
   49.3166   67.9231   29.0222 H   0  0  0  0  0  0  0  0  0  0  0  0
   44.5270   63.6551   27.8199 H   0  0  0  0  0  0  0  0  0  0  0  0
   42.3882   66.4884   28.6482 H   0  0  0  0  0  0  0  0  0  0  0  0
   42.3699   64.7743   28.1538 H   0  0  0  0  0  0  0  0  0  0  0  0
   47.5176   73.8598   30.7754 H   0  0  0  0  0  0  0  0  0  0  0  0
   46.1789   76.0124   31.6589 H   0  0  0  0  0  0  0  0  0  0  0  0
   41.7090   73.8743   31.8671 H   0  0  0  0  0  0  0  0  0  0  0  0
   40.2151   76.0383   32.5480 H   0  0  0  0  0  0  0  0  0  0  0  0
   44.1867   78.6574   32.0495 H   0  0  0  0  0  0  0  0  0  0  0  0
   45.3436   77.3815   31.5845 H   0  0  0  0  0  0  0  0  0  0  0  0
  1  2  2  0
  2 18  1  0
  2  3  1  0
  4  3  2  0
  5  4  1  0
  6  1  1  0
  6  5  2  0
  7  5  1  0
  8  7  1  0
  9  8  2  0
 10  9  1  0
 10 17  2  0
 11 13  1  0
 11 10  1  0
 12 11  2  0
 13 14  1  0
 14 15  1  0
 14 16  2  0
 16 17  1  0
 17  7  1  0
 18 19  2  0
 18 22  1  0
 19 20  1  0
 21 20  2  0
 21 23  1  0
 22 21  1  0
 23 27  1  0
 23 24  1  0
 24 25  2  0
 26 25  1  0
 27 26  2  0
 28 27  1  0
  1 29  1  0
  3 30  1  0
  8 31  1  0
 13 32  1  0
 15 33  1  0
 15 34  1  0
 19 35  1  0
 20 36  1  0
 24 37  1  0
 25 38  1  0
 28 39  1  0
 28 40  1  0
M  END
>  <Score>  (1) 
-7.76214

$$$$
