
     RDKit          3D

 53 58  0  0  0  0  0  0  0  0999 V2000
   46.5600   71.2420   30.0420 C   0  0  0  0  0  0  0  0  0  0  0  0
   47.5500   72.2160   29.9930 C   0  0  0  0  0  0  0  0  0  0  0  0
   47.0350   73.4040   30.4220 C   0  0  0  0  0  0  0  0  0  0  0  0
   45.7250   73.1000   30.7230 C   0  0  0  0  0  0  0  0  0  0  0  0
   45.4450   71.8170   30.4970 O   0  0  0  0  0  0  0  0  0  0  0  0
   48.1010   69.3930   29.3250 C   0  0  0  0  0  0  0  0  0  0  0  0
   46.8030   69.8570   29.6450 C   0  0  0  0  0  0  0  0  0  0  0  0
   45.6980   69.0100   29.5940 C   0  0  0  0  0  0  0  0  0  0  0  0
   45.9370   67.7170   29.2220 N   0  0  0  0  0  0  0  0  0  0  0  0
   47.1940   67.2840   28.9170 C   0  0  0  0  0  0  0  0  0  0  0  0
   48.2640   68.1160   28.9690 N   0  0  0  0  0  0  0  0  0  0  0  0
   47.4270   65.9340   28.5320 N   0  0  0  0  0  0  0  0  0  0  0  0
   46.4200   65.1430   27.8330 C   0  0  0  0  0  0  0  0  0  0  0  0
   47.2400   64.1470   27.0070 C   0  0  0  0  0  0  0  0  0  0  0  0
   48.3480   64.8140   26.5240 O   0  0  0  0  0  0  0  0  0  0  0  0
   49.3300   65.0610   27.4450 C   0  0  0  0  0  0  0  0  0  0  0  0
   48.7050   65.2950   28.8320 C   0  0  0  0  0  0  0  0  0  0  0  0
   44.7150   73.9670   31.2170 N   0  0  0  0  0  0  0  0  0  0  0  0
   43.4280   73.6600   31.4650 C   0  0  0  0  0  0  0  0  0  0  0  0
   42.8480   74.8210   31.9340 C   0  0  0  0  0  0  0  0  0  0  0  0
   43.8290   75.7690   31.9390 N   0  0  0  0  0  0  0  0  0  0  0  0
   44.9780   75.2400   31.4980 C   0  0  0  0  0  0  0  0  0  0  0  0
   46.1170   76.0640   31.4280 N   0  0  0  0  0  0  0  0  0  0  0  0
   41.4420   74.8940   32.3180 C   0  0  0  0  0  0  0  0  0  0  0  0
   40.6900   76.0080   32.6970 C   0  0  0  0  0  0  0  0  0  0  0  0
   39.4550   75.5830   32.9540 N   0  0  0  0  0  0  0  0  0  0  0  0
   39.3860   74.2590   32.7580 C   0  0  0  0  0  0  0  0  0  0  0  0
   38.3260   73.3970   32.8990 C   0  0  0  0  0  0  0  0  0  0  0  0
   38.4310   72.0340   32.6510 C   0  0  0  0  0  0  0  0  0  0  0  0
   39.6780   71.5500   32.2430 C   0  0  0  0  0  0  0  0  0  0  0  0
   40.7370   72.4270   32.1050 C   0  0  0  0  0  0  0  0  0  0  0  0
   40.6260   73.7620   32.3500 C   0  0  0  0  0  0  0  0  0  0  0  0
   48.5860   72.0544   29.6605 H   0  0  0  0  0  0  0  0  0  0  0  0
   47.5448   74.3750   30.5075 H   0  0  0  0  0  0  0  0  0  0  0  0
   48.9635   70.0743   29.3688 H   0  0  0  0  0  0  0  0  0  0  0  0
   44.6859   69.3636   29.8403 H   0  0  0  0  0  0  0  0  0  0  0  0
   45.7704   64.6168   28.5479 H   0  0  0  0  0  0  0  0  0  0  0  0
   45.7525   65.7594   27.2129 H   0  0  0  0  0  0  0  0  0  0  0  0
   47.5562   63.3054   27.6409 H   0  0  0  0  0  0  0  0  0  0  0  0
   46.6386   63.7477   26.1770 H   0  0  0  0  0  0  0  0  0  0  0  0
   50.0098   64.1976   27.4929 H   0  0  0  0  0  0  0  0  0  0  0  0
   49.8885   65.9598   27.1447 H   0  0  0  0  0  0  0  0  0  0  0  0
   49.3397   65.9545   29.4421 H   0  0  0  0  0  0  0  0  0  0  0  0
   48.5920   64.3665   29.4109 H   0  0  0  0  0  0  0  0  0  0  0  0
   42.9394   72.6847   31.3231 H   0  0  0  0  0  0  0  0  0  0  0  0
   46.0567   77.0515   31.7147 H   0  0  0  0  0  0  0  0  0  0  0  0
   47.0108   75.6795   31.0901 H   0  0  0  0  0  0  0  0  0  0  0  0
   41.0512   77.0445   32.7697 H   0  0  0  0  0  0  0  0  0  0  0  0
   38.6724   76.1801   33.2570 H   0  0  0  0  0  0  0  0  0  0  0  0
   37.3553   73.8019   33.2211 H   0  0  0  0  0  0  0  0  0  0  0  0
   37.5680   71.3626   32.7708 H   0  0  0  0  0  0  0  0  0  0  0  0
   39.8149   70.4789   32.0334 H   0  0  0  0  0  0  0  0  0  0  0  0
   41.7111   72.0298   31.7836 H   0  0  0  0  0  0  0  0  0  0  0  0
  1  5  1  0
  2  1  2  0
  2  3  1  0
  3  4  2  0
  4 18  1  0
  5  4  1  0
  6  7  2  0
  7  1  1  0
  8  7  1  0
  9  8  2  0
 10 11  2  0
 10  9  1  0
 11  6  1  0
 12 17  1  0
 12 10  1  0
 13 12  1  0
 14 13  1  0
 15 14  1  0
 15 16  1  0
 16 17  1  0
 18 19  1  0
 18 22  1  0
 19 20  2  0
 20 21  1  0
 20 24  1  0
 22 21  2  0
 23 22  1  0
 24 32  1  0
 24 25  2  0
 25 26  1  0
 27 28  2  0
 27 26  1  0
 29 28  1  0
 30 29  2  0
 31 30  1  0
 31 32  2  0
 32 27  1  0
  2 33  1  0
  3 34  1  0
  6 35  1  0
  8 36  1  0
 13 37  1  0
 13 38  1  0
 14 39  1  0
 14 40  1  0
 16 41  1  0
 16 42  1  0
 17 43  1  0
 17 44  1  0
 19 45  1  0
 23 46  1  0
 23 47  1  0
 25 48  1  0
 26 49  1  0
 28 50  1  0
 29 51  1  0
 30 52  1  0
 31 53  1  0
M  END
>  <Score>  (1) 
-7.44811

$$$$
