
     RDKit          3D

 47 51  0  0  0  0  0  0  0  0999 V2000
   44.7350   70.1360   31.1370 C   0  0  0  0  0  0  0  0  0  0  0  0
   44.7930   68.8720   30.5460 C   0  0  0  0  0  0  0  0  0  0  0  0
   43.7140   67.9950   30.6900 C   0  0  0  0  0  0  0  0  0  0  0  0
   42.6010   68.4020   31.4250 C   0  0  0  0  0  0  0  0  0  0  0  0
   42.5390   69.6530   32.0130 C   0  0  0  0  0  0  0  0  0  0  0  0
   43.6300   70.4880   31.8440 C   0  0  0  0  0  0  0  0  0  0  0  0
   43.5390   71.8100   32.4770 C   0  0  0  0  0  0  0  0  0  0  0  0
   43.6270   71.9800   33.8180 N   0  0  0  0  0  0  0  0  0  0  0  0
   43.5190   73.2350   34.1540 O   0  0  0  0  0  0  0  0  0  0  0  0
   43.3580   73.9350   33.0600 C   0  0  0  0  0  0  0  0  0  0  0  0
   43.3730   73.0580   32.0580 N   0  0  0  0  0  0  0  0  0  0  0  0
   43.1850   75.2870   32.6740 N   0  0  0  0  0  0  0  0  0  0  0  0
   43.7940   75.8260   31.4560 C   0  0  0  0  0  0  0  0  0  0  0  0
   43.9680   77.3080   31.8330 C   0  0  0  0  0  0  0  0  0  0  0  0
   42.5660   77.5420   32.4060 C   0  0  0  0  0  0  0  0  0  0  0  0
   42.4320   76.3450   33.3370 C   0  0  0  0  0  0  0  0  0  0  0  0
   47.0810   72.8110   29.8640 C   0  0  0  0  0  0  0  0  0  0  0  0
   45.9120   72.0320   30.0110 C   0  0  0  0  0  0  0  0  0  0  0  0
   45.8900   70.9710   30.9360 C   0  0  0  0  0  0  0  0  0  0  0  0
   47.0190   70.7410   31.6620 N   0  0  0  0  0  0  0  0  0  0  0  0
   48.1390   71.5260   31.4880 C   0  0  0  0  0  0  0  0  0  0  0  0
   48.1510   72.5190   30.6160 N   0  0  0  0  0  0  0  0  0  0  0  0
   49.2700   71.2090   32.2910 N   0  0  0  0  0  0  0  0  0  0  0  0
   50.3420   71.9940   32.5000 C   0  0  0  0  0  0  0  0  0  0  0  0
   51.3700   71.5330   33.3190 C   0  0  0  0  0  0  0  0  0  0  0  0
   51.3430   70.2910   33.9350 C   0  0  0  0  0  0  0  0  0  0  0  0
   52.2600   69.8840   34.6620 O   0  0  0  0  0  0  0  0  0  0  0  0
   50.2440   69.5600   33.6820 N   0  0  0  0  0  0  0  0  0  0  0  0
   49.2450   69.9950   32.8940 C   0  0  0  0  0  0  0  0  0  0  0  0
   48.2640   69.1900   32.7470 O   0  0  0  0  0  0  0  0  0  0  0  0
   45.6808   68.5689   29.9717 H   0  0  0  0  0  0  0  0  0  0  0  0
   43.7425   66.9965   30.2294 H   0  0  0  0  0  0  0  0  0  0  0  0
   41.7521   67.7120   31.5401 H   0  0  0  0  0  0  0  0  0  0  0  0
   41.6588   69.9709   32.5911 H   0  0  0  0  0  0  0  0  0  0  0  0
   43.1295   75.7072   30.5875 H   0  0  0  0  0  0  0  0  0  0  0  0
   44.7275   75.3248   31.1605 H   0  0  0  0  0  0  0  0  0  0  0  0
   44.7568   77.4578   32.5849 H   0  0  0  0  0  0  0  0  0  0  0  0
   44.2786   77.9818   31.0209 H   0  0  0  0  0  0  0  0  0  0  0  0
   42.5080   78.4919   32.9577 H   0  0  0  0  0  0  0  0  0  0  0  0
   41.7725   77.6193   31.6482 H   0  0  0  0  0  0  0  0  0  0  0  0
   41.3765   76.0580   33.4532 H   0  0  0  0  0  0  0  0  0  0  0  0
   42.8063   76.5561   34.3496 H   0  0  0  0  0  0  0  0  0  0  0  0
   47.1125   73.6428   29.1448 H   0  0  0  0  0  0  0  0  0  0  0  0
   45.0215   72.2537   29.4045 H   0  0  0  0  0  0  0  0  0  0  0  0
   50.4060   72.9867   32.0305 H   0  0  0  0  0  0  0  0  0  0  0  0
   52.2419   72.1830   33.4845 H   0  0  0  0  0  0  0  0  0  0  0  0
   50.1635   68.6266   34.1100 H   0  0  0  0  0  0  0  0  0  0  0  0
  1  6  2  0
  2  3  2  0
  2  1  1  0
  3  4  1  0
  4  5  2  0
  6  5  1  0
  6  7  1  0
  7  8  2  0
  8  9  1  0
 10  9  1  0
 11  7  1  0
 11 10  2  0
 12 10  1  0
 12 16  1  0
 13 14  1  0
 13 12  1  0
 14 15  1  0
 15 16  1  0
 17 18  2  0
 17 22  1  0
 18 19  1  0
 19  1  1  0
 19 20  2  0
 21 20  1  0
 21 23  1  0
 22 21  2  0
 23 24  1  0
 23 29  1  0
 24 25  2  0
 25 26  1  0
 26 27  2  0
 28 26  1  0
 29 28  1  0
 30 29  2  0
  2 31  1  0
  3 32  1  0
  4 33  1  0
  5 34  1  0
 13 35  1  0
 13 36  1  0
 14 37  1  0
 14 38  1  0
 15 39  1  0
 15 40  1  0
 16 41  1  0
 16 42  1  0
 17 43  1  0
 18 44  1  0
 24 45  1  0
 25 46  1  0
 28 47  1  0
M  END
>  <Score>  (1) 
-7.47362

$$$$
