
     RDKit          3D

 47 52  0  0  0  0  0  0  0  0999 V2000
   44.8230   71.1170   31.0580 C   0  0  0  0  0  0  0  0  0  0  0  0
   44.3840   72.4060   31.3900 C   0  0  0  0  0  0  0  0  0  0  0  0
   45.2090   73.4940   31.1670 C   0  0  0  0  0  0  0  0  0  0  0  0
   46.4390   73.2790   30.6220 N   0  0  0  0  0  0  0  0  0  0  0  0
   46.8420   72.0330   30.3080 C   0  0  0  0  0  0  0  0  0  0  0  0
   46.0480   70.9800   30.5240 N   0  0  0  0  0  0  0  0  0  0  0  0
   44.7740   74.8270   31.5330 C   0  0  0  0  0  0  0  0  0  0  0  0
   45.6600   75.8820   31.3550 C   0  0  0  0  0  0  0  0  0  0  0  0
   45.1230   77.1070   31.7520 C   0  0  0  0  0  0  0  0  0  0  0  0
   43.8690   77.2660   32.2600 C   0  0  0  0  0  0  0  0  0  0  0  0
   43.0560   76.1720   32.4040 C   0  0  0  0  0  0  0  0  0  0  0  0
   43.5260   74.9450   32.0320 N   0  0  0  0  0  0  0  0  0  0  0  0
   41.7120   76.1810   32.9170 N   0  0  0  0  0  0  0  0  0  0  0  0
   41.2180   76.7820   34.0070 C   0  0  0  0  0  0  0  0  0  0  0  0
   39.8860   76.6550   34.2840 C   0  0  0  0  0  0  0  0  0  0  0  0
   39.0460   75.9170   33.4530 C   0  0  0  0  0  0  0  0  0  0  0  0
   37.8100   75.8240   33.7480 O   0  0  0  0  0  0  0  0  0  0  0  0
   39.5890   75.3290   32.3610 N   0  0  0  0  0  0  0  0  0  0  0  0
   40.8950   75.4590   32.1020 C   0  0  0  0  0  0  0  0  0  0  0  0
   41.2230   74.8490   31.0580 O   0  0  0  0  0  0  0  0  0  0  0  0
   43.9910   69.9850   31.3120 N   0  0  0  0  0  0  0  0  0  0  0  0
   44.3260   68.7290   30.9300 C   0  0  0  0  0  0  0  0  0  0  0  0
   43.2490   67.9540   31.4060 C   0  0  0  0  0  0  0  0  0  0  0  0
   42.3500   68.7650   32.0300 N   0  0  0  0  0  0  0  0  0  0  0  0
   42.8260   70.0510   31.9690 C   0  0  0  0  0  0  0  0  0  0  0  0
   41.9440   70.8890   32.6450 N   0  0  0  0  0  0  0  0  0  0  0  0
   42.0350   71.5860   33.8270 C   0  0  0  0  0  0  0  0  0  0  0  0
   40.8760   72.2000   34.1050 N   0  0  0  0  0  0  0  0  0  0  0  0
   39.9720   71.9490   33.1440 C   0  0  0  0  0  0  0  0  0  0  0  0
   38.6630   72.2170   32.8110 C   0  0  0  0  0  0  0  0  0  0  0  0
   38.0520   71.7490   31.7090 N   0  0  0  0  0  0  0  0  0  0  0  0
   38.7360   70.9640   30.8560 C   0  0  0  0  0  0  0  0  0  0  0  0
   40.0160   70.6810   31.1500 N   0  0  0  0  0  0  0  0  0  0  0  0
   40.6490   71.1500   32.2670 C   0  0  0  0  0  0  0  0  0  0  0  0
   43.3852   72.5523   31.8271 H   0  0  0  0  0  0  0  0  0  0  0  0
   47.8383   71.8799   29.8677 H   0  0  0  0  0  0  0  0  0  0  0  0
   46.6742   75.7644   30.9457 H   0  0  0  0  0  0  0  0  0  0  0  0
   45.7531   78.0026   31.6481 H   0  0  0  0  0  0  0  0  0  0  0  0
   43.5118   78.2645   32.5523 H   0  0  0  0  0  0  0  0  0  0  0  0
   41.8734   77.3680   34.6681 H   0  0  0  0  0  0  0  0  0  0  0  0
   39.4702   77.1434   35.1776 H   0  0  0  0  0  0  0  0  0  0  0  0
   38.9933   74.7785   31.7262 H   0  0  0  0  0  0  0  0  0  0  0  0
   45.2198   68.3956   30.3824 H   0  0  0  0  0  0  0  0  0  0  0  0
   43.1501   66.8645   31.2914 H   0  0  0  0  0  0  0  0  0  0  0  0
   42.9350   71.6333   34.4577 H   0  0  0  0  0  0  0  0  0  0  0  0
   38.0796   72.8554   33.4908 H   0  0  0  0  0  0  0  0  0  0  0  0
   38.2618   70.5666   29.9465 H   0  0  0  0  0  0  0  0  0  0  0  0
  1 21  1  0
  1  2  2  0
  3  2  1  0
  3  7  1  0
  4  3  2  0
  5  6  2  0
  5  4  1  0
  6  1  1  0
  7 12  1  0
  8  7  2  0
  8  9  1  0
  9 10  2  0
 10 11  1  0
 11 13  1  0
 12 11  2  0
 13 14  1  0
 14 15  2  0
 16 17  2  0
 16 15  1  0
 18 16  1  0
 19 18  1  0
 19 13  1  0
 20 19  2  0
 21 25  1  0
 22 21  1  0
 22 23  2  0
 23 24  1  0
 25 24  2  0
 25 26  1  0
 26 27  1  0
 27 28  2  0
 29 28  1  0
 30 29  2  0
 31 30  1  0
 32 33  1  0
 32 31  2  0
 33 34  2  0
 34 26  1  0
 34 29  1  0
  2 35  1  0
  5 36  1  0
  8 37  1  0
  9 38  1  0
 10 39  1  0
 14 40  1  0
 15 41  1  0
 18 42  1  0
 22 43  1  0
 23 44  1  0
 27 45  1  0
 30 46  1  0
 32 47  1  0
M  END
>  <Score>  (1) 
-7.63181

$$$$
