
     RDKit          3D

 45 49  0  0  0  0  0  0  0  0999 V2000
   45.9540   71.2990   31.0780 C   0  0  0  0  0  0  0  0  0  0  0  0
   46.0370   72.1870   29.9980 C   0  0  0  0  0  0  0  0  0  0  0  0
   47.2720   72.7980   29.7320 C   0  0  0  0  0  0  0  0  0  0  0  0
   48.3320   72.4970   30.5400 N   0  0  0  0  0  0  0  0  0  0  0  0
   48.2110   71.6250   31.5850 C   0  0  0  0  0  0  0  0  0  0  0  0
   47.0360   71.0570   31.8220 N   0  0  0  0  0  0  0  0  0  0  0  0
   49.3470   71.3170   32.4340 C   0  0  0  0  0  0  0  0  0  0  0  0
   50.4670   72.1160   32.4790 C   0  0  0  0  0  0  0  0  0  0  0  0
   51.5730   71.8300   33.2950 C   0  0  0  0  0  0  0  0  0  0  0  0
   51.5140   70.6880   34.0820 C   0  0  0  0  0  0  0  0  0  0  0  0
   50.3820   69.9140   34.0120 C   0  0  0  0  0  0  0  0  0  0  0  0
   49.3300   70.1980   33.2270 N   0  0  0  0  0  0  0  0  0  0  0  0
   50.2820   68.7290   34.8090 N   0  0  0  0  0  0  0  0  0  0  0  0
   49.2550   67.8690   34.8790 C   0  0  0  0  0  0  0  0  0  0  0  0
   49.5270   66.8680   35.7410 N   0  0  0  0  0  0  0  0  0  0  0  0
   50.7610   67.1350   36.2040 C   0  0  0  0  0  0  0  0  0  0  0  0
   51.6180   66.5250   37.0960 C   0  0  0  0  0  0  0  0  0  0  0  0
   52.8350   67.0080   37.3950 N   0  0  0  0  0  0  0  0  0  0  0  0
   53.2780   68.1550   36.8090 C   0  0  0  0  0  0  0  0  0  0  0  0
   52.4700   68.7800   35.9330 N   0  0  0  0  0  0  0  0  0  0  0  0
   51.2540   68.2940   35.6360 C   0  0  0  0  0  0  0  0  0  0  0  0
   51.1820   65.3240   37.7240 N   0  0  0  0  0  0  0  0  0  0  0  0
   44.7280   70.6680   31.3740 N   0  0  0  0  0  0  0  0  0  0  0  0
   44.5090   69.3900   31.0170 C   0  0  0  0  0  0  0  0  0  0  0  0
   43.2880   68.7740   31.3160 C   0  0  0  0  0  0  0  0  0  0  0  0
   42.4050   69.6100   31.9810 C   0  0  0  0  0  0  0  0  0  0  0  0
   41.2800   69.0790   32.2700 O   0  0  0  0  0  0  0  0  0  0  0  0
   42.5910   70.8750   32.3480 N   0  0  0  0  0  0  0  0  0  0  0  0
   43.7980   71.4010   32.0230 C   0  0  0  0  0  0  0  0  0  0  0  0
   44.0110   72.6090   32.3580 O   0  0  0  0  0  0  0  0  0  0  0  0
   42.9510   67.3860   30.9700 C   0  0  0  0  0  0  0  0  0  0  0  0
   45.1564   72.4001   29.3741 H   0  0  0  0  0  0  0  0  0  0  0  0
   47.3839   73.5017   28.8940 H   0  0  0  0  0  0  0  0  0  0  0  0
   50.4967   73.0170   31.8487 H   0  0  0  0  0  0  0  0  0  0  0  0
   52.4548   72.4874   33.3102 H   0  0  0  0  0  0  0  0  0  0  0  0
   52.3493   70.4113   34.7421 H   0  0  0  0  0  0  0  0  0  0  0  0
   48.3183   67.9668   34.3106 H   0  0  0  0  0  0  0  0  0  0  0  0
   54.2725   68.5607   37.0462 H   0  0  0  0  0  0  0  0  0  0  0  0
   51.7962   64.8417   38.3956 H   0  0  0  0  0  0  0  0  0  0  0  0
   50.2524   64.9374   37.5068 H   0  0  0  0  0  0  0  0  0  0  0  0
   45.2920   68.8268   30.4882 H   0  0  0  0  0  0  0  0  0  0  0  0
   41.8691   71.4169   32.8441 H   0  0  0  0  0  0  0  0  0  0  0  0
   42.8093   66.8024   31.8916 H   0  0  0  0  0  0  0  0  0  0  0  0
   42.0229   67.3702   30.3797 H   0  0  0  0  0  0  0  0  0  0  0  0
   43.7685   66.9464   30.3797 H   0  0  0  0  0  0  0  0  0  0  0  0
  1 23  1  0
  1  6  1  0
  2  1  2  0
  3  2  1  0
  3  4  2  0
  4  5  1  0
  5  6  2  0
  5  7  1  0
  7  8  2  0
  7 12  1  0
  8  9  1  0
  9 10  2  0
 11 10  1  0
 11 13  1  0
 12 11  2  0
 13 14  1  0
 13 21  1  0
 14 15  2  0
 15 16  1  0
 16 17  2  0
 17 18  1  0
 17 22  1  0
 19 18  2  0
 20 19  1  0
 21 20  2  0
 21 16  1  0
 23 29  1  0
 24 25  2  0
 24 23  1  0
 25 26  1  0
 26 27  2  0
 26 28  1  0
 29 28  1  0
 29 30  2  0
 31 25  1  0
  2 32  1  0
  3 33  1  0
  8 34  1  0
  9 35  1  0
 10 36  1  0
 14 37  1  0
 19 38  1  0
 22 39  1  0
 22 40  1  0
 24 41  1  0
 28 42  1  0
 31 43  1  0
 31 44  1  0
 31 45  1  0
M  END
>  <Score>  (1) 
-7.27415

$$$$
