
     RDKit          3D

 49 53  0  0  0  0  0  0  0  0999 V2000
   52.3560   67.9680   34.1280 C   0  0  0  0  0  0  0  0  0  0  0  0
   51.9990   69.3160   34.0630 C   0  0  0  0  0  0  0  0  0  0  0  0
   53.0540   70.1940   34.0200 C   0  0  0  0  0  0  0  0  0  0  0  0
   54.2770   69.6980   34.0440 N   0  0  0  0  0  0  0  0  0  0  0  0
   54.6580   68.4460   34.1050 C   0  0  0  0  0  0  0  0  0  0  0  0
   53.6380   67.6130   34.1460 N   0  0  0  0  0  0  0  0  0  0  0  0
   55.9300   67.7790   34.1380 C   0  0  0  0  0  0  0  0  0  0  0  0
   56.8460   67.9120   35.1930 C   0  0  0  0  0  0  0  0  0  0  0  0
   58.0650   67.2840   35.2440 C   0  0  0  0  0  0  0  0  0  0  0  0
   58.4520   66.4750   34.2350 C   0  0  0  0  0  0  0  0  0  0  0  0
   57.6100   66.2970   33.1710 C   0  0  0  0  0  0  0  0  0  0  0  0
   58.0290   65.4560   32.1380 C   0  0  0  0  0  0  0  0  0  0  0  0
   57.2460   65.2320   31.0500 C   0  0  0  0  0  0  0  0  0  0  0  0
   56.0050   65.8760   31.0060 C   0  0  0  0  0  0  0  0  0  0  0  0
   55.6330   66.6880   32.0340 C   0  0  0  0  0  0  0  0  0  0  0  0
   56.3900   66.9370   33.1410 C   0  0  0  0  0  0  0  0  0  0  0  0
   52.8360   71.6220   33.9510 C   0  0  0  0  0  0  0  0  0  0  0  0
   53.3140   72.4430   34.7850 O   0  0  0  0  0  0  0  0  0  0  0  0
   52.0780   72.1880   32.9530 O   0  0  0  0  0  0  0  0  0  0  0  0
   48.6000   72.1930   33.7100 N   0  0  0  0  0  0  0  0  0  0  0  0
   49.8740   72.3040   34.0530 N   0  0  0  0  0  0  0  0  0  0  0  0
   50.6820   72.1430   32.9930 C   0  0  0  0  0  0  0  0  0  0  0  0
   49.8500   71.9140   31.9040 C   0  0  0  0  0  0  0  0  0  0  0  0
   48.5750   71.9530   32.3850 C   0  0  0  0  0  0  0  0  0  0  0  0
   47.3840   71.7710   31.6280 N   0  0  0  0  0  0  0  0  0  0  0  0
   46.5340   72.8920   31.2710 C   0  0  0  0  0  0  0  0  0  0  0  0
   45.8160   72.5260   29.9850 C   0  0  0  0  0  0  0  0  0  0  0  0
   46.5780   71.7310   29.1630 O   0  0  0  0  0  0  0  0  0  0  0  0
   46.9350   70.5090   29.6720 C   0  0  0  0  0  0  0  0  0  0  0  0
   46.9770   70.4490   31.1840 C   0  0  0  0  0  0  0  0  0  0  0  0
   51.5736   67.1957   34.1645 H   0  0  0  0  0  0  0  0  0  0  0  0
   50.9510   69.6499   34.0474 H   0  0  0  0  0  0  0  0  0  0  0  0
   56.5682   68.5630   36.0350 H   0  0  0  0  0  0  0  0  0  0  0  0
   58.7276   67.4400   36.1081 H   0  0  0  0  0  0  0  0  0  0  0  0
   59.4274   65.9676   34.2675 H   0  0  0  0  0  0  0  0  0  0  0  0
   59.0113   64.9656   32.2062 H   0  0  0  0  0  0  0  0  0  0  0  0
   57.5753   64.5700   30.2356 H   0  0  0  0  0  0  0  0  0  0  0  0
   55.3342   65.7275   30.1469 H   0  0  0  0  0  0  0  0  0  0  0  0
   54.6508   67.1787   31.9668 H   0  0  0  0  0  0  0  0  0  0  0  0
   47.7857   72.2744   34.3354 H   0  0  0  0  0  0  0  0  0  0  0  0
   50.1582   71.7368   30.8630 H   0  0  0  0  0  0  0  0  0  0  0  0
   45.8018   73.0781   32.0705 H   0  0  0  0  0  0  0  0  0  0  0  0
   47.1322   73.8051   31.1354 H   0  0  0  0  0  0  0  0  0  0  0  0
   44.8915   71.9867   30.2387 H   0  0  0  0  0  0  0  0  0  0  0  0
   45.6048   73.4599   29.4435 H   0  0  0  0  0  0  0  0  0  0  0  0
   46.2078   69.7633   29.3182 H   0  0  0  0  0  0  0  0  0  0  0  0
   47.9585   70.3100   29.3216 H   0  0  0  0  0  0  0  0  0  0  0  0
   45.9828   70.2011   31.5841 H   0  0  0  0  0  0  0  0  0  0  0  0
   47.6738   69.6743   31.5364 H   0  0  0  0  0  0  0  0  0  0  0  0
  1  6  2  0
  2  1  1  0
  3  4  1  0
  3  2  2  0
  4  5  2  0
  5  7  1  0
  5  6  1  0
  7  8  2  0
  8  9  1  0
 10  9  2  0
 11 10  1  0
 12 11  2  0
 13 12  1  0
 14 13  2  0
 14 15  1  0
 15 16  2  0
 16 11  1  0
 16  7  1  0
 17  3  1  0
 17 18  2  0
 19 22  1  0
 19 17  1  0
 20 21  1  0
 22 21  2  0
 23 24  2  0
 23 22  1  0
 24 20  1  0
 25 24  1  0
 26 25  1  0
 27 26  1  0
 28 29  1  0
 28 27  1  0
 29 30  1  0
 30 25  1  0
  1 31  1  0
  2 32  1  0
  8 33  1  0
  9 34  1  0
 10 35  1  0
 12 36  1  0
 13 37  1  0
 14 38  1  0
 15 39  1  0
 20 40  1  0
 23 41  1  0
 26 42  1  0
 26 43  1  0
 27 44  1  0
 27 45  1  0
 29 46  1  0
 29 47  1  0
 30 48  1  0
 30 49  1  0
M  END
>  <Score>  (1) 
-7.08

$$$$
