
     RDKit          3D

 36 39  0  0  0  0  0  0  0  0999 V2000
   45.8240   72.7650   29.9090 C   0  0  0  0  0  0  0  0  0  0  0  0
   44.8540   72.5660   30.9420 C   0  0  0  0  0  0  0  0  0  0  0  0
   44.6680   71.2450   31.4080 C   0  0  0  0  0  0  0  0  0  0  0  0
   45.4120   70.2520   30.8570 N   0  0  0  0  0  0  0  0  0  0  0  0
   46.3210   70.4790   29.8820 C   0  0  0  0  0  0  0  0  0  0  0  0
   46.5450   71.7500   29.3870 N   0  0  0  0  0  0  0  0  0  0  0  0
   46.9550   69.2740   29.4900 N   0  0  0  0  0  0  0  0  0  0  0  0
   48.2920   69.1270   29.4490 C   0  0  0  0  0  0  0  0  0  0  0  0
   48.6030   67.8690   29.0370 N   0  0  0  0  0  0  0  0  0  0  0  0
   47.4540   67.2060   28.8120 C   0  0  0  0  0  0  0  0  0  0  0  0
   47.2130   65.9050   28.3840 C   0  0  0  0  0  0  0  0  0  0  0  0
   48.1670   65.1290   28.1340 O   0  0  0  0  0  0  0  0  0  0  0  0
   45.9100   65.5980   28.2750 N   0  0  0  0  0  0  0  0  0  0  0  0
   44.9160   66.4420   28.5460 C   0  0  0  0  0  0  0  0  0  0  0  0
   43.5540   66.0030   28.3940 N   0  0  0  0  0  0  0  0  0  0  0  0
   45.1860   67.6960   28.9600 N   0  0  0  0  0  0  0  0  0  0  0  0
   46.4420   68.0950   29.0990 C   0  0  0  0  0  0  0  0  0  0  0  0
   44.1850   73.7460   31.3830 C   0  0  0  0  0  0  0  0  0  0  0  0
   42.7980   73.7380   31.7060 C   0  0  0  0  0  0  0  0  0  0  0  0
   42.1540   74.8910   32.1270 C   0  0  0  0  0  0  0  0  0  0  0  0
   42.9280   76.0350   32.2140 C   0  0  0  0  0  0  0  0  0  0  0  0
   44.2920   76.0960   31.9090 C   0  0  0  0  0  0  0  0  0  0  0  0
   44.8690   74.9300   31.5020 C   0  0  0  0  0  0  0  0  0  0  0  0
   46.2550   75.1660   31.2480 N   0  0  0  0  0  0  0  0  0  0  0  0
   45.9883   73.7830   29.5259 H   0  0  0  0  0  0  0  0  0  0  0  0
   43.9365   71.0260   32.1998 H   0  0  0  0  0  0  0  0  0  0  0  0
   49.0229   69.9067   29.7094 H   0  0  0  0  0  0  0  0  0  0  0  0
   45.6635   64.6483   27.9615 H   0  0  0  0  0  0  0  0  0  0  0  0
   42.7787   66.6486   28.6012 H   0  0  0  0  0  0  0  0  0  0  0  0
   43.3545   65.0432   28.0780 H   0  0  0  0  0  0  0  0  0  0  0  0
   42.2281   72.8011   31.6199 H   0  0  0  0  0  0  0  0  0  0  0  0
   41.0832   74.8964   32.3789 H   0  0  0  0  0  0  0  0  0  0  0  0
   42.4363   76.9612   32.5462 H   0  0  0  0  0  0  0  0  0  0  0  0
   44.8657   77.0308   31.9928 H   0  0  0  0  0  0  0  0  0  0  0  0
   46.6488   76.1090   31.3763 H   0  0  0  0  0  0  0  0  0  0  0  0
   46.8604   74.3931   30.9365 H   0  0  0  0  0  0  0  0  0  0  0  0
  1  2  2  0
  2 18  1  0
  2  3  1  0
  4  3  2  0
  5  4  1  0
  6  5  2  0
  6  1  1  0
  7  5  1  0
  8  7  1  0
  9  8  2  0
 10  9  1  0
 10 17  2  0
 11 10  1  0
 12 11  2  0
 13 11  1  0
 13 14  1  0
 14 16  2  0
 15 14  1  0
 16 17  1  0
 17  7  1  0
 18 23  1  0
 18 19  2  0
 19 20  1  0
 20 21  2  0
 22 21  1  0
 23 22  2  0
 24 23  1  0
  1 25  1  0
  3 26  1  0
  8 27  1  0
 13 28  1  0
 15 29  1  0
 15 30  1  0
 19 31  1  0
 20 32  1  0
 21 33  1  0
 22 34  1  0
 24 35  1  0
 24 36  1  0
M  END
>  <Score>  (1) 
-7.27256

$$$$
