
     RDKit          3D

 49 53  0  0  0  0  0  0  0  0999 V2000
   46.7080   70.9470   30.0250 C   0  0  0  0  0  0  0  0  0  0  0  0
   47.6930   71.9470   30.0330 C   0  0  0  0  0  0  0  0  0  0  0  0
   47.1250   73.1200   30.4660 C   0  0  0  0  0  0  0  0  0  0  0  0
   45.8170   72.7870   30.7040 C   0  0  0  0  0  0  0  0  0  0  0  0
   45.5810   71.5020   30.4410 O   0  0  0  0  0  0  0  0  0  0  0  0
   48.3510   69.1500   29.3540 C   0  0  0  0  0  0  0  0  0  0  0  0
   47.0530   69.5980   29.6030 C   0  0  0  0  0  0  0  0  0  0  0  0
   45.9430   68.7370   29.4550 C   0  0  0  0  0  0  0  0  0  0  0  0
   46.2040   67.4430   29.0540 N   0  0  0  0  0  0  0  0  0  0  0  0
   47.4690   67.0350   28.8200 C   0  0  0  0  0  0  0  0  0  0  0  0
   48.5300   67.8770   28.9680 N   0  0  0  0  0  0  0  0  0  0  0  0
   47.7660   65.7060   28.4070 N   0  0  0  0  0  0  0  0  0  0  0  0
   46.8100   64.9250   27.6270 C   0  0  0  0  0  0  0  0  0  0  0  0
   47.6800   63.9720   26.7950 C   0  0  0  0  0  0  0  0  0  0  0  0
   48.8070   64.6740   26.3910 O   0  0  0  0  0  0  0  0  0  0  0  0
   49.7300   64.8930   27.3890 C   0  0  0  0  0  0  0  0  0  0  0  0
   49.0200   65.0810   28.7410 C   0  0  0  0  0  0  0  0  0  0  0  0
   44.7550   73.6150   31.1720 N   0  0  0  0  0  0  0  0  0  0  0  0
   43.5010   73.2580   31.4060 C   0  0  0  0  0  0  0  0  0  0  0  0
   42.8220   74.3690   31.8370 C   0  0  0  0  0  0  0  0  0  0  0  0
   43.7690   75.3730   31.8320 N   0  0  0  0  0  0  0  0  0  0  0  0
   44.9490   74.9020   31.4240 C   0  0  0  0  0  0  0  0  0  0  0  0
   46.0590   75.7730   31.3460 N   0  0  0  0  0  0  0  0  0  0  0  0
   41.4480   74.4410   32.2010 N   0  0  0  0  0  0  0  0  0  0  0  0
   40.8300   73.2480   32.2160 C   0  0  0  0  0  0  0  0  0  0  0  0
   39.4810   73.2020   32.5600 C   0  0  0  0  0  0  0  0  0  0  0  0
   38.7770   74.3530   32.8810 C   0  0  0  0  0  0  0  0  0  0  0  0
   37.5620   74.3510   33.1960 O   0  0  0  0  0  0  0  0  0  0  0  0
   39.4710   75.5270   32.8430 N   0  0  0  0  0  0  0  0  0  0  0  0
   40.7730   75.5660   32.5110 C   0  0  0  0  0  0  0  0  0  0  0  0
   41.4280   76.6450   32.4730 O   0  0  0  0  0  0  0  0  0  0  0  0
   48.7451   71.8133   29.7410 H   0  0  0  0  0  0  0  0  0  0  0  0
   47.6081   74.1001   30.5925 H   0  0  0  0  0  0  0  0  0  0  0  0
   49.2103   69.8266   29.4717 H   0  0  0  0  0  0  0  0  0  0  0  0
   44.9172   69.0825   29.6506 H   0  0  0  0  0  0  0  0  0  0  0  0
   46.1378   64.3596   28.2892 H   0  0  0  0  0  0  0  0  0  0  0  0
   46.1657   65.5584   26.9996 H   0  0  0  0  0  0  0  0  0  0  0  0
   47.9767   63.1063   27.4054 H   0  0  0  0  0  0  0  0  0  0  0  0
   47.1216   63.6040   25.9216 H   0  0  0  0  0  0  0  0  0  0  0  0
   50.4080   64.0291   27.4522 H   0  0  0  0  0  0  0  0  0  0  0  0
   50.3009   65.8037   27.1549 H   0  0  0  0  0  0  0  0  0  0  0  0
   49.6124   65.7283   29.4044 H   0  0  0  0  0  0  0  0  0  0  0  0
   48.8834   64.1302   29.2770 H   0  0  0  0  0  0  0  0  0  0  0  0
   43.0794   72.2502   31.2775 H   0  0  0  0  0  0  0  0  0  0  0  0
   45.9547   76.7645   31.6046 H   0  0  0  0  0  0  0  0  0  0  0  0
   46.9723   75.4163   31.0306 H   0  0  0  0  0  0  0  0  0  0  0  0
   41.3772   72.3281   31.9623 H   0  0  0  0  0  0  0  0  0  0  0  0
   38.9629   72.2318   32.5774 H   0  0  0  0  0  0  0  0  0  0  0  0
   38.9852   76.4053   33.0745 H   0  0  0  0  0  0  0  0  0  0  0  0
  1  2  2  0
  1  5  1  0
  2  3  1  0
  3  4  2  0
  4 18  1  0
  5  4  1  0
  6  7  2  0
  7  1  1  0
  8  7  1  0
  9  8  2  0
 10 11  2  0
 10  9  1  0
 11  6  1  0
 12 17  1  0
 12 10  1  0
 13 12  1  0
 14 13  1  0
 15 14  1  0
 15 16  1  0
 16 17  1  0
 18 19  1  0
 18 22  1  0
 19 20  2  0
 20 24  1  0
 21 20  1  0
 22 21  2  0
 23 22  1  0
 24 25  1  0
 24 30  1  0
 25 26  2  0
 26 27  1  0
 27 28  2  0
 29 27  1  0
 30 29  1  0
 31 30  2  0
  2 32  1  0
  3 33  1  0
  6 34  1  0
  8 35  1  0
 13 36  1  0
 13 37  1  0
 14 38  1  0
 14 39  1  0
 16 40  1  0
 16 41  1  0
 17 42  1  0
 17 43  1  0
 19 44  1  0
 23 45  1  0
 23 46  1  0
 25 47  1  0
 26 48  1  0
 29 49  1  0
M  END
>  <Score>  (1) 
-7.22891

$$$$
