
     RDKit          3D

 53 58  0  0  0  0  0  0  0  0999 V2000
   55.0360   72.6680   34.0070 N   0  0  0  0  0  0  0  0  0  0  0  0
   54.4830   73.8800   33.7500 C   0  0  0  0  0  0  0  0  0  0  0  0
   53.1760   73.6550   33.5030 N   0  0  0  0  0  0  0  0  0  0  0  0
   52.9390   72.3420   33.6070 C   0  0  0  0  0  0  0  0  0  0  0  0
   51.7510   71.6610   33.4390 C   0  0  0  0  0  0  0  0  0  0  0  0
   51.7990   70.3220   33.6040 N   0  0  0  0  0  0  0  0  0  0  0  0
   52.9340   69.6740   33.9170 C   0  0  0  0  0  0  0  0  0  0  0  0
   54.0850   70.3690   34.0770 N   0  0  0  0  0  0  0  0  0  0  0  0
   54.1090   71.6960   33.9270 C   0  0  0  0  0  0  0  0  0  0  0  0
   52.8170   68.1860   34.0660 C   0  0  0  0  0  0  0  0  0  0  0  0
   54.1690   67.6260   34.5090 C   0  0  0  0  0  0  0  0  0  0  0  0
   54.7590   66.9130   33.3540 C   0  0  0  0  0  0  0  0  0  0  0  0
   55.9140   67.4110   32.7600 C   0  0  0  0  0  0  0  0  0  0  0  0
   56.3700   66.6490   31.6830 C   0  0  0  0  0  0  0  0  0  0  0  0
   55.7220   65.5150   31.2650 C   0  0  0  0  0  0  0  0  0  0  0  0
   54.5730   65.0740   31.9040 C   0  0  0  0  0  0  0  0  0  0  0  0
   54.1290   65.8080   32.9460 N   0  0  0  0  0  0  0  0  0  0  0  0
   50.5270   72.2160   33.1170 O   0  0  0  0  0  0  0  0  0  0  0  0
   49.3520   71.5020   33.0910 C   0  0  0  0  0  0  0  0  0  0  0  0
   49.0970   70.8730   34.1630 O   0  0  0  0  0  0  0  0  0  0  0  0
   47.6080   72.5190   30.0720 C   0  0  0  0  0  0  0  0  0  0  0  0
   46.7890   71.4460   29.8020 C   0  0  0  0  0  0  0  0  0  0  0  0
   46.8120   70.3190   30.6530 C   0  0  0  0  0  0  0  0  0  0  0  0
   47.6820   70.3920   31.7170 N   0  0  0  0  0  0  0  0  0  0  0  0
   48.4690   71.4600   31.9530 C   0  0  0  0  0  0  0  0  0  0  0  0
   48.4150   72.4900   31.1310 N   0  0  0  0  0  0  0  0  0  0  0  0
   45.9130   69.2810   30.2570 C   0  0  0  0  0  0  0  0  0  0  0  0
   46.2400   68.3530   29.3420 N   0  0  0  0  0  0  0  0  0  0  0  0
   45.4480   67.3700   28.9380 C   0  0  0  0  0  0  0  0  0  0  0  0
   44.2140   67.1980   29.4070 N   0  0  0  0  0  0  0  0  0  0  0  0
   43.7780   68.0630   30.3230 C   0  0  0  0  0  0  0  0  0  0  0  0
   42.5080   67.9220   30.8370 C   0  0  0  0  0  0  0  0  0  0  0  0
   42.0220   68.7960   31.7870 C   0  0  0  0  0  0  0  0  0  0  0  0
   42.8600   69.8320   32.2120 C   0  0  0  0  0  0  0  0  0  0  0  0
   44.1170   69.9200   31.6620 C   0  0  0  0  0  0  0  0  0  0  0  0
   44.6330   69.0690   30.7170 C   0  0  0  0  0  0  0  0  0  0  0  0
   56.0290   72.5132   34.2324 H   0  0  0  0  0  0  0  0  0  0  0  0
   54.9977   74.8521   33.7442 H   0  0  0  0  0  0  0  0  0  0  0  0
   52.0535   67.9493   34.8217 H   0  0  0  0  0  0  0  0  0  0  0  0
   52.5235   67.7367   33.1058 H   0  0  0  0  0  0  0  0  0  0  0  0
   54.8311   68.4473   34.8207 H   0  0  0  0  0  0  0  0  0  0  0  0
   54.0430   66.9422   35.3614 H   0  0  0  0  0  0  0  0  0  0  0  0
   56.4220   68.3227   33.1075 H   0  0  0  0  0  0  0  0  0  0  0  0
   57.2789   66.9686   31.1522 H   0  0  0  0  0  0  0  0  0  0  0  0
   56.1193   64.9472   30.4107 H   0  0  0  0  0  0  0  0  0  0  0  0
   54.0464   64.1656   31.5760 H   0  0  0  0  0  0  0  0  0  0  0  0
   47.5959   73.3999   29.4134 H   0  0  0  0  0  0  0  0  0  0  0  0
   46.1206   71.4662   28.9286 H   0  0  0  0  0  0  0  0  0  0  0  0
   45.8267   66.6659   28.1825 H   0  0  0  0  0  0  0  0  0  0  0  0
   41.8703   67.0982   30.4838 H   0  0  0  0  0  0  0  0  0  0  0  0
   41.0078   68.6819   32.1972 H   0  0  0  0  0  0  0  0  0  0  0  0
   42.5222   70.5575   32.9667 H   0  0  0  0  0  0  0  0  0  0  0  0
   44.7627   70.7406   32.0081 H   0  0  0  0  0  0  0  0  0  0  0  0
  2  1  1  0
  3  4  1  0
  3  2  2  0
  4  9  2  0
  5  6  2  0
  5  4  1  0
  6  7  1  0
  7 10  1  0
  7  8  2  0
  9  1  1  0
  9  8  1  0
 10 11  1  0
 12 11  1  0
 13 12  2  0
 14 13  1  0
 15 14  2  0
 15 16  1  0
 16 17  2  0
 17 12  1  0
 18  5  1  0
 19 18  1  0
 19 20  2  0
 21 26  2  0
 22 21  1  0
 22 23  2  0
 23 24  1  0
 24 25  2  0
 25 19  1  0
 26 25  1  0
 27 23  1  0
 27 36  1  0
 28 27  2  0
 29 28  1  0
 29 30  2  0
 30 31  1  0
 31 36  2  0
 31 32  1  0
 32 33  2  0
 33 34  1  0
 35 34  2  0
 36 35  1  0
  1 37  1  0
  2 38  1  0
 10 39  1  0
 10 40  1  0
 11 41  1  0
 11 42  1  0
 13 43  1  0
 14 44  1  0
 15 45  1  0
 16 46  1  0
 21 47  1  0
 22 48  1  0
 29 49  1  0
 32 50  1  0
 33 51  1  0
 34 52  1  0
 35 53  1  0
M  END
>  <Score>  (1) 
-7.72849

$$$$
