
     RDKit          3D

 39 43  0  0  1  0  0  0  0  0999 V2000
   44.0210   71.4750   32.2230 N   0  0  0  0  0  0  0  0  0  0  0  0
   43.4700   72.4780   32.9460 C   0  0  0  0  0  0  0  0  0  0  0  0
   44.1400   73.6160   32.6230 N   0  0  0  0  0  0  0  0  0  0  0  0
   45.0840   73.3180   31.7180 C   0  0  0  0  0  0  0  0  0  0  0  0
   46.0220   74.0910   31.0710 C   0  0  1  0  0  0  0  0  0  0  0  0
   46.8390   73.4510   30.1970 N   0  0  0  0  0  0  0  0  0  0  0  0
   46.7690   72.1340   29.9480 C   0  0  0  0  0  0  0  0  0  0  0  0
   45.8450   71.3690   30.5850 N   0  0  0  0  0  0  0  0  0  0  0  0
   45.0110   71.9520   31.4590 C   0  0  0  0  0  0  0  0  0  0  0  0
   42.4250   68.4690   33.6470 C   0  0  0  0  0  0  0  0  0  0  0  0
   42.9030   69.7860   33.5350 C   0  0  0  0  0  0  0  0  0  0  0  0
   43.5380   70.1440   32.3360 C   0  0  0  0  0  0  0  0  0  0  0  0
   43.6600   69.2020   31.3430 N   0  0  0  0  0  0  0  0  0  0  0  0
   43.1870   67.9590   31.5000 C   0  0  0  0  0  0  0  0  0  0  0  0
   42.5710   67.5860   32.6430 N   0  0  0  0  0  0  0  0  0  0  0  0
   43.3280   66.9780   30.4330 C   0  0  0  0  0  0  0  0  0  0  0  0
   43.7190   67.2060   29.1300 C   0  0  0  0  0  0  0  0  0  0  0  0
   43.7450   66.0770   28.4000 N   0  0  0  0  0  0  0  0  0  0  0  0
   43.3700   65.0850   29.2180 C   0  0  0  0  0  0  0  0  0  0  0  0
   43.2380   63.7360   28.9460 C   0  0  0  0  0  0  0  0  0  0  0  0
   42.8300   62.9170   29.9780 C   0  0  0  0  0  0  0  0  0  0  0  0
   42.5610   63.4130   31.2410 C   0  0  0  0  0  0  0  0  0  0  0  0
   42.7040   64.7740   31.4810 C   0  0  0  0  0  0  0  0  0  0  0  0
   43.1070   65.6260   30.4800 C   0  0  0  0  0  0  0  0  0  0  0  0
   46.1460   75.4970   31.2940 N   0  0  0  0  0  0  0  0  0  0  0  0
   42.6377   72.3891   33.6597 H   0  0  0  0  0  0  0  0  0  0  0  0
   46.7397   73.8990   31.8822 H   0  0  0  0  0  0  0  0  0  0  0  0
   47.4608   71.6736   29.2272 H   0  0  0  0  0  0  0  0  0  0  0  0
   45.7856   70.3575   30.3999 H   0  0  0  0  0  0  0  0  0  0  0  0
   41.9220   68.1545   34.5733 H   0  0  0  0  0  0  0  0  0  0  0  0
   42.7839   70.5085   34.3559 H   0  0  0  0  0  0  0  0  0  0  0  0
   43.9798   68.1983   28.7333 H   0  0  0  0  0  0  0  0  0  0  0  0
   44.0028   65.9918   27.4064 H   0  0  0  0  0  0  0  0  0  0  0  0
   43.4501   63.3315   27.9453 H   0  0  0  0  0  0  0  0  0  0  0  0
   42.7153   61.8390   29.7915 H   0  0  0  0  0  0  0  0  0  0  0  0
   42.2374   62.7373   32.0465 H   0  0  0  0  0  0  0  0  0  0  0  0
   42.4924   65.1745   32.4834 H   0  0  0  0  0  0  0  0  0  0  0  0
   46.1625   75.6839   32.3068 H   0  0  0  0  0  0  0  0  0  0  0  0
   47.0202   75.8364   30.8680 H   0  0  0  0  0  0  0  0  0  0  0  0
  1 12  1  0
  1  2  1  0
  3  2  2  0
  4  3  1  0
  5 25  1  0
  5  4  1  0
  6  5  1  0
  7  6  2  0
  7  8  1  0
  8  9  1  0
  9  4  2  0
  9  1  1  0
 11 10  2  0
 12 11  1  0
 13 14  1  0
 13 12  2  0
 14 15  2  0
 15 10  1  0
 16 24  1  0
 16 14  1  0
 17 16  2  0
 18 17  1  0
 18 19  1  0
 19 24  2  0
 20 19  1  0
 20 21  2  0
 21 22  1  0
 22 23  2  0
 24 23  1  0
  2 26  1  0
  5 27  1  1
  7 28  1  0
  8 29  1  0
 10 30  1  0
 11 31  1  0
 17 32  1  0
 18 33  1  0
 20 34  1  0
 21 35  1  0
 22 36  1  0
 23 37  1  0
 25 38  1  0
 25 39  1  0
M  END
>  <Score>  (1) 
-7.03617

$$$$
