
     RDKit          3D

 49 53  0  0  0  0  0  0  0  0999 V2000
   44.7100   71.0160   31.2260 C   0  0  0  0  0  0  0  0  0  0  0  0
   44.2610   72.3080   31.5430 C   0  0  0  0  0  0  0  0  0  0  0  0
   45.0520   73.3980   31.2340 C   0  0  0  0  0  0  0  0  0  0  0  0
   46.2520   73.1900   30.6260 N   0  0  0  0  0  0  0  0  0  0  0  0
   46.6640   71.9400   30.3290 C   0  0  0  0  0  0  0  0  0  0  0  0
   45.9030   70.8790   30.6260 N   0  0  0  0  0  0  0  0  0  0  0  0
   44.6000   74.7350   31.5590 C   0  0  0  0  0  0  0  0  0  0  0  0
   45.4690   75.7990   31.3660 C   0  0  0  0  0  0  0  0  0  0  0  0
   44.9240   77.0250   31.7180 C   0  0  0  0  0  0  0  0  0  0  0  0
   43.6590   77.1890   32.2090 C   0  0  0  0  0  0  0  0  0  0  0  0
   42.8630   76.0970   32.3720 C   0  0  0  0  0  0  0  0  0  0  0  0
   43.3470   74.8620   32.0420 N   0  0  0  0  0  0  0  0  0  0  0  0
   41.5050   76.1000   32.8770 N   0  0  0  0  0  0  0  0  0  0  0  0
   41.0150   76.7270   33.9610 C   0  0  0  0  0  0  0  0  0  0  0  0
   39.6920   76.5900   34.2560 C   0  0  0  0  0  0  0  0  0  0  0  0
   38.8560   75.8190   33.4550 C   0  0  0  0  0  0  0  0  0  0  0  0
   37.6300   75.7170   33.7640 O   0  0  0  0  0  0  0  0  0  0  0  0
   39.3930   75.1990   32.3640 N   0  0  0  0  0  0  0  0  0  0  0  0
   40.7030   75.3480   32.0920 C   0  0  0  0  0  0  0  0  0  0  0  0
   41.0520   74.7220   31.0600 O   0  0  0  0  0  0  0  0  0  0  0  0
   43.9100   69.8760   31.5410 N   0  0  0  0  0  0  0  0  0  0  0  0
   43.9870   68.7060   30.8850 C   0  0  0  0  0  0  0  0  0  0  0  0
   43.0440   67.8890   31.5430 C   0  0  0  0  0  0  0  0  0  0  0  0
   42.4650   68.5990   32.5370 N   0  0  0  0  0  0  0  0  0  0  0  0
   43.0110   69.8550   32.5380 C   0  0  0  0  0  0  0  0  0  0  0  0
   42.4630   70.6480   33.5450 N   0  0  0  0  0  0  0  0  0  0  0  0
   41.9140   71.9520   33.1230 C   0  0  0  0  0  0  0  0  0  0  0  0
   40.3960   71.6780   33.1000 C   0  0  0  0  0  0  0  0  0  0  0  0
   40.0370   70.9010   34.1990 O   0  0  0  0  0  0  0  0  0  0  0  0
   40.9070   71.0030   35.2790 C   0  0  0  0  0  0  0  0  0  0  0  0
   42.2830   70.4320   34.9970 C   0  0  0  0  0  0  0  0  0  0  0  0
   43.2870   72.4514   32.0336 H   0  0  0  0  0  0  0  0  0  0  0  0
   47.6365   71.7907   29.8371 H   0  0  0  0  0  0  0  0  0  0  0  0
   46.4896   75.6820   30.9726 H   0  0  0  0  0  0  0  0  0  0  0  0
   45.5491   77.9216   31.5942 H   0  0  0  0  0  0  0  0  0  0  0  0
   43.2887   78.1915   32.4693 H   0  0  0  0  0  0  0  0  0  0  0  0
   41.6704   77.3393   34.5979 H   0  0  0  0  0  0  0  0  0  0  0  0
   39.2788   77.0966   35.1407 H   0  0  0  0  0  0  0  0  0  0  0  0
   38.7994   74.6206   31.7524 H   0  0  0  0  0  0  0  0  0  0  0  0
   44.6339   68.4461   30.0341 H   0  0  0  0  0  0  0  0  0  0  0  0
   42.8166   66.8433   31.2885 H   0  0  0  0  0  0  0  0  0  0  0  0
   42.1652   72.7425   33.8455 H   0  0  0  0  0  0  0  0  0  0  0  0
   42.3121   72.3068   32.1609 H   0  0  0  0  0  0  0  0  0  0  0  0
   39.8524   72.6336   33.1360 H   0  0  0  0  0  0  0  0  0  0  0  0
   40.1397   71.1385   32.1763 H   0  0  0  0  0  0  0  0  0  0  0  0
   41.0169   72.0660   35.5396 H   0  0  0  0  0  0  0  0  0  0  0  0
   40.4737   70.4168   36.1028 H   0  0  0  0  0  0  0  0  0  0  0  0
   42.3203   69.3602   35.2414 H   0  0  0  0  0  0  0  0  0  0  0  0
   43.0722   70.9061   35.5990 H   0  0  0  0  0  0  0  0  0  0  0  0
  1 21  1  0
  1  2  2  0
  3  2  1  0
  3  7  1  0
  4  3  2  0
  5  4  1  0
  5  6  2  0
  6  1  1  0
  7 12  1  0
  8  7  2  0
  8  9  1  0
  9 10  2  0
 10 11  1  0
 11 13  1  0
 12 11  2  0
 13 14  1  0
 14 15  2  0
 16 17  2  0
 16 15  1  0
 18 16  1  0
 19 18  1  0
 19 13  1  0
 20 19  2  0
 21 25  1  0
 22 21  1  0
 22 23  2  0
 23 24  1  0
 24 25  2  0
 25 26  1  0
 26 31  1  0
 27 26  1  0
 28 27  1  0
 28 29  1  0
 29 30  1  0
 31 30  1  0
  2 32  1  0
  5 33  1  0
  8 34  1  0
  9 35  1  0
 10 36  1  0
 14 37  1  0
 15 38  1  0
 18 39  1  0
 22 40  1  0
 23 41  1  0
 27 42  1  0
 27 43  1  0
 28 44  1  0
 28 45  1  0
 30 46  1  0
 30 47  1  0
 31 48  1  0
 31 49  1  0
M  END
>  <Score>  (1) 
-7.01966

$$$$
