
     RDKit          3D

 53 58  0  0  0  0  0  0  0  0999 V2000
   55.0380   72.7610   33.9550 N   0  0  0  0  0  0  0  0  0  0  0  0
   54.4310   73.9460   33.7330 C   0  0  0  0  0  0  0  0  0  0  0  0
   53.1310   73.6680   33.5340 N   0  0  0  0  0  0  0  0  0  0  0  0
   52.9570   72.3520   33.6310 C   0  0  0  0  0  0  0  0  0  0  0  0
   51.7910   71.6170   33.5000 C   0  0  0  0  0  0  0  0  0  0  0  0
   51.9010   70.2810   33.6490 N   0  0  0  0  0  0  0  0  0  0  0  0
   53.0700   69.6730   33.9110 C   0  0  0  0  0  0  0  0  0  0  0  0
   54.2000   70.4160   34.0370 N   0  0  0  0  0  0  0  0  0  0  0  0
   54.1610   71.7560   33.9000 C   0  0  0  0  0  0  0  0  0  0  0  0
   53.0330   68.1870   34.0500 C   0  0  0  0  0  0  0  0  0  0  0  0
   54.4410   67.6870   34.3820 C   0  0  0  0  0  0  0  0  0  0  0  0
   54.9250   66.9070   33.2260 C   0  0  0  0  0  0  0  0  0  0  0  0
   56.0560   67.2940   32.5550 C   0  0  0  0  0  0  0  0  0  0  0  0
   56.4030   66.4710   31.4810 C   0  0  0  0  0  0  0  0  0  0  0  0
   55.6600   65.3710   31.1450 C   0  0  0  0  0  0  0  0  0  0  0  0
   54.5350   65.0300   31.8530 C   0  0  0  0  0  0  0  0  0  0  0  0
   54.1930   65.8250   32.8950 N   0  0  0  0  0  0  0  0  0  0  0  0
   50.5300   72.1330   33.2300 O   0  0  0  0  0  0  0  0  0  0  0  0
   49.4070   71.3290   33.0840 C   0  0  0  0  0  0  0  0  0  0  0  0
   49.2060   70.5090   34.0290 O   0  0  0  0  0  0  0  0  0  0  0  0
   47.6240   72.7090   30.2320 C   0  0  0  0  0  0  0  0  0  0  0  0
   46.8620   71.6400   29.7740 C   0  0  0  0  0  0  0  0  0  0  0  0
   46.9600   70.4190   30.4570 C   0  0  0  0  0  0  0  0  0  0  0  0
   47.7990   70.3450   31.5370 N   0  0  0  0  0  0  0  0  0  0  0  0
   48.5280   71.4090   31.9540 C   0  0  0  0  0  0  0  0  0  0  0  0
   48.4200   72.5600   31.2900 N   0  0  0  0  0  0  0  0  0  0  0  0
   46.1810   69.2710   30.0150 C   0  0  0  0  0  0  0  0  0  0  0  0
   46.5640   68.3640   29.0640 C   0  0  0  0  0  0  0  0  0  0  0  0
   45.5650   67.4650   28.9520 N   0  0  0  0  0  0  0  0  0  0  0  0
   44.5840   67.8000   29.8100 C   0  0  0  0  0  0  0  0  0  0  0  0
   43.3800   67.1520   30.0210 C   0  0  0  0  0  0  0  0  0  0  0  0
   42.5420   67.7030   30.9640 C   0  0  0  0  0  0  0  0  0  0  0  0
   42.8520   68.8450   31.6830 C   0  0  0  0  0  0  0  0  0  0  0  0
   44.0810   69.4600   31.4320 C   0  0  0  0  0  0  0  0  0  0  0  0
   44.9410   68.9500   30.5070 C   0  0  0  0  0  0  0  0  0  0  0  0
   56.0445   72.6472   34.1421 H   0  0  0  0  0  0  0  0  0  0  0  0
   54.9045   74.9387   33.7180 H   0  0  0  0  0  0  0  0  0  0  0  0
   52.3416   67.9085   34.8589 H   0  0  0  0  0  0  0  0  0  0  0  0
   52.6871   67.7324   33.1099 H   0  0  0  0  0  0  0  0  0  0  0  0
   55.1090   68.5419   34.5631 H   0  0  0  0  0  0  0  0  0  0  0  0
   54.4244   67.0630   35.2878 H   0  0  0  0  0  0  0  0  0  0  0  0
   56.6424   68.1802   32.8391 H   0  0  0  0  0  0  0  0  0  0  0  0
   57.2978   66.7133   30.8888 H   0  0  0  0  0  0  0  0  0  0  0  0
   55.9705   64.7495   30.2922 H   0  0  0  0  0  0  0  0  0  0  0  0
   53.9356   64.1473   31.5853 H   0  0  0  0  0  0  0  0  0  0  0  0
   47.5695   73.6807   29.7193 H   0  0  0  0  0  0  0  0  0  0  0  0
   46.2014   71.7488   28.9012 H   0  0  0  0  0  0  0  0  0  0  0  0
   47.5075   68.3677   28.4985 H   0  0  0  0  0  0  0  0  0  0  0  0
   45.5546   66.6557   28.3150 H   0  0  0  0  0  0  0  0  0  0  0  0
   43.1065   66.2436   29.4642 H   0  0  0  0  0  0  0  0  0  0  0  0
   41.5771   67.2110   31.1561 H   0  0  0  0  0  0  0  0  0  0  0  0
   42.1534   69.2546   32.4275 H   0  0  0  0  0  0  0  0  0  0  0  0
   44.3577   70.3676   31.9884 H   0  0  0  0  0  0  0  0  0  0  0  0
  2  1  1  0
  3  4  1  0
  3  2  2  0
  4  9  2  0
  5  4  1  0
  5  6  2  0
  6  7  1  0
  7  8  2  0
  7 10  1  0
  9  1  1  0
  9  8  1  0
 10 11  1  0
 12 11  1  0
 13 12  2  0
 14 13  1  0
 15 14  2  0
 15 16  1  0
 16 17  2  0
 17 12  1  0
 18  5  1  0
 19 18  1  0
 19 20  2  0
 21 26  2  0
 22 21  1  0
 22 23  2  0
 23 24  1  0
 24 25  2  0
 25 19  1  0
 26 25  1  0
 27 23  1  0
 27 35  1  0
 28 27  2  0
 29 28  1  0
 29 30  1  0
 30 31  2  0
 30 35  1  0
 31 32  1  0
 32 33  2  0
 34 33  1  0
 35 34  2  0
  1 36  1  0
  2 37  1  0
 10 38  1  0
 10 39  1  0
 11 40  1  0
 11 41  1  0
 13 42  1  0
 14 43  1  0
 15 44  1  0
 16 45  1  0
 21 46  1  0
 22 47  1  0
 28 48  1  0
 29 49  1  0
 31 50  1  0
 32 51  1  0
 33 52  1  0
 34 53  1  0
M  END
>  <Score>  (1) 
-7.55095

$$$$
