
     RDKit          3D

 51 56  0  0  0  0  0  0  0  0999 V2000
   46.8250   70.8970   30.2310 C   0  0  0  0  0  0  0  0  0  0  0  0
   46.7770   69.7360   29.5170 C   0  0  0  0  0  0  0  0  0  0  0  0
   47.4370   68.6210   30.0570 C   0  0  0  0  0  0  0  0  0  0  0  0
   48.0780   68.7530   31.2430 N   0  0  0  0  0  0  0  0  0  0  0  0
   48.1030   69.9300   31.9270 C   0  0  0  0  0  0  0  0  0  0  0  0
   47.4660   70.9740   31.3880 N   0  0  0  0  0  0  0  0  0  0  0  0
   48.8120   69.9830   33.1890 C   0  0  0  0  0  0  0  0  0  0  0  0
   49.1650   71.0130   34.0610 C   0  0  0  0  0  0  0  0  0  0  0  0
   49.8460   70.4030   35.1100 C   0  0  0  0  0  0  0  0  0  0  0  0
   49.8900   69.0530   34.8580 N   0  0  0  0  0  0  0  0  0  0  0  0
   49.2590   68.8360   33.6950 N   0  0  0  0  0  0  0  0  0  0  0  0
   50.5110   68.1280   35.7240 C   0  0  0  0  0  0  0  0  0  0  0  0
   51.2600   68.6690   36.7210 N   0  0  0  0  0  0  0  0  0  0  0  0
   51.9020   67.8800   37.6140 C   0  0  0  0  0  0  0  0  0  0  0  0
   51.8000   66.5550   37.5120 N   0  0  0  0  0  0  0  0  0  0  0  0
   51.0790   65.9350   36.5560 C   0  0  0  0  0  0  0  0  0  0  0  0
   50.9610   64.5670   36.4340 C   0  0  0  0  0  0  0  0  0  0  0  0
   50.2100   63.9740   35.4360 C   0  0  0  0  0  0  0  0  0  0  0  0
   49.5860   64.8580   34.5670 C   0  0  0  0  0  0  0  0  0  0  0  0
   49.6680   66.2310   34.6380 C   0  0  0  0  0  0  0  0  0  0  0  0
   50.4340   66.7530   35.6590 C   0  0  0  0  0  0  0  0  0  0  0  0
   46.1750   72.1230   29.7670 C   0  0  0  0  0  0  0  0  0  0  0  0
   45.0000   72.4380   30.6630 C   0  0  0  0  0  0  0  0  0  0  0  0
   45.1280   73.9000   31.0060 C   0  0  0  0  0  0  0  0  0  0  0  0
   46.2820   74.6630   31.1550 C   0  0  0  0  0  0  0  0  0  0  0  0
   45.9610   75.9190   31.4610 N   0  0  0  0  0  0  0  0  0  0  0  0
   44.6030   75.9620   31.5100 C   0  0  0  0  0  0  0  0  0  0  0  0
   43.8100   77.0840   31.7980 C   0  0  0  0  0  0  0  0  0  0  0  0
   42.4430   76.8880   31.7890 C   0  0  0  0  0  0  0  0  0  0  0  0
   41.8560   75.6640   31.5150 C   0  0  0  0  0  0  0  0  0  0  0  0
   42.6630   74.5750   31.2350 C   0  0  0  0  0  0  0  0  0  0  0  0
   44.0530   74.7300   31.2340 C   0  0  0  0  0  0  0  0  0  0  0  0
   46.2429   69.6758   28.5572 H   0  0  0  0  0  0  0  0  0  0  0  0
   47.4337   67.6573   29.5266 H   0  0  0  0  0  0  0  0  0  0  0  0
   48.9496   72.0853   33.9437 H   0  0  0  0  0  0  0  0  0  0  0  0
   50.2737   70.9118   35.9864 H   0  0  0  0  0  0  0  0  0  0  0  0
   52.5035   68.3291   38.4180 H   0  0  0  0  0  0  0  0  0  0  0  0
   51.4835   63.9236   37.1572 H   0  0  0  0  0  0  0  0  0  0  0  0
   50.1142   62.8826   35.3381 H   0  0  0  0  0  0  0  0  0  0  0  0
   48.9778   64.4281   33.7575 H   0  0  0  0  0  0  0  0  0  0  0  0
   49.1485   66.8787   33.9165 H   0  0  0  0  0  0  0  0  0  0  0  0
   46.8944   72.9546   29.7992 H   0  0  0  0  0  0  0  0  0  0  0  0
   45.8227   71.9839   28.7343 H   0  0  0  0  0  0  0  0  0  0  0  0
   44.0537   72.2496   30.1348 H   0  0  0  0  0  0  0  0  0  0  0  0
   44.9975   71.8084   31.5650 H   0  0  0  0  0  0  0  0  0  0  0  0
   47.3082   74.2847   31.0374 H   0  0  0  0  0  0  0  0  0  0  0  0
   46.6110   76.7006   31.6271 H   0  0  0  0  0  0  0  0  0  0  0  0
   44.2535   78.0661   32.0189 H   0  0  0  0  0  0  0  0  0  0  0  0
   41.7894   77.7447   32.0100 H   0  0  0  0  0  0  0  0  0  0  0  0
   40.7611   75.5585   31.5198 H   0  0  0  0  0  0  0  0  0  0  0  0
   42.2145   73.5950   31.0149 H   0  0  0  0  0  0  0  0  0  0  0  0
  1  6  2  0
  2  3  2  0
  2  1  1  0
  3  4  1  0
  4  5  2  0
  5  7  1  0
  6  5  1  0
  7 11  2  0
  7  8  1  0
  8  9  2  0
 10  9  1  0
 10 12  1  0
 11 10  1  0
 12 13  2  0
 13 14  1  0
 15 14  2  0
 16 15  1  0
 17 16  2  0
 18 17  1  0
 19 20  1  0
 19 18  2  0
 20 21  2  0
 21 12  1  0
 21 16  1  0
 22  1  1  0
 22 23  1  0
 23 24  1  0
 24 25  2  0
 24 32  1  0
 25 26  1  0
 26 27  1  0
 27 28  2  0
 29 28  1  0
 30 29  2  0
 31 30  1  0
 32 31  2  0
 32 27  1  0
  2 33  1  0
  3 34  1  0
  8 35  1  0
  9 36  1  0
 14 37  1  0
 17 38  1  0
 18 39  1  0
 19 40  1  0
 20 41  1  0
 22 42  1  0
 22 43  1  0
 23 44  1  0
 23 45  1  0
 25 46  1  0
 26 47  1  0
 28 48  1  0
 29 49  1  0
 30 50  1  0
 31 51  1  0
M  END
>  <Score>  (1) 
-7.41277

$$$$
