
     RDKit          3D

 54 57  0  0  1  0  0  0  0  0999 V2000
   49.9260   71.9280   31.2090 N   0  0  0  0  0  0  0  0  0  0  0  0
   48.9010   71.9040   30.3460 N   0  0  0  0  0  0  0  0  0  0  0  0
   47.7410   71.8630   31.0390 C   0  0  0  0  0  0  0  0  0  0  0  0
   48.0440   71.8600   32.3790 C   0  0  0  0  0  0  0  0  0  0  0  0
   49.4450   71.9020   32.4730 C   0  0  0  0  0  0  0  0  0  0  0  0
   46.4440   71.8280   30.3950 C   0  0  0  0  0  0  0  0  0  0  0  0
   46.3350   72.4140   29.2710 O   0  0  0  0  0  0  0  0  0  0  0  0
   44.3570   71.8350   31.6880 N   0  0  0  0  0  0  0  0  0  0  0  0
   45.2800   71.1610   30.9760 C   0  0  0  0  0  0  0  0  0  0  0  0
   45.1330   69.7770   30.7780 C   0  0  0  0  0  0  0  0  0  0  0  0
   44.0180   69.2570   31.3580 C   0  0  0  0  0  0  0  0  0  0  0  0
   43.8430   68.0030   31.2050 O   0  0  0  0  0  0  0  0  0  0  0  0
   43.0740   69.8960   32.0760 N   0  0  0  0  0  0  0  0  0  0  0  0
   43.2750   71.2250   32.2290 C   0  0  0  0  0  0  0  0  0  0  0  0
   42.4220   71.8620   32.8890 O   0  0  0  0  0  0  0  0  0  0  0  0
   44.4860   73.2300   31.8990 C   0  0  0  0  0  0  0  0  0  0  0  0
   43.9480   74.1390   30.9520 C   0  0  0  0  0  0  0  0  0  0  0  0
   44.0930   75.5070   31.1920 C   0  0  0  0  0  0  0  0  0  0  0  0
   44.7380   75.9020   32.3140 N   0  0  0  0  0  0  0  0  0  0  0  0
   45.2400   74.9980   33.1970 C   0  0  0  0  0  0  0  0  0  0  0  0
   45.1070   73.6740   32.9790 N   0  0  0  0  0  0  0  0  0  0  0  0
   46.0990   68.9620   30.0120 C   0  0  0  0  0  0  0  0  0  0  0  0
   50.1990   71.9120   33.7620 C   0  0  1  0  0  0  0  0  0  0  0  0
   49.3130   71.2310   34.7970 C   0  0  0  0  0  0  0  0  0  0  0  0
   51.5300   71.2650   33.6540 C   0  0  0  0  0  0  0  0  0  0  0  0
   52.6600   72.1500   33.7610 N   0  0  0  0  0  0  0  0  0  0  0  0
   52.4450   73.4800   33.7020 C   0  0  0  0  0  0  0  0  0  0  0  0
   53.4400   74.4280   33.7920 C   0  0  0  0  0  0  0  0  0  0  0  0
   53.1770   75.8920   33.7230 C   0  0  0  0  0  0  0  0  0  0  0  0
   54.7400   73.9470   33.9550 C   0  0  0  0  0  0  0  0  0  0  0  0
   55.6880   74.7940   34.0430 O   0  0  0  0  0  0  0  0  0  0  0  0
   54.9710   72.6260   34.0160 N   0  0  0  0  0  0  0  0  0  0  0  0
   53.9400   71.7660   33.9190 C   0  0  0  0  0  0  0  0  0  0  0  0
   54.1800   70.5430   33.9790 O   0  0  0  0  0  0  0  0  0  0  0  0
   50.9225   71.9610   30.9506 H   0  0  0  0  0  0  0  0  0  0  0  0
   47.3294   71.8305   33.2148 H   0  0  0  0  0  0  0  0  0  0  0  0
   42.2603   69.4092   32.4783 H   0  0  0  0  0  0  0  0  0  0  0  0
   43.4301   73.7757   30.0521 H   0  0  0  0  0  0  0  0  0  0  0  0
   43.6916   76.2474   30.4844 H   0  0  0  0  0  0  0  0  0  0  0  0
   45.7606   75.3508   34.0995 H   0  0  0  0  0  0  0  0  0  0  0  0
   46.7495   68.4132   30.7089 H   0  0  0  0  0  0  0  0  0  0  0  0
   45.5541   68.2466   29.3785 H   0  0  0  0  0  0  0  0  0  0  0  0
   46.7124   69.6196   29.3785 H   0  0  0  0  0  0  0  0  0  0  0  0
   50.4196   72.9475   34.0604 H   0  0  0  0  0  0  0  0  0  0  0  0
   49.6585   71.4965   35.8070 H   0  0  0  0  0  0  0  0  0  0  0  0
   48.2730   71.5644   34.6657 H   0  0  0  0  0  0  0  0  0  0  0  0
   49.3677   70.1402   34.6657 H   0  0  0  0  0  0  0  0  0  0  0  0
   51.5843   70.7627   32.6769 H   0  0  0  0  0  0  0  0  0  0  0  0
   51.6022   70.5784   34.5103 H   0  0  0  0  0  0  0  0  0  0  0  0
   51.4099   73.8297   33.5740 H   0  0  0  0  0  0  0  0  0  0  0  0
   53.1037   76.2998   34.7420 H   0  0  0  0  0  0  0  0  0  0  0  0
   54.0005   76.3877   33.1880 H   0  0  0  0  0  0  0  0  0  0  0  0
   52.2325   76.0700   33.1880 H   0  0  0  0  0  0  0  0  0  0  0  0
   55.9310   72.2727   34.1363 H   0  0  0  0  0  0  0  0  0  0  0  0
  1  5  1  0
  2  3  2  0
  2  1  1  0
  3  4  1  0
  4  5  2  0
  5 23  1  0
  6  9  1  0
  6  3  1  0
  7  6  2  0
  8 16  1  0
  8 14  1  0
  9  8  1  0
 10  9  2  0
 10 11  1  0
 11 13  1  0
 12 11  2  0
 13 14  1  0
 14 15  2  0
 16 21  2  0
 17 18  2  0
 17 16  1  0
 18 19  1  0
 19 20  2  0
 21 20  1  0
 22 10  1  0
 23 24  1  0
 25 26  1  0
 25 23  1  0
 26 33  1  0
 27 26  1  0
 27 28  2  0
 28 30  1  0
 29 28  1  0
 30 32  1  0
 30 31  2  0
 33 34  2  0
 33 32  1  0
  1 35  1  0
  4 36  1  0
 13 37  1  0
 17 38  1  0
 18 39  1  0
 20 40  1  0
 22 41  1  0
 22 42  1  0
 22 43  1  0
 23 44  1  1
 24 45  1  0
 24 46  1  0
 24 47  1  0
 25 48  1  0
 25 49  1  0
 27 50  1  0
 29 51  1  0
 29 52  1  0
 29 53  1  0
 32 54  1  0
M  END
>  <Score>  (1) 
-7.03914

$$$$
