
     RDKit          3D

 39 42  0  0  0  0  0  0  0  0999 V2000
   43.8890   70.1820   31.3860 C   0  0  0  0  0  0  0  0  0  0  0  0
   44.2350   68.9510   30.8420 C   0  0  0  0  0  0  0  0  0  0  0  0
   43.2010   68.0360   30.8640 C   0  0  0  0  0  0  0  0  0  0  0  0
   41.9870   68.2830   31.3510 N   0  0  0  0  0  0  0  0  0  0  0  0
   41.7320   69.5180   31.8650 C   0  0  0  0  0  0  0  0  0  0  0  0
   42.6790   70.4700   31.8850 N   0  0  0  0  0  0  0  0  0  0  0  0
   45.6070   73.4790   30.8830 C   0  0  0  0  0  0  0  0  0  0  0  0
   44.6180   72.4750   30.8650 C   0  0  0  0  0  0  0  0  0  0  0  0
   44.9120   71.2080   31.4070 C   0  0  0  0  0  0  0  0  0  0  0  0
   46.1330   71.0120   31.9200 N   0  0  0  0  0  0  0  0  0  0  0  0
   47.0860   71.9920   31.9320 C   0  0  0  0  0  0  0  0  0  0  0  0
   46.8170   73.2050   31.4180 N   0  0  0  0  0  0  0  0  0  0  0  0
   48.3870   71.7930   32.4740 N   0  0  0  0  0  0  0  0  0  0  0  0
   48.6620   71.5640   33.7800 C   0  0  0  0  0  0  0  0  0  0  0  0
   49.9640   71.3840   34.2050 C   0  0  0  0  0  0  0  0  0  0  0  0
   51.0120   71.4360   33.2840 C   0  0  0  0  0  0  0  0  0  0  0  0
   52.1930   71.2740   33.6620 O   0  0  0  0  0  0  0  0  0  0  0  0
   50.6850   71.6670   31.9910 N   0  0  0  0  0  0  0  0  0  0  0  0
   49.3990   71.8450   31.5720 C   0  0  0  0  0  0  0  0  0  0  0  0
   49.2970   72.0480   30.3360 O   0  0  0  0  0  0  0  0  0  0  0  0
   43.3320   66.6970   30.3530 N   0  0  0  0  0  0  0  0  0  0  0  0
   42.8790   65.7700   31.2300 C   0  0  0  0  0  0  0  0  0  0  0  0
   42.9310   64.4210   30.8960 C   0  0  0  0  0  0  0  0  0  0  0  0
   43.4550   64.0580   29.6520 C   0  0  0  0  0  0  0  0  0  0  0  0
   43.5110   62.6660   29.3050 N   0  0  0  0  0  0  0  0  0  0  0  0
   43.8850   65.0250   28.8360 N   0  0  0  0  0  0  0  0  0  0  0  0
   43.8350   66.3180   29.1560 C   0  0  0  0  0  0  0  0  0  0  0  0
   44.2170   67.2650   28.4430 O   0  0  0  0  0  0  0  0  0  0  0  0
   45.2322   68.7279   30.4348 H   0  0  0  0  0  0  0  0  0  0  0  0
   40.7338   69.7395   32.2705 H   0  0  0  0  0  0  0  0  0  0  0  0
   45.3960   74.4748   30.4660 H   0  0  0  0  0  0  0  0  0  0  0  0
   43.6272   72.6783   30.4325 H   0  0  0  0  0  0  0  0  0  0  0  0
   47.8402   71.5209   34.5099 H   0  0  0  0  0  0  0  0  0  0  0  0
   50.1750   71.1998   35.2687 H   0  0  0  0  0  0  0  0  0  0  0  0
   51.4407   71.7103   31.2924 H   0  0  0  0  0  0  0  0  0  0  0  0
   42.4715   66.0827   32.2027 H   0  0  0  0  0  0  0  0  0  0  0  0
   42.5671   63.6551   31.5967 H   0  0  0  0  0  0  0  0  0  0  0  0
   43.8935   62.3775   28.3932 H   0  0  0  0  0  0  0  0  0  0  0  0
   43.1687   61.9558   29.9678 H   0  0  0  0  0  0  0  0  0  0  0  0
  1  9  1  0
  1  6  2  0
  2  3  2  0
  2  1  1  0
  3  4  1  0
  4  5  2  0
  5  6  1  0
  7 12  2  0
  8  7  1  0
  8  9  2  0
  9 10  1  0
 10 11  2  0
 11 13  1  0
 12 11  1  0
 13 14  1  0
 14 15  2  0
 16 17  2  0
 16 15  1  0
 18 16  1  0
 19 18  1  0
 19 13  1  0
 20 19  2  0
 21  3  1  0
 21 22  1  0
 23 22  2  0
 24 23  1  0
 25 24  1  0
 26 27  1  0
 26 24  2  0
 27 21  1  0
 28 27  2  0
  2 29  1  0
  5 30  1  0
  7 31  1  0
  8 32  1  0
 14 33  1  0
 15 34  1  0
 18 35  1  0
 22 36  1  0
 23 37  1  0
 25 38  1  0
 25 39  1  0
M  END
>  <Score>  (1) 
-7.20151

$$$$
