
     RDKit          3D

 49 54  0  0  0  0  0  0  0  0999 V2000
   42.0900   75.5550   30.7940 C   0  0  0  0  0  0  0  0  0  0  0  0
   41.0370   75.1100   31.6040 C   0  0  0  0  0  0  0  0  0  0  0  0
   41.2320   73.8850   32.2880 C   0  0  0  0  0  0  0  0  0  0  0  0
   42.3860   73.2540   32.1150 N   0  0  0  0  0  0  0  0  0  0  0  0
   43.3800   73.7040   31.3280 C   0  0  0  0  0  0  0  0  0  0  0  0
   43.2140   74.8590   30.6750 N   0  0  0  0  0  0  0  0  0  0  0  0
   40.3350   73.2400   33.1610 N   0  0  0  0  0  0  0  0  0  0  0  0
   39.8820   73.9440   34.2130 N   0  0  0  0  0  0  0  0  0  0  0  0
   39.0740   73.1770   34.9580 C   0  0  0  0  0  0  0  0  0  0  0  0
   39.0520   71.9500   34.3020 C   0  0  0  0  0  0  0  0  0  0  0  0
   39.8490   71.9940   33.1660 C   0  0  0  0  0  0  0  0  0  0  0  0
   44.6320   72.9980   31.1100 C   0  0  0  0  0  0  0  0  0  0  0  0
   45.3930   72.7430   29.9890 N   0  0  0  0  0  0  0  0  0  0  0  0
   46.4480   72.0560   30.3710 O   0  0  0  0  0  0  0  0  0  0  0  0
   46.4310   71.8490   31.6400 C   0  0  0  0  0  0  0  0  0  0  0  0
   45.3210   72.4180   32.1350 N   0  0  0  0  0  0  0  0  0  0  0  0
   47.4250   71.1400   32.3720 N   0  0  0  0  0  0  0  0  0  0  0  0
   47.9130   71.6570   33.6450 C   0  0  0  0  0  0  0  0  0  0  0  0
   47.6260   70.4750   34.5840 C   0  0  0  0  0  0  0  0  0  0  0  0
   48.5110   69.4850   34.2340 O   0  0  0  0  0  0  0  0  0  0  0  0
   48.3890   68.9600   32.9780 C   0  0  0  0  0  0  0  0  0  0  0  0
   47.9800   69.9070   31.9010 C   0  0  0  0  0  0  0  0  0  0  0  0
   40.0520   70.9050   32.2600 C   0  0  0  0  0  0  0  0  0  0  0  0
   39.2490   70.5200   31.2180 C   0  0  0  0  0  0  0  0  0  0  0  0
   39.7120   69.4900   30.5140 N   0  0  0  0  0  0  0  0  0  0  0  0
   40.8990   69.1170   31.0760 C   0  0  0  0  0  0  0  0  0  0  0  0
   41.7950   68.1200   30.7480 C   0  0  0  0  0  0  0  0  0  0  0  0
   42.9300   67.9850   31.5090 C   0  0  0  0  0  0  0  0  0  0  0  0
   43.1660   68.8270   32.5710 C   0  0  0  0  0  0  0  0  0  0  0  0
   42.2310   69.7810   32.8250 C   0  0  0  0  0  0  0  0  0  0  0  0
   41.0710   70.0080   32.1410 C   0  0  0  0  0  0  0  0  0  0  0  0
   41.9829   76.5019   30.2446 H   0  0  0  0  0  0  0  0  0  0  0  0
   40.1040   75.6841   31.7039 H   0  0  0  0  0  0  0  0  0  0  0  0
   38.5460   73.4553   35.8820 H   0  0  0  0  0  0  0  0  0  0  0  0
   38.4835   71.0696   34.6362 H   0  0  0  0  0  0  0  0  0  0  0  0
   48.9885   71.8838   33.6012 H   0  0  0  0  0  0  0  0  0  0  0  0
   47.4432   72.6018   33.9558 H   0  0  0  0  0  0  0  0  0  0  0  0
   47.7818   70.7732   35.6313 H   0  0  0  0  0  0  0  0  0  0  0  0
   46.5846   70.1331   34.4918 H   0  0  0  0  0  0  0  0  0  0  0  0
   49.3635   68.5341   32.6970 H   0  0  0  0  0  0  0  0  0  0  0  0
   47.5736   68.2248   33.0462 H   0  0  0  0  0  0  0  0  0  0  0  0
   47.2262   69.4087   31.2737 H   0  0  0  0  0  0  0  0  0  0  0  0
   48.8956   70.1672   31.3497 H   0  0  0  0  0  0  0  0  0  0  0  0
   38.2988   71.0218   30.9828 H   0  0  0  0  0  0  0  0  0  0  0  0
   39.2593   69.0552   29.6974 H   0  0  0  0  0  0  0  0  0  0  0  0
   41.6045   67.4494   29.8971 H   0  0  0  0  0  0  0  0  0  0  0  0
   43.6574   67.1961   31.2671 H   0  0  0  0  0  0  0  0  0  0  0  0
   44.0718   68.7326   33.1879 H   0  0  0  0  0  0  0  0  0  0  0  0
   42.4318   70.4454   33.6784 H   0  0  0  0  0  0  0  0  0  0  0  0
  1  2  2  0
  2  3  1  0
  3  7  1  0
  4  3  2  0
  5  4  1  0
  6  1  1  0
  6  5  2  0
  7 11  1  0
  7  8  1  0
  8  9  2  0
 10  9  1  0
 11 10  2  0
 12  5  1  0
 12 16  1  0
 13 14  1  0
 13 12  2  0
 14 15  1  0
 15 16  2  0
 15 17  1  0
 17 18  1  0
 18 19  1  0
 20 19  1  0
 21 20  1  0
 22 17  1  0
 22 21  1  0
 23 11  1  0
 24 23  2  0
 25 26  1  0
 25 24  1  0
 26 31  2  0
 27 26  1  0
 27 28  2  0
 28 29  1  0
 29 30  2  0
 31 23  1  0
 31 30  1  0
  1 32  1  0
  2 33  1  0
  9 34  1  0
 10 35  1  0
 18 36  1  0
 18 37  1  0
 19 38  1  0
 19 39  1  0
 21 40  1  0
 21 41  1  0
 22 42  1  0
 22 43  1  0
 24 44  1  0
 25 45  1  0
 27 46  1  0
 28 47  1  0
 29 48  1  0
 30 49  1  0
M  END
>  <Score>  (1) 
-7.13328

$$$$
