
     RDKit          3D

 42 46  0  0  0  0  0  0  0  0999 V2000
   44.5720   74.7810   31.5480 C   0  0  0  0  0  0  0  0  0  0  0  0
   45.4540   75.8380   31.3720 C   0  0  0  0  0  0  0  0  0  0  0  0
   44.9030   77.0620   31.7600 C   0  0  0  0  0  0  0  0  0  0  0  0
   43.6500   77.2160   32.2550 C   0  0  0  0  0  0  0  0  0  0  0  0
   42.8390   76.1180   32.3980 C   0  0  0  0  0  0  0  0  0  0  0  0
   43.3260   74.8920   32.0330 N   0  0  0  0  0  0  0  0  0  0  0  0
   41.4950   76.1170   32.9050 N   0  0  0  0  0  0  0  0  0  0  0  0
   41.0020   76.7230   34.0010 C   0  0  0  0  0  0  0  0  0  0  0  0
   39.6710   76.5760   34.2800 C   0  0  0  0  0  0  0  0  0  0  0  0
   38.8450   75.8280   33.4660 C   0  0  0  0  0  0  0  0  0  0  0  0
   37.6150   75.7250   33.7750 O   0  0  0  0  0  0  0  0  0  0  0  0
   39.3820   75.2290   32.3650 N   0  0  0  0  0  0  0  0  0  0  0  0
   40.6910   75.3800   32.1000 C   0  0  0  0  0  0  0  0  0  0  0  0
   41.0320   74.7690   31.0510 O   0  0  0  0  0  0  0  0  0  0  0  0
   44.6920   71.0590   31.1440 C   0  0  0  0  0  0  0  0  0  0  0  0
   44.2230   72.3510   31.4550 C   0  0  0  0  0  0  0  0  0  0  0  0
   45.0290   73.4440   31.1980 C   0  0  0  0  0  0  0  0  0  0  0  0
   46.2550   73.2360   30.6500 N   0  0  0  0  0  0  0  0  0  0  0  0
   46.6860   71.9990   30.3590 C   0  0  0  0  0  0  0  0  0  0  0  0
   45.9130   70.9330   30.6050 N   0  0  0  0  0  0  0  0  0  0  0  0
   43.8780   69.9170   31.4080 N   0  0  0  0  0  0  0  0  0  0  0  0
   44.1650   68.6800   30.9700 C   0  0  0  0  0  0  0  0  0  0  0  0
   43.0800   67.8980   31.4660 C   0  0  0  0  0  0  0  0  0  0  0  0
   42.2340   68.7160   32.1560 N   0  0  0  0  0  0  0  0  0  0  0  0
   42.7310   69.9690   32.1200 C   0  0  0  0  0  0  0  0  0  0  0  0
   41.9470   70.9080   32.8170 N   0  0  0  0  0  0  0  0  0  0  0  0
   40.7350   71.3330   32.3410 C   0  0  0  0  0  0  0  0  0  0  0  0
   40.1680   72.2270   33.2050 N   0  0  0  0  0  0  0  0  0  0  0  0
   41.0400   72.3540   34.2230 C   0  0  0  0  0  0  0  0  0  0  0  0
   42.0790   71.5730   33.9800 N   0  0  0  0  0  0  0  0  0  0  0  0
   46.4724   75.7249   30.9720 H   0  0  0  0  0  0  0  0  0  0  0  0
   45.5279   77.9614   31.6570 H   0  0  0  0  0  0  0  0  0  0  0  0
   43.2860   78.2141   32.5400 H   0  0  0  0  0  0  0  0  0  0  0  0
   41.6528   77.3212   34.6557 H   0  0  0  0  0  0  0  0  0  0  0  0
   39.2504   77.0641   35.1716 H   0  0  0  0  0  0  0  0  0  0  0  0
   38.7884   74.6645   31.7405 H   0  0  0  0  0  0  0  0  0  0  0  0
   43.2255   72.4882   31.8978 H   0  0  0  0  0  0  0  0  0  0  0  0
   47.6825   71.8592   29.9147 H   0  0  0  0  0  0  0  0  0  0  0  0
   45.0280   68.3499   30.3732 H   0  0  0  0  0  0  0  0  0  0  0  0
   42.9476   66.8162   31.3170 H   0  0  0  0  0  0  0  0  0  0  0  0
   40.2815   71.0010   31.3954 H   0  0  0  0  0  0  0  0  0  0  0  0
   40.9103   72.9974   35.1058 H   0  0  0  0  0  0  0  0  0  0  0  0
  1  6  1  0
  2  1  2  0
  2  3  1  0
  3  4  2  0
  4  5  1  0
  5  7  1  0
  6  5  2  0
  7  8  1  0
  8  9  2  0
 10 11  2  0
 10  9  1  0
 12 10  1  0
 13 12  1  0
 13  7  1  0
 14 13  2  0
 15 21  1  0
 15 16  2  0
 17 16  1  0
 17  1  1  0
 18 17  2  0
 19 20  2  0
 19 18  1  0
 20 15  1  0
 21 25  1  0
 22 21  1  0
 22 23  2  0
 23 24  1  0
 25 24  2  0
 25 26  1  0
 26 30  1  0
 27 26  1  0
 27 28  2  0
 28 29  1  0
 30 29  2  0
  2 31  1  0
  3 32  1  0
  4 33  1  0
  8 34  1  0
  9 35  1  0
 12 36  1  0
 16 37  1  0
 19 38  1  0
 22 39  1  0
 23 40  1  0
 27 41  1  0
 29 42  1  0
M  END
>  <Score>  (1) 
-7.04491

$$$$
