
     RDKit          3D

 50 55  0  0  0  0  0  0  0  0999 V2000
   46.7930   73.3210   30.2680 C   0  0  0  0  0  0  0  0  0  0  0  0
   45.9870   73.5460   31.3860 C   0  0  0  0  0  0  0  0  0  0  0  0
   46.0350   72.5980   32.4190 C   0  0  0  0  0  0  0  0  0  0  0  0
   46.8650   71.5170   32.2710 N   0  0  0  0  0  0  0  0  0  0  0  0
   47.6170   71.3440   31.1860 C   0  0  0  0  0  0  0  0  0  0  0  0
   47.5870   72.2390   30.1820 N   0  0  0  0  0  0  0  0  0  0  0  0
   45.1610   74.7000   31.4390 C   0  0  0  0  0  0  0  0  0  0  0  0
   45.6400   76.0220   31.3570 C   0  0  0  0  0  0  0  0  0  0  0  0
   44.5830   76.8790   31.4420 N   0  0  0  0  0  0  0  0  0  0  0  0
   43.4510   76.1540   31.5750 C   0  0  0  0  0  0  0  0  0  0  0  0
   42.1190   76.5400   31.6980 C   0  0  0  0  0  0  0  0  0  0  0  0
   41.1210   75.5770   31.8230 C   0  0  0  0  0  0  0  0  0  0  0  0
   41.4720   74.2380   31.8220 C   0  0  0  0  0  0  0  0  0  0  0  0
   42.7970   73.9180   31.6970 C   0  0  0  0  0  0  0  0  0  0  0  0
   43.8090   74.8250   31.5720 C   0  0  0  0  0  0  0  0  0  0  0  0
   48.4780   70.1510   31.1190 C   0  0  0  0  0  0  0  0  0  0  0  0
   47.7720   69.1130   30.3110 C   0  0  0  0  0  0  0  0  0  0  0  0
   46.4350   69.3200   29.9460 C   0  0  0  0  0  0  0  0  0  0  0  0
   46.0270   68.2340   29.2180 C   0  0  0  0  0  0  0  0  0  0  0  0
   47.0690   67.4070   29.1470 N   0  0  0  0  0  0  0  0  0  0  0  0
   48.1120   67.9390   29.8030 N   0  0  0  0  0  0  0  0  0  0  0  0
   47.0590   66.1540   28.4730 C   0  0  0  0  0  0  0  0  0  0  0  0
   45.8800   65.5150   28.1440 C   0  0  0  0  0  0  0  0  0  0  0  0
   45.7640   64.3050   27.4940 C   0  0  0  0  0  0  0  0  0  0  0  0
   46.9440   63.6850   27.1430 C   0  0  0  0  0  0  0  0  0  0  0  0
   48.1590   64.2700   27.4410 C   0  0  0  0  0  0  0  0  0  0  0  0
   49.3310   63.6370   27.0830 C   0  0  0  0  0  0  0  0  0  0  0  0
   50.5780   64.1620   27.3490 C   0  0  0  0  0  0  0  0  0  0  0  0
   50.6050   65.3940   28.0120 C   0  0  0  0  0  0  0  0  0  0  0  0
   49.4300   66.0560   28.3850 C   0  0  0  0  0  0  0  0  0  0  0  0
   48.2110   65.4810   28.0930 C   0  0  0  0  0  0  0  0  0  0  0  0
   46.7781   74.0446   29.4396 H   0  0  0  0  0  0  0  0  0  0  0  0
   45.4223   72.7190   33.3245 H   0  0  0  0  0  0  0  0  0  0  0  0
   46.6941   76.3150   31.2431 H   0  0  0  0  0  0  0  0  0  0  0  0
   44.6384   77.9070   31.4101 H   0  0  0  0  0  0  0  0  0  0  0  0
   41.8545   77.6077   31.6964 H   0  0  0  0  0  0  0  0  0  0  0  0
   40.0671   75.8765   31.9213 H   0  0  0  0  0  0  0  0  0  0  0  0
   40.7075   73.4530   31.9189 H   0  0  0  0  0  0  0  0  0  0  0  0
   43.0658   72.8514   31.6973 H   0  0  0  0  0  0  0  0  0  0  0  0
   49.4347   70.4083   30.6410 H   0  0  0  0  0  0  0  0  0  0  0  0
   48.6823   69.7717   32.1311 H   0  0  0  0  0  0  0  0  0  0  0  0
   45.8225   70.1980   30.1990 H   0  0  0  0  0  0  0  0  0  0  0  0
   45.0317   68.0754   28.7773 H   0  0  0  0  0  0  0  0  0  0  0  0
   44.9445   66.0194   28.4275 H   0  0  0  0  0  0  0  0  0  0  0  0
   44.7842   63.8590   27.2680 H   0  0  0  0  0  0  0  0  0  0  0  0
   46.9177   62.7168   26.6215 H   0  0  0  0  0  0  0  0  0  0  0  0
   49.2681   62.6702   26.5620 H   0  0  0  0  0  0  0  0  0  0  0  0
   51.5013   63.6407   27.0560 H   0  0  0  0  0  0  0  0  0  0  0  0
   51.5761   65.8545   28.2463 H   0  0  0  0  0  0  0  0  0  0  0  0
   49.4781   67.0240   28.9052 H   0  0  0  0  0  0  0  0  0  0  0  0
  1  2  2  0
  2  7  1  0
  2  3  1  0
  4  3  2  0
  5  4  1  0
  6  1  1  0
  6  5  2  0
  7 15  1  0
  8  7  2  0
  8  9  1  0
  9 10  1  0
 10 11  2  0
 11 12  1  0
 13 12  2  0
 14 13  1  0
 15 10  1  0
 15 14  2  0
 16  5  1  0
 17 16  1  0
 18 17  1  0
 19 18  2  0
 20 19  1  0
 20 21  1  0
 21 17  2  0
 22 20  1  0
 23 22  2  0
 24 23  1  0
 25 26  1  0
 25 24  2  0
 26 31  2  0
 27 28  2  0
 27 26  1  0
 28 29  1  0
 29 30  2  0
 31 30  1  0
 31 22  1  0
  1 32  1  0
  3 33  1  0
  8 34  1  0
  9 35  1  0
 11 36  1  0
 12 37  1  0
 13 38  1  0
 14 39  1  0
 16 40  1  0
 16 41  1  0
 18 42  1  0
 19 43  1  0
 23 44  1  0
 24 45  1  0
 25 46  1  0
 27 47  1  0
 28 48  1  0
 29 49  1  0
 30 50  1  0
M  END
>  <Score>  (1) 
-7.08316

$$$$
