
     RDKit          3D

 55 59  0  0  0  0  0  0  0  0999 V2000
   44.1820   70.5260   31.8540 C   0  0  0  0  0  0  0  0  0  0  0  0
   45.1830   69.6530   31.4740 C   0  0  0  0  0  0  0  0  0  0  0  0
   44.9530   68.4040   30.9550 C   0  0  0  0  0  0  0  0  0  0  0  0
   43.6450   67.9740   30.7930 C   0  0  0  0  0  0  0  0  0  0  0  0
   42.6050   68.7950   31.1510 C   0  0  0  0  0  0  0  0  0  0  0  0
   41.3000   68.3880   30.9990 C   0  0  0  0  0  0  0  0  0  0  0  0
   40.2280   69.1690   31.3390 C   0  0  0  0  0  0  0  0  0  0  0  0
   40.5510   70.4160   31.8580 C   0  0  0  0  0  0  0  0  0  0  0  0
   41.8450   70.8110   32.0050 C   0  0  0  0  0  0  0  0  0  0  0  0
   42.9130   70.0310   31.6640 C   0  0  0  0  0  0  0  0  0  0  0  0
   43.4370   66.6670   30.2490 N   0  0  0  0  0  0  0  0  0  0  0  0
   42.9450   65.6690   30.9870 C   0  0  0  0  0  0  0  0  0  0  0  0
   42.7550   64.4190   30.4350 C   0  0  0  0  0  0  0  0  0  0  0  0
   43.0960   64.2630   29.1020 C   0  0  0  0  0  0  0  0  0  0  0  0
   42.9370   63.1370   28.5620 O   0  0  0  0  0  0  0  0  0  0  0  0
   43.5870   65.2810   28.3870 N   0  0  0  0  0  0  0  0  0  0  0  0
   43.7740   66.5180   28.9370 C   0  0  0  0  0  0  0  0  0  0  0  0
   44.2370   67.3820   28.1710 O   0  0  0  0  0  0  0  0  0  0  0  0
   42.2090   63.2590   31.2000 C   0  0  0  0  0  0  0  0  0  0  0  0
   45.5850   73.4280   33.9000 C   0  0  0  0  0  0  0  0  0  0  0  0
   45.2790   72.1190   33.5350 C   0  0  0  0  0  0  0  0  0  0  0  0
   44.5760   71.8000   32.3810 C   0  0  0  0  0  0  0  0  0  0  0  0
   44.2140   72.8960   31.6380 N   0  0  0  0  0  0  0  0  0  0  0  0
   44.5110   74.1610   31.9920 C   0  0  0  0  0  0  0  0  0  0  0  0
   45.1900   74.4060   33.1140 N   0  0  0  0  0  0  0  0  0  0  0  0
   44.0670   75.2910   31.1060 C   0  0  0  0  0  0  0  0  0  0  0  0
   44.7650   76.5450   31.4880 C   0  0  0  0  0  0  0  0  0  0  0  0
   44.0130   77.2000   32.6240 C   0  0  0  0  0  0  0  0  0  0  0  0
   42.6590   77.6190   32.0590 C   0  0  0  0  0  0  0  0  0  0  0  0
   41.8880   76.3340   31.8560 C   0  0  0  0  0  0  0  0  0  0  0  0
   42.5930   75.3620   30.9720 C   0  0  0  0  0  0  0  0  0  0  0  0
   46.2267   69.9787   31.5948 H   0  0  0  0  0  0  0  0  0  0  0  0
   45.7937   67.7536   30.6717 H   0  0  0  0  0  0  0  0  0  0  0  0
   41.1084   67.3873   30.5845 H   0  0  0  0  0  0  0  0  0  0  0  0
   39.1883   68.8337   31.2106 H   0  0  0  0  0  0  0  0  0  0  0  0
   39.7428   71.0997   32.1570 H   0  0  0  0  0  0  0  0  0  0  0  0
   42.0410   71.8106   32.4201 H   0  0  0  0  0  0  0  0  0  0  0  0
   42.6894   65.8447   32.0424 H   0  0  0  0  0  0  0  0  0  0  0  0
   43.8301   65.1290   27.3977 H   0  0  0  0  0  0  0  0  0  0  0  0
   42.3012   63.4549   32.2785 H   0  0  0  0  0  0  0  0  0  0  0  0
   41.1491   63.1162   30.9426 H   0  0  0  0  0  0  0  0  0  0  0  0
   42.7744   62.3512   30.9426 H   0  0  0  0  0  0  0  0  0  0  0  0
   46.1438   73.6389   34.8237 H   0  0  0  0  0  0  0  0  0  0  0  0
   45.6095   71.3004   34.1912 H   0  0  0  0  0  0  0  0  0  0  0  0
   44.3813   75.0985   30.0696 H   0  0  0  0  0  0  0  0  0  0  0  0
   45.7908   76.3127   31.8102 H   0  0  0  0  0  0  0  0  0  0  0  0
   44.8033   77.2267   30.6256 H   0  0  0  0  0  0  0  0  0  0  0  0
   43.8763   76.4873   33.4507 H   0  0  0  0  0  0  0  0  0  0  0  0
   44.5645   78.0650   33.0211 H   0  0  0  0  0  0  0  0  0  0  0  0
   42.1329   78.2744   32.7687 H   0  0  0  0  0  0  0  0  0  0  0  0
   42.7663   78.1821   31.1201 H   0  0  0  0  0  0  0  0  0  0  0  0
   41.7283   75.8629   32.8371 H   0  0  0  0  0  0  0  0  0  0  0  0
   40.9389   76.5951   31.3650 H   0  0  0  0  0  0  0  0  0  0  0  0
   42.3653   75.6324   29.9303 H   0  0  0  0  0  0  0  0  0  0  0  0
   42.2260   74.3716   31.2793 H   0  0  0  0  0  0  0  0  0  0  0  0
  1 22  1  0
  2  1  2  0
  3  2  1  0
  4  3  2  0
  4  5  1  0
  5 10  2  0
  6  5  1  0
  6  7  2  0
  7  8  1  0
  8  9  2  0
 10  1  1  0
 10  9  1  0
 11  4  1  0
 11 12  1  0
 13 12  2  0
 13 19  1  0
 14 13  1  0
 15 14  2  0
 16 17  1  0
 16 14  1  0
 17 11  1  0
 18 17  2  0
 21 20  2  0
 22 21  1  0
 23 24  1  0
 23 22  2  0
 24 25  2  0
 25 20  1  0
 26 27  1  0
 26 24  1  0
 27 28  1  0
 29 28  1  0
 30 29  1  0
 31 26  1  0
 31 30  1  0
  2 32  1  0
  3 33  1  0
  6 34  1  0
  7 35  1  0
  8 36  1  0
  9 37  1  0
 12 38  1  0
 16 39  1  0
 19 40  1  0
 19 41  1  0
 19 42  1  0
 20 43  1  0
 21 44  1  0
 26 45  1  0
 27 46  1  0
 27 47  1  0
 28 48  1  0
 28 49  1  0
 29 50  1  0
 29 51  1  0
 30 52  1  0
 30 53  1  0
 31 54  1  0
 31 55  1  0
M  END
>  <Score>  (1) 
-7.52759

$$$$
