
     RDKit          3D

 44 49  0  0  0  0  0  0  0  0999 V2000
   44.3070   71.4630   31.8700 N   0  0  0  0  0  0  0  0  0  0  0  0
   43.4260   72.1650   32.5990 C   0  0  0  0  0  0  0  0  0  0  0  0
   42.3110   71.4260   32.7170 N   0  0  0  0  0  0  0  0  0  0  0  0
   42.5070   70.2810   32.0650 C   0  0  0  0  0  0  0  0  0  0  0  0
   41.6600   69.2080   31.8980 C   0  0  0  0  0  0  0  0  0  0  0  0
   42.1550   68.1740   31.1680 N   0  0  0  0  0  0  0  0  0  0  0  0
   43.3830   68.1560   30.6280 C   0  0  0  0  0  0  0  0  0  0  0  0
   44.1880   69.2100   30.8040 N   0  0  0  0  0  0  0  0  0  0  0  0
   43.7650   70.2730   31.5150 C   0  0  0  0  0  0  0  0  0  0  0  0
   45.6450   71.7880   31.4480 C   0  0  0  0  0  0  0  0  0  0  0  0
   45.8450   72.5960   30.3330 C   0  0  0  0  0  0  0  0  0  0  0  0
   47.1720   72.8760   29.9660 C   0  0  0  0  0  0  0  0  0  0  0  0
   48.1780   72.3490   30.7090 N   0  0  0  0  0  0  0  0  0  0  0  0
   47.9300   71.5670   31.7880 C   0  0  0  0  0  0  0  0  0  0  0  0
   46.6690   71.2830   32.1610 N   0  0  0  0  0  0  0  0  0  0  0  0
   48.9710   71.0090   32.5920 N   0  0  0  0  0  0  0  0  0  0  0  0
   50.0990   71.7510   32.6470 C   0  0  0  0  0  0  0  0  0  0  0  0
   50.9980   71.0650   33.4710 C   0  0  0  0  0  0  0  0  0  0  0  0
   50.3660   69.9250   33.8810 N   0  0  0  0  0  0  0  0  0  0  0  0
   49.1250   69.9050   33.3360 C   0  0  0  0  0  0  0  0  0  0  0  0
   43.5840   66.9040   29.9170 C   0  0  0  0  0  0  0  0  0  0  0  0
   44.1320   66.7170   28.6530 C   0  0  0  0  0  0  0  0  0  0  0  0
   44.1820   65.4350   28.2750 N   0  0  0  0  0  0  0  0  0  0  0  0
   43.6670   64.7090   29.2730 C   0  0  0  0  0  0  0  0  0  0  0  0
   43.4900   63.3480   29.3860 C   0  0  0  0  0  0  0  0  0  0  0  0
   42.9320   62.7980   30.5210 C   0  0  0  0  0  0  0  0  0  0  0  0
   42.5630   63.6850   31.5280 C   0  0  0  0  0  0  0  0  0  0  0  0
   42.7640   65.0340   31.3610 C   0  0  0  0  0  0  0  0  0  0  0  0
   43.3140   65.5990   30.2490 C   0  0  0  0  0  0  0  0  0  0  0  0
   43.5881   73.1666   33.0239 H   0  0  0  0  0  0  0  0  0  0  0  0
   41.4007   68.8237   32.8956 H   0  0  0  0  0  0  0  0  0  0  0  0
   40.7995   69.5911   31.3298 H   0  0  0  0  0  0  0  0  0  0  0  0
   45.1333   69.2086   30.3949 H   0  0  0  0  0  0  0  0  0  0  0  0
   44.9968   73.0000   29.7609 H   0  0  0  0  0  0  0  0  0  0  0  0
   47.3911   73.5096   29.0940 H   0  0  0  0  0  0  0  0  0  0  0  0
   50.2766   72.7112   32.1406 H   0  0  0  0  0  0  0  0  0  0  0  0
   52.0170   71.3822   33.7374 H   0  0  0  0  0  0  0  0  0  0  0  0
   48.3719   69.1162   33.4800 H   0  0  0  0  0  0  0  0  0  0  0  0
   44.4904   67.5448   28.0236 H   0  0  0  0  0  0  0  0  0  0  0  0
   44.5485   65.0745   27.3825 H   0  0  0  0  0  0  0  0  0  0  0  0
   43.7979   62.6905   28.5596 H   0  0  0  0  0  0  0  0  0  0  0  0
   42.7859   61.7127   30.6251 H   0  0  0  0  0  0  0  0  0  0  0  0
   42.1109   63.3065   32.4566 H   0  0  0  0  0  0  0  0  0  0  0  0
   42.4607   65.7031   32.1798 H   0  0  0  0  0  0  0  0  0  0  0  0
  1  2  1  0
  2  3  2  0
  4  3  1  0
  5  4  1  0
  6  5  1  0
  7  8  1  0
  7  6  2  0
  8  9  1  0
  9  1  1  0
  9  4  2  0
 10  1  1  0
 10 15  1  0
 11 10  2  0
 12 11  1  0
 12 13  2  0
 13 14  1  0
 14 15  2  0
 14 16  1  0
 16 17  1  0
 16 20  1  0
 17 18  2  0
 18 19  1  0
 20 19  2  0
 21 29  1  0
 21  7  1  0
 22 21  2  0
 23 22  1  0
 23 24  1  0
 24 25  2  0
 24 29  1  0
 25 26  1  0
 26 27  2  0
 28 27  1  0
 29 28  2  0
  2 30  1  0
  5 31  1  0
  5 32  1  0
  8 33  1  0
 11 34  1  0
 12 35  1  0
 17 36  1  0
 18 37  1  0
 20 38  1  0
 22 39  1  0
 23 40  1  0
 25 41  1  0
 26 42  1  0
 27 43  1  0
 28 44  1  0
M  END
>  <Score>  (1) 
-7.45762

$$$$
