
     RDKit          3D

 43 46  0  0  1  0  0  0  0  0999 V2000
   46.4060   70.6060   31.2810 N   0  0  0  0  0  0  0  0  0  0  0  0
   47.3780   70.0500   31.9820 C   0  0  0  0  0  0  0  0  0  0  0  0
   48.6080   70.6520   31.9620 C   0  0  0  0  0  0  0  0  0  0  0  0
   48.7220   71.8050   31.1980 C   0  0  0  0  0  0  0  0  0  0  0  0
   49.9950   72.4570   31.1610 N   0  0  0  0  0  0  0  0  0  0  0  0
   47.6920   72.3420   30.4920 N   0  0  0  0  0  0  0  0  0  0  0  0
   46.4960   71.7290   30.5320 C   0  0  0  0  0  0  0  0  0  0  0  0
   45.5090   72.1970   29.8880 O   0  0  0  0  0  0  0  0  0  0  0  0
   42.7690   69.9690   31.8630 C   0  0  0  0  0  0  0  0  0  0  0  0
   43.9950   70.6140   31.9080 C   0  0  0  0  0  0  0  0  0  0  0  0
   45.1080   70.0050   31.2820 C   0  0  0  0  0  0  0  0  0  0  0  0
   44.9000   68.8070   30.6680 N   0  0  0  0  0  0  0  0  0  0  0  0
   43.6870   68.2250   30.6560 C   0  0  0  0  0  0  0  0  0  0  0  0
   42.6350   68.7910   31.2400 N   0  0  0  0  0  0  0  0  0  0  0  0
   43.6830   66.9810   29.9570 N   0  0  0  0  0  0  0  0  0  0  0  0
   44.2670   67.0760   28.7490 N   0  0  0  0  0  0  0  0  0  0  0  0
   44.1860   65.8560   28.1520 C   0  0  0  0  0  0  0  0  0  0  0  0
   43.5420   65.0150   29.0170 C   0  0  0  0  0  0  0  0  0  0  0  0
   43.2310   65.7390   30.1540 C   0  0  0  0  0  0  0  0  0  0  0  0
   42.6320   65.5070   31.2980 O   0  0  0  0  0  0  0  0  0  0  0  0
   42.6410   64.2020   31.8830 C   0  0  2  0  0  0  0  0  0  0  0  0
   43.5360   63.1550   31.3600 C   0  0  0  0  0  0  0  0  0  0  0  0
   42.0390   63.0800   31.1660 C   0  0  1  0  0  0  0  0  0  0  0  0
   41.2430   62.0780   31.8200 N   0  0  0  0  0  0  0  0  0  0  0  0
   40.3270   61.1840   31.1580 C   0  0  0  0  0  0  0  0  0  0  0  0
   40.1620   61.4850   29.8940 N   0  0  0  0  0  0  0  0  0  0  0  0
   39.8460   60.2010   32.0840 N   0  0  0  0  0  0  0  0  0  0  0  0
   39.5120   60.8880   29.3340 H   0  0  0  0  0  0  0  0  0  0  0  0
   47.2049   69.1324   32.5634 H   0  0  0  0  0  0  0  0  0  0  0  0
   49.4614   70.2428   32.5225 H   0  0  0  0  0  0  0  0  0  0  0  0
   50.1181   73.3152   30.6049 H   0  0  0  0  0  0  0  0  0  0  0  0
   50.7883   72.0682   31.6905 H   0  0  0  0  0  0  0  0  0  0  0  0
   41.8947   70.4306   32.3452 H   0  0  0  0  0  0  0  0  0  0  0  0
   44.1006   71.5814   32.4209 H   0  0  0  0  0  0  0  0  0  0  0  0
   44.5690   65.5938   27.1547 H   0  0  0  0  0  0  0  0  0  0  0  0
   43.3126   63.9538   28.8404 H   0  0  0  0  0  0  0  0  0  0  0  0
   42.4912   64.6501   32.8764 H   0  0  0  0  0  0  0  0  0  0  0  0
   44.1953   63.3663   30.5052 H   0  0  0  0  0  0  0  0  0  0  0  0
   44.3073   62.4960   31.7852 H   0  0  0  0  0  0  0  0  0  0  0  0
   41.3597   62.9838   30.3062 H   0  0  0  0  0  0  0  0  0  0  0  0
   41.3344   61.9921   32.8423 H   0  0  0  0  0  0  0  0  0  0  0  0
   39.1787   59.4815   31.7709 H   0  0  0  0  0  0  0  0  0  0  0  0
   40.1677   60.2142   33.0624 H   0  0  0  0  0  0  0  0  0  0  0  0
  1 11  1  0
  1  2  1  0
  3  2  2  0
  4  3  1  0
  5  4  1  0
  6  7  1  0
  6  4  2  0
  7  1  1  0
  8  7  2  0
  9 10  2  0
 11 10  1  0
 12 11  2  0
 13 12  1  0
 13 14  2  0
 14  9  1  0
 15 19  1  0
 15 13  1  0
 16 15  1  0
 17 16  2  0
 17 18  1  0
 18 19  2  0
 19 20  1  0
 20 21  1  0
 22 21  1  0
 23 22  1  0
 23 24  1  0
 23 21  1  0
 25 24  1  0
 25 27  1  0
 26 25  2  0
 28 26  1  0
  2 29  1  0
  3 30  1  0
  5 31  1  0
  5 32  1  0
  9 33  1  0
 10 34  1  0
 17 35  1  0
 18 36  1  0
 21 37  1  1
 22 38  1  0
 22 39  1  0
 23 40  1  6
 24 41  1  0
 27 42  1  0
 27 43  1  0
M  END
>  <Score>  (1) 
-7.10283

$$$$
