
     RDKit          3D

 50 55  0  0  1  0  0  0  0  0999 V2000
   46.2990   70.5180   31.3280 N   0  0  0  0  0  0  0  0  0  0  0  0
   47.2780   69.9600   32.0230 C   0  0  0  0  0  0  0  0  0  0  0  0
   48.5000   70.5860   32.0240 C   0  0  0  0  0  0  0  0  0  0  0  0
   48.5920   71.7570   31.2870 C   0  0  0  0  0  0  0  0  0  0  0  0
   49.8560   72.4300   31.2740 N   0  0  0  0  0  0  0  0  0  0  0  0
   47.5570   72.2940   30.5880 N   0  0  0  0  0  0  0  0  0  0  0  0
   46.3750   71.6590   30.6060 C   0  0  0  0  0  0  0  0  0  0  0  0
   45.3860   72.1260   29.9680 O   0  0  0  0  0  0  0  0  0  0  0  0
   42.6760   69.7840   31.8840 C   0  0  0  0  0  0  0  0  0  0  0  0
   43.8870   70.4560   31.9510 C   0  0  0  0  0  0  0  0  0  0  0  0
   45.0140   69.8880   31.3070 C   0  0  0  0  0  0  0  0  0  0  0  0
   44.8340   68.7040   30.6580 N   0  0  0  0  0  0  0  0  0  0  0  0
   43.6310   68.0970   30.6270 C   0  0  0  0  0  0  0  0  0  0  0  0
   42.5690   68.6210   31.2260 N   0  0  0  0  0  0  0  0  0  0  0  0
   43.6540   66.8740   29.8890 N   0  0  0  0  0  0  0  0  0  0  0  0
   44.2390   67.0210   28.6850 N   0  0  0  0  0  0  0  0  0  0  0  0
   44.1830   65.8150   28.0520 C   0  0  0  0  0  0  0  0  0  0  0  0
   43.5570   64.9370   28.8880 C   0  0  0  0  0  0  0  0  0  0  0  0
   43.2290   65.6170   30.0460 C   0  0  0  0  0  0  0  0  0  0  0  0
   42.6330   65.3390   31.1790 O   0  0  0  0  0  0  0  0  0  0  0  0
   42.6850   64.0050   31.7200 C   0  0  2  0  0  0  0  0  0  0  0  0
   43.7850   63.0950   31.3650 C   0  0  0  0  0  0  0  0  0  0  0  0
   42.3460   62.8690   30.8780 C   0  0  1  0  0  0  0  0  0  0  0  0
   41.6450   61.6560   31.3210 C   0  0  0  0  0  0  0  0  0  0  0  0
   42.3690   60.7860   32.1410 C   0  0  0  0  0  0  0  0  0  0  0  0
   41.5540   59.7470   32.4500 N   0  0  0  0  0  0  0  0  0  0  0  0
   40.3400   59.9130   31.8630 C   0  0  0  0  0  0  0  0  0  0  0  0
   39.1440   59.2300   31.7990 C   0  0  0  0  0  0  0  0  0  0  0  0
   38.0680   59.7010   31.0780 C   0  0  0  0  0  0  0  0  0  0  0  0
   38.1820   60.9090   30.3860 C   0  0  0  0  0  0  0  0  0  0  0  0
   39.3760   61.5960   30.4470 C   0  0  0  0  0  0  0  0  0  0  0  0
   40.4180   61.0860   31.1790 C   0  0  0  0  0  0  0  0  0  0  0  0
   47.1177   69.0258   32.5812 H   0  0  0  0  0  0  0  0  0  0  0  0
   49.3589   70.1808   32.5790 H   0  0  0  0  0  0  0  0  0  0  0  0
   49.9691   73.3032   30.7395 H   0  0  0  0  0  0  0  0  0  0  0  0
   50.6521   72.0409   31.7991 H   0  0  0  0  0  0  0  0  0  0  0  0
   41.7907   70.2112   32.3777 H   0  0  0  0  0  0  0  0  0  0  0  0
   43.9710   71.4097   32.4926 H   0  0  0  0  0  0  0  0  0  0  0  0
   44.5724   65.5902   27.0481 H   0  0  0  0  0  0  0  0  0  0  0  0
   43.3502   63.8772   28.6780 H   0  0  0  0  0  0  0  0  0  0  0  0
   42.3015   64.3847   32.6785 H   0  0  0  0  0  0  0  0  0  0  0  0
   44.5665   63.4157   30.6605 H   0  0  0  0  0  0  0  0  0  0  0  0
   44.5345   62.5080   31.9161 H   0  0  0  0  0  0  0  0  0  0  0  0
   41.7966   62.7875   29.9285 H   0  0  0  0  0  0  0  0  0  0  0  0
   43.4087   60.9195   32.4744 H   0  0  0  0  0  0  0  0  0  0  0  0
   41.8173   58.9476   33.0438 H   0  0  0  0  0  0  0  0  0  0  0  0
   39.0454   58.2780   32.3412 H   0  0  0  0  0  0  0  0  0  0  0  0
   37.1279   59.1307   31.0478 H   0  0  0  0  0  0  0  0  0  0  0  0
   37.3363   61.3043   29.8041 H   0  0  0  0  0  0  0  0  0  0  0  0
   39.4925   62.5493   29.9107 H   0  0  0  0  0  0  0  0  0  0  0  0
  1  2  1  0
  2  3  2  0
  4  3  1  0
  5  4  1  0
  6  7  1  0
  6  4  2  0
  7  1  1  0
  8  7  2  0
  9 10  2  0
 11  1  1  0
 11 10  1  0
 12 11  2  0
 13 12  1  0
 13 14  2  0
 14  9  1  0
 15 19  1  0
 15 13  1  0
 16 15  1  0
 17 16  2  0
 17 18  1  0
 18 19  2  0
 19 20  1  0
 20 21  1  0
 22 21  1  0
 23 24  1  0
 23 22  1  0
 23 21  1  0
 24 25  2  0
 25 26  1  0
 27 26  1  0
 28 27  2  0
 29 28  1  0
 30 31  1  0
 30 29  2  0
 31 32  2  0
 32 24  1  0
 32 27  1  0
  2 33  1  0
  3 34  1  0
  5 35  1  0
  5 36  1  0
  9 37  1  0
 10 38  1  0
 17 39  1  0
 18 40  1  0
 21 41  1  1
 22 42  1  0
 22 43  1  0
 23 44  1  6
 25 45  1  0
 26 46  1  0
 28 47  1  0
 29 48  1  0
 30 49  1  0
 31 50  1  0
M  END
>  <Score>  (1) 
-7.4057

$$$$
