
     RDKit          3D

 48 52  0  0  0  0  0  0  0  0999 V2000
   44.7040   71.0450   31.1800 C   0  0  0  0  0  0  0  0  0  0  0  0
   44.2450   72.3390   31.5000 C   0  0  0  0  0  0  0  0  0  0  0  0
   45.0420   73.4330   31.2150 C   0  0  0  0  0  0  0  0  0  0  0  0
   46.2540   73.2220   30.6320 N   0  0  0  0  0  0  0  0  0  0  0  0
   46.6780   71.9770   30.3330 C   0  0  0  0  0  0  0  0  0  0  0  0
   45.9100   70.9160   30.6070 N   0  0  0  0  0  0  0  0  0  0  0  0
   44.5920   74.7610   31.5540 C   0  0  0  0  0  0  0  0  0  0  0  0
   45.4730   75.8240   31.3670 C   0  0  0  0  0  0  0  0  0  0  0  0
   44.9150   77.0490   31.7440 C   0  0  0  0  0  0  0  0  0  0  0  0
   43.6590   77.2030   32.2390 C   0  0  0  0  0  0  0  0  0  0  0  0
   42.8610   76.1150   32.3920 C   0  0  0  0  0  0  0  0  0  0  0  0
   43.3430   74.8840   32.0410 N   0  0  0  0  0  0  0  0  0  0  0  0
   41.5130   76.1210   32.9040 N   0  0  0  0  0  0  0  0  0  0  0  0
   41.0200   76.7280   33.9930 C   0  0  0  0  0  0  0  0  0  0  0  0
   39.6950   76.5920   34.2850 C   0  0  0  0  0  0  0  0  0  0  0  0
   38.8640   75.8360   33.4670 C   0  0  0  0  0  0  0  0  0  0  0  0
   37.6200   75.7320   33.7750 O   0  0  0  0  0  0  0  0  0  0  0  0
   39.3940   75.2350   32.3750 N   0  0  0  0  0  0  0  0  0  0  0  0
   40.6940   75.3800   32.1070 C   0  0  0  0  0  0  0  0  0  0  0  0
   41.0370   74.7660   31.0690 O   0  0  0  0  0  0  0  0  0  0  0  0
   43.8880   69.9040   31.4590 N   0  0  0  0  0  0  0  0  0  0  0  0
   44.0930   68.6890   30.8920 C   0  0  0  0  0  0  0  0  0  0  0  0
   43.0600   67.9030   31.4600 C   0  0  0  0  0  0  0  0  0  0  0  0
   42.3230   68.6700   32.3100 N   0  0  0  0  0  0  0  0  0  0  0  0
   42.8460   69.9310   32.3080 C   0  0  0  0  0  0  0  0  0  0  0  0
   42.1740   70.7920   33.1630 N   0  0  0  0  0  0  0  0  0  0  0  0
   41.3170   71.9580   33.2100 C   0  0  0  0  0  0  0  0  0  0  0  0
   40.1090   71.3310   33.9340 C   0  0  0  0  0  0  0  0  0  0  0  0
   40.7450   70.2740   34.8420 C   0  0  0  0  0  0  0  0  0  0  0  0
   42.2390   70.5800   34.6220 C   0  0  0  0  0  0  0  0  0  0  0  0
   43.2613   72.4775   31.9724 H   0  0  0  0  0  0  0  0  0  0  0  0
   47.6611   71.8329   29.8610 H   0  0  0  0  0  0  0  0  0  0  0  0
   46.4920   75.7120   30.9680 H   0  0  0  0  0  0  0  0  0  0  0  0
   45.5355   77.9504   31.6322 H   0  0  0  0  0  0  0  0  0  0  0  0
   43.2910   78.2025   32.5140 H   0  0  0  0  0  0  0  0  0  0  0  0
   41.6753   77.3275   34.6420 H   0  0  0  0  0  0  0  0  0  0  0  0
   39.2800   77.0853   35.1763 H   0  0  0  0  0  0  0  0  0  0  0  0
   38.7974   74.6692   31.7547 H   0  0  0  0  0  0  0  0  0  0  0  0
   44.8678   68.3888   30.1712 H   0  0  0  0  0  0  0  0  0  0  0  0
   42.8812   66.8387   31.2474 H   0  0  0  0  0  0  0  0  0  0  0  0
   41.7661   72.7784   33.7890 H   0  0  0  0  0  0  0  0  0  0  0  0
   41.0988   72.4276   32.2395 H   0  0  0  0  0  0  0  0  0  0  0  0
   39.5707   72.0856   34.5263 H   0  0  0  0  0  0  0  0  0  0  0  0
   39.3660   70.9093   33.2411 H   0  0  0  0  0  0  0  0  0  0  0  0
   40.4524   70.4121   35.8933 H   0  0  0  0  0  0  0  0  0  0  0  0
   40.4505   69.2383   34.6171 H   0  0  0  0  0  0  0  0  0  0  0  0
   42.8854   69.7327   34.8945 H   0  0  0  0  0  0  0  0  0  0  0  0
   42.6632   71.4017   35.2176 H   0  0  0  0  0  0  0  0  0  0  0  0
  1 21  1  0
  1  2  2  0
  3  2  1  0
  3  7  1  0
  4  3  2  0
  5  6  2  0
  5  4  1  0
  6  1  1  0
  7 12  1  0
  8  7  2  0
  8  9  1  0
  9 10  2  0
 10 11  1  0
 11 13  1  0
 12 11  2  0
 13 14  1  0
 14 15  2  0
 16 17  2  0
 16 15  1  0
 18 16  1  0
 19 18  1  0
 19 13  1  0
 20 19  2  0
 21 25  1  0
 22 21  1  0
 22 23  2  0
 23 24  1  0
 25 24  2  0
 25 26  1  0
 26 27  1  0
 26 30  1  0
 27 28  1  0
 28 29  1  0
 30 29  1  0
  2 31  1  0
  5 32  1  0
  8 33  1  0
  9 34  1  0
 10 35  1  0
 14 36  1  0
 15 37  1  0
 18 38  1  0
 22 39  1  0
 23 40  1  0
 27 41  1  0
 27 42  1  0
 28 43  1  0
 28 44  1  0
 29 45  1  0
 29 46  1  0
 30 47  1  0
 30 48  1  0
M  END
>  <Score>  (1) 
-7.07277

$$$$
