
     RDKit          3D

 43 47  0  0  0  0  0  0  0  0999 V2000
   44.6890   71.0820   31.1530 C   0  0  0  0  0  0  0  0  0  0  0  0
   44.2250   72.3760   31.4820 C   0  0  0  0  0  0  0  0  0  0  0  0
   45.0230   73.4690   31.2210 C   0  0  0  0  0  0  0  0  0  0  0  0
   46.2430   73.2540   30.6470 N   0  0  0  0  0  0  0  0  0  0  0  0
   46.6640   72.0170   30.3430 C   0  0  0  0  0  0  0  0  0  0  0  0
   45.8880   70.9570   30.5980 N   0  0  0  0  0  0  0  0  0  0  0  0
   44.5770   74.7960   31.5650 C   0  0  0  0  0  0  0  0  0  0  0  0
   45.4500   75.8540   31.3840 C   0  0  0  0  0  0  0  0  0  0  0  0
   44.8960   77.0790   31.7650 C   0  0  0  0  0  0  0  0  0  0  0  0
   43.6360   77.2300   32.2640 C   0  0  0  0  0  0  0  0  0  0  0  0
   42.8350   76.1280   32.4120 C   0  0  0  0  0  0  0  0  0  0  0  0
   43.3240   74.9070   32.0560 N   0  0  0  0  0  0  0  0  0  0  0  0
   41.4830   76.1260   32.9230 N   0  0  0  0  0  0  0  0  0  0  0  0
   40.9950   76.7210   34.0160 C   0  0  0  0  0  0  0  0  0  0  0  0
   39.6660   76.5770   34.2870 C   0  0  0  0  0  0  0  0  0  0  0  0
   38.8230   75.8330   33.4550 C   0  0  0  0  0  0  0  0  0  0  0  0
   37.6000   75.7390   33.7640 O   0  0  0  0  0  0  0  0  0  0  0  0
   39.3760   75.2580   32.3690 N   0  0  0  0  0  0  0  0  0  0  0  0
   40.6760   75.3960   32.1040 C   0  0  0  0  0  0  0  0  0  0  0  0
   41.0260   74.7860   31.0470 O   0  0  0  0  0  0  0  0  0  0  0  0
   43.8640   69.9390   31.3920 N   0  0  0  0  0  0  0  0  0  0  0  0
   44.1980   68.7070   30.9990 C   0  0  0  0  0  0  0  0  0  0  0  0
   43.0980   67.9240   31.4060 C   0  0  0  0  0  0  0  0  0  0  0  0
   42.1880   68.7200   32.0070 N   0  0  0  0  0  0  0  0  0  0  0  0
   42.6730   69.9800   31.9960 C   0  0  0  0  0  0  0  0  0  0  0  0
   41.7660   70.8350   32.6100 N   0  0  0  0  0  0  0  0  0  0  0  0
   41.7240   71.6080   33.7150 N   0  0  0  0  0  0  0  0  0  0  0  0
   40.5430   72.1830   33.8580 C   0  0  0  0  0  0  0  0  0  0  0  0
   39.6920   71.8220   32.8260 C   0  0  0  0  0  0  0  0  0  0  0  0
   40.5020   70.9880   32.0830 C   0  0  0  0  0  0  0  0  0  0  0  0
   43.2350   72.5096   31.9426 H   0  0  0  0  0  0  0  0  0  0  0  0
   47.6522   71.8733   29.8817 H   0  0  0  0  0  0  0  0  0  0  0  0
   46.4687   75.7430   30.9840 H   0  0  0  0  0  0  0  0  0  0  0  0
   45.5169   77.9804   31.6552 H   0  0  0  0  0  0  0  0  0  0  0  0
   43.2660   78.2270   32.5451 H   0  0  0  0  0  0  0  0  0  0  0  0
   41.6467   77.3100   34.6781 H   0  0  0  0  0  0  0  0  0  0  0  0
   39.2465   77.0583   35.1827 H   0  0  0  0  0  0  0  0  0  0  0  0
   38.7854   74.7030   31.7333 H   0  0  0  0  0  0  0  0  0  0  0  0
   45.1124   68.3810   30.4816 H   0  0  0  0  0  0  0  0  0  0  0  0
   42.9975   66.8387   31.2576 H   0  0  0  0  0  0  0  0  0  0  0  0
   40.2722   72.8568   34.6842 H   0  0  0  0  0  0  0  0  0  0  0  0
   38.6486   72.1207   32.6468 H   0  0  0  0  0  0  0  0  0  0  0  0
   40.1705   70.4927   31.1585 H   0  0  0  0  0  0  0  0  0  0  0  0
  1 21  1  0
  1  2  2  0
  3  2  1  0
  3  7  1  0
  4  3  2  0
  5  6  2  0
  5  4  1  0
  6  1  1  0
  7 12  1  0
  8  7  2  0
  8  9  1  0
  9 10  2  0
 10 11  1  0
 11 13  1  0
 12 11  2  0
 13 14  1  0
 14 15  2  0
 16 17  2  0
 16 15  1  0
 18 16  1  0
 19 18  1  0
 19 13  1  0
 20 19  2  0
 21 25  1  0
 22 21  1  0
 22 23  2  0
 23 24  1  0
 25 24  2  0
 25 26  1  0
 26 27  1  0
 27 28  2  0
 29 28  1  0
 30 26  1  0
 30 29  2  0
  2 31  1  0
  5 32  1  0
  8 33  1  0
  9 34  1  0
 10 35  1  0
 14 36  1  0
 15 37  1  0
 18 38  1  0
 22 39  1  0
 23 40  1  0
 28 41  1  0
 29 42  1  0
 30 43  1  0
M  END
>  <Score>  (1) 
-7.30096

$$$$
