
     RDKit          3D

 55 59  0  0  1  0  0  0  0  0999 V2000
   47.5870   69.4490   31.1530 C   0  0  0  0  0  0  0  0  0  0  0  0
   47.0230   70.1030   30.1130 C   0  0  0  0  0  0  0  0  0  0  0  0
   47.1920   69.5180   28.8830 C   0  0  0  0  0  0  0  0  0  0  0  0
   47.8860   68.3620   28.7820 N   0  0  0  0  0  0  0  0  0  0  0  0
   48.4190   67.7550   29.8180 C   0  0  0  0  0  0  0  0  0  0  0  0
   48.2810   68.2800   31.0090 N   0  0  0  0  0  0  0  0  0  0  0  0
   46.2860   71.3380   30.3910 C   0  0  2  0  0  0  0  0  0  0  0  0
   47.0950   72.4300   30.3610 N   0  0  0  0  0  0  0  0  0  0  0  0
   46.6740   73.6520   30.7210 C   0  0  0  0  0  0  0  0  0  0  0  0
   45.4230   73.8300   31.2940 N   0  0  0  0  0  0  0  0  0  0  0  0
   44.6640   72.7170   31.4820 C   0  0  0  0  0  0  0  0  0  0  0  0
   43.4450   72.7890   32.0850 C   0  0  0  0  0  0  0  0  0  0  0  0
   42.7010   71.6320   32.3230 C   0  0  0  0  0  0  0  0  0  0  0  0
   43.2000   70.3890   31.9460 C   0  0  0  0  0  0  0  0  0  0  0  0
   44.4420   70.3280   31.3310 C   0  0  0  0  0  0  0  0  0  0  0  0
   45.1280   71.4920   31.1200 C   0  0  0  0  0  0  0  0  0  0  0  0
   49.1590   66.4820   29.6410 C   0  0  0  0  0  0  0  0  0  0  0  0
   49.1400   66.0200   28.1860 C   0  0  0  0  0  0  0  0  0  0  0  0
   48.0180   65.1370   27.8820 C   0  0  0  0  0  0  0  0  0  0  0  0
   48.0610   64.4490   26.6720 C   0  0  0  0  0  0  0  0  0  0  0  0
   46.9960   63.5960   26.3580 C   0  0  0  0  0  0  0  0  0  0  0  0
   45.9800   63.4690   27.2190 N   0  0  0  0  0  0  0  0  0  0  0  0
   45.9300   64.1300   28.3900 C   0  0  0  0  0  0  0  0  0  0  0  0
   46.9680   64.9510   28.6780 N   0  0  0  0  0  0  0  0  0  0  0  0
   44.8120   63.9160   29.2130 N   0  0  0  0  0  0  0  0  0  0  0  0
   44.8890   62.7740   29.9410 C   0  0  0  0  0  0  0  0  0  0  0  0
   43.8920   62.3900   30.8060 C   0  0  0  0  0  0  0  0  0  0  0  0
   43.9170   61.1540   31.6290 C   0  0  0  0  0  0  0  0  0  0  0  0
   42.7720   63.1960   30.9370 C   0  0  0  0  0  0  0  0  0  0  0  0
   41.8280   62.8730   31.7290 O   0  0  0  0  0  0  0  0  0  0  0  0
   42.7230   64.3170   30.2080 N   0  0  0  0  0  0  0  0  0  0  0  0
   43.7110   64.6680   29.3700 C   0  0  0  0  0  0  0  0  0  0  0  0
   43.7040   65.7180   28.6630 O   0  0  0  0  0  0  0  0  0  0  0  0
   47.4828   69.8769   32.1610 H   0  0  0  0  0  0  0  0  0  0  0  0
   46.1867   69.3230   28.4814 H   0  0  0  0  0  0  0  0  0  0  0  0
   47.8170   70.2411   28.3384 H   0  0  0  0  0  0  0  0  0  0  0  0
   48.6922   67.8159   31.8315 H   0  0  0  0  0  0  0  0  0  0  0  0
   45.6040   71.1470   29.5493 H   0  0  0  0  0  0  0  0  0  0  0  0
   47.3276   74.5220   30.5602 H   0  0  0  0  0  0  0  0  0  0  0  0
   45.0839   74.7640   31.5651 H   0  0  0  0  0  0  0  0  0  0  0  0
   43.0431   73.7674   32.3871 H   0  0  0  0  0  0  0  0  0  0  0  0
   41.7173   71.7032   32.8101 H   0  0  0  0  0  0  0  0  0  0  0  0
   42.6209   69.4725   32.1320 H   0  0  0  0  0  0  0  0  0  0  0  0
   44.8666   69.3623   31.0192 H   0  0  0  0  0  0  0  0  0  0  0  0
   50.2028   66.6289   29.9555 H   0  0  0  0  0  0  0  0  0  0  0  0
   48.6695   65.7108   30.2539 H   0  0  0  0  0  0  0  0  0  0  0  0
   49.0741   66.9062   27.5378 H   0  0  0  0  0  0  0  0  0  0  0  0
   50.0641   65.4499   28.0099 H   0  0  0  0  0  0  0  0  0  0  0  0
   48.9085   64.5723   25.9817 H   0  0  0  0  0  0  0  0  0  0  0  0
   46.9947   63.0352   25.4117 H   0  0  0  0  0  0  0  0  0  0  0  0
   45.7779   62.1346   29.8358 H   0  0  0  0  0  0  0  0  0  0  0  0
   43.9116   61.4234   32.6955 H   0  0  0  0  0  0  0  0  0  0  0  0
   43.0310   60.5434   31.4005 H   0  0  0  0  0  0  0  0  0  0  0  0
   44.8269   60.5797   31.4005 H   0  0  0  0  0  0  0  0  0  0  0  0
   41.9001   64.9307   30.2927 H   0  0  0  0  0  0  0  0  0  0  0  0
  2  7  1  0
  2  1  2  0
  3  2  1  0
  4  3  1  0
  4  5  2  0
  5  6  1  0
  6  1  1  0
  7 16  1  0
  8  7  1  0
  8  9  2  0
  9 10  1  0
 10 11  1  0
 11 12  2  0
 12 13  1  0
 14 13  2  0
 15 14  1  0
 16 15  2  0
 16 11  1  0
 17  5  1  0
 18 17  1  0
 19 18  1  0
 19 24  1  0
 20 19  2  0
 21 20  1  0
 21 22  2  0
 22 23  1  0
 23 24  2  0
 23 25  1  0
 25 32  1  0
 25 26  1  0
 26 27  2  0
 27 29  1  0
 27 28  1  0
 29 30  2  0
 31 29  1  0
 32 31  1  0
 33 32  2  0
  1 34  1  0
  3 35  1  0
  3 36  1  0
  6 37  1  0
  7 38  1  6
  9 39  1  0
 10 40  1  0
 12 41  1  0
 13 42  1  0
 14 43  1  0
 15 44  1  0
 17 45  1  0
 17 46  1  0
 18 47  1  0
 18 48  1  0
 20 49  1  0
 21 50  1  0
 26 51  1  0
 28 52  1  0
 28 53  1  0
 28 54  1  0
 31 55  1  0
M  END
>  <Score>  (1) 
-7.19018

$$$$
