
     RDKit          3D

 50 54  0  0  0  0  0  0  0  0999 V2000
   55.0080   72.7180   34.1170 N   0  0  0  0  0  0  0  0  0  0  0  0
   54.4720   73.9160   33.7830 C   0  0  0  0  0  0  0  0  0  0  0  0
   53.1930   73.6720   33.4350 N   0  0  0  0  0  0  0  0  0  0  0  0
   52.9590   72.3660   33.5530 C   0  0  0  0  0  0  0  0  0  0  0  0
   51.7940   71.6580   33.3040 C   0  0  0  0  0  0  0  0  0  0  0  0
   51.8330   70.3200   33.5090 N   0  0  0  0  0  0  0  0  0  0  0  0
   52.9540   69.7060   33.9340 C   0  0  0  0  0  0  0  0  0  0  0  0
   54.0750   70.4060   34.1700 N   0  0  0  0  0  0  0  0  0  0  0  0
   54.1050   71.7420   33.9860 C   0  0  0  0  0  0  0  0  0  0  0  0
   52.8410   68.2230   34.1130 C   0  0  0  0  0  0  0  0  0  0  0  0
   54.2060   67.6720   34.5430 C   0  0  0  0  0  0  0  0  0  0  0  0
   54.7840   66.9510   33.3840 C   0  0  0  0  0  0  0  0  0  0  0  0
   55.9190   67.4450   32.7900 C   0  0  0  0  0  0  0  0  0  0  0  0
   56.3610   66.6670   31.7050 C   0  0  0  0  0  0  0  0  0  0  0  0
   55.7020   65.5280   31.3010 C   0  0  0  0  0  0  0  0  0  0  0  0
   54.5720   65.0930   31.9440 C   0  0  0  0  0  0  0  0  0  0  0  0
   54.1420   65.8430   32.9930 N   0  0  0  0  0  0  0  0  0  0  0  0
   50.5960   72.2060   32.8660 O   0  0  0  0  0  0  0  0  0  0  0  0
   49.3830   71.5260   32.9660 C   0  0  0  0  0  0  0  0  0  0  0  0
   49.2190   70.8780   34.0230 O   0  0  0  0  0  0  0  0  0  0  0  0
   47.4520   72.6900   30.1060 C   0  0  0  0  0  0  0  0  0  0  0  0
   46.5110   71.7030   29.9130 C   0  0  0  0  0  0  0  0  0  0  0  0
   46.5350   70.6110   30.7820 C   0  0  0  0  0  0  0  0  0  0  0  0
   47.4740   70.5650   31.7700 N   0  0  0  0  0  0  0  0  0  0  0  0
   48.3870   71.5640   31.9260 C   0  0  0  0  0  0  0  0  0  0  0  0
   48.3510   72.5980   31.0900 N   0  0  0  0  0  0  0  0  0  0  0  0
   45.5740   69.6050   30.5830 N   0  0  0  0  0  0  0  0  0  0  0  0
   44.4410   69.6240   31.3100 C   0  0  0  0  0  0  0  0  0  0  0  0
   43.5300   68.6050   31.0710 C   0  0  0  0  0  0  0  0  0  0  0  0
   43.8330   67.6450   30.1160 C   0  0  0  0  0  0  0  0  0  0  0  0
   42.8990   66.6010   29.8710 N   0  0  0  0  0  0  0  0  0  0  0  0
   45.0040   67.6870   29.4150 N   0  0  0  0  0  0  0  0  0  0  0  0
   45.8810   68.6780   29.6530 C   0  0  0  0  0  0  0  0  0  0  0  0
   46.9610   68.7170   29.0060 O   0  0  0  0  0  0  0  0  0  0  0  0
   55.9795   72.5783   34.4295 H   0  0  0  0  0  0  0  0  0  0  0  0
   54.9788   74.8922   33.7936 H   0  0  0  0  0  0  0  0  0  0  0  0
   52.0918   68.0000   34.8869 H   0  0  0  0  0  0  0  0  0  0  0  0
   52.5299   67.7549   33.1674 H   0  0  0  0  0  0  0  0  0  0  0  0
   54.8682   68.4992   34.8383 H   0  0  0  0  0  0  0  0  0  0  0  0
   54.0957   66.9950   35.4030 H   0  0  0  0  0  0  0  0  0  0  0  0
   56.4312   68.3576   33.1287 H   0  0  0  0  0  0  0  0  0  0  0  0
   57.2643   66.9794   31.1605 H   0  0  0  0  0  0  0  0  0  0  0  0
   56.0897   64.9556   30.4454 H   0  0  0  0  0  0  0  0  0  0  0  0
   54.0405   64.1835   31.6272 H   0  0  0  0  0  0  0  0  0  0  0  0
   47.4635   73.5660   29.4409 H   0  0  0  0  0  0  0  0  0  0  0  0
   45.7685   71.7727   29.1044 H   0  0  0  0  0  0  0  0  0  0  0  0
   44.2471   70.4084   32.0564 H   0  0  0  0  0  0  0  0  0  0  0  0
   42.5833   68.5590   31.6293 H   0  0  0  0  0  0  0  0  0  0  0  0
   43.1064   65.8794   29.1659 H   0  0  0  0  0  0  0  0  0  0  0  0
   42.0151   66.5665   30.3986 H   0  0  0  0  0  0  0  0  0  0  0  0
  2  1  1  0
  3  4  1  0
  3  2  2  0
  4  9  2  0
  5  6  2  0
  5  4  1  0
  6  7  1  0
  7 10  1  0
  7  8  2  0
  9  1  1  0
  9  8  1  0
 10 11  1  0
 12 11  1  0
 13 12  2  0
 14 13  1  0
 15 14  2  0
 15 16  1  0
 16 17  2  0
 17 12  1  0
 18 19  1  0
 18  5  1  0
 19 20  2  0
 21 26  2  0
 22 21  1  0
 22 23  2  0
 23 24  1  0
 24 25  2  0
 25 19  1  0
 26 25  1  0
 27 23  1  0
 27 28  1  0
 29 28  2  0
 30 29  1  0
 31 30  1  0
 32 33  1  0
 32 30  2  0
 33 27  1  0
 34 33  2  0
  1 35  1  0
  2 36  1  0
 10 37  1  0
 10 38  1  0
 11 39  1  0
 11 40  1  0
 13 41  1  0
 14 42  1  0
 15 43  1  0
 16 44  1  0
 21 45  1  0
 22 46  1  0
 28 47  1  0
 29 48  1  0
 31 49  1  0
 31 50  1  0
M  END
>  <Score>  (1) 
-7.25214

$$$$
