
     RDKit          3D

 57 61  0  0  1  0  0  0  0  0999 V2000
   49.8760   71.9340   31.2280 N   0  0  0  0  0  0  0  0  0  0  0  0
   48.8370   72.0430   30.3850 N   0  0  0  0  0  0  0  0  0  0  0  0
   47.7110   71.6590   31.0160 C   0  0  0  0  0  0  0  0  0  0  0  0
   48.0510   71.2960   32.2960 C   0  0  0  0  0  0  0  0  0  0  0  0
   49.4450   71.4810   32.4060 C   0  0  0  0  0  0  0  0  0  0  0  0
   46.4080   71.6590   30.3790 C   0  0  0  0  0  0  0  0  0  0  0  0
   46.3200   72.2300   29.2500 O   0  0  0  0  0  0  0  0  0  0  0  0
   44.3430   71.7570   31.6900 N   0  0  0  0  0  0  0  0  0  0  0  0
   45.2300   71.0420   30.9740 C   0  0  0  0  0  0  0  0  0  0  0  0
   45.0260   69.6670   30.7890 C   0  0  0  0  0  0  0  0  0  0  0  0
   43.9000   69.1910   31.3830 C   0  0  0  0  0  0  0  0  0  0  0  0
   43.6700   67.9440   31.2430 O   0  0  0  0  0  0  0  0  0  0  0  0
   42.9890   69.8690   32.1060 N   0  0  0  0  0  0  0  0  0  0  0  0
   43.2360   71.1920   32.2520 C   0  0  0  0  0  0  0  0  0  0  0  0
   42.4110   71.8610   32.9200 O   0  0  0  0  0  0  0  0  0  0  0  0
   44.5210   73.1450   31.8940 C   0  0  0  0  0  0  0  0  0  0  0  0
   44.0080   74.0670   30.9590 C   0  0  0  0  0  0  0  0  0  0  0  0
   44.1960   75.4250   31.1840 C   0  0  0  0  0  0  0  0  0  0  0  0
   44.8730   75.8010   32.3050 N   0  0  0  0  0  0  0  0  0  0  0  0
   45.3530   74.8860   33.1850 C   0  0  0  0  0  0  0  0  0  0  0  0
   45.1720   73.5710   32.9690 N   0  0  0  0  0  0  0  0  0  0  0  0
   45.9470   68.8100   30.0180 C   0  0  0  0  0  0  0  0  0  0  0  0
   50.2090   71.1880   33.6810 C   0  0  1  0  0  0  0  0  0  0  0  0
   50.1020   69.6790   33.8940 C   0  0  0  0  0  0  0  0  0  0  0  0
   51.6290   71.6270   33.5740 C   0  0  0  0  0  0  0  0  0  0  0  0
   51.9080   72.8610   34.2940 C   0  0  0  0  0  0  0  0  0  0  0  0
   50.9140   73.5190   35.0350 C   0  0  0  0  0  0  0  0  0  0  0  0
   51.1450   74.7010   35.7070 C   0  0  0  0  0  0  0  0  0  0  0  0
   52.3870   75.2930   35.6730 C   0  0  0  0  0  0  0  0  0  0  0  0
   53.4100   74.6770   34.9490 C   0  0  0  0  0  0  0  0  0  0  0  0
   54.6560   75.2700   34.9230 C   0  0  0  0  0  0  0  0  0  0  0  0
   55.6790   74.6720   34.2200 C   0  0  0  0  0  0  0  0  0  0  0  0
   55.4850   73.4700   33.5270 C   0  0  0  0  0  0  0  0  0  0  0  0
   54.1840   72.9520   33.6160 C   0  0  0  0  0  0  0  0  0  0  0  0
   53.1440   73.5000   34.2930 C   0  0  0  0  0  0  0  0  0  0  0  0
   50.8538   72.1643   31.0005 H   0  0  0  0  0  0  0  0  0  0  0  0
   47.3707   70.9328   33.0804 H   0  0  0  0  0  0  0  0  0  0  0  0
   42.1626   69.4134   32.5188 H   0  0  0  0  0  0  0  0  0  0  0  0
   43.4682   73.7172   30.0667 H   0  0  0  0  0  0  0  0  0  0  0  0
   43.8096   76.1747   30.4778 H   0  0  0  0  0  0  0  0  0  0  0  0
   45.8941   75.2225   34.0816 H   0  0  0  0  0  0  0  0  0  0  0  0
   46.5726   68.2279   30.7107 H   0  0  0  0  0  0  0  0  0  0  0  0
   45.3657   68.1241   29.3843 H   0  0  0  0  0  0  0  0  0  0  0  0
   46.5893   69.4391   29.3843 H   0  0  0  0  0  0  0  0  0  0  0  0
   49.7909   71.7399   34.5357 H   0  0  0  0  0  0  0  0  0  0  0  0
   50.0865   69.4611   34.9721 H   0  0  0  0  0  0  0  0  0  0  0  0
   49.1753   69.3082   33.4316 H   0  0  0  0  0  0  0  0  0  0  0  0
   50.9671   69.1812   33.4316 H   0  0  0  0  0  0  0  0  0  0  0  0
   52.2713   70.8325   33.9817 H   0  0  0  0  0  0  0  0  0  0  0  0
   51.8304   71.8191   32.5098 H   0  0  0  0  0  0  0  0  0  0  0  0
   49.9093   73.0735   35.0817 H   0  0  0  0  0  0  0  0  0  0  0  0
   50.3302   75.1743   36.2746 H   0  0  0  0  0  0  0  0  0  0  0  0
   52.5710   76.2365   36.2077 H   0  0  0  0  0  0  0  0  0  0  0  0
   54.8312   76.2139   35.4600 H   0  0  0  0  0  0  0  0  0  0  0  0
   56.6701   75.1489   34.2025 H   0  0  0  0  0  0  0  0  0  0  0  0
   56.2862   72.9734   32.9601 H   0  0  0  0  0  0  0  0  0  0  0  0
   53.9882   72.0090   33.0846 H   0  0  0  0  0  0  0  0  0  0  0  0
  1  5  1  0
  2  3  2  0
  2  1  1  0
  3  4  1  0
  4  5  2  0
  5 23  1  0
  6  9  1  0
  6  3  1  0
  7  6  2  0
  8 16  1  0
  8 14  1  0
  9  8  1  0
 10  9  2  0
 10 11  1  0
 11 13  1  0
 12 11  2  0
 13 14  1  0
 14 15  2  0
 16 21  2  0
 17 18  2  0
 17 16  1  0
 18 19  1  0
 19 20  2  0
 21 20  1  0
 22 10  1  0
 23 24  1  0
 25 23  1  0
 25 26  1  0
 26 27  2  0
 27 28  1  0
 29 28  2  0
 30 29  1  0
 31 30  2  0
 32 31  1  0
 33 34  1  0
 33 32  2  0
 34 35  2  0
 35 26  1  0
 35 30  1  0
  1 36  1  0
  4 37  1  0
 13 38  1  0
 17 39  1  0
 18 40  1  0
 20 41  1  0
 22 42  1  0
 22 43  1  0
 22 44  1  0
 23 45  1  1
 24 46  1  0
 24 47  1  0
 24 48  1  0
 25 49  1  0
 25 50  1  0
 27 51  1  0
 28 52  1  0
 29 53  1  0
 31 54  1  0
 32 55  1  0
 33 56  1  0
 34 57  1  0
M  END
>  <Score>  (1) 
-7.01634

$$$$
