
     RDKit          3D

 26 27  0  0  0  0  0  0  0  0999 V2000
   36.4300   31.0910   49.2140 C   0  0  0  0  0  0  0  0  0  0  0  0
   36.8840   32.1350   49.9990 C   0  0  0  0  0  0  0  0  0  0  0  0
   37.8580   32.9090   49.4090 C   0  0  0  0  0  0  0  0  0  0  0  0
   38.3180   32.6450   48.1490 N   0  0  0  0  0  0  0  0  0  0  0  0
   37.8420   31.6140   47.4220 C   0  0  0  0  0  0  0  0  0  0  0  0
   36.8810   30.8280   47.9730 N   0  0  0  0  0  0  0  0  0  0  0  0
   35.3390   30.2030   49.7740 C   0  0  0  0  0  0  0  0  0  0  0  0
   35.3080   28.7930   49.5720 C   0  0  0  0  0  0  0  0  0  0  0  0
   35.8720   29.2850   50.8960 C   0  0  0  0  0  0  0  0  0  0  0  0
   38.3120   31.3250   46.0750 C   0  0  0  0  0  0  0  0  0  0  0  0
   40.7910   31.4230   45.7240 C   0  0  0  0  0  0  0  0  0  0  0  0
   40.7680   32.5570   45.1640 O   0  0  0  0  0  0  0  0  0  0  0  0
   39.6390   30.7460   46.1870 N   0  0  0  0  0  0  0  0  0  0  0  0
   42.0520   30.7650   45.9100 N   0  0  0  0  0  0  0  0  0  0  0  0
   36.4990   32.3308   51.0107 H   0  0  0  0  0  0  0  0  0  0  0  0
   38.2763   33.7608   49.9652 H   0  0  0  0  0  0  0  0  0  0  0  0
   34.5524   30.9547   49.6122 H   0  0  0  0  0  0  0  0  0  0  0  0
   34.3406   28.2697   49.5570 H   0  0  0  0  0  0  0  0  0  0  0  0
   35.6929   28.1309   48.7824 H   0  0  0  0  0  0  0  0  0  0  0  0
   36.9498   29.2217   51.1063 H   0  0  0  0  0  0  0  0  0  0  0  0
   35.6712   29.1227   51.9653 H   0  0  0  0  0  0  0  0  0  0  0  0
   38.3563   32.2531   45.4862 H   0  0  0  0  0  0  0  0  0  0  0  0
   37.6281   30.6278   45.5688 H   0  0  0  0  0  0  0  0  0  0  0  0
   39.7442   29.8155   46.6160 H   0  0  0  0  0  0  0  0  0  0  0  0
   42.9207   31.2166   45.5900 H   0  0  0  0  0  0  0  0  0  0  0  0
   42.0888   29.8409   46.3635 H   0  0  0  0  0  0  0  0  0  0  0  0
  1  7  1  0
  1  2  2  0
  3  2  1  0
  4  3  2  0
  5  6  2  0
  5  4  1  0
  6  1  1  0
  7  9  1  0
  8  7  1  0
  8  9  1  0
 10 13  1  0
 10  5  1  0
 11 14  1  0
 11 13  1  0
 12 11  2  0
  2 15  1  0
  3 16  1  0
  7 17  1  0
  8 18  1  0
  8 19  1  0
  9 20  1  0
  9 21  1  0
 10 22  1  0
 10 23  1  0
 13 24  1  0
 14 25  1  0
 14 26  1  0
M  ISO  8  15  14  16  14  17  13  18  13  19  13  20  13  21  13  22   8
M  ISO  1  23   8
M  END
>  <minimizedAffinity>  (1) 
-5.09213686

>  <minimizedRMSD>  (1) 
1.1538831

$$$$
