
     RDKit          3D

 45 47  0  0  1  0  0  0  0  0999 V2000
   32.5420   27.8020   48.5800 C   0  0  0  0  0  0  0  0  0  0  0  0
   30.3160   27.0890   47.8980 C   0  0  0  0  0  0  0  0  0  0  0  0
   31.6820   26.9870   47.7730 C   0  0  0  0  0  0  0  0  0  0  0  0
   32.1040   26.1130   46.8540 C   0  0  0  0  0  0  0  0  0  0  0  0
   31.2600   25.3860   46.1060 N   0  0  0  0  0  0  0  0  0  0  0  0
   29.9170   25.4650   46.2060 C   0  0  0  0  0  0  0  0  0  0  0  0
   29.4340   26.3180   47.1040 N   0  0  0  0  0  0  0  0  0  0  0  0
   29.6450   27.9310   48.9340 C   0  0  1  0  0  0  0  0  0  0  0  0
   28.6900   28.9330   48.5110 C   0  0  0  0  0  0  0  0  0  0  0  0
   28.1940   27.5900   49.1150 C   0  0  2  0  0  0  0  0  0  0  0  0
   27.5660   27.7690   50.4310 C   0  0  0  0  0  0  0  0  0  0  0  0
   26.4000   28.1360   50.4130 O   0  0  0  0  0  0  0  0  0  0  0  0
   28.3790   27.4980   51.5830 N   0  0  0  0  0  0  0  0  0  0  0  0
   33.7090   28.4160   47.8680 C   0  0  0  0  0  0  0  0  0  0  0  0
   35.0640   30.6620   46.9710 F   0  0  0  0  0  0  0  0  0  0  0  0
   35.4000   30.0630   48.1660 C   0  0  0  0  0  0  0  0  0  0  0  0
   34.7420   28.9330   48.6800 C   0  0  0  0  0  0  0  0  0  0  0  0
   35.2140   28.5210   49.8470 C   0  0  0  0  0  0  0  0  0  0  0  0
   36.2390   29.0980   50.5310 C   0  0  0  0  0  0  0  0  0  0  0  0
   36.8980   30.2170   50.0290 C   0  0  0  0  0  0  0  0  0  0  0  0
   36.4200   30.6310   48.8520 C   0  0  0  0  0  0  0  0  0  0  0  0
   38.0000   30.8350   50.7600 C   0  0  0  0  0  0  0  0  0  0  0  0
   37.1090   31.7910   48.3150 O   0  0  0  0  0  0  0  0  0  0  0  0
   38.2380   31.5310   47.6190 C   0  0  0  0  0  0  0  0  0  0  0  0
   39.1090   32.4600   47.7100 O   0  0  0  0  0  0  0  0  0  0  0  0
   38.6790   30.4860   46.8210 N   0  0  0  0  0  0  0  0  0  0  0  0
   31.9365   28.6173   49.0027 H   0  0  0  0  0  0  0  0  0  0  0  0
   32.9718   27.1285   49.3361 H   0  0  0  0  0  0  0  0  0  0  0  0
   33.1863   25.9846   46.7050 H   0  0  0  0  0  0  0  0  0  0  0  0
   29.2543   24.8538   45.5757 H   0  0  0  0  0  0  0  0  0  0  0  0
   30.5294   28.0049   49.5839 H   0  0  0  0  0  0  0  0  0  0  0  0
   28.5823   29.8665   49.0827 H   0  0  0  0  0  0  0  0  0  0  0  0
   28.5013   29.4834   47.5775 H   0  0  0  0  0  0  0  0  0  0  0  0
   27.5793   26.7208   48.8381 H   0  0  0  0  0  0  0  0  0  0  0  0
   27.9856   27.6085   52.5285 H   0  0  0  0  0  0  0  0  0  0  0  0
   29.3556   27.1931   51.4639 H   0  0  0  0  0  0  0  0  0  0  0  0
   34.1486   27.6439   47.2194 H   0  0  0  0  0  0  0  0  0  0  0  0
   33.2985   29.2842   47.3316 H   0  0  0  0  0  0  0  0  0  0  0  0
   34.7379   27.6393   50.3008 H   0  0  0  0  0  0  0  0  0  0  0  0
   36.5521   28.6735   51.4963 H   0  0  0  0  0  0  0  0  0  0  0  0
   37.8238   30.7362   51.8413 H   0  0  0  0  0  0  0  0  0  0  0  0
   38.9426   30.3339   50.4948 H   0  0  0  0  0  0  0  0  0  0  0  0
   38.0640   31.9006   50.4948 H   0  0  0  0  0  0  0  0  0  0  0  0
   38.0732   29.6682   46.6621 H   0  0  0  0  0  0  0  0  0  0  0  0
   39.6123   30.5276   46.3872 H   0  0  0  0  0  0  0  0  0  0  0  0
  2  8  1  0
  3  2  1  0
  3  1  1  0
  4  3  2  0
  5  6  2  0
  5  4  1  0
  6  7  1  0
  7  2  2  0
  8 10  1  0
  9  8  1  0
  9 10  1  0
 10 11  1  0
 11 13  1  0
 12 11  2  0
 14  1  1  0
 14 17  1  0
 15 16  1  0
 16 17  2  0
 16 21  1  0
 17 18  1  0
 18 19  2  0
 20 19  1  0
 20 22  1  0
 21 20  2  0
 23 21  1  0
 24 25  2  0
 24 23  1  0
 26 24  1  0
  1 27  1  0
  1 28  1  0
  4 29  1  0
  6 30  1  0
  8 31  1  1
  9 32  1  0
  9 33  1  0
 10 34  1  6
 13 35  1  0
 13 36  1  0
 14 37  1  0
 14 38  1  0
 18 39  1  0
 19 40  1  0
 22 41  1  0
 22 42  1  0
 22 43  1  0
 26 44  1  0
 26 45  1  0
M  ISO  8  27   8  28   8  29  14  30  14  31  13  32  13  33  13  34  13
M  ISO  7  37   8  38   8  39  14  40  14  41   8  42   8  43   8
M  END
>  <minimizedAffinity>  (1) 
-6.31086779

>  <minimizedRMSD>  (1) 
0.757480979

$$$$
