
     RDKit          3D

 22 23  0  0  0  0  0  0  0  0999 V2000
   37.4230   31.3720   49.2340 C   0  0  0  0  0  0  0  0  0  0  0  0
   37.8130   32.6600   49.6100 C   0  0  0  0  0  0  0  0  0  0  0  0
   38.6670   33.2940   48.7400 C   0  0  0  0  0  0  0  0  0  0  0  0
   39.0840   32.6770   47.5970 N   0  0  0  0  0  0  0  0  0  0  0  0
   38.6740   31.4130   47.2730 C   0  0  0  0  0  0  0  0  0  0  0  0
   37.8200   30.7470   48.1180 N   0  0  0  0  0  0  0  0  0  0  0  0
   36.4600   30.6390   50.1360 C   0  0  0  0  0  0  0  0  0  0  0  0
   36.3750   29.2030   50.1930 C   0  0  0  0  0  0  0  0  0  0  0  0
   37.1680   29.8970   51.2780 C   0  0  0  0  0  0  0  0  0  0  0  0
   39.0900   30.7330   46.0540 C   0  0  0  0  0  0  0  0  0  0  0  0
   38.0960   30.9820   45.0310 N   0  0  0  0  0  0  0  0  0  0  0  0
   37.4608   33.1337   50.5382 H   0  0  0  0  0  0  0  0  0  0  0  0
   39.0186   34.3111   48.9679 H   0  0  0  0  0  0  0  0  0  0  0  0
   35.6717   31.3932   49.9950 H   0  0  0  0  0  0  0  0  0  0  0  0
   35.4160   28.7256   50.4428 H   0  0  0  0  0  0  0  0  0  0  0  0
   36.6024   28.3971   49.4797 H   0  0  0  0  0  0  0  0  0  0  0  0
   38.2653   29.8243   51.3028 H   0  0  0  0  0  0  0  0  0  0  0  0
   37.1588   29.9287   52.3775 H   0  0  0  0  0  0  0  0  0  0  0  0
   40.0658   31.1210   45.7264 H   0  0  0  0  0  0  0  0  0  0  0  0
   39.1827   29.6522   46.2364 H   0  0  0  0  0  0  0  0  0  0  0  0
   37.1948   31.2078   45.4757 H   0  0  0  0  0  0  0  0  0  0  0  0
   38.3974   31.7735   44.4448 H   0  0  0  0  0  0  0  0  0  0  0  0
  1  2  2  0
  1  7  1  0
  3  2  1  0
  4  3  2  0
  5  4  1  0
  5  6  2  0
  6  1  1  0
  7  8  1  0
  7  9  1  0
  8  9  1  0
 10  5  1  0
 11 10  1  0
  2 12  1  0
  3 13  1  0
  7 14  1  0
  8 15  1  0
  8 16  1  0
  9 17  1  0
  9 18  1  0
 10 19  1  0
 10 20  1  0
 11 21  1  0
 11 22  1  0
M  ISO  8  12  14  13  14  14  13  15  13  16  13  17  13  18  13  19   8
M  ISO  3  20   8  21   5  22   5
M  END
>  <minimizedAffinity>  (1) 
-4.30341673

>  <minimizedRMSD>  (1) 
0.123455517

$$$$
