
     RDKit          3D

 34 36  0  0  1  0  0  0  0  0999 V2000
   36.4840   29.8280   49.4200 N   0  0  0  0  0  0  0  0  0  0  0  0
   36.8950   31.1470   49.7530 C   0  0  1  0  0  0  0  0  0  0  0  0
   37.4500   31.0250   51.1660 C   0  0  0  0  0  0  0  0  0  0  0  0
   37.2960   29.5190   51.5000 C   0  0  0  0  0  0  0  0  0  0  0  0
   37.3900   28.9480   50.1050 C   0  0  0  0  0  0  0  0  0  0  0  0
   35.3920   29.4920   48.5820 C   0  0  0  0  0  0  0  0  0  0  0  0
   34.9400   30.3960   47.6390 C   0  0  0  0  0  0  0  0  0  0  0  0
   33.8890   30.0600   46.7850 C   0  0  0  0  0  0  0  0  0  0  0  0
   33.3560   28.8050   46.9490 N   0  0  0  0  0  0  0  0  0  0  0  0
   33.8090   27.9300   47.8780 C   0  0  0  0  0  0  0  0  0  0  0  0
   34.8350   28.2770   48.7000 N   0  0  0  0  0  0  0  0  0  0  0  0
   37.6580   31.9040   48.8170 C   0  0  0  0  0  0  0  0  0  0  0  0
   37.7160   33.1310   49.0490 O   0  0  0  0  0  0  0  0  0  0  0  0
   38.4350   31.7670   47.5910 C   0  0  0  0  0  0  0  0  0  0  0  0
   39.2550   32.7640   47.1210 C   0  0  0  0  0  0  0  0  0  0  0  0
   40.0550   32.7340   46.0030 C   0  0  0  0  0  0  0  0  0  0  0  0
   40.0380   31.5770   45.2640 C   0  0  0  0  0  0  0  0  0  0  0  0
   39.2540   30.5210   45.6450 C   0  0  0  0  0  0  0  0  0  0  0  0
   38.4960   30.6600   46.7760 C   0  0  0  0  0  0  0  0  0  0  0  0
   36.0292   31.8236   49.7009 H   0  0  0  0  0  0  0  0  0  0  0  0
   38.5073   31.3266   51.1983 H   0  0  0  0  0  0  0  0  0  0  0  0
   36.9270   31.6738   51.8840 H   0  0  0  0  0  0  0  0  0  0  0  0
   38.1076   29.1566   52.1481 H   0  0  0  0  0  0  0  0  0  0  0  0
   36.3856   29.2519   52.0567 H   0  0  0  0  0  0  0  0  0  0  0  0
   37.0516   27.9020   50.0673 H   0  0  0  0  0  0  0  0  0  0  0  0
   38.4062   28.9077   49.6859 H   0  0  0  0  0  0  0  0  0  0  0  0
   35.4119   31.3866   47.5614 H   0  0  0  0  0  0  0  0  0  0  0  0
   33.5097   30.7591   46.0252 H   0  0  0  0  0  0  0  0  0  0  0  0
   33.3459   26.9363   47.9678 H   0  0  0  0  0  0  0  0  0  0  0  0
   39.2738   33.6946   47.7072 H   0  0  0  0  0  0  0  0  0  0  0  0
   40.6775   33.5940   45.7151 H   0  0  0  0  0  0  0  0  0  0  0  0
   40.6587   31.4978   44.3593 H   0  0  0  0  0  0  0  0  0  0  0  0
   39.2340   29.5896   45.0600 H   0  0  0  0  0  0  0  0  0  0  0  0
   37.8727   29.8001   47.0624 H   0  0  0  0  0  0  0  0  0  0  0  0
  1  2  1  0
  1  5  1  0
  2  3  1  0
  3  4  1  0
  5  4  1  0
  6 11  1  0
  6  1  1  0
  7  6  2  0
  8  9  2  0
  8  7  1  0
  9 10  1  0
 10 11  2  0
 12 13  2  0
 12  2  1  0
 14 12  1  0
 15 14  2  0
 16 15  1  0
 17 18  1  0
 17 16  2  0
 18 19  2  0
 19 14  1  0
  2 20  1  1
  3 21  1  0
  3 22  1  0
  4 23  1  0
  4 24  1  0
  5 25  1  0
  5 26  1  0
  7 27  1  0
  8 28  1  0
 10 29  1  0
 15 30  1  0
 16 31  1  0
 17 32  1  0
 18 33  1  0
 19 34  1  0
M  ISO  8  20  13  21  13  22  13  23  13  24  13  25  13  26  13  27  14
M  ISO  7  28  14  29  14  30  14  31  14  32  14  33  14  34  14
M  END
>  <minimizedAffinity>  (1) 
-5.84160805

>  <minimizedRMSD>  (1) 
1.92819583

$$$$
