
     RDKit          3D

 36 38  0  0  1  0  0  0  0  0999 V2000
   34.3450   29.1520   48.1200 C   0  0  0  0  0  0  0  0  0  0  0  0
   34.1190   29.9790   46.9980 C   0  0  0  0  0  0  0  0  0  0  0  0
   32.9050   29.8260   46.3280 C   0  0  0  0  0  0  0  0  0  0  0  0
   32.0550   28.8890   46.8250 N   0  0  0  0  0  0  0  0  0  0  0  0
   32.2780   28.1150   47.8820 C   0  0  0  0  0  0  0  0  0  0  0  0
   33.4540   28.2600   48.5360 N   0  0  0  0  0  0  0  0  0  0  0  0
   35.6120   29.3370   48.7860 N   0  0  0  0  0  0  0  0  0  0  0  0
   36.7750   30.0160   48.3060 C   0  0  0  0  0  0  0  0  0  0  0  0
   37.4190   30.5200   49.5930 C   0  0  2  0  0  0  0  0  0  0  0  0
   36.4640   30.1450   50.7130 C   0  0  0  0  0  0  0  0  0  0  0  0
   35.9400   28.8490   50.1050 C   0  0  0  0  0  0  0  0  0  0  0  0
   37.7260   31.9810   49.5450 C   0  0  0  0  0  0  0  0  0  0  0  0
   36.6630   32.6170   50.1600 F   0  0  0  0  0  0  0  0  0  0  0  0
   37.7030   32.3700   48.2260 F   0  0  0  0  0  0  0  0  0  0  0  0
   38.9150   32.3150   50.1130 F   0  0  0  0  0  0  0  0  0  0  0  0
   31.1230   26.9090   48.4460 S   0  0  0  0  0  0  0  0  0  0  0  0
   29.7000   27.6330   49.1850 C   0  0  0  0  0  0  0  0  0  0  0  0
   28.8950   28.7040   48.8820 C   0  0  0  0  0  0  0  0  0  0  0  0
   27.8150   29.0560   49.6570 C   0  0  0  0  0  0  0  0  0  0  0  0
   27.4770   28.3480   50.7920 C   0  0  0  0  0  0  0  0  0  0  0  0
   28.2550   27.2630   51.1380 C   0  0  0  0  0  0  0  0  0  0  0  0
   29.3530   26.9140   50.3400 C   0  0  0  0  0  0  0  0  0  0  0  0
   34.8684   30.7128   46.6663 H   0  0  0  0  0  0  0  0  0  0  0  0
   32.6495   30.4308   45.4454 H   0  0  0  0  0  0  0  0  0  0  0  0
   37.4444   29.3271   47.7700 H   0  0  0  0  0  0  0  0  0  0  0  0
   36.5491   30.8167   47.5865 H   0  0  0  0  0  0  0  0  0  0  0  0
   38.4023   30.0540   49.7544 H   0  0  0  0  0  0  0  0  0  0  0  0
   36.9838   29.9789   51.6681 H   0  0  0  0  0  0  0  0  0  0  0  0
   35.7079   30.8978   50.9805 H   0  0  0  0  0  0  0  0  0  0  0  0
   35.0546   28.4716   50.6375 H   0  0  0  0  0  0  0  0  0  0  0  0
   36.6345   27.9965   50.1357 H   0  0  0  0  0  0  0  0  0  0  0  0
   29.1225   29.3017   47.9870 H   0  0  0  0  0  0  0  0  0  0  0  0
   27.2053   29.9237   49.3648 H   0  0  0  0  0  0  0  0  0  0  0  0
   26.6111   28.6408   51.4039 H   0  0  0  0  0  0  0  0  0  0  0  0
   28.0149   26.6745   52.0358 H   0  0  0  0  0  0  0  0  0  0  0  0
   29.9644   26.0463   50.6287 H   0  0  0  0  0  0  0  0  0  0  0  0
  1  6  1  0
  1  7  1  0
  2  1  2  0
  3  4  2  0
  3  2  1  0
  4  5  1  0
  5 16  1  0
  5  6  2  0
  7 11  1  0
  8  7  1  0
  8  9  1  0
  9 10  1  0
 11 10  1  0
 12  9  1  0
 12 15  1  0
 12 13  1  0
 14 12  1  0
 16 17  1  0
 17 22  1  0
 18 17  2  0
 18 19  1  0
 19 20  2  0
 20 21  1  0
 22 21  2  0
  2 23  1  0
  3 24  1  0
  8 25  1  0
  8 26  1  0
  9 27  1  1
 10 28  1  0
 10 29  1  0
 11 30  1  0
 11 31  1  0
 18 32  1  0
 19 33  1  0
 20 34  1  0
 21 35  1  0
 22 36  1  0
M  ISO  8  23  14  24  14  25  13  26  13  27  13  28  13  29  13  30  13
M  ISO  6  31  13  32  14  33  14  34  14  35  14  36  14
M  END
>  <minimizedAffinity>  (1) 
-6.64796209

>  <minimizedRMSD>  (1) 
2.48405457

$$$$
