
     RDKit          3D

 39 41  0  0  0  0  0  0  0  0999 V2000
   36.5970   29.8180   45.2690 F   0  0  0  0  0  0  0  0  0  0  0  0
   35.2690   30.0200   45.4570 C   0  0  0  0  0  0  0  0  0  0  0  0
   34.4200   30.5040   44.4780 C   0  0  0  0  0  0  0  0  0  0  0  0
   33.0920   30.6770   44.7580 C   0  0  0  0  0  0  0  0  0  0  0  0
   32.5330   30.3870   45.9990 C   0  0  0  0  0  0  0  0  0  0  0  0
   33.4020   29.8980   46.9800 C   0  0  0  0  0  0  0  0  0  0  0  0
   34.7560   29.7140   46.7180 C   0  0  0  0  0  0  0  0  0  0  0  0
   36.0640   32.3810   41.8040 C   0  0  0  0  0  0  0  0  0  0  0  0
   36.0760   31.5140   40.7270 C   0  0  0  0  0  0  0  0  0  0  0  0
   35.5070   30.2620   40.9280 C   0  0  0  0  0  0  0  0  0  0  0  0
   34.9740   29.9360   42.1350 N   0  0  0  0  0  0  0  0  0  0  0  0
   34.9810   30.8150   43.1700 C   0  0  0  0  0  0  0  0  0  0  0  0
   35.5310   32.0440   42.9980 N   0  0  0  0  0  0  0  0  0  0  0  0
   35.5710   29.2400   47.6870 O   0  0  0  0  0  0  0  0  0  0  0  0
   34.5850   29.5300   50.0670 O   0  0  0  0  0  0  0  0  0  0  0  0
   35.8310   29.8390   49.2410 P   0  0  2  0  0  0  0  0  0  0  0  0
   36.0820   31.4960   49.3330 O   0  0  0  0  0  0  0  0  0  0  0  0
   37.2400   32.0720   48.8510 C   0  0  0  0  0  0  0  0  0  0  0  0
   37.8310   31.5560   47.6910 C   0  0  0  0  0  0  0  0  0  0  0  0
   39.0020   32.1230   47.1830 C   0  0  0  0  0  0  0  0  0  0  0  0
   39.5600   33.2030   47.8570 C   0  0  0  0  0  0  0  0  0  0  0  0
   39.0170   33.7520   49.0060 C   0  0  0  0  0  0  0  0  0  0  0  0
   37.8630   33.1450   49.4510 C   0  0  0  0  0  0  0  0  0  0  0  0
   37.1220   29.0220   49.9910 O   0  0  0  0  0  0  0  0  0  0  0  0
   37.3020   29.4020   51.3040 C   0  0  0  0  0  0  0  0  0  0  0  0
   36.1190   29.6080   51.9590 F   0  0  0  0  0  0  0  0  0  0  0  0
   37.9730   28.3770   51.9260 F   0  0  0  0  0  0  0  0  0  0  0  0
   38.0800   30.5550   51.3740 F   0  0  0  0  0  0  0  0  0  0  0  0
   32.4352   31.0635   43.9648 H   0  0  0  0  0  0  0  0  0  0  0  0
   31.4614   30.5349   46.1985 H   0  0  0  0  0  0  0  0  0  0  0  0
   33.0074   29.6543   47.9775 H   0  0  0  0  0  0  0  0  0  0  0  0
   36.5047   33.3817   41.6838 H   0  0  0  0  0  0  0  0  0  0  0  0
   36.5139   31.8008   39.7596 H   0  0  0  0  0  0  0  0  0  0  0  0
   35.4879   29.5312   40.1060 H   0  0  0  0  0  0  0  0  0  0  0  0
   37.3704   30.6994   47.1771 H   0  0  0  0  0  0  0  0  0  0  0  0
   39.4713   31.7245   46.2715 H   0  0  0  0  0  0  0  0  0  0  0  0
   40.4835   33.6456   47.4555 H   0  0  0  0  0  0  0  0  0  0  0  0
   39.4726   34.6084   49.5247 H   0  0  0  0  0  0  0  0  0  0  0  0
   37.3997   33.5511   50.3623 H   0  0  0  0  0  0  0  0  0  0  0  0
  1  2  1  0
  2  7  2  0
  3  4  2  0
  3  2  1  0
  4  5  1  0
  5  6  2  0
  7  6  1  0
  7 14  1  0
  8 13  2  0
  9 10  2  0
  9  8  1  0
 10 11  1  0
 11 12  2  0
 12  3  1  0
 13 12  1  0
 14 16  1  0
 16 17  1  0
 16 24  1  0
 16 15  2  0
 18 17  1  0
 18 23  1  0
 19 18  2  0
 20 19  1  0
 20 21  2  0
 21 22  1  0
 22 23  2  0
 24 25  1  0
 25 28  1  0
 25 27  1  0
 25 26  1  0
  4 29  1  0
  5 30  1  0
  6 31  1  0
  8 32  1  0
  9 33  1  0
 10 34  1  0
 19 35  1  0
 20 36  1  0
 21 37  1  0
 22 38  1  0
 23 39  1  0
M  ISO  8  29  14  30  14  31  14  32  14  33  14  34  14  35  14  36  14
M  ISO  3  37  14  38  14  39  14
M  END
>  <minimizedAffinity>  (1) 
-5.47034979

>  <minimizedRMSD>  (1) 
3.79302716

$$$$
