
     RDKit          3D

 27 28  0  0  0  0  0  0  0  0999 V2000
   39.0470   30.2990   45.0560 C   0  0  0  0  0  0  0  0  0  0  0  0
   38.4190   30.9830   43.8530 C   0  0  0  0  0  0  0  0  0  0  0  0
   34.8510   30.1290   44.7330 C   0  0  0  0  0  0  0  0  0  0  0  0
   36.2540   30.1030   44.7900 C   0  0  0  0  0  0  0  0  0  0  0  0
   36.9520   30.9070   43.9200 C   0  0  0  0  0  0  0  0  0  0  0  0
   36.2430   31.6820   43.0550 N   0  0  0  0  0  0  0  0  0  0  0  0
   34.8930   31.7000   43.0070 C   0  0  0  0  0  0  0  0  0  0  0  0
   34.2010   30.9150   43.8570 N   0  0  0  0  0  0  0  0  0  0  0  0
   39.6110   31.5100   46.2500 S   0  0  0  0  0  0  0  0  0  0  0  0
   38.5920   31.6580   47.6880 C   0  0  0  0  0  0  0  0  0  0  0  0
   37.8440   30.5610   48.0700 C   0  0  0  0  0  0  0  0  0  0  0  0
   37.0140   30.5940   49.1950 C   0  0  0  0  0  0  0  0  0  0  0  0
   36.9280   31.7530   49.9620 C   0  0  0  0  0  0  0  0  0  0  0  0
   37.6670   32.8570   49.5980 C   0  0  0  0  0  0  0  0  0  0  0  0
   38.4640   32.7830   48.4930 C   0  0  0  0  0  0  0  0  0  0  0  0
   39.9037   29.6953   44.7217 H   0  0  0  0  0  0  0  0  0  0  0  0
   38.2911   29.6577   45.5328 H   0  0  0  0  0  0  0  0  0  0  0  0
   38.7648   30.4870   42.9341 H   0  0  0  0  0  0  0  0  0  0  0  0
   38.7189   32.0413   43.8510 H   0  0  0  0  0  0  0  0  0  0  0  0
   34.2721   29.4933   45.4191 H   0  0  0  0  0  0  0  0  0  0  0  0
   36.7793   29.4581   45.5098 H   0  0  0  0  0  0  0  0  0  0  0  0
   34.3674   32.3441   42.2867 H   0  0  0  0  0  0  0  0  0  0  0  0
   37.9028   29.6383   47.4741 H   0  0  0  0  0  0  0  0  0  0  0  0
   36.4294   29.7049   49.4739 H   0  0  0  0  0  0  0  0  0  0  0  0
   36.2774   31.7866   50.8484 H   0  0  0  0  0  0  0  0  0  0  0  0
   37.6154   33.7835   50.1887 H   0  0  0  0  0  0  0  0  0  0  0  0
   39.0455   33.6761   48.2206 H   0  0  0  0  0  0  0  0  0  0  0  0
  1  9  1  0
  2  5  1  0
  2  1  1  0
  3  4  2  0
  5  4  1  0
  6  5  2  0
  7  6  1  0
  7  8  2  0
  8  3  1  0
  9 10  1  0
 10 11  2  0
 10 15  1  0
 11 12  1  0
 12 13  2  0
 14 13  1  0
 15 14  2  0
  1 16  1  0
  1 17  1  0
  2 18  1  0
  2 19  1  0
  3 20  1  0
  4 21  1  0
  7 22  1  0
 11 23  1  0
 12 24  1  0
 13 25  1  0
 14 26  1  0
 15 27  1  0
M  ISO  8  16   8  17   8  18   8  19   8  20  14  21  14  22  14  23  14
M  ISO  4  24  14  25  14  26  14  27  14
M  END
>  <minimizedAffinity>  (1) 
-4.10333061

>  <minimizedRMSD>  (1) 
4.98930693

$$$$
