
     RDKit          3D

 33 35  0  0  0  0  0  0  0  0999 V2000
   33.5680   28.6460   47.5320 C   0  0  0  0  0  0  0  0  0  0  0  0
   34.7800   29.0800   48.0850 C   0  0  0  0  0  0  0  0  0  0  0  0
   35.5520   29.7990   47.2210 C   0  0  0  0  0  0  0  0  0  0  0  0
   35.1740   30.0680   45.9420 N   0  0  0  0  0  0  0  0  0  0  0  0
   34.0030   29.6360   45.4430 C   0  0  0  0  0  0  0  0  0  0  0  0
   33.1930   28.9210   46.2380 N   0  0  0  0  0  0  0  0  0  0  0  0
   32.6330   27.8920   48.4640 C   0  0  0  0  0  0  0  0  0  0  0  0
   31.2840   27.6310   48.1150 C   0  0  0  0  0  0  0  0  0  0  0  0
   32.2660   26.5220   47.7950 C   0  0  0  0  0  0  0  0  0  0  0  0
   35.2160   28.7640   49.4230 C   0  0  0  0  0  0  0  0  0  0  0  0
   36.6020   29.0090   49.8280 C   0  0  0  0  0  0  0  0  0  0  0  0
   37.2780   30.2010   49.2920 C   0  0  0  0  0  0  0  0  0  0  0  0
   38.1040   30.5350   48.2490 C   0  0  0  0  0  0  0  0  0  0  0  0
   38.5640   31.7840   47.9600 C   0  0  0  0  0  0  0  0  0  0  0  0
   38.2180   32.8510   48.7360 C   0  0  0  0  0  0  0  0  0  0  0  0
   37.3940   32.6260   49.8090 C   0  0  0  0  0  0  0  0  0  0  0  0
   36.9550   31.3240   50.0520 C   0  0  0  0  0  0  0  0  0  0  0  0
   36.5226   30.1780   47.5734 H   0  0  0  0  0  0  0  0  0  0  0  0
   33.7154   29.8637   44.4060 H   0  0  0  0  0  0  0  0  0  0  0  0
   33.0474   28.3000   49.3977 H   0  0  0  0  0  0  0  0  0  0  0  0
   30.5427   27.4781   48.9132 H   0  0  0  0  0  0  0  0  0  0  0  0
   30.5466   28.1780   47.5091 H   0  0  0  0  0  0  0  0  0  0  0  0
   32.2735   25.5895   48.3784 H   0  0  0  0  0  0  0  0  0  0  0  0
   32.5748   25.9475   46.9092 H   0  0  0  0  0  0  0  0  0  0  0  0
   34.5798   29.3442   50.1076 H   0  0  0  0  0  0  0  0  0  0  0  0
   35.1371   27.6674   49.4576 H   0  0  0  0  0  0  0  0  0  0  0  0
   36.6124   29.0926   50.9248 H   0  0  0  0  0  0  0  0  0  0  0  0
   37.1646   28.1621   49.4082 H   0  0  0  0  0  0  0  0  0  0  0  0
   38.4244   29.7188   47.5848 H   0  0  0  0  0  0  0  0  0  0  0  0
   39.2218   31.9339   47.0912 H   0  0  0  0  0  0  0  0  0  0  0  0
   38.5886   33.8613   48.5081 H   0  0  0  0  0  0  0  0  0  0  0  0
   37.0858   33.4542   50.4640 H   0  0  0  0  0  0  0  0  0  0  0  0
   36.2962   31.1703   50.9194 H   0  0  0  0  0  0  0  0  0  0  0  0
  1  2  1  0
  1  7  1  0
  2 10  1  0
  3  2  2  0
  4  3  1  0
  5  4  2  0
  5  6  1  0
  6  1  2  0
  8  7  1  0
  9  8  1  0
  9  7  1  0
 10 11  1  0
 12 11  1  0
 12 17  1  0
 13 12  2  0
 14 13  1  0
 14 15  2  0
 15 16  1  0
 16 17  2  0
  3 18  1  0
  5 19  1  0
  7 20  1  0
  8 21  1  0
  8 22  1  0
  9 23  1  0
  9 24  1  0
 10 25  1  0
 10 26  1  0
 11 27  1  0
 11 28  1  0
 13 29  1  0
 14 30  1  0
 15 31  1  0
 16 32  1  0
 17 33  1  0
M  ISO  8  18  14  19  14  20  13  21  13  22  13  23  13  24  13  25   8
M  ISO  8  26   8  27   8  28   8  29  14  30  14  31  14  32  14  33  14
M  END
>  <minimizedAffinity>  (1) 
-5.33075476

>  <minimizedRMSD>  (1) 
4.97139835

$$$$
