
     RDKit          3D

 32 34  0  0  0  0  0  0  0  0999 V2000
   38.7100   31.7400   47.9290 C   0  0  0  0  0  0  0  0  0  0  0  0
   38.1050   31.9970   49.1420 C   0  0  0  0  0  0  0  0  0  0  0  0
   38.3990   33.2570   49.6710 C   0  0  0  0  0  0  0  0  0  0  0  0
   39.2340   34.1600   49.0130 C   0  0  0  0  0  0  0  0  0  0  0  0
   39.7950   33.7960   47.7850 C   0  0  0  0  0  0  0  0  0  0  0  0
   39.5270   32.5580   47.2320 C   0  0  0  0  0  0  0  0  0  0  0  0
   35.9280   30.8760   49.3480 C   0  0  0  0  0  0  0  0  0  0  0  0
   37.2420   31.0750   49.8320 C   0  0  0  0  0  0  0  0  0  0  0  0
   37.6550   30.3730   50.9560 C   0  0  0  0  0  0  0  0  0  0  0  0
   36.7550   29.5210   51.5370 N   0  0  0  0  0  0  0  0  0  0  0  0
   35.4980   29.3460   51.0540 C   0  0  0  0  0  0  0  0  0  0  0  0
   35.0860   30.0290   49.9540 N   0  0  0  0  0  0  0  0  0  0  0  0
   38.4680   30.4950   47.3250 O   0  0  0  0  0  0  0  0  0  0  0  0
   40.1080   32.2630   46.0280 O   0  0  0  0  0  0  0  0  0  0  0  0
   39.5420   32.2130   44.7910 C   0  0  0  0  0  0  0  0  0  0  0  0
   38.3250   32.6600   44.3140 C   0  0  0  0  0  0  0  0  0  0  0  0
   37.9710   32.4890   42.9910 C   0  0  0  0  0  0  0  0  0  0  0  0
   38.8010   31.8700   42.0820 C   0  0  0  0  0  0  0  0  0  0  0  0
   40.0220   31.4130   42.5350 C   0  0  0  0  0  0  0  0  0  0  0  0
   40.3940   31.5800   43.8740 C   0  0  0  0  0  0  0  0  0  0  0  0
   37.9580   33.5455   50.6366 H   0  0  0  0  0  0  0  0  0  0  0  0
   39.4482   35.1447   49.4540 H   0  0  0  0  0  0  0  0  0  0  0  0
   40.4541   34.4997   47.2555 H   0  0  0  0  0  0  0  0  0  0  0  0
   35.5914   31.4271   48.4575 H   0  0  0  0  0  0  0  0  0  0  0  0
   38.6686   30.4969   51.3649 H   0  0  0  0  0  0  0  0  0  0  0  0
   34.8106   28.6486   51.5552 H   0  0  0  0  0  0  0  0  0  0  0  0
   38.8862   30.2776   46.4544 H   0  0  0  0  0  0  0  0  0  0  0  0
   37.6262   33.1607   45.0003 H   0  0  0  0  0  0  0  0  0  0  0  0
   36.9928   32.8596   42.6507 H   0  0  0  0  0  0  0  0  0  0  0  0
   38.5008   31.7443   41.0312 H   0  0  0  0  0  0  0  0  0  0  0  0
   40.7094   30.9127   41.8370 H   0  0  0  0  0  0  0  0  0  0  0  0
   41.3721   31.2081   44.2133 H   0  0  0  0  0  0  0  0  0  0  0  0
  1  2  2  0
  2  3  1  0
  2  8  1  0
  4  3  2  0
  5  4  1  0
  6  5  2  0
  6  1  1  0
  7  8  2  0
  7 12  1  0
  8  9  1  0
  9 10  2  0
 11 10  1  0
 12 11  2  0
 13  1  1  0
 14  6  1  0
 15 14  1  0
 16 15  2  0
 17 16  1  0
 18 19  1  0
 18 17  2  0
 19 20  2  0
 20 15  1  0
  3 21  1  0
  4 22  1  0
  5 23  1  0
  7 24  1  0
  9 25  1  0
 11 26  1  0
 13 27  1  0
 16 28  1  0
 17 29  1  0
 18 30  1  0
 19 31  1  0
 20 32  1  0
M  ISO  8  21  14  22  14  23  14  24  14  25  14  26  14  27   3  28  14
M  ISO  4  29  14  30  14  31  14  32  14
M  END
>  <minimizedAffinity>  (1) 
-6.27686405

>  <minimizedRMSD>  (1) 
2.25082016

$$$$
