
     RDKit          3D

 48 51  0  0  0  0  0  0  0  0999 V2000
   36.7570   30.2420   49.9010 S   0  0  0  0  0  0  0  0  0  0  0  0
   39.0750   32.8590   47.9000 C   0  0  0  0  0  0  0  0  0  0  0  0
   39.3400   32.1540   46.7320 C   0  0  0  0  0  0  0  0  0  0  0  0
   38.7890   30.9020   46.6160 C   0  0  0  0  0  0  0  0  0  0  0  0
   38.0270   30.4320   47.6410 N   0  0  0  0  0  0  0  0  0  0  0  0
   37.8000   31.1210   48.7230 C   0  0  0  0  0  0  0  0  0  0  0  0
   38.3210   32.3840   48.9050 N   0  0  0  0  0  0  0  0  0  0  0  0
   40.1180   32.7450   45.7930 O   0  0  0  0  0  0  0  0  0  0  0  0
   40.1060   32.2540   44.4950 C   0  0  0  0  0  0  0  0  0  0  0  0
   40.6500   31.0820   44.0140 C   0  0  0  0  0  0  0  0  0  0  0  0
   40.5410   30.7680   42.7150 C   0  0  0  0  0  0  0  0  0  0  0  0
   39.8910   31.6160   41.8850 C   0  0  0  0  0  0  0  0  0  0  0  0
   39.3360   32.8100   42.3680 C   0  0  0  0  0  0  0  0  0  0  0  0
   39.4610   33.1010   43.6780 N   0  0  0  0  0  0  0  0  0  0  0  0
   38.6060   33.7570   41.4240 C   0  0  0  0  0  0  0  0  0  0  0  0
   35.0760   30.8190   49.5460 C   0  0  0  0  0  0  0  0  0  0  0  0
   33.5770   28.6340   50.2700 F   0  0  0  0  0  0  0  0  0  0  0  0
   33.7970   28.8730   48.9460 C   0  0  0  0  0  0  0  0  0  0  0  0
   34.5390   29.9450   48.4630 C   0  0  0  0  0  0  0  0  0  0  0  0
   34.7270   30.1350   47.1240 C   0  0  0  0  0  0  0  0  0  0  0  0
   34.1750   29.2500   46.1940 C   0  0  0  0  0  0  0  0  0  0  0  0
   33.4310   28.1740   46.6600 C   0  0  0  0  0  0  0  0  0  0  0  0
   33.2520   27.9990   48.0110 C   0  0  0  0  0  0  0  0  0  0  0  0
   32.4990   26.9070   48.4150 O   0  0  0  0  0  0  0  0  0  0  0  0
   31.1190   27.0270   48.3640 C   0  0  0  0  0  0  0  0  0  0  0  0
   30.3610   26.5090   47.3340 C   0  0  0  0  0  0  0  0  0  0  0  0
   28.9920   26.6900   47.3900 C   0  0  0  0  0  0  0  0  0  0  0  0
   28.4090   27.3720   48.4510 C   0  0  0  0  0  0  0  0  0  0  0  0
   29.1820   27.8880   49.4810 C   0  0  0  0  0  0  0  0  0  0  0  0
   30.5570   27.7050   49.4230 C   0  0  0  0  0  0  0  0  0  0  0  0
   39.5079   33.8645   48.0077 H   0  0  0  0  0  0  0  0  0  0  0  0
   38.9594   30.2931   45.7159 H   0  0  0  0  0  0  0  0  0  0  0  0
   41.1761   30.4011   44.6993 H   0  0  0  0  0  0  0  0  0  0  0  0
   40.9743   29.8334   42.3293 H   0  0  0  0  0  0  0  0  0  0  0  0
   39.7966   31.3658   40.8180 H   0  0  0  0  0  0  0  0  0  0  0  0
   38.0380   34.4939   42.0108 H   0  0  0  0  0  0  0  0  0  0  0  0
   39.3378   34.2788   40.7898 H   0  0  0  0  0  0  0  0  0  0  0  0
   37.9151   33.1821   40.7898 H   0  0  0  0  0  0  0  0  0  0  0  0
   34.4491   30.7351   50.4459 H   0  0  0  0  0  0  0  0  0  0  0  0
   35.0786   31.8744   49.2360 H   0  0  0  0  0  0  0  0  0  0  0  0
   35.3190   30.9934   46.7738 H   0  0  0  0  0  0  0  0  0  0  0  0
   34.3267   29.4025   45.1152 H   0  0  0  0  0  0  0  0  0  0  0  0
   32.9857   27.4629   45.9486 H   0  0  0  0  0  0  0  0  0  0  0  0
   30.8301   25.9706   46.4973 H   0  0  0  0  0  0  0  0  0  0  0  0
   28.3570   26.2898   46.5859 H   0  0  0  0  0  0  0  0  0  0  0  0
   27.3173   27.5049   48.4746 H   0  0  0  0  0  0  0  0  0  0  0  0
   28.7184   28.4271   50.3203 H   0  0  0  0  0  0  0  0  0  0  0  0
   31.1983   28.1019   50.2237 H   0  0  0  0  0  0  0  0  0  0  0  0
  2  7  2  0
  3  2  1  0
  4  3  2  0
  4  5  1  0
  5  6  2  0
  6  7  1  0
  6  1  1  0
  8  3  1  0
  9  8  1  0
 10  9  2  0
 11 10  1  0
 12 13  1  0
 12 11  2  0
 13 14  2  0
 14  9  1  0
 15 13  1  0
 16  1  1  0
 18 17  1  0
 19 18  2  0
 19 16  1  0
 20 19  1  0
 21 22  1  0
 21 20  2  0
 22 23  2  0
 23 24  1  0
 23 18  1  0
 25 24  1  0
 25 30  2  0
 26 27  2  0
 26 25  1  0
 27 28  1  0
 28 29  2  0
 30 29  1  0
  2 31  1  0
  4 32  1  0
 10 33  1  0
 11 34  1  0
 12 35  1  0
 15 36  1  0
 15 37  1  0
 15 38  1  0
 16 39  1  0
 16 40  1  0
 20 41  1  0
 21 42  1  0
 22 43  1  0
 26 44  1  0
 27 45  1  0
 28 46  1  0
 29 47  1  0
 30 48  1  0
M  ISO  8  31  14  32  14  33  14  34  14  35  14  36   8  37   8  38   8
M  ISO  8  39   8  40   8  41  14  42  14  43  14  44  14  45  14  46  14
M  ISO  2  47  14  48  14
M  END
>  <minimizedAffinity>  (1) 
-6.39916611

>  <minimizedRMSD>  (1) 
2.49603319

$$$$
