
     RDKit          3D

 36 39  0  0  0  0  0  0  0  0999 V2000
   34.9450   29.4110   49.4830 C   0  0  0  0  0  0  0  0  0  0  0  0
   35.4100   30.0430   48.2920 C   0  0  0  0  0  0  0  0  0  0  0  0
   34.8480   29.6310   47.0870 C   0  0  0  0  0  0  0  0  0  0  0  0
   33.9050   28.6690   47.1050 N   0  0  0  0  0  0  0  0  0  0  0  0
   33.4780   28.0820   48.2550 C   0  0  0  0  0  0  0  0  0  0  0  0
   34.0040   28.4590   49.4410 N   0  0  0  0  0  0  0  0  0  0  0  0
   36.5100   31.6300   49.7680 C   0  0  0  0  0  0  0  0  0  0  0  0
   36.4220   31.0440   48.5190 C   0  0  0  0  0  0  0  0  0  0  0  0
   37.3330   31.4570   47.5480 C   0  0  0  0  0  0  0  0  0  0  0  0
   38.2790   32.4340   47.8840 C   0  0  0  0  0  0  0  0  0  0  0  0
   39.2640   33.0250   47.1840 N   0  0  0  0  0  0  0  0  0  0  0  0
   39.9010   33.9060   47.9570 C   0  0  0  0  0  0  0  0  0  0  0  0
   39.3210   33.8900   49.1850 N   0  0  0  0  0  0  0  0  0  0  0  0
   38.3350   32.9910   49.1270 C   0  0  0  0  0  0  0  0  0  0  0  0
   37.4440   32.5880   50.0840 C   0  0  0  0  0  0  0  0  0  0  0  0
   32.4230   27.0220   48.1600 C   0  0  0  0  0  0  0  0  0  0  0  0
   31.0610   27.6370   48.3260 C   0  0  0  0  0  0  0  0  0  0  0  0
   30.4670   27.6210   49.5900 C   0  0  0  0  0  0  0  0  0  0  0  0
   29.2300   28.1470   49.8730 C   0  0  0  0  0  0  0  0  0  0  0  0
   28.5320   28.7290   48.8370 C   0  0  0  0  0  0  0  0  0  0  0  0
   29.0950   28.7590   47.5780 C   0  0  0  0  0  0  0  0  0  0  0  0
   30.3380   28.2310   47.2890 C   0  0  0  0  0  0  0  0  0  0  0  0
   35.3669   29.7109   50.4536 H   0  0  0  0  0  0  0  0  0  0  0  0
   35.1682   30.0830   46.1367 H   0  0  0  0  0  0  0  0  0  0  0  0
   35.7990   31.3148   50.5459 H   0  0  0  0  0  0  0  0  0  0  0  0
   37.3095   31.0239   46.5371 H   0  0  0  0  0  0  0  0  0  0  0  0
   39.4921   32.8270   46.1993 H   0  0  0  0  0  0  0  0  0  0  0  0
   40.7494   34.5365   47.6525 H   0  0  0  0  0  0  0  0  0  0  0  0
   37.4746   33.0249   51.0931 H   0  0  0  0  0  0  0  0  0  0  0  0
   32.4848   26.5334   47.1764 H   0  0  0  0  0  0  0  0  0  0  0  0
   32.5838   26.2796   48.9556 H   0  0  0  0  0  0  0  0  0  0  0  0
   31.0275   27.1559   50.4143 H   0  0  0  0  0  0  0  0  0  0  0  0
   28.8118   28.1052   50.8895 H   0  0  0  0  0  0  0  0  0  0  0  0
   27.5372   29.1647   49.0120 H   0  0  0  0  0  0  0  0  0  0  0  0
   28.5246   29.2275   46.7624 H   0  0  0  0  0  0  0  0  0  0  0  0
   30.7478   28.2770   46.2692 H   0  0  0  0  0  0  0  0  0  0  0  0
  2  8  1  0
  2  1  2  0
  3  4  2  0
  3  2  1  0
  4  5  1  0
  5  6  2  0
  6  1  1  0
  7 15  2  0
  8  7  1  0
  9 10  1  0
  9  8  2  0
 10 14  2  0
 11 10  1  0
 11 12  1  0
 12 13  2  0
 14 13  1  0
 14 15  1  0
 16  5  1  0
 16 17  1  0
 17 18  2  0
 18 19  1  0
 20 19  2  0
 21 20  1  0
 22 21  2  0
 22 17  1  0
  1 23  1  0
  3 24  1  0
  7 25  1  0
  9 26  1  0
 11 27  1  0
 12 28  1  0
 15 29  1  0
 16 30  1  0
 16 31  1  0
 18 32  1  0
 19 33  1  0
 20 34  1  0
 21 35  1  0
 22 36  1  0
M  ISO  8  23  14  24  14  25  14  26  14  27   9  28  14  29  14  30   8
M  ISO  6  31   8  32  14  33  14  34  14  35  14  36  14
M  END
>  <minimizedAffinity>  (1) 
-6.50382566

>  <minimizedRMSD>  (1) 
1.80887854

$$$$
