
     RDKit          3D

 25 26  0  0  0  0  0  0  0  0999 V2000
   35.1440   28.8070   50.0280 C   0  0  0  0  0  0  0  0  0  0  0  0
   36.2850   29.6380   49.8450 C   0  0  0  0  0  0  0  0  0  0  0  0
   36.3070   30.5150   48.7710 C   0  0  0  0  0  0  0  0  0  0  0  0
   35.2090   30.5280   47.9410 N   0  0  0  0  0  0  0  0  0  0  0  0
   34.1410   29.7360   48.1320 C   0  0  0  0  0  0  0  0  0  0  0  0
   34.1060   28.8890   49.1560 N   0  0  0  0  0  0  0  0  0  0  0  0
   33.1270   29.9200   47.1700 N   0  0  0  0  0  0  0  0  0  0  0  0
   37.3600   31.4610   48.4700 C   0  0  0  0  0  0  0  0  0  0  0  0
   38.3690   31.5800   47.5540 C   0  0  0  0  0  0  0  0  0  0  0  0
   39.2740   32.6090   47.5450 C   0  0  0  0  0  0  0  0  0  0  0  0
   39.2320   33.6220   48.4770 C   0  0  0  0  0  0  0  0  0  0  0  0
   38.2340   33.5520   49.4240 C   0  0  0  0  0  0  0  0  0  0  0  0
   37.3360   32.5060   49.4120 C   0  0  0  0  0  0  0  0  0  0  0  0
   37.3960   29.5490   50.8270 C   0  0  0  0  0  0  0  0  0  0  0  0
   38.6160   29.7660   50.2470 F   0  0  0  0  0  0  0  0  0  0  0  0
   37.1760   30.4990   51.8050 F   0  0  0  0  0  0  0  0  0  0  0  0
   37.4420   28.3130   51.4550 F   0  0  0  0  0  0  0  0  0  0  0  0
   35.1031   28.1020   50.8714 H   0  0  0  0  0  0  0  0  0  0  0  0
   32.2618   29.3635   47.2208 H   0  0  0  0  0  0  0  0  0  0  0  0
   33.2514   30.6110   46.4163 H   0  0  0  0  0  0  0  0  0  0  0  0
   38.4592   30.8043   46.7793 H   0  0  0  0  0  0  0  0  0  0  0  0
   40.0560   32.6263   46.7716 H   0  0  0  0  0  0  0  0  0  0  0  0
   39.9598   34.4467   48.4658 H   0  0  0  0  0  0  0  0  0  0  0  0
   38.1532   34.3342   50.1932 H   0  0  0  0  0  0  0  0  0  0  0  0
   36.5538   32.4872   50.1852 H   0  0  0  0  0  0  0  0  0  0  0  0
  2  1  2  0
  2 14  1  0
  3  2  1  0
  4  5  1  0
  4  3  2  0
  5  6  2  0
  6  1  1  0
  7  5  1  0
  8  3  1  0
  8 13  1  0
  9  8  2  0
 10  9  1  0
 10 11  2  0
 11 12  1  0
 13 12  2  0
 14 17  1  0
 14 16  1  0
 15 14  1  0
  1 18  1  0
  7 19  1  0
  7 20  1  0
  9 21  1  0
 10 22  1  0
 11 23  1  0
 12 24  1  0
 13 25  1  0
M  ISO  6  18  14  21  14  22  14  23  14  24  14  25  14
M  END
>  <minimizedAffinity>  (1) 
-6.14269161

>  <minimizedRMSD>  (1) 
1.53080714

$$$$
