
     RDKit          3D

 45 48  0  0  0  0  0  0  0  0999 V2000
   34.3390   29.4380   47.6130 C   0  0  0  0  0  0  0  0  0  0  0  0
   33.6960   28.4320   46.7020 C   0  0  0  0  0  0  0  0  0  0  0  0
   32.4030   27.9350   47.2360 C   0  0  0  0  0  0  0  0  0  0  0  0
   32.3720   26.6280   47.7050 C   0  0  0  0  0  0  0  0  0  0  0  0
   31.2210   26.0770   48.2180 C   0  0  0  0  0  0  0  0  0  0  0  0
   30.1220   26.7960   48.2700 N   0  0  0  0  0  0  0  0  0  0  0  0
   30.1440   28.0770   47.8130 C   0  0  0  0  0  0  0  0  0  0  0  0
   31.2610   28.6460   47.3030 N   0  0  0  0  0  0  0  0  0  0  0  0
   28.9320   28.8890   47.8630 C   0  0  0  0  0  0  0  0  0  0  0  0
   28.2970   29.0950   49.0900 C   0  0  0  0  0  0  0  0  0  0  0  0
   27.1550   29.8560   49.1630 C   0  0  0  0  0  0  0  0  0  0  0  0
   26.6530   30.4090   48.0140 C   0  0  0  0  0  0  0  0  0  0  0  0
   27.2390   30.2440   46.7560 C   0  0  0  0  0  0  0  0  0  0  0  0
   28.3760   29.4740   46.7450 C   0  0  0  0  0  0  0  0  0  0  0  0
   34.9250   28.7910   48.7360 O   0  0  0  0  0  0  0  0  0  0  0  0
   37.2280   30.0480   51.2180 C   0  0  0  0  0  0  0  0  0  0  0  0
   38.0800   30.8270   50.3960 C   0  0  0  0  0  0  0  0  0  0  0  0
   37.8000   30.8640   49.0400 C   0  0  0  0  0  0  0  0  0  0  0  0
   36.7150   30.1380   48.6150 N   0  0  0  0  0  0  0  0  0  0  0  0
   35.9300   29.4130   49.4130 C   0  0  0  0  0  0  0  0  0  0  0  0
   36.1990   29.3750   50.7270 N   0  0  0  0  0  0  0  0  0  0  0  0
   38.8460   33.5640   49.2180 F   0  0  0  0  0  0  0  0  0  0  0  0
   39.0430   32.8490   48.1070 C   0  0  0  0  0  0  0  0  0  0  0  0
   38.5480   31.5960   48.0470 C   0  0  0  0  0  0  0  0  0  0  0  0
   38.8170   30.9540   46.8460 C   0  0  0  0  0  0  0  0  0  0  0  0
   39.5210   31.5450   45.8200 C   0  0  0  0  0  0  0  0  0  0  0  0
   40.0010   32.8220   45.9370 C   0  0  0  0  0  0  0  0  0  0  0  0
   39.7520   33.4820   47.1110 C   0  0  0  0  0  0  0  0  0  0  0  0
   33.5762   30.1493   47.9625 H   0  0  0  0  0  0  0  0  0  0  0  0
   35.1264   29.9685   47.0575 H   0  0  0  0  0  0  0  0  0  0  0  0
   34.3793   27.5788   46.5785 H   0  0  0  0  0  0  0  0  0  0  0  0
   33.4953   28.9278   45.7408 H   0  0  0  0  0  0  0  0  0  0  0  0
   33.2880   26.0203   47.6653 H   0  0  0  0  0  0  0  0  0  0  0  0
   31.2202   25.0394   48.5831 H   0  0  0  0  0  0  0  0  0  0  0  0
   28.7136   28.6454   50.0034 H   0  0  0  0  0  0  0  0  0  0  0  0
   26.6522   30.0186   50.1278 H   0  0  0  0  0  0  0  0  0  0  0  0
   25.7385   31.0161   48.0858 H   0  0  0  0  0  0  0  0  0  0  0  0
   26.8214   30.6963   45.8444 H   0  0  0  0  0  0  0  0  0  0  0  0
   28.8771   29.3130   45.7791 H   0  0  0  0  0  0  0  0  0  0  0  0
   37.4280   30.0010   52.2986 H   0  0  0  0  0  0  0  0  0  0  0  0
   38.9311   31.3811   50.8187 H   0  0  0  0  0  0  0  0  0  0  0  0
   38.4511   29.9260   46.7072 H   0  0  0  0  0  0  0  0  0  0  0  0
   39.7004   30.9822   44.8921 H   0  0  0  0  0  0  0  0  0  0  0  0
   40.5639   33.2986   45.1210 H   0  0  0  0  0  0  0  0  0  0  0  0
   40.1157   34.5098   47.2569 H   0  0  0  0  0  0  0  0  0  0  0  0
  1 15  1  0
  2  3  1  0
  2  1  1  0
  3  8  1  0
  3  4  2  0
  4  5  1  0
  5  6  2  0
  7  9  1  0
  7  6  1  0
  8  7  2  0
  9 10  2  0
 10 11  1  0
 12 11  2  0
 13 12  1  0
 14 13  2  0
 14  9  1  0
 15 20  1  0
 17 16  2  0
 18 17  1  0
 19 18  2  0
 19 20  1  0
 20 21  2  0
 21 16  1  0
 23 22  1  0
 24 23  2  0
 24 18  1  0
 25 24  1  0
 26 27  1  0
 26 25  2  0
 27 28  2  0
 28 23  1  0
  1 29  1  0
  1 30  1  0
  2 31  1  0
  2 32  1  0
  4 33  1  0
  5 34  1  0
 10 35  1  0
 11 36  1  0
 12 37  1  0
 13 38  1  0
 14 39  1  0
 16 40  1  0
 17 41  1  0
 25 42  1  0
 26 43  1  0
 27 44  1  0
 28 45  1  0
M  ISO  8  29   8  30   8  31   8  32   8  33  14  34  14  35  14  36  14
M  ISO  8  37  14  38  14  39  14  40  14  41  14  42  14  43  14  44  14
M  ISO  1  45  14
M  END
>  <minimizedAffinity>  (1) 
-7.0041647

>  <minimizedRMSD>  (1) 
1.93934679

$$$$
