
     RDKit          3D

 27 29  0  0  0  0  0  0  0  0999 V2000
   36.9870   31.3440   49.2720 C   0  0  0  0  0  0  0  0  0  0  0  0
   37.2410   32.5380   49.9720 C   0  0  0  0  0  0  0  0  0  0  0  0
   38.1650   33.3900   49.3920 C   0  0  0  0  0  0  0  0  0  0  0  0
   38.7640   33.0570   48.2180 N   0  0  0  0  0  0  0  0  0  0  0  0
   38.4970   31.9020   47.5700 C   0  0  0  0  0  0  0  0  0  0  0  0
   37.5950   31.0360   48.1090 N   0  0  0  0  0  0  0  0  0  0  0  0
   39.1820   31.6190   46.3160 C   0  0  0  0  0  0  0  0  0  0  0  0
   40.1340   32.4800   45.8230 C   0  0  0  0  0  0  0  0  0  0  0  0
   40.7350   32.1310   44.6240 C   0  0  0  0  0  0  0  0  0  0  0  0
   40.3820   30.9680   43.9660 C   0  0  0  0  0  0  0  0  0  0  0  0
   39.4240   30.0980   44.4580 C   0  0  0  0  0  0  0  0  0  0  0  0
   38.8210   30.4540   45.6680 C   0  0  0  0  0  0  0  0  0  0  0  0
   35.9700   30.3980   49.8570 C   0  0  0  0  0  0  0  0  0  0  0  0
   36.0400   28.9640   49.6140 C   0  0  0  0  0  0  0  0  0  0  0  0
   36.5450   29.4920   50.9300 C   0  0  0  0  0  0  0  0  0  0  0  0
   36.7373   32.7790   50.9198 H   0  0  0  0  0  0  0  0  0  0  0  0
   38.4159   34.3415   49.8836 H   0  0  0  0  0  0  0  0  0  0  0  0
   40.4060   33.4032   46.3557 H   0  0  0  0  0  0  0  0  0  0  0  0
   41.5031   32.7883   44.1903 H   0  0  0  0  0  0  0  0  0  0  0  0
   40.8807   30.7246   43.0162 H   0  0  0  0  0  0  0  0  0  0  0  0
   39.1516   29.1752   43.9249 H   0  0  0  0  0  0  0  0  0  0  0  0
   38.0527   29.8009   46.1076 H   0  0  0  0  0  0  0  0  0  0  0  0
   35.1430   31.1142   49.7429 H   0  0  0  0  0  0  0  0  0  0  0  0
   35.1146   28.3701   49.5835 H   0  0  0  0  0  0  0  0  0  0  0  0
   36.4744   28.3399   48.8191 H   0  0  0  0  0  0  0  0  0  0  0  0
   37.6230   29.5028   51.1485 H   0  0  0  0  0  0  0  0  0  0  0  0
   36.3408   29.2952   51.9928 H   0  0  0  0  0  0  0  0  0  0  0  0
  1 13  1  0
  1  2  2  0
  3  2  1  0
  4  3  2  0
  5  6  2  0
  5  4  1  0
  6  1  1  0
  7  5  1  0
  8  7  2  0
  9  8  1  0
 10 11  1  0
 10  9  2  0
 11 12  2  0
 12  7  1  0
 13 15  1  0
 14 13  1  0
 14 15  1  0
  2 16  1  0
  3 17  1  0
  8 18  1  0
  9 19  1  0
 10 20  1  0
 11 21  1  0
 12 22  1  0
 13 23  1  0
 14 24  1  0
 14 25  1  0
 15 26  1  0
 15 27  1  0
M  ISO  8  16  14  17  14  18  14  19  14  20  14  21  14  22  14  23  13
M  ISO  4  24  13  25  13  26  13  27  13
M  END
>  <minimizedAffinity>  (1) 
-5.89280796

>  <minimizedRMSD>  (1) 
0.832967937

$$$$
