
     RDKit          3D

 30 32  0  0  0  0  0  0  0  0999 V2000
   37.6970   31.7220   46.7630 C   0  0  0  0  0  0  0  0  0  0  0  0
   37.9300   31.5610   45.3820 C   0  0  0  0  0  0  0  0  0  0  0  0
   37.1160   30.6430   44.6970 C   0  0  0  0  0  0  0  0  0  0  0  0
   36.1590   29.9670   45.3920 N   0  0  0  0  0  0  0  0  0  0  0  0
   35.9770   30.1610   46.7160 C   0  0  0  0  0  0  0  0  0  0  0  0
   36.7430   31.0370   47.4120 N   0  0  0  0  0  0  0  0  0  0  0  0
   36.8260   29.3810   49.6290 Br  0  0  0  0  0  0  0  0  0  0  0  0
   35.1650   29.0200   48.7600 C   0  0  0  0  0  0  0  0  0  0  0  0
   34.9510   29.4350   47.4590 C   0  0  0  0  0  0  0  0  0  0  0  0
   33.7180   29.1290   46.9030 C   0  0  0  0  0  0  0  0  0  0  0  0
   32.7170   28.4480   47.5630 C   0  0  0  0  0  0  0  0  0  0  0  0
   32.9860   28.0550   48.8700 C   0  0  0  0  0  0  0  0  0  0  0  0
   34.2180   28.3450   49.4640 C   0  0  0  0  0  0  0  0  0  0  0  0
   38.4920   32.6510   47.5560 C   0  0  0  0  0  0  0  0  0  0  0  0
   38.1820   32.8090   48.8910 C   0  0  0  0  0  0  0  0  0  0  0  0
   38.8940   33.6790   49.7240 C   0  0  0  0  0  0  0  0  0  0  0  0
   39.9450   34.4170   49.2200 C   0  0  0  0  0  0  0  0  0  0  0  0
   40.2600   34.2660   47.8950 C   0  0  0  0  0  0  0  0  0  0  0  0
   39.5480   33.4090   47.1010 C   0  0  0  0  0  0  0  0  0  0  0  0
   38.7155   32.1297   44.8628 H   0  0  0  0  0  0  0  0  0  0  0  0
   37.2492   30.4732   43.6184 H   0  0  0  0  0  0  0  0  0  0  0  0
   33.5261   29.4503   45.8686 H   0  0  0  0  0  0  0  0  0  0  0  0
   31.7538   28.2266   47.0801 H   0  0  0  0  0  0  0  0  0  0  0  0
   32.2210   27.5101   49.4425 H   0  0  0  0  0  0  0  0  0  0  0  0
   34.4204   28.0280   50.4977 H   0  0  0  0  0  0  0  0  0  0  0  0
   37.3471   32.2317   49.3148 H   0  0  0  0  0  0  0  0  0  0  0  0
   38.6150   33.7748   50.7837 H   0  0  0  0  0  0  0  0  0  0  0  0
   40.5130   35.1059   49.8625 H   0  0  0  0  0  0  0  0  0  0  0  0
   41.0942   34.8399   47.4652 H   0  0  0  0  0  0  0  0  0  0  0  0
   39.8343   33.3207   46.0426 H   0  0  0  0  0  0  0  0  0  0  0  0
  1  6  1  0
  1 14  1  0
  2  1  2  0
  3  2  1  0
  3  4  2  0
  4  5  1  0
  5  6  2  0
  5  9  1  0
  8 13  2  0
  8  7  1  0
  9  8  1  0
 10  9  2  0
 10 11  1  0
 11 12  2  0
 12 13  1  0
 14 15  2  0
 15 16  1  0
 17 16  2  0
 18 17  1  0
 19 14  1  0
 19 18  2  0
  2 20  1  0
  3 21  1  0
 10 22  1  0
 11 23  1  0
 12 24  1  0
 13 25  1  0
 15 26  1  0
 16 27  1  0
 17 28  1  0
 18 29  1  0
 19 30  1  0
M  ISO  8  20  14  21  14  22  14  23  14  24  14  25  14  26  14  27  14
M  ISO  3  28  14  29  14  30  14
M  END
>  <minimizedAffinity>  (1) 
-5.35759449

>  <minimizedRMSD>  (1) 
2.93404412

$$$$
