
     RDKit          3D

 44 47  0  0  1  0  0  0  0  0999 V2000
   37.9410   31.5520   43.2420 N   0  0  0  0  0  0  0  0  0  0  0  0
   38.2600   32.9790   43.2050 C   0  0  0  0  0  0  0  0  0  0  0  0
   39.1460   33.2000   42.0000 C   0  0  0  0  0  0  0  0  0  0  0  0
   38.4670   32.6330   40.8750 N   0  0  0  0  0  0  0  0  0  0  0  0
   38.3390   31.2200   40.9270 C   0  0  0  0  0  0  0  0  0  0  0  0
   38.6840   30.7260   42.3390 C   0  0  2  0  0  0  0  0  0  0  0  0
   38.5700   31.8020   46.1170 Cl  0  0  0  0  0  0  0  0  0  0  0  0
   37.1590   30.9890   45.4960 C   0  0  0  0  0  0  0  0  0  0  0  0
   36.2850   30.4300   46.3630 C   0  0  0  0  0  0  0  0  0  0  0  0
   35.1710   29.8310   45.7810 C   0  0  0  0  0  0  0  0  0  0  0  0
   34.9250   29.7790   44.4420 C   0  0  0  0  0  0  0  0  0  0  0  0
   35.8460   30.3620   43.6040 C   0  0  0  0  0  0  0  0  0  0  0  0
   36.9730   30.9720   44.1150 C   0  0  0  0  0  0  0  0  0  0  0  0
   38.0050   30.3500   49.7050 C   0  0  0  0  0  0  0  0  0  0  0  0
   37.8020   30.2850   48.3180 C   0  0  0  0  0  0  0  0  0  0  0  0
   36.5220   30.4770   47.7830 C   0  0  0  0  0  0  0  0  0  0  0  0
   35.5100   30.7220   48.6710 N   0  0  0  0  0  0  0  0  0  0  0  0
   35.7150   30.7810   49.9990 C   0  0  0  0  0  0  0  0  0  0  0  0
   36.9540   30.5970   50.5180 N   0  0  0  0  0  0  0  0  0  0  0  0
   38.5510   29.2880   42.4600 C   0  0  0  0  0  0  0  0  0  0  0  0
   37.7560   28.5690   41.5490 C   0  0  0  0  0  0  0  0  0  0  0  0
   37.5080   27.2250   41.5420 C   0  0  0  0  0  0  0  0  0  0  0  0
   38.0950   26.4640   42.5320 C   0  0  0  0  0  0  0  0  0  0  0  0
   38.8960   27.0690   43.4780 C   0  0  0  0  0  0  0  0  0  0  0  0
   39.0810   28.4300   43.3960 C   0  0  0  0  0  0  0  0  0  0  0  0
   37.3375   33.5705   43.1097 H   0  0  0  0  0  0  0  0  0  0  0  0
   38.7669   33.2932   44.1293 H   0  0  0  0  0  0  0  0  0  0  0  0
   39.3072   34.2765   41.8413 H   0  0  0  0  0  0  0  0  0  0  0  0
   40.1302   32.7302   42.1436 H   0  0  0  0  0  0  0  0  0  0  0  0
   38.9911   32.8792   40.0231 H   0  0  0  0  0  0  0  0  0  0  0  0
   37.3049   30.9363   40.6819 H   0  0  0  0  0  0  0  0  0  0  0  0
   39.0269   30.7628   40.2005 H   0  0  0  0  0  0  0  0  0  0  0  0
   39.7459   30.8449   42.6002 H   0  0  0  0  0  0  0  0  0  0  0  0
   34.4346   29.3650   46.4523 H   0  0  0  0  0  0  0  0  0  0  0  0
   34.0233   29.2889   44.0461 H   0  0  0  0  0  0  0  0  0  0  0  0
   35.6828   30.3419   42.5164 H   0  0  0  0  0  0  0  0  0  0  0  0
   39.0101   30.2013   50.1266 H   0  0  0  0  0  0  0  0  0  0  0  0
   38.6511   30.0826   47.6487 H   0  0  0  0  0  0  0  0  0  0  0  0
   34.8679   30.9808   50.6716 H   0  0  0  0  0  0  0  0  0  0  0  0
   37.2790   29.1561   40.7503 H   0  0  0  0  0  0  0  0  0  0  0  0
   36.8647   26.7673   40.7761 H   0  0  0  0  0  0  0  0  0  0  0  0
   37.9247   25.3778   42.5667 H   0  0  0  0  0  0  0  0  0  0  0  0
   39.3733   26.4802   44.2752 H   0  0  0  0  0  0  0  0  0  0  0  0
   39.7246   28.8827   44.1647 H   0  0  0  0  0  0  0  0  0  0  0  0
  1 13  1  0
  2  1  1  0
  3  2  1  0
  4  5  1  0
  4  3  1  0
  5  6  1  0
  6 20  1  0
  6  1  1  0
  8  7  1  0
  8  9  2  0
  9 16  1  0
 10  9  1  0
 11 10  2  0
 12 13  2  0
 12 11  1  0
 13  8  1  0
 14 19  2  0
 15 14  1  0
 16 15  2  0
 16 17  1  0
 17 18  2  0
 18 19  1  0
 20 25  1  0
 21 20  2  0
 22 21  1  0
 22 23  2  0
 23 24  1  0
 25 24  2  0
  2 26  1  0
  2 27  1  0
  3 28  1  0
  3 29  1  0
  4 30  1  0
  5 31  1  0
  5 32  1  0
  6 33  1  1
 10 34  1  0
 11 35  1  0
 12 36  1  0
 14 37  1  0
 15 38  1  0
 18 39  1  0
 21 40  1  0
 22 41  1  0
 23 42  1  0
 24 43  1  0
 25 44  1  0
M  ISO  8  26  13  27  13  28  13  29  13  30   5  31  13  32  13  33  13
M  ISO  8  34  14  35  14  36  14  37  14  38  14  39  14  40  14  41  14
M  ISO  3  42  14  43  14  44  14
M  END
>  <minimizedAffinity>  (1) 
-4.8519702

>  <minimizedRMSD>  (1) 
1.97311151

$$$$
