
     RDKit          3D

 27 29  0  0  0  0  0  0  0  0999 V2000
   35.6420   30.0480   47.6250 C   0  0  0  0  0  0  0  0  0  0  0  0
   34.7360   28.9940   47.1840 C   0  0  0  0  0  0  0  0  0  0  0  0
   34.1970   30.3630   47.4570 C   0  0  0  0  0  0  0  0  0  0  0  0
   38.3630   32.2420   46.3810 C   0  0  0  0  0  0  0  0  0  0  0  0
   38.4580   31.8870   45.0330 C   0  0  0  0  0  0  0  0  0  0  0  0
   37.5730   30.8830   44.5550 C   0  0  0  0  0  0  0  0  0  0  0  0
   36.6840   30.3230   45.4250 N   0  0  0  0  0  0  0  0  0  0  0  0
   36.6260   30.6960   46.7210 C   0  0  0  0  0  0  0  0  0  0  0  0
   37.4540   31.6440   47.2010 N   0  0  0  0  0  0  0  0  0  0  0  0
   36.2010   29.8960   49.0170 C   0  0  0  0  0  0  0  0  0  0  0  0
   35.2800   29.5810   50.0220 C   0  0  0  0  0  0  0  0  0  0  0  0
   35.7680   29.4380   51.3040 C   0  0  0  0  0  0  0  0  0  0  0  0
   37.1400   29.6130   51.5310 C   0  0  0  0  0  0  0  0  0  0  0  0
   38.0140   29.9240   50.5070 C   0  0  0  0  0  0  0  0  0  0  0  0
   37.5540   30.0730   49.2230 C   0  0  0  0  0  0  0  0  0  0  0  0
   34.4906   28.1626   47.8612 H   0  0  0  0  0  0  0  0  0  0  0  0
   34.7064   28.3064   46.3259 H   0  0  0  0  0  0  0  0  0  0  0  0
   33.8621   31.0024   46.6269 H   0  0  0  0  0  0  0  0  0  0  0  0
   33.4045   30.7839   48.0933 H   0  0  0  0  0  0  0  0  0  0  0  0
   39.0319   33.0156   46.7862 H   0  0  0  0  0  0  0  0  0  0  0  0
   39.1902   32.3666   44.3668 H   0  0  0  0  0  0  0  0  0  0  0  0
   37.6043   30.5634   43.5029 H   0  0  0  0  0  0  0  0  0  0  0  0
   34.2106   29.4527   49.7988 H   0  0  0  0  0  0  0  0  0  0  0  0
   35.0912   29.1905   52.1351 H   0  0  0  0  0  0  0  0  0  0  0  0
   37.5318   29.4996   52.5526 H   0  0  0  0  0  0  0  0  0  0  0  0
   39.0850   30.0529   50.7225 H   0  0  0  0  0  0  0  0  0  0  0  0
   38.2334   30.3224   48.3947 H   0  0  0  0  0  0  0  0  0  0  0  0
  1 10  1  0
  2  3  1  0
  2  1  1  0
  3  1  1  0
  4  9  2  0
  5  4  1  0
  6  5  2  0
  6  7  1  0
  7  8  2  0
  8  9  1  0
  8  1  1  0
 10 15  1  0
 10 11  2  0
 11 12  1  0
 12 13  2  0
 14 13  1  0
 15 14  2  0
  2 16  1  0
  2 17  1  0
  3 18  1  0
  3 19  1  0
  4 20  1  0
  5 21  1  0
  6 22  1  0
 11 23  1  0
 12 24  1  0
 13 25  1  0
 14 26  1  0
 15 27  1  0
M  ISO  8  16  13  17  13  18  13  19  13  20  14  21  14  22  14  23  14
M  ISO  4  24  14  25  14  26  14  27  14
M  END
>  <minimizedAffinity>  (1) 
-5.11816406

>  <minimizedRMSD>  (1) 
3.54621506

$$$$
