
     RDKit          3D

 21 22  0  0  0  0  0  0  0  0999 V2000
   37.3310   30.0180   51.2300 C   0  0  0  0  0  0  0  0  0  0  0  0
   38.2230   30.8280   50.5140 C   0  0  0  0  0  0  0  0  0  0  0  0
   37.7690   31.3910   49.3340 C   0  0  0  0  0  0  0  0  0  0  0  0
   36.5020   31.1440   48.9230 N   0  0  0  0  0  0  0  0  0  0  0  0
   35.6550   30.3470   49.6490 C   0  0  0  0  0  0  0  0  0  0  0  0
   36.0780   29.8000   50.7840 N   0  0  0  0  0  0  0  0  0  0  0  0
   38.5810   32.2520   48.4840 C   0  0  0  0  0  0  0  0  0  0  0  0
   39.0090   33.4550   49.0060 C   0  0  0  0  0  0  0  0  0  0  0  0
   39.7930   34.3280   48.2380 C   0  0  0  0  0  0  0  0  0  0  0  0
   40.1460   33.9890   46.9480 C   0  0  0  0  0  0  0  0  0  0  0  0
   39.7260   32.7870   46.4120 C   0  0  0  0  0  0  0  0  0  0  0  0
   38.9510   31.9440   47.1940 C   0  0  0  0  0  0  0  0  0  0  0  0
   37.8760   29.5030   52.3910 O   0  0  0  0  0  0  0  0  0  0  0  0
   39.2456   31.0095   50.8764 H   0  0  0  0  0  0  0  0  0  0  0  0
   34.6306   30.1612   49.2939 H   0  0  0  0  0  0  0  0  0  0  0  0
   38.7328   33.7321   50.0341 H   0  0  0  0  0  0  0  0  0  0  0  0
   40.1272   35.2851   48.6650 H   0  0  0  0  0  0  0  0  0  0  0  0
   40.7611   34.6750   46.3471 H   0  0  0  0  0  0  0  0  0  0  0  0
   40.0009   32.5042   45.3851 H   0  0  0  0  0  0  0  0  0  0  0  0
   38.6173   30.9876   46.7651 H   0  0  0  0  0  0  0  0  0  0  0  0
   37.3329   28.9163   52.9750 H   0  0  0  0  0  0  0  0  0  0  0  0
  1 13  1  0
  2  1  2  0
  3  2  1  0
  4  3  2  0
  4  5  1  0
  5  6  2  0
  6  1  1  0
  7  8  2  0
  7  3  1  0
  9  8  1  0
 10  9  2  0
 11 10  1  0
 11 12  2  0
 12  7  1  0
  2 14  1  0
  5 15  1  0
  8 16  1  0
  9 17  1  0
 10 18  1  0
 11 19  1  0
 12 20  1  0
 13 21  1  0
M  ISO  8  14  14  15  14  16  14  17  14  18  14  19  14  20  14  21   3
M  END
>  <minimizedAffinity>  (1) 
-5.38310289

>  <minimizedRMSD>  (1) 
0.790052533

$$$$
