
     RDKit          3D

 34 36  0  0  0  0  0  0  0  0999 V2000
   36.9640   31.1480   48.4050 C   0  0  0  0  0  0  0  0  0  0  0  0
   37.2410   32.1200   49.3480 C   0  0  0  0  0  0  0  0  0  0  0  0
   38.2030   33.0760   49.0600 C   0  0  0  0  0  0  0  0  0  0  0  0
   38.8640   33.0410   47.8420 C   0  0  0  0  0  0  0  0  0  0  0  0
   38.5570   32.0570   46.9330 C   0  0  0  0  0  0  0  0  0  0  0  0
   37.6280   31.1430   47.2230 N   0  0  0  0  0  0  0  0  0  0  0  0
   35.1050   28.5670   50.4160 C   0  0  0  0  0  0  0  0  0  0  0  0
   36.1300   29.4650   50.0070 C   0  0  0  0  0  0  0  0  0  0  0  0
   35.9270   30.2130   48.8540 C   0  0  0  0  0  0  0  0  0  0  0  0
   34.7550   30.0500   48.1680 N   0  0  0  0  0  0  0  0  0  0  0  0
   33.8000   29.1770   48.5970 C   0  0  0  0  0  0  0  0  0  0  0  0
   33.9680   28.4420   49.7070 N   0  0  0  0  0  0  0  0  0  0  0  0
   32.6770   29.1780   47.7310 N   0  0  0  0  0  0  0  0  0  0  0  0
   37.3610   29.5590   50.8290 C   0  0  0  0  0  0  0  0  0  0  0  0
   38.4800   29.7850   50.0310 F   0  0  0  0  0  0  0  0  0  0  0  0
   37.2380   30.5930   51.7040 F   0  0  0  0  0  0  0  0  0  0  0  0
   37.6130   28.4050   51.5570 F   0  0  0  0  0  0  0  0  0  0  0  0
   39.2090   31.9530   45.6300 C   0  0  0  0  0  0  0  0  0  0  0  0
   38.8810   32.8680   44.6520 C   0  0  0  0  0  0  0  0  0  0  0  0
   39.4360   32.8670   43.3750 C   0  0  0  0  0  0  0  0  0  0  0  0
   40.3700   31.9030   43.0510 C   0  0  0  0  0  0  0  0  0  0  0  0
   40.6880   31.0050   44.0220 C   0  0  0  0  0  0  0  0  0  0  0  0
   40.1440   31.0010   45.2840 C   0  0  0  0  0  0  0  0  0  0  0  0
   36.7076   32.1348   50.3099 H   0  0  0  0  0  0  0  0  0  0  0  0
   38.4408   33.8591   49.7950 H   0  0  0  0  0  0  0  0  0  0  0  0
   39.6287   33.7953   47.6048 H   0  0  0  0  0  0  0  0  0  0  0  0
   35.2441   27.9653   51.3263 H   0  0  0  0  0  0  0  0  0  0  0  0
   31.8732   28.5653   47.9293 H   0  0  0  0  0  0  0  0  0  0  0  0
   32.6652   29.7915   46.9037 H   0  0  0  0  0  0  0  0  0  0  0  0
   38.1387   33.6428   44.8944 H   0  0  0  0  0  0  0  0  0  0  0  0
   39.1348   33.6231   42.6351 H   0  0  0  0  0  0  0  0  0  0  0  0
   40.8349   31.8631   42.0549 H   0  0  0  0  0  0  0  0  0  0  0  0
   41.4304   30.2300   43.7809 H   0  0  0  0  0  0  0  0  0  0  0  0
   40.4537   30.2404   46.0158 H   0  0  0  0  0  0  0  0  0  0  0  0
  1  9  1  0
  1  2  2  0
  3  2  1  0
  4  3  2  0
  5  6  2  0
  5  4  1  0
  6  1  1  0
  8  7  2  0
  8 14  1  0
  9  8  1  0
 10 11  1  0
 10  9  2  0
 11 12  2  0
 12  7  1  0
 13 11  1  0
 14 17  1  0
 14 16  1  0
 15 14  1  0
 18  5  1  0
 19 18  2  0
 20 19  1  0
 21 20  2  0
 21 22  1  0
 22 23  2  0
 23 18  1  0
  2 24  1  0
  3 25  1  0
  4 26  1  0
  7 27  1  0
 13 28  1  0
 13 29  1  0
 19 30  1  0
 20 31  1  0
 21 32  1  0
 22 33  1  0
 23 34  1  0
M  ISO  8  24  14  25  14  26  14  27  14  30  14  31  14  32  14  33  14
M  ISO  1  34  14
M  END
>  <minimizedAffinity>  (1) 
-7.05380583

>  <minimizedRMSD>  (1) 
1.02880192

$$$$
