
     RDKit          3D

 48 52  0  0  0  0  0  0  0  0999 V2000
   37.9780   31.2720   47.7480 C   0  0  0  0  0  0  0  0  0  0  0  0
   37.0770   31.2930   48.7950 C   0  0  0  0  0  0  0  0  0  0  0  0
   37.2150   32.3970   49.6440 C   0  0  0  0  0  0  0  0  0  0  0  0
   38.1890   33.3820   49.4340 C   0  0  0  0  0  0  0  0  0  0  0  0
   39.0570   33.2620   48.3360 C   0  0  0  0  0  0  0  0  0  0  0  0
   38.9390   32.1790   47.4820 C   0  0  0  0  0  0  0  0  0  0  0  0
   34.9040   30.3010   48.2630 C   0  0  0  0  0  0  0  0  0  0  0  0
   36.0870   30.2940   49.0120 C   0  0  0  0  0  0  0  0  0  0  0  0
   36.2390   29.2800   49.9650 C   0  0  0  0  0  0  0  0  0  0  0  0
   35.2400   28.3780   50.0980 N   0  0  0  0  0  0  0  0  0  0  0  0
   34.1100   28.4110   49.3570 C   0  0  0  0  0  0  0  0  0  0  0  0
   33.9490   29.3790   48.4390 N   0  0  0  0  0  0  0  0  0  0  0  0
   37.4760   29.2190   50.7960 C   0  0  0  0  0  0  0  0  0  0  0  0
   37.9280   30.2120   46.8400 O   0  0  0  0  0  0  0  0  0  0  0  0
   39.8250   32.1310   46.4290 O   0  0  0  0  0  0  0  0  0  0  0  0
   40.2070   31.2910   44.1120 C   0  0  0  0  0  0  0  0  0  0  0  0
   39.5240   31.9740   45.1010 C   0  0  0  0  0  0  0  0  0  0  0  0
   38.3350   32.6310   44.7800 C   0  0  0  0  0  0  0  0  0  0  0  0
   37.8440   32.5970   43.4660 C   0  0  0  0  0  0  0  0  0  0  0  0
   36.7620   33.1130   42.8570 N   0  0  0  0  0  0  0  0  0  0  0  0
   36.7610   32.7740   41.5520 C   0  0  0  0  0  0  0  0  0  0  0  0
   37.8820   32.0230   41.3460 N   0  0  0  0  0  0  0  0  0  0  0  0
   38.5490   31.9090   42.5120 C   0  0  0  0  0  0  0  0  0  0  0  0
   39.7220   31.2600   42.8280 C   0  0  0  0  0  0  0  0  0  0  0  0
   40.4880   30.5220   41.8260 C   0  0  0  0  0  0  0  0  0  0  0  0
   40.9950   29.2730   42.1350 C   0  0  0  0  0  0  0  0  0  0  0  0
   41.7030   28.6340   41.1540 C   0  0  0  0  0  0  0  0  0  0  0  0
   41.9670   29.1060   39.8800 C   0  0  0  0  0  0  0  0  0  0  0  0
   41.4400   30.3670   39.6100 C   0  0  0  0  0  0  0  0  0  0  0  0
   40.7090   31.0760   40.5620 C   0  0  0  0  0  0  0  0  0  0  0  0
   36.5366   32.4946   50.5043 H   0  0  0  0  0  0  0  0  0  0  0  0
   38.2729   34.2379   50.1198 H   0  0  0  0  0  0  0  0  0  0  0  0
   39.8277   34.0259   48.1555 H   0  0  0  0  0  0  0  0  0  0  0  0
   34.7548   31.0869   47.5079 H   0  0  0  0  0  0  0  0  0  0  0  0
   33.3282   27.6513   49.5043 H   0  0  0  0  0  0  0  0  0  0  0  0
   37.2030   29.2325   51.8615 H   0  0  0  0  0  0  0  0  0  0  0  0
   38.0244   28.2927   50.5697 H   0  0  0  0  0  0  0  0  0  0  0  0
   38.1129   30.0868   50.5697 H   0  0  0  0  0  0  0  0  0  0  0  0
   38.5649   30.1784   46.0828 H   0  0  0  0  0  0  0  0  0  0  0  0
   41.1444   30.7694   44.3552 H   0  0  0  0  0  0  0  0  0  0  0  0
   37.7818   33.1765   45.5587 H   0  0  0  0  0  0  0  0  0  0  0  0
   36.0399   33.6835   43.3195 H   0  0  0  0  0  0  0  0  0  0  0  0
   36.0055   33.0486   40.8011 H   0  0  0  0  0  0  0  0  0  0  0  0
   40.8366   28.8151   43.1225 H   0  0  0  0  0  0  0  0  0  0  0  0
   42.1045   27.6409   41.4041 H   0  0  0  0  0  0  0  0  0  0  0  0
   42.5457   28.5323   39.1410 H   0  0  0  0  0  0  0  0  0  0  0  0
   41.6051   30.8152   38.6191 H   0  0  0  0  0  0  0  0  0  0  0  0
   40.3066   32.0704   40.3187 H   0  0  0  0  0  0  0  0  0  0  0  0
  1  2  2  0
  2  8  1  0
  2  3  1  0
  4  3  2  0
  5  4  1  0
  6  1  1  0
  6  5  2  0
  7 12  2  0
  7  8  1  0
  8  9  2  0
  9 10  1  0
  9 13  1  0
 11 10  2  0
 12 11  1  0
 14  1  1  0
 15  6  1  0
 16 17  2  0
 17 15  1  0
 18 17  1  0
 19 18  2  0
 20 19  1  0
 21 20  1  0
 22 21  2  0
 22 23  1  0
 23 24  2  0
 23 19  1  0
 24 16  1  0
 25 26  2  0
 25 24  1  0
 27 26  1  0
 28 27  2  0
 29 28  1  0
 29 30  2  0
 30 25  1  0
  3 31  1  0
  4 32  1  0
  5 33  1  0
  7 34  1  0
 11 35  1  0
 13 36  1  0
 13 37  1  0
 13 38  1  0
 14 39  1  0
 16 40  1  0
 18 41  1  0
 20 42  1  0
 21 43  1  0
 26 44  1  0
 27 45  1  0
 28 46  1  0
 29 47  1  0
 30 48  1  0
M  ISO  8  31  14  32  14  33  14  34  14  35  14  36   8  37   8  38   8
M  ISO  8  39   3  40  14  41  14  42   9  43  14  44  14  45  14  46  14
M  ISO  2  47  14  48  14
M  END
>  <minimizedAffinity>  (1) 
-7.82576799

>  <minimizedRMSD>  (1) 
0.541044652

$$$$
