
     RDKit          3D

 40 42  0  0  1  0  0  0  0  0999 V2000
   35.6480   29.7090   48.1410 C   0  0  0  0  0  0  0  0  0  0  0  0
   36.6320   30.4610   47.7640 C   0  0  0  0  0  0  0  0  0  0  0  0
   33.5220   29.5080   45.0870 C   0  0  0  0  0  0  0  0  0  0  0  0
   34.5740   29.7320   45.9530 C   0  0  0  0  0  0  0  0  0  0  0  0
   34.5180   29.4430   47.2900 C   0  0  0  0  0  0  0  0  0  0  0  0
   33.3550   28.9120   47.7390 N   0  0  0  0  0  0  0  0  0  0  0  0
   32.3300   28.6880   46.9230 C   0  0  0  0  0  0  0  0  0  0  0  0
   32.3960   28.9770   45.6070 N   0  0  0  0  0  0  0  0  0  0  0  0
   31.0960   28.1150   47.4530 C   0  0  0  0  0  0  0  0  0  0  0  0
   29.9680   28.0210   46.6630 C   0  0  0  0  0  0  0  0  0  0  0  0
   28.8170   27.4740   47.1920 C   0  0  0  0  0  0  0  0  0  0  0  0
   28.7770   27.0210   48.4950 C   0  0  0  0  0  0  0  0  0  0  0  0
   29.8910   27.0930   49.3350 C   0  0  0  0  0  0  0  0  0  0  0  0
   31.0010   27.6470   48.7470 C   0  0  0  0  0  0  0  0  0  0  0  0
   37.7580   30.6820   48.7330 C   0  0  1  0  0  0  0  0  0  0  0  0
   38.5370   31.8570   48.3210 C   0  0  0  0  0  0  0  0  0  0  0  0
   38.6370   32.8410   49.3390 C   0  0  0  0  0  0  0  0  0  0  0  0
   39.3190   34.0300   49.1830 C   0  0  0  0  0  0  0  0  0  0  0  0
   39.9630   34.3250   47.9710 C   0  0  0  0  0  0  0  0  0  0  0  0
   39.8170   33.3130   47.0330 C   0  0  0  0  0  0  0  0  0  0  0  0
   39.1630   32.1540   47.1610 N   0  0  0  0  0  0  0  0  0  0  0  0
   37.0040   31.1090   50.3400 S   0  0  0  0  0  0  0  0  0  0  0  0
   36.9810   29.7010   51.4330 C   0  0  0  0  0  0  0  0  0  0  0  0
   37.6360   29.9290   52.6340 F   0  0  0  0  0  0  0  0  0  0  0  0
   35.6930   29.2330   51.6340 F   0  0  0  0  0  0  0  0  0  0  0  0
   37.6650   28.6650   50.7650 F   0  0  0  0  0  0  0  0  0  0  0  0
   35.6764   29.2587   49.1442 H   0  0  0  0  0  0  0  0  0  0  0  0
   36.6431   30.9233   46.7659 H   0  0  0  0  0  0  0  0  0  0  0  0
   33.5989   29.7524   44.0173 H   0  0  0  0  0  0  0  0  0  0  0  0
   35.5017   30.1635   45.5491 H   0  0  0  0  0  0  0  0  0  0  0  0
   29.9865   28.3784   45.6228 H   0  0  0  0  0  0  0  0  0  0  0  0
   27.9165   27.3977   46.5649 H   0  0  0  0  0  0  0  0  0  0  0  0
   27.8418   26.5912   48.8831 H   0  0  0  0  0  0  0  0  0  0  0  0
   29.8797   26.7372   50.3758 H   0  0  0  0  0  0  0  0  0  0  0  0
   31.9044   27.7255   49.3697 H   0  0  0  0  0  0  0  0  0  0  0  0
   38.3961   29.7872   48.7789 H   0  0  0  0  0  0  0  0  0  0  0  0
   38.1448   32.6452   50.3031 H   0  0  0  0  0  0  0  0  0  0  0  0
   39.3584   34.7509   50.0129 H   0  0  0  0  0  0  0  0  0  0  0  0
   40.5211   35.2546   47.7856 H   0  0  0  0  0  0  0  0  0  0  0  0
   40.3009   33.4864   46.0605 H   0  0  0  0  0  0  0  0  0  0  0  0
  2  1  2  0
  2 15  1  0
  3  8  2  0
  3  4  1  0
  4  5  2  0
  5  6  1  0
  5  1  1  0
  7  9  1  0
  7  6  2  0
  8  7  1  0
  9 14  2  0
 10 11  2  0
 10  9  1  0
 11 12  1  0
 12 13  2  0
 14 13  1  0
 15 22  1  0
 16 15  1  0
 16 17  2  0
 18 17  1  0
 19 18  2  0
 20 21  2  0
 20 19  1  0
 21 16  1  0
 22 23  1  0
 23 25  1  0
 23 24  1  0
 26 23  1  0
  1 27  1  0
  2 28  1  0
  3 29  1  0
  4 30  1  0
 10 31  1  0
 11 32  1  0
 12 33  1  0
 13 34  1  0
 14 35  1  0
 15 36  1  1
 17 37  1  0
 18 38  1  0
 19 39  1  0
 20 40  1  0
M  ISO  8  29  14  30  14  31  14  32  14  33  14  34  14  35  14  36   8
M  ISO  4  37  14  38  14  39  14  40  14
M  END
>  <minimizedAffinity>  (1) 
-6.69771814

>  <minimizedRMSD>  (1) 
0.582787931

$$$$
