
     RDKit          3D

 30 32  0  0  0  0  0  0  0  0999 V2000
   36.1830   29.4200   49.1900 C   0  0  0  0  0  0  0  0  0  0  0  0
   36.1960   30.4880   48.2590 C   0  0  0  0  0  0  0  0  0  0  0  0
   35.2620   30.4360   47.2340 C   0  0  0  0  0  0  0  0  0  0  0  0
   34.3980   29.3840   47.1790 N   0  0  0  0  0  0  0  0  0  0  0  0
   34.4110   28.3910   48.0730 C   0  0  0  0  0  0  0  0  0  0  0  0
   35.3020   28.4040   49.0810 N   0  0  0  0  0  0  0  0  0  0  0  0
   37.1570   31.5210   48.4430 N   0  0  0  0  0  0  0  0  0  0  0  0
   37.2250   32.2270   49.5780 C   0  0  0  0  0  0  0  0  0  0  0  0
   38.1790   33.2350   49.7280 C   0  0  0  0  0  0  0  0  0  0  0  0
   38.9880   33.3890   48.6120 C   0  0  0  0  0  0  0  0  0  0  0  0
   39.8740   34.3090   48.7230 O   0  0  0  0  0  0  0  0  0  0  0  0
   38.9440   32.7010   47.4670 N   0  0  0  0  0  0  0  0  0  0  0  0
   37.9930   31.7400   47.3980 C   0  0  0  0  0  0  0  0  0  0  0  0
   37.9370   31.0810   46.3230 O   0  0  0  0  0  0  0  0  0  0  0  0
   33.4600   27.2870   47.9620 C   0  0  0  0  0  0  0  0  0  0  0  0
   33.8580   26.0810   47.4160 C   0  0  0  0  0  0  0  0  0  0  0  0
   32.9840   25.0290   47.3010 C   0  0  0  0  0  0  0  0  0  0  0  0
   31.6730   25.1370   47.7280 C   0  0  0  0  0  0  0  0  0  0  0  0
   31.2660   26.3320   48.2740 C   0  0  0  0  0  0  0  0  0  0  0  0
   32.1710   27.3930   48.3820 C   0  0  0  0  0  0  0  0  0  0  0  0
   36.9062   29.4192   50.0188 H   0  0  0  0  0  0  0  0  0  0  0  0
   35.2198   31.2327   46.4767 H   0  0  0  0  0  0  0  0  0  0  0  0
   36.5244   32.0115   50.3982 H   0  0  0  0  0  0  0  0  0  0  0  0
   38.2789   33.8447   50.6381 H   0  0  0  0  0  0  0  0  0  0  0  0
   39.5912   32.8896   46.6882 H   0  0  0  0  0  0  0  0  0  0  0  0
   34.8945   25.9623   47.0672 H   0  0  0  0  0  0  0  0  0  0  0  0
   33.3326   24.0829   46.8613 H   0  0  0  0  0  0  0  0  0  0  0  0
   30.9758   24.2914   47.6337 H   0  0  0  0  0  0  0  0  0  0  0  0
   30.2306   26.4531   48.6251 H   0  0  0  0  0  0  0  0  0  0  0  0
   31.8295   28.3424   48.8202 H   0  0  0  0  0  0  0  0  0  0  0  0
  2  7  1  0
  2  1  2  0
  3  2  1  0
  4  3  2  0
  4  5  1  0
  5  6  2  0
  6  1  1  0
  7  8  1  0
  8  9  2  0
 10 11  2  0
 10  9  1  0
 12 10  1  0
 13 12  1  0
 13  7  1  0
 14 13  2  0
 15  5  1  0
 15 20  1  0
 16 15  2  0
 17 16  1  0
 17 18  2  0
 18 19  1  0
 19 20  2  0
  1 21  1  0
  3 22  1  0
  8 23  1  0
  9 24  1  0
 12 25  1  0
 16 26  1  0
 17 27  1  0
 18 28  1  0
 19 29  1  0
 20 30  1  0
M  ISO  8  21  14  22  14  23  14  24  14  25   9  26  14  27  14  28  14
M  ISO  2  29  14  30  14
M  END
>  <minimizedAffinity>  (1) 
-5.89859724

>  <minimizedRMSD>  (1) 
0.519699633

$$$$
