
     RDKit          3D

 26 27  0  0  0  0  0  0  0  0999 V2000
   36.9060   30.7930   49.3730 C   0  0  0  0  0  0  0  0  0  0  0  0
   37.6410   30.7080   48.1810 C   0  0  0  0  0  0  0  0  0  0  0  0
   38.3570   31.8220   47.7820 C   0  0  0  0  0  0  0  0  0  0  0  0
   38.3330   32.9530   48.5380 N   0  0  0  0  0  0  0  0  0  0  0  0
   37.6030   32.9990   49.6980 C   0  0  0  0  0  0  0  0  0  0  0  0
   36.8880   31.9120   50.1140 N   0  0  0  0  0  0  0  0  0  0  0  0
   39.1190   31.7630   46.5630 C   0  0  0  0  0  0  0  0  0  0  0  0
   39.9570   32.7200   46.0770 C   0  0  0  0  0  0  0  0  0  0  0  0
   40.6740   32.6310   44.9040 C   0  0  0  0  0  0  0  0  0  0  0  0
   40.5370   31.4810   44.1510 C   0  0  0  0  0  0  0  0  0  0  0  0
   39.7110   30.4650   44.5670 C   0  0  0  0  0  0  0  0  0  0  0  0
   39.0230   30.6230   45.7570 C   0  0  0  0  0  0  0  0  0  0  0  0
   36.1330   29.7900   49.9320 O   0  0  0  0  0  0  0  0  0  0  0  0
   34.2130   30.1940   48.1120 O   0  0  0  0  0  0  0  0  0  0  0  0
   34.5570   29.4200   49.3670 P   0  0  0  0  0  0  0  0  0  0  0  0
   34.5360   27.7390   49.0600 O   0  0  0  0  0  0  0  0  0  0  0  0
   33.4230   29.8230   50.5400 O   0  0  0  0  0  0  0  0  0  0  0  0
   37.6476   29.7849   47.5829 H   0  0  0  0  0  0  0  0  0  0  0  0
   37.5931   33.9201   50.2992 H   0  0  0  0  0  0  0  0  0  0  0  0
   40.0708   33.6397   46.6697 H   0  0  0  0  0  0  0  0  0  0  0  0
   41.3337   33.4486   44.5778 H   0  0  0  0  0  0  0  0  0  0  0  0
   41.0950   31.3777   43.2087 H   0  0  0  0  0  0  0  0  0  0  0  0
   39.5994   29.5486   43.9688 H   0  0  0  0  0  0  0  0  0  0  0  0
   38.3638   29.8070   46.0880 H   0  0  0  0  0  0  0  0  0  0  0  0
   34.5299   27.2467   49.9189 H   0  0  0  0  0  0  0  0  0  0  0  0
   33.8142   29.6840   51.4387 H   0  0  0  0  0  0  0  0  0  0  0  0
  1 13  1  0
  1  6  2  0
  2  1  1  0
  3  2  2  0
  3  4  1  0
  4  5  2  0
  5  6  1  0
  7  3  1  0
  8  7  2  0
  9  8  1  0
 10 11  1  0
 10  9  2  0
 11 12  2  0
 12  7  1  0
 14 15  2  0
 15 13  1  0
 15 17  1  0
 16 15  1  0
  2 18  1  0
  5 19  1  0
  8 20  1  0
  9 21  1  0
 10 22  1  0
 11 23  1  0
 12 24  1  0
 16 25  1  0
 17 26  1  0
M  ISO  8  18  14  19  14  20  14  21  14  22  14  23  14  24  14  25   3
M  ISO  1  26   3
M  END
>  <minimizedAffinity>  (1) 
-5.87073183

>  <minimizedRMSD>  (1) 
5.85612106

$$$$
