
     RDKit          3D

 40 43  0  0  0  0  0  0  0  0999 V2000
   38.6820   32.9380   49.7820 Cl  0  0  0  0  0  0  0  0  0  0  0  0
   38.6430   32.2730   48.1640 C   0  0  0  0  0  0  0  0  0  0  0  0
   37.8880   31.1510   47.8820 C   0  0  0  0  0  0  0  0  0  0  0  0
   37.9150   30.6970   46.5900 C   0  0  0  0  0  0  0  0  0  0  0  0
   38.6340   31.2830   45.5920 C   0  0  0  0  0  0  0  0  0  0  0  0
   39.3900   32.4220   45.9180 C   0  0  0  0  0  0  0  0  0  0  0  0
   40.3030   33.1550   44.6200 Cl  0  0  0  0  0  0  0  0  0  0  0  0
   39.3960   32.9170   47.2000 C   0  0  0  0  0  0  0  0  0  0  0  0
   36.8870   32.6130   43.4900 Cl  0  0  0  0  0  0  0  0  0  0  0  0
   37.8320   31.1430   43.1970 C   0  0  0  0  0  0  0  0  0  0  0  0
   38.5640   30.6860   44.2700 C   0  0  0  0  0  0  0  0  0  0  0  0
   39.3330   29.5340   44.1190 C   0  0  0  0  0  0  0  0  0  0  0  0
   39.3730   28.8480   42.9140 C   0  0  0  0  0  0  0  0  0  0  0  0
   38.6190   29.3470   41.8650 C   0  0  0  0  0  0  0  0  0  0  0  0
   37.8390   30.5000   41.9910 C   0  0  0  0  0  0  0  0  0  0  0  0
   37.0460   31.0250   40.8870 C   0  0  0  0  0  0  0  0  0  0  0  0
   35.7180   30.7500   40.6420 C   0  0  0  0  0  0  0  0  0  0  0  0
   35.0430   31.2930   39.5690 C   0  0  0  0  0  0  0  0  0  0  0  0
   35.6940   32.1540   38.6820 C   0  0  0  0  0  0  0  0  0  0  0  0
   37.0220   32.4040   38.9610 C   0  0  0  0  0  0  0  0  0  0  0  0
   37.7320   31.8780   40.0270 C   0  0  0  0  0  0  0  0  0  0  0  0
   37.0410   29.3520   51.0980 C   0  0  0  0  0  0  0  0  0  0  0  0
   37.7680   29.9160   50.0520 C   0  0  0  0  0  0  0  0  0  0  0  0
   37.1310   30.5550   48.9850 C   0  0  0  0  0  0  0  0  0  0  0  0
   35.7620   30.5980   49.0160 N   0  0  0  0  0  0  0  0  0  0  0  0
   35.0920   30.0410   50.0430 C   0  0  0  0  0  0  0  0  0  0  0  0
   35.6960   29.4320   51.0610 N   0  0  0  0  0  0  0  0  0  0  0  0
   37.3201   29.8052   46.3432 H   0  0  0  0  0  0  0  0  0  0  0  0
   39.9884   33.8083   47.4541 H   0  0  0  0  0  0  0  0  0  0  0  0
   39.9196   29.1614   44.9716 H   0  0  0  0  0  0  0  0  0  0  0  0
   39.9821   27.9397   42.7958 H   0  0  0  0  0  0  0  0  0  0  0  0
   38.6345   28.8183   40.9005 H   0  0  0  0  0  0  0  0  0  0  0  0
   35.1792   30.0759   41.3241 H   0  0  0  0  0  0  0  0  0  0  0  0
   33.9829   31.0461   39.4101 H   0  0  0  0  0  0  0  0  0  0  0  0
   35.1817   32.6029   37.8183 H   0  0  0  0  0  0  0  0  0  0  0  0
   37.5619   33.0777   38.2794 H   0  0  0  0  0  0  0  0  0  0  0  0
   38.7922   32.1235   40.1874 H   0  0  0  0  0  0  0  0  0  0  0  0
   37.5525   28.8532   51.9344 H   0  0  0  0  0  0  0  0  0  0  0  0
   38.8663   29.8571   50.0663 H   0  0  0  0  0  0  0  0  0  0  0  0
   33.9932   30.0917   50.0405 H   0  0  0  0  0  0  0  0  0  0  0  0
  2  1  1  0
  3  2  2  0
  3 24  1  0
  4  3  1  0
  5  6  1  0
  5  4  2  0
  6  8  2  0
  7  6  1  0
  8  2  1  0
 10  9  1  0
 10 11  2  0
 11  5  1  0
 12 11  1  0
 13 12  2  0
 14 15  2  0
 14 13  1  0
 15 10  1  0
 16 15  1  0
 17 16  2  0
 18 17  1  0
 19 20  1  0
 19 18  2  0
 20 21  2  0
 21 16  1  0
 23 22  2  0
 24 25  2  0
 24 23  1  0
 25 26  1  0
 26 27  2  0
 27 22  1  0
  4 28  1  0
  8 29  1  0
 12 30  1  0
 13 31  1  0
 14 32  1  0
 17 33  1  0
 18 34  1  0
 19 35  1  0
 20 36  1  0
 21 37  1  0
 22 38  1  0
 23 39  1  0
 26 40  1  0
M  ISO  8  28  14  29  14  30  14  31  14  32  14  33  14  34  14  35  14
M  ISO  5  36  14  37  14  38  14  39  14  40  14
M  END
>  <minimizedAffinity>  (1) 
-6.40473652

>  <minimizedRMSD>  (1) 
0.547766984

$$$$
