
     RDKit          3D

 41 45  0  0  1  0  0  0  0  0999 V2000
   32.1090   27.5410   47.7640 C   0  0  1  0  0  0  0  0  0  0  0  0
   32.9570   26.6140   46.8270 C   0  0  0  0  0  0  0  0  0  0  0  0
   32.7720   28.0620   46.5540 C   0  0  2  0  0  0  0  0  0  0  0  0
   28.5340   27.5870   48.2320 C   0  0  0  0  0  0  0  0  0  0  0  0
   28.6510   26.5530   47.3290 C   0  0  0  0  0  0  0  0  0  0  0  0
   30.0150   26.3960   47.0290 C   0  0  0  0  0  0  0  0  0  0  0  0
   30.6740   27.3240   47.7490 N   0  0  0  0  0  0  0  0  0  0  0  0
   29.7820   27.9870   48.4260 N   0  0  0  0  0  0  0  0  0  0  0  0
   26.9480   27.9410   50.1540 C   0  0  0  0  0  0  0  0  0  0  0  0
   27.2810   28.0480   48.7800 C   0  0  0  0  0  0  0  0  0  0  0  0
   26.3400   28.6310   47.9360 C   0  0  0  0  0  0  0  0  0  0  0  0
   25.1610   29.0610   48.4750 N   0  0  0  0  0  0  0  0  0  0  0  0
   24.8970   28.9320   49.7940 C   0  0  0  0  0  0  0  0  0  0  0  0
   25.7910   28.3700   50.6450 N   0  0  0  0  0  0  0  0  0  0  0  0
   33.9390   28.9850   46.7170 C   0  0  0  0  0  0  0  0  0  0  0  0
   34.4490   29.7970   45.6870 C   0  0  0  0  0  0  0  0  0  0  0  0
   35.5010   30.4920   46.1960 N   0  0  0  0  0  0  0  0  0  0  0  0
   35.6470   30.1320   47.4940 C   0  0  0  0  0  0  0  0  0  0  0  0
   34.7100   29.2250   47.8110 N   0  0  0  0  0  0  0  0  0  0  0  0
   36.6730   30.6600   48.3870 C   0  0  0  0  0  0  0  0  0  0  0  0
   37.5950   31.5730   47.9200 C   0  0  0  0  0  0  0  0  0  0  0  0
   38.5420   32.0310   48.8280 C   0  0  0  0  0  0  0  0  0  0  0  0
   38.5940   31.6190   50.1450 C   0  0  0  0  0  0  0  0  0  0  0  0
   37.6530   30.6910   50.6090 C   0  0  0  0  0  0  0  0  0  0  0  0
   36.7200   30.2430   49.7020 C   0  0  0  0  0  0  0  0  0  0  0  0
   32.1076   27.8291   48.8256 H   0  0  0  0  0  0  0  0  0  0  0  0
   33.9332   26.2309   47.1591 H   0  0  0  0  0  0  0  0  0  0  0  0
   32.7864   25.6771   46.2764 H   0  0  0  0  0  0  0  0  0  0  0  0
   32.4140   28.6222   45.6777 H   0  0  0  0  0  0  0  0  0  0  0  0
   27.8240   25.9565   46.9163 H   0  0  0  0  0  0  0  0  0  0  0  0
   30.4573   25.6600   46.3415 H   0  0  0  0  0  0  0  0  0  0  0  0
   27.6766   27.4847   50.8403 H   0  0  0  0  0  0  0  0  0  0  0  0
   26.5412   28.7427   46.8603 H   0  0  0  0  0  0  0  0  0  0  0  0
   23.9343   29.2913   50.1867 H   0  0  0  0  0  0  0  0  0  0  0  0
   34.0663   29.8583   44.6576 H   0  0  0  0  0  0  0  0  0  0  0  0
   36.0833   31.1713   45.6857 H   0  0  0  0  0  0  0  0  0  0  0  0
   37.5814   31.9225   46.8771 H   0  0  0  0  0  0  0  0  0  0  0  0
   39.2889   32.7595   48.4796 H   0  0  0  0  0  0  0  0  0  0  0  0
   39.3654   32.0150   50.8218 H   0  0  0  0  0  0  0  0  0  0  0  0
   37.6595   30.3367   51.6503 H   0  0  0  0  0  0  0  0  0  0  0  0
   35.9712   29.5131   50.0434 H   0  0  0  0  0  0  0  0  0  0  0  0
  2  1  1  0
  3 15  1  0
  3  2  1  0
  3  1  1  0
  4  8  2  0
  4 10  1  0
  5  4  1  0
  6  5  2  0
  6  7  1  0
  7  1  1  0
  7  8  1  0
  9 14  2  0
 10  9  1  0
 11 12  1  0
 11 10  2  0
 12 13  2  0
 13 14  1  0
 15 19  1  0
 16 17  1  0
 16 15  2  0
 17 18  1  0
 18 19  2  0
 18 20  1  0
 20 25  1  0
 21 20  2  0
 21 22  1  0
 22 23  2  0
 23 24  1  0
 25 24  2  0
  1 26  1  1
  2 27  1  0
  2 28  1  0
  3 29  1  6
  5 30  1  0
  6 31  1  0
  9 32  1  0
 11 33  1  0
 13 34  1  0
 16 35  1  0
 17 36  1  0
 21 37  1  0
 22 38  1  0
 23 39  1  0
 24 40  1  0
 25 41  1  0
M  ISO  8  26  13  27  13  28  13  29  13  30  14  31  14  32  14  33  14
M  ISO  8  34  14  35  14  36   9  37  14  38  14  39  14  40  14  41  14
M  END
>  <minimizedAffinity>  (1) 
-6.62041235

>  <minimizedRMSD>  (1) 
5.72294378

$$$$
