
     RDKit          3D

 40 42  0  0  0  0  0  0  0  0999 V2000
   31.7400   26.4370   47.7300 C   0  0  0  0  0  0  0  0  0  0  0  0
   31.8080   25.0690   47.9070 C   0  0  0  0  0  0  0  0  0  0  0  0
   32.8840   24.2830   47.4910 C   0  0  0  0  0  0  0  0  0  0  0  0
   33.9670   24.9260   46.8490 C   0  0  0  0  0  0  0  0  0  0  0  0
   33.8770   26.2790   46.6850 C   0  0  0  0  0  0  0  0  0  0  0  0
   32.8260   27.0430   47.0950 C   0  0  0  0  0  0  0  0  0  0  0  0
   30.5850   27.6140   49.4970 C   0  0  0  0  0  0  0  0  0  0  0  0
   30.5470   27.0900   48.1980 C   0  0  0  0  0  0  0  0  0  0  0  0
   29.3670   27.2360   47.4590 C   0  0  0  0  0  0  0  0  0  0  0  0
   28.3140   27.8760   48.0290 N   0  0  0  0  0  0  0  0  0  0  0  0
   28.3750   28.3770   49.2970 C   0  0  0  0  0  0  0  0  0  0  0  0
   29.5110   28.2440   50.0260 N   0  0  0  0  0  0  0  0  0  0  0  0
   29.1790   26.7290   46.0680 C   0  0  0  0  0  0  0  0  0  0  0  0
   27.9140   27.1210   45.5940 F   0  0  0  0  0  0  0  0  0  0  0  0
   30.1100   27.1070   45.1720 F   0  0  0  0  0  0  0  0  0  0  0  0
   29.1020   25.3400   46.0850 F   0  0  0  0  0  0  0  0  0  0  0  0
   32.7540   28.7760   46.8990 S   0  0  0  0  0  0  0  0  0  0  0  0
   33.6580   29.6460   49.7450 Cl  0  0  0  0  0  0  0  0  0  0  0  0
   34.6710   29.9510   48.3590 C   0  0  0  0  0  0  0  0  0  0  0  0
   34.3090   29.6030   47.0700 C   0  0  0  0  0  0  0  0  0  0  0  0
   35.1220   29.8770   46.0030 C   0  0  0  0  0  0  0  0  0  0  0  0
   36.3380   30.5220   46.2620 C   0  0  0  0  0  0  0  0  0  0  0  0
   36.7060   30.8740   47.5620 C   0  0  0  0  0  0  0  0  0  0  0  0
   35.8660   30.5860   48.6160 C   0  0  0  0  0  0  0  0  0  0  0  0
   36.2400   30.9380   49.8990 O   0  0  0  0  0  0  0  0  0  0  0  0
   38.7280   31.4050   50.4780 O   0  0  0  0  0  0  0  0  0  0  0  0
   37.6360   30.3470   50.6630 P   0  0  0  0  0  0  0  0  0  0  0  0
   37.4030   30.1200   52.3200 O   0  0  0  0  0  0  0  0  0  0  0  0
   38.1850   28.9020   49.9660 O   0  0  0  0  0  0  0  0  0  0  0  0
   30.9643   24.5692   48.4053 H   0  0  0  0  0  0  0  0  0  0  0  0
   32.8890   23.1957   47.6578 H   0  0  0  0  0  0  0  0  0  0  0  0
   34.8433   24.3617   46.4972 H   0  0  0  0  0  0  0  0  0  0  0  0
   34.7140   26.7889   46.1856 H   0  0  0  0  0  0  0  0  0  0  0  0
   31.5021   27.5115   50.0957 H   0  0  0  0  0  0  0  0  0  0  0  0
   27.5021   28.8891   49.7281 H   0  0  0  0  0  0  0  0  0  0  0  0
   34.8306   29.6005   44.9790 H   0  0  0  0  0  0  0  0  0  0  0  0
   37.0147   30.7553   45.4268 H   0  0  0  0  0  0  0  0  0  0  0  0
   37.6652   31.3806   47.7448 H   0  0  0  0  0  0  0  0  0  0  0  0
   38.0135   30.7148   52.8236 H   0  0  0  0  0  0  0  0  0  0  0  0
   38.4281   28.2621   50.6812 H   0  0  0  0  0  0  0  0  0  0  0  0
  1  2  2  0
  1  8  1  0
  3  2  1  0
  4  3  2  0
  5  4  1  0
  5  6  2  0
  6  1  1  0
  7 12  2  0
  8  7  1  0
  9 10  1  0
  9  8  2  0
 10 11  2  0
 11 12  1  0
 13 16  1  0
 13  9  1  0
 14 13  1  0
 15 13  1  0
 17 20  1  0
 17  6  1  0
 19 24  2  0
 19 18  1  0
 20 19  1  0
 21 22  1  0
 21 20  2  0
 22 23  2  0
 23 24  1  0
 24 25  1  0
 25 27  1  0
 26 27  2  0
 27 28  1  0
 29 27  1  0
  2 30  1  0
  3 31  1  0
  4 32  1  0
  5 33  1  0
  7 34  1  0
 11 35  1  0
 21 36  1  0
 22 37  1  0
 23 38  1  0
 28 39  1  0
 29 40  1  0
M  ISO  8  30  14  31  14  32  14  33  14  34  14  35  14  36  14  37  14
M  ISO  3  38  14  39   3  40   3
M  END
>  <minimizedAffinity>  (1) 
-5.38589621

>  <minimizedRMSD>  (1) 
3.68724179

$$$$
