
     RDKit          3D

 44 46  0  0  0  0  0  0  0  0999 V2000
   34.2810   28.7750   48.1270 C   0  0  0  0  0  0  0  0  0  0  0  0
   33.4050   27.6850   47.5600 C   0  0  0  0  0  0  0  0  0  0  0  0
   31.9660   28.0230   47.6340 C   0  0  0  0  0  0  0  0  0  0  0  0
   31.2520   27.5820   48.7380 C   0  0  0  0  0  0  0  0  0  0  0  0
   29.9220   27.8370   48.9070 C   0  0  0  0  0  0  0  0  0  0  0  0
   29.2820   28.5370   47.9790 N   0  0  0  0  0  0  0  0  0  0  0  0
   29.9770   28.9730   46.8920 C   0  0  0  0  0  0  0  0  0  0  0  0
   31.2880   28.7270   46.7150 N   0  0  0  0  0  0  0  0  0  0  0  0
   29.2250   29.7610   45.8600 C   0  0  0  0  0  0  0  0  0  0  0  0
   27.9770   30.1440   46.3670 O   0  0  0  0  0  0  0  0  0  0  0  0
   26.3130   32.1340   46.4110 O   0  0  0  0  0  0  0  0  0  0  0  0
   27.2910   31.3920   45.4980 P   0  0  0  0  0  0  0  0  0  0  0  0
   28.4740   32.3930   44.8760 O   0  0  0  0  0  0  0  0  0  0  0  0
   26.3230   30.7450   44.2500 O   0  0  0  0  0  0  0  0  0  0  0  0
   34.7610   28.4050   49.4160 O   0  0  0  0  0  0  0  0  0  0  0  0
   37.1390   30.0090   51.6140 C   0  0  0  0  0  0  0  0  0  0  0  0
   37.9100   30.7180   50.6710 C   0  0  0  0  0  0  0  0  0  0  0  0
   37.5650   30.6030   49.3310 C   0  0  0  0  0  0  0  0  0  0  0  0
   36.4910   29.7980   49.0440 N   0  0  0  0  0  0  0  0  0  0  0  0
   35.7730   29.1330   49.9580 C   0  0  0  0  0  0  0  0  0  0  0  0
   36.1150   29.2500   51.2620 N   0  0  0  0  0  0  0  0  0  0  0  0
   38.7820   33.2270   49.2790 F   0  0  0  0  0  0  0  0  0  0  0  0
   38.8100   32.4700   48.1830 C   0  0  0  0  0  0  0  0  0  0  0  0
   38.2380   31.2540   48.2280 C   0  0  0  0  0  0  0  0  0  0  0  0
   38.3200   30.5420   47.0310 C   0  0  0  0  0  0  0  0  0  0  0  0
   38.9320   31.0440   45.9060 C   0  0  0  0  0  0  0  0  0  0  0  0
   39.5030   32.2970   45.9110 C   0  0  0  0  0  0  0  0  0  0  0  0
   39.4300   33.0050   47.0780 C   0  0  0  0  0  0  0  0  0  0  0  0
   33.6967   29.7032   48.2104 H   0  0  0  0  0  0  0  0  0  0  0  0
   35.1395   28.9282   47.4566 H   0  0  0  0  0  0  0  0  0  0  0  0
   33.5803   26.7594   48.1280 H   0  0  0  0  0  0  0  0  0  0  0  0
   33.6668   27.5619   46.4987 H   0  0  0  0  0  0  0  0  0  0  0  0
   31.7797   27.0024   49.5098 H   0  0  0  0  0  0  0  0  0  0  0  0
   29.3900   27.4688   49.7966 H   0  0  0  0  0  0  0  0  0  0  0  0
   29.0794   29.1413   44.9629 H   0  0  0  0  0  0  0  0  0  0  0  0
   29.8019   30.6611   45.6013 H   0  0  0  0  0  0  0  0  0  0  0  0
   28.9732   32.8154   45.6193 H   0  0  0  0  0  0  0  0  0  0  0  0
   25.5684   30.2407   44.6454 H   0  0  0  0  0  0  0  0  0  0  0  0
   37.3981   30.0898   52.6800 H   0  0  0  0  0  0  0  0  0  0  0  0
   38.7585   31.3429   50.9867 H   0  0  0  0  0  0  0  0  0  0  0  0
   37.8764   29.5365   46.9849 H   0  0  0  0  0  0  0  0  0  0  0  0
   38.9657   30.4361   44.9898 H   0  0  0  0  0  0  0  0  0  0  0  0
   39.9949   32.7090   45.0176 H   0  0  0  0  0  0  0  0  0  0  0  0
   39.8709   34.0112   47.1338 H   0  0  0  0  0  0  0  0  0  0  0  0
  1 15  1  0
  2  3  1  0
  2  1  1  0
  3  4  2  0
  4  5  1  0
  6  5  2  0
  7  6  1  0
  8  7  2  0
  8  3  1  0
  9 10  1  0
  9  7  1  0
 12 10  1  0
 12 11  2  0
 13 12  1  0
 14 12  1  0
 15 20  1  0
 17 16  2  0
 18 17  1  0
 19 18  2  0
 19 20  1  0
 20 21  2  0
 21 16  1  0
 23 24  2  0
 23 22  1  0
 24 18  1  0
 25 24  1  0
 26 27  1  0
 26 25  2  0
 27 28  2  0
 28 23  1  0
  1 29  1  0
  1 30  1  0
  2 31  1  0
  2 32  1  0
  4 33  1  0
  5 34  1  0
  9 35  1  0
  9 36  1  0
 13 37  1  0
 14 38  1  0
 16 39  1  0
 17 40  1  0
 25 41  1  0
 26 42  1  0
 27 43  1  0
 28 44  1  0
M  ISO  8  29   8  30   8  31   8  32   8  33  14  34  14  35   8  36   8
M  ISO  8  37   3  38   3  39  14  40  14  41  14  42  14  43  14  44  14
M  END
>  <minimizedAffinity>  (1) 
-6.56933069

>  <minimizedRMSD>  (1) 
1.21753848

$$$$
