
     RDKit          3D

 29 30  0  0  0  0  0  0  0  0999 V2000
   37.8770   31.2070   47.9730 C   0  0  0  0  0  0  0  0  0  0  0  0
   37.2120   31.1270   46.7640 C   0  0  0  0  0  0  0  0  0  0  0  0
   37.9540   31.8070   45.8190 C   0  0  0  0  0  0  0  0  0  0  0  0
   39.0520   32.2850   46.4740 N   0  0  0  0  0  0  0  0  0  0  0  0
   38.9980   31.9210   47.7600 N   0  0  0  0  0  0  0  0  0  0  0  0
   37.3610   30.1470   51.5460 C   0  0  0  0  0  0  0  0  0  0  0  0
   37.9280   30.7780   50.4470 C   0  0  0  0  0  0  0  0  0  0  0  0
   37.3550   30.5900   49.1760 C   0  0  0  0  0  0  0  0  0  0  0  0
   36.2660   29.7840   49.1150 N   0  0  0  0  0  0  0  0  0  0  0  0
   35.7380   29.1840   50.2040 C   0  0  0  0  0  0  0  0  0  0  0  0
   36.2870   29.3700   51.4020 N   0  0  0  0  0  0  0  0  0  0  0  0
   40.1050   33.0670   45.8390 C   0  0  0  0  0  0  0  0  0  0  0  0
   40.3120   32.5450   44.4200 C   0  0  0  0  0  0  0  0  0  0  0  0
   40.9130   31.2680   44.4280 O   0  0  0  0  0  0  0  0  0  0  0  0
   39.1890   29.6260   43.3880 O   0  0  0  0  0  0  0  0  0  0  0  0
   40.4580   30.3890   43.0540 P   0  0  0  0  0  0  0  0  0  0  0  0
   40.0830   31.5030   41.8530 O   0  0  0  0  0  0  0  0  0  0  0  0
   41.6190   29.2720   42.5860 O   0  0  0  0  0  0  0  0  0  0  0  0
   36.2571   30.6110   46.5857 H   0  0  0  0  0  0  0  0  0  0  0  0
   37.7099   31.9372   44.7544 H   0  0  0  0  0  0  0  0  0  0  0  0
   37.8014   30.2892   52.5439 H   0  0  0  0  0  0  0  0  0  0  0  0
   38.8148   31.4174   50.5686 H   0  0  0  0  0  0  0  0  0  0  0  0
   34.8522   28.5401   50.1004 H   0  0  0  0  0  0  0  0  0  0  0  0
   39.8103   34.1262   45.8047 H   0  0  0  0  0  0  0  0  0  0  0  0
   41.0389   32.9749   46.4128 H   0  0  0  0  0  0  0  0  0  0  0  0
   40.9613   33.2436   43.8720 H   0  0  0  0  0  0  0  0  0  0  0  0
   39.3295   32.4643   43.9320 H   0  0  0  0  0  0  0  0  0  0  0  0
   39.7965   32.3540   42.2700 H   0  0  0  0  0  0  0  0  0  0  0  0
   42.0350   28.8718   43.3903 H   0  0  0  0  0  0  0  0  0  0  0  0
  1  8  1  0
  2  1  1  0
  3  4  1  0
  3  2  2  0
  4  5  1  0
  5  1  2  0
  7  6  2  0
  8  7  1  0
  9  8  2  0
  9 10  1  0
 10 11  2  0
 11  6  1  0
 12  4  1  0
 13 14  1  0
 13 12  1  0
 16 15  2  0
 16 14  1  0
 17 16  1  0
 18 16  1  0
  2 19  1  0
  3 20  1  0
  6 21  1  0
  7 22  1  0
 10 23  1  0
 12 24  1  0
 12 25  1  0
 13 26  1  0
 13 27  1  0
 17 28  1  0
 18 29  1  0
M  ISO  8  19  14  20  14  21  14  22  14  23  14  24   8  25   8  26   8
M  ISO  3  27   8  28   3  29   3
M  END
>  <minimizedAffinity>  (1) 
-5.3304143

>  <minimizedRMSD>  (1) 
1.26759064

$$$$
