
     RDKit          3D

 37 38  0  0  1  0  0  0  0  0999 V2000
   37.0910   30.9660   49.0460 C   0  0  0  0  0  0  0  0  0  0  0  0
   36.8440   31.9230   50.0410 C   0  0  0  0  0  0  0  0  0  0  0  0
   37.4620   33.1630   50.0530 C   0  0  0  0  0  0  0  0  0  0  0  0
   38.3650   33.4870   49.0440 C   0  0  0  0  0  0  0  0  0  0  0  0
   38.6010   32.5450   48.0720 C   0  0  0  0  0  0  0  0  0  0  0  0
   37.9690   31.3150   48.0870 C   0  0  0  0  0  0  0  0  0  0  0  0
   36.3980   29.7010   49.1210 C   0  0  0  0  0  0  0  0  0  0  0  0
   36.9200   28.8540   49.9360 O   0  0  0  0  0  0  0  0  0  0  0  0
   33.6250   30.1700   46.8340 C   0  0  0  0  0  0  0  0  0  0  0  0
   32.9600   28.9390   46.8440 C   0  0  0  0  0  0  0  0  0  0  0  0
   33.4740   27.9490   47.6440 C   0  0  0  0  0  0  0  0  0  0  0  0
   34.5830   28.1870   48.3820 N   0  0  0  0  0  0  0  0  0  0  0  0
   35.2000   29.3570   48.3600 C   0  0  0  0  0  0  0  0  0  0  0  0
   34.7080   30.3330   47.5850 N   0  0  0  0  0  0  0  0  0  0  0  0
   38.3300   30.4380   46.9920 C   0  0  0  0  0  0  0  0  0  0  0  0
   38.8980   30.7900   45.8470 C   0  0  0  0  0  0  0  0  0  0  0  0
   39.3110   30.0100   44.6720 C   0  0  0  0  0  0  0  0  0  0  0  0
   40.3450   30.6000   43.9520 O   0  0  0  0  0  0  0  0  0  0  0  0
   41.7310   29.1990   42.1910 O   0  0  0  0  0  0  0  0  0  0  0  0
   40.4420   29.9670   42.3940 P   0  0  0  0  0  0  0  0  0  0  0  0
   40.4100   31.2730   41.3200 O   0  0  0  0  0  0  0  0  0  0  0  0
   39.1490   28.9220   42.1660 O   0  0  0  0  0  0  0  0  0  0  0  0
   36.1318   31.6796   50.8432 H   0  0  0  0  0  0  0  0  0  0  0  0
   37.2411   33.8852   50.8528 H   0  0  0  0  0  0  0  0  0  0  0  0
   38.8718   34.4631   49.0256 H   0  0  0  0  0  0  0  0  0  0  0  0
   39.3096   32.7747   47.2626 H   0  0  0  0  0  0  0  0  0  0  0  0
   37.0277   29.3079   48.3092 H   0  0  0  0  0  0  0  0  0  0  0  0
   36.7436   29.1402   50.8672 H   0  0  0  0  0  0  0  0  0  0  0  0
   33.2538   30.9958   46.2093 H   0  0  0  0  0  0  0  0  0  0  0  0
   32.0600   28.7710   46.2343 H   0  0  0  0  0  0  0  0  0  0  0  0
   32.9854   26.9643   47.6851 H   0  0  0  0  0  0  0  0  0  0  0  0
   38.1099   29.3684   47.1244 H   0  0  0  0  0  0  0  0  0  0  0  0
   39.0976   31.8682   45.7602 H   0  0  0  0  0  0  0  0  0  0  0  0
   39.6444   29.0183   45.0116 H   0  0  0  0  0  0  0  0  0  0  0  0
   38.4416   29.9495   44.0008 H   0  0  0  0  0  0  0  0  0  0  0  0
   40.3892   32.1204   41.8314 H   0  0  0  0  0  0  0  0  0  0  0  0
   38.7961   28.6368   43.0459 H   0  0  0  0  0  0  0  0  0  0  0  0
  1  7  1  0
  1  2  2  0
  2  3  1  0
  4  3  2  0
  5  6  2  0
  5  4  1  0
  6  1  1  0
  7  8  1  0
  9 10  2  0
  9 14  1  0
 10 11  1  0
 11 12  2  0
 13 12  1  0
 13  7  1  0
 14 13  2  0
 15  6  1  0
 16 15  2  0
 17 16  1  0
 18 17  1  0
 19 20  2  0
 20 18  1  0
 21 20  1  0
 22 20  1  0
  2 23  1  0
  3 24  1  0
  4 25  1  0
  5 26  1  0
  7 27  1  0
  8 28  1  0
  9 29  1  0
 10 30  1  0
 11 31  1  0
 15 32  1  0
 16 33  1  0
 17 34  1  0
 17 35  1  0
 21 36  1  0
 22 37  1  0
M  ISO  8  23  14  24  14  25  14  26  14  27   8  28   3  29  14  30  14
M  ISO  5  31  14  34   8  35   8  36   3  37   3
M  END
>  <minimizedAffinity>  (1) 
-5.72098684

>  <minimizedRMSD>  (1) 
0.555093944

$$$$
