
     RDKit          3D

 34 36  0  0  1  0  0  0  0  0999 V2000
   35.7620   29.0970   49.7330 C   0  0  0  0  0  0  0  0  0  0  0  0
   34.7180   29.5830   50.4850 C   0  0  0  0  0  0  0  0  0  0  0  0
   33.5360   29.0390   49.9630 C   0  0  0  0  0  0  0  0  0  0  0  0
   33.9460   28.2460   48.9140 C   0  0  0  0  0  0  0  0  0  0  0  0
   35.2550   28.3090   48.8140 O   0  0  0  0  0  0  0  0  0  0  0  0
   37.1450   29.4590   50.0020 C   0  0  0  0  0  0  0  0  0  0  0  0
   37.7660   28.8630   50.8920 O   0  0  0  0  0  0  0  0  0  0  0  0
   37.7120   30.5050   49.1990 C   0  0  0  0  0  0  0  0  0  0  0  0
   38.0490   31.6830   49.8470 C   0  0  0  0  0  0  0  0  0  0  0  0
   38.6010   32.7210   49.0900 C   0  0  0  0  0  0  0  0  0  0  0  0
   38.7800   32.5180   47.7410 N   0  0  0  0  0  0  0  0  0  0  0  0
   38.4420   31.3660   47.1490 C   0  0  0  0  0  0  0  0  0  0  0  0
   37.9120   30.3640   47.8660 N   0  0  0  0  0  0  0  0  0  0  0  0
   33.0680   27.4570   48.0500 C   0  0  0  0  0  0  0  0  0  0  0  0
   33.3320   26.2200   47.8820 O   0  0  0  0  0  0  0  0  0  0  0  0
   31.8890   28.0940   47.3710 C   0  0  1  0  0  0  0  0  0  0  0  0
   30.9180   26.9710   46.8280 C   0  0  0  0  0  0  0  0  0  0  0  0
   30.5380   27.9120   47.8990 C   0  0  1  0  0  0  0  0  0  0  0  0
   30.4720   27.5150   49.2300 O   0  0  0  0  0  0  0  0  0  0  0  0
   27.8260   27.2890   49.2610 O   0  0  0  0  0  0  0  0  0  0  0  0
   29.0090   27.8580   49.9780 P   0  0  0  0  0  0  0  0  0  0  0  0
   29.0560   27.0670   51.4960 O   0  0  0  0  0  0  0  0  0  0  0  0
   28.7960   29.5130   50.2520 O   0  0  0  0  0  0  0  0  0  0  0  0
   34.7961   30.2719   51.3390 H   0  0  0  0  0  0  0  0  0  0  0  0
   32.5073   29.2082   50.3140 H   0  0  0  0  0  0  0  0  0  0  0  0
   37.8864   31.7983   50.9288 H   0  0  0  0  0  0  0  0  0  0  0  0
   38.8845   33.6741   49.5603 H   0  0  0  0  0  0  0  0  0  0  0  0
   38.5999   31.2403   46.0677 H   0  0  0  0  0  0  0  0  0  0  0  0
   32.4271   28.9929   47.0357 H   0  0  0  0  0  0  0  0  0  0  0  0
   30.4716   27.0559   45.8263 H   0  0  0  0  0  0  0  0  0  0  0  0
   30.9557   25.8784   46.7063 H   0  0  0  0  0  0  0  0  0  0  0  0
   29.6426   28.5426   48.0015 H   0  0  0  0  0  0  0  0  0  0  0  0
   29.0160   27.7405   52.2205 H   0  0  0  0  0  0  0  0  0  0  0  0
   28.7737   29.6860   51.2265 H   0  0  0  0  0  0  0  0  0  0  0  0
  1  6  1  0
  1  2  2  0
  3  2  1  0
  4  3  2  0
  5  4  1  0
  5  1  1  0
  6  7  2  0
  8  9  2  0
  8  6  1  0
 10  9  1  0
 11 10  2  0
 12 11  1  0
 12 13  2  0
 13  8  1  0
 14  4  1  0
 15 14  2  0
 16 18  1  0
 16 14  1  0
 17 16  1  0
 17 18  1  0
 18 19  1  0
 19 21  1  0
 20 21  2  0
 21 23  1  0
 21 22  1  0
  2 24  1  0
  3 25  1  0
  9 26  1  0
 10 27  1  0
 12 28  1  0
 16 29  1  6
 17 30  1  0
 17 31  1  0
 18 32  1  6
 22 33  1  0
 23 34  1  0
M  ISO  8  24  14  25  14  26  14  27  14  28  14  29  13  30  13  31  13
M  ISO  3  32  13  33   3  34   3
M  END
>  <minimizedAffinity>  (1) 
-6.02246237

>  <minimizedRMSD>  (1) 
2.8273499

$$$$
