
     RDKit          3D

 30 32  0  0  0  0  0  0  0  0999 V2000
   39.7230   30.9530   44.9470 C   0  0  0  0  0  0  0  0  0  0  0  0
   40.2390   32.2450   44.9810 C   0  0  0  0  0  0  0  0  0  0  0  0
   40.0690   33.1640   45.9830 C   0  0  0  0  0  0  0  0  0  0  0  0
   39.3220   32.7580   47.0420 N   0  0  0  0  0  0  0  0  0  0  0  0
   38.8010   31.4920   47.0370 C   0  0  0  0  0  0  0  0  0  0  0  0
   38.9960   30.6310   46.0310 N   0  0  0  0  0  0  0  0  0  0  0  0
   39.3630   28.1350   42.7140 C   0  0  0  0  0  0  0  0  0  0  0  0
   40.3590   28.3120   41.7370 C   0  0  0  0  0  0  0  0  0  0  0  0
   41.1560   29.4430   41.8840 C   0  0  0  0  0  0  0  0  0  0  0  0
   40.9350   30.2810   42.9240 N   0  0  0  0  0  0  0  0  0  0  0  0
   39.9710   30.0600   43.8240 C   0  0  0  0  0  0  0  0  0  0  0  0
   39.1400   28.9810   43.7630 N   0  0  0  0  0  0  0  0  0  0  0  0
   40.5100   27.3820   40.6900 N   0  0  0  0  0  0  0  0  0  0  0  0
   37.9820   30.9440   48.1160 C   0  0  0  0  0  0  0  0  0  0  0  0
   36.6260   30.8620   47.8840 C   0  0  0  0  0  0  0  0  0  0  0  0
   36.0060   30.3360   48.9730 N   0  0  0  0  0  0  0  0  0  0  0  0
   36.9940   30.0910   49.8890 C   0  0  0  0  0  0  0  0  0  0  0  0
   38.1820   30.4640   49.3550 N   0  0  0  0  0  0  0  0  0  0  0  0
   36.8890   29.5180   51.2590 C   0  0  0  0  0  0  0  0  0  0  0  0
   35.6020   29.1590   51.5830 F   0  0  0  0  0  0  0  0  0  0  0  0
   37.2930   30.4420   52.2240 F   0  0  0  0  0  0  0  0  0  0  0  0
   37.7170   28.4170   51.4120 F   0  0  0  0  0  0  0  0  0  0  0  0
   40.8435   32.5598   44.1176 H   0  0  0  0  0  0  0  0  0  0  0  0
   40.5110   34.1700   45.9327 H   0  0  0  0  0  0  0  0  0  0  0  0
   38.7157   27.2499   42.6270 H   0  0  0  0  0  0  0  0  0  0  0  0
   41.9583   29.6543   41.1618 H   0  0  0  0  0  0  0  0  0  0  0  0
   39.8879   26.5629   40.6350 H   0  0  0  0  0  0  0  0  0  0  0  0
   41.2425   27.5210   39.9793 H   0  0  0  0  0  0  0  0  0  0  0  0
   36.1219   31.1749   46.9577 H   0  0  0  0  0  0  0  0  0  0  0  0
   34.9979   30.1578   49.0863 H   0  0  0  0  0  0  0  0  0  0  0  0
  1  2  2  0
  1  6  1  0
  2  3  1  0
  3  4  2  0
  5  4  1  0
  5 14  1  0
  6  5  2  0
  7 12  2  0
  8  9  2  0
  8  7  1  0
  9 10  1  0
 10 11  2  0
 11  1  1  0
 12 11  1  0
 13  8  1  0
 14 18  1  0
 15 14  2  0
 15 16  1  0
 16 17  1  0
 17 19  1  0
 18 17  2  0
 19 22  1  0
 19 20  1  0
 19 21  1  0
  2 23  1  0
  3 24  1  0
  7 25  1  0
  9 26  1  0
 13 27  1  0
 13 28  1  0
 15 29  1  0
 16 30  1  0
M  ISO  6  23  14  24  14  25  14  26  14  29  14  30   9
M  END
>  <minimizedAffinity>  (1) 
-6.45164871

>  <minimizedRMSD>  (1) 
3.24991417

$$$$
