
     RDKit          3D

 25 26  0  0  1  0  0  0  0  0999 V2000
   36.3010   29.6390   51.0020 C   0  0  0  0  0  0  0  0  0  0  0  0
   37.2190   30.6630   50.7210 C   0  0  0  0  0  0  0  0  0  0  0  0
   37.4650   31.0020   49.3830 C   0  0  0  0  0  0  0  0  0  0  0  0
   36.7910   30.3110   48.4280 N   0  0  0  0  0  0  0  0  0  0  0  0
   35.9070   29.3230   48.7250 C   0  0  0  0  0  0  0  0  0  0  0  0
   35.6720   28.9990   50.0080 N   0  0  0  0  0  0  0  0  0  0  0  0
   38.3700   32.0180   49.0280 N   0  0  0  0  0  0  0  0  0  0  0  0
   38.6700   33.1750   49.8710 C   0  0  0  0  0  0  0  0  0  0  0  0
   39.5490   34.0690   49.0410 C   0  0  0  0  0  0  0  0  0  0  0  0
   39.1380   33.6630   47.6510 C   0  0  0  0  0  0  0  0  0  0  0  0
   39.1470   32.1430   47.8550 C   0  0  2  0  0  0  0  0  0  0  0  0
   38.7140   31.4110   46.6430 C   0  0  0  0  0  0  0  0  0  0  0  0
   37.4460   31.9090   46.3070 F   0  0  0  0  0  0  0  0  0  0  0  0
   38.5940   30.0670   46.7490 F   0  0  0  0  0  0  0  0  0  0  0  0
   39.5260   31.8400   45.5970 F   0  0  0  0  0  0  0  0  0  0  0  0
   36.0968   29.3602   52.0463 H   0  0  0  0  0  0  0  0  0  0  0  0
   37.7363   31.1902   51.5362 H   0  0  0  0  0  0  0  0  0  0  0  0
   35.3848   28.7894   47.9172 H   0  0  0  0  0  0  0  0  0  0  0  0
   37.7428   33.6986   50.1471 H   0  0  0  0  0  0  0  0  0  0  0  0
   39.1645   32.8767   50.8072 H   0  0  0  0  0  0  0  0  0  0  0  0
   39.3384   35.1319   49.2306 H   0  0  0  0  0  0  0  0  0  0  0  0
   40.6248   33.9644   49.2452 H   0  0  0  0  0  0  0  0  0  0  0  0
   39.8658   33.9849   46.8916 H   0  0  0  0  0  0  0  0  0  0  0  0
   38.1945   34.0931   47.2838 H   0  0  0  0  0  0  0  0  0  0  0  0
   40.1301   31.6700   47.9954 H   0  0  0  0  0  0  0  0  0  0  0  0
  2  1  2  0
  3  2  1  0
  4  5  1  0
  4  3  2  0
  5  6  2  0
  6  1  1  0
  7  3  1  0
  7  8  1  0
  9  8  1  0
 10 11  1  0
 10  9  1  0
 11  7  1  0
 12 14  1  0
 12 11  1  0
 13 12  1  0
 15 12  1  0
  1 16  1  0
  2 17  1  0
  5 18  1  0
  8 19  1  0
  8 20  1  0
  9 21  1  0
  9 22  1  0
 10 23  1  0
 10 24  1  0
 11 25  1  1
M  ISO  8  16  14  17  14  18  14  19  13  20  13  21  13  22  13  23  13
M  ISO  2  24  13  25  13
M  END
>  <minimizedAffinity>  (1) 
-4.57995081

>  <minimizedRMSD>  (1) 
1.92848885

$$$$
