
     RDKit          3D

 23 24  0  0  0  0  0  0  0  0999 V2000
   36.6280   31.9440   50.1360 Cl  0  0  0  0  0  0  0  0  0  0  0  0
   37.3490   31.7720   48.5610 C   0  0  0  0  0  0  0  0  0  0  0  0
   36.7800   30.7930   47.7890 C   0  0  0  0  0  0  0  0  0  0  0  0
   37.2890   30.5730   46.4990 C   0  0  0  0  0  0  0  0  0  0  0  0
   38.3230   31.3020   46.0080 C   0  0  0  0  0  0  0  0  0  0  0  0
   38.8850   32.2820   46.7970 C   0  0  0  0  0  0  0  0  0  0  0  0
   40.2140   33.2390   46.1970 Cl  0  0  0  0  0  0  0  0  0  0  0  0
   38.3970   32.5030   48.0490 C   0  0  0  0  0  0  0  0  0  0  0  0
   35.8370   28.9800   49.1730 C   0  0  0  0  0  0  0  0  0  0  0  0
   35.6620   29.8880   48.1110 C   0  0  0  0  0  0  0  0  0  0  0  0
   34.4400   29.8760   47.4270 C   0  0  0  0  0  0  0  0  0  0  0  0
   33.4870   28.9940   47.8190 N   0  0  0  0  0  0  0  0  0  0  0  0
   33.6900   28.1330   48.8460 C   0  0  0  0  0  0  0  0  0  0  0  0
   34.8670   28.1290   49.5220 N   0  0  0  0  0  0  0  0  0  0  0  0
   38.9470   33.5440   48.9670 C   0  0  0  0  0  0  0  0  0  0  0  0
   39.9980   34.2320   48.4290 F   0  0  0  0  0  0  0  0  0  0  0  0
   37.8930   34.3660   49.3070 F   0  0  0  0  0  0  0  0  0  0  0  0
   39.4090   32.9680   50.1380 F   0  0  0  0  0  0  0  0  0  0  0  0
   36.8385   29.7904   45.8709 H   0  0  0  0  0  0  0  0  0  0  0  0
   38.7070   31.1133   44.9946 H   0  0  0  0  0  0  0  0  0  0  0  0
   36.7884   28.9708   49.7250 H   0  0  0  0  0  0  0  0  0  0  0  0
   34.2571   30.5665   46.5905 H   0  0  0  0  0  0  0  0  0  0  0  0
   32.8936   27.4311   49.1342 H   0  0  0  0  0  0  0  0  0  0  0  0
  2  1  1  0
  3 10  1  0
  3  2  2  0
  4  3  1  0
  5  4  2  0
  5  6  1  0
  6  8  2  0
  7  6  1  0
  8  2  1  0
  8 15  1  0
  9 14  2  0
 10  9  1  0
 11 12  1  0
 11 10  2  0
 12 13  2  0
 13 14  1  0
 15 17  1  0
 15 18  1  0
 16 15  1  0
  4 19  1  0
  5 20  1  0
  9 21  1  0
 11 22  1  0
 13 23  1  0
M  ISO  5  19  14  20  14  21  14  22  14  23  14
M  END
>  <minimizedAffinity>  (1) 
-6.49106598

>  <minimizedRMSD>  (1) 
2.14718914

$$$$
