
     RDKit          3D

 28 29  0  0  0  0  0  0  0  0999 V2000
   33.8780   28.6570   48.7730 C   0  0  0  0  0  0  0  0  0  0  0  0
   33.0300   27.5130   48.2900 C   0  0  0  0  0  0  0  0  0  0  0  0
   31.6040   27.8870   48.1370 C   0  0  0  0  0  0  0  0  0  0  0  0
   30.7710   27.6390   49.2030 C   0  0  0  0  0  0  0  0  0  0  0  0
   29.4320   27.9390   49.1860 C   0  0  0  0  0  0  0  0  0  0  0  0
   28.9020   28.4970   48.0900 N   0  0  0  0  0  0  0  0  0  0  0  0
   29.7200   28.7410   47.0450 C   0  0  0  0  0  0  0  0  0  0  0  0
   31.0350   28.4520   47.0490 N   0  0  0  0  0  0  0  0  0  0  0  0
   34.9300   28.1680   49.5890 O   0  0  0  0  0  0  0  0  0  0  0  0
   37.3080   30.2140   51.3960 C   0  0  0  0  0  0  0  0  0  0  0  0
   37.9590   30.8480   50.3300 C   0  0  0  0  0  0  0  0  0  0  0  0
   37.5300   30.5240   49.0440 C   0  0  0  0  0  0  0  0  0  0  0  0
   36.5150   29.6220   48.9090 N   0  0  0  0  0  0  0  0  0  0  0  0
   35.9220   29.0390   49.9560 C   0  0  0  0  0  0  0  0  0  0  0  0
   36.3260   29.3430   51.2000 N   0  0  0  0  0  0  0  0  0  0  0  0
   38.1650   31.1520   47.8320 C   0  0  0  0  0  0  0  0  0  0  0  0
   39.1800   31.9750   48.3340 F   0  0  0  0  0  0  0  0  0  0  0  0
   38.6910   30.1620   47.0090 F   0  0  0  0  0  0  0  0  0  0  0  0
   37.1990   31.8590   47.1770 F   0  0  0  0  0  0  0  0  0  0  0  0
   33.2557   29.3508   49.3573 H   0  0  0  0  0  0  0  0  0  0  0  0
   34.3063   29.1812   47.9060 H   0  0  0  0  0  0  0  0  0  0  0  0
   33.4130   27.1774   47.3150 H   0  0  0  0  0  0  0  0  0  0  0  0
   33.0864   26.7142   49.0441 H   0  0  0  0  0  0  0  0  0  0  0  0
   31.1963   27.1805   50.1079 H   0  0  0  0  0  0  0  0  0  0  0  0
   28.8019   27.7238   50.0616 H   0  0  0  0  0  0  0  0  0  0  0  0
   29.2900   29.2001   46.1426 H   0  0  0  0  0  0  0  0  0  0  0  0
   37.6197   30.4447   52.4254 H   0  0  0  0  0  0  0  0  0  0  0  0
   38.7721   31.5691   50.5001 H   0  0  0  0  0  0  0  0  0  0  0  0
  1  9  1  0
  2  1  1  0
  3  2  1  0
  3  4  2  0
  5  4  1  0
  6  5  2  0
  7  8  2  0
  7  6  1  0
  8  3  1  0
  9 14  1  0
 11 10  2  0
 12 11  1  0
 13 12  2  0
 13 14  1  0
 14 15  2  0
 15 10  1  0
 16 17  1  0
 16 12  1  0
 18 16  1  0
 19 16  1  0
  1 20  1  0
  1 21  1  0
  2 22  1  0
  2 23  1  0
  4 24  1  0
  5 25  1  0
  7 26  1  0
 10 27  1  0
 11 28  1  0
M  ISO  8  20   8  21   8  22   8  23   8  24  14  25  14  26  14  27  14
M  ISO  1  28  14
M  END
>  <minimizedAffinity>  (1) 
-5.22029495

>  <minimizedRMSD>  (1) 
0.41171959

$$$$
