
     RDKit          3D

 23 24  0  0  0  0  0  0  0  0999 V2000
   38.3300   31.8250   48.9830 Br  0  0  0  0  0  0  0  0  0  0  0  0
   37.0490   31.0300   47.8060 C   0  0  0  0  0  0  0  0  0  0  0  0
   37.2920   30.9540   46.4480 C   0  0  0  0  0  0  0  0  0  0  0  0
   36.3230   30.3660   45.6660 C   0  0  0  0  0  0  0  0  0  0  0  0
   35.1420   29.8540   46.1460 C   0  0  0  0  0  0  0  0  0  0  0  0
   34.9370   29.9470   47.4990 C   0  0  0  0  0  0  0  0  0  0  0  0
   35.8950   30.5370   48.3280 C   0  0  0  0  0  0  0  0  0  0  0  0
   39.5890   33.2190   44.7290 C   0  0  0  0  0  0  0  0  0  0  0  0
   40.8320   32.5440   44.7840 C   0  0  0  0  0  0  0  0  0  0  0  0
   40.8590   31.3000   45.4230 C   0  0  0  0  0  0  0  0  0  0  0  0
   39.7050   30.8050   45.9530 N   0  0  0  0  0  0  0  0  0  0  0  0
   38.5360   31.4840   45.8780 C   0  0  0  0  0  0  0  0  0  0  0  0
   38.4770   32.6960   45.2630 N   0  0  0  0  0  0  0  0  0  0  0  0
   35.6710   30.6400   49.8130 C   0  0  0  0  0  0  0  0  0  0  0  0
   36.0200   31.9270   50.2100 F   0  0  0  0  0  0  0  0  0  0  0  0
   34.3650   30.3490   50.1380 F   0  0  0  0  0  0  0  0  0  0  0  0
   36.5350   29.7700   50.4120 F   0  0  0  0  0  0  0  0  0  0  0  0
   36.5071   30.3019   44.5834 H   0  0  0  0  0  0  0  0  0  0  0  0
   34.3986   29.3929   45.4792 H   0  0  0  0  0  0  0  0  0  0  0  0
   34.0080   29.5527   47.9366 H   0  0  0  0  0  0  0  0  0  0  0  0
   39.5345   34.1999   44.2342 H   0  0  0  0  0  0  0  0  0  0  0  0
   41.7400   32.9801   44.3421 H   0  0  0  0  0  0  0  0  0  0  0  0
   41.7970   30.7301   45.4966 H   0  0  0  0  0  0  0  0  0  0  0  0
  2  7  2  0
  2  1  1  0
  3  2  1  0
  4  5  1  0
  4  3  2  0
  5  6  2  0
  6  7  1  0
  7 14  1  0
  8  9  2  0
  8 13  1  0
  9 10  1  0
 10 11  2  0
 12 11  1  0
 12  3  1  0
 13 12  2  0
 14 16  1  0
 14 15  1  0
 14 17  1  0
  4 18  1  0
  5 19  1  0
  6 20  1  0
  8 21  1  0
  9 22  1  0
 10 23  1  0
M  ISO  6  18  14  19  14  20  14  21  14  22  14  23  14
M  END
>  <minimizedAffinity>  (1) 
-6.00646782

>  <minimizedRMSD>  (1) 
3.33591676

$$$$
