
     RDKit          3D

 22 23  0  0  0  0  0  0  0  0999 V2000
   37.1240   30.2460   50.2850 C   0  0  0  0  0  0  0  0  0  0  0  0
   37.5190   30.0980   51.4690 O   0  0  0  0  0  0  0  0  0  0  0  0
   37.8080   31.0940   49.3220 C   0  0  0  0  0  0  0  0  0  0  0  0
   38.0820   32.3930   49.7140 C   0  0  0  0  0  0  0  0  0  0  0  0
   38.7410   33.2340   48.8060 C   0  0  0  0  0  0  0  0  0  0  0  0
   39.0700   32.7040   47.5840 N   0  0  0  0  0  0  0  0  0  0  0  0
   38.7890   31.4440   47.2410 C   0  0  0  0  0  0  0  0  0  0  0  0
   38.1620   30.6460   48.1070 N   0  0  0  0  0  0  0  0  0  0  0  0
   35.9410   29.5480   49.8460 C   0  0  0  0  0  0  0  0  0  0  0  0
   34.7700   29.6120   50.5340 C   0  0  0  0  0  0  0  0  0  0  0  0
   33.8220   28.8360   49.8600 C   0  0  0  0  0  0  0  0  0  0  0  0
   34.5140   28.3270   48.7530 C   0  0  0  0  0  0  0  0  0  0  0  0
   35.7420   28.7830   48.8100 O   0  0  0  0  0  0  0  0  0  0  0  0
   33.8090   27.4460   47.8020 C   0  0  0  0  0  0  0  0  0  0  0  0
   32.4500   27.6520   47.9630 F   0  0  0  0  0  0  0  0  0  0  0  0
   34.0930   26.1200   47.9970 F   0  0  0  0  0  0  0  0  0  0  0  0
   34.1380   27.7790   46.4990 F   0  0  0  0  0  0  0  0  0  0  0  0
   37.7906   32.7556   50.7108 H   0  0  0  0  0  0  0  0  0  0  0  0
   38.9842   34.2756   49.0628 H   0  0  0  0  0  0  0  0  0  0  0  0
   39.0735   31.0657   46.2481 H   0  0  0  0  0  0  0  0  0  0  0  0
   34.5979   30.1773   51.4618 H   0  0  0  0  0  0  0  0  0  0  0  0
   32.7712   28.6641   50.1362 H   0  0  0  0  0  0  0  0  0  0  0  0
  1  2  2  0
  3  4  2  0
  3  1  1  0
  5  4  1  0
  6  5  2  0
  7  6  1  0
  7  8  2  0
  8  3  1  0
  9  1  1  0
  9 10  2  0
 11 10  1  0
 12 13  1  0
 12 11  2  0
 13  9  1  0
 14 15  1  0
 14 16  1  0
 14 12  1  0
 17 14  1  0
  4 18  1  0
  5 19  1  0
  7 20  1  0
 10 21  1  0
 11 22  1  0
M  ISO  5  18  14  19  14  20  14  21  14  22  14
M  END
>  <minimizedAffinity>  (1) 
-5.17665434

>  <minimizedRMSD>  (1) 
0.906644046

$$$$
