
     RDKit          3D

 23 24  0  0  0  0  0  0  0  0999 V2000
   37.3090   29.3520   51.0650 Br  0  0  0  0  0  0  0  0  0  0  0  0
   35.9600   29.3340   49.7060 C   0  0  0  0  0  0  0  0  0  0  0  0
   35.9940   30.2490   48.6780 C   0  0  0  0  0  0  0  0  0  0  0  0
   34.9860   30.1860   47.7220 C   0  0  0  0  0  0  0  0  0  0  0  0
   33.9690   29.2430   47.7780 C   0  0  0  0  0  0  0  0  0  0  0  0
   33.9740   28.3510   48.8180 C   0  0  0  0  0  0  0  0  0  0  0  0
   34.9710   28.4040   49.7760 C   0  0  0  0  0  0  0  0  0  0  0  0
   37.9920   33.1930   49.4440 C   0  0  0  0  0  0  0  0  0  0  0  0
   39.0210   33.1720   48.4680 C   0  0  0  0  0  0  0  0  0  0  0  0
   39.0120   32.1310   47.5460 C   0  0  0  0  0  0  0  0  0  0  0  0
   38.0230   31.1910   47.6280 N   0  0  0  0  0  0  0  0  0  0  0  0
   37.0500   31.2530   48.5900 C   0  0  0  0  0  0  0  0  0  0  0  0
   37.0420   32.2500   49.4870 N   0  0  0  0  0  0  0  0  0  0  0  0
   32.9400   29.2650   46.7020 C   0  0  0  0  0  0  0  0  0  0  0  0
   32.6960   30.5850   46.3800 F   0  0  0  0  0  0  0  0  0  0  0  0
   33.3730   28.5200   45.6210 F   0  0  0  0  0  0  0  0  0  0  0  0
   31.7560   28.6780   47.1130 F   0  0  0  0  0  0  0  0  0  0  0  0
   34.9950   30.9086   46.8926 H   0  0  0  0  0  0  0  0  0  0  0  0
   33.1829   27.5903   48.8916 H   0  0  0  0  0  0  0  0  0  0  0  0
   34.9632   27.6829   50.6066 H   0  0  0  0  0  0  0  0  0  0  0  0
   37.9738   34.0055   50.1853 H   0  0  0  0  0  0  0  0  0  0  0  0
   39.7976   33.9506   48.4414 H   0  0  0  0  0  0  0  0  0  0  0  0
   39.7852   32.0653   46.7664 H   0  0  0  0  0  0  0  0  0  0  0  0
  2  7  2  0
  2  1  1  0
  3  2  1  0
  4  5  1  0
  4  3  2  0
  5  6  2  0
  6  7  1  0
  8 13  2  0
  9  8  1  0
 10 11  1  0
 10  9  2  0
 11 12  2  0
 12  3  1  0
 12 13  1  0
 14 17  1  0
 14  5  1  0
 15 14  1  0
 16 14  1  0
  4 18  1  0
  6 19  1  0
  7 20  1  0
  8 21  1  0
  9 22  1  0
 10 23  1  0
M  ISO  6  18  14  19  14  20  14  21  14  22  14  23  14
M  END
>  <minimizedAffinity>  (1) 
-5.79022455

>  <minimizedRMSD>  (1) 
0.257868588

$$$$
