
     RDKit          3D

 40 42  0  0  0  0  0  0  0  0999 V2000
   36.0620   30.4200   46.5660 C   0  0  0  0  0  0  0  0  0  0  0  0
   34.7350   29.9910   46.5980 C   0  0  0  0  0  0  0  0  0  0  0  0
   34.0980   29.6800   45.4120 C   0  0  0  0  0  0  0  0  0  0  0  0
   34.6870   29.7650   44.1850 C   0  0  0  0  0  0  0  0  0  0  0  0
   36.0160   30.1930   44.1420 C   0  0  0  0  0  0  0  0  0  0  0  0
   36.6380   30.5010   45.3390 C   0  0  0  0  0  0  0  0  0  0  0  0
   37.9810   30.9180   45.1020 N   0  0  0  0  0  0  0  0  0  0  0  0
   39.2930   30.3420   45.1130 C   0  0  0  0  0  0  0  0  0  0  0  0
   40.1460   31.1750   46.0440 C   0  0  0  0  0  0  0  0  0  0  0  0
   40.3430   32.4370   45.4030 N   0  0  0  0  0  0  0  0  0  0  0  0
   39.3730   32.8170   44.4780 C   0  0  0  0  0  0  0  0  0  0  0  0
   37.9960   32.3060   44.7540 C   0  0  0  0  0  0  0  0  0  0  0  0
   37.3300   30.2440   49.9820 C   0  0  0  0  0  0  0  0  0  0  0  0
   38.0680   31.4370   50.0950 C   0  0  0  0  0  0  0  0  0  0  0  0
   38.1160   32.2820   48.9850 C   0  0  0  0  0  0  0  0  0  0  0  0
   37.4380   31.8740   47.8830 N   0  0  0  0  0  0  0  0  0  0  0  0
   36.7470   30.7500   47.7870 C   0  0  0  0  0  0  0  0  0  0  0  0
   36.6910   29.9240   48.8500 N   0  0  0  0  0  0  0  0  0  0  0  0
   37.2910   29.3550   51.1980 C   0  0  0  0  0  0  0  0  0  0  0  0
   35.9430   29.0570   51.4660 F   0  0  0  0  0  0  0  0  0  0  0  0
   38.0180   28.2590   50.9510 F   0  0  0  0  0  0  0  0  0  0  0  0
   37.7300   30.0860   52.2780 F   0  0  0  0  0  0  0  0  0  0  0  0
   38.8810   33.5190   49.1010 C   0  0  0  0  0  0  0  0  0  0  0  0
   39.6450   33.5330   50.2490 F   0  0  0  0  0  0  0  0  0  0  0  0
   39.7350   33.7580   48.0320 F   0  0  0  0  0  0  0  0  0  0  0  0
   37.9890   34.5990   49.0940 F   0  0  0  0  0  0  0  0  0  0  0  0
   34.2021   29.9014   47.5561 H   0  0  0  0  0  0  0  0  0  0  0  0
   33.0519   29.3433   45.4605 H   0  0  0  0  0  0  0  0  0  0  0  0
   34.1383   29.5072   43.2671 H   0  0  0  0  0  0  0  0  0  0  0  0
   36.5518   30.2825   43.1855 H   0  0  0  0  0  0  0  0  0  0  0  0
   39.2449   29.3044   45.4749 H   0  0  0  0  0  0  0  0  0  0  0  0
   39.7208   30.3319   44.0997 H   0  0  0  0  0  0  0  0  0  0  0  0
   39.6314   31.3149   47.0061 H   0  0  0  0  0  0  0  0  0  0  0  0
   41.1074   30.6807   46.2477 H   0  0  0  0  0  0  0  0  0  0  0  0
   40.3777   33.1595   46.1363 H   0  0  0  0  0  0  0  0  0  0  0  0
   39.6817   32.4464   43.4894 H   0  0  0  0  0  0  0  0  0  0  0  0
   39.3090   33.9136   44.5357 H   0  0  0  0  0  0  0  0  0  0  0  0
   37.5673   32.8823   45.5872 H   0  0  0  0  0  0  0  0  0  0  0  0
   37.4072   32.4236   43.8323 H   0  0  0  0  0  0  0  0  0  0  0  0
   38.5902   31.6953   51.0281 H   0  0  0  0  0  0  0  0  0  0  0  0
  1  2  2  0
  1 17  1  0
  3  2  1  0
  4  3  2  0
  5  4  1  0
  5  6  2  0
  6  1  1  0
  7  8  1  0
  7  6  1  0
  8  9  1  0
 10  9  1  0
 11 12  1  0
 11 10  1  0
 12  7  1  0
 13 14  2  0
 13 19  1  0
 15 23  1  0
 15 14  1  0
 16 15  2  0
 17 16  1  0
 17 18  2  0
 18 13  1  0
 19 20  1  0
 19 22  1  0
 21 19  1  0
 23 24  1  0
 25 23  1  0
 26 23  1  0
  2 27  1  0
  3 28  1  0
  4 29  1  0
  5 30  1  0
  8 31  1  0
  8 32  1  0
  9 33  1  0
  9 34  1  0
 10 35  1  0
 11 36  1  0
 11 37  1  0
 12 38  1  0
 12 39  1  0
 14 40  1  0
M  ISO  8  27  14  28  14  29  14  30  14  31  13  32  13  33  13  34  13
M  ISO  6  35   5  36  13  37  13  38  13  39  13  40  14
M  END
>  <minimizedAffinity>  (1) 
-7.47474241

>  <minimizedRMSD>  (1) 
0.221639618

$$$$
