
     RDKit          3D

 23 24  0  0  0  0  0  0  0  0999 V2000
   36.7680   32.2530   49.9740 Cl  0  0  0  0  0  0  0  0  0  0  0  0
   37.6290   31.7990   48.5440 C   0  0  0  0  0  0  0  0  0  0  0  0
   37.2460   30.7200   47.8050 C   0  0  0  0  0  0  0  0  0  0  0  0
   37.9870   30.4400   46.6910 C   0  0  0  0  0  0  0  0  0  0  0  0
   39.0730   31.1650   46.2810 C   0  0  0  0  0  0  0  0  0  0  0  0
   39.4380   32.2420   47.0380 C   0  0  0  0  0  0  0  0  0  0  0  0
   38.7270   32.5780   48.1780 C   0  0  0  0  0  0  0  0  0  0  0  0
   34.9930   28.3700   49.7420 C   0  0  0  0  0  0  0  0  0  0  0  0
   36.1260   29.0940   49.3490 C   0  0  0  0  0  0  0  0  0  0  0  0
   36.0940   29.9540   48.2420 C   0  0  0  0  0  0  0  0  0  0  0  0
   34.9080   30.0260   47.5990 N   0  0  0  0  0  0  0  0  0  0  0  0
   33.8200   29.3290   47.9780 C   0  0  0  0  0  0  0  0  0  0  0  0
   33.8510   28.5090   49.0350 N   0  0  0  0  0  0  0  0  0  0  0  0
   39.1160   33.7530   49.0170 C   0  0  0  0  0  0  0  0  0  0  0  0
   39.4820   33.2970   50.2630 F   0  0  0  0  0  0  0  0  0  0  0  0
   40.0650   34.5450   48.4490 F   0  0  0  0  0  0  0  0  0  0  0  0
   37.9540   34.5110   49.2160 F   0  0  0  0  0  0  0  0  0  0  0  0
   37.6902   29.5729   46.0826 H   0  0  0  0  0  0  0  0  0  0  0  0
   39.6320   30.8903   45.3743 H   0  0  0  0  0  0  0  0  0  0  0  0
   40.3056   32.8486   46.7390 H   0  0  0  0  0  0  0  0  0  0  0  0
   35.0330   27.6989   50.6127 H   0  0  0  0  0  0  0  0  0  0  0  0
   37.0597   28.9857   49.9204 H   0  0  0  0  0  0  0  0  0  0  0  0
   32.8861   29.4359   47.4067 H   0  0  0  0  0  0  0  0  0  0  0  0
  2  1  1  0
  3 10  1  0
  3  2  2  0
  4  3  1  0
  5  4  2  0
  5  6  1  0
  6  7  2  0
  7  2  1  0
  7 14  1  0
  9  8  2  0
 10  9  1  0
 11 12  1  0
 11 10  2  0
 12 13  2  0
 13  8  1  0
 14 17  1  0
 14 15  1  0
 16 14  1  0
  4 18  1  0
  5 19  1  0
  6 20  1  0
  8 21  1  0
  9 22  1  0
 12 23  1  0
M  ISO  6  18  14  19  14  20  14  21  14  22  14  23  14
M  END
>  <minimizedAffinity>  (1) 
-6.11623096

>  <minimizedRMSD>  (1) 
1.99014556

$$$$
