
     RDKit          3D

 25 26  0  0  0  0  0  0  0  0999 V2000
   39.1680   32.5910   47.2160 C   0  0  0  0  0  0  0  0  0  0  0  0
   39.3070   32.1840   45.8630 C   0  0  0  0  0  0  0  0  0  0  0  0
   38.4670   31.1690   45.3950 C   0  0  0  0  0  0  0  0  0  0  0  0
   37.5730   30.6390   46.2630 N   0  0  0  0  0  0  0  0  0  0  0  0
   37.4660   31.0440   47.5340 C   0  0  0  0  0  0  0  0  0  0  0  0
   38.2490   32.0090   48.0150 N   0  0  0  0  0  0  0  0  0  0  0  0
   36.4720   30.4020   48.3690 N   0  0  0  0  0  0  0  0  0  0  0  0
   35.0540   30.4130   48.1040 C   0  0  0  0  0  0  0  0  0  0  0  0
   34.4820   29.4560   49.0870 C   0  0  0  0  0  0  0  0  0  0  0  0
   35.6430   28.7130   49.6940 C   0  0  0  0  0  0  0  0  0  0  0  0
   36.7820   29.6580   49.5910 C   0  0  0  0  0  0  0  0  0  0  0  0
   40.3140   32.8240   44.9860 C   0  0  0  0  0  0  0  0  0  0  0  0
   40.1320   34.1910   45.0340 F   0  0  0  0  0  0  0  0  0  0  0  0
   41.5670   32.5510   45.5330 F   0  0  0  0  0  0  0  0  0  0  0  0
   40.3170   32.2940   43.7280 F   0  0  0  0  0  0  0  0  0  0  0  0
   39.8140   33.3864   47.6160 H   0  0  0  0  0  0  0  0  0  0  0  0
   38.5303   30.8128   44.3562 H   0  0  0  0  0  0  0  0  0  0  0  0
   34.6384   31.4202   48.2553 H   0  0  0  0  0  0  0  0  0  0  0  0
   34.8212   30.1339   47.0658 H   0  0  0  0  0  0  0  0  0  0  0  0
   33.9298   29.9994   49.8679 H   0  0  0  0  0  0  0  0  0  0  0  0
   33.7792   28.7630   48.6015 H   0  0  0  0  0  0  0  0  0  0  0  0
   35.4383   28.4637   50.7456 H   0  0  0  0  0  0  0  0  0  0  0  0
   35.8427   27.7593   49.1836 H   0  0  0  0  0  0  0  0  0  0  0  0
   37.7368   29.1199   49.4966 H   0  0  0  0  0  0  0  0  0  0  0  0
   36.8980   30.3006   50.4762 H   0  0  0  0  0  0  0  0  0  0  0  0
  1  6  2  0
  2  1  1  0
  3  2  2  0
  3  4  1  0
  4  5  2  0
  5  6  1  0
  5  7  1  0
  7 11  1  0
  8  7  1  0
  8  9  1  0
  9 10  1  0
 11 10  1  0
 12 13  1  0
 12 14  1  0
 12  2  1  0
 15 12  1  0
  1 16  1  0
  3 17  1  0
  8 18  1  0
  8 19  1  0
  9 20  1  0
  9 21  1  0
 10 22  1  0
 10 23  1  0
 11 24  1  0
 11 25  1  0
M  ISO  8  16  14  17  14  18  13  19  13  20  13  21  13  22  13  23  13
M  ISO  2  24  13  25  13
M  END
>  <minimizedAffinity>  (1) 
-5.36535215

>  <minimizedRMSD>  (1) 
2.39147067

$$$$
