
     RDKit          3D

 23 24  0  0  0  0  0  0  0  0999 V2000
   38.8070   32.4590   48.6040 Br  0  0  0  0  0  0  0  0  0  0  0  0
   38.2580   31.8030   46.9020 C   0  0  0  0  0  0  0  0  0  0  0  0
   37.2090   30.8940   46.8050 C   0  0  0  0  0  0  0  0  0  0  0  0
   36.8420   30.4430   45.5570 C   0  0  0  0  0  0  0  0  0  0  0  0
   37.5080   30.8930   44.4340 C   0  0  0  0  0  0  0  0  0  0  0  0
   38.5560   31.8020   44.5200 C   0  0  0  0  0  0  0  0  0  0  0  0
   38.9140   32.2450   45.7780 C   0  0  0  0  0  0  0  0  0  0  0  0
   36.6070   29.3650   50.2260 C   0  0  0  0  0  0  0  0  0  0  0  0
   37.2420   29.7460   49.0380 C   0  0  0  0  0  0  0  0  0  0  0  0
   36.5730   30.4820   48.0550 C   0  0  0  0  0  0  0  0  0  0  0  0
   35.2900   30.7820   48.3490 N   0  0  0  0  0  0  0  0  0  0  0  0
   34.6750   30.4200   49.4870 C   0  0  0  0  0  0  0  0  0  0  0  0
   35.3330   29.7180   50.4110 N   0  0  0  0  0  0  0  0  0  0  0  0
   40.0340   33.2230   45.9370 C   0  0  0  0  0  0  0  0  0  0  0  0
   41.2370   32.5610   45.8170 F   0  0  0  0  0  0  0  0  0  0  0  0
   39.9650   34.2060   44.9490 F   0  0  0  0  0  0  0  0  0  0  0  0
   39.9730   33.8540   47.1630 F   0  0  0  0  0  0  0  0  0  0  0  0
   36.0168   29.7229   45.4542 H   0  0  0  0  0  0  0  0  0  0  0  0
   37.2009   30.5221   43.4450 H   0  0  0  0  0  0  0  0  0  0  0  0
   39.0805   32.1552   43.6199 H   0  0  0  0  0  0  0  0  0  0  0  0
   37.1464   28.7870   50.9908 H   0  0  0  0  0  0  0  0  0  0  0  0
   38.2914   29.4598   48.8740 H   0  0  0  0  0  0  0  0  0  0  0  0
   33.6258   30.7032   49.6575 H   0  0  0  0  0  0  0  0  0  0  0  0
  2  1  1  0
  3  2  2  0
  3 10  1  0
  4  3  1  0
  5  6  1  0
  5  4  2  0
  6  7  2  0
  7 14  1  0
  7  2  1  0
  8 13  2  0
  9  8  1  0
 10 11  1  0
 10  9  2  0
 11 12  2  0
 12 13  1  0
 14 17  1  0
 15 14  1  0
 16 14  1  0
  4 18  1  0
  5 19  1  0
  6 20  1  0
  8 21  1  0
  9 22  1  0
 12 23  1  0
M  ISO  6  18  14  19  14  20  14  21  14  22  14  23  14
M  END
>  <minimizedAffinity>  (1) 
-5.584342

>  <minimizedRMSD>  (1) 
1.46175909

$$$$
