
     RDKit          3D

 28 29  0  0  1  0  0  0  0  0999 V2000
   36.3480   30.2410   48.6830 N   0  0  0  0  0  0  0  0  0  0  0  0
   37.7280   30.3650   48.3310 C   0  0  0  0  0  0  0  0  0  0  0  0
   38.1960   31.5600   49.1760 C   0  0  0  0  0  0  0  0  0  0  0  0
   36.9740   31.9920   49.9630 C   0  0  0  0  0  0  0  0  0  0  0  0
   36.2110   30.7070   50.0450 C   0  0  2  0  0  0  0  0  0  0  0  0
   35.2820   29.7590   47.8750 C   0  0  0  0  0  0  0  0  0  0  0  0
   35.3310   30.0730   46.5160 C   0  0  0  0  0  0  0  0  0  0  0  0
   34.3320   29.6420   45.6480 C   0  0  0  0  0  0  0  0  0  0  0  0
   33.3210   28.9040   46.2200 N   0  0  0  0  0  0  0  0  0  0  0  0
   33.3030   28.6160   47.5380 C   0  0  0  0  0  0  0  0  0  0  0  0
   34.2900   29.0470   48.3660 N   0  0  0  0  0  0  0  0  0  0  0  0
   32.1740   27.8100   48.0840 C   0  0  0  0  0  0  0  0  0  0  0  0
   32.3710   26.4590   47.8910 F   0  0  0  0  0  0  0  0  0  0  0  0
   32.1230   28.1180   49.4400 F   0  0  0  0  0  0  0  0  0  0  0  0
   31.0220   28.2260   47.4530 F   0  0  0  0  0  0  0  0  0  0  0  0
   36.7350   29.7530   51.0780 C   0  0  0  0  0  0  0  0  0  0  0  0
   37.4270   28.7110   50.4490 F   0  0  0  0  0  0  0  0  0  0  0  0
   35.7620   29.2790   51.8980 F   0  0  0  0  0  0  0  0  0  0  0  0
   37.6400   30.4010   51.9090 F   0  0  0  0  0  0  0  0  0  0  0  0
   38.2858   29.4537   48.5924 H   0  0  0  0  0  0  0  0  0  0  0  0
   37.8883   30.5085   47.2522 H   0  0  0  0  0  0  0  0  0  0  0  0
   39.0061   31.2580   49.8561 H   0  0  0  0  0  0  0  0  0  0  0  0
   38.5930   32.3746   48.5524 H   0  0  0  0  0  0  0  0  0  0  0  0
   37.2481   32.3624   50.9618 H   0  0  0  0  0  0  0  0  0  0  0  0
   36.4135   32.8213   49.5068 H   0  0  0  0  0  0  0  0  0  0  0  0
   35.1694   30.8156   50.3817 H   0  0  0  0  0  0  0  0  0  0  0  0
   36.1696   30.6685   46.1260 H   0  0  0  0  0  0  0  0  0  0  0  0
   34.3494   29.8763   44.5734 H   0  0  0  0  0  0  0  0  0  0  0  0
  1  5  1  0
  2  1  1  0
  2  3  1  0
  3  4  1  0
  4  5  1  0
  5 16  1  0
  6 11  1  0
  6  1  1  0
  7  6  2  0
  8  9  2  0
  8  7  1  0
  9 10  1  0
 10 12  1  0
 10 11  2  0
 12 14  1  0
 13 12  1  0
 15 12  1  0
 16 18  1  0
 16 19  1  0
 17 16  1  0
  2 20  1  0
  2 21  1  0
  3 22  1  0
  3 23  1  0
  4 24  1  0
  4 25  1  0
  5 26  1  1
  7 27  1  0
  8 28  1  0
M  ISO  8  20  13  21  13  22  13  23  13  24  13  25  13  26  13  27  14
M  ISO  1  28  14
M  END
>  <minimizedAffinity>  (1) 
-5.83840466

>  <minimizedRMSD>  (1) 
1.43806672

$$$$
