
     RDKit          3D

 20 21  0  0  1  0  0  0  0  0999 V2000
   36.7650   31.2880   50.1170 C   0  0  1  0  0  0  0  0  0  0  0  0
   36.4340   29.8700   50.0360 C   0  0  1  0  0  0  0  0  0  0  0  0
   37.4210   30.3040   51.0780 C   0  0  0  0  0  0  0  0  0  0  0  0
   37.7640   31.9170   49.1740 C   0  0  0  0  0  0  0  0  0  0  0  0
   38.2850   33.1760   49.5180 C   0  0  0  0  0  0  0  0  0  0  0  0
   39.1790   33.7080   48.6060 C   0  0  0  0  0  0  0  0  0  0  0  0
   39.5130   33.0350   47.4610 N   0  0  0  0  0  0  0  0  0  0  0  0
   38.9830   31.8260   47.1780 C   0  0  0  0  0  0  0  0  0  0  0  0
   38.0950   31.2650   48.0520 N   0  0  0  0  0  0  0  0  0  0  0  0
   35.1150   29.3140   50.4490 C   0  0  0  0  0  0  0  0  0  0  0  0
   34.8790   28.1240   49.7670 F   0  0  0  0  0  0  0  0  0  0  0  0
   35.0630   29.1070   51.8260 F   0  0  0  0  0  0  0  0  0  0  0  0
   34.1150   30.1920   50.0960 F   0  0  0  0  0  0  0  0  0  0  0  0
   36.1229   32.1804   50.1534 H   0  0  0  0  0  0  0  0  0  0  0  0
   36.4341   29.1506   49.2039 H   0  0  0  0  0  0  0  0  0  0  0  0
   38.4866   30.0516   50.9743 H   0  0  0  0  0  0  0  0  0  0  0  0
   37.5133   30.2065   52.1698 H   0  0  0  0  0  0  0  0  0  0  0  0
   38.0030   33.6995   50.4434 H   0  0  0  0  0  0  0  0  0  0  0  0
   39.6306   34.6912   48.8045 H   0  0  0  0  0  0  0  0  0  0  0  0
   39.2629   31.2985   46.2542 H   0  0  0  0  0  0  0  0  0  0  0  0
  1  3  1  0
  2  1  1  0
  2 10  1  0
  2  3  1  0
  4  5  2  0
  4  1  1  0
  6  5  1  0
  7  6  2  0
  8  7  1  0
  8  9  2  0
  9  4  1  0
 10 12  1  0
 11 10  1  0
 13 10  1  0
  1 14  1  1
  2 15  1  6
  3 16  1  0
  3 17  1  0
  5 18  1  0
  6 19  1  0
  8 20  1  0
M  ISO  7  14  13  15  13  16  13  17  13  18  14  19  14  20  14
M  END
>  <minimizedAffinity>  (1) 
-5.43234348

>  <minimizedRMSD>  (1) 
1.19852686

$$$$
