
     RDKit          3D

 29 30  0  0  1  0  0  0  0  0999 V2000
   35.8530   29.5000   48.7240 N   0  0  0  0  0  0  0  0  0  0  0  0
   36.9810   30.2160   48.2260 C   0  0  0  0  0  0  0  0  0  0  0  0
   37.6450   30.7340   49.5110 C   0  0  2  0  0  0  0  0  0  0  0  0
   36.7110   30.3360   50.6390 C   0  0  0  0  0  0  0  0  0  0  0  0
   36.1990   29.0230   50.0480 C   0  0  0  0  0  0  0  0  0  0  0  0
   34.6020   29.2790   48.0660 C   0  0  0  0  0  0  0  0  0  0  0  0
   34.2890   30.1570   47.0100 C   0  0  0  0  0  0  0  0  0  0  0  0
   33.0730   29.9580   46.3570 C   0  0  0  0  0  0  0  0  0  0  0  0
   32.2850   28.9270   46.7960 N   0  0  0  0  0  0  0  0  0  0  0  0
   32.5970   28.1110   47.7920 C   0  0  0  0  0  0  0  0  0  0  0  0
   33.7780   28.2920   48.4380 N   0  0  0  0  0  0  0  0  0  0  0  0
   31.5330   26.8110   48.3310 S   0  0  0  0  0  0  0  0  0  0  0  0
   30.2400   27.6100   49.3640 C   0  0  0  0  0  0  0  0  0  0  0  0
   29.6360   26.6240   50.1330 F   0  0  0  0  0  0  0  0  0  0  0  0
   29.3490   28.3100   48.6180 F   0  0  0  0  0  0  0  0  0  0  0  0
   30.8800   28.4330   50.3010 F   0  0  0  0  0  0  0  0  0  0  0  0
   37.9060   32.2000   49.4740 C   0  0  0  0  0  0  0  0  0  0  0  0
   36.7950   32.8150   50.0510 F   0  0  0  0  0  0  0  0  0  0  0  0
   37.9150   32.5790   48.1470 F   0  0  0  0  0  0  0  0  0  0  0  0
   39.0720   32.5700   50.0720 F   0  0  0  0  0  0  0  0  0  0  0  0
   37.6584   29.5518   47.6692 H   0  0  0  0  0  0  0  0  0  0  0  0
   36.7138   31.0155   47.5193 H   0  0  0  0  0  0  0  0  0  0  0  0
   38.6438   30.2934   49.6460 H   0  0  0  0  0  0  0  0  0  0  0  0
   37.2466   30.1837   51.5877 H   0  0  0  0  0  0  0  0  0  0  0  0
   35.9409   31.0741   50.9076 H   0  0  0  0  0  0  0  0  0  0  0  0
   35.3233   28.6382   50.5913 H   0  0  0  0  0  0  0  0  0  0  0  0
   36.9035   28.1789   50.0812 H   0  0  0  0  0  0  0  0  0  0  0  0
   34.9742   30.9648   46.7132 H   0  0  0  0  0  0  0  0  0  0  0  0
   32.7592   30.6029   45.5230 H   0  0  0  0  0  0  0  0  0  0  0  0
  1  5  1  0
  2  1  1  0
  2  3  1  0
  3  4  1  0
  5  4  1  0
  6 11  1  0
  6  1  1  0
  7  6  2  0
  8  9  2  0
  8  7  1  0
  9 10  1  0
 10 12  1  0
 10 11  2  0
 12 13  1  0
 13 14  1  0
 13 16  1  0
 15 13  1  0
 17  3  1  0
 17 18  1  0
 17 20  1  0
 19 17  1  0
  2 21  1  0
  2 22  1  0
  3 23  1  1
  4 24  1  0
  4 25  1  0
  5 26  1  0
  5 27  1  0
  7 28  1  0
  8 29  1  0
M  ISO  8  21  13  22  13  23  13  24  13  25  13  26  13  27  13  28  14
M  ISO  1  29  14
M  END
>  <minimizedAffinity>  (1) 
-5.88191605

>  <minimizedRMSD>  (1) 
0.949892342

$$$$
