
     RDKit          3D

 26 27  0  0  0  0  0  0  0  0999 V2000
   34.4610   28.1610   48.0940 C   0  0  0  0  0  0  0  0  0  0  0  0
   32.9790   28.1950   47.8490 C   0  0  0  0  0  0  0  0  0  0  0  0
   32.0310   27.4660   48.5480 C   0  0  0  0  0  0  0  0  0  0  0  0
   30.7550   27.7260   48.0750 C   0  0  0  0  0  0  0  0  0  0  0  0
   30.9720   28.6170   47.0880 N   0  0  0  0  0  0  0  0  0  0  0  0
   32.2700   28.8900   46.9580 N   0  0  0  0  0  0  0  0  0  0  0  0
   29.8840   29.1800   46.2940 C   0  0  0  0  0  0  0  0  0  0  0  0
   28.8730   29.5940   47.1480 F   0  0  0  0  0  0  0  0  0  0  0  0
   30.3080   30.3180   45.6340 F   0  0  0  0  0  0  0  0  0  0  0  0
   29.4080   28.2860   45.3640 F   0  0  0  0  0  0  0  0  0  0  0  0
   34.6330   28.3140   49.5880 C   0  0  0  0  0  0  0  0  0  0  0  0
   37.2770   30.1830   51.3620 C   0  0  0  0  0  0  0  0  0  0  0  0
   38.0630   30.6790   50.3140 C   0  0  0  0  0  0  0  0  0  0  0  0
   37.6640   30.3590   48.9920 C   0  0  0  0  0  0  0  0  0  0  0  0
   36.5600   29.6020   48.8070 N   0  0  0  0  0  0  0  0  0  0  0  0
   35.8380   29.1490   49.8630 C   0  0  0  0  0  0  0  0  0  0  0  0
   36.1920   29.4350   51.1060 N   0  0  0  0  0  0  0  0  0  0  0  0
   34.9562   28.9882   47.5643 H   0  0  0  0  0  0  0  0  0  0  0  0
   34.9115   27.2269   47.7273 H   0  0  0  0  0  0  0  0  0  0  0  0
   32.2609   26.7722   49.3701 H   0  0  0  0  0  0  0  0  0  0  0  0
   29.7984   27.3073   48.4208 H   0  0  0  0  0  0  0  0  0  0  0  0
   33.7432   28.8022   50.0121 H   0  0  0  0  0  0  0  0  0  0  0  0
   34.7592   27.3226   50.0476 H   0  0  0  0  0  0  0  0  0  0  0  0
   37.5510   30.4082   52.4032 H   0  0  0  0  0  0  0  0  0  0  0  0
   38.9548   31.2927   50.5092 H   0  0  0  0  0  0  0  0  0  0  0  0
   38.2439   30.7212   48.1303 H   0  0  0  0  0  0  0  0  0  0  0  0
  1 11  1  0
  2  1  1  0
  2  3  1  0
  4  3  2  0
  5  4  1  0
  6  5  1  0
  6  2  2  0
  7  5  1  0
  7  8  1  0
  9  7  1  0
 10  7  1  0
 11 16  1  0
 13 12  2  0
 14 13  1  0
 15 14  2  0
 15 16  1  0
 16 17  2  0
 17 12  1  0
  1 18  1  0
  1 19  1  0
  3 20  1  0
  4 21  1  0
 11 22  1  0
 11 23  1  0
 12 24  1  0
 13 25  1  0
 14 26  1  0
M  ISO  8  18   8  19   8  20  14  21  14  22   8  23   8  24  14  25  14
M  ISO  1  26  14
M  END
>  <minimizedAffinity>  (1) 
-4.53726959

>  <minimizedRMSD>  (1) 
0.072026521

$$$$
