
     RDKit          3D

 23 24  0  0  0  0  0  0  0  0999 V2000
   37.7140   31.2140   48.7030 C   0  0  0  0  0  0  0  0  0  0  0  0
   38.1810   32.4790   48.9200 C   0  0  0  0  0  0  0  0  0  0  0  0
   39.0370   33.1530   48.0850 C   0  0  0  0  0  0  0  0  0  0  0  0
   39.4840   32.5440   46.9280 C   0  0  0  0  0  0  0  0  0  0  0  0
   39.0040   31.2500   46.7140 C   0  0  0  0  0  0  0  0  0  0  0  0
   38.1650   30.6320   47.5640 N   0  0  0  0  0  0  0  0  0  0  0  0
   37.1680   30.0420   50.8580 C   0  0  0  0  0  0  0  0  0  0  0  0
   36.8160   30.5220   49.5910 C   0  0  0  0  0  0  0  0  0  0  0  0
   35.5070   30.3110   49.1720 C   0  0  0  0  0  0  0  0  0  0  0  0
   34.6440   29.6540   50.0090 N   0  0  0  0  0  0  0  0  0  0  0  0
   35.0390   29.2120   51.2210 C   0  0  0  0  0  0  0  0  0  0  0  0
   36.2990   29.4020   51.6530 N   0  0  0  0  0  0  0  0  0  0  0  0
   40.3430   33.0630   45.9730 O   0  0  0  0  0  0  0  0  0  0  0  0
   39.9900   33.3280   44.6500 C   0  0  0  0  0  0  0  0  0  0  0  0
   38.6140   33.2330   44.5020 F   0  0  0  0  0  0  0  0  0  0  0  0
   40.3490   34.5900   44.2060 F   0  0  0  0  0  0  0  0  0  0  0  0
   40.5570   32.3290   43.8630 F   0  0  0  0  0  0  0  0  0  0  0  0
   37.8464   32.9960   49.8314 H   0  0  0  0  0  0  0  0  0  0  0  0
   39.3654   34.1725   48.3356 H   0  0  0  0  0  0  0  0  0  0  0  0
   39.3266   30.7125   45.8101 H   0  0  0  0  0  0  0  0  0  0  0  0
   38.1971   30.1959   51.2148 H   0  0  0  0  0  0  0  0  0  0  0  0
   35.1705   30.6652   48.1864 H   0  0  0  0  0  0  0  0  0  0  0  0
   34.3191   28.6877   51.8666 H   0  0  0  0  0  0  0  0  0  0  0  0
  1  2  2  0
  1  8  1  0
  3  2  1  0
  4  3  2  0
  5  4  1  0
  5  6  2  0
  6  1  1  0
  7 12  2  0
  8  7  1  0
  9  8  2  0
  9 10  1  0
 10 11  2  0
 11 12  1  0
 13  4  1  0
 14 13  1  0
 15 14  1  0
 16 14  1  0
 17 14  1  0
  2 18  1  0
  3 19  1  0
  5 20  1  0
  7 21  1  0
  9 22  1  0
 11 23  1  0
M  ISO  6  18  14  19  14  20  14  21  14  22  14  23  14
M  END
>  <minimizedAffinity>  (1) 
-5.47815609

>  <minimizedRMSD>  (1) 
1.48651707

$$$$
