
     RDKit          3D

 25 26  0  0  0  0  0  0  0  0999 V2000
   38.9180   31.9410   47.7950 C   0  0  0  0  0  0  0  0  0  0  0  0
   38.3620   32.1500   49.0400 C   0  0  0  0  0  0  0  0  0  0  0  0
   38.6600   33.3860   49.6330 C   0  0  0  0  0  0  0  0  0  0  0  0
   39.4730   34.3230   48.9700 C   0  0  0  0  0  0  0  0  0  0  0  0
   39.9920   34.0180   47.7080 C   0  0  0  0  0  0  0  0  0  0  0  0
   39.7080   32.8130   47.1190 C   0  0  0  0  0  0  0  0  0  0  0  0
   36.1980   31.0360   49.3360 C   0  0  0  0  0  0  0  0  0  0  0  0
   37.5310   31.1910   49.7120 C   0  0  0  0  0  0  0  0  0  0  0  0
   38.0060   30.3920   50.7480 C   0  0  0  0  0  0  0  0  0  0  0  0
   37.1630   29.5030   51.3450 N   0  0  0  0  0  0  0  0  0  0  0  0
   35.8640   29.3880   50.9410 C   0  0  0  0  0  0  0  0  0  0  0  0
   35.3870   30.1540   49.9390 N   0  0  0  0  0  0  0  0  0  0  0  0
   38.6650   30.7300   47.1430 O   0  0  0  0  0  0  0  0  0  0  0  0
   40.2440   32.5600   45.8790 O   0  0  0  0  0  0  0  0  0  0  0  0
   39.8320   33.1060   44.6570 C   0  0  0  0  0  0  0  0  0  0  0  0
   40.3600   32.3020   43.6380 F   0  0  0  0  0  0  0  0  0  0  0  0
   40.2620   34.3850   44.4310 F   0  0  0  0  0  0  0  0  0  0  0  0
   38.4630   33.0500   44.4750 F   0  0  0  0  0  0  0  0  0  0  0  0
   38.2536   33.6249   50.6269 H   0  0  0  0  0  0  0  0  0  0  0  0
   39.6993   35.2906   49.4418 H   0  0  0  0  0  0  0  0  0  0  0  0
   40.6298   34.7468   47.1864 H   0  0  0  0  0  0  0  0  0  0  0  0
   35.7987   31.6559   48.5197 H   0  0  0  0  0  0  0  0  0  0  0  0
   39.0508   30.4772   51.0814 H   0  0  0  0  0  0  0  0  0  0  0  0
   35.2007   28.6642   51.4372 H   0  0  0  0  0  0  0  0  0  0  0  0
   39.0538   30.5586   46.2488 H   0  0  0  0  0  0  0  0  0  0  0  0
  1  2  2  0
  2  3  1  0
  2  8  1  0
  4  3  2  0
  5  4  1  0
  6  5  2  0
  6  1  1  0
  7  8  2  0
  7 12  1  0
  8  9  1  0
  9 10  2  0
 11 10  1  0
 12 11  2  0
 13  1  1  0
 14  6  1  0
 15 14  1  0
 16 15  1  0
 17 15  1  0
 18 15  1  0
  3 19  1  0
  4 20  1  0
  5 21  1  0
  7 22  1  0
  9 23  1  0
 11 24  1  0
 13 25  1  0
M  ISO  7  19  14  20  14  21  14  22  14  23  14  24  14  25   3
M  END
>  <minimizedAffinity>  (1) 
-6.20687008

>  <minimizedRMSD>  (1) 
0.379565835

$$$$
