
     RDKit          3D

 27 27  0  0  0  0  0  0  0  0999 V2000
   32.6710   27.9910   48.0630 C   0  0  0  0  0  0  0  0  0  0  0  0
   34.6790   28.2730   49.5000 C   0  0  0  0  0  0  0  0  0  0  0  0
   33.8920   28.6880   48.5440 C   0  0  0  0  0  0  0  0  0  0  0  0
   37.1960   30.1600   51.3600 C   0  0  0  0  0  0  0  0  0  0  0  0
   38.0150   30.6790   50.3370 C   0  0  0  0  0  0  0  0  0  0  0  0
   37.6620   30.3540   49.0170 C   0  0  0  0  0  0  0  0  0  0  0  0
   36.5610   29.5630   48.8150 N   0  0  0  0  0  0  0  0  0  0  0  0
   35.8260   29.1020   49.8230 C   0  0  0  0  0  0  0  0  0  0  0  0
   36.1470   29.4030   51.0930 N   0  0  0  0  0  0  0  0  0  0  0  0
   31.7740   27.7550   49.0960 O   0  0  0  0  0  0  0  0  0  0  0  0
   29.9000   26.5250   47.8720 O   0  0  0  0  0  0  0  0  0  0  0  0
   30.1980   27.8880   48.4860 P   0  0  2  0  0  0  0  0  0  0  0  0
   30.1750   29.1020   47.3220 O   0  0  0  0  0  0  0  0  0  0  0  0
   29.0930   28.2380   49.7340 O   0  0  0  0  0  0  0  0  0  0  0  0
   28.2800   27.2130   50.2010 C   0  0  0  0  0  0  0  0  0  0  0  0
   28.6370   26.9550   51.3870 O   0  0  0  0  0  0  0  0  0  0  0  0
   27.2380   26.5540   49.5150 N   0  0  0  0  0  0  0  0  0  0  0  0
   32.1811   28.6150   47.3010 H   0  0  0  0  0  0  0  0  0  0  0  0
   32.9732   27.0204   47.6428 H   0  0  0  0  0  0  0  0  0  0  0  0
   34.4809   27.3343   50.0381 H   0  0  0  0  0  0  0  0  0  0  0  0
   34.1559   29.6358   48.0521 H   0  0  0  0  0  0  0  0  0  0  0  0
   37.4367   30.3914   52.4081 H   0  0  0  0  0  0  0  0  0  0  0  0
   38.8887   31.3084   50.5617 H   0  0  0  0  0  0  0  0  0  0  0  0
   38.2539   30.7247   48.1672 H   0  0  0  0  0  0  0  0  0  0  0  0
   30.1583   29.9860   47.7674 H   0  0  0  0  0  0  0  0  0  0  0  0
   26.7083   25.8037   49.9812 H   0  0  0  0  0  0  0  0  0  0  0  0
   27.0070   26.8232   48.5480 H   0  0  0  0  0  0  0  0  0  0  0  0
  1  3  1  0
  1 10  1  0
  2  8  1  0
  3  2  2  0
  5  4  2  0
  6  5  1  0
  7  6  2  0
  7  8  1  0
  8  9  2  0
  9  4  1  0
 12 11  2  0
 12 10  1  0
 12 14  1  0
 13 12  1  0
 14 15  1  0
 15 16  2  0
 17 15  1  0
  1 18  1  0
  1 19  1  0
  2 20  1  0
  3 21  1  0
  4 22  1  0
  5 23  1  0
  6 24  1  0
 13 25  1  0
 17 26  1  0
 17 27  1  0
M  ISO  6  18   8  19   8  22  14  23  14  24  14  25   3
M  END
>  <minimizedAffinity>  (1) 
-5.04142666

>  <minimizedRMSD>  (1) 
1.24035645

$$$$
