
     RDKit          3D

 25 26  0  0  0  0  0  0  0  0999 V2000
   35.9130   29.1250   49.3580 C   0  0  0  0  0  0  0  0  0  0  0  0
   35.9150   30.2030   48.4370 C   0  0  0  0  0  0  0  0  0  0  0  0
   35.0070   30.1660   47.4000 C   0  0  0  0  0  0  0  0  0  0  0  0
   34.1570   29.1030   47.3100 N   0  0  0  0  0  0  0  0  0  0  0  0
   34.1700   28.0930   48.1920 C   0  0  0  0  0  0  0  0  0  0  0  0
   35.0570   28.0950   49.2340 N   0  0  0  0  0  0  0  0  0  0  0  0
   36.8570   31.2450   48.6510 N   0  0  0  0  0  0  0  0  0  0  0  0
   36.7730   32.1040   49.6620 C   0  0  0  0  0  0  0  0  0  0  0  0
   37.7430   33.1030   49.8020 C   0  0  0  0  0  0  0  0  0  0  0  0
   38.7220   33.1030   48.8520 C   0  0  0  0  0  0  0  0  0  0  0  0
   39.5920   34.0180   48.9980 O   0  0  0  0  0  0  0  0  0  0  0  0
   38.8390   32.2620   47.8270 N   0  0  0  0  0  0  0  0  0  0  0  0
   37.8720   31.3100   47.7350 C   0  0  0  0  0  0  0  0  0  0  0  0
   37.9810   30.4970   46.7490 O   0  0  0  0  0  0  0  0  0  0  0  0
   33.2960   27.0280   48.0770 O   0  0  0  0  0  0  0  0  0  0  0  0
   31.9710   27.1280   48.4500 C   0  0  0  0  0  0  0  0  0  0  0  0
   30.9570   26.4180   48.2210 O   0  0  0  0  0  0  0  0  0  0  0  0
   31.7380   28.2940   49.2660 N   0  0  0  0  0  0  0  0  0  0  0  0
   36.6284   29.1312   50.1936 H   0  0  0  0  0  0  0  0  0  0  0  0
   34.9688   30.9784   46.6593 H   0  0  0  0  0  0  0  0  0  0  0  0
   35.9464   32.0301   50.3839 H   0  0  0  0  0  0  0  0  0  0  0  0
   37.7178   33.8370   50.6209 H   0  0  0  0  0  0  0  0  0  0  0  0
   39.6109   32.3278   47.1483 H   0  0  0  0  0  0  0  0  0  0  0  0
   30.7911   28.4957   49.6176 H   0  0  0  0  0  0  0  0  0  0  0  0
   32.5185   28.9251   49.4972 H   0  0  0  0  0  0  0  0  0  0  0  0
  2  7  1  0
  2  1  2  0
  3  2  1  0
  4  3  2  0
  4  5  1  0
  5  6  2  0
  6  1  1  0
  7  8  1  0
  8  9  2  0
 10 11  2  0
 10  9  1  0
 12 10  1  0
 13 12  1  0
 13  7  1  0
 14 13  2  0
 15  5  1  0
 15 16  1  0
 16 18  1  0
 17 16  2  0
  1 19  1  0
  3 20  1  0
  8 21  1  0
  9 22  1  0
 12 23  1  0
 18 24  1  0
 18 25  1  0
M  ISO  5  19  14  20  14  21  14  22  14  23   9
M  END
>  <minimizedAffinity>  (1) 
-5.18722105

>  <minimizedRMSD>  (1) 
0.605139315

$$$$
