
     RDKit          3D

 29 31  0  0  0  0  0  0  0  0999 V2000
   36.1690   29.6250   50.7680 C   0  0  0  0  0  0  0  0  0  0  0  0
   36.9000   30.3270   49.8240 C   0  0  0  0  0  0  0  0  0  0  0  0
   36.5260   30.2370   48.4780 C   0  0  0  0  0  0  0  0  0  0  0  0
   35.4480   29.4550   48.1420 N   0  0  0  0  0  0  0  0  0  0  0  0
   34.7610   28.7850   49.1000 C   0  0  0  0  0  0  0  0  0  0  0  0
   35.1190   28.8710   50.3930 N   0  0  0  0  0  0  0  0  0  0  0  0
   36.7950   30.6370   46.1040 C   0  0  0  0  0  0  0  0  0  0  0  0
   37.2170   30.9270   47.4060 C   0  0  0  0  0  0  0  0  0  0  0  0
   38.2440   31.8310   47.6220 C   0  0  0  0  0  0  0  0  0  0  0  0
   38.8310   32.4300   46.5270 C   0  0  0  0  0  0  0  0  0  0  0  0
   39.8330   33.3300   46.4780 N   0  0  0  0  0  0  0  0  0  0  0  0
   40.0490   33.6110   45.1770 C   0  0  0  0  0  0  0  0  0  0  0  0
   39.2120   32.9160   44.4060 N   0  0  0  0  0  0  0  0  0  0  0  0
   38.4350   32.1650   45.2190 C   0  0  0  0  0  0  0  0  0  0  0  0
   37.4030   31.2550   45.0170 C   0  0  0  0  0  0  0  0  0  0  0  0
   33.6290   27.9760   48.6700 C   0  0  0  0  0  0  0  0  0  0  0  0
   33.7940   26.8990   48.0550 O   0  0  0  0  0  0  0  0  0  0  0  0
   31.2230   27.5820   48.8820 C   0  0  0  0  0  0  0  0  0  0  0  0
   31.3680   26.3670   48.5160 O   0  0  0  0  0  0  0  0  0  0  0  0
   32.3300   28.4720   48.9850 N   0  0  0  0  0  0  0  0  0  0  0  0
   36.4482   29.6840   51.8303 H   0  0  0  0  0  0  0  0  0  0  0  0
   37.7589   30.9441   50.1265 H   0  0  0  0  0  0  0  0  0  0  0  0
   35.9793   29.9175   45.9397 H   0  0  0  0  0  0  0  0  0  0  0  0
   38.5831   32.0654   48.6418 H   0  0  0  0  0  0  0  0  0  0  0  0
   40.3383   33.7280   47.2824 H   0  0  0  0  0  0  0  0  0  0  0  0
   40.8084   34.3142   44.8044 H   0  0  0  0  0  0  0  0  0  0  0  0
   37.0671   31.0237   43.9954 H   0  0  0  0  0  0  0  0  0  0  0  0
   30.2155   27.9511   49.1243 H   0  0  0  0  0  0  0  0  0  0  0  0
   32.1955   29.4497   49.2797 H   0  0  0  0  0  0  0  0  0  0  0  0
  2  1  2  0
  3  2  1  0
  4  3  2  0
  4  5  1  0
  5  6  2  0
  6  1  1  0
  7  8  2  0
  8  9  1  0
  8  3  1  0
 10  9  2  0
 11 10  1  0
 12 11  1  0
 13 12  2  0
 13 14  1  0
 14 10  1  0
 15 14  2  0
 15  7  1  0
 16 20  1  0
 16  5  1  0
 17 16  2  0
 18 20  1  0
 19 18  2  0
  1 21  1  0
  2 22  1  0
  7 23  1  0
  9 24  1  0
 11 25  1  0
 12 26  1  0
 15 27  1  0
 18 28  1  0
 20 29  1  0
M  ISO  8  21  14  22  14  23  14  24  14  25   9  26  14  27  14  28   6
M  END
>  <minimizedAffinity>  (1) 
-6.44750786

>  <minimizedRMSD>  (1) 
1.25087321

$$$$
