
     RDKit          3D

 28 29  0  0  0  0  0  0  0  0999 V2000
   37.6740   31.3270   47.4520 C   0  0  0  0  0  0  0  0  0  0  0  0
   38.3450   32.4830   47.8060 C   0  0  0  0  0  0  0  0  0  0  0  0
   38.2480   33.0410   49.0780 C   0  0  0  0  0  0  0  0  0  0  0  0
   37.4220   32.3900   50.0380 C   0  0  0  0  0  0  0  0  0  0  0  0
   36.7770   31.2550   49.6430 C   0  0  0  0  0  0  0  0  0  0  0  0
   36.8880   30.7210   48.3970 C   0  0  0  0  0  0  0  0  0  0  0  0
   39.1470   30.4380   45.7290 C   0  0  0  0  0  0  0  0  0  0  0  0
   37.8520   30.9030   46.0680 C   0  0  0  0  0  0  0  0  0  0  0  0
   36.8920   30.9190   45.0440 C   0  0  0  0  0  0  0  0  0  0  0  0
   37.2400   30.5010   43.8170 N   0  0  0  0  0  0  0  0  0  0  0  0
   38.4740   30.0630   43.5130 C   0  0  0  0  0  0  0  0  0  0  0  0
   39.4240   30.0340   44.4730 N   0  0  0  0  0  0  0  0  0  0  0  0
   34.8090   29.7710   47.8390 C   0  0  0  0  0  0  0  0  0  0  0  0
   34.3350   30.9010   48.0380 O   0  0  0  0  0  0  0  0  0  0  0  0
   36.2390   29.5320   48.0150 N   0  0  0  0  0  0  0  0  0  0  0  0
   34.1060   27.6970   48.7000 C   0  0  0  0  0  0  0  0  0  0  0  0
   34.1190   28.2840   49.8470 O   0  0  0  0  0  0  0  0  0  0  0  0
   34.4830   28.4360   47.4570 N   0  0  0  0  0  0  0  0  0  0  0  0
   38.9781   32.9796   47.0559 H   0  0  0  0  0  0  0  0  0  0  0  0
   38.7949   33.9603   49.3345 H   0  0  0  0  0  0  0  0  0  0  0  0
   37.3086   32.7867   51.0577 H   0  0  0  0  0  0  0  0  0  0  0  0
   36.1316   30.7434   50.3722 H   0  0  0  0  0  0  0  0  0  0  0  0
   39.9333   30.4064   46.4976 H   0  0  0  0  0  0  0  0  0  0  0  0
   35.8687   31.2693   45.2444 H   0  0  0  0  0  0  0  0  0  0  0  0
   38.7083   29.7309   42.4908 H   0  0  0  0  0  0  0  0  0  0  0  0
   36.7055   28.6238   47.8791 H   0  0  0  0  0  0  0  0  0  0  0  0
   33.8137   26.6385   48.6349 H   0  0  0  0  0  0  0  0  0  0  0  0
   34.5036   28.0523   46.5013 H   0  0  0  0  0  0  0  0  0  0  0  0
  1  2  2  0
  1  6  1  0
  2  3  1  0
  3  4  2  0
  5  4  1  0
  6  5  2  0
  7  8  2  0
  8  1  1  0
  9  8  1  0
 10  9  2  0
 11 10  1  0
 11 12  2  0
 12  7  1  0
 13 15  1  0
 13 14  2  0
 15  6  1  0
 16 17  2  0
 18 13  1  0
 18 16  1  0
  2 19  1  0
  3 20  1  0
  4 21  1  0
  5 22  1  0
  7 23  1  0
  9 24  1  0
 11 25  1  0
 15 26  1  0
 16 27  1  0
 18 28  1  0
M  ISO  8  19  14  20  14  21  14  22  14  23  14  24  14  25  14  27   6
M  END
>  <minimizedAffinity>  (1) 
-5.00420809

>  <minimizedRMSD>  (1) 
5.70542669

$$$$
