
     RDKit          3D

 33 35  0  0  1  0  0  0  0  0999 V2000
   38.5640   30.6650   45.6700 C   0  0  1  0  0  0  0  0  0  0  0  0
   37.8470   31.9050   45.5770 C   0  0  0  0  0  0  0  0  0  0  0  0
   37.0190   30.6390   45.4880 C   0  0  2  0  0  0  0  0  0  0  0  0
   38.9980   28.8970   43.8370 C   0  0  0  0  0  0  0  0  0  0  0  0
   39.3440   30.1470   44.4920 C   0  0  0  0  0  0  0  0  0  0  0  0
   40.3460   30.9120   43.9890 C   0  0  0  0  0  0  0  0  0  0  0  0
   40.9950   30.4430   42.8550 N   0  0  0  0  0  0  0  0  0  0  0  0
   40.6550   29.2820   42.2690 C   0  0  0  0  0  0  0  0  0  0  0  0
   39.6650   28.5180   42.7560 N   0  0  0  0  0  0  0  0  0  0  0  0
   41.3390   28.8210   41.1040 N   0  0  0  0  0  0  0  0  0  0  0  0
   40.2460   32.3870   45.9210 C   0  0  0  0  0  0  0  0  0  0  0  0
   39.5290   31.5940   46.5620 O   0  0  0  0  0  0  0  0  0  0  0  0
   40.7320   32.1450   44.5840 N   0  0  0  0  0  0  0  0  0  0  0  0
   34.0080   29.9310   45.2970 Cl  0  0  0  0  0  0  0  0  0  0  0  0
   34.8800   30.0390   46.8040 C   0  0  0  0  0  0  0  0  0  0  0  0
   36.1960   30.4170   46.6810 C   0  0  0  0  0  0  0  0  0  0  0  0
   36.9060   30.5360   47.8670 C   0  0  0  0  0  0  0  0  0  0  0  0
   36.3150   30.2900   49.1000 C   0  0  0  0  0  0  0  0  0  0  0  0
   34.9590   29.9060   49.1730 C   0  0  0  0  0  0  0  0  0  0  0  0
   34.0920   29.6180   50.6610 Cl  0  0  0  0  0  0  0  0  0  0  0  0
   34.2440   29.7830   47.9790 C   0  0  0  0  0  0  0  0  0  0  0  0
   39.2978   30.2861   46.3966 H   0  0  0  0  0  0  0  0  0  0  0  0
   37.7593   32.5459   46.4667 H   0  0  0  0  0  0  0  0  0  0  0  0
   37.9473   32.7899   44.9313 H   0  0  0  0  0  0  0  0  0  0  0  0
   36.3283   30.1442   44.7894 H   0  0  0  0  0  0  0  0  0  0  0  0
   38.1876   28.2691   44.2357 H   0  0  0  0  0  0  0  0  0  0  0  0
   42.1044   29.3802   40.7011 H   0  0  0  0  0  0  0  0  0  0  0  0
   41.0671   27.9292   40.6663 H   0  0  0  0  0  0  0  0  0  0  0  0
   40.5267   33.3334   46.4064 H   0  0  0  0  0  0  0  0  0  0  0  0
   41.3247   32.8264   44.0887 H   0  0  0  0  0  0  0  0  0  0  0  0
   37.9645   30.8329   47.8301 H   0  0  0  0  0  0  0  0  0  0  0  0
   36.9057   30.3948   50.0220 H   0  0  0  0  0  0  0  0  0  0  0  0
   33.1854   29.4844   47.9889 H   0  0  0  0  0  0  0  0  0  0  0  0
  2  1  1  0
  3  2  1  0
  3  1  1  0
  3 16  1  0
  4  5  2  0
  5  1  1  0
  6  5  1  0
  6 13  1  0
  7  6  2  0
  8  9  2  0
  8  7  1  0
  9  4  1  0
 10  8  1  0
 11 12  2  0
 13 11  1  0
 14 15  1  0
 15 21  2  0
 16 15  1  0
 16 17  2  0
 17 18  1  0
 18 19  2  0
 19 20  1  0
 21 19  1  0
  1 22  1  1
  2 23  1  0
  2 24  1  0
  3 25  1  6
  4 26  1  0
 10 27  1  0
 10 28  1  0
 11 29  1  0
 13 30  1  0
 17 31  1  0
 18 32  1  0
 21 33  1  0
M  ISO  8  22  13  23  13  24  13  25  13  26  14  29   6  31  14  32  14
M  ISO  1  33  14
M  END
>  <minimizedAffinity>  (1) 
-5.91081285

>  <minimizedRMSD>  (1) 
2.1725235

$$$$
