
     RDKit          3D

 33 34  0  0  1  0  0  0  0  0999 V2000
   34.3580   29.7230   49.9630 O   0  0  0  0  0  0  0  0  0  0  0  0
   34.3250   29.6250   48.7240 C   0  0  0  0  0  0  0  0  0  0  0  0
   35.2360   30.3690   47.8770 C   0  0  2  0  0  0  0  0  0  0  0  0
   34.9180   29.7470   46.4840 C   0  0  0  0  0  0  0  0  0  0  0  0
   33.5020   29.2870   46.6290 C   0  0  0  0  0  0  0  0  0  0  0  0
   33.4070   28.7860   47.9930 N   0  0  0  0  0  0  0  0  0  0  0  0
   32.5860   27.7020   48.4840 C   0  0  0  0  0  0  0  0  0  0  0  0
   30.2880   27.7320   49.4310 C   0  0  0  0  0  0  0  0  0  0  0  0
   29.9130   26.7970   48.6640 O   0  0  0  0  0  0  0  0  0  0  0  0
   31.6150   28.2670   49.4260 N   0  0  0  0  0  0  0  0  0  0  0  0
   36.6180   30.0890   48.1180 O   0  0  0  0  0  0  0  0  0  0  0  0
   37.4850   31.1740   48.2100 C   0  0  0  0  0  0  0  0  0  0  0  0
   37.6570   31.7240   49.4670 C   0  0  0  0  0  0  0  0  0  0  0  0
   38.5140   32.8080   49.5970 C   0  0  0  0  0  0  0  0  0  0  0  0
   39.1440   33.2800   48.4870 N   0  0  0  0  0  0  0  0  0  0  0  0
   38.9660   32.7350   47.2730 C   0  0  0  0  0  0  0  0  0  0  0  0
   38.1460   31.7010   47.1610 N   0  0  0  0  0  0  0  0  0  0  0  0
   40.4760   32.2930   45.5010 C   0  0  0  0  0  0  0  0  0  0  0  0
   40.6740   31.0940   45.8350 O   0  0  0  0  0  0  0  0  0  0  0  0
   39.6400   33.2540   46.1290 N   0  0  0  0  0  0  0  0  0  0  0  0
   35.1055   31.4525   48.0149 H   0  0  0  0  0  0  0  0  0  0  0  0
   35.5872   28.9011   46.2679 H   0  0  0  0  0  0  0  0  0  0  0  0
   35.0583   30.4549   45.6538 H   0  0  0  0  0  0  0  0  0  0  0  0
   32.8056   30.1245   46.4752 H   0  0  0  0  0  0  0  0  0  0  0  0
   33.2388   28.5187   45.8871 H   0  0  0  0  0  0  0  0  0  0  0  0
   32.0590   27.2223   47.6460 H   0  0  0  0  0  0  0  0  0  0  0  0
   33.2081   26.9436   48.9818 H   0  0  0  0  0  0  0  0  0  0  0  0
   29.5571   28.1541   50.1364 H   0  0  0  0  0  0  0  0  0  0  0  0
   31.8809   29.0283   50.0668 H   0  0  0  0  0  0  0  0  0  0  0  0
   37.1289   31.3135   50.3403 H   0  0  0  0  0  0  0  0  0  0  0  0
   38.6807   33.2765   50.5782 H   0  0  0  0  0  0  0  0  0  0  0  0
   41.0199   32.6391   44.6097 H   0  0  0  0  0  0  0  0  0  0  0  0
   39.5322   34.2220   45.7939 H   0  0  0  0  0  0  0  0  0  0  0  0
  2  1  2  0
  3 11  1  0
  3  2  1  0
  4  5  1  0
  4  3  1  0
  5  6  1  0
  6  7  1  0
  6  2  1  0
  7 10  1  0
  9  8  2  0
 10  8  1  0
 11 12  1  0
 12 13  2  0
 13 14  1  0
 15 14  2  0
 16 15  1  0
 17 16  2  0
 17 12  1  0
 18 19  2  0
 18 20  1  0
 20 16  1  0
  3 21  1  6
  4 22  1  0
  4 23  1  0
  5 24  1  0
  5 25  1  0
  7 26  1  0
  7 27  1  0
  8 28  1  0
 10 29  1  0
 13 30  1  0
 14 31  1  0
 18 32  1  0
 20 33  1  0
M  ISO  8  21  13  22  13  23  13  24  13  25  13  26   8  27   8  28   6
M  ISO  3  30  14  31  14  32   6
M  END
>  <minimizedAffinity>  (1) 
-5.7149744

>  <minimizedRMSD>  (1) 
1.08952713

$$$$
