
     RDKit          3D

 39 42  0  0  1  0  0  0  0  0999 V2000
   38.6190   32.7430   48.7080 C   0  0  0  0  0  0  0  0  0  0  0  0
   39.2850   33.9200   48.9580 C   0  0  0  0  0  0  0  0  0  0  0  0
   40.0800   34.3930   47.9070 C   0  0  0  0  0  0  0  0  0  0  0  0
   40.1590   33.7020   46.7340 N   0  0  0  0  0  0  0  0  0  0  0  0
   39.4900   32.5450   46.5210 C   0  0  0  0  0  0  0  0  0  0  0  0
   38.7120   32.0700   47.5300 N   0  0  0  0  0  0  0  0  0  0  0  0
   39.9110   32.5350   44.1260 C   0  0  0  0  0  0  0  0  0  0  0  0
   39.5880   31.8160   45.2570 C   0  0  0  0  0  0  0  0  0  0  0  0
   39.3660   30.4480   45.1630 C   0  0  0  0  0  0  0  0  0  0  0  0
   39.4510   29.7560   43.9710 C   0  0  0  0  0  0  0  0  0  0  0  0
   39.2900   28.4690   43.6130 N   0  0  0  0  0  0  0  0  0  0  0  0
   39.5140   28.4220   42.2850 C   0  0  0  0  0  0  0  0  0  0  0  0
   39.8070   29.6460   41.8190 N   0  0  0  0  0  0  0  0  0  0  0  0
   39.7750   30.5030   42.8580 C   0  0  0  0  0  0  0  0  0  0  0  0
   40.0070   31.8750   42.9100 C   0  0  0  0  0  0  0  0  0  0  0  0
   37.7540   32.1930   49.8200 C   0  0  1  0  0  0  0  0  0  0  0  0
   36.6080   31.3630   49.5360 C   0  0  2  0  0  0  0  0  0  0  0  0
   37.9250   30.6870   49.9820 C   0  0  2  0  0  0  0  0  0  0  0  0
   37.0690   29.5440   52.0040 C   0  0  0  0  0  0  0  0  0  0  0  0
   35.9370   29.2380   51.5170 O   0  0  0  0  0  0  0  0  0  0  0  0
   38.1070   30.2490   51.3360 N   0  0  0  0  0  0  0  0  0  0  0  0
   36.2740   31.1020   48.2510 O   0  0  0  0  0  0  0  0  0  0  0  0
   35.3320   30.4480   47.5840 C   0  0  0  0  0  0  0  0  0  0  0  0
   35.6540   30.0890   46.4100 O   0  0  0  0  0  0  0  0  0  0  0  0
   34.1440   30.2510   48.2510 N   0  0  0  0  0  0  0  0  0  0  0  0
   39.1991   34.4526   49.9166 H   0  0  0  0  0  0  0  0  0  0  0  0
   40.6451   35.3289   48.0284 H   0  0  0  0  0  0  0  0  0  0  0  0
   40.0903   33.6186   44.1872 H   0  0  0  0  0  0  0  0  0  0  0  0
   39.1115   29.8920   46.0774 H   0  0  0  0  0  0  0  0  0  0  0  0
   39.0454   27.6803   44.2286 H   0  0  0  0  0  0  0  0  0  0  0  0
   39.4639   27.5108   41.6708 H   0  0  0  0  0  0  0  0  0  0  0  0
   40.2639   32.4299   41.9956 H   0  0  0  0  0  0  0  0  0  0  0  0
   37.8368   33.0965   50.4420 H   0  0  0  0  0  0  0  0  0  0  0  0
   35.5647   31.4040   49.8823 H   0  0  0  0  0  0  0  0  0  0  0  0
   38.5380   29.8669   49.5800 H   0  0  0  0  0  0  0  0  0  0  0  0
   37.2650   29.2342   53.0411 H   0  0  0  0  0  0  0  0  0  0  0  0
   38.9918   30.4458   51.8252 H   0  0  0  0  0  0  0  0  0  0  0  0
   33.3712   29.7502   47.7896 H   0  0  0  0  0  0  0  0  0  0  0  0
   34.0279   30.6044   49.2115 H   0  0  0  0  0  0  0  0  0  0  0  0
  1  2  2  0
  1 16  1  0
  3  2  1  0
  4  3  2  0
  5  4  1  0
  5  6  2  0
  6  1  1  0
  7  8  2  0
  8  5  1  0
  9  8  1  0
 10  9  2  0
 11 10  1  0
 12 11  1  0
 13 12  2  0
 13 14  1  0
 14 15  2  0
 14 10  1  0
 15  7  1  0
 16 18  1  0
 17 16  1  0
 17 18  1  0
 18 21  1  0
 20 19  2  0
 21 19  1  0
 22 17  1  0
 23 25  1  0
 23 22  1  0
 24 23  2  0
  2 26  1  0
  3 27  1  0
  7 28  1  0
  9 29  1  0
 11 30  1  0
 12 31  1  0
 15 32  1  0
 16 33  1  1
 17 34  1  1
 18 35  1  6
 19 36  1  0
 21 37  1  0
 25 38  1  0
 25 39  1  0
M  ISO  8  26  14  27  14  28  14  29  14  30   9  31  14  32  14  33  13
M  ISO  3  34  13  35  13  36   6
M  END
>  <minimizedAffinity>  (1) 
-6.81760693

>  <minimizedRMSD>  (1) 
2.04349566

$$$$
