
     RDKit          3D

 23 24  0  0  0  0  0  0  0  0999 V2000
   37.6010   31.2600   48.7000 C   0  0  0  0  0  0  0  0  0  0  0  0
   38.1420   32.4910   48.9850 C   0  0  0  0  0  0  0  0  0  0  0  0
   38.9770   33.2110   48.1520 C   0  0  0  0  0  0  0  0  0  0  0  0
   39.3060   32.6600   46.9270 C   0  0  0  0  0  0  0  0  0  0  0  0
   38.7580   31.4190   46.6440 C   0  0  0  0  0  0  0  0  0  0  0  0
   37.9560   30.7790   47.4980 N   0  0  0  0  0  0  0  0  0  0  0  0
   37.1380   30.0650   50.8630 C   0  0  0  0  0  0  0  0  0  0  0  0
   36.7260   30.5340   49.6020 C   0  0  0  0  0  0  0  0  0  0  0  0
   35.4260   30.2950   49.1960 C   0  0  0  0  0  0  0  0  0  0  0  0
   34.6170   29.6060   50.0670 N   0  0  0  0  0  0  0  0  0  0  0  0
   35.0350   29.1710   51.2610 C   0  0  0  0  0  0  0  0  0  0  0  0
   36.2880   29.3940   51.6660 N   0  0  0  0  0  0  0  0  0  0  0  0
   40.1060   33.6420   44.6770 C   0  0  0  0  0  0  0  0  0  0  0  0
   39.2030   33.1820   43.9330 O   0  0  0  0  0  0  0  0  0  0  0  0
   40.1660   33.4070   46.0740 N   0  0  0  0  0  0  0  0  0  0  0  0
   37.8893   32.9403   49.9568 H   0  0  0  0  0  0  0  0  0  0  0  0
   39.3685   34.1935   48.4544 H   0  0  0  0  0  0  0  0  0  0  0  0
   38.9925   30.9438   45.6801 H   0  0  0  0  0  0  0  0  0  0  0  0
   38.1693   30.2486   51.1987 H   0  0  0  0  0  0  0  0  0  0  0  0
   35.0561   30.6409   48.2195 H   0  0  0  0  0  0  0  0  0  0  0  0
   34.3401   28.6244   51.9155 H   0  0  0  0  0  0  0  0  0  0  0  0
   40.8922   34.2604   44.2193 H   0  0  0  0  0  0  0  0  0  0  0  0
   40.9643   33.8504   46.5504 H   0  0  0  0  0  0  0  0  0  0  0  0
  1  2  2  0
  1  8  1  0
  3  2  1  0
  4  3  2  0
  5  4  1  0
  5  6  2  0
  6  1  1  0
  7 12  2  0
  8  7  1  0
  9  8  2  0
  9 10  1  0
 10 11  2  0
 11 12  1  0
 13 15  1  0
 14 13  2  0
 15  4  1  0
  2 16  1  0
  3 17  1  0
  5 18  1  0
  7 19  1  0
  9 20  1  0
 11 21  1  0
 13 22  1  0
 15 23  1  0
M  ISO  7  16  14  17  14  18  14  19  14  20  14  21  14  22   6
M  END
>  <minimizedAffinity>  (1) 
-5.01433325

>  <minimizedRMSD>  (1) 
1.15715945

$$$$
