
     RDKit          3D

 36 38  0  0  0  0  0  0  0  0999 V2000
   37.3640   31.0790   47.1030 N   0  0  0  0  0  0  0  0  0  0  0  0
   36.7670   30.7500   45.9270 C   0  0  0  0  0  0  0  0  0  0  0  0
   37.2340   31.2270   44.7110 C   0  0  0  0  0  0  0  0  0  0  0  0
   38.3490   32.0670   44.7210 C   0  0  0  0  0  0  0  0  0  0  0  0
   38.8050   32.5220   43.6480 O   0  0  0  0  0  0  0  0  0  0  0  0
   38.9530   32.4000   45.9190 N   0  0  0  0  0  0  0  0  0  0  0  0
   38.4120   31.8780   47.0170 C   0  0  0  0  0  0  0  0  0  0  0  0
   38.9910   32.2050   48.0730 O   0  0  0  0  0  0  0  0  0  0  0  0
   36.6320   30.9050   43.4320 C   0  0  0  0  0  0  0  0  0  0  0  0
   36.9340   29.7880   42.7060 C   0  0  0  0  0  0  0  0  0  0  0  0
   36.3870   29.4480   41.4940 C   0  0  0  0  0  0  0  0  0  0  0  0
   35.4380   30.3040   40.9380 C   0  0  0  0  0  0  0  0  0  0  0  0
   35.1460   31.4310   41.6890 C   0  0  0  0  0  0  0  0  0  0  0  0
   35.7170   31.7080   42.8720 N   0  0  0  0  0  0  0  0  0  0  0  0
   33.7320   33.6320   41.8510 C   0  0  0  0  0  0  0  0  0  0  0  0
   34.1770   34.0290   42.9690 O   0  0  0  0  0  0  0  0  0  0  0  0
   34.1890   32.4320   41.2760 N   0  0  0  0  0  0  0  0  0  0  0  0
   37.2490   29.5000   50.4600 C   0  0  0  0  0  0  0  0  0  0  0  0
   37.7280   29.9820   49.2360 C   0  0  0  0  0  0  0  0  0  0  0  0
   36.8910   30.5960   48.3250 C   0  0  0  0  0  0  0  0  0  0  0  0
   35.5890   30.7110   48.6680 N   0  0  0  0  0  0  0  0  0  0  0  0
   35.1020   30.2530   49.8460 C   0  0  0  0  0  0  0  0  0  0  0  0
   35.9390   29.6500   50.7360 N   0  0  0  0  0  0  0  0  0  0  0  0
   40.1040   33.2660   45.9210 C   0  0  0  0  0  0  0  0  0  0  0  0
   39.9780   34.2390   44.9830 F   0  0  0  0  0  0  0  0  0  0  0  0
   41.2930   32.6040   45.6420 F   0  0  0  0  0  0  0  0  0  0  0  0
   40.1910   33.8750   47.1670 F   0  0  0  0  0  0  0  0  0  0  0  0
   35.8892   30.0871   45.9399 H   0  0  0  0  0  0  0  0  0  0  0  0
   37.6810   29.1008   43.1299 H   0  0  0  0  0  0  0  0  0  0  0  0
   36.6891   28.5258   40.9760 H   0  0  0  0  0  0  0  0  0  0  0  0
   34.9550   30.0992   39.9712 H   0  0  0  0  0  0  0  0  0  0  0  0
   32.9779   34.2339   41.3227 H   0  0  0  0  0  0  0  0  0  0  0  0
   33.7483   32.2227   40.3689 H   0  0  0  0  0  0  0  0  0  0  0  0
   37.9246   29.0116   51.1776 H   0  0  0  0  0  0  0  0  0  0  0  0
   38.7952   29.8691   48.9944 H   0  0  0  0  0  0  0  0  0  0  0  0
   34.0340   30.3675   50.0834 H   0  0  0  0  0  0  0  0  0  0  0  0
  1 20  1  0
  2  1  1  0
  3  4  1  0
  3  2  2  0
  4  6  1  0
  5  4  2  0
  6 24  1  0
  6  7  1  0
  7  1  1  0
  7  8  2  0
  9  3  1  0
 10  9  2  0
 11 10  1  0
 12 11  2  0
 12 13  1  0
 13 14  2  0
 14  9  1  0
 15 16  2  0
 17 13  1  0
 17 15  1  0
 18 23  2  0
 19 18  1  0
 20 21  1  0
 20 19  2  0
 21 22  2  0
 22 23  1  0
 24 27  1  0
 25 24  1  0
 26 24  1  0
  2 28  1  0
 10 29  1  0
 11 30  1  0
 12 31  1  0
 15 32  1  0
 17 33  1  0
 18 34  1  0
 19 35  1  0
 22 36  1  0
M  ISO  8  28  14  29  14  30  14  31  14  32   6  34  14  35  14  36  14
M  END
>  <minimizedAffinity>  (1) 
-6.49987078

>  <minimizedRMSD>  (1) 
0.0747454315

$$$$
