
     RDKit          3D

 30 31  0  0  1  0  0  0  0  0999 V2000
   34.5250   30.3850   48.9720 C   0  0  1  0  0  0  0  0  0  0  0  0
   34.1470   30.2880   47.5660 C   0  0  0  0  0  0  0  0  0  0  0  0
   34.1890   28.9240   46.9350 C   0  0  0  0  0  0  0  0  0  0  0  0
   33.7210   27.8230   47.8070 C   0  0  2  0  0  0  0  0  0  0  0  0
   34.1460   27.8790   49.2390 C   0  0  0  0  0  0  0  0  0  0  0  0
   33.9660   29.2530   49.7970 C   0  0  0  0  0  0  0  0  0  0  0  0
   36.8310   31.1810   48.2750 C   0  0  0  0  0  0  0  0  0  0  0  0
   35.9560   30.6550   49.2590 C   0  0  0  0  0  0  0  0  0  0  0  0
   36.4820   30.3980   50.5070 C   0  0  0  0  0  0  0  0  0  0  0  0
   37.8000   30.6560   50.7400 N   0  0  0  0  0  0  0  0  0  0  0  0
   38.6100   31.1610   49.7700 C   0  0  0  0  0  0  0  0  0  0  0  0
   38.1120   31.4210   48.5370 N   0  0  0  0  0  0  0  0  0  0  0  0
   33.2410   25.4390   47.2550 C   0  0  0  0  0  0  0  0  0  0  0  0
   32.0780   25.5190   47.7520 O   0  0  0  0  0  0  0  0  0  0  0  0
   34.1470   26.5510   47.2350 N   0  0  0  0  0  0  0  0  0  0  0  0
   34.0356   31.3144   49.2986 H   0  0  0  0  0  0  0  0  0  0  0  0
   33.1172   30.6636   47.4737 H   0  0  0  0  0  0  0  0  0  0  0  0
   34.9072   30.8727   47.0274 H   0  0  0  0  0  0  0  0  0  0  0  0
   33.5544   28.9426   46.0367 H   0  0  0  0  0  0  0  0  0  0  0  0
   35.2466   28.7168   46.7144 H   0  0  0  0  0  0  0  0  0  0  0  0
   32.6270   27.9346   47.8355 H   0  0  0  0  0  0  0  0  0  0  0  0
   33.5388   27.1713   49.8225 H   0  0  0  0  0  0  0  0  0  0  0  0
   35.2116   27.6129   49.2992 H   0  0  0  0  0  0  0  0  0  0  0  0
   34.4551   29.2820   50.7818 H   0  0  0  0  0  0  0  0  0  0  0  0
   32.8790   29.4188   49.8263 H   0  0  0  0  0  0  0  0  0  0  0  0
   36.4400   31.3959   47.2695 H   0  0  0  0  0  0  0  0  0  0  0  0
   35.8454   29.9894   51.3057 H   0  0  0  0  0  0  0  0  0  0  0  0
   39.6701   31.3583   49.9872 H   0  0  0  0  0  0  0  0  0  0  0  0
   33.5678   24.4816   46.8230 H   0  0  0  0  0  0  0  0  0  0  0  0
   35.0855   26.4524   46.8223 H   0  0  0  0  0  0  0  0  0  0  0  0
  1  8  1  0
  1  6  1  0
  2  1  1  0
  3  2  1  0
  3  4  1  0
  4  5  1  0
  5  6  1  0
  7 12  2  0
  7  8  1  0
  8  9  2  0
  9 10  1  0
 11 10  2  0
 12 11  1  0
 13 14  2  0
 15 13  1  0
 15  4  1  0
  1 16  1  1
  2 17  1  0
  2 18  1  0
  3 19  1  0
  3 20  1  0
  4 21  1  1
  5 22  1  0
  5 23  1  0
  6 24  1  0
  6 25  1  0
  7 26  1  0
  9 27  1  0
 11 28  1  0
 13 29  1  0
 15 30  1  0
M  ISO  8  16  13  17  13  18  13  19  13  20  13  21  13  22  13  23  13
M  ISO  6  24  13  25  13  26  14  27  14  28  14  29   6
M  END
>  <minimizedAffinity>  (1) 
-4.20166302

>  <minimizedRMSD>  (1) 
0.56301105

$$$$
