
     RDKit          3D

 40 42  0  0  1  0  0  0  0  0999 V2000
   37.6730   30.5940   46.1640 C   0  0  1  0  0  0  0  0  0  0  0  0
   36.4550   30.9670   45.2840 C   0  0  0  0  0  0  0  0  0  0  0  0
   36.3270   29.7690   44.3220 C   0  0  0  0  0  0  0  0  0  0  0  0
   37.4700   29.8530   43.3770 C   0  0  0  0  0  0  0  0  0  0  0  0
   38.7700   29.7640   44.1260 C   0  0  0  0  0  0  0  0  0  0  0  0
   38.8640   30.7550   45.2610 C   0  0  2  0  0  0  0  0  0  0  0  0
   37.0040   31.2240   48.5020 C   0  0  0  0  0  0  0  0  0  0  0  0
   37.1830   32.0300   49.6190 C   0  0  0  0  0  0  0  0  0  0  0  0
   38.1310   33.0630   49.6050 C   0  0  0  0  0  0  0  0  0  0  0  0
   38.8710   33.2400   48.4400 C   0  0  0  0  0  0  0  0  0  0  0  0
   38.7010   32.4510   47.3390 C   0  0  0  0  0  0  0  0  0  0  0  0
   37.7430   31.4160   47.3700 C   0  0  0  0  0  0  0  0  0  0  0  0
   35.0480   28.1440   49.4600 C   0  0  0  0  0  0  0  0  0  0  0  0
   36.1150   29.0610   49.4100 C   0  0  0  0  0  0  0  0  0  0  0  0
   35.9820   30.2070   48.6280 C   0  0  0  0  0  0  0  0  0  0  0  0
   34.8190   30.3500   47.9660 N   0  0  0  0  0  0  0  0  0  0  0  0
   33.8020   29.4720   48.0170 C   0  0  0  0  0  0  0  0  0  0  0  0
   33.9230   28.3810   48.7590 N   0  0  0  0  0  0  0  0  0  0  0  0
   41.2830   31.3210   45.7760 C   0  0  0  0  0  0  0  0  0  0  0  0
   41.3660   32.3150   45.0450 O   0  0  0  0  0  0  0  0  0  0  0  0
   40.1190   30.5230   45.9330 N   0  0  0  0  0  0  0  0  0  0  0  0
   37.6126   29.5664   46.5519 H   0  0  0  0  0  0  0  0  0  0  0  0
   35.5475   31.0791   45.8955 H   0  0  0  0  0  0  0  0  0  0  0  0
   36.5820   31.9259   44.7602 H   0  0  0  0  0  0  0  0  0  0  0  0
   36.3698   28.8250   44.8851 H   0  0  0  0  0  0  0  0  0  0  0  0
   35.3677   29.7955   43.7843 H   0  0  0  0  0  0  0  0  0  0  0  0
   37.4261   30.8108   42.8378 H   0  0  0  0  0  0  0  0  0  0  0  0
   37.4085   29.0176   42.6640 H   0  0  0  0  0  0  0  0  0  0  0  0
   38.8690   28.7487   44.5376 H   0  0  0  0  0  0  0  0  0  0  0  0
   39.5765   29.9986   43.4157 H   0  0  0  0  0  0  0  0  0  0  0  0
   38.8465   31.7961   44.9065 H   0  0  0  0  0  0  0  0  0  0  0  0
   36.5770   31.8567   50.5205 H   0  0  0  0  0  0  0  0  0  0  0  0
   38.2840   33.7092   50.4820 H   0  0  0  0  0  0  0  0  0  0  0  0
   39.6201   34.0448   48.4049 H   0  0  0  0  0  0  0  0  0  0  0  0
   39.3056   32.6208   46.4359 H   0  0  0  0  0  0  0  0  0  0  0  0
   35.1333   27.2338   50.0718 H   0  0  0  0  0  0  0  0  0  0  0  0
   37.0383   28.8761   49.9786 H   0  0  0  0  0  0  0  0  0  0  0  0
   32.8788   29.6576   47.4484 H   0  0  0  0  0  0  0  0  0  0  0  0
   42.1779   31.0335   46.3474 H   0  0  0  0  0  0  0  0  0  0  0  0
   40.1750   29.7189   46.5743 H   0  0  0  0  0  0  0  0  0  0  0  0
  1 12  1  0
  2  1  1  0
  3  2  1  0
  4  5  1  0
  4  3  1  0
  5  6  1  0
  6 21  1  0
  6  1  1  0
  7 15  1  0
  7  8  2  0
  9  8  1  0
 10  9  2  0
 11 12  2  0
 11 10  1  0
 12  7  1  0
 14 13  2  0
 15 14  1  0
 16 17  1  0
 16 15  2  0
 17 18  2  0
 18 13  1  0
 19 21  1  0
 20 19  2  0
  1 22  1  1
  2 23  1  0
  2 24  1  0
  3 25  1  0
  3 26  1  0
  4 27  1  0
  4 28  1  0
  5 29  1  0
  5 30  1  0
  6 31  1  6
  8 32  1  0
  9 33  1  0
 10 34  1  0
 11 35  1  0
 13 36  1  0
 14 37  1  0
 17 38  1  0
 19 39  1  0
 21 40  1  0
M  ISO  8  22  13  23  13  24  13  25  13  26  13  27  13  28  13  29  13
M  ISO  8  30  13  31  13  32  14  33  14  34  14  35  14  36  14  37  14
M  ISO  2  38  14  39   6
M  END
>  <minimizedAffinity>  (1) 
-6.21899033

>  <minimizedRMSD>  (1) 
1.83194792

$$$$
