
     RDKit          3D

 44 47  0  0  1  0  0  0  0  0999 V2000
   38.8510   30.8920   46.3450 C   0  0  0  0  0  0  0  0  0  0  0  0
   37.9570   32.4830   48.0860 C   0  0  1  0  0  0  0  0  0  0  0  0
   39.3240   33.0300   47.7540 C   0  0  0  0  0  0  0  0  0  0  0  0
   39.0320   31.5870   47.6460 C   0  0  2  0  0  0  0  0  0  0  0  0
   37.5420   32.6070   49.5150 C   0  0  0  0  0  0  0  0  0  0  0  0
   36.7080   29.4890   51.4240 C   0  0  0  0  0  0  0  0  0  0  0  0
   37.3960   30.6530   50.9620 C   0  0  0  0  0  0  0  0  0  0  0  0
   36.8080   31.4050   49.9770 C   0  0  0  0  0  0  0  0  0  0  0  0
   35.6190   31.0150   49.4960 N   0  0  0  0  0  0  0  0  0  0  0  0
   34.9840   29.9230   49.9350 C   0  0  0  0  0  0  0  0  0  0  0  0
   35.5360   29.1730   50.8940 N   0  0  0  0  0  0  0  0  0  0  0  0
   39.5720   31.5480   45.1890 C   0  0  0  0  0  0  0  0  0  0  0  0
   38.8490   29.4760   44.0540 C   0  0  0  0  0  0  0  0  0  0  0  0
   39.7600   30.5200   44.1170 C   0  0  0  0  0  0  0  0  0  0  0  0
   40.7960   30.5770   43.1990 C   0  0  0  0  0  0  0  0  0  0  0  0
   40.9450   29.6230   42.2260 C   0  0  0  0  0  0  0  0  0  0  0  0
   41.8600   29.4790   41.2460 N   0  0  0  0  0  0  0  0  0  0  0  0
   41.5300   28.3620   40.5770 C   0  0  0  0  0  0  0  0  0  0  0  0
   40.3980   27.7470   41.0970 C   0  0  0  0  0  0  0  0  0  0  0  0
   40.0460   28.5810   42.1540 C   0  0  0  0  0  0  0  0  0  0  0  0
   39.0240   28.5220   43.0560 C   0  0  0  0  0  0  0  0  0  0  0  0
   36.7300   27.2980   42.7080 C   0  0  0  0  0  0  0  0  0  0  0  0
   35.9180   28.2130   42.5070 O   0  0  0  0  0  0  0  0  0  0  0  0
   38.1120   27.4280   42.9520 N   0  0  0  0  0  0  0  0  0  0  0  0
   39.2270   29.8634   46.4476 H   0  0  0  0  0  0  0  0  0  0  0  0
   37.7767   30.9304   46.1116 H   0  0  0  0  0  0  0  0  0  0  0  0
   36.9167   32.6094   47.7518 H   0  0  0  0  0  0  0  0  0  0  0  0
   39.4728   33.6337   46.8466 H   0  0  0  0  0  0  0  0  0  0  0  0
   40.0728   33.6418   48.2784 H   0  0  0  0  0  0  0  0  0  0  0  0
   39.5508   30.7019   48.0428 H   0  0  0  0  0  0  0  0  0  0  0  0
   38.4396   32.7381   50.1372 H   0  0  0  0  0  0  0  0  0  0  0  0
   36.8716   33.4745   49.6042 H   0  0  0  0  0  0  0  0  0  0  0  0
   37.1478   28.8610   52.2128 H   0  0  0  0  0  0  0  0  0  0  0  0
   38.3706   30.9383   51.3847 H   0  0  0  0  0  0  0  0  0  0  0  0
   34.0098   29.6426   49.5080 H   0  0  0  0  0  0  0  0  0  0  0  0
   38.9726   32.3853   44.8021 H   0  0  0  0  0  0  0  0  0  0  0  0
   40.5461   31.9386   45.5186 H   0  0  0  0  0  0  0  0  0  0  0  0
   38.0161   29.4045   44.7689 H   0  0  0  0  0  0  0  0  0  0  0  0
   41.5158   31.4071   43.2521 H   0  0  0  0  0  0  0  0  0  0  0  0
   42.6556   30.1029   41.0492 H   0  0  0  0  0  0  0  0  0  0  0  0
   42.0931   27.9772   39.7139 H   0  0  0  0  0  0  0  0  0  0  0  0
   39.9015   26.8263   40.7566 H   0  0  0  0  0  0  0  0  0  0  0  0
   36.3284   26.2740   42.6944 H   0  0  0  0  0  0  0  0  0  0  0  0
   38.5741   26.5175   43.0875 H   0  0  0  0  0  0  0  0  0  0  0  0
  1  4  1  0
  2  5  1  0
  3  2  1  0
  4  3  1  0
  4  2  1  0
  5  8  1  0
  7  6  2  0
  8  7  1  0
  9 10  1  0
  9  8  2  0
 10 11  2  0
 11  6  1  0
 12  1  1  0
 13 14  2  0
 14 12  1  0
 15 14  1  0
 16 15  2  0
 17 16  1  0
 18 19  2  0
 18 17  1  0
 19 20  1  0
 20 16  1  0
 20 21  2  0
 21 13  1  0
 22 24  1  0
 23 22  2  0
 24 21  1  0
  1 25  1  0
  1 26  1  0
  2 27  1  6
  3 28  1  0
  3 29  1  0
  4 30  1  1
  5 31  1  0
  5 32  1  0
  6 33  1  0
  7 34  1  0
 10 35  1  0
 12 36  1  0
 12 37  1  0
 13 38  1  0
 15 39  1  0
 17 40  1  0
 18 41  1  0
 19 42  1  0
 22 43  1  0
 24 44  1  0
M  ISO  8  25   8  26   8  27  13  28  13  29  13  30  13  31   8  32   8
M  ISO  8  33  14  34  14  35  14  36   8  37   8  38  14  39  14  40   9
M  ISO  3  41  14  42  14  43   6
M  END
>  <minimizedAffinity>  (1) 
-5.78108788

>  <minimizedRMSD>  (1) 
1.62542367

$$$$
