
     RDKit          3D

 35 37  0  0  1  0  0  0  0  0999 V2000
   38.4860   31.8040   48.4100 C   0  0  1  0  0  0  0  0  0  0  0  0
   38.0340   30.3740   48.5010 C   0  0  2  0  0  0  0  0  0  0  0  0
   38.0380   29.8290   47.2350 O   0  0  0  0  0  0  0  0  0  0  0  0
   38.9250   30.5920   46.4710 C   0  0  0  0  0  0  0  0  0  0  0  0
   38.5710   31.9990   46.9250 C   0  0  2  0  0  0  0  0  0  0  0  0
   35.3050   29.3800   50.9230 C   0  0  0  0  0  0  0  0  0  0  0  0
   36.6090   29.5210   50.3820 C   0  0  0  0  0  0  0  0  0  0  0  0
   36.7240   30.1800   49.1580 C   0  0  0  0  0  0  0  0  0  0  0  0
   35.5880   30.6600   48.5360 N   0  0  0  0  0  0  0  0  0  0  0  0
   34.3690   30.5000   49.0920 C   0  0  0  0  0  0  0  0  0  0  0  0
   34.2300   29.8680   50.2710 N   0  0  0  0  0  0  0  0  0  0  0  0
   37.7210   32.7030   49.0760 O   0  0  0  0  0  0  0  0  0  0  0  0
   39.5000   32.9330   46.5530 O   0  0  0  0  0  0  0  0  0  0  0  0
   40.5450   33.1010   44.4870 N   0  0  0  0  0  0  0  0  0  0  0  0
   40.2350   31.9110   43.7200 C   0  0  0  0  0  0  0  0  0  0  0  0
   38.8120   32.2290   43.2620 C   0  0  0  0  0  0  0  0  0  0  0  0
   38.2130   32.6150   44.6210 C   0  0  0  0  0  0  0  0  0  0  0  0
   39.3700   33.3850   45.2570 C   0  0  1  0  0  0  0  0  0  0  0  0
   39.4392   31.9908   48.9263 H   0  0  0  0  0  0  0  0  0  0  0  0
   38.7477   29.8531   49.1562 H   0  0  0  0  0  0  0  0  0  0  0  0
   38.7465   30.4591   45.3937 H   0  0  0  0  0  0  0  0  0  0  0  0
   39.9835   30.3261   46.6086 H   0  0  0  0  0  0  0  0  0  0  0  0
   37.6516   32.4004   46.4738 H   0  0  0  0  0  0  0  0  0  0  0  0
   35.1691   28.8663   51.8861 H   0  0  0  0  0  0  0  0  0  0  0  0
   37.4924   29.1271   50.9059 H   0  0  0  0  0  0  0  0  0  0  0  0
   33.4797   30.8905   48.5756 H   0  0  0  0  0  0  0  0  0  0  0  0
   37.8320   32.5726   50.0511 H   0  0  0  0  0  0  0  0  0  0  0  0
   40.7605   33.8875   43.8578 H   0  0  0  0  0  0  0  0  0  0  0  0
   40.9178   31.7904   42.8661 H   0  0  0  0  0  0  0  0  0  0  0  0
   40.3338   30.9694   44.2800 H   0  0  0  0  0  0  0  0  0  0  0  0
   38.7845   33.0632   42.5455 H   0  0  0  0  0  0  0  0  0  0  0  0
   38.2929   31.4218   42.7245 H   0  0  0  0  0  0  0  0  0  0  0  0
   37.3240   33.2518   44.5019 H   0  0  0  0  0  0  0  0  0  0  0  0
   37.8635   31.7586   45.2164 H   0  0  0  0  0  0  0  0  0  0  0  0
   39.2041   34.4723   45.2711 H   0  0  0  0  0  0  0  0  0  0  0  0
  1  2  1  0
  1 12  1  0
  2  8  1  0
  3  2  1  0
  4  5  1  0
  4  3  1  0
  5  1  1  0
  7  6  2  0
  8  7  1  0
  9 10  1  0
  9  8  2  0
 10 11  2  0
 11  6  1  0
 13  5  1  0
 14 18  1  0
 15 14  1  0
 16 15  1  0
 16 17  1  0
 17 18  1  0
 18 13  1  0
  1 19  1  1
  2 20  1  1
  4 21  1  0
  4 22  1  0
  5 23  1  6
  6 24  1  0
  7 25  1  0
 10 26  1  0
 12 27  1  0
 14 28  1  0
 15 29  1  0
 15 30  1  0
 16 31  1  0
 16 32  1  0
 17 33  1  0
 17 34  1  0
 18 35  1  1
M  ISO  8  19  13  20  13  21  13  22  13  23  13  24  14  25  14  26  14
M  ISO  8  27   3  28   5  29  13  30  13  31  13  32  13  33  13  34  13
M  ISO  1  35  13
M  END
>  <minimizedAffinity>  (1) 
-4.21414185

>  <minimizedRMSD>  (1) 
2.37905931

$$$$
