
     RDKit          3D

 27 28  0  0  1  0  0  0  0  0999 V2000
   37.9580   30.7600   47.0340 C   0  0  0  0  0  0  0  0  0  0  0  0
   39.1600   30.5380   46.3350 C   0  0  0  0  0  0  0  0  0  0  0  0
   39.1270   30.4870   44.9440 C   0  0  0  0  0  0  0  0  0  0  0  0
   37.9140   30.6560   44.3190 N   0  0  0  0  0  0  0  0  0  0  0  0
   36.7730   30.8680   45.0280 C   0  0  0  0  0  0  0  0  0  0  0  0
   36.7980   30.9190   46.3720 N   0  0  0  0  0  0  0  0  0  0  0  0
   34.5630   30.0290   44.7300 C   0  0  0  0  0  0  0  0  0  0  0  0
   34.6970   29.0690   45.5530 O   0  0  0  0  0  0  0  0  0  0  0  0
   35.5250   31.0410   44.3450 N   0  0  0  0  0  0  0  0  0  0  0  0
   38.1490   30.7850   48.3930 O   0  0  0  0  0  0  0  0  0  0  0  0
   35.9950   30.6180   49.1480 N   0  0  0  0  0  0  0  0  0  0  0  0
   35.9490   29.4550   49.9750 C   0  0  0  0  0  0  0  0  0  0  0  0
   37.3330   29.2730   50.5720 C   0  0  0  0  0  0  0  0  0  0  0  0
   37.7330   30.7490   50.7150 C   0  0  0  0  0  0  0  0  0  0  0  0
   37.2830   31.2720   49.3660 C   0  0  1  0  0  0  0  0  0  0  0  0
   40.1077   30.4073   46.8779 H   0  0  0  0  0  0  0  0  0  0  0  0
   40.0447   30.3165   44.3620 H   0  0  0  0  0  0  0  0  0  0  0  0
   33.5795   30.1009   44.2426 H   0  0  0  0  0  0  0  0  0  0  0  0
   35.3358   31.7913   43.6652 H   0  0  0  0  0  0  0  0  0  0  0  0
   35.2295   31.2587   49.4019 H   0  0  0  0  0  0  0  0  0  0  0  0
   35.2080   29.5916   50.7764 H   0  0  0  0  0  0  0  0  0  0  0  0
   35.6573   28.5708   49.3892 H   0  0  0  0  0  0  0  0  0  0  0  0
   37.2979   28.7597   51.5443 H   0  0  0  0  0  0  0  0  0  0  0  0
   38.0233   28.6522   49.9820 H   0  0  0  0  0  0  0  0  0  0  0  0
   37.1987   31.2390   51.5423 H   0  0  0  0  0  0  0  0  0  0  0  0
   38.7935   30.9222   50.9502 H   0  0  0  0  0  0  0  0  0  0  0  0
   37.2464   32.3707   49.3262 H   0  0  0  0  0  0  0  0  0  0  0  0
  1 10  1  0
  2  1  2  0
  3  2  1  0
  4  3  2  0
  4  5  1  0
  5  6  2  0
  6  1  1  0
  7  8  2  0
  9  7  1  0
  9  5  1  0
 11 15  1  0
 11 12  1  0
 12 13  1  0
 13 14  1  0
 15 10  1  0
 15 14  1  0
  2 16  1  0
  3 17  1  0
  7 18  1  0
  9 19  1  0
 11 20  1  0
 12 21  1  0
 12 22  1  0
 13 23  1  0
 13 24  1  0
 14 25  1  0
 14 26  1  0
 15 27  1  1
M  ISO  8  16  14  17  14  18   6  20   5  21  13  22  13  23  13  24  13
M  ISO  3  25  13  26  13  27  13
M  END
>  <minimizedAffinity>  (1) 
-4.27008104

>  <minimizedRMSD>  (1) 
4.28818369

$$$$
