
     RDKit          3D

 49 52  0  0  1  0  0  0  0  0999 V2000
   40.5670   33.1960   45.2010 S   0  0  0  0  0  0  0  0  0  0  0  0
   37.7880   31.7930   47.6560 C   0  0  0  0  0  0  0  0  0  0  0  0
   37.9600   32.5250   48.8310 C   0  0  0  0  0  0  0  0  0  0  0  0
   38.9460   33.4940   48.9310 C   0  0  0  0  0  0  0  0  0  0  0  0
   39.7300   33.6790   47.8040 C   0  0  0  0  0  0  0  0  0  0  0  0
   39.5340   32.9480   46.6750 C   0  0  0  0  0  0  0  0  0  0  0  0
   38.5770   32.0040   46.5720 N   0  0  0  0  0  0  0  0  0  0  0  0
   36.7370   30.8050   47.6380 C   0  0  0  0  0  0  0  0  0  0  0  0
   36.2720   30.3870   46.5800 O   0  0  0  0  0  0  0  0  0  0  0  0
   37.0560   29.6380   49.7900 C   0  0  0  0  0  0  0  0  0  0  0  0
   36.1670   30.2430   48.8760 C   0  0  0  0  0  0  0  0  0  0  0  0
   34.7930   30.2940   49.1600 C   0  0  0  0  0  0  0  0  0  0  0  0
   34.3540   29.7460   50.3350 N   0  0  0  0  0  0  0  0  0  0  0  0
   35.2310   29.1680   51.2020 C   0  0  0  0  0  0  0  0  0  0  0  0
   36.5280   29.1200   50.9310 N   0  0  0  0  0  0  0  0  0  0  0  0
   39.4720   32.9620   43.7810 C   0  0  0  0  0  0  0  0  0  0  0  0
   39.0730   29.7390   42.3580 C   0  0  1  0  0  0  0  0  0  0  0  0
   38.9350   31.2320   42.0750 C   0  0  0  0  0  0  0  0  0  0  0  0
   39.9980   31.7850   42.9800 C   0  0  2  0  0  0  0  0  0  0  0  0
   40.4580   30.7740   43.7820 O   0  0  0  0  0  0  0  0  0  0  0  0
   39.5010   29.7590   43.7990 C   0  0  0  0  0  0  0  0  0  0  0  0
   37.8440   29.0940   42.1880 O   0  0  0  0  0  0  0  0  0  0  0  0
   39.1820   27.5010   41.0430 N   0  0  0  0  0  0  0  0  0  0  0  0
   39.2530   26.0400   41.1920 C   0  0  0  0  0  0  0  0  0  0  0  0
   39.0130   25.9740   42.7070 C   0  0  0  0  0  0  0  0  0  0  0  0
   37.6970   26.7560   42.7480 C   0  0  0  0  0  0  0  0  0  0  0  0
   37.9510   27.8180   41.7060 C   0  0  1  0  0  0  0  0  0  0  0  0
   37.3030   32.3302   49.6914 H   0  0  0  0  0  0  0  0  0  0  0  0
   39.0968   34.0804   49.8494 H   0  0  0  0  0  0  0  0  0  0  0  0
   40.5292   34.4346   47.8232 H   0  0  0  0  0  0  0  0  0  0  0  0
   38.1359   29.5874   49.5869 H   0  0  0  0  0  0  0  0  0  0  0  0
   34.0881   30.7619   48.4570 H   0  0  0  0  0  0  0  0  0  0  0  0
   34.8576   28.7344   52.1414 H   0  0  0  0  0  0  0  0  0  0  0  0
   38.4493   32.7520   44.1274 H   0  0  0  0  0  0  0  0  0  0  0  0
   39.4477   33.8697   43.1602 H   0  0  0  0  0  0  0  0  0  0  0  0
   39.7679   29.2005   41.6968 H   0  0  0  0  0  0  0  0  0  0  0  0
   39.1393   31.4653   41.0196 H   0  0  0  0  0  0  0  0  0  0  0  0
   37.9283   31.6393   42.2502 H   0  0  0  0  0  0  0  0  0  0  0  0
   40.8377   32.1714   42.3836 H   0  0  0  0  0  0  0  0  0  0  0  0
   38.6619   30.0070   44.4656 H   0  0  0  0  0  0  0  0  0  0  0  0
   39.8724   28.7938   44.1736 H   0  0  0  0  0  0  0  0  0  0  0  0
   39.9814   27.9616   41.5010 H   0  0  0  0  0  0  0  0  0  0  0  0
   38.4669   25.5234   40.6217 H   0  0  0  0  0  0  0  0  0  0  0  0
   40.1718   25.5592   40.8251 H   0  0  0  0  0  0  0  0  0  0  0  0
   38.8952   24.9408   43.0657 H   0  0  0  0  0  0  0  0  0  0  0  0
   39.8242   26.3601   43.3417 H   0  0  0  0  0  0  0  0  0  0  0  0
   36.8421   26.1201   42.4747 H   0  0  0  0  0  0  0  0  0  0  0  0
   37.4394   27.1522   43.7413 H   0  0  0  0  0  0  0  0  0  0  0  0
   37.1527   27.8077   40.9493 H   0  0  0  0  0  0  0  0  0  0  0  0
  1  6  1  0
  2  3  2  0
  3  4  1  0
  5  4  2  0
  6  5  1  0
  7  6  2  0
  7  2  1  0
  8  2  1  0
  8 11  1  0
  9  8  2  0
 10 15  2  0
 11 12  2  0
 11 10  1  0
 12 13  1  0
 13 14  2  0
 15 14  1  0
 16  1  1  0
 17 21  1  0
 18 17  1  0
 18 19  1  0
 19 16  1  0
 19 20  1  0
 20 21  1  0
 22 17  1  0
 23 24  1  0
 23 27  1  0
 24 25  1  0
 25 26  1  0
 27 22  1  0
 27 26  1  0
  3 28  1  0
  4 29  1  0
  5 30  1  0
 10 31  1  0
 12 32  1  0
 14 33  1  0
 16 34  1  0
 16 35  1  0
 17 36  1  6
 18 37  1  0
 18 38  1  0
 19 39  1  6
 21 40  1  0
 21 41  1  0
 23 42  1  0
 24 43  1  0
 24 44  1  0
 25 45  1  0
 25 46  1  0
 26 47  1  0
 26 48  1  0
 27 49  1  6
M  ISO  8  28  14  29  14  30  14  31  14  32  14  33  14  34   8  35   8
M  ISO  8  36  13  37  13  38  13  39  13  40  13  41  13  42   5  43  13
M  ISO  6  44  13  45  13  46  13  47  13  48  13  49  13
M  END
>  <minimizedAffinity>  (1) 
-5.40361023

>  <minimizedRMSD>  (1) 
0.552619517

$$$$
