
     RDKit          3D

 38 41  0  0  0  0  0  0  0  0999 V2000
   37.4420   30.2070   50.7630 C   0  0  0  0  0  0  0  0  0  0  0  0
   38.2310   31.1750   50.1170 C   0  0  0  0  0  0  0  0  0  0  0  0
   37.8100   31.5400   48.8420 C   0  0  0  0  0  0  0  0  0  0  0  0
   36.7270   30.9610   48.3530 N   0  0  0  0  0  0  0  0  0  0  0  0
   35.9680   30.0530   48.9310 C   0  0  0  0  0  0  0  0  0  0  0  0
   36.3940   29.7250   50.1430 N   0  0  0  0  0  0  0  0  0  0  0  0
   38.5220   32.5070   48.0870 N   0  0  0  0  0  0  0  0  0  0  0  0
   38.6070   32.5470   46.6590 C   0  0  0  0  0  0  0  0  0  0  0  0
   40.0200   33.0460   46.4130 C   0  0  0  0  0  0  0  0  0  0  0  0
   40.1460   34.1140   47.4940 C   0  0  0  0  0  0  0  0  0  0  0  0
   39.2770   33.6100   48.6220 C   0  0  0  0  0  0  0  0  0  0  0  0
   34.7640   29.3400   48.5230 C   0  0  0  0  0  0  0  0  0  0  0  0
   33.9780   28.6630   49.3980 N   0  0  0  0  0  0  0  0  0  0  0  0
   32.8750   28.0180   49.0180 C   0  0  0  0  0  0  0  0  0  0  0  0
   32.4340   27.9720   47.7480 N   0  0  0  0  0  0  0  0  0  0  0  0
   33.1720   28.6270   46.8260 C   0  0  0  0  0  0  0  0  0  0  0  0
   32.7250   28.5820   45.5260 C   0  0  0  0  0  0  0  0  0  0  0  0
   33.4410   29.2370   44.5350 C   0  0  0  0  0  0  0  0  0  0  0  0
   34.5870   29.9070   44.9280 C   0  0  0  0  0  0  0  0  0  0  0  0
   34.9790   29.9120   46.2430 C   0  0  0  0  0  0  0  0  0  0  0  0
   34.2970   29.2790   47.2410 C   0  0  0  0  0  0  0  0  0  0  0  0
   37.7690   29.7410   52.0950 N   0  0  0  0  0  0  0  0  0  0  0  0
   39.1223   31.6147   50.5884 H   0  0  0  0  0  0  0  0  0  0  0  0
   38.4605   31.5463   46.2263 H   0  0  0  0  0  0  0  0  0  0  0  0
   37.8370   33.1825   46.1972 H   0  0  0  0  0  0  0  0  0  0  0  0
   40.7607   32.2443   46.5494 H   0  0  0  0  0  0  0  0  0  0  0  0
   40.1992   33.4126   45.3915 H   0  0  0  0  0  0  0  0  0  0  0  0
   41.1910   34.2142   47.8224 H   0  0  0  0  0  0  0  0  0  0  0  0
   39.8379   35.1086   47.1392 H   0  0  0  0  0  0  0  0  0  0  0  0
   38.5988   34.4052   48.9652 H   0  0  0  0  0  0  0  0  0  0  0  0
   39.8829   33.2989   49.4858 H   0  0  0  0  0  0  0  0  0  0  0  0
   32.2912   27.4926   49.7881 H   0  0  0  0  0  0  0  0  0  0  0  0
   31.8069   28.0309   45.2743 H   0  0  0  0  0  0  0  0  0  0  0  0
   33.1133   29.2247   43.4850 H   0  0  0  0  0  0  0  0  0  0  0  0
   35.1895   30.4409   44.1784 H   0  0  0  0  0  0  0  0  0  0  0  0
   35.8964   30.4581   46.5080 H   0  0  0  0  0  0  0  0  0  0  0  0
   37.1786   29.0312   52.5517 H   0  0  0  0  0  0  0  0  0  0  0  0
   38.5919   30.1195   52.5855 H   0  0  0  0  0  0  0  0  0  0  0  0
  1 22  1  0
  2  1  2  0
  3  2  1  0
  4  3  2  0
  4  5  1  0
  5  6  2  0
  6  1  1  0
  7 11  1  0
  7  3  1  0
  8  7  1  0
  9  8  1  0
  9 10  1  0
 10 11  1  0
 12  5  1  0
 12 13  2  0
 14 13  1  0
 15 14  2  0
 16 21  2  0
 16 15  1  0
 17 16  1  0
 18 19  1  0
 18 17  2  0
 19 20  2  0
 20 21  1  0
 21 12  1  0
  2 23  1  0
  8 24  1  0
  8 25  1  0
  9 26  1  0
  9 27  1  0
 10 28  1  0
 10 29  1  0
 11 30  1  0
 11 31  1  0
 14 32  1  0
 17 33  1  0
 18 34  1  0
 19 35  1  0
 20 36  1  0
 22 37  1  0
 22 38  1  0
M  ISO  8  23  14  24  13  25  13  26  13  27  13  28  13  29  13  30  13
M  ISO  6  31  13  32  14  33  14  34  14  35  14  36  14
M  END
>  <minimizedAffinity>  (1) 
-6.58511734

>  <minimizedRMSD>  (1) 
0.318975329

$$$$
