
     RDKit          3D

 43 46  0  0  0  0  0  0  0  0999 V2000
   34.7640   29.1230   48.4020 C   0  0  0  0  0  0  0  0  0  0  0  0
   34.4270   27.8600   48.8540 C   0  0  0  0  0  0  0  0  0  0  0  0
   33.3230   27.3300   48.2320 C   0  0  0  0  0  0  0  0  0  0  0  0
   32.6120   27.9840   47.2500 C   0  0  0  0  0  0  0  0  0  0  0  0
   33.0260   29.2320   46.8730 C   0  0  0  0  0  0  0  0  0  0  0  0
   34.1020   29.7940   47.4540 N   0  0  0  0  0  0  0  0  0  0  0  0
   37.4210   30.0880   50.7540 C   0  0  0  0  0  0  0  0  0  0  0  0
   38.1430   31.0550   50.0430 C   0  0  0  0  0  0  0  0  0  0  0  0
   37.7000   31.3560   48.7720 C   0  0  0  0  0  0  0  0  0  0  0  0
   36.6070   30.7050   48.2940 N   0  0  0  0  0  0  0  0  0  0  0  0
   35.9310   29.7830   48.9920 C   0  0  0  0  0  0  0  0  0  0  0  0
   36.3500   29.4760   50.2380 N   0  0  0  0  0  0  0  0  0  0  0  0
   38.3760   32.3250   47.9840 N   0  0  0  0  0  0  0  0  0  0  0  0
   38.4640   32.3350   46.5370 C   0  0  0  0  0  0  0  0  0  0  0  0
   39.9420   32.7230   46.3860 C   0  0  0  0  0  0  0  0  0  0  0  0
   39.9920   33.9220   47.3090 C   0  0  0  0  0  0  0  0  0  0  0  0
   39.1060   33.4860   48.4540 C   0  0  0  0  0  0  0  0  0  0  0  0
   37.7900   29.6870   52.1000 N   0  0  0  0  0  0  0  0  0  0  0  0
   30.0020   29.1370   46.9690 Cl  0  0  0  0  0  0  0  0  0  0  0  0
   30.9490   30.0020   45.7980 C   0  0  0  0  0  0  0  0  0  0  0  0
   32.3180   29.9790   45.8450 C   0  0  0  0  0  0  0  0  0  0  0  0
   32.9370   30.7170   44.8450 C   0  0  0  0  0  0  0  0  0  0  0  0
   32.2810   31.4230   43.8760 C   0  0  0  0  0  0  0  0  0  0  0  0
   30.9020   31.4200   43.8640 C   0  0  0  0  0  0  0  0  0  0  0  0
   30.0310   32.3110   42.6420 Cl  0  0  0  0  0  0  0  0  0  0  0  0
   30.2540   30.7100   44.8250 C   0  0  0  0  0  0  0  0  0  0  0  0
   34.9895   27.3304   49.6370 H   0  0  0  0  0  0  0  0  0  0  0  0
   32.9878   26.3271   48.5350 H   0  0  0  0  0  0  0  0  0  0  0  0
   31.7343   27.5149   46.7813 H   0  0  0  0  0  0  0  0  0  0  0  0
   39.0228   31.5515   50.4783 H   0  0  0  0  0  0  0  0  0  0  0  0
   38.2514   31.3462   46.1045 H   0  0  0  0  0  0  0  0  0  0  0  0
   37.7481   32.9949   46.0251 H   0  0  0  0  0  0  0  0  0  0  0  0
   40.6122   31.9189   46.7240 H   0  0  0  0  0  0  0  0  0  0  0  0
   40.2677   32.9180   45.3536 H   0  0  0  0  0  0  0  0  0  0  0  0
   41.0186   34.1177   47.6522 H   0  0  0  0  0  0  0  0  0  0  0  0
   39.6660   34.8582   46.8322 H   0  0  0  0  0  0  0  0  0  0  0  0
   38.4074   34.2919   48.7233 H   0  0  0  0  0  0  0  0  0  0  0  0
   39.6982   33.2501   49.3505 H   0  0  0  0  0  0  0  0  0  0  0  0
   37.2368   28.9725   52.5944 H   0  0  0  0  0  0  0  0  0  0  0  0
   38.6049   30.1171   52.5603 H   0  0  0  0  0  0  0  0  0  0  0  0
   34.0368   30.7347   44.8317 H   0  0  0  0  0  0  0  0  0  0  0  0
   32.8446   31.9853   43.1169 H   0  0  0  0  0  0  0  0  0  0  0  0
   29.1541   30.6955   44.8327 H   0  0  0  0  0  0  0  0  0  0  0  0
  1  2  2  0
  1 11  1  0
  3  2  1  0
  4  3  2  0
  5  4  1  0
  5  6  2  0
  6  1  1  0
  7 18  1  0
  8  7  2  0
  9  8  1  0
 10  9  2  0
 10 11  1  0
 11 12  2  0
 12  7  1  0
 13 17  1  0
 13  9  1  0
 14 13  1  0
 15 14  1  0
 15 16  1  0
 16 17  1  0
 20 21  2  0
 20 19  1  0
 21  5  1  0
 22 21  1  0
 23 22  2  0
 24 23  1  0
 24 26  2  0
 25 24  1  0
 26 20  1  0
  2 27  1  0
  3 28  1  0
  4 29  1  0
  8 30  1  0
 14 31  1  0
 14 32  1  0
 15 33  1  0
 15 34  1  0
 16 35  1  0
 16 36  1  0
 17 37  1  0
 17 38  1  0
 18 39  1  0
 18 40  1  0
 22 41  1  0
 23 42  1  0
 26 43  1  0
M  ISO  8  27  14  28  14  29  14  30  14  31  13  32  13  33  13  34  13
M  ISO  7  35  13  36  13  37  13  38  13  41  14  42  14  43  14
M  END
>  <minimizedAffinity>  (1) 
-6.9893651

>  <minimizedRMSD>  (1) 
0.318517923

$$$$
