
     RDKit          3D

 37 39  0  0  1  0  0  0  0  0999 V2000
   38.6930   31.1940   46.5730 C   0  0  0  0  0  0  0  0  0  0  0  0
   38.6440   31.2220   45.1560 C   0  0  0  0  0  0  0  0  0  0  0  0
   37.4810   30.7990   44.5100 C   0  0  0  0  0  0  0  0  0  0  0  0
   36.4600   30.3820   45.3000 N   0  0  0  0  0  0  0  0  0  0  0  0
   36.5190   30.3600   46.6370 C   0  0  0  0  0  0  0  0  0  0  0  0
   37.6300   30.7640   47.2630 N   0  0  0  0  0  0  0  0  0  0  0  0
   35.3780   29.8980   47.4000 N   0  0  0  0  0  0  0  0  0  0  0  0
   35.6170   28.9740   48.5110 C   0  0  2  0  0  0  0  0  0  0  0  0
   34.4730   28.0500   48.7650 C   0  0  0  0  0  0  0  0  0  0  0  0
   33.6830   27.9380   47.4770 C   0  0  0  0  0  0  0  0  0  0  0  0
   33.0050   29.2830   47.2750 C   0  0  0  0  0  0  0  0  0  0  0  0
   34.0600   30.3410   47.0680 C   0  0  0  0  0  0  0  0  0  0  0  0
   36.1200   29.7030   49.6060 N   0  0  0  0  0  0  0  0  0  0  0  0
   36.2720   31.1040   49.4300 C   0  0  0  0  0  0  0  0  0  0  0  0
   36.7920   31.5480   50.7810 C   0  0  0  0  0  0  0  0  0  0  0  0
   37.5290   30.3210   51.2760 C   0  0  0  0  0  0  0  0  0  0  0  0
   37.3290   29.2490   50.1950 C   0  0  0  0  0  0  0  0  0  0  0  0
   39.5994   31.5238   47.1019 H   0  0  0  0  0  0  0  0  0  0  0  0
   39.5097   31.5719   44.5744 H   0  0  0  0  0  0  0  0  0  0  0  0
   37.3965   30.8036   43.4133 H   0  0  0  0  0  0  0  0  0  0  0  0
   36.4020   28.2484   48.2517 H   0  0  0  0  0  0  0  0  0  0  0  0
   34.8489   27.0599   49.0623 H   0  0  0  0  0  0  0  0  0  0  0  0
   33.8378   28.4341   49.5768 H   0  0  0  0  0  0  0  0  0  0  0  0
   34.3563   27.7204   46.6348 H   0  0  0  0  0  0  0  0  0  0  0  0
   32.9466   27.1225   47.5289 H   0  0  0  0  0  0  0  0  0  0  0  0
   32.3511   29.2370   46.3917 H   0  0  0  0  0  0  0  0  0  0  0  0
   32.4007   29.5302   48.1603 H   0  0  0  0  0  0  0  0  0  0  0  0
   34.0492   30.6426   46.0102 H   0  0  0  0  0  0  0  0  0  0  0  0
   33.8186   31.1777   47.7401 H   0  0  0  0  0  0  0  0  0  0  0  0
   36.9951   31.3285   48.6321 H   0  0  0  0  0  0  0  0  0  0  0  0
   35.3441   31.6118   49.1281 H   0  0  0  0  0  0  0  0  0  0  0  0
   37.4731   32.4060   50.6811 H   0  0  0  0  0  0  0  0  0  0  0  0
   35.9983   31.8847   51.4642 H   0  0  0  0  0  0  0  0  0  0  0  0
   38.5990   30.5421   51.4030 H   0  0  0  0  0  0  0  0  0  0  0  0
   37.1492   29.9870   52.2528 H   0  0  0  0  0  0  0  0  0  0  0  0
   37.2167   28.2461   50.6326 H   0  0  0  0  0  0  0  0  0  0  0  0
   38.1697   29.1406   49.4939 H   0  0  0  0  0  0  0  0  0  0  0  0
  1  6  2  0
  2  1  1  0
  3  2  2  0
  3  4  1  0
  4  5  2  0
  5  6  1  0
  5  7  1  0
  7  8  1  0
  8  9  1  0
  8 13  1  0
 10  9  1  0
 11 10  1  0
 12 11  1  0
 12  7  1  0
 13 14  1  0
 13 17  1  0
 14 15  1  0
 15 16  1  0
 17 16  1  0
  1 18  1  0
  2 19  1  0
  3 20  1  0
  8 21  1  6
  9 22  1  0
  9 23  1  0
 10 24  1  0
 10 25  1  0
 11 26  1  0
 11 27  1  0
 12 28  1  0
 12 29  1  0
 14 30  1  0
 14 31  1  0
 15 32  1  0
 15 33  1  0
 16 34  1  0
 16 35  1  0
 17 36  1  0
 17 37  1  0
M  ISO  8  18  14  19  14  20  14  21  13  22  13  23  13  24  13  25  13
M  ISO  8  26  13  27  13  28  13  29  13  30  13  31  13  32  13  33  13
M  ISO  4  34  13  35  13  36  13  37  13
M  END
>  <minimizedAffinity>  (1) 
-4.63070011

>  <minimizedRMSD>  (1) 
2.23466659

$$$$
