
     RDKit          3D

 29 31  0  0  1  0  0  0  0  0999 V2000
   36.0190   30.3360   47.3310 C   0  0  0  0  0  0  0  0  0  0  0  0
   36.5380   30.5050   46.0740 C   0  0  0  0  0  0  0  0  0  0  0  0
   37.6650   31.3130   46.1810 C   0  0  0  0  0  0  0  0  0  0  0  0
   37.7920   31.6060   47.4890 N   0  0  0  0  0  0  0  0  0  0  0  0
   36.8130   31.0260   48.1840 N   0  0  0  0  0  0  0  0  0  0  0  0
   33.4920   28.0050   48.8680 C   0  0  0  0  0  0  0  0  0  0  0  0
   34.6910   28.7170   48.7310 C   0  0  0  0  0  0  0  0  0  0  0  0
   34.8210   29.5360   47.6030 C   0  0  0  0  0  0  0  0  0  0  0  0
   33.7800   29.6040   46.6950 N   0  0  0  0  0  0  0  0  0  0  0  0
   32.6400   28.8880   46.8850 C   0  0  0  0  0  0  0  0  0  0  0  0
   32.5060   28.0970   47.9670 N   0  0  0  0  0  0  0  0  0  0  0  0
   39.3170   33.4740   47.3160 N   0  0  0  0  0  0  0  0  0  0  0  0
   40.0810   34.2660   48.2690 C   0  0  0  0  0  0  0  0  0  0  0  0
   39.3700   34.1440   49.6060 C   0  0  0  0  0  0  0  0  0  0  0  0
   38.2020   33.2100   49.2960 C   0  0  0  0  0  0  0  0  0  0  0  0
   38.8020   32.4150   48.1360 C   0  0  1  0  0  0  0  0  0  0  0  0
   36.1345   30.0771   45.1444 H   0  0  0  0  0  0  0  0  0  0  0  0
   38.3202   31.6455   45.3624 H   0  0  0  0  0  0  0  0  0  0  0  0
   33.3568   27.3509   49.7420 H   0  0  0  0  0  0  0  0  0  0  0  0
   35.4951   28.6360   49.4772 H   0  0  0  0  0  0  0  0  0  0  0  0
   31.8230   28.9550   46.1515 H   0  0  0  0  0  0  0  0  0  0  0  0
   39.9221   33.1054   46.5684 H   0  0  0  0  0  0  0  0  0  0  0  0
   41.1071   33.8777   48.3483 H   0  0  0  0  0  0  0  0  0  0  0  0
   40.1455   35.3165   47.9492 H   0  0  0  0  0  0  0  0  0  0  0  0
   40.0332   33.7071   50.3671 H   0  0  0  0  0  0  0  0  0  0  0  0
   39.0501   35.1139   50.0146 H   0  0  0  0  0  0  0  0  0  0  0  0
   37.9577   32.5632   50.1516 H   0  0  0  0  0  0  0  0  0  0  0  0
   37.2511   33.7148   49.0702 H   0  0  0  0  0  0  0  0  0  0  0  0
   39.5724   31.6791   48.4097 H   0  0  0  0  0  0  0  0  0  0  0  0
  1  8  1  0
  1  5  2  0
  2  3  2  0
  2  1  1  0
  3  4  1  0
  4  5  1  0
  7  6  2  0
  8  7  1  0
  9 10  1  0
  9  8  2  0
 10 11  2  0
 11  6  1  0
 12 16  1  0
 12 13  1  0
 13 14  1  0
 15 14  1  0
 16  4  1  0
 16 15  1  0
  2 17  1  0
  3 18  1  0
  6 19  1  0
  7 20  1  0
 10 21  1  0
 12 22  1  0
 13 23  1  0
 13 24  1  0
 14 25  1  0
 14 26  1  0
 15 27  1  0
 15 28  1  0
 16 29  1  1
M  ISO  8  17  14  18  14  19  14  20  14  21  14  22   5  23  13  24  13
M  ISO  5  25  13  26  13  27  13  28  13  29  13
M  END
>  <minimizedAffinity>  (1) 
-5.00183249

>  <minimizedRMSD>  (1) 
3.56212807

$$$$
