
     RDKit          3D

 25 26  0  0  0  0  0  0  0  0999 V2000
   37.8560   32.9150   49.6790 C   0  0  0  0  0  0  0  0  0  0  0  0
   38.5850   32.9330   48.4900 C   0  0  0  0  0  0  0  0  0  0  0  0
   38.2830   31.9790   47.5270 C   0  0  0  0  0  0  0  0  0  0  0  0
   37.2960   31.0800   47.7950 N   0  0  0  0  0  0  0  0  0  0  0  0
   36.6120   31.0890   48.9510 C   0  0  0  0  0  0  0  0  0  0  0  0
   36.8950   32.0080   49.8900 N   0  0  0  0  0  0  0  0  0  0  0  0
   38.9220   31.8650   46.2850 N   0  0  0  0  0  0  0  0  0  0  0  0
   40.0820   31.1210   45.8340 C   0  0  0  0  0  0  0  0  0  0  0  0
   40.7560   31.9540   44.7520 C   0  0  0  0  0  0  0  0  0  0  0  0
   39.8810   33.2070   44.7480 C   0  0  0  0  0  0  0  0  0  0  0  0
   38.5370   32.5260   45.0370 C   0  0  0  0  0  0  0  0  0  0  0  0
   35.5510   30.0660   49.1520 C   0  0  0  0  0  0  0  0  0  0  0  0
   35.9880   28.9710   49.8610 F   0  0  0  0  0  0  0  0  0  0  0  0
   34.4720   30.5860   49.8500 F   0  0  0  0  0  0  0  0  0  0  0  0
   35.0370   29.6060   47.9530 F   0  0  0  0  0  0  0  0  0  0  0  0
   38.0751   33.6603   50.4578 H   0  0  0  0  0  0  0  0  0  0  0  0
   39.3747   33.6797   48.3203 H   0  0  0  0  0  0  0  0  0  0  0  0
   40.7756   30.9591   46.6723 H   0  0  0  0  0  0  0  0  0  0  0  0
   39.7873   30.1360   45.4428 H   0  0  0  0  0  0  0  0  0  0  0  0
   41.7971   32.1910   45.0166 H   0  0  0  0  0  0  0  0  0  0  0  0
   40.8267   31.4515   43.7760 H   0  0  0  0  0  0  0  0  0  0  0  0
   40.1667   33.9178   45.5374 H   0  0  0  0  0  0  0  0  0  0  0  0
   39.9248   33.8249   43.8390 H   0  0  0  0  0  0  0  0  0  0  0  0
   37.7226   33.2512   45.1812 H   0  0  0  0  0  0  0  0  0  0  0  0
   38.1393   31.8760   44.2437 H   0  0  0  0  0  0  0  0  0  0  0  0
  1  6  2  0
  2  1  1  0
  3  4  1  0
  3  2  2  0
  4  5  2  0
  5 12  1  0
  5  6  1  0
  7  3  1  0
  8  7  1  0
  9  8  1  0
 10  9  1  0
 10 11  1  0
 11  7  1  0
 12 14  1  0
 12 13  1  0
 15 12  1  0
  1 16  1  0
  2 17  1  0
  8 18  1  0
  8 19  1  0
  9 20  1  0
  9 21  1  0
 10 22  1  0
 10 23  1  0
 11 24  1  0
 11 25  1  0
M  ISO  8  16  14  17  14  18  13  19  13  20  13  21  13  22  13  23  13
M  ISO  2  24  13  25  13
M  END
>  <minimizedAffinity>  (1) 
-5.47618628

>  <minimizedRMSD>  (1) 
1.96702051

$$$$
