
     RDKit          3D

 29 31  0  0  0  0  0  0  0  0999 V2000
   37.6690   31.5340   48.8060 C   0  0  0  0  0  0  0  0  0  0  0  0
   38.2740   32.6920   49.0750 C   0  0  0  0  0  0  0  0  0  0  0  0
   39.1100   33.2550   48.1950 C   0  0  0  0  0  0  0  0  0  0  0  0
   39.3160   32.5840   46.9970 C   0  0  0  0  0  0  0  0  0  0  0  0
   38.2350   31.0890   47.2050 S   0  0  0  0  0  0  0  0  0  0  0  0
   36.0980   29.3790   51.4530 C   0  0  0  0  0  0  0  0  0  0  0  0
   37.1030   30.1180   50.7940 C   0  0  0  0  0  0  0  0  0  0  0  0
   36.7300   30.7330   49.6020 C   0  0  0  0  0  0  0  0  0  0  0  0
   35.4530   30.5990   49.1390 N   0  0  0  0  0  0  0  0  0  0  0  0
   34.5410   29.8850   49.8050 C   0  0  0  0  0  0  0  0  0  0  0  0
   34.8600   29.2830   50.9480 N   0  0  0  0  0  0  0  0  0  0  0  0
   40.0120   32.6550   45.7800 N   0  0  0  0  0  0  0  0  0  0  0  0
   39.9850   33.5760   44.6580 C   0  0  0  0  0  0  0  0  0  0  0  0
   39.7690   32.6070   43.4900 C   0  0  0  0  0  0  0  0  0  0  0  0
   40.3210   31.2720   44.0030 C   0  0  0  0  0  0  0  0  0  0  0  0
   41.0350   31.7230   45.2870 C   0  0  0  0  0  0  0  0  0  0  0  0
   38.0825   33.1922   50.0358 H   0  0  0  0  0  0  0  0  0  0  0  0
   39.6128   34.2091   48.4115 H   0  0  0  0  0  0  0  0  0  0  0  0
   36.3350   28.8716   52.3998 H   0  0  0  0  0  0  0  0  0  0  0  0
   38.1223   30.2033   51.1986 H   0  0  0  0  0  0  0  0  0  0  0  0
   33.5200   29.7942   49.4059 H   0  0  0  0  0  0  0  0  0  0  0  0
   39.1569   34.2948   44.7451 H   0  0  0  0  0  0  0  0  0  0  0  0
   40.8828   34.2049   44.5656 H   0  0  0  0  0  0  0  0  0  0  0  0
   40.3207   32.9408   42.5988 H   0  0  0  0  0  0  0  0  0  0  0  0
   38.7134   32.5388   43.1884 H   0  0  0  0  0  0  0  0  0  0  0  0
   39.5132   30.5576   44.2198 H   0  0  0  0  0  0  0  0  0  0  0  0
   40.9674   30.7437   43.2867 H   0  0  0  0  0  0  0  0  0  0  0  0
   41.2066   30.8882   45.9824 H   0  0  0  0  0  0  0  0  0  0  0  0
   42.0432   32.1423   45.1543 H   0  0  0  0  0  0  0  0  0  0  0  0
  1  2  2  0
  1  8  1  0
  3  2  1  0
  4  5  1  0
  4  3  2  0
  5  1  1  0
  7  6  2  0
  8  7  1  0
  9  8  2  0
  9 10  1  0
 10 11  2  0
 11  6  1  0
 12  4  1  0
 13 12  1  0
 14 15  1  0
 14 13  1  0
 15 16  1  0
 16 12  1  0
  2 17  1  0
  3 18  1  0
  6 19  1  0
  7 20  1  0
 10 21  1  0
 13 22  1  0
 13 23  1  0
 14 24  1  0
 14 25  1  0
 15 26  1  0
 15 27  1  0
 16 28  1  0
 16 29  1  0
M  ISO  8  17  14  18  14  19  14  20  14  21  14  22  13  23  13  24  13
M  ISO  5  25  13  26  13  27  13  28  13  29  13
M  END
>  <minimizedAffinity>  (1) 
-5.62820435

>  <minimizedRMSD>  (1) 
2.01897025

$$$$
