
     RDKit          3D

 49 53  0  0  0  0  0  0  0  0999 V2000
   39.2630   31.9090   44.9280 C   0  0  0  0  0  0  0  0  0  0  0  0
   38.1920   32.5560   45.0500 O   0  0  0  0  0  0  0  0  0  0  0  0
   39.9610   31.6430   46.1540 N   0  0  0  0  0  0  0  0  0  0  0  0
   39.1600   32.1820   42.5570 C   0  0  0  0  0  0  0  0  0  0  0  0
   39.7080   31.4910   43.6260 C   0  0  0  0  0  0  0  0  0  0  0  0
   40.6190   30.4690   43.4610 C   0  0  0  0  0  0  0  0  0  0  0  0
   41.0050   30.1160   42.1800 C   0  0  0  0  0  0  0  0  0  0  0  0
   41.8550   29.1850   41.7190 N   0  0  0  0  0  0  0  0  0  0  0  0
   41.8540   29.2730   40.3920 C   0  0  0  0  0  0  0  0  0  0  0  0
   41.0200   30.2410   40.0160 N   0  0  0  0  0  0  0  0  0  0  0  0
   40.4640   30.7990   41.1210 C   0  0  0  0  0  0  0  0  0  0  0  0
   39.5460   31.8300   41.2580 C   0  0  0  0  0  0  0  0  0  0  0  0
   39.0330   32.4850   40.1030 N   0  0  0  0  0  0  0  0  0  0  0  0
   38.0930   33.5480   39.9430 C   0  0  0  0  0  0  0  0  0  0  0  0
   38.3990   34.1670   38.5970 C   0  0  0  0  0  0  0  0  0  0  0  0
   38.9060   33.0110   37.7990 C   0  0  0  0  0  0  0  0  0  0  0  0
   39.5100   32.0490   38.7960 C   0  0  0  0  0  0  0  0  0  0  0  0
   38.1170   30.1470   47.4960 F   0  0  0  0  0  0  0  0  0  0  0  0
   38.3740   31.3880   47.9800 C   0  0  0  0  0  0  0  0  0  0  0  0
   37.7160   31.8300   49.0940 C   0  0  0  0  0  0  0  0  0  0  0  0
   38.0210   33.0840   49.5260 C   0  0  0  0  0  0  0  0  0  0  0  0
   38.9380   33.9020   48.9060 C   0  0  0  0  0  0  0  0  0  0  0  0
   39.5840   33.4230   47.7820 C   0  0  0  0  0  0  0  0  0  0  0  0
   39.3040   32.1650   47.3170 C   0  0  0  0  0  0  0  0  0  0  0  0
   36.0870   29.3630   51.4540 C   0  0  0  0  0  0  0  0  0  0  0  0
   37.0370   30.2130   50.8650 C   0  0  0  0  0  0  0  0  0  0  0  0
   36.7430   30.9330   49.7320 C   0  0  0  0  0  0  0  0  0  0  0  0
   35.4860   30.7830   49.2080 N   0  0  0  0  0  0  0  0  0  0  0  0
   34.5820   29.9710   49.7720 C   0  0  0  0  0  0  0  0  0  0  0  0
   34.8680   29.2770   50.8660 N   0  0  0  0  0  0  0  0  0  0  0  0
   40.8507   31.1255   46.1945 H   0  0  0  0  0  0  0  0  0  0  0  0
   38.4352   32.9920   42.7259 H   0  0  0  0  0  0  0  0  0  0  0  0
   41.0323   29.9427   44.3340 H   0  0  0  0  0  0  0  0  0  0  0  0
   42.4054   28.5254   42.2871 H   0  0  0  0  0  0  0  0  0  0  0  0
   42.4484   28.6451   39.7120 H   0  0  0  0  0  0  0  0  0  0  0  0
   37.0651   33.1567   39.9603 H   0  0  0  0  0  0  0  0  0  0  0  0
   38.1718   34.2850   40.7558 H   0  0  0  0  0  0  0  0  0  0  0  0
   37.4920   34.5926   38.1429 H   0  0  0  0  0  0  0  0  0  0  0  0
   39.1167   34.9985   38.6570 H   0  0  0  0  0  0  0  0  0  0  0  0
   38.0793   32.5296   37.2560 H   0  0  0  0  0  0  0  0  0  0  0  0
   39.6452   33.3318   37.0502 H   0  0  0  0  0  0  0  0  0  0  0  0
   39.1758   31.0217   38.5888 H   0  0  0  0  0  0  0  0  0  0  0  0
   40.6088   32.0473   38.7444 H   0  0  0  0  0  0  0  0  0  0  0  0
   37.5061   33.4649   50.4203 H   0  0  0  0  0  0  0  0  0  0  0  0
   39.1508   34.9090   49.2943 H   0  0  0  0  0  0  0  0  0  0  0  0
   40.3220   34.0510   47.2614 H   0  0  0  0  0  0  0  0  0  0  0  0
   36.3234   28.7869   52.3608 H   0  0  0  0  0  0  0  0  0  0  0  0
   38.0348   30.3042   51.3189 H   0  0  0  0  0  0  0  0  0  0  0  0
   33.5837   29.8779   49.3195 H   0  0  0  0  0  0  0  0  0  0  0  0
  1  2  2  0
  1  3  1  0
  3 24  1  0
  4  5  2  0
  5  1  1  0
  6  5  1  0
  7  6  2  0
  8  7  1  0
  9  8  1  0
 10  9  2  0
 10 11  1  0
 11 12  2  0
 11  7  1  0
 12  4  1  0
 13 12  1  0
 14 13  1  0
 15 14  1  0
 16 15  1  0
 16 17  1  0
 17 13  1  0
 18 19  1  0
 19 20  2  0
 20 21  1  0
 20 27  1  0
 22 21  2  0
 23 22  1  0
 24 23  2  0
 24 19  1  0
 26 25  2  0
 27 26  1  0
 28 27  2  0
 28 29  1  0
 29 30  2  0
 30 25  1  0
  3 31  1  0
  4 32  1  0
  6 33  1  0
  8 34  1  0
  9 35  1  0
 14 36  1  0
 14 37  1  0
 15 38  1  0
 15 39  1  0
 16 40  1  0
 16 41  1  0
 17 42  1  0
 17 43  1  0
 21 44  1  0
 22 45  1  0
 23 46  1  0
 25 47  1  0
 26 48  1  0
 29 49  1  0
M  ISO  8  32  14  33  14  34   9  35  14  36  13  37  13  38  13  39  13
M  ISO  8  40  13  41  13  42  13  43  13  44  14  45  14  46  14  47  14
M  ISO  2  48  14  49  14
M  END
>  <minimizedAffinity>  (1) 
-7.43438482

>  <minimizedRMSD>  (1) 
0.0614584796

$$$$
