
     RDKit          3D

 34 36  0  0  0  0  0  0  0  0999 V2000
   38.3280   32.4150   47.5750 C   0  0  0  0  0  0  0  0  0  0  0  0
   38.1310   31.9080   46.2850 C   0  0  0  0  0  0  0  0  0  0  0  0
   37.1810   30.9020   46.1100 C   0  0  0  0  0  0  0  0  0  0  0  0
   36.4880   30.4560   47.1920 N   0  0  0  0  0  0  0  0  0  0  0  0
   36.7020   30.9670   48.4270 C   0  0  0  0  0  0  0  0  0  0  0  0
   37.6150   31.9430   48.6280 N   0  0  0  0  0  0  0  0  0  0  0  0
   35.9350   30.4480   49.5190 N   0  0  0  0  0  0  0  0  0  0  0  0
   34.4740   30.5280   49.5760 C   0  0  0  0  0  0  0  0  0  0  0  0
   34.1020   29.6600   50.7170 C   0  0  0  0  0  0  0  0  0  0  0  0
   35.3590   28.9230   51.1390 C   0  0  0  0  0  0  0  0  0  0  0  0
   36.4930   29.7840   50.6930 C   0  0  0  0  0  0  0  0  0  0  0  0
   38.8760   32.4080   45.2030 N   0  0  0  0  0  0  0  0  0  0  0  0
   38.7890   31.9230   43.8470 C   0  0  0  0  0  0  0  0  0  0  0  0
   39.3530   33.0420   43.0100 C   0  0  0  0  0  0  0  0  0  0  0  0
   40.4170   33.6250   43.9110 C   0  0  0  0  0  0  0  0  0  0  0  0
   39.8430   33.4820   45.2830 C   0  0  0  0  0  0  0  0  0  0  0  0
   39.0725   33.2084   47.7372 H   0  0  0  0  0  0  0  0  0  0  0  0
   36.9952   30.4761   45.1130 H   0  0  0  0  0  0  0  0  0  0  0  0
   34.1474   31.5636   49.7520 H   0  0  0  0  0  0  0  0  0  0  0  0
   33.9996   30.2108   48.6356 H   0  0  0  0  0  0  0  0  0  0  0  0
   33.7245   30.2714   51.5499 H   0  0  0  0  0  0  0  0  0  0  0  0
   33.3087   28.9534   50.4316 H   0  0  0  0  0  0  0  0  0  0  0  0
   35.3807   28.7936   52.2311 H   0  0  0  0  0  0  0  0  0  0  0  0
   35.4110   27.9172   50.6966 H   0  0  0  0  0  0  0  0  0  0  0  0
   37.3726   29.1789   50.4282 H   0  0  0  0  0  0  0  0  0  0  0  0
   36.8482   30.4808   51.4665 H   0  0  0  0  0  0  0  0  0  0  0  0
   39.3842   31.0063   43.7228 H   0  0  0  0  0  0  0  0  0  0  0  0
   37.7591   31.6640   43.5603 H   0  0  0  0  0  0  0  0  0  0  0  0
   39.7902   32.6579   42.0765 H   0  0  0  0  0  0  0  0  0  0  0  0
   38.5968   33.7761   42.6949 H   0  0  0  0  0  0  0  0  0  0  0  0
   41.3582   33.0629   43.8199 H   0  0  0  0  0  0  0  0  0  0  0  0
   40.6614   34.6676   43.6597 H   0  0  0  0  0  0  0  0  0  0  0  0
   39.3511   34.4166   45.5905 H   0  0  0  0  0  0  0  0  0  0  0  0
   40.6250   33.2645   46.0254 H   0  0  0  0  0  0  0  0  0  0  0  0
  1  6  2  0
  2  1  1  0
  3  2  2  0
  3  4  1  0
  4  5  2  0
  5  6  1  0
  5  7  1  0
  7  8  1  0
  7 11  1  0
  8  9  1  0
  9 10  1  0
 11 10  1  0
 12 16  1  0
 12  2  1  0
 13 12  1  0
 14 13  1  0
 14 15  1  0
 15 16  1  0
  1 17  1  0
  3 18  1  0
  8 19  1  0
  8 20  1  0
  9 21  1  0
  9 22  1  0
 10 23  1  0
 10 24  1  0
 11 25  1  0
 11 26  1  0
 13 27  1  0
 13 28  1  0
 14 29  1  0
 14 30  1  0
 15 31  1  0
 15 32  1  0
 16 33  1  0
 16 34  1  0
M  ISO  8  17  14  18  14  19  13  20  13  21  13  22  13  23  13  24  13
M  ISO  8  25  13  26  13  27  13  28  13  29  13  30  13  31  13  32  13
M  ISO  2  33  13  34  13
M  END
>  <minimizedAffinity>  (1) 
-4.53049278

>  <minimizedRMSD>  (1) 
2.92698741

$$$$
