
     RDKit          3D

 23 24  0  0  1  0  0  0  0  0999 V2000
   38.7190   32.4310   46.6280 C   0  0  0  0  0  0  0  0  0  0  0  0
   39.9260   33.0300   46.2090 C   0  0  0  0  0  0  0  0  0  0  0  0
   40.1520   33.2230   44.8560 C   0  0  0  0  0  0  0  0  0  0  0  0
   39.1640   32.8100   43.9920 N   0  0  0  0  0  0  0  0  0  0  0  0
   38.0330   32.2470   44.4250 C   0  0  0  0  0  0  0  0  0  0  0  0
   37.8080   32.0580   45.7330 N   0  0  0  0  0  0  0  0  0  0  0  0
   38.6160   32.2680   48.4010 S   0  0  0  0  0  0  0  0  0  0  0  0
   38.4450   30.2130   50.1420 N   0  0  0  0  0  0  0  0  0  0  0  0
   37.4410   29.2110   50.5270 C   0  0  0  0  0  0  0  0  0  0  0  0
   36.1870   30.0480   50.4710 C   0  0  0  0  0  0  0  0  0  0  0  0
   36.4320   30.9810   49.2900 C   0  0  0  0  0  0  0  0  0  0  0  0
   37.8690   30.7110   48.9110 C   0  0  1  0  0  0  0  0  0  0  0  0
   40.6790   33.3402   46.9485 H   0  0  0  0  0  0  0  0  0  0  0  0
   41.0799   33.6858   44.4887 H   0  0  0  0  0  0  0  0  0  0  0  0
   37.2723   31.9327   43.6952 H   0  0  0  0  0  0  0  0  0  0  0  0
   38.5296   30.9567   50.8495 H   0  0  0  0  0  0  0  0  0  0  0  0
   37.4048   28.3759   49.8119 H   0  0  0  0  0  0  0  0  0  0  0  0
   37.6257   28.7238   51.4958 H   0  0  0  0  0  0  0  0  0  0  0  0
   35.3019   29.4184   50.2973 H   0  0  0  0  0  0  0  0  0  0  0  0
   35.9909   30.5879   51.4091 H   0  0  0  0  0  0  0  0  0  0  0  0
   35.7553   30.7436   48.4559 H   0  0  0  0  0  0  0  0  0  0  0  0
   36.2478   32.0371   49.5363 H   0  0  0  0  0  0  0  0  0  0  0  0
   38.0095   30.0021   48.0817 H   0  0  0  0  0  0  0  0  0  0  0  0
  1  7  1  0
  2  1  2  0
  3  2  1  0
  4  5  1  0
  4  3  2  0
  5  6  2  0
  6  1  1  0
  8  9  1  0
 10  9  1  0
 11 10  1  0
 12  7  1  0
 12 11  1  0
 12  8  1  0
  2 13  1  0
  3 14  1  0
  5 15  1  0
  8 16  1  0
  9 17  1  0
  9 18  1  0
 10 19  1  0
 10 20  1  0
 11 21  1  0
 11 22  1  0
 12 23  1  6
M  ISO  8  13  14  14  14  15  14  16   5  17  13  18  13  19  13  20  13
M  ISO  3  21  13  22  13  23  13
M  END
>  <minimizedAffinity>  (1) 
-4.82285213

>  <minimizedRMSD>  (1) 
4.34606695

$$$$
