
     RDKit          3D

 34 36  0  0  1  0  0  0  0  0999 V2000
   37.3690   31.3260   47.4880 C   0  0  0  0  0  0  0  0  0  0  0  0
   36.7220   30.9930   48.6730 C   0  0  0  0  0  0  0  0  0  0  0  0
   37.1690   31.6860   49.7950 C   0  0  0  0  0  0  0  0  0  0  0  0
   38.1850   32.6310   49.7030 C   0  0  0  0  0  0  0  0  0  0  0  0
   38.7680   32.8940   48.4790 C   0  0  0  0  0  0  0  0  0  0  0  0
   38.3610   32.2360   47.3430 C   0  0  0  0  0  0  0  0  0  0  0  0
   34.5000   30.1670   48.0210 C   0  0  0  0  0  0  0  0  0  0  0  0
   35.6710   30.0130   48.7590 C   0  0  0  0  0  0  0  0  0  0  0  0
   35.7700   28.8790   49.5710 C   0  0  0  0  0  0  0  0  0  0  0  0
   34.7260   28.0010   49.5920 N   0  0  0  0  0  0  0  0  0  0  0  0
   33.6130   28.1910   48.8630 C   0  0  0  0  0  0  0  0  0  0  0  0
   33.5020   29.2730   48.0780 N   0  0  0  0  0  0  0  0  0  0  0  0
   36.9760   30.6710   46.3110 O   0  0  0  0  0  0  0  0  0  0  0  0
   38.9560   32.5140   46.1400 O   0  0  0  0  0  0  0  0  0  0  0  0
   40.5350   30.8620   45.8380 N   0  0  0  0  0  0  0  0  0  0  0  0
   39.8080   30.4790   44.6180 C   0  0  0  0  0  0  0  0  0  0  0  0
   40.5050   31.3810   43.6200 C   0  0  0  0  0  0  0  0  0  0  0  0
   40.4750   32.7060   44.3520 C   0  0  0  0  0  0  0  0  0  0  0  0
   40.2980   32.3180   45.8080 C   0  0  1  0  0  0  0  0  0  0  0  0
   36.7094   31.4819   50.7733 H   0  0  0  0  0  0  0  0  0  0  0  0
   38.5231   33.1672   50.6020 H   0  0  0  0  0  0  0  0  0  0  0  0
   39.5713   33.6424   48.4121 H   0  0  0  0  0  0  0  0  0  0  0  0
   34.3904   31.0483   47.3719 H   0  0  0  0  0  0  0  0  0  0  0  0
   36.6689   28.6990   50.1789 H   0  0  0  0  0  0  0  0  0  0  0  0
   32.7931   27.4592   48.9101 H   0  0  0  0  0  0  0  0  0  0  0  0
   37.4189   30.8876   45.4525 H   0  0  0  0  0  0  0  0  0  0  0  0
   40.1337   30.4236   46.6792 H   0  0  0  0  0  0  0  0  0  0  0  0
   39.9451   29.4149   44.3753 H   0  0  0  0  0  0  0  0  0  0  0  0
   38.7150   30.5921   44.6686 H   0  0  0  0  0  0  0  0  0  0  0  0
   39.9537   31.4328   42.6695 H   0  0  0  0  0  0  0  0  0  0  0  0
   41.5128   31.0452   43.3343 H   0  0  0  0  0  0  0  0  0  0  0  0
   41.4169   33.2549   44.2055 H   0  0  0  0  0  0  0  0  0  0  0  0
   39.6762   33.3706   43.9912 H   0  0  0  0  0  0  0  0  0  0  0  0
   40.9555   32.8860   46.4826 H   0  0  0  0  0  0  0  0  0  0  0  0
  1  2  2  0
  2  8  1  0
  2  3  1  0
  4  3  2  0
  5  4  1  0
  6  1  1  0
  6  5  2  0
  7 12  2  0
  7  8  1  0
  8  9  2  0
  9 10  1  0
 11 10  2  0
 12 11  1  0
 13  1  1  0
 14  6  1  0
 16 15  1  0
 17 18  1  0
 17 16  1  0
 18 19  1  0
 19 15  1  0
 19 14  1  0
  3 20  1  0
  4 21  1  0
  5 22  1  0
  7 23  1  0
  9 24  1  0
 11 25  1  0
 13 26  1  0
 15 27  1  0
 16 28  1  0
 16 29  1  0
 17 30  1  0
 17 31  1  0
 18 32  1  0
 18 33  1  0
 19 34  1  1
M  ISO  8  20  14  21  14  22  14  23  14  24  14  25  14  26   3  27   5
M  ISO  7  28  13  29  13  30  13  31  13  32  13  33  13  34  13
M  END
>  <minimizedAffinity>  (1) 
-6.27100039

>  <minimizedRMSD>  (1) 
2.60532999

$$$$
