
     RDKit          3D

 42 45  0  0  1  0  0  0  0  0999 V2000
   33.7970   28.9010   47.2580 C   0  0  2  0  0  0  0  0  0  0  0  0
   34.5510   28.1170   48.3220 C   0  0  2  0  0  0  0  0  0  0  0  0
   33.6470   27.8960   49.3230 O   0  0  0  0  0  0  0  0  0  0  0  0
   32.3750   27.9480   48.8460 C   0  0  0  0  0  0  0  0  0  0  0  0
   32.4400   28.1940   47.3510 C   0  0  1  0  0  0  0  0  0  0  0  0
   35.5930   30.3990   48.9590 C   0  0  1  0  0  0  0  0  0  0  0  0
   35.6910   28.9710   48.7740 C   0  0  1  0  0  0  0  0  0  0  0  0
   35.7790   29.4800   50.1760 C   0  0  0  0  0  0  0  0  0  0  0  0
   36.7900   31.3100   48.7480 C   0  0  0  0  0  0  0  0  0  0  0  0
   37.0410   32.2740   49.7220 C   0  0  0  0  0  0  0  0  0  0  0  0
   38.1320   33.0940   49.4570 C   0  0  0  0  0  0  0  0  0  0  0  0
   38.8810   32.9440   48.3230 N   0  0  0  0  0  0  0  0  0  0  0  0
   38.5920   31.9840   47.4030 C   0  0  0  0  0  0  0  0  0  0  0  0
   37.5370   31.1640   47.6230 N   0  0  0  0  0  0  0  0  0  0  0  0
   34.3370   28.7880   45.9930 O   0  0  0  0  0  0  0  0  0  0  0  0
   31.4300   28.9710   46.8520 O   0  0  0  0  0  0  0  0  0  0  0  0
   29.2590   29.2470   47.7090 N   0  0  0  0  0  0  0  0  0  0  0  0
   27.9290   28.9630   47.1920 C   0  0  0  0  0  0  0  0  0  0  0  0
   28.1020   27.6950   46.3460 C   0  0  0  0  0  0  0  0  0  0  0  0
   29.4950   28.0050   45.7780 C   0  0  0  0  0  0  0  0  0  0  0  0
   30.1930   28.3820   47.0630 C   0  0  1  0  0  0  0  0  0  0  0  0
   33.7954   29.9891   47.4191 H   0  0  0  0  0  0  0  0  0  0  0  0
   34.9600   27.1571   47.9738 H   0  0  0  0  0  0  0  0  0  0  0  0
   31.8634   26.9947   49.0447 H   0  0  0  0  0  0  0  0  0  0  0  0
   31.8162   28.7563   49.3404 H   0  0  0  0  0  0  0  0  0  0  0  0
   32.3294   27.2750   46.7567 H   0  0  0  0  0  0  0  0  0  0  0  0
   34.8694   31.1306   48.5701 H   0  0  0  0  0  0  0  0  0  0  0  0
   36.3319   28.3411   48.1396 H   0  0  0  0  0  0  0  0  0  0  0  0
   36.7355   29.4588   50.7188 H   0  0  0  0  0  0  0  0  0  0  0  0
   35.2508   29.2975   51.1235 H   0  0  0  0  0  0  0  0  0  0  0  0
   36.4255   32.3780   50.6278 H   0  0  0  0  0  0  0  0  0  0  0  0
   38.3989   33.8820   50.1766 H   0  0  0  0  0  0  0  0  0  0  0  0
   39.2049   31.8759   46.4960 H   0  0  0  0  0  0  0  0  0  0  0  0
   35.3035   28.5857   46.0636 H   0  0  0  0  0  0  0  0  0  0  0  0
   29.5041   30.2286   47.5158 H   0  0  0  0  0  0  0  0  0  0  0  0
   27.2222   28.7860   48.0161 H   0  0  0  0  0  0  0  0  0  0  0  0
   27.5224   29.8011   46.6070 H   0  0  0  0  0  0  0  0  0  0  0  0
   28.0957   26.7814   46.9586 H   0  0  0  0  0  0  0  0  0  0  0  0
   27.3123   27.4969   45.6063 H   0  0  0  0  0  0  0  0  0  0  0  0
   29.9523   27.1247   45.3027 H   0  0  0  0  0  0  0  0  0  0  0  0
   29.5242   28.7641   44.9824 H   0  0  0  0  0  0  0  0  0  0  0  0
   30.4441   27.5066   47.6800 H   0  0  0  0  0  0  0  0  0  0  0  0
  1  5  1  0
  1  2  1  0
  2  7  1  0
  2  3  1  0
  4  3  1  0
  5  4  1  0
  6  8  1  0
  7  6  1  0
  7  8  1  0
  9  6  1  0
  9 10  2  0
 11 10  1  0
 12 11  2  0
 13 14  2  0
 13 12  1  0
 14  9  1  0
 15  1  1  0
 16  5  1  0
 18 17  1  0
 19 18  1  0
 20 19  1  0
 20 21  1  0
 21 16  1  0
 21 17  1  0
  1 22  1  1
  2 23  1  6
  4 24  1  0
  4 25  1  0
  5 26  1  6
  6 27  1  1
  7 28  1  6
  8 29  1  0
  8 30  1  0
 10 31  1  0
 11 32  1  0
 13 33  1  0
 15 34  1  0
 17 35  1  0
 18 36  1  0
 18 37  1  0
 19 38  1  0
 19 39  1  0
 20 40  1  0
 20 41  1  0
 21 42  1  1
M  ISO  8  22  13  23  13  24  13  25  13  26  13  27  13  28  13  29  13
M  ISO  8  30  13  31  14  32  14  33  14  34   3  35   5  36  13  37  13
M  ISO  5  38  13  39  13  40  13  41  13  42  13
M  END
>  <minimizedAffinity>  (1) 
-5.35305119

>  <minimizedRMSD>  (1) 
1.12608707

$$$$
