
     RDKit          3D

 52 55  0  0  1  0  0  0  0  0999 V2000
   38.6310   27.3690   52.7380 S   0  0  0  0  0  0  0  0  0  0  0  0
   40.1000   25.0360   53.4670 C   0  0  0  0  0  0  0  0  0  0  0  0
   39.7390   26.0150   52.5260 C   0  0  0  0  0  0  0  0  0  0  0  0
   40.3320   25.8990   51.2650 C   0  0  0  0  0  0  0  0  0  0  0  0
   41.2080   24.8960   50.9650 C   0  0  0  0  0  0  0  0  0  0  0  0
   41.9080   24.5420   49.8860 N   0  0  0  0  0  0  0  0  0  0  0  0
   42.6640   23.4270   50.1040 C   0  0  0  0  0  0  0  0  0  0  0  0
   42.4120   23.0660   51.4110 C   0  0  0  0  0  0  0  0  0  0  0  0
   41.5220   23.9720   51.9260 C   0  0  0  0  0  0  0  0  0  0  0  0
   40.9820   24.0280   53.1690 C   0  0  0  0  0  0  0  0  0  0  0  0
   42.1960   23.6280   55.3050 C   0  0  2  0  0  0  0  0  0  0  0  0
   41.2540   23.0790   54.2780 C   0  0  1  0  0  0  0  0  0  0  0  0
   40.0460   22.7930   54.9020 O   0  0  0  0  0  0  0  0  0  0  0  0
   40.4450   22.3110   56.1680 C   0  0  0  0  0  0  0  0  0  0  0  0
   41.5260   23.2730   56.6110 C   0  0  1  0  0  0  0  0  0  0  0  0
   42.3640   25.0050   55.1690 O   0  0  0  0  0  0  0  0  0  0  0  0
   42.3810   22.6160   57.4650 O   0  0  0  0  0  0  0  0  0  0  0  0
   38.1690   28.1940   51.2340 C   0  0  0  0  0  0  0  0  0  0  0  0
   37.1460   29.2870   51.4080 C   0  0  0  0  0  0  0  0  0  0  0  0
   37.5270   30.4920   50.9070 C   0  0  0  0  0  0  0  0  0  0  0  0
   37.5030   30.1650   49.5770 O   0  0  0  0  0  0  0  0  0  0  0  0
   38.1060   31.0030   48.6810 C   0  0  0  0  0  0  0  0  0  0  0  0
   38.3860   32.2440   49.2220 C   0  0  0  0  0  0  0  0  0  0  0  0
   39.0090   33.2130   48.4100 C   0  0  0  0  0  0  0  0  0  0  0  0
   39.2990   32.8560   47.1230 N   0  0  0  0  0  0  0  0  0  0  0  0
   39.0060   31.6170   46.6230 C   0  0  0  0  0  0  0  0  0  0  0  0
   38.4150   30.7200   47.4190 N   0  0  0  0  0  0  0  0  0  0  0  0
   39.9380   32.4610   44.5820 C   0  0  0  0  0  0  0  0  0  0  0  0
   40.1590   33.6030   45.0650 O   0  0  0  0  0  0  0  0  0  0  0  0
   39.3580   31.3640   45.2670 N   0  0  0  0  0  0  0  0  0  0  0  0
   39.6615   25.0790   54.4749 H   0  0  0  0  0  0  0  0  0  0  0  0
   40.0847   26.6395   50.4901 H   0  0  0  0  0  0  0  0  0  0  0  0
   41.8810   25.0516   48.9913 H   0  0  0  0  0  0  0  0  0  0  0  0
   43.3319   22.9235   49.3896 H   0  0  0  0  0  0  0  0  0  0  0  0
   42.8464   22.2070   51.9433 H   0  0  0  0  0  0  0  0  0  0  0  0
   43.2121   23.2157   55.2179 H   0  0  0  0  0  0  0  0  0  0  0  0
   41.7273   22.1855   53.8448 H   0  0  0  0  0  0  0  0  0  0  0  0
   39.6007   22.3222   56.8730 H   0  0  0  0  0  0  0  0  0  0  0  0
   40.7990   21.2703   56.1289 H   0  0  0  0  0  0  0  0  0  0  0  0
   41.1710   24.1614   57.1539 H   0  0  0  0  0  0  0  0  0  0  0  0
   42.4148   25.4214   56.0657 H   0  0  0  0  0  0  0  0  0  0  0  0
   42.1266   22.8115   58.4016 H   0  0  0  0  0  0  0  0  0  0  0  0
   37.7558   27.4437   50.5439 H   0  0  0  0  0  0  0  0  0  0  0  0
   39.0798   28.6770   50.8503 H   0  0  0  0  0  0  0  0  0  0  0  0
   36.2213   28.9783   50.8984 H   0  0  0  0  0  0  0  0  0  0  0  0
   37.0106   29.4236   52.4911 H   0  0  0  0  0  0  0  0  0  0  0  0
   36.8107   31.2900   51.1523 H   0  0  0  0  0  0  0  0  0  0  0  0
   38.4782   30.8926   51.2873 H   0  0  0  0  0  0  0  0  0  0  0  0
   38.1274   32.4710   50.2668 H   0  0  0  0  0  0  0  0  0  0  0  0
   39.2515   34.2142   48.7958 H   0  0  0  0  0  0  0  0  0  0  0  0
   40.2213   32.3001   43.5314 H   0  0  0  0  0  0  0  0  0  0  0  0
   39.2026   30.4508   44.8167 H   0  0  0  0  0  0  0  0  0  0  0  0
  3  1  1  0
  3  2  2  0
  4  3  1  0
  5  4  2  0
  5  9  1  0
  6  7  1  0
  6  5  1  0
  7  8  2  0
  8  9  1  0
  9 10  2  0
 10  2  1  0
 11 16  1  0
 11 15  1  0
 12 10  1  0
 12 13  1  0
 12 11  1  0
 13 14  1  0
 14 15  1  0
 15 17  1  0
 18 19  1  0
 18  1  1  0
 20 19  1  0
 21 20  1  0
 22 23  2  0
 22 21  1  0
 24 23  1  0
 25 24  2  0
 26 25  1  0
 26 27  2  0
 27 22  1  0
 28 29  2  0
 28 30  1  0
 30 26  1  0
  2 31  1  0
  4 32  1  0
  6 33  1  0
  7 34  1  0
  8 35  1  0
 11 36  1  1
 12 37  1  6
 14 38  1  0
 14 39  1  0
 15 40  1  1
 16 41  1  0
 17 42  1  0
 18 43  1  0
 18 44  1  0
 19 45  1  0
 19 46  1  0
 20 47  1  0
 20 48  1  0
 23 49  1  0
 24 50  1  0
 28 51  1  0
 30 52  1  0
M  ISO  8  31  14  32  14  33   9  34  14  35  14  36  13  37  13  38  13
M  ISO  8  39  13  40  13  41   3  42   3  43   8  44   8  45   8  46   8
M  ISO  5  47   8  48   8  49  14  50  14  51   6
M  END
>  <minimizedAffinity>  (1) 
-4.63939047

>  <minimizedRMSD>  (1) 
0.608648598

$$$$
