
     RDKit          3D

 30 32  0  0  1  0  0  0  0  0999 V2000
   35.8270   29.6640   49.3980 C   0  0  0  0  0  0  0  0  0  0  0  0
   35.9660   30.1740   48.0990 C   0  0  0  0  0  0  0  0  0  0  0  0
   34.9750   29.6680   47.2420 C   0  0  0  0  0  0  0  0  0  0  0  0
   34.0150   28.8010   47.6350 N   0  0  0  0  0  0  0  0  0  0  0  0
   33.9390   28.3530   48.9060 C   0  0  0  0  0  0  0  0  0  0  0  0
   34.8560   28.7940   49.7800 N   0  0  0  0  0  0  0  0  0  0  0  0
   36.8050   30.2170   50.4200 C   0  0  0  0  0  0  0  0  0  0  0  0
   36.8280   29.7170   51.7700 C   0  0  0  0  0  0  0  0  0  0  0  0
   37.8320   29.1290   50.8160 C   0  0  0  0  0  0  0  0  0  0  0  0
   37.2300   30.8460   46.0690 C   0  0  2  0  0  0  0  0  0  0  0  0
   36.9160   31.0840   47.5540 C   0  0  2  0  0  0  0  0  0  0  0  0
   38.1270   31.2780   48.1150 O   0  0  0  0  0  0  0  0  0  0  0  0
   39.0300   31.7230   47.1950 C   0  0  0  0  0  0  0  0  0  0  0  0
   38.2410   31.9680   45.9010 C   0  0  1  0  0  0  0  0  0  0  0  0
   36.0520   31.0950   45.3830 O   0  0  0  0  0  0  0  0  0  0  0  0
   39.0150   31.8390   44.7820 O   0  0  0  0  0  0  0  0  0  0  0  0
   34.9802   29.9956   46.1919 H   0  0  0  0  0  0  0  0  0  0  0  0
   33.1515   27.6498   49.2147 H   0  0  0  0  0  0  0  0  0  0  0  0
   36.7790   31.2490   50.0401 H   0  0  0  0  0  0  0  0  0  0  0  0
   37.1743   30.3720   52.5830 H   0  0  0  0  0  0  0  0  0  0  0  0
   36.0633   29.2801   52.4290 H   0  0  0  0  0  0  0  0  0  0  0  0
   37.7219   28.0964   50.4533 H   0  0  0  0  0  0  0  0  0  0  0  0
   38.9250   29.0106   50.7790 H   0  0  0  0  0  0  0  0  0  0  0  0
   37.5876   29.8601   45.7373 H   0  0  0  0  0  0  0  0  0  0  0  0
   36.3178   31.9778   47.7848 H   0  0  0  0  0  0  0  0  0  0  0  0
   39.4960   32.6578   47.5398 H   0  0  0  0  0  0  0  0  0  0  0  0
   39.8362   30.9910   47.0394 H   0  0  0  0  0  0  0  0  0  0  0  0
   37.8199   32.9750   45.7644 H   0  0  0  0  0  0  0  0  0  0  0  0
   35.3194   31.2499   46.0306 H   0  0  0  0  0  0  0  0  0  0  0  0
   39.9557   31.6822   45.0477 H   0  0  0  0  0  0  0  0  0  0  0  0
  1  6  1  0
  1  7  1  0
  2  1  2  0
  3  4  2  0
  3  2  1  0
  4  5  1  0
  5  6  2  0
  7  9  1  0
  7  8  1  0
  9  8  1  0
 10 15  1  0
 10 11  1  0
 11  2  1  0
 11 12  1  0
 13 12  1  0
 14 16  1  0
 14 10  1  0
 14 13  1  0
  3 17  1  0
  5 18  1  0
  7 19  1  0
  8 20  1  0
  8 21  1  0
  9 22  1  0
  9 23  1  0
 10 24  1  1
 11 25  1  6
 13 26  1  0
 13 27  1  0
 14 28  1  1
 15 29  1  0
 16 30  1  0
M  ISO  8  17  14  18  14  19  13  20  13  21  13  22  13  23  13  24  13
M  ISO  6  25  13  26  13  27  13  28  13  29   3  30   3
M  END
>  <minimizedAffinity>  (1) 
-5.03769255

>  <minimizedRMSD>  (1) 
5.23415327

$$$$
