
     RDKit          3D

 38 40  0  0  1  0  0  0  0  0999 V2000
   37.2290   30.2400   51.2380 C   0  0  0  0  0  0  0  0  0  0  0  0
   37.7230   30.8830   50.0940 C   0  0  0  0  0  0  0  0  0  0  0  0
   37.1080   30.6200   48.8830 C   0  0  0  0  0  0  0  0  0  0  0  0
   36.0570   29.7560   48.8600 N   0  0  0  0  0  0  0  0  0  0  0  0
   35.6000   29.1500   49.9750 C   0  0  0  0  0  0  0  0  0  0  0  0
   36.2040   29.4080   51.1540 N   0  0  0  0  0  0  0  0  0  0  0  0
   38.9610   31.7770   47.6680 C   0  0  1  0  0  0  0  0  0  0  0  0
   37.5620   31.2590   47.5960 C   0  0  1  0  0  0  0  0  0  0  0  0
   37.6300   30.2420   46.6260 O   0  0  0  0  0  0  0  0  0  0  0  0
   38.2860   30.8280   45.5640 C   0  0  0  0  0  0  0  0  0  0  0  0
   39.4030   31.6080   46.2110 C   0  0  2  0  0  0  0  0  0  0  0  0
   38.8900   33.1400   47.9320 O   0  0  0  0  0  0  0  0  0  0  0  0
   40.5750   30.8960   46.1160 O   0  0  0  0  0  0  0  0  0  0  0  0
   34.5430   28.3210   49.7490 O   0  0  0  0  0  0  0  0  0  0  0  0
   33.7340   28.5770   48.5950 C   0  0  0  0  0  0  0  0  0  0  0  0
   32.8000   27.4250   48.3540 C   0  0  0  0  0  0  0  0  0  0  0  0
   31.3720   27.8480   48.3540 C   0  0  0  0  0  0  0  0  0  0  0  0
   30.6920   27.7400   49.5420 C   0  0  0  0  0  0  0  0  0  0  0  0
   29.3590   28.1050   49.6560 C   0  0  0  0  0  0  0  0  0  0  0  0
   28.7290   28.5750   48.5790 N   0  0  0  0  0  0  0  0  0  0  0  0
   29.4050   28.6790   47.4130 C   0  0  0  0  0  0  0  0  0  0  0  0
   30.6980   28.3270   47.2900 N   0  0  0  0  0  0  0  0  0  0  0  0
   37.6983   30.4293   52.2147 H   0  0  0  0  0  0  0  0  0  0  0  0
   38.5747   31.5763   50.1576 H   0  0  0  0  0  0  0  0  0  0  0  0
   39.6069   31.2936   48.4157 H   0  0  0  0  0  0  0  0  0  0  0  0
   36.8615   32.0786   47.3779 H   0  0  0  0  0  0  0  0  0  0  0  0
   37.6120   31.4973   45.0092 H   0  0  0  0  0  0  0  0  0  0  0  0
   38.6517   30.0913   44.8335 H   0  0  0  0  0  0  0  0  0  0  0  0
   39.5889   32.5817   45.7341 H   0  0  0  0  0  0  0  0  0  0  0  0
   38.8824   33.2865   48.9111 H   0  0  0  0  0  0  0  0  0  0  0  0
   40.9115   30.6916   47.0243 H   0  0  0  0  0  0  0  0  0  0  0  0
   33.1474   29.4932   48.7578 H   0  0  0  0  0  0  0  0  0  0  0  0
   34.3864   28.7014   47.7181 H   0  0  0  0  0  0  0  0  0  0  0  0
   33.0362   26.9758   47.3781 H   0  0  0  0  0  0  0  0  0  0  0  0
   32.9377   26.7023   49.1717 H   0  0  0  0  0  0  0  0  0  0  0  0
   31.2187   27.3536   50.4270 H   0  0  0  0  0  0  0  0  0  0  0  0
   28.8316   28.0086   50.6165 H   0  0  0  0  0  0  0  0  0  0  0  0
   28.8770   29.0669   46.5294 H   0  0  0  0  0  0  0  0  0  0  0  0
  2  1  2  0
  3  2  1  0
  4  3  2  0
  4  5  1  0
  5  6  2  0
  6  1  1  0
  7 12  1  0
  8  7  1  0
  8  3  1  0
  9  8  1  0
 10 11  1  0
 10  9  1  0
 11 13  1  0
 11  7  1  0
 14  5  1  0
 15 14  1  0
 16 15  1  0
 17 16  1  0
 17 18  2  0
 18 19  1  0
 20 19  2  0
 21 20  1  0
 22 21  2  0
 22 17  1  0
  1 23  1  0
  2 24  1  0
  7 25  1  1
  8 26  1  6
 10 27  1  0
 10 28  1  0
 11 29  1  6
 12 30  1  0
 13 31  1  0
 15 32  1  0
 15 33  1  0
 16 34  1  0
 16 35  1  0
 18 36  1  0
 19 37  1  0
 21 38  1  0
M  ISO  8  23  14  24  14  25  13  26  13  27  13  28  13  29  13  30   3
M  ISO  8  31   3  32   8  33   8  34   8  35   8  36  14  37  14  38  14
M  END
>  <minimizedAffinity>  (1) 
-6.05417109

>  <minimizedRMSD>  (1) 
0.730340183

$$$$
