
     RDKit          3D

 44 47  0  0  1  0  0  0  0  0999 V2000
   36.8890   31.2800   48.5880 C   0  0  0  0  0  0  0  0  0  0  0  0
   37.0720   32.1530   49.6520 C   0  0  0  0  0  0  0  0  0  0  0  0
   37.9900   33.2000   49.5050 C   0  0  0  0  0  0  0  0  0  0  0  0
   38.6980   33.3570   48.3240 C   0  0  0  0  0  0  0  0  0  0  0  0
   38.4860   32.4660   47.2900 C   0  0  0  0  0  0  0  0  0  0  0  0
   37.6030   31.4790   47.4620 N   0  0  0  0  0  0  0  0  0  0  0  0
   35.1960   28.3390   50.1850 C   0  0  0  0  0  0  0  0  0  0  0  0
   36.1710   29.3420   49.9120 C   0  0  0  0  0  0  0  0  0  0  0  0
   35.9200   30.2580   48.8870 C   0  0  0  0  0  0  0  0  0  0  0  0
   34.7470   30.1340   48.2030 N   0  0  0  0  0  0  0  0  0  0  0  0
   33.8390   29.1600   48.4930 C   0  0  0  0  0  0  0  0  0  0  0  0
   34.0630   28.2740   49.4720 N   0  0  0  0  0  0  0  0  0  0  0  0
   32.7060   29.2410   47.6460 N   0  0  0  0  0  0  0  0  0  0  0  0
   37.4030   29.3640   50.7320 C   0  0  0  0  0  0  0  0  0  0  0  0
   38.5010   29.8070   49.9880 F   0  0  0  0  0  0  0  0  0  0  0  0
   37.2420   30.2000   51.7790 F   0  0  0  0  0  0  0  0  0  0  0  0
   37.7540   28.1100   51.2290 F   0  0  0  0  0  0  0  0  0  0  0  0
   39.1820   32.5640   46.0140 C   0  0  0  0  0  0  0  0  0  0  0  0
   40.5390   32.6960   45.8300 C   0  0  0  0  0  0  0  0  0  0  0  0
   40.8210   32.7540   44.4730 C   0  0  0  0  0  0  0  0  0  0  0  0
   39.5900   32.6530   43.8680 N   0  0  0  0  0  0  0  0  0  0  0  0
   38.6550   32.5430   44.7860 N   0  0  0  0  0  0  0  0  0  0  0  0
   39.4880   31.2930   41.8430 C   0  0  1  0  0  0  0  0  0  0  0  0
   39.4200   32.6720   42.4140 C   0  0  1  0  0  0  0  0  0  0  0  0
   38.2220   33.2500   42.0780 O   0  0  0  0  0  0  0  0  0  0  0  0
   37.3150   32.2400   41.8460 C   0  0  0  0  0  0  0  0  0  0  0  0
   38.1450   31.1920   41.1320 C   0  0  2  0  0  0  0  0  0  0  0  0
   40.5650   31.1350   40.9800 O   0  0  0  0  0  0  0  0  0  0  0  0
   37.5750   29.9510   41.3310 O   0  0  0  0  0  0  0  0  0  0  0  0
   36.5091   32.0251   50.5884 H   0  0  0  0  0  0  0  0  0  0  0  0
   38.1507   33.9044   50.3345 H   0  0  0  0  0  0  0  0  0  0  0  0
   39.4191   34.1801   48.2116 H   0  0  0  0  0  0  0  0  0  0  0  0
   35.3753   27.6105   50.9894 H   0  0  0  0  0  0  0  0  0  0  0  0
   31.9353   28.5658   47.7509 H   0  0  0  0  0  0  0  0  0  0  0  0
   32.6531   29.9751   46.9254 H   0  0  0  0  0  0  0  0  0  0  0  0
   41.2861   32.7476   46.6357 H   0  0  0  0  0  0  0  0  0  0  0  0
   41.8044   32.8572   43.9910 H   0  0  0  0  0  0  0  0  0  0  0  0
   39.6494   30.5042   42.5925 H   0  0  0  0  0  0  0  0  0  0  0  0
   40.2427   33.2670   41.9908 H   0  0  0  0  0  0  0  0  0  0  0  0
   36.9105   31.8475   42.7906 H   0  0  0  0  0  0  0  0  0  0  0  0
   36.4401   32.5686   41.2658 H   0  0  0  0  0  0  0  0  0  0  0  0
   38.2242   31.3342   40.0441 H   0  0  0  0  0  0  0  0  0  0  0  0
   41.3946   31.0133   41.5064 H   0  0  0  0  0  0  0  0  0  0  0  0
   37.4949   29.7766   42.3022 H   0  0  0  0  0  0  0  0  0  0  0  0
  1  9  1  0
  1  2  2  0
  3  2  1  0
  4  3  2  0
  5  6  2  0
  5  4  1  0
  6  1  1  0
  8  7  2  0
  8 14  1  0
  9  8  1  0
 10 11  1  0
 10  9  2  0
 11 12  2  0
 12  7  1  0
 13 11  1  0
 14 17  1  0
 14 16  1  0
 15 14  1  0
 18  5  1  0
 19 18  1  0
 20 19  2  0
 21 20  1  0
 21 22  1  0
 22 18  2  0
 23 28  1  0
 23 24  1  0
 24 21  1  0
 25 24  1  0
 26 25  1  0
 27 29  1  0
 27 23  1  0
 27 26  1  0
  2 30  1  0
  3 31  1  0
  4 32  1  0
  7 33  1  0
 13 34  1  0
 13 35  1  0
 19 36  1  0
 20 37  1  0
 23 38  1  1
 24 39  1  6
 26 40  1  0
 26 41  1  0
 27 42  1  6
 28 43  1  0
 29 44  1  0
M  ISO  8  30  14  31  14  32  14  33  14  36  14  37  14  38  13  39  13
M  ISO  5  40  13  41  13  42  13  43   3  44   3
M  END
>  <minimizedAffinity>  (1) 
-7.42310524

>  <minimizedRMSD>  (1) 
2.71715355

$$$$
