
     RDKit          3D

 34 36  0  0  1  0  0  0  0  0999 V2000
   35.9600   29.3140   49.3400 C   0  0  0  0  0  0  0  0  0  0  0  0
   35.9840   30.3850   48.4110 C   0  0  0  0  0  0  0  0  0  0  0  0
   35.0480   30.3920   47.3890 C   0  0  0  0  0  0  0  0  0  0  0  0
   34.1480   29.3720   47.3250 N   0  0  0  0  0  0  0  0  0  0  0  0
   34.1440   28.3690   48.2140 C   0  0  0  0  0  0  0  0  0  0  0  0
   35.0460   28.3320   49.2250 N   0  0  0  0  0  0  0  0  0  0  0  0
   36.9820   31.3970   48.5890 N   0  0  0  0  0  0  0  0  0  0  0  0
   36.9610   32.2320   49.6300 C   0  0  0  0  0  0  0  0  0  0  0  0
   37.9520   33.2040   49.7670 C   0  0  0  0  0  0  0  0  0  0  0  0
   38.8890   33.1980   48.7660 C   0  0  0  0  0  0  0  0  0  0  0  0
   39.8030   34.0750   48.8700 O   0  0  0  0  0  0  0  0  0  0  0  0
   38.9390   32.3720   47.7050 N   0  0  0  0  0  0  0  0  0  0  0  0
   37.9420   31.4490   47.6360 C   0  0  0  0  0  0  0  0  0  0  0  0
   37.9780   30.6670   46.6450 O   0  0  0  0  0  0  0  0  0  0  0  0
   33.2230   27.3190   48.1540 O   0  0  0  0  0  0  0  0  0  0  0  0
   31.1260   27.8900   47.0580 C   0  0  1  0  0  0  0  0  0  0  0  0
   32.4200   27.1020   47.0140 C   0  0  2  0  0  0  0  0  0  0  0  0
   31.8970   25.7970   47.1700 O   0  0  0  0  0  0  0  0  0  0  0  0
   31.2240   25.9540   48.3960 C   0  0  0  0  0  0  0  0  0  0  0  0
   30.4540   27.2510   48.2790 C   0  0  1  0  0  0  0  0  0  0  0  0
   31.3030   29.2460   47.1920 O   0  0  0  0  0  0  0  0  0  0  0  0
   30.6420   28.0630   49.3740 O   0  0  0  0  0  0  0  0  0  0  0  0
   36.6928   29.2852   50.1599 H   0  0  0  0  0  0  0  0  0  0  0  0
   35.0324   31.2032   46.6462 H   0  0  0  0  0  0  0  0  0  0  0  0
   36.1611   32.1535   50.3810 H   0  0  0  0  0  0  0  0  0  0  0  0
   37.9794   33.9145   50.6063 H   0  0  0  0  0  0  0  0  0  0  0  0
   39.6814   32.4343   46.9937 H   0  0  0  0  0  0  0  0  0  0  0  0
   30.5408   27.8360   46.1281 H   0  0  0  0  0  0  0  0  0  0  0  0
   33.0312   27.3345   46.1295 H   0  0  0  0  0  0  0  0  0  0  0  0
   30.5352   25.1133   48.5655 H   0  0  0  0  0  0  0  0  0  0  0  0
   31.9249   25.9738   49.2435 H   0  0  0  0  0  0  0  0  0  0  0  0
   29.3670   27.1010   48.2021 H   0  0  0  0  0  0  0  0  0  0  0  0
   31.3337   29.4814   48.1531 H   0  0  0  0  0  0  0  0  0  0  0  0
   30.5196   27.5342   50.2019 H   0  0  0  0  0  0  0  0  0  0  0  0
  2  7  1  0
  2  1  2  0
  3  2  1  0
  4  3  2  0
  4  5  1  0
  5  6  2  0
  6  1  1  0
  7  8  1  0
  8  9  2  0
 10 11  2  0
 10  9  1  0
 12 10  1  0
 13 12  1  0
 13  7  1  0
 14 13  2  0
 15  5  1  0
 16 21  1  0
 16 20  1  0
 17 16  1  0
 17 18  1  0
 17 15  1  0
 18 19  1  0
 20 19  1  0
 20 22  1  0
  1 23  1  0
  3 24  1  0
  8 25  1  0
  9 26  1  0
 12 27  1  0
 16 28  1  6
 17 29  1  6
 19 30  1  0
 19 31  1  0
 20 32  1  6
 21 33  1  0
 22 34  1  0
M  ISO  8  23  14  24  14  25  14  26  14  27   9  28  13  29  13  30  13
M  ISO  4  31  13  32  13  33   3  34   3
M  END
>  <minimizedAffinity>  (1) 
-5.66295815

>  <minimizedRMSD>  (1) 
0.764748693

$$$$
