
     RDKit          3D

 38 40  0  0  0  0  0  0  0  0999 V2000
   35.0720   29.7740   47.8310 C   0  0  0  0  0  0  0  0  0  0  0  0
   33.9140   29.0400   48.0800 C   0  0  0  0  0  0  0  0  0  0  0  0
   32.9880   28.7580   47.0880 C   0  0  0  0  0  0  0  0  0  0  0  0
   33.2280   29.2380   45.7690 C   0  0  0  0  0  0  0  0  0  0  0  0
   34.3760   29.9550   45.5670 C   0  0  0  0  0  0  0  0  0  0  0  0
   35.2880   30.2290   46.5350 C   0  0  0  0  0  0  0  0  0  0  0  0
   37.1600   30.4550   45.1360 C   0  0  0  0  0  0  0  0  0  0  0  0
   36.6940   29.4250   44.5360 O   0  0  0  0  0  0  0  0  0  0  0  0
   36.4660   30.9410   46.3000 N   0  0  0  0  0  0  0  0  0  0  0  0
   38.3510   31.1630   44.7090 N   0  0  0  0  0  0  0  0  0  0  0  0
   39.0630   31.0860   43.4390 C   0  0  0  0  0  0  0  0  0  0  0  0
   40.5390   30.9380   43.5760 C   0  0  0  0  0  0  0  0  0  0  0  0
   41.0040   31.0570   44.9260 N   0  0  0  0  0  0  0  0  0  0  0  0
   40.3960   32.1690   45.6290 C   0  0  0  0  0  0  0  0  0  0  0  0
   38.9050   32.0750   45.6910 C   0  0  0  0  0  0  0  0  0  0  0  0
   36.4340   28.9010   49.6320 C   0  0  0  0  0  0  0  0  0  0  0  0
   35.9080   30.0320   48.9840 C   0  0  0  0  0  0  0  0  0  0  0  0
   36.2500   31.2830   49.5210 C   0  0  0  0  0  0  0  0  0  0  0  0
   37.0430   31.3560   50.6020 N   0  0  0  0  0  0  0  0  0  0  0  0
   37.5340   30.2670   51.2050 C   0  0  0  0  0  0  0  0  0  0  0  0
   37.2270   29.0490   50.7180 N   0  0  0  0  0  0  0  0  0  0  0  0
   33.7283   28.6714   49.0996 H   0  0  0  0  0  0  0  0  0  0  0  0
   32.0840   28.1740   47.3155 H   0  0  0  0  0  0  0  0  0  0  0  0
   32.5219   29.0412   44.9488 H   0  0  0  0  0  0  0  0  0  0  0  0
   34.5730   30.3344   44.5535 H   0  0  0  0  0  0  0  0  0  0  0  0
   36.7979   31.7190   46.8877 H   0  0  0  0  0  0  0  0  0  0  0  0
   38.8594   32.0068   42.8727 H   0  0  0  0  0  0  0  0  0  0  0  0
   38.7003   30.1826   42.9268 H   0  0  0  0  0  0  0  0  0  0  0  0
   40.8260   29.9467   43.1953 H   0  0  0  0  0  0  0  0  0  0  0  0
   41.0000   31.7556   43.0025 H   0  0  0  0  0  0  0  0  0  0  0  0
   40.7809   30.1867   45.4297 H   0  0  0  0  0  0  0  0  0  0  0  0
   40.7890   32.1915   46.6562 H   0  0  0  0  0  0  0  0  0  0  0  0
   40.6455   33.0855   45.0742 H   0  0  0  0  0  0  0  0  0  0  0  0
   38.4836   33.0759   45.5161 H   0  0  0  0  0  0  0  0  0  0  0  0
   38.6421   31.6853   46.6855 H   0  0  0  0  0  0  0  0  0  0  0  0
   36.2005   27.8941   49.2555 H   0  0  0  0  0  0  0  0  0  0  0  0
   35.8682   32.2039   49.0560 H   0  0  0  0  0  0  0  0  0  0  0  0
   38.1814   30.3653   52.0889 H   0  0  0  0  0  0  0  0  0  0  0  0
  1  2  2  0
  1 17  1  0
  3  2  1  0
  4  3  2  0
  5  4  1  0
  5  6  2  0
  6  1  1  0
  7  9  1  0
  8  7  2  0
  9  6  1  0
 10  7  1  0
 10 15  1  0
 11 12  1  0
 11 10  1  0
 12 13  1  0
 13 14  1  0
 14 15  1  0
 16 21  2  0
 17 18  2  0
 17 16  1  0
 18 19  1  0
 19 20  2  0
 21 20  1  0
  2 22  1  0
  3 23  1  0
  4 24  1  0
  5 25  1  0
  9 26  1  0
 11 27  1  0
 11 28  1  0
 12 29  1  0
 12 30  1  0
 13 31  1  0
 14 32  1  0
 14 33  1  0
 15 34  1  0
 15 35  1  0
 16 36  1  0
 18 37  1  0
 20 38  1  0
M  ISO  8  22  14  23  14  24  14  25  14  27  13  28  13  29  13  30  13
M  ISO  8  31   5  32  13  33  13  34  13  35  13  36  14  37  14  38  14
M  END
>  <minimizedAffinity>  (1) 
-5.77772665

>  <minimizedRMSD>  (1) 
5.87628746

$$$$
