
     RDKit          3D

 48 51  0  0  0  0  0  0  0  0999 V2000
   34.6010   29.2490   48.0730 C   0  0  0  0  0  0  0  0  0  0  0  0
   34.6290   27.9810   48.5350 C   0  0  0  0  0  0  0  0  0  0  0  0
   33.6980   27.0900   48.1780 C   0  0  0  0  0  0  0  0  0  0  0  0
   32.7100   27.4810   47.3320 N   0  0  0  0  0  0  0  0  0  0  0  0
   32.6920   28.7300   46.8830 C   0  0  0  0  0  0  0  0  0  0  0  0
   33.6190   29.6260   47.2350 N   0  0  0  0  0  0  0  0  0  0  0  0
   36.6550   31.6220   49.9680 C   0  0  0  0  0  0  0  0  0  0  0  0
   37.5340   32.1290   49.0080 C   0  0  0  0  0  0  0  0  0  0  0  0
   37.4000   31.6330   47.6930 C   0  0  0  0  0  0  0  0  0  0  0  0
   36.4280   30.7100   47.4850 N   0  0  0  0  0  0  0  0  0  0  0  0
   35.5990   30.2460   48.4360 C   0  0  0  0  0  0  0  0  0  0  0  0
   35.7290   30.7160   49.6760 N   0  0  0  0  0  0  0  0  0  0  0  0
   38.2440   32.0690   46.6010 N   0  0  0  0  0  0  0  0  0  0  0  0
   37.6060   32.0440   45.2740 C   0  0  0  0  0  0  0  0  0  0  0  0
   38.5830   32.5930   44.2900 C   0  0  0  0  0  0  0  0  0  0  0  0
   39.5180   33.5140   44.9010 N   0  0  0  0  0  0  0  0  0  0  0  0
   40.3920   32.8320   45.8290 C   0  0  0  0  0  0  0  0  0  0  0  0
   39.5920   32.4570   47.0470 C   0  0  0  0  0  0  0  0  0  0  0  0
   30.2850   28.8640   46.3870 C   0  0  0  0  0  0  0  0  0  0  0  0
   31.6120   29.0240   45.9710 C   0  0  0  0  0  0  0  0  0  0  0  0
   31.9760   29.4330   44.7010 C   0  0  0  0  0  0  0  0  0  0  0  0
   30.9890   29.7010   43.7780 C   0  0  0  0  0  0  0  0  0  0  0  0
   29.6540   29.5710   44.1000 C   0  0  0  0  0  0  0  0  0  0  0  0
   29.3930   29.1660   45.3670 C   0  0  0  0  0  0  0  0  0  0  0  0
   29.8100   28.4030   47.9140 S   0  0  0  0  0  0  0  0  0  0  0  0
   29.3330   26.9620   47.5300 O   0  0  0  0  0  0  0  0  0  0  0  0
   28.6020   29.2270   48.2780 O   0  0  0  0  0  0  0  0  0  0  0  0
   30.1050   27.8410   49.3780 C   0  0  0  0  0  0  0  0  0  0  0  0
   29.7200   26.5730   49.8600 F   0  0  0  0  0  0  0  0  0  0  0  0
   29.1920   28.4720   50.3470 F   0  0  0  0  0  0  0  0  0  0  0  0
   31.1670   28.3600   50.1770 F   0  0  0  0  0  0  0  0  0  0  0  0
   35.4340   27.6744   49.2191 H   0  0  0  0  0  0  0  0  0  0  0  0
   33.7317   26.0598   48.5622 H   0  0  0  0  0  0  0  0  0  0  0  0
   36.7326   31.9863   51.0030 H   0  0  0  0  0  0  0  0  0  0  0  0
   38.2955   32.8801   49.2648 H   0  0  0  0  0  0  0  0  0  0  0  0
   37.3433   31.0105   45.0042 H   0  0  0  0  0  0  0  0  0  0  0  0
   36.6849   32.6452   45.2783 H   0  0  0  0  0  0  0  0  0  0  0  0
   38.0301   33.1221   43.4998 H   0  0  0  0  0  0  0  0  0  0  0  0
   39.1591   31.7499   43.8809 H   0  0  0  0  0  0  0  0  0  0  0  0
   40.0876   33.9531   44.1637 H   0  0  0  0  0  0  0  0  0  0  0  0
   40.7988   31.9250   45.3580 H   0  0  0  0  0  0  0  0  0  0  0  0
   41.2276   33.4885   46.1131 H   0  0  0  0  0  0  0  0  0  0  0  0
   39.5266   33.3165   47.7304 H   0  0  0  0  0  0  0  0  0  0  0  0
   40.0737   31.6242   47.5804 H   0  0  0  0  0  0  0  0  0  0  0  0
   33.0370   29.5426   44.4321 H   0  0  0  0  0  0  0  0  0  0  0  0
   31.2708   30.0247   42.7652 H   0  0  0  0  0  0  0  0  0  0  0  0
   28.8534   29.7822   43.3758 H   0  0  0  0  0  0  0  0  0  0  0  0
   28.3280   29.0624   45.6220 H   0  0  0  0  0  0  0  0  0  0  0  0
  1 11  1  0
  1  2  2  0
  3  2  1  0
  4  3  2  0
  5  6  2  0
  5  4  1  0
  6  1  1  0
  8  7  2  0
  9  8  1  0
 10  9  2  0
 10 11  1  0
 11 12  2  0
 12  7  1  0
 13 18  1  0
 13  9  1  0
 14 13  1  0
 15 16  1  0
 15 14  1  0
 16 17  1  0
 17 18  1  0
 19 25  1  0
 20 19  2  0
 20  5  1  0
 21 20  1  0
 22 23  1  0
 22 21  2  0
 23 24  2  0
 24 19  1  0
 25 27  2  0
 25 28  1  0
 26 25  2  0
 28 29  1  0
 28 31  1  0
 28 30  1  0
  2 32  1  0
  3 33  1  0
  7 34  1  0
  8 35  1  0
 14 36  1  0
 14 37  1  0
 15 38  1  0
 15 39  1  0
 16 40  1  0
 17 41  1  0
 17 42  1  0
 18 43  1  0
 18 44  1  0
 21 45  1  0
 22 46  1  0
 23 47  1  0
 24 48  1  0
M  ISO  8  32  14  33  14  34  14  35  14  36  13  37  13  38  13  39  13
M  ISO  8  40   5  41  13  42  13  43  13  44  13  45  14  46  14  47  14
M  ISO  1  48  14
M  END
>  <minimizedAffinity>  (1) 
-6.92166042

>  <minimizedRMSD>  (1) 
1.71505737

$$$$
