
     RDKit          3D

 34 36  0  0  1  0  0  0  0  0999 V2000
   40.4980   31.2030   45.2330 C   0  0  0  0  0  0  0  0  0  0  0  0
   40.5740   31.6990   43.9260 C   0  0  0  0  0  0  0  0  0  0  0  0
   39.3700   31.8240   43.2220 C   0  0  0  0  0  0  0  0  0  0  0  0
   38.2000   31.4670   43.8200 N   0  0  0  0  0  0  0  0  0  0  0  0
   38.1820   30.9920   45.0840 C   0  0  0  0  0  0  0  0  0  0  0  0
   39.3270   30.8610   45.7890 N   0  0  0  0  0  0  0  0  0  0  0  0
   36.9850   30.6090   45.7470 N   0  0  0  0  0  0  0  0  0  0  0  0
   35.9270   30.2450   44.9980 C   0  0  0  0  0  0  0  0  0  0  0  0
   34.8060   29.8910   45.7150 C   0  0  0  0  0  0  0  0  0  0  0  0
   34.7330   29.8950   47.0840 C   0  0  0  0  0  0  0  0  0  0  0  0
   33.7070   29.5690   47.7360 O   0  0  0  0  0  0  0  0  0  0  0  0
   35.8320   30.2700   47.7870 N   0  0  0  0  0  0  0  0  0  0  0  0
   36.9310   30.6170   47.0930 C   0  0  0  0  0  0  0  0  0  0  0  0
   37.9770   30.9740   47.7070 O   0  0  0  0  0  0  0  0  0  0  0  0
   36.2820   28.9900   49.6540 N   0  0  0  0  0  0  0  0  0  0  0  0
   35.8500   30.3050   49.2360 C   0  0  1  0  0  0  0  0  0  0  0  0
   36.6100   31.4290   49.8170 C   0  0  0  0  0  0  0  0  0  0  0  0
   37.2330   31.2160   51.0770 N   0  0  0  0  0  0  0  0  0  0  0  0
   37.1720   29.9070   51.6260 C   0  0  0  0  0  0  0  0  0  0  0  0
   37.4620   28.9600   50.4520 C   0  0  0  0  0  0  0  0  0  0  0  0
   41.4225   31.0911   45.8185 H   0  0  0  0  0  0  0  0  0  0  0  0
   41.5365   31.9780   43.4724 H   0  0  0  0  0  0  0  0  0  0  0  0
   39.3694   32.2085   42.1914 H   0  0  0  0  0  0  0  0  0  0  0  0
   35.9559   30.2315   43.8985 H   0  0  0  0  0  0  0  0  0  0  0  0
   33.9112   29.5852   45.1530 H   0  0  0  0  0  0  0  0  0  0  0  0
   36.4560   28.4287   48.8081 H   0  0  0  0  0  0  0  0  0  0  0  0
   34.8469   30.5204   49.6327 H   0  0  0  0  0  0  0  0  0  0  0  0
   37.3994   31.6990   49.1001 H   0  0  0  0  0  0  0  0  0  0  0  0
   35.8582   32.2100   50.0036 H   0  0  0  0  0  0  0  0  0  0  0  0
   38.2280   31.4615   50.9746 H   0  0  0  0  0  0  0  0  0  0  0  0
   37.9284   29.7848   52.4153 H   0  0  0  0  0  0  0  0  0  0  0  0
   36.1945   29.7011   52.0866 H   0  0  0  0  0  0  0  0  0  0  0  0
   37.6564   27.9405   50.8165 H   0  0  0  0  0  0  0  0  0  0  0  0
   38.3528   29.2666   49.8841 H   0  0  0  0  0  0  0  0  0  0  0  0
  1  6  2  0
  2  1  1  0
  3  4  1  0
  3  2  2  0
  4  5  2  0
  5  7  1  0
  5  6  1  0
  7 13  1  0
  8  9  2  0
  8  7  1  0
  9 10  1  0
 10 11  2  0
 10 12  1  0
 13 14  2  0
 13 12  1  0
 15 20  1  0
 16 12  1  0
 16 15  1  0
 16 17  1  0
 17 18  1  0
 18 19  1  0
 20 19  1  0
  1 21  1  0
  2 22  1  0
  3 23  1  0
  8 24  1  0
  9 25  1  0
 15 26  1  0
 16 27  1  1
 17 28  1  0
 17 29  1  0
 18 30  1  0
 19 31  1  0
 19 32  1  0
 20 33  1  0
 20 34  1  0
M  ISO  8  21  14  22  14  23  14  24  14  25  14  26   5  27  13  28  13
M  ISO  6  29  13  30   5  31  13  32  13  33  13  34  13
M  END
>  <minimizedAffinity>  (1) 
-5.55366611

>  <minimizedRMSD>  (1) 
5.17311287

$$$$
