
     RDKit          3D

 25 26  0  0  1  0  0  0  0  0999 V2000
   36.3610   29.4730   49.1940 S   0  0  0  0  0  0  0  0  0  0  0  0
   38.0010   33.0660   49.4170 C   0  0  0  0  0  0  0  0  0  0  0  0
   38.8890   33.1320   48.3460 C   0  0  0  0  0  0  0  0  0  0  0  0
   38.9920   32.0040   47.5000 C   0  0  0  0  0  0  0  0  0  0  0  0
   38.2120   30.9150   47.7880 N   0  0  0  0  0  0  0  0  0  0  0  0
   37.3740   30.9000   48.8300 C   0  0  0  0  0  0  0  0  0  0  0  0
   37.2610   31.9670   49.6480 N   0  0  0  0  0  0  0  0  0  0  0  0
   34.1490   30.4490   48.1680 N   0  0  0  0  0  0  0  0  0  0  0  0
   34.6150   29.9270   49.4610 C   0  0  1  0  0  0  0  0  0  0  0  0
   33.8120   28.6520   49.6960 C   0  0  0  0  0  0  0  0  0  0  0  0
   32.7460   28.4800   48.7360 N   0  0  0  0  0  0  0  0  0  0  0  0
   33.2850   28.3780   47.3840 C   0  0  0  0  0  0  0  0  0  0  0  0
   34.4070   29.4030   47.1960 C   0  0  0  0  0  0  0  0  0  0  0  0
   37.9028   33.9317   50.0886 H   0  0  0  0  0  0  0  0  0  0  0  0
   39.4916   34.0341   48.1640 H   0  0  0  0  0  0  0  0  0  0  0  0
   39.6761   32.0007   46.6386 H   0  0  0  0  0  0  0  0  0  0  0  0
   33.1413   30.6583   48.2091 H   0  0  0  0  0  0  0  0  0  0  0  0
   34.5054   30.6297   50.3002 H   0  0  0  0  0  0  0  0  0  0  0  0
   34.4916   27.7900   49.6255 H   0  0  0  0  0  0  0  0  0  0  0  0
   33.3528   28.7273   50.6927 H   0  0  0  0  0  0  0  0  0  0  0  0
   32.2252   27.6197   48.9587 H   0  0  0  0  0  0  0  0  0  0  0  0
   33.6846   27.3655   47.2253 H   0  0  0  0  0  0  0  0  0  0  0  0
   32.4841   28.5777   46.6569 H   0  0  0  0  0  0  0  0  0  0  0  0
   35.3864   28.9385   47.3831 H   0  0  0  0  0  0  0  0  0  0  0  0
   34.4285   29.7983   46.1697 H   0  0  0  0  0  0  0  0  0  0  0  0
  2  7  2  0
  3  2  1  0
  4  5  1  0
  4  3  2  0
  5  6  2  0
  6  1  1  0
  6  7  1  0
  8  9  1  0
  9  1  1  0
  9 10  1  0
 11 10  1  0
 12 11  1  0
 13 12  1  0
 13  8  1  0
  2 14  1  0
  3 15  1  0
  4 16  1  0
  8 17  1  0
  9 18  1  1
 10 19  1  0
 10 20  1  0
 11 21  1  0
 12 22  1  0
 12 23  1  0
 13 24  1  0
 13 25  1  0
M  ISO  8  14  14  15  14  16  14  17   5  18  13  19  13  20  13  21   5
M  ISO  4  22  13  23  13  24  13  25  13
M  END
>  <minimizedAffinity>  (1) 
-4.36720514

>  <minimizedRMSD>  (1) 
2.85731268

$$$$
