
     RDKit          3D

 47 50  0  0  0  0  0  0  0  0999 V2000
   38.2200   31.5980   49.0270 C   0  0  0  0  0  0  0  0  0  0  0  0
   38.4070   32.8850   49.5380 C   0  0  0  0  0  0  0  0  0  0  0  0
   39.1070   33.6240   48.5970 C   0  0  0  0  0  0  0  0  0  0  0  0
   39.3280   32.7950   47.5580 N   0  0  0  0  0  0  0  0  0  0  0  0
   38.8080   31.6150   47.8150 N   0  0  0  0  0  0  0  0  0  0  0  0
   40.0250   33.1170   46.3110 C   0  0  0  0  0  0  0  0  0  0  0  0
   40.3180   31.8300   45.6190 C   0  0  0  0  0  0  0  0  0  0  0  0
   40.5590   32.0930   44.2050 N   0  0  0  0  0  0  0  0  0  0  0  0
   40.5050   30.8210   43.4630 C   0  0  0  0  0  0  0  0  0  0  0  0
   39.9750   31.0600   42.0600 C   0  0  0  0  0  0  0  0  0  0  0  0
   38.5550   31.4010   42.1050 N   0  0  0  0  0  0  0  0  0  0  0  0
   38.2700   32.2170   43.2720 C   0  0  0  0  0  0  0  0  0  0  0  0
   39.5250   32.9810   43.6690 C   0  0  0  0  0  0  0  0  0  0  0  0
   37.5350   30.7470   49.8590 O   0  0  0  0  0  0  0  0  0  0  0  0
   34.0530   28.8730   48.3810 C   0  0  0  0  0  0  0  0  0  0  0  0
   34.7800   28.3250   49.3850 C   0  0  0  0  0  0  0  0  0  0  0  0
   35.9200   28.8700   49.9210 C   0  0  0  0  0  0  0  0  0  0  0  0
   36.4040   30.0520   49.4440 C   0  0  0  0  0  0  0  0  0  0  0  0
   35.6610   30.6320   48.4030 C   0  0  0  0  0  0  0  0  0  0  0  0
   34.5450   30.0680   47.9030 N   0  0  0  0  0  0  0  0  0  0  0  0
   32.1120   27.3240   48.4480 C   0  0  0  0  0  0  0  0  0  0  0  0
   32.8780   28.3080   47.8190 C   0  0  0  0  0  0  0  0  0  0  0  0
   32.4400   28.7240   46.5820 C   0  0  0  0  0  0  0  0  0  0  0  0
   31.3060   28.1760   46.0260 N   0  0  0  0  0  0  0  0  0  0  0  0
   30.6120   27.2140   46.7120 C   0  0  0  0  0  0  0  0  0  0  0  0
   31.0010   26.7780   47.9220 N   0  0  0  0  0  0  0  0  0  0  0  0
   38.0594   33.2484   50.5163 H   0  0  0  0  0  0  0  0  0  0  0  0
   39.4192   34.6754   48.6815 H   0  0  0  0  0  0  0  0  0  0  0  0
   39.3866   33.7486   45.6757 H   0  0  0  0  0  0  0  0  0  0  0  0
   40.9547   33.6677   46.5168 H   0  0  0  0  0  0  0  0  0  0  0  0
   41.2105   31.3668   46.0649 H   0  0  0  0  0  0  0  0  0  0  0  0
   39.4627   31.1471   45.7285 H   0  0  0  0  0  0  0  0  0  0  0  0
   41.5159   30.3916   43.4023 H   0  0  0  0  0  0  0  0  0  0  0  0
   39.8347   30.1248   43.9884 H   0  0  0  0  0  0  0  0  0  0  0  0
   40.1101   30.1475   41.4608 H   0  0  0  0  0  0  0  0  0  0  0  0
   40.5290   31.8948   41.6059 H   0  0  0  0  0  0  0  0  0  0  0  0
   38.3041   31.9249   41.2544 H   0  0  0  0  0  0  0  0  0  0  0  0
   37.4657   32.9290   43.0352 H   0  0  0  0  0  0  0  0  0  0  0  0
   37.9520   31.5720   44.1044 H   0  0  0  0  0  0  0  0  0  0  0  0
   39.9232   33.4958   42.7822 H   0  0  0  0  0  0  0  0  0  0  0  0
   39.2518   33.6996   44.4558 H   0  0  0  0  0  0  0  0  0  0  0  0
   34.4293   27.3697   49.8026 H   0  0  0  0  0  0  0  0  0  0  0  0
   36.4444   28.3519   50.7374 H   0  0  0  0  0  0  0  0  0  0  0  0
   36.0049   31.5867   47.9784 H   0  0  0  0  0  0  0  0  0  0  0  0
   32.4385   26.9727   49.4379 H   0  0  0  0  0  0  0  0  0  0  0  0
   32.9987   29.4979   46.0352 H   0  0  0  0  0  0  0  0  0  0  0  0
   29.7070   26.7847   46.2574 H   0  0  0  0  0  0  0  0  0  0  0  0
  1  2  1  0
  1 14  1  0
  3  2  2  0
  4  5  1  0
  4  3  1  0
  5  1  2  0
  6  4  1  0
  7  6  1  0
  8  7  1  0
  9  8  1  0
 10 11  1  0
 10  9  1  0
 11 12  1  0
 12 13  1  0
 13  8  1  0
 15 16  2  0
 16 17  1  0
 18 14  1  0
 18 17  2  0
 19 18  1  0
 20 15  1  0
 20 19  2  0
 22 15  1  0
 22 21  2  0
 23 22  1  0
 24 23  2  0
 24 25  1  0
 25 26  2  0
 26 21  1  0
  2 27  1  0
  3 28  1  0
  6 29  1  0
  6 30  1  0
  7 31  1  0
  7 32  1  0
  9 33  1  0
  9 34  1  0
 10 35  1  0
 10 36  1  0
 11 37  1  0
 12 38  1  0
 12 39  1  0
 13 40  1  0
 13 41  1  0
 16 42  1  0
 17 43  1  0
 19 44  1  0
 21 45  1  0
 23 46  1  0
 25 47  1  0
M  ISO  8  27  14  28  14  29   8  30   8  31   8  32   8  33  13  34  13
M  ISO  8  35  13  36  13  37   5  38  13  39  13  40  13  41  13  42  14
M  ISO  5  43  14  44  14  45  14  46  14  47  14
M  END
>  <minimizedAffinity>  (1) 
-6.12495232

>  <minimizedRMSD>  (1) 
0.847179949

$$$$
