
     RDKit          3D

 32 34  0  0  0  0  0  0  0  0999 V2000
   35.8660   30.1920   48.5880 C   0  0  0  0  0  0  0  0  0  0  0  0
   35.8320   29.2170   49.5420 C   0  0  0  0  0  0  0  0  0  0  0  0
   34.8290   28.2810   49.5320 C   0  0  0  0  0  0  0  0  0  0  0  0
   33.8750   28.3340   48.5660 N   0  0  0  0  0  0  0  0  0  0  0  0
   33.9340   29.2980   47.6460 C   0  0  0  0  0  0  0  0  0  0  0  0
   34.9120   30.2240   47.6440 N   0  0  0  0  0  0  0  0  0  0  0  0
   32.9320   29.3490   46.6370 N   0  0  0  0  0  0  0  0  0  0  0  0
   31.8660   28.3630   46.6170 C   0  0  0  0  0  0  0  0  0  0  0  0
   30.5590   29.1370   46.6820 C   0  0  0  0  0  0  0  0  0  0  0  0
   30.4900   29.9420   45.4810 N   0  0  0  0  0  0  0  0  0  0  0  0
   31.5360   30.9260   45.3790 C   0  0  0  0  0  0  0  0  0  0  0  0
   32.9100   30.3520   45.6000 C   0  0  0  0  0  0  0  0  0  0  0  0
   38.0340   33.0080   49.4880 C   0  0  0  0  0  0  0  0  0  0  0  0
   38.9140   33.0900   48.4080 C   0  0  0  0  0  0  0  0  0  0  0  0
   38.7420   32.1550   47.3650 C   0  0  0  0  0  0  0  0  0  0  0  0
   37.7380   31.2440   47.4840 N   0  0  0  0  0  0  0  0  0  0  0  0
   36.9060   31.2030   48.5580 C   0  0  0  0  0  0  0  0  0  0  0  0
   37.0700   32.0940   49.5510 N   0  0  0  0  0  0  0  0  0  0  0  0
   36.6093   29.1815   50.3196 H   0  0  0  0  0  0  0  0  0  0  0  0
   34.7974   27.4940   50.2998 H   0  0  0  0  0  0  0  0  0  0  0  0
   31.9121   27.7726   45.6900 H   0  0  0  0  0  0  0  0  0  0  0  0
   31.9559   27.6636   47.4612 H   0  0  0  0  0  0  0  0  0  0  0  0
   29.7081   28.4409   46.7208 H   0  0  0  0  0  0  0  0  0  0  0  0
   30.5176   29.7671   47.5827 H   0  0  0  0  0  0  0  0  0  0  0  0
   30.5534   29.3153   44.6661 H   0  0  0  0  0  0  0  0  0  0  0  0
   31.5003   31.3720   44.3741 H   0  0  0  0  0  0  0  0  0  0  0  0
   31.3618   31.6730   46.1674 H   0  0  0  0  0  0  0  0  0  0  0  0
   33.2564   29.8956   44.6610 H   0  0  0  0  0  0  0  0  0  0  0  0
   33.5675   31.1745   45.9180 H   0  0  0  0  0  0  0  0  0  0  0  0
   38.1414   33.7242   50.3159 H   0  0  0  0  0  0  0  0  0  0  0  0
   39.7076   33.8508   48.3713 H   0  0  0  0  0  0  0  0  0  0  0  0
   39.3992   32.1623   46.4830 H   0  0  0  0  0  0  0  0  0  0  0  0
  1  2  2  0
  3  2  1  0
  4  3  2  0
  5  4  1  0
  6  5  2  0
  6  1  1  0
  7  5  1  0
  8  7  1  0
  8  9  1  0
 10  9  1  0
 11 10  1  0
 11 12  1  0
 12  7  1  0
 13 18  2  0
 14 13  1  0
 15 16  1  0
 15 14  2  0
 16 17  2  0
 17  1  1  0
 17 18  1  0
  2 19  1  0
  3 20  1  0
  8 21  1  0
  8 22  1  0
  9 23  1  0
  9 24  1  0
 10 25  1  0
 11 26  1  0
 11 27  1  0
 12 28  1  0
 12 29  1  0
 13 30  1  0
 14 31  1  0
 15 32  1  0
M  ISO  8  19  14  20  14  21  13  22  13  23  13  24  13  25   5  26  13
M  ISO  6  27  13  28  13  29  13  30  14  31  14  32  14
M  END
>  <minimizedAffinity>  (1) 
-5.34439802

>  <minimizedRMSD>  (1) 
0.099849917

$$$$
