
     RDKit          3D

 34 36  0  0  0  0  0  0  0  0999 V2000
   36.4910   30.5320   46.1500 Cl  0  0  0  0  0  0  0  0  0  0  0  0
   36.8630   30.7070   47.8660 C   0  0  0  0  0  0  0  0  0  0  0  0
   38.0890   31.2540   48.1440 C   0  0  0  0  0  0  0  0  0  0  0  0
   38.4150   31.4080   49.5070 C   0  0  0  0  0  0  0  0  0  0  0  0
   37.5150   31.0120   50.4580 C   0  0  0  0  0  0  0  0  0  0  0  0
   36.3100   30.4740   50.0890 C   0  0  0  0  0  0  0  0  0  0  0  0
   35.9410   30.3010   48.7870 C   0  0  0  0  0  0  0  0  0  0  0  0
   40.1830   33.3770   46.0450 C   0  0  0  0  0  0  0  0  0  0  0  0
   40.7860   32.4900   45.1550 C   0  0  0  0  0  0  0  0  0  0  0  0
   40.4600   31.1350   45.2860 C   0  0  0  0  0  0  0  0  0  0  0  0
   39.5880   30.7720   46.2600 N   0  0  0  0  0  0  0  0  0  0  0  0
   39.0250   31.6650   47.1040 C   0  0  0  0  0  0  0  0  0  0  0  0
   39.3310   32.9590   46.9830 N   0  0  0  0  0  0  0  0  0  0  0  0
   34.6790   29.7380   48.4540 N   0  0  0  0  0  0  0  0  0  0  0  0
   33.8790   30.3160   47.3970 C   0  0  0  0  0  0  0  0  0  0  0  0
   32.9330   29.3320   46.7520 C   0  0  0  0  0  0  0  0  0  0  0  0
   32.3300   28.4190   47.6990 N   0  0  0  0  0  0  0  0  0  0  0  0
   33.3470   27.6790   48.4040 C   0  0  0  0  0  0  0  0  0  0  0  0
   34.2500   28.5760   49.2180 C   0  0  0  0  0  0  0  0  0  0  0  0
   39.3819   31.8416   49.8023 H   0  0  0  0  0  0  0  0  0  0  0  0
   37.7598   31.1260   51.5243 H   0  0  0  0  0  0  0  0  0  0  0  0
   35.6081   30.1676   50.8786 H   0  0  0  0  0  0  0  0  0  0  0  0
   40.4155   34.4497   45.9723 H   0  0  0  0  0  0  0  0  0  0  0  0
   41.4876   32.8395   44.3832 H   0  0  0  0  0  0  0  0  0  0  0  0
   40.9003   30.3825   44.6153 H   0  0  0  0  0  0  0  0  0  0  0  0
   33.2878   31.1418   47.8195 H   0  0  0  0  0  0  0  0  0  0  0  0
   34.5733   30.6578   46.6153 H   0  0  0  0  0  0  0  0  0  0  0  0
   32.1322   29.8943   46.2495 H   0  0  0  0  0  0  0  0  0  0  0  0
   33.5202   28.7290   46.0438 H   0  0  0  0  0  0  0  0  0  0  0  0
   31.7694   28.9549   48.3768 H   0  0  0  0  0  0  0  0  0  0  0  0
   32.8580   26.9623   49.0801 H   0  0  0  0  0  0  0  0  0  0  0  0
   33.9690   27.1661   47.6556 H   0  0  0  0  0  0  0  0  0  0  0  0
   35.1374   28.0040   49.5268 H   0  0  0  0  0  0  0  0  0  0  0  0
   33.6862   28.9287   50.0942 H   0  0  0  0  0  0  0  0  0  0  0  0
  1  2  1  0
  2  3  2  0
  2  7  1  0
  3  4  1  0
  4  5  2  0
  6  5  1  0
  7  6  2  0
  8 13  2  0
  9 10  2  0
  9  8  1  0
 10 11  1  0
 11 12  2  0
 12  3  1  0
 13 12  1  0
 14  7  1  0
 14 19  1  0
 15 14  1  0
 16 15  1  0
 16 17  1  0
 17 18  1  0
 18 19  1  0
  4 20  1  0
  5 21  1  0
  6 22  1  0
  8 23  1  0
  9 24  1  0
 10 25  1  0
 15 26  1  0
 15 27  1  0
 16 28  1  0
 16 29  1  0
 17 30  1  0
 18 31  1  0
 18 32  1  0
 19 33  1  0
 19 34  1  0
M  ISO  8  20  14  21  14  22  14  23  14  24  14  25  14  26  13  27  13
M  ISO  7  28  13  29  13  30   5  31  13  32  13  33  13  34  13
M  END
>  <minimizedAffinity>  (1) 
-6.31953382

>  <minimizedRMSD>  (1) 
0.310248047

$$$$
