
     RDKit          3D

 52 56  0  0  0  0  0  0  0  0999 V2000
   38.0910   31.3740   47.8770 C   0  0  0  0  0  0  0  0  0  0  0  0
   37.2790   31.5770   48.9860 C   0  0  0  0  0  0  0  0  0  0  0  0
   37.5320   32.7840   49.6690 C   0  0  0  0  0  0  0  0  0  0  0  0
   38.5230   33.6810   49.2430 C   0  0  0  0  0  0  0  0  0  0  0  0
   39.2900   33.3770   48.1050 C   0  0  0  0  0  0  0  0  0  0  0  0
   39.0530   32.1930   47.4210 C   0  0  0  0  0  0  0  0  0  0  0  0
   35.1370   30.4590   48.6360 C   0  0  0  0  0  0  0  0  0  0  0  0
   36.2720   30.6630   49.4170 C   0  0  0  0  0  0  0  0  0  0  0  0
   36.3800   29.9450   50.6160 C   0  0  0  0  0  0  0  0  0  0  0  0
   35.3770   29.0950   50.9510 N   0  0  0  0  0  0  0  0  0  0  0  0
   34.2840   28.9270   50.1580 C   0  0  0  0  0  0  0  0  0  0  0  0
   34.1710   29.6030   49.0150 N   0  0  0  0  0  0  0  0  0  0  0  0
   37.5700   30.1270   51.4820 C   0  0  0  0  0  0  0  0  0  0  0  0
   37.9210   30.2050   47.1310 O   0  0  0  0  0  0  0  0  0  0  0  0
   39.8460   31.9650   46.3160 O   0  0  0  0  0  0  0  0  0  0  0  0
   39.9500   31.0040   44.0110 C   0  0  0  0  0  0  0  0  0  0  0  0
   39.4260   31.7870   45.0220 C   0  0  0  0  0  0  0  0  0  0  0  0
   38.2850   32.5490   44.7620 C   0  0  0  0  0  0  0  0  0  0  0  0
   37.6850   32.5140   43.4920 C   0  0  0  0  0  0  0  0  0  0  0  0
   36.6080   33.1150   42.9360 N   0  0  0  0  0  0  0  0  0  0  0  0
   36.4670   32.7320   41.6600 C   0  0  0  0  0  0  0  0  0  0  0  0
   37.4890   31.8620   41.4030 N   0  0  0  0  0  0  0  0  0  0  0  0
   38.2400   31.7230   42.5200 C   0  0  0  0  0  0  0  0  0  0  0  0
   39.3600   30.9750   42.7740 C   0  0  0  0  0  0  0  0  0  0  0  0
   39.9470   30.1480   41.7750 N   0  0  0  0  0  0  0  0  0  0  0  0
   39.9410   28.7010   41.8750 C   0  0  0  0  0  0  0  0  0  0  0  0
   40.8980   28.1250   40.8570 C   0  0  0  0  0  0  0  0  0  0  0  0
   42.1280   28.9090   40.9740 N   0  0  0  0  0  0  0  0  0  0  0  0
   41.8730   30.1380   40.2470 C   0  0  0  0  0  0  0  0  0  0  0  0
   40.5690   30.7750   40.6270 C   0  0  0  0  0  0  0  0  0  0  0  0
   36.9360   33.0292   50.5604 H   0  0  0  0  0  0  0  0  0  0  0  0
   38.6986   34.6157   49.7957 H   0  0  0  0  0  0  0  0  0  0  0  0
   40.0706   34.0709   47.7599 H   0  0  0  0  0  0  0  0  0  0  0  0
   35.0283   31.0092   47.6897 H   0  0  0  0  0  0  0  0  0  0  0  0
   33.4895   28.2296   50.4620 H   0  0  0  0  0  0  0  0  0  0  0  0
   37.2656   30.0804   52.5380 H   0  0  0  0  0  0  0  0  0  0  0  0
   38.2993   29.3300   51.2752 H   0  0  0  0  0  0  0  0  0  0  0  0
   38.0278   31.1056   51.2752 H   0  0  0  0  0  0  0  0  0  0  0  0
   38.4877   30.0380   46.3366 H   0  0  0  0  0  0  0  0  0  0  0  0
   40.8486   30.3986   44.2006 H   0  0  0  0  0  0  0  0  0  0  0  0
   37.8544   33.1789   45.5543 H   0  0  0  0  0  0  0  0  0  0  0  0
   35.9848   33.7737   43.4245 H   0  0  0  0  0  0  0  0  0  0  0  0
   35.6837   33.0541   40.9581 H   0  0  0  0  0  0  0  0  0  0  0  0
   40.2557   28.4014   42.8856 H   0  0  0  0  0  0  0  0  0  0  0  0
   38.9263   28.3229   41.6815 H   0  0  0  0  0  0  0  0  0  0  0  0
   40.4801   28.2178   39.8437 H   0  0  0  0  0  0  0  0  0  0  0  0
   41.0823   27.0554   41.0361 H   0  0  0  0  0  0  0  0  0  0  0  0
   42.3335   29.1114   41.9628 H   0  0  0  0  0  0  0  0  0  0  0  0
   41.8542   29.9127   39.1705 H   0  0  0  0  0  0  0  0  0  0  0  0
   42.6754   30.8466   40.5001 H   0  0  0  0  0  0  0  0  0  0  0  0
   40.7513   31.8341   40.8618 H   0  0  0  0  0  0  0  0  0  0  0  0
   39.8836   30.6558   39.7750 H   0  0  0  0  0  0  0  0  0  0  0  0
  1  2  2  0
  2  8  1  0
  2  3  1  0
  4  3  2  0
  5  4  1  0
  6  1  1  0
  6  5  2  0
  7 12  2  0
  7  8  1  0
  8  9  2  0
  9 10  1  0
  9 13  1  0
 11 10  2  0
 12 11  1  0
 14  1  1  0
 15  6  1  0
 16 17  2  0
 17 15  1  0
 18 17  1  0
 19 18  2  0
 20 19  1  0
 21 20  1  0
 22 21  2  0
 22 23  1  0
 23 24  2  0
 23 19  1  0
 24 16  1  0
 25 26  1  0
 25 24  1  0
 27 28  1  0
 27 26  1  0
 29 30  1  0
 29 28  1  0
 30 25  1  0
  3 31  1  0
  4 32  1  0
  5 33  1  0
  7 34  1  0
 11 35  1  0
 13 36  1  0
 13 37  1  0
 13 38  1  0
 14 39  1  0
 16 40  1  0
 18 41  1  0
 20 42  1  0
 21 43  1  0
 26 44  1  0
 26 45  1  0
 27 46  1  0
 27 47  1  0
 28 48  1  0
 29 49  1  0
 29 50  1  0
 30 51  1  0
 30 52  1  0
M  ISO  8  31  14  32  14  33  14  34  14  35  14  36   8  37   8  38   8
M  ISO  8  39   3  40  14  41  14  42   9  43  14  44  13  45  13  46  13
M  ISO  6  47  13  48   5  49  13  50  13  51  13  52  13
M  END
>  <minimizedAffinity>  (1) 
-7.84322548

>  <minimizedRMSD>  (1) 
0.957849979

$$$$
