
     RDKit          3D

 36 38  0  0  1  0  0  0  0  0999 V2000
   37.4480   30.9900   48.4890 N   0  0  0  0  0  0  0  0  0  0  0  0
   37.8390   32.0530   47.6080 C   0  0  1  0  0  0  0  0  0  0  0  0
   38.5690   33.0150   48.5170 C   0  0  0  0  0  0  0  0  0  0  0  0
   38.4150   32.4430   49.9300 C   0  0  0  0  0  0  0  0  0  0  0  0
   38.3980   30.9690   49.5670 C   0  0  0  0  0  0  0  0  0  0  0  0
   36.3390   30.1130   48.3530 C   0  0  0  0  0  0  0  0  0  0  0  0
   35.5350   30.3100   47.2130 C   0  0  0  0  0  0  0  0  0  0  0  0
   34.4240   29.4510   47.0590 C   0  0  0  0  0  0  0  0  0  0  0  0
   34.2080   28.4930   48.0230 N   0  0  0  0  0  0  0  0  0  0  0  0
   35.0240   28.3570   49.1010 C   0  0  0  0  0  0  0  0  0  0  0  0
   36.0890   29.1710   49.2590 N   0  0  0  0  0  0  0  0  0  0  0  0
   38.4530   31.7160   46.4030 N   0  0  0  0  0  0  0  0  0  0  0  0
   39.7280   31.1320   46.3750 C   0  0  0  0  0  0  0  0  0  0  0  0
   40.6050   31.4530   45.2040 C   0  0  0  0  0  0  0  0  0  0  0  0
   39.8970   31.6760   43.9670 N   0  0  0  0  0  0  0  0  0  0  0  0
   38.9950   32.8020   44.2520 C   0  0  0  0  0  0  0  0  0  0  0  0
   37.9630   32.2500   45.1910 C   0  0  0  0  0  0  0  0  0  0  0  0
   36.9620   32.5193   47.1354 H   0  0  0  0  0  0  0  0  0  0  0  0
   39.6320   33.0735   48.2401 H   0  0  0  0  0  0  0  0  0  0  0  0
   38.1612   34.0340   48.4434 H   0  0  0  0  0  0  0  0  0  0  0  0
   39.2653   32.7017   50.5782 H   0  0  0  0  0  0  0  0  0  0  0  0
   37.5499   32.8066   50.5040 H   0  0  0  0  0  0  0  0  0  0  0  0
   38.0515   30.3460   50.4047 H   0  0  0  0  0  0  0  0  0  0  0  0
   39.3795   30.5426   49.3122 H   0  0  0  0  0  0  0  0  0  0  0  0
   35.7617   31.0958   46.4773 H   0  0  0  0  0  0  0  0  0  0  0  0
   33.7513   29.5452   46.1938 H   0  0  0  0  0  0  0  0  0  0  0  0
   34.8153   27.5786   49.8497 H   0  0  0  0  0  0  0  0  0  0  0  0
   40.2587   31.4535   47.2833 H   0  0  0  0  0  0  0  0  0  0  0  0
   39.5417   30.0505   46.3002 H   0  0  0  0  0  0  0  0  0  0  0  0
   41.1754   32.3630   45.4418 H   0  0  0  0  0  0  0  0  0  0  0  0
   41.2447   30.5727   45.0429 H   0  0  0  0  0  0  0  0  0  0  0  0
   39.3599   30.8388   43.6997 H   0  0  0  0  0  0  0  0  0  0  0  0
   39.5461   33.6275   44.7262 H   0  0  0  0  0  0  0  0  0  0  0  0
   38.5422   33.2087   43.3357 H   0  0  0  0  0  0  0  0  0  0  0  0
   37.4224   31.4496   44.6645 H   0  0  0  0  0  0  0  0  0  0  0  0
   37.3331   33.1055   45.4764 H   0  0  0  0  0  0  0  0  0  0  0  0
  1  5  1  0
  2  1  1  0
  2  3  1  0
  3  4  1  0
  5  4  1  0
  6  1  1  0
  6 11  1  0
  7  6  2  0
  8  7  1  0
  8  9  2  0
  9 10  1  0
 10 11  2  0
 12 17  1  0
 12  2  1  0
 13 12  1  0
 14 13  1  0
 15 16  1  0
 15 14  1  0
 16 17  1  0
  2 18  1  6
  3 19  1  0
  3 20  1  0
  4 21  1  0
  4 22  1  0
  5 23  1  0
  5 24  1  0
  7 25  1  0
  8 26  1  0
 10 27  1  0
 13 28  1  0
 13 29  1  0
 14 30  1  0
 14 31  1  0
 15 32  1  0
 16 33  1  0
 16 34  1  0
 17 35  1  0
 17 36  1  0
M  ISO  8  18  13  19  13  20  13  21  13  22  13  23  13  24  13  25  14
M  ISO  8  26  14  27  14  28  13  29  13  30  13  31  13  32   5  33  13
M  ISO  3  34  13  35  13  36  13
M  END
>  <minimizedAffinity>  (1) 
-5.17885542

>  <minimizedRMSD>  (1) 
2.07831907

$$$$
