
     RDKit          3D

 36 38  0  0  1  0  0  0  0  0999 V2000
   33.4990   28.6370   47.8210 N   0  0  0  0  0  0  0  0  0  0  0  0
   34.3080   28.9450   46.6710 C   0  0  0  0  0  0  0  0  0  0  0  0
   35.2010   30.0850   47.1710 C   0  0  0  0  0  0  0  0  0  0  0  0
   34.8230   30.2950   48.6130 C   0  0  1  0  0  0  0  0  0  0  0  0
   34.3380   28.9200   48.9870 C   0  0  0  0  0  0  0  0  0  0  0  0
   32.1700   28.1590   47.8450 C   0  0  0  0  0  0  0  0  0  0  0  0
   31.3500   28.5140   46.7810 C   0  0  0  0  0  0  0  0  0  0  0  0
   30.0170   28.0600   46.7650 C   0  0  0  0  0  0  0  0  0  0  0  0
   29.6150   27.2790   47.8260 N   0  0  0  0  0  0  0  0  0  0  0  0
   30.4400   26.9580   48.8350 C   0  0  0  0  0  0  0  0  0  0  0  0
   31.7230   27.3950   48.8520 N   0  0  0  0  0  0  0  0  0  0  0  0
   35.8540   30.8360   49.4210 N   0  0  0  0  0  0  0  0  0  0  0  0
   37.0100   31.3000   48.7060 C   0  0  0  0  0  0  0  0  0  0  0  0
   38.0590   31.6620   49.7650 C   0  0  0  0  0  0  0  0  0  0  0  0
   38.5530   30.4690   50.4200 N   0  0  0  0  0  0  0  0  0  0  0  0
   37.5820   29.3930   50.2700 C   0  0  0  0  0  0  0  0  0  0  0  0
   36.1690   29.8950   50.4670 C   0  0  0  0  0  0  0  0  0  0  0  0
   33.6848   29.2729   45.8259 H   0  0  0  0  0  0  0  0  0  0  0  0
   34.8774   28.0808   46.2984 H   0  0  0  0  0  0  0  0  0  0  0  0
   36.2618   29.8056   47.0892 H   0  0  0  0  0  0  0  0  0  0  0  0
   35.0620   31.0004   46.5771 H   0  0  0  0  0  0  0  0  0  0  0  0
   34.0623   31.0730   48.7744 H   0  0  0  0  0  0  0  0  0  0  0  0
   33.7551   28.9297   49.9198 H   0  0  0  0  0  0  0  0  0  0  0  0
   35.1287   28.1817   49.1863 H   0  0  0  0  0  0  0  0  0  0  0  0
   31.7362   29.1403   45.9634 H   0  0  0  0  0  0  0  0  0  0  0  0
   29.3302   28.3166   45.9450 H   0  0  0  0  0  0  0  0  0  0  0  0
   30.0697   26.3314   49.6598 H   0  0  0  0  0  0  0  0  0  0  0  0
   37.3930   30.5070   48.0468 H   0  0  0  0  0  0  0  0  0  0  0  0
   36.7662   32.1668   48.0741 H   0  0  0  0  0  0  0  0  0  0  0  0
   38.8981   32.1821   49.2799 H   0  0  0  0  0  0  0  0  0  0  0  0
   37.5926   32.3136   50.5186 H   0  0  0  0  0  0  0  0  0  0  0  0
   39.4462   30.1872   49.9914 H   0  0  0  0  0  0  0  0  0  0  0  0
   37.6730   28.9667   49.2601 H   0  0  0  0  0  0  0  0  0  0  0  0
   37.7888   28.6302   51.0351 H   0  0  0  0  0  0  0  0  0  0  0  0
   36.0870   30.3906   51.4456 H   0  0  0  0  0  0  0  0  0  0  0  0
   35.4662   29.0496   50.4298 H   0  0  0  0  0  0  0  0  0  0  0  0
  1  6  1  0
  1  5  1  0
  2  3  1  0
  2  1  1  0
  3  4  1  0
  4  5  1  0
  4 12  1  0
  6 11  1  0
  7  6  2  0
  8  7  1  0
  8  9  2  0
  9 10  1  0
 10 11  2  0
 12 17  1  0
 13 12  1  0
 13 14  1  0
 14 15  1  0
 16 15  1  0
 16 17  1  0
  2 18  1  0
  2 19  1  0
  3 20  1  0
  3 21  1  0
  4 22  1  6
  5 23  1  0
  5 24  1  0
  7 25  1  0
  8 26  1  0
 10 27  1  0
 13 28  1  0
 13 29  1  0
 14 30  1  0
 14 31  1  0
 15 32  1  0
 16 33  1  0
 16 34  1  0
 17 35  1  0
 17 36  1  0
M  ISO  8  18  13  19  13  20  13  21  13  22  13  23  13  24  13  25  14
M  ISO  8  26  14  27  14  28  13  29  13  30  13  31  13  32   5  33  13
M  ISO  3  34  13  35  13  36  13
M  END
>  <minimizedAffinity>  (1) 
-4.89085436

>  <minimizedRMSD>  (1) 
3.93993068

$$$$
