
     RDKit          3D

 46 49  0  0  1  0  0  0  0  0999 V2000
   34.5240   29.1000   48.5960 C   0  0  2  0  0  0  0  0  0  0  0  0
   35.1620   28.3460   49.7110 C   0  0  0  0  0  0  0  0  0  0  0  0
   36.2810   29.1250   50.2390 N   0  0  0  0  0  0  0  0  0  0  0  0
   37.2140   29.8510   51.0580 C   0  0  0  0  0  0  0  0  0  0  0  0
   37.4120   30.0080   52.2750 O   0  0  0  0  0  0  0  0  0  0  0  0
   37.9390   30.4090   49.9530 C   0  0  1  0  0  0  0  0  0  0  0  0
   37.1320   29.4150   49.1260 C   0  0  2  0  0  0  0  0  0  0  0  0
   35.9210   30.1420   47.9950 S   0  0  0  0  0  0  0  0  0  0  0  0
   33.3060   29.8880   48.9290 C   0  0  0  0  0  0  0  0  0  0  0  0
   34.2650   28.1170   47.4350 C   0  0  0  0  0  0  0  0  0  0  0  0
   34.3330   28.8190   46.2350 O   0  0  0  0  0  0  0  0  0  0  0  0
   37.7100   31.8370   49.6460 C   0  0  0  0  0  0  0  0  0  0  0  0
   36.6460   32.2960   50.1750 O   0  0  0  0  0  0  0  0  0  0  0  0
   38.5850   32.6350   48.8440 C   0  0  0  0  0  0  0  0  0  0  0  0
   39.0670   33.8100   49.3750 C   0  0  0  0  0  0  0  0  0  0  0  0
   39.9320   34.5960   48.5740 C   0  0  0  0  0  0  0  0  0  0  0  0
   40.2350   34.1340   47.3160 N   0  0  0  0  0  0  0  0  0  0  0  0
   39.7520   32.9970   46.8380 C   0  0  0  0  0  0  0  0  0  0  0  0
   38.9260   32.2400   47.5950 N   0  0  0  0  0  0  0  0  0  0  0  0
   40.1330   32.6150   45.5220 N   0  0  0  0  0  0  0  0  0  0  0  0
   39.7930   33.5060   44.4330 C   0  0  0  0  0  0  0  0  0  0  0  0
   39.3520   32.7200   43.2430 C   0  0  0  0  0  0  0  0  0  0  0  0
   40.2140   31.6030   42.9820 N   0  0  0  0  0  0  0  0  0  0  0  0
   40.2530   30.6830   44.1100 C   0  0  0  0  0  0  0  0  0  0  0  0
   40.8350   31.3630   45.3250 C   0  0  0  0  0  0  0  0  0  0  0  0
   34.4243   28.1743   50.5087 H   0  0  0  0  0  0  0  0  0  0  0  0
   35.5281   27.3772   49.3404 H   0  0  0  0  0  0  0  0  0  0  0  0
   39.0367   30.4784   49.9345 H   0  0  0  0  0  0  0  0  0  0  0  0
   37.7432   28.7068   48.5474 H   0  0  0  0  0  0  0  0  0  0  0  0
   33.2008   29.9561   50.0218 H   0  0  0  0  0  0  0  0  0  0  0  0
   33.3964   30.8992   48.5056 H   0  0  0  0  0  0  0  0  0  0  0  0
   32.4207   29.3911   48.5056 H   0  0  0  0  0  0  0  0  0  0  0  0
   35.0271   27.3239   47.4440 H   0  0  0  0  0  0  0  0  0  0  0  0
   33.2716   27.6579   47.5459 H   0  0  0  0  0  0  0  0  0  0  0  0
   34.4267   29.7864   46.4234 H   0  0  0  0  0  0  0  0  0  0  0  0
   38.7891   34.1291   50.3904 H   0  0  0  0  0  0  0  0  0  0  0  0
   40.3470   35.5441   48.9467 H   0  0  0  0  0  0  0  0  0  0  0  0
   38.9780   34.1732   44.7502 H   0  0  0  0  0  0  0  0  0  0  0  0
   40.6797   34.0985   44.1635 H   0  0  0  0  0  0  0  0  0  0  0  0
   38.3330   32.3468   43.4227 H   0  0  0  0  0  0  0  0  0  0  0  0
   39.3860   33.3849   42.3674 H   0  0  0  0  0  0  0  0  0  0  0  0
   39.8683   31.1003   42.1521 H   0  0  0  0  0  0  0  0  0  0  0  0
   39.2310   30.3461   44.3382 H   0  0  0  0  0  0  0  0  0  0  0  0
   40.8853   29.8224   43.8462 H   0  0  0  0  0  0  0  0  0  0  0  0
   40.7063   30.7208   46.2087 H   0  0  0  0  0  0  0  0  0  0  0  0
   41.9094   31.5484   45.1789 H   0  0  0  0  0  0  0  0  0  0  0  0
  1 10  1  6
  1  9  1  0
  1  2  1  0
  2  3  1  0
  3  4  1  0
  4  5  2  0
  6  4  1  0
  7  6  1  0
  7  3  1  0
  8  1  1  0
  8  7  1  0
 11 10  1  0
 12  6  1  0
 12 13  2  0
 14 15  2  0
 14 12  1  0
 16 15  1  0
 17 16  2  0
 18 17  1  0
 18 19  2  0
 19 14  1  0
 20 18  1  0
 21 20  1  0
 22 21  1  0
 23 22  1  0
 23 24  1  0
 24 25  1  0
 25 20  1  0
  2 26  1  0
  2 27  1  0
  6 28  1  1
  7 29  1  6
  9 30  1  0
  9 31  1  0
  9 32  1  0
 10 33  1  0
 10 34  1  0
 11 35  1  0
 15 36  1  0
 16 37  1  0
 21 38  1  0
 21 39  1  0
 22 40  1  0
 22 41  1  0
 23 42  1  0
 24 43  1  0
 24 44  1  0
 25 45  1  0
 25 46  1  0
M  ISO  8  26  13  27  13  28  13  29  13  30   8  31   8  32   8  33   8
M  ISO  8  34   8  35   3  36  14  37  14  38  13  39  13  40  13  41  13
M  ISO  5  42   5  43  13  44  13  45  13  46  13
M  END
>  <minimizedAffinity>  (1) 
-6.24726629

>  <minimizedRMSD>  (1) 
0.228781357

$$$$
