
     RDKit          3D

 34 36  0  0  0  0  0  0  0  0999 V2000
   38.0410   30.3340   49.4860 C   0  0  0  0  0  0  0  0  0  0  0  0
   37.9180   31.0290   48.2630 C   0  0  0  0  0  0  0  0  0  0  0  0
   36.7620   30.8670   47.5200 C   0  0  0  0  0  0  0  0  0  0  0  0
   35.8020   30.0390   48.0210 N   0  0  0  0  0  0  0  0  0  0  0  0
   35.9500   29.4110   49.1600 C   0  0  0  0  0  0  0  0  0  0  0  0
   37.0900   29.5330   49.9480 N   0  0  0  0  0  0  0  0  0  0  0  0
   38.9880   31.8170   47.9220 O   0  0  0  0  0  0  0  0  0  0  0  0
   39.4380   31.7570   46.5900 C   0  0  0  0  0  0  0  0  0  0  0  0
   39.7170   30.6300   45.8330 C   0  0  0  0  0  0  0  0  0  0  0  0
   40.1410   30.7670   44.5650 C   0  0  0  0  0  0  0  0  0  0  0  0
   40.2870   32.0410   44.0470 C   0  0  0  0  0  0  0  0  0  0  0  0
   40.0070   33.1550   44.8080 C   0  0  0  0  0  0  0  0  0  0  0  0
   39.5820   32.9710   46.0830 N   0  0  0  0  0  0  0  0  0  0  0  0
   40.1740   34.5250   44.2210 C   0  0  0  0  0  0  0  0  0  0  0  0
   34.5010   28.3930   49.5420 S   0  0  0  0  0  0  0  0  0  0  0  0
   33.4590   28.5010   48.0470 C   0  0  0  0  0  0  0  0  0  0  0  0
   32.4440   27.3790   48.1340 C   0  0  0  0  0  0  0  0  0  0  0  0
   31.1570   27.6220   48.8400 C   0  0  0  0  0  0  0  0  0  0  0  0
   31.1490   27.5200   47.3640 C   0  0  0  0  0  0  0  0  0  0  0  0
   38.9596   30.4616   50.0776 H   0  0  0  0  0  0  0  0  0  0  0  0
   36.6229   31.3870   46.5607 H   0  0  0  0  0  0  0  0  0  0  0  0
   39.5919   29.6275   46.2682 H   0  0  0  0  0  0  0  0  0  0  0  0
   40.3675   29.8828   43.9510 H   0  0  0  0  0  0  0  0  0  0  0  0
   40.6324   32.1670   43.0103 H   0  0  0  0  0  0  0  0  0  0  0  0
   40.2639   35.2629   45.0318 H   0  0  0  0  0  0  0  0  0  0  0  0
   41.0818   34.5498   43.6003 H   0  0  0  0  0  0  0  0  0  0  0  0
   39.2987   34.7672   43.6003 H   0  0  0  0  0  0  0  0  0  0  0  0
   34.0779   28.3818   47.1455 H   0  0  0  0  0  0  0  0  0  0  0  0
   32.9595   29.4791   47.9858 H   0  0  0  0  0  0  0  0  0  0  0  0
   33.2405   26.6235   48.2035 H   0  0  0  0  0  0  0  0  0  0  0  0
   30.7064   26.8217   49.4454 H   0  0  0  0  0  0  0  0  0  0  0  0
   30.8047   28.3736   49.5618 H   0  0  0  0  0  0  0  0  0  0  0  0
   30.9671   28.4149   46.7507 H   0  0  0  0  0  0  0  0  0  0  0  0
   30.6088   26.9073   46.6273 H   0  0  0  0  0  0  0  0  0  0  0  0
  1  6  2  0
  2  1  1  0
  3  4  1  0
  3  2  2  0
  4  5  2  0
  5 15  1  0
  5  6  1  0
  7  2  1  0
  8  7  1  0
  9  8  2  0
 10  9  1  0
 11 10  2  0
 11 12  1  0
 12 13  2  0
 13  8  1  0
 14 12  1  0
 16 17  1  0
 16 15  1  0
 17 18  1  0
 19 17  1  0
 19 18  1  0
  1 20  1  0
  3 21  1  0
  9 22  1  0
 10 23  1  0
 11 24  1  0
 14 25  1  0
 14 26  1  0
 14 27  1  0
 16 28  1  0
 16 29  1  0
 17 30  1  0
 18 31  1  0
 18 32  1  0
 19 33  1  0
 19 34  1  0
M  ISO  8  20  14  21  14  22  14  23  14  24  14  25   8  26   8  27   8
M  ISO  7  28   8  29   8  30  13  31  13  32  13  33  13  34  13
M  END
>  <minimizedAffinity>  (1) 
-4.64546824

>  <minimizedRMSD>  (1) 
1.19921756

$$$$
