
     RDKit          3D

 31 33  0  0  1  0  0  0  0  0999 V2000
   32.1990   28.1940   47.5950 C   0  0  2  0  0  0  0  0  0  0  0  0
   33.4890   28.1500   48.3940 C   0  0  1  0  0  0  0  0  0  0  0  0
   34.0210   26.8830   48.2720 O   0  0  0  0  0  0  0  0  0  0  0  0
   33.3190   26.1860   47.3080 C   0  0  0  0  0  0  0  0  0  0  0  0
   32.5570   27.2390   46.4880 C   0  0  1  0  0  0  0  0  0  0  0  0
   31.9450   29.4730   47.1320 O   0  0  0  0  0  0  0  0  0  0  0  0
   34.6400   29.3070   47.5850 S   0  0  0  0  0  0  0  0  0  0  0  0
   37.2470   29.3100   50.5690 C   0  0  0  0  0  0  0  0  0  0  0  0
   37.7250   30.6250   50.6390 C   0  0  0  0  0  0  0  0  0  0  0  0
   37.2170   31.5410   49.7230 C   0  0  0  0  0  0  0  0  0  0  0  0
   36.2880   31.1310   48.8090 N   0  0  0  0  0  0  0  0  0  0  0  0
   35.8570   29.8500   48.7800 C   0  0  0  0  0  0  0  0  0  0  0  0
   36.3300   28.9390   49.6530 N   0  0  0  0  0  0  0  0  0  0  0  0
   31.4770   26.6640   45.8740 O   0  0  0  0  0  0  0  0  0  0  0  0
   30.6080   26.0030   46.7080 C   0  0  0  0  0  0  0  0  0  0  0  0
   29.5790   25.1480   45.9680 C   0  0  0  0  0  0  0  0  0  0  0  0
   29.1640   26.3300   46.7620 C   0  0  0  0  0  0  0  0  0  0  0  0
   31.2839   27.9300   48.1453 H   0  0  0  0  0  0  0  0  0  0  0  0
   33.3215   28.4038   49.4511 H   0  0  0  0  0  0  0  0  0  0  0  0
   34.0114   25.6269   46.6615 H   0  0  0  0  0  0  0  0  0  0  0  0
   32.6318   25.4564   47.7613 H   0  0  0  0  0  0  0  0  0  0  0  0
   33.0954   27.7164   45.6560 H   0  0  0  0  0  0  0  0  0  0  0  0
   31.8236   30.0843   47.9012 H   0  0  0  0  0  0  0  0  0  0  0  0
   37.6293   28.5617   51.2789 H   0  0  0  0  0  0  0  0  0  0  0  0
   38.4729   30.9219   51.3890 H   0  0  0  0  0  0  0  0  0  0  0  0
   37.5603   32.5860   49.7347 H   0  0  0  0  0  0  0  0  0  0  0  0
   31.3673   25.8964   47.4967 H   0  0  0  0  0  0  0  0  0  0  0  0
   29.5262   25.1734   44.8696 H   0  0  0  0  0  0  0  0  0  0  0  0
   29.3120   24.0810   45.9519 H   0  0  0  0  0  0  0  0  0  0  0  0
   28.6085   26.1872   47.7006 H   0  0  0  0  0  0  0  0  0  0  0  0
   28.5748   27.2321   46.5407 H   0  0  0  0  0  0  0  0  0  0  0  0
  1  2  1  0
  3  2  1  0
  4  3  1  0
  5  4  1  0
  5  1  1  0
  6  1  1  0
  7  2  1  0
  7 12  1  0
  8  9  2  0
 10  9  1  0
 11 10  2  0
 12 11  1  0
 12 13  2  0
 13  8  1  0
 14  5  1  0
 14 15  1  0
 15 17  1  0
 16 15  1  0
 16 17  1  0
  1 18  1  1
  2 19  1  1
  4 20  1  0
  4 21  1  0
  5 22  1  6
  6 23  1  0
  8 24  1  0
  9 25  1  0
 10 26  1  0
 15 27  1  0
 16 28  1  0
 16 29  1  0
 17 30  1  0
 17 31  1  0
M  ISO  8  18  13  19  13  20  13  21  13  22  13  23   3  24  14  25  14
M  ISO  6  26  14  27  13  28  13  29  13  30  13  31  13
M  END
>  <minimizedAffinity>  (1) 
-3.94719243

>  <minimizedRMSD>  (1) 
1.65579343

$$$$
