
     RDKit          3D

 28 30  0  0  0  0  0  0  0  0999 V2000
   38.2210   30.4730   46.9490 Cl  0  0  0  0  0  0  0  0  0  0  0  0
   38.6550   31.9150   47.8300 C   0  0  0  0  0  0  0  0  0  0  0  0
   38.1330   32.0880   49.0900 C   0  0  0  0  0  0  0  0  0  0  0  0
   38.5080   33.2560   49.7560 C   0  0  0  0  0  0  0  0  0  0  0  0
   39.3670   34.1520   49.1140 C   0  0  0  0  0  0  0  0  0  0  0  0
   39.8520   33.9300   47.8690 C   0  0  0  0  0  0  0  0  0  0  0  0
   39.4960   32.7880   47.1980 C   0  0  0  0  0  0  0  0  0  0  0  0
   37.6380   30.3840   50.8410 C   0  0  0  0  0  0  0  0  0  0  0  0
   37.2320   31.1410   49.7530 C   0  0  0  0  0  0  0  0  0  0  0  0
   35.9310   30.9750   49.3050 C   0  0  0  0  0  0  0  0  0  0  0  0
   35.1360   30.0870   49.9520 N   0  0  0  0  0  0  0  0  0  0  0  0
   35.5560   29.3740   50.9950 C   0  0  0  0  0  0  0  0  0  0  0  0
   36.8230   29.5130   51.4590 N   0  0  0  0  0  0  0  0  0  0  0  0
   39.9910   32.5710   45.9380 O   0  0  0  0  0  0  0  0  0  0  0  0
   39.5940   33.2170   44.7850 C   0  0  0  0  0  0  0  0  0  0  0  0
   38.3960   32.6290   44.0450 C   0  0  0  0  0  0  0  0  0  0  0  0
   39.7580   32.5530   43.4460 C   0  0  0  0  0  0  0  0  0  0  0  0
   38.1339   33.4675   50.7686 H   0  0  0  0  0  0  0  0  0  0  0  0
   39.6604   35.0726   49.6398 H   0  0  0  0  0  0  0  0  0  0  0  0
   40.5268   34.6607   47.3992 H   0  0  0  0  0  0  0  0  0  0  0  0
   38.6667   30.5009   51.2125 H   0  0  0  0  0  0  0  0  0  0  0  0
   35.5528   31.5491   48.4463 H   0  0  0  0  0  0  0  0  0  0  0  0
   34.8702   28.6667   51.4843 H   0  0  0  0  0  0  0  0  0  0  0  0
   39.8874   34.1955   45.1930 H   0  0  0  0  0  0  0  0  0  0  0  0
   37.9089   31.7178   44.4223 H   0  0  0  0  0  0  0  0  0  0  0  0
   37.4197   33.0129   43.7140 H   0  0  0  0  0  0  0  0  0  0  0  0
   40.2710   31.5824   43.3766 H   0  0  0  0  0  0  0  0  0  0  0  0
   40.1941   32.8581   42.4833 H   0  0  0  0  0  0  0  0  0  0  0  0
  1  2  1  0
  2  3  2  0
  3  9  1  0
  3  4  1  0
  5  4  2  0
  6  5  1  0
  7  2  1  0
  7  6  2  0
  8 13  2  0
  9  8  1  0
 10  9  2  0
 10 11  1  0
 11 12  2  0
 12 13  1  0
 14  7  1  0
 15 14  1  0
 16 15  1  0
 17 16  1  0
 17 15  1  0
  4 18  1  0
  5 19  1  0
  6 20  1  0
  8 21  1  0
 10 22  1  0
 12 23  1  0
 15 24  1  0
 16 25  1  0
 16 26  1  0
 17 27  1  0
 17 28  1  0
M  ISO  8  18  14  19  14  20  14  21  14  22  14  23  14  24  13  25  13
M  ISO  3  26  13  27  13  28  13
M  END
>  <minimizedAffinity>  (1) 
-5.7866497

>  <minimizedRMSD>  (1) 
1.0783807

$$$$
