
     RDKit          3D

 25 26  0  0  0  0  0  0  0  0999 V2000
   35.9440   30.7310   49.3340 C   0  0  0  0  0  0  0  0  0  0  0  0
   36.2000   29.9580   50.4740 C   0  0  0  0  0  0  0  0  0  0  0  0
   37.4460   30.0510   51.0620 C   0  0  0  0  0  0  0  0  0  0  0  0
   38.3790   30.8760   50.5300 N   0  0  0  0  0  0  0  0  0  0  0  0
   38.1070   31.6150   49.4230 C   0  0  0  0  0  0  0  0  0  0  0  0
   36.8810   31.5370   48.8270 N   0  0  0  0  0  0  0  0  0  0  0  0
   35.1080   29.1560   50.8870 N   0  0  0  0  0  0  0  0  0  0  0  0
   34.7670   30.7730   48.6120 O   0  0  0  0  0  0  0  0  0  0  0  0
   35.4920   29.9040   46.1910 O   0  0  0  0  0  0  0  0  0  0  0  0
   34.4730   29.7140   47.2710 P   0  0  1  0  0  0  0  0  0  0  0  0
   34.4920   28.1530   47.8820 O   0  0  0  0  0  0  0  0  0  0  0  0
   32.9660   30.1120   46.5830 O   0  0  0  0  0  0  0  0  0  0  0  0
   32.1600   28.9690   46.5680 C   0  0  0  0  0  0  0  0  0  0  0  0
   31.6400   28.4960   45.2590 C   0  0  0  0  0  0  0  0  0  0  0  0
   30.7210   29.2910   46.1620 C   0  0  0  0  0  0  0  0  0  0  0  0
   37.6796   29.4577   51.9584 H   0  0  0  0  0  0  0  0  0  0  0  0
   38.8778   32.2791   49.0050 H   0  0  0  0  0  0  0  0  0  0  0  0
   35.1976   28.5513   51.7160 H   0  0  0  0  0  0  0  0  0  0  0  0
   34.2243   29.1775   50.3583 H   0  0  0  0  0  0  0  0  0  0  0  0
   34.4916   28.1859   48.8715 H   0  0  0  0  0  0  0  0  0  0  0  0
   32.6779   28.4549   47.3911 H   0  0  0  0  0  0  0  0  0  0  0  0
   31.4556   27.4233   45.0997 H   0  0  0  0  0  0  0  0  0  0  0  0
   31.9725   28.5991   44.2155 H   0  0  0  0  0  0  0  0  0  0  0  0
   30.4371   30.3200   45.8964 H   0  0  0  0  0  0  0  0  0  0  0  0
   29.7255   29.1368   46.6038 H   0  0  0  0  0  0  0  0  0  0  0  0
  1  2  2  0
  2  7  1  0
  2  3  1  0
  4  3  2  0
  5  4  1  0
  6  1  1  0
  6  5  2  0
  8  1  1  0
 10  9  2  0
 10 11  1  0
 10  8  1  0
 12 10  1  0
 13 12  1  0
 14 15  1  0
 14 13  1  0
 15 13  1  0
  3 16  1  0
  5 17  1  0
  7 18  1  0
  7 19  1  0
 11 20  1  0
 13 21  1  0
 14 22  1  0
 14 23  1  0
 15 24  1  0
 15 25  1  0
M  ISO  8  16  14  17  14  20   3  21  13  22  13  23  13  24  13  25  13
M  END
>  <minimizedAffinity>  (1) 
-3.60399532

>  <minimizedRMSD>  (1) 
0.898235977

$$$$
