
     RDKit          3D

 39 42  0  0  0  0  0  0  0  0999 V2000
   38.9250   31.6130   46.8840 C   0  0  0  0  0  0  0  0  0  0  0  0
   39.4620   32.8740   46.8150 C   0  0  0  0  0  0  0  0  0  0  0  0
   40.1180   33.3690   45.7040 C   0  0  0  0  0  0  0  0  0  0  0  0
   40.2570   32.5650   44.5800 C   0  0  0  0  0  0  0  0  0  0  0  0
   39.7090   31.3010   44.6700 C   0  0  0  0  0  0  0  0  0  0  0  0
   39.0850   30.8810   45.7790 N   0  0  0  0  0  0  0  0  0  0  0  0
   38.6810   30.1940   42.7460 C   0  0  0  0  0  0  0  0  0  0  0  0
   39.8280   30.4540   43.4940 C   0  0  0  0  0  0  0  0  0  0  0  0
   41.0170   29.9000   43.0850 C   0  0  0  0  0  0  0  0  0  0  0  0
   41.1780   29.0890   41.9800 C   0  0  0  0  0  0  0  0  0  0  0  0
   40.0710   28.8120   41.2250 C   0  0  0  0  0  0  0  0  0  0  0  0
   38.8750   29.3630   41.6230 C   0  0  0  0  0  0  0  0  0  0  0  0
   37.0930   30.7490   43.1230 S   0  0  0  0  0  0  0  0  0  0  0  0
   36.2180   30.3730   41.9210 O   0  0  0  0  0  0  0  0  0  0  0  0
   36.5320   29.9970   44.2900 O   0  0  0  0  0  0  0  0  0  0  0  0
   36.8610   32.5020   43.1700 C   0  0  0  0  0  0  0  0  0  0  0  0
   35.5070   33.0360   42.6580 C   0  0  0  0  0  0  0  0  0  0  0  0
   36.7300   33.2430   41.8920 C   0  0  0  0  0  0  0  0  0  0  0  0
   38.5130   31.5430   49.3700 C   0  0  0  0  0  0  0  0  0  0  0  0
   38.2350   31.1130   48.0510 C   0  0  0  0  0  0  0  0  0  0  0  0
   37.2330   30.1340   47.8640 C   0  0  0  0  0  0  0  0  0  0  0  0
   36.5830   29.6520   48.9630 N   0  0  0  0  0  0  0  0  0  0  0  0
   36.8970   30.1070   50.2100 C   0  0  0  0  0  0  0  0  0  0  0  0
   37.8330   31.0270   50.4230 N   0  0  0  0  0  0  0  0  0  0  0  0
   39.3647   33.5280   47.6941 H   0  0  0  0  0  0  0  0  0  0  0  0
   40.5263   34.3904   45.7098 H   0  0  0  0  0  0  0  0  0  0  0  0
   40.7724   32.9142   43.6731 H   0  0  0  0  0  0  0  0  0  0  0  0
   41.9116   30.1204   43.6860 H   0  0  0  0  0  0  0  0  0  0  0  0
   42.1637   28.6788   41.7150 H   0  0  0  0  0  0  0  0  0  0  0  0
   40.1351   28.1722   40.3325 H   0  0  0  0  0  0  0  0  0  0  0  0
   37.9904   29.1350   41.0103 H   0  0  0  0  0  0  0  0  0  0  0  0
   37.4791   32.6096   44.0735 H   0  0  0  0  0  0  0  0  0  0  0  0
   34.7393   32.3370   42.2946 H   0  0  0  0  0  0  0  0  0  0  0  0
   34.7181   33.6863   43.0638 H   0  0  0  0  0  0  0  0  0  0  0  0
   36.8690   32.7088   40.9405 H   0  0  0  0  0  0  0  0  0  0  0  0
   37.2238   34.1349   41.4789 H   0  0  0  0  0  0  0  0  0  0  0  0
   39.2887   32.3036   49.5427 H   0  0  0  0  0  0  0  0  0  0  0  0
   36.9830   29.7692   46.8568 H   0  0  0  0  0  0  0  0  0  0  0  0
   36.3541   29.6963   51.0740 H   0  0  0  0  0  0  0  0  0  0  0  0
  1 20  1  0
  2  1  2  0
  3  2  1  0
  4  5  1  0
  4  3  2  0
  5  6  2  0
  6  1  1  0
  7 13  1  0
  7  8  1  0
  8  5  1  0
  9  8  2  0
 10  9  1  0
 11 12  1  0
 11 10  2  0
 12  7  2  0
 13 16  1  0
 13 15  2  0
 14 13  2  0
 17 16  1  0
 18 17  1  0
 18 16  1  0
 19 24  2  0
 20 19  1  0
 21 20  2  0
 21 22  1  0
 22 23  2  0
 23 24  1  0
  2 25  1  0
  3 26  1  0
  4 27  1  0
  9 28  1  0
 10 29  1  0
 11 30  1  0
 12 31  1  0
 16 32  1  0
 17 33  1  0
 17 34  1  0
 18 35  1  0
 18 36  1  0
 19 37  1  0
 21 38  1  0
 23 39  1  0
M  ISO  8  25  14  26  14  27  14  28  14  29  14  30  14  31  14  32  13
M  ISO  7  33  13  34  13  35  13  36  13  37  14  38  14  39  14
M  END
>  <minimizedAffinity>  (1) 
-5.39209032

>  <minimizedRMSD>  (1) 
1.27528691

$$$$
