
     RDKit          3D

 18 19  0  0  0  0  0  0  0  0999 V2000
   37.9750   32.8460   49.3980 C   0  0  0  0  0  0  0  0  0  0  0  0
   38.8230   32.9120   48.2900 C   0  0  0  0  0  0  0  0  0  0  0  0
   38.9050   31.7870   47.4530 C   0  0  0  0  0  0  0  0  0  0  0  0
   38.1470   30.6780   47.7680 N   0  0  0  0  0  0  0  0  0  0  0  0
   37.3370   30.6690   48.8640 C   0  0  0  0  0  0  0  0  0  0  0  0
   37.2610   31.7510   49.6630 N   0  0  0  0  0  0  0  0  0  0  0  0
   36.6650   29.4720   49.0050 O   0  0  0  0  0  0  0  0  0  0  0  0
   35.2560   29.4740   48.8560 C   0  0  0  0  0  0  0  0  0  0  0  0
   34.3800   29.4290   50.0500 C   0  0  0  0  0  0  0  0  0  0  0  0
   34.6240   28.1590   49.3040 C   0  0  0  0  0  0  0  0  0  0  0  0
   37.8943   33.7159   50.0664 H   0  0  0  0  0  0  0  0  0  0  0  0
   39.4094   33.8185   48.0791 H   0  0  0  0  0  0  0  0  0  0  0  0
   39.5578   31.7901   46.5677 H   0  0  0  0  0  0  0  0  0  0  0  0
   35.2640   30.1293   47.9725 H   0  0  0  0  0  0  0  0  0  0  0  0
   34.8153   29.5655   51.0509 H   0  0  0  0  0  0  0  0  0  0  0  0
   33.4772   29.9753   50.3605 H   0  0  0  0  0  0  0  0  0  0  0  0
   33.8181   27.7020   48.7109 H   0  0  0  0  0  0  0  0  0  0  0  0
   34.9966   27.1565   49.5614 H   0  0  0  0  0  0  0  0  0  0  0  0
  1  6  2  0
  2  1  1  0
  3  4  1  0
  3  2  2  0
  4  5  2  0
  5  7  1  0
  5  6  1  0
  8  7  1  0
  8 10  1  0
  8  9  1  0
 10  9  1  0
  1 11  1  0
  2 12  1  0
  3 13  1  0
  8 14  1  0
  9 15  1  0
  9 16  1  0
 10 17  1  0
 10 18  1  0
M  ISO  8  11  14  12  14  13  14  14  13  15  13  16  13  17  13  18  13
M  END
>  <minimizedAffinity>  (1) 
-3.85291839

>  <minimizedRMSD>  (1) 
2.65179181

$$$$
