
     RDKit          3D

 45 48  0  0  0  0  0  0  0  0999 V2000
   38.7570   32.8930   48.3510 C   0  0  0  0  0  0  0  0  0  0  0  0
   39.0520   32.2220   47.1560 C   0  0  0  0  0  0  0  0  0  0  0  0
   38.5370   30.9590   47.0110 C   0  0  0  0  0  0  0  0  0  0  0  0
   37.7830   30.4420   48.0210 N   0  0  0  0  0  0  0  0  0  0  0  0
   37.5300   31.0940   49.1190 C   0  0  0  0  0  0  0  0  0  0  0  0
   38.0100   32.3670   49.3400 N   0  0  0  0  0  0  0  0  0  0  0  0
   39.8150   32.8600   46.2380 O   0  0  0  0  0  0  0  0  0  0  0  0
   39.9640   32.3060   44.9770 C   0  0  0  0  0  0  0  0  0  0  0  0
   40.6610   31.1780   44.6240 C   0  0  0  0  0  0  0  0  0  0  0  0
   40.6910   30.7920   43.3300 C   0  0  0  0  0  0  0  0  0  0  0  0
   40.0280   31.5330   42.4090 C   0  0  0  0  0  0  0  0  0  0  0  0
   39.3180   32.6810   42.7660 C   0  0  0  0  0  0  0  0  0  0  0  0
   39.3060   33.0430   44.0730 N   0  0  0  0  0  0  0  0  0  0  0  0
   38.5870   33.4870   41.7160 C   0  0  0  0  0  0  0  0  0  0  0  0
   36.5070   30.1490   50.2720 S   0  0  0  0  0  0  0  0  0  0  0  0
   34.8060   30.5840   49.8260 C   0  0  0  0  0  0  0  0  0  0  0  0
   34.5570   27.8520   49.9750 F   0  0  0  0  0  0  0  0  0  0  0  0
   34.3770   28.4560   48.7660 C   0  0  0  0  0  0  0  0  0  0  0  0
   34.4800   29.8360   48.5620 C   0  0  0  0  0  0  0  0  0  0  0  0
   34.2950   30.3990   47.3420 C   0  0  0  0  0  0  0  0  0  0  0  0
   33.9900   29.5870   46.2360 C   0  0  0  0  0  0  0  0  0  0  0  0
   33.8860   28.2270   46.4180 C   0  0  0  0  0  0  0  0  0  0  0  0
   34.0760   27.6710   47.6620 C   0  0  0  0  0  0  0  0  0  0  0  0
   33.9570   26.3080   47.7820 O   0  0  0  0  0  0  0  0  0  0  0  0
   33.4530   25.3950   46.8800 C   0  0  0  0  0  0  0  0  0  0  0  0
   34.5560   24.4880   46.2700 C   0  0  0  0  0  0  0  0  0  0  0  0
   33.4940   23.9300   47.1130 C   0  0  0  0  0  0  0  0  0  0  0  0
   39.1590   33.9076   48.4886 H   0  0  0  0  0  0  0  0  0  0  0  0
   38.7288   30.3758   46.0983 H   0  0  0  0  0  0  0  0  0  0  0  0
   41.1915   30.5924   45.3893 H   0  0  0  0  0  0  0  0  0  0  0  0
   41.2447   29.8906   43.0285 H   0  0  0  0  0  0  0  0  0  0  0  0
   40.0498   31.2223   41.3540 H   0  0  0  0  0  0  0  0  0  0  0  0
   37.9259   34.2159   42.2077 H   0  0  0  0  0  0  0  0  0  0  0  0
   39.3169   34.0191   41.0882 H   0  0  0  0  0  0  0  0  0  0  0  0
   37.9864   32.8124   41.0882 H   0  0  0  0  0  0  0  0  0  0  0  0
   34.1165   30.2867   50.6299 H   0  0  0  0  0  0  0  0  0  0  0  0
   34.7032   31.6692   49.6786 H   0  0  0  0  0  0  0  0  0  0  0  0
   34.3834   31.4885   47.2184 H   0  0  0  0  0  0  0  0  0  0  0  0
   33.8370   30.0313   45.2414 H   0  0  0  0  0  0  0  0  0  0  0  0
   33.6489   27.5788   45.5615 H   0  0  0  0  0  0  0  0  0  0  0  0
   32.6382   26.0663   46.5711 H   0  0  0  0  0  0  0  0  0  0  0  0
   34.5693   24.2838   45.1892 H   0  0  0  0  0  0  0  0  0  0  0  0
   35.6559   24.4742   46.2814 H   0  0  0  0  0  0  0  0  0  0  0  0
   33.7434   23.5493   48.1144 H   0  0  0  0  0  0  0  0  0  0  0  0
   32.7625   23.1207   46.9717 H   0  0  0  0  0  0  0  0  0  0  0  0
  1  6  2  0
  2  1  1  0
  3  2  2  0
  3  4  1  0
  4  5  2  0
  5  6  1  0
  5 15  1  0
  7  2  1  0
  8  7  1  0
  9  8  2  0
 10  9  1  0
 11 12  1  0
 11 10  2  0
 12 13  2  0
 13  8  1  0
 14 12  1  0
 16 15  1  0
 18 17  1  0
 19 18  2  0
 19 16  1  0
 20 19  1  0
 21 22  1  0
 21 20  2  0
 22 23  2  0
 23 24  1  0
 23 18  1  0
 25 27  1  0
 25 24  1  0
 26 25  1  0
 26 27  1  0
  1 28  1  0
  3 29  1  0
  9 30  1  0
 10 31  1  0
 11 32  1  0
 14 33  1  0
 14 34  1  0
 14 35  1  0
 16 36  1  0
 16 37  1  0
 20 38  1  0
 21 39  1  0
 22 40  1  0
 25 41  1  0
 26 42  1  0
 26 43  1  0
 27 44  1  0
 27 45  1  0
M  ISO  8  28  14  29  14  30  14  31  14  32  14  33   8  34   8  35   8
M  ISO  8  36   8  37   8  38  14  39  14  40  14  41  13  42  13  43  13
M  ISO  2  44  13  45  13
M  END
>  <minimizedAffinity>  (1) 
-5.93771887

>  <minimizedRMSD>  (1) 
0.297503144

$$$$
