
     RDKit          3D

 31 33  0  0  0  0  0  0  0  0999 V2000
   38.4570   30.4320   47.2870 F   0  0  0  0  0  0  0  0  0  0  0  0
   38.7500   31.6590   47.7730 C   0  0  0  0  0  0  0  0  0  0  0  0
   38.2040   32.0680   48.9600 C   0  0  0  0  0  0  0  0  0  0  0  0
   38.5380   33.3230   49.4040 C   0  0  0  0  0  0  0  0  0  0  0  0
   39.3790   34.1550   48.7090 C   0  0  0  0  0  0  0  0  0  0  0  0
   39.9150   33.7200   47.5180 C   0  0  0  0  0  0  0  0  0  0  0  0
   39.5980   32.4600   47.0430 C   0  0  0  0  0  0  0  0  0  0  0  0
   36.7950   29.5710   51.4450 C   0  0  0  0  0  0  0  0  0  0  0  0
   37.6890   30.4500   50.8060 C   0  0  0  0  0  0  0  0  0  0  0  0
   37.3100   31.1410   49.6640 C   0  0  0  0  0  0  0  0  0  0  0  0
   36.0360   30.9220   49.2020 N   0  0  0  0  0  0  0  0  0  0  0  0
   35.1970   30.0730   49.8340 C   0  0  0  0  0  0  0  0  0  0  0  0
   35.5710   29.4130   50.9320 N   0  0  0  0  0  0  0  0  0  0  0  0
   39.2990   32.1880   44.6770 C   0  0  0  0  0  0  0  0  0  0  0  0
   38.2090   32.7830   44.9330 O   0  0  0  0  0  0  0  0  0  0  0  0
   40.1400   31.9830   45.8100 N   0  0  0  0  0  0  0  0  0  0  0  0
   39.7370   31.7120   43.3380 C   0  0  0  0  0  0  0  0  0  0  0  0
   40.5880   30.5060   43.2320 C   0  0  0  0  0  0  0  0  0  0  0  0
   39.1760   30.4500   42.7650 C   0  0  0  0  0  0  0  0  0  0  0  0
   38.1142   33.6761   50.3557 H   0  0  0  0  0  0  0  0  0  0  0  0
   39.6214   35.1550   49.0978 H   0  0  0  0  0  0  0  0  0  0  0  0
   40.5924   34.3715   46.9465 H   0  0  0  0  0  0  0  0  0  0  0  0
   37.0980   29.0240   52.3500 H   0  0  0  0  0  0  0  0  0  0  0  0
   38.6998   30.5909   51.2165 H   0  0  0  0  0  0  0  0  0  0  0  0
   34.1831   29.9222   49.4349 H   0  0  0  0  0  0  0  0  0  0  0  0
   41.0621   31.5286   45.7450 H   0  0  0  0  0  0  0  0  0  0  0  0
   39.8106   32.7534   42.9914 H   0  0  0  0  0  0  0  0  0  0  0  0
   41.4093   30.4766   42.5008 H   0  0  0  0  0  0  0  0  0  0  0  0
   41.1941   29.9207   43.9392 H   0  0  0  0  0  0  0  0  0  0  0  0
   38.9530   30.3839   41.6899 H   0  0  0  0  0  0  0  0  0  0  0  0
   38.3062   29.8127   42.9825 H   0  0  0  0  0  0  0  0  0  0  0  0
  1  2  1  0
  2  3  2  0
  3  4  1  0
  3 10  1  0
  5  4  2  0
  6  5  1  0
  7  6  2  0
  7  2  1  0
  9  8  2  0
 10  9  1  0
 11 10  2  0
 11 12  1  0
 12 13  2  0
 13  8  1  0
 14 15  2  0
 14 16  1  0
 16  7  1  0
 17 14  1  0
 18 17  1  0
 19 18  1  0
 19 17  1  0
  4 20  1  0
  5 21  1  0
  6 22  1  0
  8 23  1  0
  9 24  1  0
 12 25  1  0
 16 26  1  0
 17 27  1  0
 18 28  1  0
 18 29  1  0
 19 30  1  0
 19 31  1  0
M  ISO  8  20  14  21  14  22  14  23  14  24  14  25  14  27  13  28  13
M  ISO  3  29  13  30  13  31  13
M  END
>  <minimizedAffinity>  (1) 
-6.14610767

>  <minimizedRMSD>  (1) 
0.239412978

$$$$
