
     RDKit          3D

 26 28  0  0  0  0  0  0  0  0999 V2000
   36.3220   31.1480   49.7670 C   0  0  0  0  0  0  0  0  0  0  0  0
   37.3320   31.3480   48.8070 C   0  0  0  0  0  0  0  0  0  0  0  0
   37.1190   30.8260   47.5290 C   0  0  0  0  0  0  0  0  0  0  0  0
   35.9500   30.1570   47.2870 N   0  0  0  0  0  0  0  0  0  0  0  0
   35.0030   29.9860   48.2370 C   0  0  0  0  0  0  0  0  0  0  0  0
   35.2060   30.4860   49.4630 N   0  0  0  0  0  0  0  0  0  0  0  0
   33.7830   29.2650   47.9180 C   0  0  0  0  0  0  0  0  0  0  0  0
   33.3270   28.2950   48.7820 C   0  0  0  0  0  0  0  0  0  0  0  0
   32.1680   27.5800   48.5210 C   0  0  0  0  0  0  0  0  0  0  0  0
   31.5160   27.9120   47.3460 C   0  0  0  0  0  0  0  0  0  0  0  0
   31.9560   28.8870   46.4590 C   0  0  0  0  0  0  0  0  0  0  0  0
   33.1080   29.5410   46.7970 N   0  0  0  0  0  0  0  0  0  0  0  0
   38.5680   32.0840   49.1490 C   0  0  0  0  0  0  0  0  0  0  0  0
   38.5530   33.5140   49.4590 C   0  0  0  0  0  0  0  0  0  0  0  0
   39.0510   33.0970   48.1210 C   0  0  0  0  0  0  0  0  0  0  0  0
   36.4561   31.5444   50.7843 H   0  0  0  0  0  0  0  0  0  0  0  0
   37.8721   30.9496   46.7369 H   0  0  0  0  0  0  0  0  0  0  0  0
   33.8948   28.0824   49.6999 H   0  0  0  0  0  0  0  0  0  0  0  0
   31.7922   26.8018   49.2015 H   0  0  0  0  0  0  0  0  0  0  0  0
   30.5913   27.3699   47.0988 H   0  0  0  0  0  0  0  0  0  0  0  0
   31.4070   29.1200   45.5347 H   0  0  0  0  0  0  0  0  0  0  0  0
   38.9719   31.2093   49.6798 H   0  0  0  0  0  0  0  0  0  0  0  0
   37.5920   34.0428   49.5413 H   0  0  0  0  0  0  0  0  0  0  0  0
   38.9686   34.1248   50.2740 H   0  0  0  0  0  0  0  0  0  0  0  0
   40.1211   33.1743   47.8783 H   0  0  0  0  0  0  0  0  0  0  0  0
   38.8039   33.3398   47.0770 H   0  0  0  0  0  0  0  0  0  0  0  0
  2 13  1  0
  2  1  2  0
  3  2  1  0
  4  3  2  0
  4  5  1  0
  5  6  2  0
  6  1  1  0
  7  5  1  0
  7  8  2  0
  9  8  1  0
 10  9  2  0
 11 12  2  0
 11 10  1  0
 12  7  1  0
 13 14  1  0
 15 13  1  0
 15 14  1  0
  1 16  1  0
  3 17  1  0
  8 18  1  0
  9 19  1  0
 10 20  1  0
 11 21  1  0
 13 22  1  0
 14 23  1  0
 14 24  1  0
 15 25  1  0
 15 26  1  0
M  ISO  8  16  14  17  14  18  14  19  14  20  14  21  14  22  13  23  13
M  ISO  3  24  13  25  13  26  13
M  END
>  <minimizedAffinity>  (1) 
-4.81856918

>  <minimizedRMSD>  (1) 
2.55702376

$$$$
