
     RDKit          3D

 30 32  0  0  0  0  0  0  0  0999 V2000
   37.4010   30.7020   46.3010 C   0  0  0  0  0  0  0  0  0  0  0  0
   36.1730   30.3630   45.7530 C   0  0  0  0  0  0  0  0  0  0  0  0
   36.0670   29.9760   44.4370 C   0  0  0  0  0  0  0  0  0  0  0  0
   37.1730   29.9060   43.5970 C   0  0  0  0  0  0  0  0  0  0  0  0
   38.3930   30.2400   44.1260 C   0  0  0  0  0  0  0  0  0  0  0  0
   38.4750   30.6270   45.4540 C   0  0  0  0  0  0  0  0  0  0  0  0
   37.3750   30.5790   49.9540 C   0  0  0  0  0  0  0  0  0  0  0  0
   37.7300   31.8790   50.3100 C   0  0  0  0  0  0  0  0  0  0  0  0
   37.9790   32.7940   49.2810 C   0  0  0  0  0  0  0  0  0  0  0  0
   37.8550   32.3350   48.0100 N   0  0  0  0  0  0  0  0  0  0  0  0
   37.5140   31.0880   47.6870 C   0  0  0  0  0  0  0  0  0  0  0  0
   37.2760   30.2140   48.6730 N   0  0  0  0  0  0  0  0  0  0  0  0
   37.1070   29.5920   51.0640 C   0  0  0  0  0  0  0  0  0  0  0  0
   35.7500   29.3340   51.1480 F   0  0  0  0  0  0  0  0  0  0  0  0
   37.8380   28.4780   50.8130 F   0  0  0  0  0  0  0  0  0  0  0  0
   37.4720   30.1930   52.2580 F   0  0  0  0  0  0  0  0  0  0  0  0
   39.8730   30.9940   45.8330 C   0  0  0  0  0  0  0  0  0  0  0  0
   40.8310   31.2830   44.6960 C   0  0  0  0  0  0  0  0  0  0  0  0
   40.3510   32.3820   45.6190 C   0  0  0  0  0  0  0  0  0  0  0  0
   35.2701   30.4041   46.3800 H   0  0  0  0  0  0  0  0  0  0  0  0
   35.0765   29.7138   44.0368 H   0  0  0  0  0  0  0  0  0  0  0  0
   37.0728   29.5942   42.5469 H   0  0  0  0  0  0  0  0  0  0  0  0
   39.2981   30.2011   43.5021 H   0  0  0  0  0  0  0  0  0  0  0  0
   37.8118   32.1761   51.3659 H   0  0  0  0  0  0  0  0  0  0  0  0
   38.2618   33.8358   49.4923 H   0  0  0  0  0  0  0  0  0  0  0  0
   39.8585   30.3247   46.7058 H   0  0  0  0  0  0  0  0  0  0  0  0
   40.4814   31.2432   43.6538 H   0  0  0  0  0  0  0  0  0  0  0  0
   41.8104   30.8972   44.3768 H   0  0  0  0  0  0  0  0  0  0  0  0
   41.0484   32.8383   46.3369 H   0  0  0  0  0  0  0  0  0  0  0  0
   39.8600   33.3555   45.4730 H   0  0  0  0  0  0  0  0  0  0  0  0
  1 11  1  0
  2  1  2  0
  3  2  1  0
  4  5  1  0
  4  3  2  0
  5  6  2  0
  6 17  1  0
  6  1  1  0
  7  8  2  0
  7 13  1  0
  9  8  1  0
 10  9  2  0
 11 10  1  0
 11 12  2  0
 12  7  1  0
 13 14  1  0
 13 16  1  0
 15 13  1  0
 18 19  1  0
 18 17  1  0
 19 17  1  0
  2 20  1  0
  3 21  1  0
  4 22  1  0
  5 23  1  0
  8 24  1  0
  9 25  1  0
 17 26  1  0
 18 27  1  0
 18 28  1  0
 19 29  1  0
 19 30  1  0
M  ISO  8  20  14  21  14  22  14  23  14  24  14  25  14  26  13  27  13
M  ISO  3  28  13  29  13  30  13
M  END
>  <minimizedAffinity>  (1) 
-6.13461447

>  <minimizedRMSD>  (1) 
1.3477

$$$$
