
     RDKit          3D

 43 46  0  0  1  0  0  0  0  0999 V2000
   37.4300   30.6450   48.0400 C   0  0  0  0  0  0  0  0  0  0  0  0
   36.1530   30.1250   47.8210 C   0  0  0  0  0  0  0  0  0  0  0  0
   35.6440   29.2810   48.8270 C   0  0  0  0  0  0  0  0  0  0  0  0
   36.4110   29.0140   49.9550 N   0  0  0  0  0  0  0  0  0  0  0  0
   37.6570   29.5550   50.1090 C   0  0  0  0  0  0  0  0  0  0  0  0
   38.1460   30.3540   49.1640 N   0  0  0  0  0  0  0  0  0  0  0  0
   34.3600   28.6930   48.7080 N   0  0  0  0  0  0  0  0  0  0  0  0
   34.0350   27.8680   47.6670 C   0  0  0  0  0  0  0  0  0  0  0  0
   32.7850   27.3110   47.5740 C   0  0  0  0  0  0  0  0  0  0  0  0
   31.8800   27.6000   48.5430 C   0  0  0  0  0  0  0  0  0  0  0  0
   30.7160   27.0990   48.4820 O   0  0  0  0  0  0  0  0  0  0  0  0
   32.1910   28.4110   49.5720 N   0  0  0  0  0  0  0  0  0  0  0  0
   33.4310   28.9390   49.6270 C   0  0  0  0  0  0  0  0  0  0  0  0
   33.6250   29.6890   50.6320 O   0  0  0  0  0  0  0  0  0  0  0  0
   37.9540   31.5470   46.9660 C   0  0  2  0  0  0  0  0  0  0  0  0
   38.3510   30.6940   45.7660 C   0  0  0  0  0  0  0  0  0  0  0  0
   39.8170   30.6520   45.5280 C   0  0  0  0  0  0  0  0  0  0  0  0
   40.4790   31.9920   45.4710 C   0  0  0  0  0  0  0  0  0  0  0  0
   39.9150   32.9800   46.4330 C   0  0  0  0  0  0  0  0  0  0  0  0
   39.0820   32.3190   47.5230 C   0  0  1  0  0  0  0  0  0  0  0  0
   38.5880   33.3640   48.4830 C   0  0  0  0  0  0  0  0  0  0  0  0
   39.1940   33.3570   49.8890 C   0  0  0  0  0  0  0  0  0  0  0  0
   39.5090   34.4740   48.8990 C   0  0  0  0  0  0  0  0  0  0  0  0
   35.5770   30.3611   46.9141 H   0  0  0  0  0  0  0  0  0  0  0  0
   38.2509   29.3314   51.0075 H   0  0  0  0  0  0  0  0  0  0  0  0
   34.7860   27.6481   46.8939 H   0  0  0  0  0  0  0  0  0  0  0  0
   32.5232   26.6478   46.7364 H   0  0  0  0  0  0  0  0  0  0  0  0
   31.4963   28.6238   50.3021 H   0  0  0  0  0  0  0  0  0  0  0  0
   37.1958   32.2650   46.6201 H   0  0  0  0  0  0  0  0  0  0  0  0
   37.9963   29.6668   45.9364 H   0  0  0  0  0  0  0  0  0  0  0  0
   37.8918   31.1518   44.8774 H   0  0  0  0  0  0  0  0  0  0  0  0
   40.2800   30.0753   46.3423 H   0  0  0  0  0  0  0  0  0  0  0  0
   39.9583   30.1930   44.5384 H   0  0  0  0  0  0  0  0  0  0  0  0
   41.5481   31.8610   45.6945 H   0  0  0  0  0  0  0  0  0  0  0  0
   40.3074   32.3926   44.4610 H   0  0  0  0  0  0  0  0  0  0  0  0
   40.7447   33.5266   46.9051 H   0  0  0  0  0  0  0  0  0  0  0  0
   39.2549   33.6565   45.8704 H   0  0  0  0  0  0  0  0  0  0  0  0
   39.7250   31.6047   48.0580 H   0  0  0  0  0  0  0  0  0  0  0  0
   37.5727   33.3341   48.0607 H   0  0  0  0  0  0  0  0  0  0  0  0
   38.5603   33.5571   50.7656 H   0  0  0  0  0  0  0  0  0  0  0  0
   39.7859   32.6466   50.4848 H   0  0  0  0  0  0  0  0  0  0  0  0
   40.5136   34.5470   48.4569 H   0  0  0  0  0  0  0  0  0  0  0  0
   39.4362   35.5713   48.9225 H   0  0  0  0  0  0  0  0  0  0  0  0
  1  6  1  0
  2  1  2  0
  2  3  1  0
  3  4  2  0
  4  5  1  0
  6  5  2  0
  7  3  1  0
  7 13  1  0
  8  7  1  0
  9  8  2  0
  9 10  1  0
 10 12  1  0
 11 10  2  0
 12 13  1  0
 13 14  2  0
 15 20  1  0
 15  1  1  0
 16 15  1  0
 17 16  1  0
 18 17  1  0
 18 19  1  0
 19 20  1  0
 20 21  1  0
 21 23  1  0
 21 22  1  0
 23 22  1  0
  2 24  1  0
  5 25  1  0
  8 26  1  0
  9 27  1  0
 12 28  1  0
 15 29  1  6
 16 30  1  0
 16 31  1  0
 17 32  1  0
 17 33  1  0
 18 34  1  0
 18 35  1  0
 19 36  1  0
 19 37  1  0
 20 38  1  1
 21 39  1  0
 22 40  1  0
 22 41  1  0
 23 42  1  0
 23 43  1  0
M  ISO  8  24  14  25  14  26  14  27  14  28   9  29  13  30  13  31  13
M  ISO  8  32  13  33  13  34  13  35  13  36  13  37  13  38  13  39  13
M  ISO  4  40  13  41  13  42  13  43  13
M  END
>  <minimizedAffinity>  (1) 
-7.16568518

>  <minimizedRMSD>  (1) 
5.25425005

$$$$
