
     RDKit          3D

 44 48  0  0  1  0  0  0  0  0999 V2000
   39.0060   32.0210   47.4190 C   0  0  1  0  0  0  0  0  0  0  0  0
   37.5900   30.8010   50.6050 C   0  0  0  0  0  0  0  0  0  0  0  0
   38.3480   31.4420   49.6540 C   0  0  0  0  0  0  0  0  0  0  0  0
   38.0570   31.3790   48.2840 C   0  0  0  0  0  0  0  0  0  0  0  0
   37.0150   30.6800   47.9330 N   0  0  0  0  0  0  0  0  0  0  0  0
   36.2610   30.0440   48.8880 C   0  0  0  0  0  0  0  0  0  0  0  0
   36.5400   30.1020   50.1850 N   0  0  0  0  0  0  0  0  0  0  0  0
   35.0770   29.2780   48.5110 C   0  0  0  0  0  0  0  0  0  0  0  0
   34.5360   28.1240   49.0290 C   0  0  0  0  0  0  0  0  0  0  0  0
   33.4080   27.6050   48.5170 C   0  0  0  0  0  0  0  0  0  0  0  0
   32.8450   28.3130   47.4470 C   0  0  0  0  0  0  0  0  0  0  0  0
   33.9820   29.7270   47.2100 S   0  0  0  0  0  0  0  0  0  0  0  0
   31.6510   28.1340   46.5900 C   0  0  0  0  0  0  0  0  0  0  0  0
   30.2970   28.5440   47.1300 C   0  0  0  0  0  0  0  0  0  0  0  0
   30.9980   29.3700   46.1280 C   0  0  0  0  0  0  0  0  0  0  0  0
   39.2280   31.3820   46.0650 C   0  0  2  0  0  0  0  0  0  0  0  0
   40.7400   31.1950   45.9150 C   0  0  0  0  0  0  0  0  0  0  0  0
   39.9410   32.0900   45.0310 C   0  0  1  0  0  0  0  0  0  0  0  0
   39.9910   31.7070   43.6140 C   0  0  0  0  0  0  0  0  0  0  0  0
   39.3620   32.5240   42.7110 C   0  0  0  0  0  0  0  0  0  0  0  0
   39.4450   32.1610   41.3910 C   0  0  0  0  0  0  0  0  0  0  0  0
   40.1180   31.0360   40.9520 C   0  0  0  0  0  0  0  0  0  0  0  0
   40.7370   30.2400   41.8890 C   0  0  0  0  0  0  0  0  0  0  0  0
   40.6650   30.5820   43.1890 N   0  0  0  0  0  0  0  0  0  0  0  0
   39.1800   33.3150   47.4260 O   0  0  0  0  0  0  0  0  0  0  0  0
   39.8578   31.7490   48.0597 H   0  0  0  0  0  0  0  0  0  0  0  0
   37.8428   30.8641   51.6737 H   0  0  0  0  0  0  0  0  0  0  0  0
   39.2190   32.0287   49.9815 H   0  0  0  0  0  0  0  0  0  0  0  0
   35.0327   27.6209   49.8717 H   0  0  0  0  0  0  0  0  0  0  0  0
   32.9554   26.6836   48.9122 H   0  0  0  0  0  0  0  0  0  0  0  0
   32.0464   27.2177   46.1274 H   0  0  0  0  0  0  0  0  0  0  0  0
   29.3956   27.9798   46.8485 H   0  0  0  0  0  0  0  0  0  0  0  0
   29.8715   28.7173   48.1295 H   0  0  0  0  0  0  0  0  0  0  0  0
   31.4115   30.3466   46.4199 H   0  0  0  0  0  0  0  0  0  0  0  0
   30.7276   29.7715   45.1402 H   0  0  0  0  0  0  0  0  0  0  0  0
   38.2828   30.8221   46.0088 H   0  0  0  0  0  0  0  0  0  0  0  0
   41.4312   31.6176   46.6591 H   0  0  0  0  0  0  0  0  0  0  0  0
   41.4263   30.3466   45.7761 H   0  0  0  0  0  0  0  0  0  0  0  0
   39.8815   33.1542   44.7591 H   0  0  0  0  0  0  0  0  0  0  0  0
   38.8179   33.4256   43.0290 H   0  0  0  0  0  0  0  0  0  0  0  0
   38.9505   32.7980   40.6429 H   0  0  0  0  0  0  0  0  0  0  0  0
   40.1578   30.7836   39.8821 H   0  0  0  0  0  0  0  0  0  0  0  0
   41.2831   29.3366   41.5797 H   0  0  0  0  0  0  0  0  0  0  0  0
   39.2233   33.6371   48.3611 H   0  0  0  0  0  0  0  0  0  0  0  0
  1 25  1  0
  1  4  1  0
  3  2  2  0
  4  3  1  0
  5  4  2  0
  5  6  1  0
  6  7  2  0
  7  2  1  0
  8  6  1  0
  8  9  2  0
 10  9  1  0
 11 10  2  0
 12 11  1  0
 12  8  1  0
 13 14  1  0
 13 11  1  0
 15 13  1  0
 15 14  1  0
 16  1  1  0
 17 16  1  0
 18 17  1  0
 18 16  1  0
 19 18  1  0
 20 19  2  0
 21 20  1  0
 22 21  2  0
 22 23  1  0
 23 24  2  0
 24 19  1  0
  1 26  1  1
  2 27  1  0
  3 28  1  0
  9 29  1  0
 10 30  1  0
 13 31  1  0
 14 32  1  0
 14 33  1  0
 15 34  1  0
 15 35  1  0
 16 36  1  6
 17 37  1  0
 17 38  1  0
 18 39  1  6
 20 40  1  0
 21 41  1  0
 22 42  1  0
 23 43  1  0
 25 44  1  0
M  ISO  8  26   8  27  14  28  14  29  14  30  14  31  13  32  13  33  13
M  ISO  8  34  13  35  13  36  13  37  13  38  13  39  13  40  14  41  14
M  ISO  3  42  14  43  14  44   3
M  END
>  <minimizedAffinity>  (1) 
-6.49069881

>  <minimizedRMSD>  (1) 
0.631304204

$$$$
