
     RDKit          3D

 32 34  0  0  0  0  0  0  0  0999 V2000
   36.8600   29.9490   48.4590 N   0  0  0  0  0  0  0  0  0  0  0  0
   37.5380   30.0530   49.7250 C   0  0  0  0  0  0  0  0  0  0  0  0
   38.2620   31.2810   50.0200 C   0  0  0  0  0  0  0  0  0  0  0  0
   38.7530   32.1000   48.8890 C   0  0  0  0  0  0  0  0  0  0  0  0
   37.9950   31.9060   47.5970 C   0  0  0  0  0  0  0  0  0  0  0  0
   37.7410   30.4200   47.4080 C   0  0  0  0  0  0  0  0  0  0  0  0
   35.5440   29.4650   48.2700 C   0  0  0  0  0  0  0  0  0  0  0  0
   34.6870   29.8560   47.2460 C   0  0  0  0  0  0  0  0  0  0  0  0
   33.4180   29.3010   47.1730 C   0  0  0  0  0  0  0  0  0  0  0  0
   33.0730   28.3800   48.1320 N   0  0  0  0  0  0  0  0  0  0  0  0
   33.9290   28.0230   49.1130 C   0  0  0  0  0  0  0  0  0  0  0  0
   35.1420   28.5600   49.1750 N   0  0  0  0  0  0  0  0  0  0  0  0
   38.7000   33.5800   49.2640 C   0  0  0  0  0  0  0  0  0  0  0  0
   39.7950   34.4800   48.7110 C   0  0  0  0  0  0  0  0  0  0  0  0
   39.6790   34.1790   50.1750 C   0  0  0  0  0  0  0  0  0  0  0  0
   36.7803   29.9243   50.5120 H   0  0  0  0  0  0  0  0  0  0  0  0
   38.3199   29.2806   49.6791 H   0  0  0  0  0  0  0  0  0  0  0  0
   37.5917   31.9182   50.6155 H   0  0  0  0  0  0  0  0  0  0  0  0
   39.1786   30.9392   50.5231 H   0  0  0  0  0  0  0  0  0  0  0  0
   39.7829   31.7595   48.7061 H   0  0  0  0  0  0  0  0  0  0  0  0
   37.0365   32.4436   47.6444 H   0  0  0  0  0  0  0  0  0  0  0  0
   38.5803   32.2996   46.7529 H   0  0  0  0  0  0  0  0  0  0  0  0
   37.2698   30.2490   46.4289 H   0  0  0  0  0  0  0  0  0  0  0  0
   38.6946   29.8736   47.4529 H   0  0  0  0  0  0  0  0  0  0  0  0
   35.0126   30.5978   46.5019 H   0  0  0  0  0  0  0  0  0  0  0  0
   32.7145   29.5875   46.3773 H   0  0  0  0  0  0  0  0  0  0  0  0
   33.6198   27.2827   49.8656 H   0  0  0  0  0  0  0  0  0  0  0  0
   37.6003   33.5556   49.2541 H   0  0  0  0  0  0  0  0  0  0  0  0
   40.6188   34.0534   48.1199 H   0  0  0  0  0  0  0  0  0  0  0  0
   39.8321   35.3890   48.0927 H   0  0  0  0  0  0  0  0  0  0  0  0
   39.3632   34.9703   50.8708 H   0  0  0  0  0  0  0  0  0  0  0  0
   40.3679   33.7777   50.9329 H   0  0  0  0  0  0  0  0  0  0  0  0
  1  2  1  0
  2  3  1  0
  4 13  1  0
  4  3  1  0
  5  4  1  0
  6  5  1  0
  6  1  1  0
  7  1  1  0
  7 12  1  0
  8  7  2  0
  9  8  1  0
  9 10  2  0
 10 11  1  0
 11 12  2  0
 13 15  1  0
 14 13  1  0
 14 15  1  0
  2 16  1  0
  2 17  1  0
  3 18  1  0
  3 19  1  0
  4 20  1  0
  5 21  1  0
  5 22  1  0
  6 23  1  0
  6 24  1  0
  8 25  1  0
  9 26  1  0
 11 27  1  0
 13 28  1  0
 14 29  1  0
 14 30  1  0
 15 31  1  0
 15 32  1  0
M  ISO  8  16  13  17  13  18  13  19  13  20  13  21  13  22  13  23  13
M  ISO  8  24  13  25  14  26  14  27  14  28  13  29  13  30  13  31  13
M  ISO  1  32  13
M  END
>  <minimizedAffinity>  (1) 
-5.23182487

>  <minimizedRMSD>  (1) 
1.14994693

$$$$
