
     RDKit          3D

 29 31  0  0  0  0  0  0  0  0999 V2000
   38.3460   31.5440   47.3040 C   0  0  0  0  0  0  0  0  0  0  0  0
   37.4320   31.4960   48.3450 C   0  0  0  0  0  0  0  0  0  0  0  0
   37.5540   32.5330   49.2550 C   0  0  0  0  0  0  0  0  0  0  0  0
   38.5180   33.5330   49.1280 C   0  0  0  0  0  0  0  0  0  0  0  0
   39.3930   33.5000   48.0500 C   0  0  0  0  0  0  0  0  0  0  0  0
   39.3100   32.4910   47.1240 C   0  0  0  0  0  0  0  0  0  0  0  0
   35.3460   30.4360   47.6160 C   0  0  0  0  0  0  0  0  0  0  0  0
   36.4430   30.4750   48.4820 C   0  0  0  0  0  0  0  0  0  0  0  0
   36.5210   29.4910   49.4590 C   0  0  0  0  0  0  0  0  0  0  0  0
   35.5370   28.5480   49.5300 N   0  0  0  0  0  0  0  0  0  0  0  0
   34.4900   28.5550   48.6620 C   0  0  0  0  0  0  0  0  0  0  0  0
   34.3950   29.4940   47.7100 N   0  0  0  0  0  0  0  0  0  0  0  0
   37.6730   29.4970   50.4030 C   0  0  0  0  0  0  0  0  0  0  0  0
   37.7560   28.5500   51.5320 C   0  0  0  0  0  0  0  0  0  0  0  0
   37.3570   30.0010   51.8160 C   0  0  0  0  0  0  0  0  0  0  0  0
   38.3170   30.5470   46.3240 O   0  0  0  0  0  0  0  0  0  0  0  0
   40.2000   32.4850   46.0560 O   0  0  0  0  0  0  0  0  0  0  0  0
   36.8640   32.5693   50.1109 H   0  0  0  0  0  0  0  0  0  0  0  0
   38.5845   34.3390   49.8736 H   0  0  0  0  0  0  0  0  0  0  0  0
   40.1550   34.2854   47.9382 H   0  0  0  0  0  0  0  0  0  0  0  0
   35.2597   31.2027   46.8319 H   0  0  0  0  0  0  0  0  0  0  0  0
   33.7122   27.7813   48.7421 H   0  0  0  0  0  0  0  0  0  0  0  0
   38.3804   29.7398   49.5964 H   0  0  0  0  0  0  0  0  0  0  0  0
   37.0087   27.7487   51.6292 H   0  0  0  0  0  0  0  0  0  0  0  0
   38.5359   27.8762   51.9165 H   0  0  0  0  0  0  0  0  0  0  0  0
   38.0522   30.6782   52.3338 H   0  0  0  0  0  0  0  0  0  0  0  0
   36.5126   30.5087   52.3051 H   0  0  0  0  0  0  0  0  0  0  0  0
   38.9644   30.5698   45.5753 H   0  0  0  0  0  0  0  0  0  0  0  0
   40.8809   33.1991   45.9751 H   0  0  0  0  0  0  0  0  0  0  0  0
  1  2  2  0
  2  8  1  0
  2  3  1  0
  4  3  2  0
  5  4  1  0
  6  1  1  0
  6  5  2  0
  7 12  2  0
  7  8  1  0
  8  9  2  0
  9 10  1  0
  9 13  1  0
 11 10  2  0
 12 11  1  0
 13 14  1  0
 13 15  1  0
 14 15  1  0
 16  1  1  0
 17  6  1  0
  3 18  1  0
  4 19  1  0
  5 20  1  0
  7 21  1  0
 11 22  1  0
 13 23  1  0
 14 24  1  0
 14 25  1  0
 15 26  1  0
 15 27  1  0
 16 28  1  0
 17 29  1  0
M  ISO  8  18  14  19  14  20  14  21  14  22  14  23  13  24  13  25  13
M  ISO  4  26  13  27  13  28   3  29   3
M  END
>  <minimizedAffinity>  (1) 
-5.76723003

>  <minimizedRMSD>  (1) 
1.94112325

$$$$
