
     RDKit          3D

 27 29  0  0  0  0  0  0  0  0999 V2000
   38.7600   32.3710   48.5120 Cl  0  0  0  0  0  0  0  0  0  0  0  0
   37.9750   31.7750   47.0800 C   0  0  0  0  0  0  0  0  0  0  0  0
   36.9720   30.8750   47.3190 C   0  0  0  0  0  0  0  0  0  0  0  0
   36.2830   30.3310   46.2180 C   0  0  0  0  0  0  0  0  0  0  0  0
   36.5970   30.6840   44.9370 C   0  0  0  0  0  0  0  0  0  0  0  0
   37.6120   31.5940   44.7220 C   0  0  0  0  0  0  0  0  0  0  0  0
   38.0160   32.0430   43.0910 Cl  0  0  0  0  0  0  0  0  0  0  0  0
   38.2900   32.1300   45.7990 C   0  0  0  0  0  0  0  0  0  0  0  0
   37.4040   29.7390   49.4730 C   0  0  0  0  0  0  0  0  0  0  0  0
   36.4740   30.3610   48.5920 C   0  0  0  0  0  0  0  0  0  0  0  0
   35.1300   30.4430   48.9980 C   0  0  0  0  0  0  0  0  0  0  0  0
   34.8050   29.9180   50.2160 N   0  0  0  0  0  0  0  0  0  0  0  0
   35.7240   29.3320   51.0270 C   0  0  0  0  0  0  0  0  0  0  0  0
   37.0210   29.2430   50.6530 N   0  0  0  0  0  0  0  0  0  0  0  0
   39.3420   33.0910   45.4980 C   0  0  0  0  0  0  0  0  0  0  0  0
   40.7490   32.4040   45.5160 C   0  0  0  0  0  0  0  0  0  0  0  0
   40.2020   33.1460   44.3300 C   0  0  0  0  0  0  0  0  0  0  0  0
   35.4745   29.6061   46.3937 H   0  0  0  0  0  0  0  0  0  0  0  0
   36.0487   30.2492   44.0883 H   0  0  0  0  0  0  0  0  0  0  0  0
   38.4605   29.6653   49.1756 H   0  0  0  0  0  0  0  0  0  0  0  0
   34.3686   30.9127   48.3580 H   0  0  0  0  0  0  0  0  0  0  0  0
   35.4097   28.9250   51.9994 H   0  0  0  0  0  0  0  0  0  0  0  0
   38.7529   33.9040   45.9475 H   0  0  0  0  0  0  0  0  0  0  0  0
   41.5713   32.8281   46.1109 H   0  0  0  0  0  0  0  0  0  0  0  0
   41.1428   31.3963   45.7149 H   0  0  0  0  0  0  0  0  0  0  0  0
   39.9202   32.5849   43.4268 H   0  0  0  0  0  0  0  0  0  0  0  0
   40.5868   33.9736   43.7159 H   0  0  0  0  0  0  0  0  0  0  0  0
  2  3  2  0
  2  1  1  0
  3 10  1  0
  4  3  1  0
  5  4  2  0
  6  5  1  0
  6  8  2  0
  7  6  1  0
  8  2  1  0
  9 14  2  0
 10 11  2  0
 10  9  1  0
 11 12  1  0
 12 13  2  0
 14 13  1  0
 15 16  1  0
 15  8  1  0
 17 15  1  0
 17 16  1  0
  4 18  1  0
  5 19  1  0
  9 20  1  0
 11 21  1  0
 13 22  1  0
 15 23  1  0
 16 24  1  0
 16 25  1  0
 17 26  1  0
 17 27  1  0
M  ISO  8  18  14  19  14  20  14  21  14  22  14  23  13  24  13  25  13
M  ISO  2  26  13  27  13
M  END
>  <minimizedAffinity>  (1) 
-5.43915892

>  <minimizedRMSD>  (1) 
1.94791114

$$$$
