
     RDKit          3D

 44 48  0  0  1  0  0  0  0  0999 V2000
   35.8710   30.1700   46.9710 C   0  0  0  0  0  0  0  0  0  0  0  0
   36.8820   30.6260   47.8150 C   0  0  0  0  0  0  0  0  0  0  0  0
   37.9330   31.3980   47.3260 C   0  0  0  0  0  0  0  0  0  0  0  0
   37.9170   31.6860   45.9650 C   0  0  0  0  0  0  0  0  0  0  0  0
   38.8220   32.4180   45.2530 N   0  0  0  0  0  0  0  0  0  0  0  0
   38.3900   32.4250   43.9820 C   0  0  0  0  0  0  0  0  0  0  0  0
   37.2710   31.7340   43.8880 N   0  0  0  0  0  0  0  0  0  0  0  0
   36.9360   31.2550   45.0970 C   0  0  0  0  0  0  0  0  0  0  0  0
   35.8920   30.4800   45.6210 C   0  0  0  0  0  0  0  0  0  0  0  0
   37.5690   30.1250   51.4740 C   0  0  0  0  0  0  0  0  0  0  0  0
   37.7730   30.5250   50.1630 C   0  0  0  0  0  0  0  0  0  0  0  0
   36.7930   30.2630   49.2130 C   0  0  0  0  0  0  0  0  0  0  0  0
   35.6690   29.6150   49.6400 N   0  0  0  0  0  0  0  0  0  0  0  0
   35.4790   29.2310   50.9160 C   0  0  0  0  0  0  0  0  0  0  0  0
   36.4080   29.4810   51.8110 N   0  0  0  0  0  0  0  0  0  0  0  0
   39.0800   33.0900   42.9660 O   0  0  0  0  0  0  0  0  0  0  0  0
   39.0170   30.9470   42.1420 N   0  0  0  0  0  0  0  0  0  0  0  0
   39.4300   32.2930   41.8460 C   0  0  1  0  0  0  0  0  0  0  0  0
   38.7830   32.7770   40.6340 C   0  0  0  0  0  0  0  0  0  0  0  0
   39.1900   31.9720   39.5570 O   0  0  0  0  0  0  0  0  0  0  0  0
   38.9820   30.6330   39.7150 C   0  0  0  0  0  0  0  0  0  0  0  0
   39.4640   30.1230   41.0570 C   0  0  1  0  0  0  0  0  0  0  0  0
   40.9690   30.0050   41.0220 C   0  0  0  0  0  0  0  0  0  0  0  0
   41.6560   29.1860   42.0650 C   0  0  0  0  0  0  0  0  0  0  0  0
   41.5520   28.6450   40.6860 C   0  0  0  0  0  0  0  0  0  0  0  0
   35.0515   29.5603   47.3793 H   0  0  0  0  0  0  0  0  0  0  0  0
   38.7362   31.7621   47.9835 H   0  0  0  0  0  0  0  0  0  0  0  0
   39.6695   32.8751   45.6186 H   0  0  0  0  0  0  0  0  0  0  0  0
   35.0900   30.1183   44.9607 H   0  0  0  0  0  0  0  0  0  0  0  0
   38.3343   30.3233   52.2389 H   0  0  0  0  0  0  0  0  0  0  0  0
   38.6999   31.0439   49.8775 H   0  0  0  0  0  0  0  0  0  0  0  0
   34.5537   28.7122   51.2071 H   0  0  0  0  0  0  0  0  0  0  0  0
   39.4442   30.6320   43.0247 H   0  0  0  0  0  0  0  0  0  0  0  0
   40.5140   32.3389   41.6650 H   0  0  0  0  0  0  0  0  0  0  0  0
   37.6905   32.7185   40.7484 H   0  0  0  0  0  0  0  0  0  0  0  0
   39.0661   33.8237   40.4490 H   0  0  0  0  0  0  0  0  0  0  0  0
   37.9042   30.4312   39.6279 H   0  0  0  0  0  0  0  0  0  0  0  0
   39.5566   30.1123   38.9348 H   0  0  0  0  0  0  0  0  0  0  0  0
   39.0271   29.1300   41.2389 H   0  0  0  0  0  0  0  0  0  0  0  0
   41.0836   31.0324   40.6460 H   0  0  0  0  0  0  0  0  0  0  0  0
   42.6339   29.5056   42.4544 H   0  0  0  0  0  0  0  0  0  0  0  0
   41.3750   28.8145   43.0615 H   0  0  0  0  0  0  0  0  0  0  0  0
   40.8847   27.7961   40.4761 H   0  0  0  0  0  0  0  0  0  0  0  0
   42.2670   28.2654   39.9412 H   0  0  0  0  0  0  0  0  0  0  0  0
  1  2  2  0
  2 12  1  0
  3  2  1  0
  4  3  2  0
  5  4  1  0
  6  5  1  0
  7  6  2  0
  7  8  1  0
  8  9  2  0
  8  4  1  0
  9  1  1  0
 10 15  2  0
 11 10  1  0
 12 13  1  0
 12 11  2  0
 13 14  2  0
 14 15  1  0
 16  6  1  0
 18 17  1  0
 18 16  1  0
 19 18  1  0
 20 21  1  0
 20 19  1  0
 21 22  1  0
 22 17  1  0
 23 22  1  0
 23 24  1  0
 25 23  1  0
 25 24  1  0
  1 26  1  0
  3 27  1  0
  5 28  1  0
  9 29  1  0
 10 30  1  0
 11 31  1  0
 14 32  1  0
 17 33  1  0
 18 34  1  6
 19 35  1  0
 19 36  1  0
 21 37  1  0
 21 38  1  0
 22 39  1  1
 23 40  1  0
 24 41  1  0
 24 42  1  0
 25 43  1  0
 25 44  1  0
M  ISO  8  26  14  27  14  28   9  29  14  30  14  31  14  32  14  33   5
M  ISO  8  34  13  35  13  36  13  37  13  38  13  39  13  40  13  41  13
M  ISO  3  42  13  43  13  44  13
M  END
>  <minimizedAffinity>  (1) 
-5.68708563

>  <minimizedRMSD>  (1) 
1.73683429

$$$$
