
     RDKit          3D

 19 20  0  0  0  0  0  0  0  0999 V2000
   37.1460   29.5680   51.3840 C   0  0  0  0  0  0  0  0  0  0  0  0
   37.7490   30.7270   50.8590 C   0  0  0  0  0  0  0  0  0  0  0  0
   36.9960   31.4920   49.9490 C   0  0  0  0  0  0  0  0  0  0  0  0
   35.7350   31.0670   49.6330 N   0  0  0  0  0  0  0  0  0  0  0  0
   35.2050   29.9550   50.1620 C   0  0  0  0  0  0  0  0  0  0  0  0
   35.9020   29.1940   51.0420 N   0  0  0  0  0  0  0  0  0  0  0  0
   33.8790   29.6250   49.7470 N   0  0  0  0  0  0  0  0  0  0  0  0
   37.5410   32.7350   49.3350 C   0  0  0  0  0  0  0  0  0  0  0  0
   38.5290   32.5480   48.1690 C   0  0  0  0  0  0  0  0  0  0  0  0
   38.9510   33.0950   49.4840 C   0  0  0  0  0  0  0  0  0  0  0  0
   37.7113   28.9494   52.0966 H   0  0  0  0  0  0  0  0  0  0  0  0
   38.7681   31.0227   51.1486 H   0  0  0  0  0  0  0  0  0  0  0  0
   33.4177   28.7824   50.1187 H   0  0  0  0  0  0  0  0  0  0  0  0
   33.3839   30.2296   49.0760 H   0  0  0  0  0  0  0  0  0  0  0  0
   36.5999   33.2738   49.5197 H   0  0  0  0  0  0  0  0  0  0  0  0
   38.8406   31.5391   47.8606 H   0  0  0  0  0  0  0  0  0  0  0  0
   38.5862   32.8769   47.1209 H   0  0  0  0  0  0  0  0  0  0  0  0
   39.2338   34.1550   49.5641 H   0  0  0  0  0  0  0  0  0  0  0  0
   39.7336   32.8191   50.2061 H   0  0  0  0  0  0  0  0  0  0  0  0
  2  1  2  0
  3  2  1  0
  4  3  2  0
  4  5  1  0
  5  6  2  0
  6  1  1  0
  7  5  1  0
  8 10  1  0
  8  3  1  0
  9  8  1  0
  9 10  1  0
  1 11  1  0
  2 12  1  0
  7 13  1  0
  7 14  1  0
  8 15  1  0
  9 16  1  0
  9 17  1  0
 10 18  1  0
 10 19  1  0
M  ISO  7  11  14  12  14  15  13  16  13  17  13  18  13  19  13
M  END
>  <minimizedAffinity>  (1) 
-4.4705615

>  <minimizedRMSD>  (1) 
1.9618938

$$$$
