
     RDKit          3D

 30 33  0  0  0  0  0  0  0  0999 V2000
   35.9190   29.2190   49.5250 C   0  0  0  0  0  0  0  0  0  0  0  0
   35.8560   30.2250   48.5760 C   0  0  0  0  0  0  0  0  0  0  0  0
   34.7990   30.2870   47.7060 C   0  0  0  0  0  0  0  0  0  0  0  0
   33.7790   29.3540   47.7560 C   0  0  0  0  0  0  0  0  0  0  0  0
   32.6470   29.1990   47.0170 N   0  0  0  0  0  0  0  0  0  0  0  0
   32.0670   28.1020   47.5520 C   0  0  0  0  0  0  0  0  0  0  0  0
   32.8030   27.6010   48.5700 N   0  0  0  0  0  0  0  0  0  0  0  0
   33.8860   28.3760   48.7140 C   0  0  0  0  0  0  0  0  0  0  0  0
   34.9170   28.2660   49.6070 C   0  0  0  0  0  0  0  0  0  0  0  0
   38.1040   32.9970   49.4510 C   0  0  0  0  0  0  0  0  0  0  0  0
   38.9740   33.0450   48.3430 C   0  0  0  0  0  0  0  0  0  0  0  0
   38.7550   32.1000   47.3000 C   0  0  0  0  0  0  0  0  0  0  0  0
   37.7310   31.2060   47.4180 N   0  0  0  0  0  0  0  0  0  0  0  0
   36.9300   31.2120   48.5110 C   0  0  0  0  0  0  0  0  0  0  0  0
   37.1190   32.0910   49.4990 N   0  0  0  0  0  0  0  0  0  0  0  0
   39.6080   32.0680   46.1020 C   0  0  0  0  0  0  0  0  0  0  0  0
   40.2700   33.2520   45.5370 C   0  0  0  0  0  0  0  0  0  0  0  0
   39.0200   32.7250   44.8750 C   0  0  0  0  0  0  0  0  0  0  0  0
   36.7712   29.1761   50.2192 H   0  0  0  0  0  0  0  0  0  0  0  0
   34.7611   31.0911   46.9563 H   0  0  0  0  0  0  0  0  0  0  0  0
   32.3118   29.7800   46.2353 H   0  0  0  0  0  0  0  0  0  0  0  0
   31.1167   27.6711   47.2037 H   0  0  0  0  0  0  0  0  0  0  0  0
   34.9486   27.4594   50.3542 H   0  0  0  0  0  0  0  0  0  0  0  0
   38.2348   33.7074   50.2806 H   0  0  0  0  0  0  0  0  0  0  0  0
   39.7886   33.7820   48.2861 H   0  0  0  0  0  0  0  0  0  0  0  0
   40.0105   31.0882   46.3986 H   0  0  0  0  0  0  0  0  0  0  0  0
   40.2400   34.2077   46.0809 H   0  0  0  0  0  0  0  0  0  0  0  0
   41.2906   33.4756   45.1928 H   0  0  0  0  0  0  0  0  0  0  0  0
   38.0766   33.2863   44.9444 H   0  0  0  0  0  0  0  0  0  0  0  0
   38.7428   32.3976   43.8621 H   0  0  0  0  0  0  0  0  0  0  0  0
  1  9  2  0
  2  1  1  0
  3  4  1  0
  3  2  2  0
  4  8  2  0
  5  6  1  0
  5  4  1  0
  6  7  2  0
  7  8  1  0
  8  9  1  0
 10 15  2  0
 11 10  1  0
 12 13  1  0
 12 11  2  0
 13 14  2  0
 14  2  1  0
 14 15  1  0
 16 12  1  0
 17 16  1  0
 18 17  1  0
 18 16  1  0
  1 19  1  0
  3 20  1  0
  5 21  1  0
  6 22  1  0
  9 23  1  0
 10 24  1  0
 11 25  1  0
 16 26  1  0
 17 27  1  0
 17 28  1  0
 18 29  1  0
 18 30  1  0
M  ISO  8  19  14  20  14  21   9  22  14  23  14  24  14  25  14  26  13
M  ISO  4  27  13  28  13  29  13  30  13
M  END
>  <minimizedAffinity>  (1) 
-6.35334826

>  <minimizedRMSD>  (1) 
2.13555312

$$$$
