
     RDKit          3D

 40 42  0  0  1  0  0  0  0  0999 V2000
   39.3820   32.0930   47.0800 C   0  0  2  0  0  0  0  0  0  0  0  0
   39.9020   33.3060   46.3830 C   0  0  0  0  0  0  0  0  0  0  0  0
   40.3970   32.9250   45.0220 C   0  0  0  0  0  0  0  0  0  0  0  0
   40.8480   31.5190   44.9130 C   0  0  0  0  0  0  0  0  0  0  0  0
   39.8730   30.4680   45.3120 C   0  0  0  0  0  0  0  0  0  0  0  0
   38.7610   31.1290   46.1230 C   0  0  2  0  0  0  0  0  0  0  0  0
   37.6770   31.6310   45.2400 C   0  0  0  0  0  0  0  0  0  0  0  0
   36.4720   30.6380   45.1780 C   0  0  0  0  0  0  0  0  0  0  0  0
   37.2560   30.9340   43.9970 C   0  0  0  0  0  0  0  0  0  0  0  0
   38.1960   32.5630   48.3390 S   0  0  0  0  0  0  0  0  0  0  0  0
   38.3520   31.6380   49.8800 C   0  0  0  0  0  0  0  0  0  0  0  0
   38.1740   30.1700   49.5920 C   0  0  0  0  0  0  0  0  0  0  0  0
   34.8230   29.1710   50.9280 C   0  0  0  0  0  0  0  0  0  0  0  0
   36.1600   29.5740   50.8770 C   0  0  0  0  0  0  0  0  0  0  0  0
   36.7850   29.7410   49.6790 C   0  0  0  0  0  0  0  0  0  0  0  0
   36.0660   29.5010   48.5350 N   0  0  0  0  0  0  0  0  0  0  0  0
   34.7880   29.1160   48.6070 C   0  0  0  0  0  0  0  0  0  0  0  0
   34.1430   28.9430   49.7690 N   0  0  0  0  0  0  0  0  0  0  0  0
   40.2368   31.5894   47.5552 H   0  0  0  0  0  0  0  0  0  0  0  0
   39.0951   34.0473   46.2856 H   0  0  0  0  0  0  0  0  0  0  0  0
   40.7283   33.7385   46.9663 H   0  0  0  0  0  0  0  0  0  0  0  0
   39.5810   33.0826   44.3013 H   0  0  0  0  0  0  0  0  0  0  0  0
   41.2744   33.5558   44.8162 H   0  0  0  0  0  0  0  0  0  0  0  0
   41.1213   31.3378   43.8630 H   0  0  0  0  0  0  0  0  0  0  0  0
   41.6785   31.4272   45.6284 H   0  0  0  0  0  0  0  0  0  0  0  0
   39.4480   29.9949   44.4145 H   0  0  0  0  0  0  0  0  0  0  0  0
   40.3736   29.6955   45.9143 H   0  0  0  0  0  0  0  0  0  0  0  0
   38.2200   30.4103   46.7560 H   0  0  0  0  0  0  0  0  0  0  0  0
   37.9143   32.6852   45.4459 H   0  0  0  0  0  0  0  0  0  0  0  0
   36.5446   29.6501   45.6564 H   0  0  0  0  0  0  0  0  0  0  0  0
   35.4051   30.6830   45.4419 H   0  0  0  0  0  0  0  0  0  0  0  0
   37.9043   30.1533   43.5726 H   0  0  0  0  0  0  0  0  0  0  0  0
   36.9924   31.2882   42.9895 H   0  0  0  0  0  0  0  0  0  0  0  0
   39.3478   31.8104   50.3142 H   0  0  0  0  0  0  0  0  0  0  0  0
   37.5840   31.9723   50.5931 H   0  0  0  0  0  0  0  0  0  0  0  0
   38.7654   29.5951   50.3198 H   0  0  0  0  0  0  0  0  0  0  0  0
   38.5109   29.9923   48.5601 H   0  0  0  0  0  0  0  0  0  0  0  0
   34.3220   29.0385   51.8983 H   0  0  0  0  0  0  0  0  0  0  0  0
   36.7113   29.7576   51.8110 H   0  0  0  0  0  0  0  0  0  0  0  0
   34.2410   28.9329   47.6703 H   0  0  0  0  0  0  0  0  0  0  0  0
  1 10  1  0
  2  1  1  0
  3  2  1  0
  4  3  1  0
  4  5  1  0
  5  6  1  0
  6  1  1  0
  7  6  1  0
  8  7  1  0
  9  8  1  0
  9  7  1  0
 10 11  1  0
 12 15  1  0
 12 11  1  0
 14 13  2  0
 15 14  1  0
 16 17  1  0
 16 15  2  0
 17 18  2  0
 18 13  1  0
  1 19  1  1
  2 20  1  0
  2 21  1  0
  3 22  1  0
  3 23  1  0
  4 24  1  0
  4 25  1  0
  5 26  1  0
  5 27  1  0
  6 28  1  1
  7 29  1  0
  8 30  1  0
  8 31  1  0
  9 32  1  0
  9 33  1  0
 11 34  1  0
 11 35  1  0
 12 36  1  0
 12 37  1  0
 13 38  1  0
 14 39  1  0
 17 40  1  0
M  ISO  8  19  13  20  13  21  13  22  13  23  13  24  13  25  13  26  13
M  ISO  8  27  13  28  13  29  13  30  13  31  13  32  13  33  13  34   8
M  ISO  6  35   8  36   8  37   8  38  14  39  14  40  14
M  END
>  <minimizedAffinity>  (1) 
-5.0391221

>  <minimizedRMSD>  (1) 
2.98905134

$$$$
