
     RDKit          3D

 27 29  0  0  0  0  0  0  0  0999 V2000
   37.4380   31.6960   48.4050 N   0  0  0  0  0  0  0  0  0  0  0  0
   37.4610   32.6220   49.3970 C   0  0  0  0  0  0  0  0  0  0  0  0
   38.4180   33.6450   49.3490 C   0  0  0  0  0  0  0  0  0  0  0  0
   39.2540   33.5840   48.2560 C   0  0  0  0  0  0  0  0  0  0  0  0
   40.1150   34.5210   48.2320 O   0  0  0  0  0  0  0  0  0  0  0  0
   39.2440   32.6800   47.2720 N   0  0  0  0  0  0  0  0  0  0  0  0
   38.3020   31.7180   47.3700 C   0  0  0  0  0  0  0  0  0  0  0  0
   38.2790   30.8630   46.4540 O   0  0  0  0  0  0  0  0  0  0  0  0
   36.6470   29.6260   49.3960 C   0  0  0  0  0  0  0  0  0  0  0  0
   36.4840   30.6320   48.4100 C   0  0  0  0  0  0  0  0  0  0  0  0
   35.4180   30.5090   47.5300 C   0  0  0  0  0  0  0  0  0  0  0  0
   34.5860   29.4480   47.6450 N   0  0  0  0  0  0  0  0  0  0  0  0
   34.7510   28.5020   48.5840 C   0  0  0  0  0  0  0  0  0  0  0  0
   35.7730   28.5880   49.4540 N   0  0  0  0  0  0  0  0  0  0  0  0
   37.7590   29.6640   50.3880 C   0  0  0  0  0  0  0  0  0  0  0  0
   37.7790   28.6330   51.4530 C   0  0  0  0  0  0  0  0  0  0  0  0
   37.3590   30.0200   51.7940 C   0  0  0  0  0  0  0  0  0  0  0  0
   36.7397   32.5705   50.2259 H   0  0  0  0  0  0  0  0  0  0  0  0
   38.4947   34.4284   50.1174 H   0  0  0  0  0  0  0  0  0  0  0  0
   39.9122   32.7149   46.4889 H   0  0  0  0  0  0  0  0  0  0  0  0
   35.2514   31.2649   46.7484 H   0  0  0  0  0  0  0  0  0  0  0  0
   34.0498   27.6564   48.6415 H   0  0  0  0  0  0  0  0  0  0  0  0
   38.4983   30.0227   49.6567 H   0  0  0  0  0  0  0  0  0  0  0  0
   37.0357   27.8222   51.4443 H   0  0  0  0  0  0  0  0  0  0  0  0
   38.5378   27.9377   51.8414 H   0  0  0  0  0  0  0  0  0  0  0  0
   38.0109   30.6586   52.4082 H   0  0  0  0  0  0  0  0  0  0  0  0
   36.4746   30.4757   52.2633 H   0  0  0  0  0  0  0  0  0  0  0  0
  1 10  1  0
  1  2  1  0
  3  2  2  0
  4  3  1  0
  5  4  2  0
  6  7  1  0
  6  4  1  0
  7  1  1  0
  8  7  2  0
  9 14  1  0
  9 15  1  0
 10  9  2  0
 11 12  2  0
 11 10  1  0
 12 13  1  0
 13 14  2  0
 15 16  1  0
 15 17  1  0
 16 17  1  0
  2 18  1  0
  3 19  1  0
  6 20  1  0
 11 21  1  0
 13 22  1  0
 15 23  1  0
 16 24  1  0
 16 25  1  0
 17 26  1  0
 17 27  1  0
M  ISO  8  18  14  19  14  20   9  21  14  22  14  23  13  24  13  25  13
M  ISO  2  26  13  27  13
M  END
>  <minimizedAffinity>  (1) 
-5.47078514

>  <minimizedRMSD>  (1) 
0.781869054

$$$$
