
     RDKit          3D

 24 25  0  0  0  0  0  0  0  0999 V2000
   37.7470   31.0950   47.9720 C   0  0  0  0  0  0  0  0  0  0  0  0
   37.1200   30.8630   46.7690 C   0  0  0  0  0  0  0  0  0  0  0  0
   37.8220   31.5300   45.7840 C   0  0  0  0  0  0  0  0  0  0  0  0
   38.8510   32.1470   46.4100 N   0  0  0  0  0  0  0  0  0  0  0  0
   38.8020   31.8850   47.7140 N   0  0  0  0  0  0  0  0  0  0  0  0
   37.3860   30.1400   51.5870 C   0  0  0  0  0  0  0  0  0  0  0  0
   37.9310   30.7180   50.4450 C   0  0  0  0  0  0  0  0  0  0  0  0
   37.2660   30.5360   49.2240 C   0  0  0  0  0  0  0  0  0  0  0  0
   36.1210   29.8010   49.2330 N   0  0  0  0  0  0  0  0  0  0  0  0
   35.6270   29.2540   50.3840 C   0  0  0  0  0  0  0  0  0  0  0  0
   36.2640   29.4300   51.5470 N   0  0  0  0  0  0  0  0  0  0  0  0
   39.8410   32.9670   45.7160 C   0  0  0  0  0  0  0  0  0  0  0  0
   40.3800   32.2120   44.5160 C   0  0  0  0  0  0  0  0  0  0  0  0
   39.5320   32.9430   43.0640 S   0  0  0  0  0  0  0  0  0  0  0  0
   36.2173   30.2528   46.6182 H   0  0  0  0  0  0  0  0  0  0  0  0
   37.5914   31.5547   44.7087 H   0  0  0  0  0  0  0  0  0  0  0  0
   37.8989   30.2748   52.5507 H   0  0  0  0  0  0  0  0  0  0  0  0
   38.8607   31.3034   50.4985 H   0  0  0  0  0  0  0  0  0  0  0  0
   34.6987   28.6647   50.3537 H   0  0  0  0  0  0  0  0  0  0  0  0
   39.3695   33.9017   45.3782 H   0  0  0  0  0  0  0  0  0  0  0  0
   40.6687   33.1978   46.4028 H   0  0  0  0  0  0  0  0  0  0  0  0
   41.4688   32.3456   44.4340 H   0  0  0  0  0  0  0  0  0  0  0  0
   40.1973   31.1302   44.5961 H   0  0  0  0  0  0  0  0  0  0  0  0
   38.5460   33.7929   43.4911 H   0  0  0  0  0  0  0  0  0  0  0  0
  1  8  1  0
  2  1  1  0
  3  4  1  0
  3  2  2  0
  4  5  1  0
  5  1  2  0
  7  6  2  0
  8  9  2  0
  8  7  1  0
  9 10  1  0
 10 11  2  0
 11  6  1  0
 12  4  1  0
 13 12  1  0
 14 13  1  0
  2 15  1  0
  3 16  1  0
  6 17  1  0
  7 18  1  0
 10 19  1  0
 12 20  1  0
 12 21  1  0
 13 22  1  0
 13 23  1  0
 14 24  1  0
M  ISO  8  15  14  16  14  17  14  18  14  19  14  20   8  21   8  22   8
M  ISO  2  23   8  24  11
M  END
>  <minimizedAffinity>  (1) 
-4.5224719

>  <minimizedRMSD>  (1) 
0.818141639

$$$$
