
     RDKit          3D

 29 31  0  0  0  0  0  0  0  0999 V2000
   37.4220   29.1890   50.8580 Br  0  0  0  0  0  0  0  0  0  0  0  0
   36.0110   29.2610   49.5710 C   0  0  0  0  0  0  0  0  0  0  0  0
   36.0060   30.2580   48.5840 C   0  0  0  0  0  0  0  0  0  0  0  0
   34.9560   30.2330   47.7040 C   0  0  0  0  0  0  0  0  0  0  0  0
   33.9300   29.3070   47.7300 C   0  0  0  0  0  0  0  0  0  0  0  0
   33.9750   28.3580   48.7030 C   0  0  0  0  0  0  0  0  0  0  0  0
   35.0120   28.3420   49.6130 C   0  0  0  0  0  0  0  0  0  0  0  0
   38.0010   33.1750   49.4480 C   0  0  0  0  0  0  0  0  0  0  0  0
   39.0250   33.1770   48.4570 C   0  0  0  0  0  0  0  0  0  0  0  0
   39.0070   32.1640   47.5040 C   0  0  0  0  0  0  0  0  0  0  0  0
   38.0150   31.2180   47.5580 N   0  0  0  0  0  0  0  0  0  0  0  0
   37.0580   31.2490   48.5150 C   0  0  0  0  0  0  0  0  0  0  0  0
   37.0540   32.2310   49.4630 N   0  0  0  0  0  0  0  0  0  0  0  0
   32.8290   29.3130   46.7750 C   0  0  0  0  0  0  0  0  0  0  0  0
   32.0660   28.2010   46.4700 C   0  0  0  0  0  0  0  0  0  0  0  0
   31.0250   28.2440   45.5540 C   0  0  0  0  0  0  0  0  0  0  0  0
   30.7430   29.3970   44.9420 N   0  0  0  0  0  0  0  0  0  0  0  0
   31.4740   30.4800   45.2280 C   0  0  0  0  0  0  0  0  0  0  0  0
   32.4700   30.4170   46.1120 N   0  0  0  0  0  0  0  0  0  0  0  0
   31.2190   32.0970   44.4920 S   0  0  0  0  0  0  0  0  0  0  0  0
   34.9275   31.0050   46.9209 H   0  0  0  0  0  0  0  0  0  0  0  0
   33.1808   27.5994   48.7648 H   0  0  0  0  0  0  0  0  0  0  0  0
   35.0300   27.5655   50.3919 H   0  0  0  0  0  0  0  0  0  0  0  0
   37.9893   33.9641   50.2143 H   0  0  0  0  0  0  0  0  0  0  0  0
   39.8038   33.9538   48.4461 H   0  0  0  0  0  0  0  0  0  0  0  0
   39.7765   32.1221   46.7190 H   0  0  0  0  0  0  0  0  0  0  0  0
   32.2924   27.2485   46.9714 H   0  0  0  0  0  0  0  0  0  0  0  0
   30.4390   27.3394   45.3345 H   0  0  0  0  0  0  0  0  0  0  0  0
   31.0716   33.0316   45.4828 H   0  0  0  0  0  0  0  0  0  0  0  0
  2  7  2  0
  2  1  1  0
  3  2  1  0
  4  5  1  0
  4  3  2  0
  5  6  2  0
  6  7  1  0
  8 13  2  0
  9  8  1  0
 10 11  1  0
 10  9  2  0
 11 12  2  0
 12  3  1  0
 12 13  1  0
 14  5  1  0
 15 14  2  0
 16 15  1  0
 17 18  1  0
 17 16  2  0
 18 19  2  0
 19 14  1  0
 20 18  1  0
  4 21  1  0
  6 22  1  0
  7 23  1  0
  8 24  1  0
  9 25  1  0
 10 26  1  0
 15 27  1  0
 16 28  1  0
 20 29  1  0
M  ISO  8  21  14  22  14  23  14  24  14  25  14  26  14  27  14  28  14
M  ISO  1  29  11
M  END
>  <minimizedAffinity>  (1) 
-6.01949167

>  <minimizedRMSD>  (1) 
0.154982775

$$$$
