
     RDKit          3D

 23 24  0  0  0  0  0  0  0  0999 V2000
   36.1360   29.7050   48.9640 C   0  0  0  0  0  0  0  0  0  0  0  0
   36.2440   29.7330   50.3550 C   0  0  0  0  0  0  0  0  0  0  0  0
   37.2450   30.4610   51.0060 C   0  0  0  0  0  0  0  0  0  0  0  0
   38.1680   31.1840   50.2540 C   0  0  0  0  0  0  0  0  0  0  0  0
   38.0440   31.1460   48.8700 C   0  0  0  0  0  0  0  0  0  0  0  0
   37.0540   30.4250   48.2450 C   0  0  0  0  0  0  0  0  0  0  0  0
   35.0580   28.9170   48.3780 C   0  0  0  0  0  0  0  0  0  0  0  0
   34.8300   27.8170   48.9830 O   0  0  0  0  0  0  0  0  0  0  0  0
   32.8830   30.9560   46.3140 C   0  0  0  0  0  0  0  0  0  0  0  0
   32.7860   30.2410   45.1120 C   0  0  0  0  0  0  0  0  0  0  0  0
   33.4740   29.0500   45.0120 C   0  0  0  0  0  0  0  0  0  0  0  0
   34.2180   28.6070   46.0690 N   0  0  0  0  0  0  0  0  0  0  0  0
   34.2880   29.3180   47.2060 C   0  0  0  0  0  0  0  0  0  0  0  0
   33.6230   30.4840   47.3200 N   0  0  0  0  0  0  0  0  0  0  0  0
   36.9480   30.4150   46.4810 S   0  0  0  0  0  0  0  0  0  0  0  0
   35.5198   29.1652   50.9577 H   0  0  0  0  0  0  0  0  0  0  0  0
   37.3030   30.4626   52.1045 H   0  0  0  0  0  0  0  0  0  0  0  0
   38.9669   31.7646   50.7383 H   0  0  0  0  0  0  0  0  0  0  0  0
   38.7606   31.7106   48.2554 H   0  0  0  0  0  0  0  0  0  0  0  0
   32.3472   31.9098   46.4287 H   0  0  0  0  0  0  0  0  0  0  0  0
   32.1801   30.6181   44.2749 H   0  0  0  0  0  0  0  0  0  0  0  0
   33.4241   28.4593   44.0854 H   0  0  0  0  0  0  0  0  0  0  0  0
   35.6370   30.2913   46.1030 H   0  0  0  0  0  0  0  0  0  0  0  0
  1  2  2  0
  2  3  1  0
  4  3  2  0
  5  4  1  0
  6  5  2  0
  6  1  1  0
  7  1  1  0
  7  8  2  0
  9 14  2  0
 10  9  1  0
 11 10  2  0
 11 12  1  0
 12 13  2  0
 13 14  1  0
 13  7  1  0
 15  6  1  0
  2 16  1  0
  3 17  1  0
  4 18  1  0
  5 19  1  0
  9 20  1  0
 10 21  1  0
 11 22  1  0
 15 23  1  0
M  ISO  8  16  14  17  14  18  14  19  14  20  14  21  14  22  14  23  11
M  END
>  <minimizedAffinity>  (1) 
-4.30575371

>  <minimizedRMSD>  (1) 
0.42734614

$$$$
