
     RDKit          3D

 12 12  0  0  0  0  0  0  0  0999 V2000
   36.7660   29.9750   51.0300 C   0  0  0  0  0  0  0  0  0  0  0  0
   36.9250   30.7880   49.9060 C   0  0  0  0  0  0  0  0  0  0  0  0
   35.8940   30.8260   48.9720 C   0  0  0  0  0  0  0  0  0  0  0  0
   34.7830   30.0700   49.2010 N   0  0  0  0  0  0  0  0  0  0  0  0
   34.6590   29.2870   50.3100 C   0  0  0  0  0  0  0  0  0  0  0  0
   35.6450   29.2510   51.2010 N   0  0  0  0  0  0  0  0  0  0  0  0
   37.8570   30.0260   51.8760 O   0  0  0  0  0  0  0  0  0  0  0  0
   38.3450   31.7750   49.5780 S   0  0  0  0  0  0  0  0  0  0  0  0
   35.9737   31.4512   48.0704 H   0  0  0  0  0  0  0  0  0  0  0  0
   33.7492   28.6890   50.4666 H   0  0  0  0  0  0  0  0  0  0  0  0
   38.6331   30.5973   51.6491 H   0  0  0  0  0  0  0  0  0  0  0  0
   38.9111   32.1684   50.7619 H   0  0  0  0  0  0  0  0  0  0  0  0
  1  6  2  0
  1  7  1  0
  2  1  1  0
  3  4  1  0
  3  2  2  0
  4  5  2  0
  5  6  1  0
  8  2  1  0
  3  9  1  0
  5 10  1  0
  7 11  1  0
  8 12  1  0
M  ISO  4   9  14  10  14  11   3  12  11
M  END
>  <minimizedAffinity>  (1) 
-3.33741808

>  <minimizedRMSD>  (1) 
1.17035592

$$$$
