
     RDKit          3D

 32 35  0  0  1  0  0  0  0  0999 V2000
   31.7470   27.6530   48.7750 C   0  0  0  0  0  0  0  0  0  0  0  0
   32.6790   26.9270   48.0720 C   0  0  0  0  0  0  0  0  0  0  0  0
   33.9190   27.5670   48.2050 C   0  0  0  0  0  0  0  0  0  0  0  0
   33.7090   28.6530   48.9750 N   0  0  0  0  0  0  0  0  0  0  0  0
   32.4410   28.6690   49.2840 N   0  0  0  0  0  0  0  0  0  0  0  0
   29.6310   27.3200   50.0930 C   0  0  0  0  0  0  0  0  0  0  0  0
   30.3510   27.3230   48.8830 C   0  0  0  0  0  0  0  0  0  0  0  0
   29.6370   26.9800   47.7430 C   0  0  0  0  0  0  0  0  0  0  0  0
   28.3180   26.6680   47.8350 N   0  0  0  0  0  0  0  0  0  0  0  0
   27.6870   26.6860   49.0350 C   0  0  0  0  0  0  0  0  0  0  0  0
   28.3440   27.0150   50.1800 N   0  0  0  0  0  0  0  0  0  0  0  0
   34.7080   29.6260   49.3840 C   0  0  1  0  0  0  0  0  0  0  0  0
   35.5600   29.2500   50.6430 C   0  0  0  0  0  0  0  0  0  0  0  0
   36.1390   29.2880   49.2760 C   0  0  2  0  0  0  0  0  0  0  0  0
   37.1180   30.3640   48.9240 C   0  0  0  0  0  0  0  0  0  0  0  0
   37.9240   30.3460   47.7750 C   0  0  0  0  0  0  0  0  0  0  0  0
   38.6810   31.4680   47.7840 N   0  0  0  0  0  0  0  0  0  0  0  0
   38.3630   32.1740   48.9050 C   0  0  0  0  0  0  0  0  0  0  0  0
   37.4170   31.5060   49.5940 N   0  0  0  0  0  0  0  0  0  0  0  0
   39.0300   33.7320   49.4550 S   0  0  0  0  0  0  0  0  0  0  0  0
   32.4855   26.0049   47.5043 H   0  0  0  0  0  0  0  0  0  0  0  0
   34.8756   27.2459   47.7670 H   0  0  0  0  0  0  0  0  0  0  0  0
   30.1659   27.5853   51.0168 H   0  0  0  0  0  0  0  0  0  0  0  0
   30.1395   26.9608   46.7647 H   0  0  0  0  0  0  0  0  0  0  0  0
   26.6187   26.4285   49.0839 H   0  0  0  0  0  0  0  0  0  0  0  0
   34.0921   30.4739   49.0495 H   0  0  0  0  0  0  0  0  0  0  0  0
   35.8288   30.0187   51.3825 H   0  0  0  0  0  0  0  0  0  0  0  0
   35.4906   28.5082   51.4523 H   0  0  0  0  0  0  0  0  0  0  0  0
   36.6990   28.5567   48.6747 H   0  0  0  0  0  0  0  0  0  0  0  0
   37.9379   29.5606   47.0050 H   0  0  0  0  0  0  0  0  0  0  0  0
   39.3733   31.7394   47.0712 H   0  0  0  0  0  0  0  0  0  0  0  0
   39.0440   33.7648   50.8245 H   0  0  0  0  0  0  0  0  0  0  0  0
  1  7  1  0
  1  5  2  0
  2  3  2  0
  2  1  1  0
  3  4  1  0
  4  5  1  0
  4 12  1  0
  6 11  2  0
  7  6  1  0
  8  9  1  0
  8  7  2  0
  9 10  2  0
 10 11  1  0
 12 13  1  0
 14 12  1  0
 14 13  1  0
 15 14  1  0
 15 19  1  0
 16 17  1  0
 16 15  2  0
 17 18  1  0
 18 20  1  0
 18 19  2  0
  2 21  1  0
  3 22  1  0
  6 23  1  0
  8 24  1  0
 10 25  1  0
 12 26  1  1
 13 27  1  0
 13 28  1  0
 14 29  1  6
 16 30  1  0
 17 31  1  0
 20 32  1  0
M  ISO  8  21  14  22  14  23  14  24  14  25  14  26  13  27  13  28  13
M  ISO  4  29  13  30  14  31   9  32  11
M  END
>  <minimizedAffinity>  (1) 
-5.54782581

>  <minimizedRMSD>  (1) 
2.5881691

$$$$
