
     RDKit          3D

 33 35  0  0  1  0  0  0  0  0999 V2000
   34.9310   30.2990   47.7680 C   0  0  0  0  0  0  0  0  0  0  0  0
   36.2340   30.8420   47.5240 C   0  0  0  0  0  0  0  0  0  0  0  0
   36.7400   30.7080   46.2300 C   0  0  0  0  0  0  0  0  0  0  0  0
   35.9910   30.0830   45.2820 N   0  0  0  0  0  0  0  0  0  0  0  0
   34.7680   29.5880   45.5580 C   0  0  0  0  0  0  0  0  0  0  0  0
   34.2490   29.6960   46.7850 N   0  0  0  0  0  0  0  0  0  0  0  0
   36.8610   31.4550   48.6390 N   0  0  0  0  0  0  0  0  0  0  0  0
   37.6120   32.6800   48.9360 C   0  0  0  0  0  0  0  0  0  0  0  0
   38.8420   32.1100   49.6550 C   0  0  0  0  0  0  0  0  0  0  0  0
   38.2820   30.9350   50.4350 C   0  0  0  0  0  0  0  0  0  0  0  0
   36.8460   30.8110   49.9570 C   0  0  2  0  0  0  0  0  0  0  0  0
   36.5100   29.0300   49.8290 S   0  0  0  0  0  0  0  0  0  0  0  0
   38.0420   31.2180   45.8720 C   0  0  0  0  0  0  0  0  0  0  0  0
   38.1160   32.4130   45.1970 C   0  0  0  0  0  0  0  0  0  0  0  0
   39.3080   32.9900   44.8070 C   0  0  0  0  0  0  0  0  0  0  0  0
   40.4650   32.2980   45.1310 C   0  0  0  0  0  0  0  0  0  0  0  0
   40.4750   31.0710   45.8190 C   0  0  0  0  0  0  0  0  0  0  0  0
   39.2170   30.5710   46.1690 C   0  0  0  0  0  0  0  0  0  0  0  0
   34.4866   30.3778   48.7711 H   0  0  0  0  0  0  0  0  0  0  0  0
   34.1909   29.0899   44.7650 H   0  0  0  0  0  0  0  0  0  0  0  0
   37.8941   33.2128   48.0159 H   0  0  0  0  0  0  0  0  0  0  0  0
   37.0505   33.4223   49.5223 H   0  0  0  0  0  0  0  0  0  0  0  0
   39.6008   31.7764   48.9319 H   0  0  0  0  0  0  0  0  0  0  0  0
   39.3452   32.8492   50.2955 H   0  0  0  0  0  0  0  0  0  0  0  0
   38.8461   30.0170   50.2135 H   0  0  0  0  0  0  0  0  0  0  0  0
   38.3493   31.0848   51.5227 H   0  0  0  0  0  0  0  0  0  0  0  0
   36.0824   31.2662   50.6049 H   0  0  0  0  0  0  0  0  0  0  0  0
   36.4087   28.4930   51.0853 H   0  0  0  0  0  0  0  0  0  0  0  0
   37.1787   32.9357   44.9555 H   0  0  0  0  0  0  0  0  0  0  0  0
   39.3383   33.9482   44.2676 H   0  0  0  0  0  0  0  0  0  0  0  0
   41.4303   32.7333   44.8330 H   0  0  0  0  0  0  0  0  0  0  0  0
   41.4075   30.5418   46.0645 H   0  0  0  0  0  0  0  0  0  0  0  0
   39.1656   29.6135   46.7081 H   0  0  0  0  0  0  0  0  0  0  0  0
  2  1  2  0
  2  7  1  0
  3  2  1  0
  4  5  1  0
  4  3  2  0
  5  6  2  0
  6  1  1  0
  7  8  1  0
  7 11  1  0
  8  9  1  0
  9 10  1  0
 11 10  1  0
 12 11  1  0
 13 18  1  0
 13  3  1  0
 14 13  2  0
 15 16  2  0
 15 14  1  0
 16 17  1  0
 17 18  2  0
  1 19  1  0
  5 20  1  0
  8 21  1  0
  8 22  1  0
  9 23  1  0
  9 24  1  0
 10 25  1  0
 10 26  1  0
 11 27  1  1
 12 28  1  0
 14 29  1  0
 15 30  1  0
 16 31  1  0
 17 32  1  0
 18 33  1  0
M  ISO  8  19  14  20  14  21  13  22  13  23  13  24  13  25  13  26  13
M  ISO  7  27  13  28  11  29  14  30  14  31  14  32  14  33  14
M  END
>  <minimizedAffinity>  (1) 
-5.52522469

>  <minimizedRMSD>  (1) 
0.195283532

$$$$
