
     RDKit          3D

 47 49  0  0  1  0  0  0  0  0999 V2000
   37.0620   30.9600   49.0820 C   0  0  0  0  0  0  0  0  0  0  0  0
   36.8140   31.8950   50.0890 C   0  0  0  0  0  0  0  0  0  0  0  0
   37.4370   33.1370   50.0960 C   0  0  0  0  0  0  0  0  0  0  0  0
   38.3330   33.4740   49.0820 C   0  0  0  0  0  0  0  0  0  0  0  0
   38.5610   32.5390   48.1060 C   0  0  0  0  0  0  0  0  0  0  0  0
   37.9330   31.3100   48.1150 C   0  0  0  0  0  0  0  0  0  0  0  0
   36.3680   29.6860   49.1490 C   0  0  0  0  0  0  0  0  0  0  0  0
   36.8880   28.8300   49.9580 O   0  0  0  0  0  0  0  0  0  0  0  0
   33.5980   30.1570   46.8550 C   0  0  0  0  0  0  0  0  0  0  0  0
   32.9420   28.9260   46.8610 C   0  0  0  0  0  0  0  0  0  0  0  0
   33.4520   27.9190   47.6600 C   0  0  0  0  0  0  0  0  0  0  0  0
   34.5660   28.1620   48.4070 N   0  0  0  0  0  0  0  0  0  0  0  0
   35.1720   29.3420   48.3840 C   0  0  0  0  0  0  0  0  0  0  0  0
   34.6740   30.3190   47.6060 N   0  0  0  0  0  0  0  0  0  0  0  0
   38.2900   30.4490   47.0120 C   0  0  0  0  0  0  0  0  0  0  0  0
   38.8860   30.7790   45.8880 C   0  0  0  0  0  0  0  0  0  0  0  0
   39.3150   30.0290   44.7140 C   0  0  0  0  0  0  0  0  0  0  0  0
   38.8170   30.5650   43.3880 C   0  0  0  0  0  0  0  0  0  0  0  0
   39.1630   32.0380   43.3650 C   0  0  0  0  0  0  0  0  0  0  0  0
   38.9380   32.6550   42.0050 C   0  0  0  0  0  0  0  0  0  0  0  0
   39.5170   31.7950   40.9000 C   0  0  0  0  0  0  0  0  0  0  0  0
   40.4600   30.7770   41.5520 C   0  0  0  0  0  0  0  0  0  0  0  0
   39.5470   29.8040   42.3030 C   0  0  0  0  0  0  0  0  0  0  0  0
   36.1094   31.6426   50.8951 H   0  0  0  0  0  0  0  0  0  0  0  0
   37.2233   33.8547   50.9018 H   0  0  0  0  0  0  0  0  0  0  0  0
   38.8369   34.4516   49.0660 H   0  0  0  0  0  0  0  0  0  0  0  0
   39.2638   32.7746   47.2932 H   0  0  0  0  0  0  0  0  0  0  0  0
   36.9987   29.2996   48.3348 H   0  0  0  0  0  0  0  0  0  0  0  0
   36.7168   29.1119   50.8915 H   0  0  0  0  0  0  0  0  0  0  0  0
   33.2244   30.9835   46.2326 H   0  0  0  0  0  0  0  0  0  0  0  0
   32.0441   28.7608   46.2474 H   0  0  0  0  0  0  0  0  0  0  0  0
   32.9644   26.9335   47.6923 H   0  0  0  0  0  0  0  0  0  0  0  0
   38.0313   29.3860   47.1266 H   0  0  0  0  0  0  0  0  0  0  0  0
   39.1094   31.8538   45.8181 H   0  0  0  0  0  0  0  0  0  0  0  0
   40.4148   30.0329   44.6910 H   0  0  0  0  0  0  0  0  0  0  0  0
   38.8808   29.0238   44.8190 H   0  0  0  0  0  0  0  0  0  0  0  0
   37.7339   30.4437   43.2388 H   0  0  0  0  0  0  0  0  0  0  0  0
   38.5338   32.5613   44.1000 H   0  0  0  0  0  0  0  0  0  0  0  0
   40.2309   32.1382   43.6091 H   0  0  0  0  0  0  0  0  0  0  0  0
   37.8566   32.7690   41.8392 H   0  0  0  0  0  0  0  0  0  0  0  0
   39.4439   33.6315   41.9821 H   0  0  0  0  0  0  0  0  0  0  0  0
   40.0754   32.4224   40.1897 H   0  0  0  0  0  0  0  0  0  0  0  0
   38.7151   31.2817   40.3491 H   0  0  0  0  0  0  0  0  0  0  0  0
   41.0424   30.2451   40.7853 H   0  0  0  0  0  0  0  0  0  0  0  0
   41.1847   31.2606   42.2235 H   0  0  0  0  0  0  0  0  0  0  0  0
   38.8192   29.3651   41.6047 H   0  0  0  0  0  0  0  0  0  0  0  0
   40.1456   28.9961   42.7490 H   0  0  0  0  0  0  0  0  0  0  0  0
  1  7  1  0
  1  2  2  0
  2  3  1  0
  4  3  2  0
  5  6  2  0
  5  4  1  0
  6  1  1  0
  7  8  1  0
  9 10  2  0
  9 14  1  0
 10 11  1  0
 11 12  2  0
 13 12  1  0
 13  7  1  0
 14 13  2  0
 15  6  1  0
 16 15  2  0
 17 16  1  0
 18 17  1  0
 19 18  1  0
 20 19  1  0
 21 22  1  0
 21 20  1  0
 22 23  1  0
 23 18  1  0
  2 24  1  0
  3 25  1  0
  4 26  1  0
  5 27  1  0
  7 28  1  0
  8 29  1  0
  9 30  1  0
 10 31  1  0
 11 32  1  0
 15 33  1  0
 16 34  1  0
 17 35  1  0
 17 36  1  0
 18 37  1  0
 19 38  1  0
 19 39  1  0
 20 40  1  0
 20 41  1  0
 21 42  1  0
 21 43  1  0
 22 44  1  0
 22 45  1  0
 23 46  1  0
 23 47  1  0
M  ISO  8  24  14  25  14  26  14  27  14  28   8  29   3  30  14  31  14
M  ISO  8  32  14  35   8  36   8  37  13  38  13  39  13  40  13  41  13
M  ISO  6  42  13  43  13  44  13  45  13  46  13  47  13
M  END
>  <minimizedAffinity>  (1) 
-5.95300055

>  <minimizedRMSD>  (1) 
2.46162152

$$$$
