
     RDKit          3D

 33 34  0  0  0  0  0  0  0  0999 V2000
   37.7090   31.9360   48.7380 C   0  0  0  0  0  0  0  0  0  0  0  0
   38.5240   31.5410   47.7840 C   0  0  0  0  0  0  0  0  0  0  0  0
   36.9050   29.6920   51.5860 C   0  0  0  0  0  0  0  0  0  0  0  0
   37.6220   30.5790   50.7550 C   0  0  0  0  0  0  0  0  0  0  0  0
   36.9960   31.0380   49.5900 C   0  0  0  0  0  0  0  0  0  0  0  0
   35.7480   30.6240   49.3040 N   0  0  0  0  0  0  0  0  0  0  0  0
   35.0770   29.7740   50.1120 C   0  0  0  0  0  0  0  0  0  0  0  0
   35.6470   29.3060   51.2510 N   0  0  0  0  0  0  0  0  0  0  0  0
   39.2610   32.4920   46.9020 C   0  0  0  0  0  0  0  0  0  0  0  0
   40.1240   31.7080   45.9080 C   0  0  0  0  0  0  0  0  0  0  0  0
   39.3020   30.5870   45.3780 C   0  0  0  0  0  0  0  0  0  0  0  0
   39.5810   30.1390   43.9940 C   0  0  0  0  0  0  0  0  0  0  0  0
   40.0640   31.2290   43.0730 C   0  0  0  0  0  0  0  0  0  0  0  0
   39.7480   32.6010   43.6780 C   0  0  0  0  0  0  0  0  0  0  0  0
   40.6530   32.6720   44.9050 C   0  0  0  0  0  0  0  0  0  0  0  0
   37.5689   33.0167   48.8879 H   0  0  0  0  0  0  0  0  0  0  0  0
   38.6685   30.4615   47.6297 H   0  0  0  0  0  0  0  0  0  0  0  0
   37.3671   29.3117   52.5089 H   0  0  0  0  0  0  0  0  0  0  0  0
   38.6416   30.8999   51.0147 H   0  0  0  0  0  0  0  0  0  0  0  0
   34.0581   29.4581   49.8437 H   0  0  0  0  0  0  0  0  0  0  0  0
   38.5401   33.1132   46.3503 H   0  0  0  0  0  0  0  0  0  0  0  0
   39.9065   33.1356   47.5177 H   0  0  0  0  0  0  0  0  0  0  0  0
   41.0114   31.2343   46.3531 H   0  0  0  0  0  0  0  0  0  0  0  0
   39.4526   29.7232   46.0422 H   0  0  0  0  0  0  0  0  0  0  0  0
   38.2744   30.9782   45.3479 H   0  0  0  0  0  0  0  0  0  0  0  0
   40.3524   29.3559   44.0347 H   0  0  0  0  0  0  0  0  0  0  0  0
   38.6266   29.7794   43.5818 H   0  0  0  0  0  0  0  0  0  0  0  0
   39.5596   31.1345   42.1000 H   0  0  0  0  0  0  0  0  0  0  0  0
   41.1517   31.1342   42.9388 H   0  0  0  0  0  0  0  0  0  0  0  0
   39.9856   33.4070   42.9681 H   0  0  0  0  0  0  0  0  0  0  0  0
   38.6832   32.7228   43.9258 H   0  0  0  0  0  0  0  0  0  0  0  0
   41.6823   32.3994   44.6287 H   0  0  0  0  0  0  0  0  0  0  0  0
   40.6667   33.6916   45.3176 H   0  0  0  0  0  0  0  0  0  0  0  0
  1  5  1  0
  2  1  2  0
  4  3  2  0
  5  4  1  0
  6  5  2  0
  6  7  1  0
  7  8  2  0
  8  3  1  0
  9  2  1  0
 10  9  1  0
 11 10  1  0
 12 11  1  0
 13 14  1  0
 13 12  1  0
 14 15  1  0
 15 10  1  0
  1 16  1  0
  2 17  1  0
  3 18  1  0
  4 19  1  0
  7 20  1  0
  9 21  1  0
  9 22  1  0
 10 23  1  0
 11 24  1  0
 11 25  1  0
 12 26  1  0
 12 27  1  0
 13 28  1  0
 13 29  1  0
 14 30  1  0
 14 31  1  0
 15 32  1  0
 15 33  1  0
M  ISO  8  18  14  19  14  20  14  21   8  22   8  23  13  24  13  25  13
M  ISO  8  26  13  27  13  28  13  29  13  30  13  31  13  32  13  33  13
M  END
>  <minimizedAffinity>  (1) 
-5.42307091

>  <minimizedRMSD>  (1) 
2.21827984

$$$$
