
     RDKit          3D

 47 50  0  0  1  0  0  0  0  0999 V2000
   34.4670   29.1570   48.8730 C   0  0  2  0  0  0  0  0  0  0  0  0
   35.1710   28.4230   49.9840 C   0  0  0  0  0  0  0  0  0  0  0  0
   36.3430   29.1640   50.3720 N   0  0  0  0  0  0  0  0  0  0  0  0
   37.3470   29.8740   51.1100 C   0  0  0  0  0  0  0  0  0  0  0  0
   37.6500   30.0600   52.3090 O   0  0  0  0  0  0  0  0  0  0  0  0
   38.0100   30.3940   49.9160 C   0  0  1  0  0  0  0  0  0  0  0  0
   37.1360   29.4000   49.1910 C   0  0  2  0  0  0  0  0  0  0  0  0
   35.8300   30.1380   48.1590 S   0  0  0  0  0  0  0  0  0  0  0  0
   33.2980   29.9880   49.2950 C   0  0  0  0  0  0  0  0  0  0  0  0
   34.0780   28.1520   47.7980 C   0  0  0  0  0  0  0  0  0  0  0  0
   32.6070   28.0280   47.6190 C   0  0  0  0  0  0  0  0  0  0  0  0
   32.1350   26.6320   48.0710 C   0  0  0  0  0  0  0  0  0  0  0  0
   30.6620   26.7740   48.3860 C   0  0  0  0  0  0  0  0  0  0  0  0
   30.0330   27.6650   47.3590 C   0  0  0  0  0  0  0  0  0  0  0  0
   30.7320   27.6110   46.0350 C   0  0  0  0  0  0  0  0  0  0  0  0
   32.1350   28.2000   46.2010 C   0  0  0  0  0  0  0  0  0  0  0  0
   37.7870   31.8190   49.6180 C   0  0  0  0  0  0  0  0  0  0  0  0
   36.8040   32.3220   50.2360 O   0  0  0  0  0  0  0  0  0  0  0  0
   38.6170   32.5680   48.7090 C   0  0  0  0  0  0  0  0  0  0  0  0
   39.1400   33.7670   49.1670 C   0  0  0  0  0  0  0  0  0  0  0  0
   39.9550   34.5120   48.2850 C   0  0  0  0  0  0  0  0  0  0  0  0
   40.1740   34.0040   47.0440 N   0  0  0  0  0  0  0  0  0  0  0  0
   39.6520   32.8360   46.6260 C   0  0  0  0  0  0  0  0  0  0  0  0
   38.8730   32.1250   47.4710 N   0  0  0  0  0  0  0  0  0  0  0  0
   34.4953   28.3251   50.8464 H   0  0  0  0  0  0  0  0  0  0  0  0
   35.4648   27.4212   49.6374 H   0  0  0  0  0  0  0  0  0  0  0  0
   39.1021   30.4373   49.7921 H   0  0  0  0  0  0  0  0  0  0  0  0
   37.6969   28.6661   48.5938 H   0  0  0  0  0  0  0  0  0  0  0  0
   33.2499   30.0222   50.3934 H   0  0  0  0  0  0  0  0  0  0  0  0
   33.4124   31.0086   48.9010 H   0  0  0  0  0  0  0  0  0  0  0  0
   32.3716   29.5446   48.9010 H   0  0  0  0  0  0  0  0  0  0  0  0
   34.5209   28.4718   46.8433 H   0  0  0  0  0  0  0  0  0  0  0  0
   34.4532   27.1686   48.1177 H   0  0  0  0  0  0  0  0  0  0  0  0
   32.1829   28.8411   48.2265 H   0  0  0  0  0  0  0  0  0  0  0  0
   32.2850   25.8981   47.2655 H   0  0  0  0  0  0  0  0  0  0  0  0
   32.7022   26.2770   48.9441 H   0  0  0  0  0  0  0  0  0  0  0  0
   30.1815   25.7848   48.3615 H   0  0  0  0  0  0  0  0  0  0  0  0
   30.5341   27.2097   49.3879 H   0  0  0  0  0  0  0  0  0  0  0  0
   28.9875   27.3538   47.2171 H   0  0  0  0  0  0  0  0  0  0  0  0
   30.1054   28.6984   47.7291 H   0  0  0  0  0  0  0  0  0  0  0  0
   30.1688   28.1975   45.2941 H   0  0  0  0  0  0  0  0  0  0  0  0
   30.7996   26.5696   45.6872 H   0  0  0  0  0  0  0  0  0  0  0  0
   32.8288   27.6827   45.5220 H   0  0  0  0  0  0  0  0  0  0  0  0
   32.1042   29.2730   45.9610 H   0  0  0  0  0  0  0  0  0  0  0  0
   38.9275   34.1272   50.1844 H   0  0  0  0  0  0  0  0  0  0  0  0
   40.3972   35.4710   48.5929 H   0  0  0  0  0  0  0  0  0  0  0  0
   39.8566   32.4653   45.6108 H   0  0  0  0  0  0  0  0  0  0  0  0
  1 10  1  6
  1  9  1  0
  1  2  1  0
  2  3  1  0
  3  4  1  0
  4  5  2  0
  6  4  1  0
  7  6  1  0
  7  3  1  0
  8  1  1  0
  8  7  1  0
 11 10  1  0
 11 12  1  0
 12 13  1  0
 14 13  1  0
 15 16  1  0
 15 14  1  0
 16 11  1  0
 17  6  1  0
 17 18  2  0
 19 20  2  0
 19 17  1  0
 21 20  1  0
 22 21  2  0
 23 22  1  0
 23 24  2  0
 24 19  1  0
  2 25  1  0
  2 26  1  0
  6 27  1  1
  7 28  1  6
  9 29  1  0
  9 30  1  0
  9 31  1  0
 10 32  1  0
 10 33  1  0
 11 34  1  0
 12 35  1  0
 12 36  1  0
 13 37  1  0
 13 38  1  0
 14 39  1  0
 14 40  1  0
 15 41  1  0
 15 42  1  0
 16 43  1  0
 16 44  1  0
 20 45  1  0
 21 46  1  0
 23 47  1  0
M  ISO  8  25  13  26  13  27  13  28  13  29   8  30   8  31   8  32   8
M  ISO  8  33   8  34  13  35  13  36  13  37  13  38  13  39  13  40  13
M  ISO  7  41  13  42  13  43  13  44  13  45  14  46  14  47  14
M  END
>  <minimizedAffinity>  (1) 
-5.22332382

>  <minimizedRMSD>  (1) 
1.90852499

$$$$
