
     RDKit          3D

 32 33  0  0  0  0  0  0  0  0999 V2000
   34.2390   30.0110   50.2200 O   0  0  0  0  0  0  0  0  0  0  0  0
   34.9420   29.3220   49.0450 P   0  0  2  0  0  0  0  0  0  0  0  0
   34.4490   27.7160   49.1000 O   0  0  0  0  0  0  0  0  0  0  0  0
   36.6140   29.4990   49.2370 O   0  0  0  0  0  0  0  0  0  0  0  0
   37.9430   32.8870   49.4150 C   0  0  0  0  0  0  0  0  0  0  0  0
   38.8010   32.8910   48.2750 C   0  0  0  0  0  0  0  0  0  0  0  0
   38.8460   31.7050   47.5340 C   0  0  0  0  0  0  0  0  0  0  0  0
   38.0930   30.6480   47.9290 N   0  0  0  0  0  0  0  0  0  0  0  0
   37.2960   30.6850   49.0110 C   0  0  0  0  0  0  0  0  0  0  0  0
   37.2240   31.8080   49.7520 N   0  0  0  0  0  0  0  0  0  0  0  0
   34.3180   30.0350   47.6580 O   0  0  0  0  0  0  0  0  0  0  0  0
   34.2380   29.1710   46.5860 C   0  0  0  0  0  0  0  0  0  0  0  0
   32.8230   28.9090   46.1380 C   0  0  0  0  0  0  0  0  0  0  0  0
   32.2010   30.2700   45.9950 C   0  0  0  0  0  0  0  0  0  0  0  0
   32.7900   30.8890   44.7810 C   0  0  0  0  0  0  0  0  0  0  0  0
   34.1460   30.4200   44.3940 C   0  0  0  0  0  0  0  0  0  0  0  0
   34.9690   29.7260   45.4180 C   0  0  0  0  0  0  0  0  0  0  0  0
   34.3612   27.4299   50.0437 H   0  0  0  0  0  0  0  0  0  0  0  0
   37.8700   33.7937   50.0335 H   0  0  0  0  0  0  0  0  0  0  0  0
   39.3927   33.7750   47.9950 H   0  0  0  0  0  0  0  0  0  0  0  0
   39.4846   31.6305   46.6414 H   0  0  0  0  0  0  0  0  0  0  0  0
   34.6820   28.2273   46.9358 H   0  0  0  0  0  0  0  0  0  0  0  0
   32.8147   28.3772   45.1751 H   0  0  0  0  0  0  0  0  0  0  0  0
   32.2742   28.2772   46.8519 H   0  0  0  0  0  0  0  0  0  0  0  0
   31.1108   30.1774   45.8812 H   0  0  0  0  0  0  0  0  0  0  0  0
   32.3955   30.8868   46.8848 H   0  0  0  0  0  0  0  0  0  0  0  0
   32.1122   30.6858   43.9388 H   0  0  0  0  0  0  0  0  0  0  0  0
   32.9069   31.9556   45.0232 H   0  0  0  0  0  0  0  0  0  0  0  0
   34.0221   29.7255   43.5500 H   0  0  0  0  0  0  0  0  0  0  0  0
   34.7023   31.3442   44.1787 H   0  0  0  0  0  0  0  0  0  0  0  0
   35.4889   28.8933   44.9217 H   0  0  0  0  0  0  0  0  0  0  0  0
   35.6359   30.4978   45.8298 H   0  0  0  0  0  0  0  0  0  0  0  0
  2  3  1  0
  2  4  1  0
  2  1  2  0
  5 10  2  0
  6  5  1  0
  7  8  1  0
  7  6  2  0
  8  9  2  0
  9  4  1  0
  9 10  1  0
 11  2  1  0
 12 11  1  0
 13 12  1  0
 14 13  1  0
 15 14  1  0
 16 15  1  0
 16 17  1  0
 17 12  1  0
  3 18  1  0
  5 19  1  0
  6 20  1  0
  7 21  1  0
 12 22  1  0
 13 23  1  0
 13 24  1  0
 14 25  1  0
 14 26  1  0
 15 27  1  0
 15 28  1  0
 16 29  1  0
 16 30  1  0
 17 31  1  0
 17 32  1  0
M  ISO  8  18   3  19  14  20  14  21  14  22  13  23  13  24  13  25  13
M  ISO  7  26  13  27  13  28  13  29  13  30  13  31  13  32  13
M  END
>  <minimizedAffinity>  (1) 
-4.30902815

>  <minimizedRMSD>  (1) 
2.36647224

$$$$
