
     RDKit          3D

 39 41  0  0  0  0  0  0  0  0999 V2000
   36.5010   30.7080   48.2660 C   0  0  0  0  0  0  0  0  0  0  0  0
   37.1070   30.7420   47.0100 C   0  0  0  0  0  0  0  0  0  0  0  0
   36.2640   30.4070   45.9770 C   0  0  0  0  0  0  0  0  0  0  0  0
   34.9740   30.0760   46.1880 N   0  0  0  0  0  0  0  0  0  0  0  0
   34.4150   30.0490   47.4020 C   0  0  0  0  0  0  0  0  0  0  0  0
   35.1800   30.3640   48.4390 N   0  0  0  0  0  0  0  0  0  0  0  0
   37.3500   31.1740   49.4400 C   0  0  0  0  0  0  0  0  0  0  0  0
   36.9530   30.9640   50.7810 C   0  0  0  0  0  0  0  0  0  0  0  0
   37.8730   29.9030   50.2020 C   0  0  0  0  0  0  0  0  0  0  0  0
   38.5290   31.0740   46.8330 C   0  0  0  0  0  0  0  0  0  0  0  0
   39.1990   30.4660   45.6660 C   0  0  0  0  0  0  0  0  0  0  0  0
   39.9470   31.4180   44.7960 C   0  0  0  0  0  0  0  0  0  0  0  0
   39.1350   32.7110   44.7410 C   0  0  0  0  0  0  0  0  0  0  0  0
   38.0520   32.6000   43.6730 C   0  0  0  0  0  0  0  0  0  0  0  0
   38.7740   32.6640   42.3440 C   0  0  0  0  0  0  0  0  0  0  0  0
   40.0270   31.8330   42.3220 C   0  0  0  0  0  0  0  0  0  0  0  0
   40.0730   30.7990   43.4220 C   0  0  0  0  0  0  0  0  0  0  0  0
   36.6532   30.4090   44.9482 H   0  0  0  0  0  0  0  0  0  0  0  0
   33.3581   29.7753   47.5363 H   0  0  0  0  0  0  0  0  0  0  0  0
   37.7176   32.0924   48.9590 H   0  0  0  0  0  0  0  0  0  0  0  0
   37.3342   31.6350   51.5648 H   0  0  0  0  0  0  0  0  0  0  0  0
   35.9702   30.9161   51.2727 H   0  0  0  0  0  0  0  0  0  0  0  0
   37.4938   28.9005   49.9548 H   0  0  0  0  0  0  0  0  0  0  0  0
   38.8448   29.4517   50.4507 H   0  0  0  0  0  0  0  0  0  0  0  0
   38.6090   32.1667   46.7346 H   0  0  0  0  0  0  0  0  0  0  0  0
   39.0403   30.6607   47.7149 H   0  0  0  0  0  0  0  0  0  0  0  0
   39.9100   29.7127   46.0361 H   0  0  0  0  0  0  0  0  0  0  0  0
   38.3987   30.0447   45.0399 H   0  0  0  0  0  0  0  0  0  0  0  0
   40.9556   31.6320   45.1793 H   0  0  0  0  0  0  0  0  0  0  0  0
   38.6651   32.8883   45.7196 H   0  0  0  0  0  0  0  0  0  0  0  0
   39.8040   33.5479   44.4921 H   0  0  0  0  0  0  0  0  0  0  0  0
   37.5141   31.6455   43.7709 H   0  0  0  0  0  0  0  0  0  0  0  0
   37.3068   33.4035   43.7676 H   0  0  0  0  0  0  0  0  0  0  0  0
   38.0965   32.2995   41.5578 H   0  0  0  0  0  0  0  0  0  0  0  0
   39.0674   33.7108   42.1761 H   0  0  0  0  0  0  0  0  0  0  0  0
   40.0869   31.3159   41.3530 H   0  0  0  0  0  0  0  0  0  0  0  0
   40.8754   32.5155   42.4784 H   0  0  0  0  0  0  0  0  0  0  0  0
   39.2448   30.0899   43.2760 H   0  0  0  0  0  0  0  0  0  0  0  0
   41.0484   30.2933   43.3685 H   0  0  0  0  0  0  0  0  0  0  0  0
  1  6  1  0
  1  7  1  0
  2  1  2  0
  3  4  2  0
  3  2  1  0
  4  5  1  0
  5  6  2  0
  7  9  1  0
  7  8  1  0
  9  8  1  0
 10  2  1  0
 11 10  1  0
 12 11  1  0
 13 12  1  0
 14 13  1  0
 15 14  1  0
 16 15  1  0
 16 17  1  0
 17 12  1  0
  3 18  1  0
  5 19  1  0
  7 20  1  0
  8 21  1  0
  8 22  1  0
  9 23  1  0
  9 24  1  0
 10 25  1  0
 10 26  1  0
 11 27  1  0
 11 28  1  0
 12 29  1  0
 13 30  1  0
 13 31  1  0
 14 32  1  0
 14 33  1  0
 15 34  1  0
 15 35  1  0
 16 36  1  0
 16 37  1  0
 17 38  1  0
 17 39  1  0
M  ISO  8  18  14  19  14  20  13  21  13  22  13  23  13  24  13  25   8
M  ISO  8  26   8  27   8  28   8  29  13  30  13  31  13  32  13  33  13
M  ISO  6  34  13  35  13  36  13  37  13  38  13  39  13
M  END
>  <minimizedAffinity>  (1) 
-4.94655561

>  <minimizedRMSD>  (1) 
5.63607979

$$$$
