
     RDKit          3D

 40 42  0  0  0  0  0  0  0  0999 V2000
   36.9950   31.4470   42.8140 C   0  0  0  0  0  0  0  0  0  0  0  0
   37.3980   31.1540   41.5120 C   0  0  0  0  0  0  0  0  0  0  0  0
   38.6150   31.5750   41.0030 C   0  0  0  0  0  0  0  0  0  0  0  0
   39.4820   32.3330   41.8390 C   0  0  0  0  0  0  0  0  0  0  0  0
   39.0500   32.5990   43.1090 C   0  0  0  0  0  0  0  0  0  0  0  0
   37.8590   32.1860   43.6150 C   0  0  0  0  0  0  0  0  0  0  0  0
   35.5870   29.6900   43.7090 C   0  0  0  0  0  0  0  0  0  0  0  0
   35.6690   30.9870   43.1760 C   0  0  0  0  0  0  0  0  0  0  0  0
   34.4650   31.6920   43.0530 C   0  0  0  0  0  0  0  0  0  0  0  0
   33.3100   31.1260   43.4340 N   0  0  0  0  0  0  0  0  0  0  0  0
   33.2460   29.8900   43.9410 C   0  0  0  0  0  0  0  0  0  0  0  0
   34.3860   29.1850   44.0720 N   0  0  0  0  0  0  0  0  0  0  0  0
   38.0280   31.5140   45.8620 C   0  0  0  0  0  0  0  0  0  0  0  0
   38.7340   30.5510   45.3960 O   0  0  0  0  0  0  0  0  0  0  0  0
   37.4490   32.4390   44.9220 N   0  0  0  0  0  0  0  0  0  0  0  0
   37.7810   31.7190   47.3310 C   0  0  0  0  0  0  0  0  0  0  0  0
   38.8080   32.5590   48.0050 C   0  0  0  0  0  0  0  0  0  0  0  0
   38.0830   33.0560   49.2610 C   0  0  0  0  0  0  0  0  0  0  0  0
   37.4740   31.9580   50.0480 C   0  0  0  0  0  0  0  0  0  0  0  0
   37.5900   30.5810   49.5140 C   0  0  0  0  0  0  0  0  0  0  0  0
   37.7470   30.4090   48.0650 C   0  0  0  0  0  0  0  0  0  0  0  0
   36.7263   30.5684   40.8670 H   0  0  0  0  0  0  0  0  0  0  0  0
   38.9063   31.3281   39.9714 H   0  0  0  0  0  0  0  0  0  0  0  0
   40.4582   32.6898   41.4790 H   0  0  0  0  0  0  0  0  0  0  0  0
   39.7106   33.1861   43.7639 H   0  0  0  0  0  0  0  0  0  0  0  0
   36.4982   29.0860   43.8310 H   0  0  0  0  0  0  0  0  0  0  0  0
   34.4665   32.7127   42.6428 H   0  0  0  0  0  0  0  0  0  0  0  0
   32.2812   29.4578   44.2450 H   0  0  0  0  0  0  0  0  0  0  0  0
   36.8063   33.1994   45.1857 H   0  0  0  0  0  0  0  0  0  0  0  0
   36.8113   32.2367   47.3722 H   0  0  0  0  0  0  0  0  0  0  0  0
   39.6934   31.9627   48.2704 H   0  0  0  0  0  0  0  0  0  0  0  0
   39.1820   33.3760   47.3705 H   0  0  0  0  0  0  0  0  0  0  0  0
   38.8072   33.5847   49.8982 H   0  0  0  0  0  0  0  0  0  0  0  0
   37.2680   33.7174   48.9317 H   0  0  0  0  0  0  0  0  0  0  0  0
   37.9454   31.9656   51.0419 H   0  0  0  0  0  0  0  0  0  0  0  0
   36.3950   32.1714   50.0339 H   0  0  0  0  0  0  0  0  0  0  0  0
   38.4648   30.1179   49.9939 H   0  0  0  0  0  0  0  0  0  0  0  0
   36.6174   30.1191   49.7390 H   0  0  0  0  0  0  0  0  0  0  0  0
   36.9024   29.8144   47.6867 H   0  0  0  0  0  0  0  0  0  0  0  0
   38.7079   29.9029   47.8905 H   0  0  0  0  0  0  0  0  0  0  0  0
  1  8  1  0
  1  6  1  0
  2  1  2  0
  3  2  1  0
  3  4  2  0
  4  5  1  0
  5  6  2  0
  6 15  1  0
  7 12  2  0
  8  7  1  0
  9  8  2  0
  9 10  1  0
 10 11  2  0
 11 12  1  0
 13 16  1  0
 14 13  2  0
 15 13  1  0
 16 17  1  0
 16 21  1  0
 17 18  1  0
 18 19  1  0
 20 19  1  0
 21 20  1  0
  2 22  1  0
  3 23  1  0
  4 24  1  0
  5 25  1  0
  7 26  1  0
  9 27  1  0
 11 28  1  0
 15 29  1  0
 16 30  1  0
 17 31  1  0
 17 32  1  0
 18 33  1  0
 18 34  1  0
 19 35  1  0
 19 36  1  0
 20 37  1  0
 20 38  1  0
 21 39  1  0
 21 40  1  0
M  ISO  8  22  14  23  14  24  14  25  14  26  14  27  14  28  14  30  13
M  ISO  8  31  13  32  13  33  13  34  13  35  13  36  13  37  13  38  13
M  ISO  2  39  13  40  13
M  END
>  <minimizedAffinity>  (1) 
-5.22974253

>  <minimizedRMSD>  (1) 
5.52047539

$$$$
