
     RDKit          3D

 47 49  0  0  1  0  0  0  0  0999 V2000
   36.7970   31.5730   48.7190 O   0  0  0  0  0  0  0  0  0  0  0  0
   38.7790   32.3490   47.7780 C   0  0  2  0  0  0  0  0  0  0  0  0
   38.1570   31.3540   48.7390 C   0  0  1  0  0  0  0  0  0  0  0  0
   38.7500   31.9060   50.0430 C   0  0  0  0  0  0  0  0  0  0  0  0
   38.4320   33.2480   49.9260 O   0  0  0  0  0  0  0  0  0  0  0  0
   38.6450   33.6160   48.6140 C   0  0  0  0  0  0  0  0  0  0  0  0
   38.0040   32.3880   46.6310 O   0  0  0  0  0  0  0  0  0  0  0  0
   38.8010   31.9960   45.5620 C   0  0  0  0  0  0  0  0  0  0  0  0
   39.2150   33.1230   44.6800 C   0  0  0  0  0  0  0  0  0  0  0  0
   39.6490   32.5580   43.3420 C   0  0  0  0  0  0  0  0  0  0  0  0
   40.3480   31.2560   43.5410 C   0  0  0  0  0  0  0  0  0  0  0  0
   41.0190   31.1430   44.8940 C   0  0  0  0  0  0  0  0  0  0  0  0
   40.0770   31.3030   46.0480 C   0  0  0  0  0  0  0  0  0  0  0  0
   35.8240   29.8600   47.0220 O   0  0  0  0  0  0  0  0  0  0  0  0
   35.9070   30.1640   48.4870 P   0  0  1  0  0  0  0  0  0  0  0  0
   36.7100   28.8460   49.2530 O   0  0  0  0  0  0  0  0  0  0  0  0
   34.3580   30.3320   49.1560 O   0  0  0  0  0  0  0  0  0  0  0  0
   34.0920   29.1710   49.8630 C   0  0  0  0  0  0  0  0  0  0  0  0
   33.2300   28.2230   49.1250 C   0  0  0  0  0  0  0  0  0  0  0  0
   33.8620   27.3340   48.2860 C   0  0  0  0  0  0  0  0  0  0  0  0
   33.1050   26.4110   47.5590 C   0  0  0  0  0  0  0  0  0  0  0  0
   31.7530   26.4540   47.7340 N   0  0  0  0  0  0  0  0  0  0  0  0
   31.1560   27.3340   48.5610 C   0  0  0  0  0  0  0  0  0  0  0  0
   31.8930   28.2230   49.2600 N   0  0  0  0  0  0  0  0  0  0  0  0
   39.8052   32.1515   47.4346 H   0  0  0  0  0  0  0  0  0  0  0  0
   38.3309   30.2834   48.5555 H   0  0  0  0  0  0  0  0  0  0  0  0
   38.2761   31.4534   50.9265 H   0  0  0  0  0  0  0  0  0  0  0  0
   39.8227   31.7026   50.1770 H   0  0  0  0  0  0  0  0  0  0  0  0
   39.5676   34.2103   48.5394 H   0  0  0  0  0  0  0  0  0  0  0  0
   37.8038   34.2238   48.2493 H   0  0  0  0  0  0  0  0  0  0  0  0
   38.1694   31.3078   44.9812 H   0  0  0  0  0  0  0  0  0  0  0  0
   38.3682   33.8099   44.5348 H   0  0  0  0  0  0  0  0  0  0  0  0
   40.0471   33.6746   45.1419 H   0  0  0  0  0  0  0  0  0  0  0  0
   40.3321   33.2670   42.8515 H   0  0  0  0  0  0  0  0  0  0  0  0
   38.7614   32.3988   42.7121 H   0  0  0  0  0  0  0  0  0  0  0  0
   39.6109   30.4449   43.4469 H   0  0  0  0  0  0  0  0  0  0  0  0
   41.1363   31.1867   42.7770 H   0  0  0  0  0  0  0  0  0  0  0  0
   41.4913   30.1521   44.9659 H   0  0  0  0  0  0  0  0  0  0  0  0
   41.7504   31.9620   44.9598 H   0  0  0  0  0  0  0  0  0  0  0  0
   40.5527   31.9135   46.8297 H   0  0  0  0  0  0  0  0  0  0  0  0
   39.8270   30.3148   46.4616 H   0  0  0  0  0  0  0  0  0  0  0  0
   36.6479   28.9479   50.2358 H   0  0  0  0  0  0  0  0  0  0  0  0
   35.0464   28.6727   50.0884 H   0  0  0  0  0  0  0  0  0  0  0  0
   33.5512   29.4613   50.7758 H   0  0  0  0  0  0  0  0  0  0  0  0
   34.9575   27.3497   48.1880 H   0  0  0  0  0  0  0  0  0  0  0  0
   33.5763   25.6858   46.8793 H   0  0  0  0  0  0  0  0  0  0  0  0
   30.0612   27.3281   48.6673 H   0  0  0  0  0  0  0  0  0  0  0  0
  1  3  1  0
  2  6  1  0
  2  3  1  0
  3  4  1  0
  5  4  1  0
  6  5  1  0
  7  2  1  0
  8 13  1  0
  8  7  1  0
  9  8  1  0
 10 11  1  0
 10  9  1  0
 11 12  1  0
 12 13  1  0
 15 14  2  0
 15  1  1  0
 15 17  1  0
 15 16  1  0
 17 18  1  0
 19 24  1  0
 19 18  1  0
 20 19  2  0
 21 22  2  0
 21 20  1  0
 22 23  1  0
 23 24  2  0
  2 25  1  6
  3 26  1  6
  4 27  1  0
  4 28  1  0
  6 29  1  0
  6 30  1  0
  8 31  1  0
  9 32  1  0
  9 33  1  0
 10 34  1  0
 10 35  1  0
 11 36  1  0
 11 37  1  0
 12 38  1  0
 12 39  1  0
 13 40  1  0
 13 41  1  0
 16 42  1  0
 18 43  1  0
 18 44  1  0
 20 45  1  0
 21 46  1  0
 23 47  1  0
M  ISO  8  25  13  26  13  27  13  28  13  29  13  30  13  31  13  32  13
M  ISO  8  33  13  34  13  35  13  36  13  37  13  38  13  39  13  40  13
M  ISO  7  41  13  42   3  43   8  44   8  45  14  46  14  47  14
M  END
>  <minimizedAffinity>  (1) 
-5.04237795

>  <minimizedRMSD>  (1) 
0.284807324

$$$$
