
     RDKit          3D

 42 44  0  0  1  0  0  0  0  0999 V2000
   33.9660   29.1080   47.8220 C   0  0  1  0  0  0  0  0  0  0  0  0
   33.9140   29.2110   46.3510 C   0  0  0  0  0  0  0  0  0  0  0  0
   34.2150   27.9640   45.5670 C   0  0  0  0  0  0  0  0  0  0  0  0
   33.6620   26.7260   46.1650 C   0  0  0  0  0  0  0  0  0  0  0  0
   33.7370   26.6020   47.6260 C   0  0  0  0  0  0  0  0  0  0  0  0
   33.3570   27.8660   48.3540 C   0  0  2  0  0  0  0  0  0  0  0  0
   36.2340   30.2960   47.8260 C   0  0  0  0  0  0  0  0  0  0  0  0
   35.2870   29.4330   48.4260 C   0  0  0  0  0  0  0  0  0  0  0  0
   35.6330   28.8710   49.6380 C   0  0  0  0  0  0  0  0  0  0  0  0
   36.8360   29.1550   50.1960 N   0  0  0  0  0  0  0  0  0  0  0  0
   37.7170   29.9900   49.5840 C   0  0  0  0  0  0  0  0  0  0  0  0
   37.4050   30.5600   48.3920 N   0  0  0  0  0  0  0  0  0  0  0  0
   31.8460   27.8940   48.4400 C   0  0  0  0  0  0  0  0  0  0  0  0
   31.2910   28.5820   47.1900 C   0  0  0  0  0  0  0  0  0  0  0  0
   29.9510   28.0120   46.7740 C   0  0  0  0  0  0  0  0  0  0  0  0
   29.0840   27.8860   47.9870 C   0  0  0  0  0  0  0  0  0  0  0  0
   29.7070   26.8560   48.8820 C   0  0  0  0  0  0  0  0  0  0  0  0
   31.1750   26.5730   48.5120 C   0  0  0  0  0  0  0  0  0  0  0  0
   33.3120   29.9228   48.1661 H   0  0  0  0  0  0  0  0  0  0  0  0
   32.9001   29.5381   46.0772 H   0  0  0  0  0  0  0  0  0  0  0  0
   34.7167   29.9149   46.0860 H   0  0  0  0  0  0  0  0  0  0  0  0
   35.3073   27.8555   45.4962 H   0  0  0  0  0  0  0  0  0  0  0  0
   33.7357   28.0834   44.5841 H   0  0  0  0  0  0  0  0  0  0  0  0
   32.6012   26.6649   45.8805 H   0  0  0  0  0  0  0  0  0  0  0  0
   34.2931   25.9134   45.7759 H   0  0  0  0  0  0  0  0  0  0  0  0
   33.0559   25.7986   47.9432 H   0  0  0  0  0  0  0  0  0  0  0  0
   34.7846   26.3832   47.8801 H   0  0  0  0  0  0  0  0  0  0  0  0
   33.7888   27.8429   49.3654 H   0  0  0  0  0  0  0  0  0  0  0  0
   35.9921   30.7629   46.8598 H   0  0  0  0  0  0  0  0  0  0  0  0
   34.9341   28.1937   50.1507 H   0  0  0  0  0  0  0  0  0  0  0  0
   38.6868   30.2047   50.0566 H   0  0  0  0  0  0  0  0  0  0  0  0
   31.6363   28.4197   49.3832 H   0  0  0  0  0  0  0  0  0  0  0  0
   31.1704   29.6551   47.3997 H   0  0  0  0  0  0  0  0  0  0  0  0
   32.0011   28.4137   46.3670 H   0  0  0  0  0  0  0  0  0  0  0  0
   29.4731   28.6841   46.0460 H   0  0  0  0  0  0  0  0  0  0  0  0
   30.0921   27.0243   46.3108 H   0  0  0  0  0  0  0  0  0  0  0  0
   29.0267   28.8522   48.5096 H   0  0  0  0  0  0  0  0  0  0  0  0
   28.0637   27.5873   47.7044 H   0  0  0  0  0  0  0  0  0  0  0  0
   29.6671   27.2182   49.9199 H   0  0  0  0  0  0  0  0  0  0  0  0
   29.1426   25.9195   48.7620 H   0  0  0  0  0  0  0  0  0  0  0  0
   31.2315   26.0631   47.5389 H   0  0  0  0  0  0  0  0  0  0  0  0
   31.6563   25.9190   49.2540 H   0  0  0  0  0  0  0  0  0  0  0  0
  1  6  1  0
  1  8  1  0
  2  1  1  0
  3  4  1  0
  3  2  1  0
  4  5  1  0
  5  6  1  0
  6 13  1  0
  7 12  2  0
  7  8  1  0
  8  9  2  0
  9 10  1  0
 11 10  2  0
 12 11  1  0
 13 18  1  0
 14 13  1  0
 15 14  1  0
 15 16  1  0
 16 17  1  0
 18 17  1  0
  1 19  1  1
  2 20  1  0
  2 21  1  0
  3 22  1  0
  3 23  1  0
  4 24  1  0
  4 25  1  0
  5 26  1  0
  5 27  1  0
  6 28  1  1
  7 29  1  0
  9 30  1  0
 11 31  1  0
 13 32  1  0
 14 33  1  0
 14 34  1  0
 15 35  1  0
 15 36  1  0
 16 37  1  0
 16 38  1  0
 17 39  1  0
 17 40  1  0
 18 41  1  0
 18 42  1  0
M  ISO  8  19  13  20  13  21  13  22  13  23  13  24  13  25  13  26  13
M  ISO  8  27  13  28  13  29  14  30  14  31  14  32  13  33  13  34  13
M  ISO  8  35  13  36  13  37  13  38  13  39  13  40  13  41  13  42  13
M  END
>  <minimizedAffinity>  (1) 
-4.68305874

>  <minimizedRMSD>  (1) 
1.7832036

$$$$
