
     RDKit          3D

 38 40  0  0  1  0  0  0  0  0999 V2000
   38.0870   31.1550   47.4710 N   0  0  0  0  0  0  0  0  0  0  0  0
   38.7070   32.0000   48.4890 C   0  0  0  0  0  0  0  0  0  0  0  0
   38.4870   31.4970   49.8660 C   0  0  0  0  0  0  0  0  0  0  0  0
   38.1580   30.1080   49.8680 N   0  0  0  0  0  0  0  0  0  0  0  0
   36.8420   29.9900   49.2210 C   0  0  0  0  0  0  0  0  0  0  0  0
   37.1140   30.1320   47.7560 C   0  0  1  0  0  0  0  0  0  0  0  0
   39.2240   30.4030   45.3990 C   0  0  0  0  0  0  0  0  0  0  0  0
   38.4590   31.3430   46.1000 C   0  0  0  0  0  0  0  0  0  0  0  0
   38.0660   32.4840   45.4100 C   0  0  0  0  0  0  0  0  0  0  0  0
   38.4520   32.6170   44.0890 N   0  0  0  0  0  0  0  0  0  0  0  0
   39.1830   31.6820   43.4750 C   0  0  0  0  0  0  0  0  0  0  0  0
   39.5850   30.5550   44.1170 N   0  0  0  0  0  0  0  0  0  0  0  0
   35.8240   30.3640   46.9900 C   0  0  2  0  0  0  0  0  0  0  0  0
   34.6250   30.2360   47.8730 C   0  0  0  0  0  0  0  0  0  0  0  0
   33.4350   30.5740   46.9670 C   0  0  0  0  0  0  0  0  0  0  0  0
   33.2490   29.3680   46.0930 C   0  0  0  0  0  0  0  0  0  0  0  0
   34.5090   28.7780   45.5520 C   0  0  0  0  0  0  0  0  0  0  0  0
   35.7480   29.5690   45.7340 C   0  0  0  0  0  0  0  0  0  0  0  0
   39.7897   32.0419   48.2991 H   0  0  0  0  0  0  0  0  0  0  0  0
   38.2417   32.9945   48.4217 H   0  0  0  0  0  0  0  0  0  0  0  0
   39.4050   31.6480   50.4529 H   0  0  0  0  0  0  0  0  0  0  0  0
   37.6457   32.0521   50.3065 H   0  0  0  0  0  0  0  0  0  0  0  0
   38.8633   29.5744   49.3400 H   0  0  0  0  0  0  0  0  0  0  0  0
   36.3919   29.0098   49.4370 H   0  0  0  0  0  0  0  0  0  0  0  0
   36.1343   30.7496   49.5845 H   0  0  0  0  0  0  0  0  0  0  0  0
   37.5536   29.1832   47.4147 H   0  0  0  0  0  0  0  0  0  0  0  0
   39.5452   29.4932   45.9273 H   0  0  0  0  0  0  0  0  0  0  0  0
   37.4633   33.2613   45.9024 H   0  0  0  0  0  0  0  0  0  0  0  0
   39.4664   31.8291   42.4224 H   0  0  0  0  0  0  0  0  0  0  0  0
   35.8288   31.4100   46.6495 H   0  0  0  0  0  0  0  0  0  0  0  0
   34.5374   29.2107   48.2617 H   0  0  0  0  0  0  0  0  0  0  0  0
   34.6815   30.8984   48.7494 H   0  0  0  0  0  0  0  0  0  0  0  0
   32.5324   30.7571   47.5684 H   0  0  0  0  0  0  0  0  0  0  0  0
   33.6139   31.4850   46.3770 H   0  0  0  0  0  0  0  0  0  0  0  0
   32.2569   28.9496   45.8677 H   0  0  0  0  0  0  0  0  0  0  0  0
   34.5169   27.8030   45.0428 H   0  0  0  0  0  0  0  0  0  0  0  0
   35.8325   30.2655   44.8868 H   0  0  0  0  0  0  0  0  0  0  0  0
   36.5671   28.8370   45.7908 H   0  0  0  0  0  0  0  0  0  0  0  0
  1  6  1  0
  1  2  1  0
  2  3  1  0
  3  4  1  0
  5  4  1  0
  6  5  1  0
  7  8  2  0
  8  1  1  0
  9  8  1  0
 10  9  2  0
 11 10  1  0
 11 12  2  0
 12  7  1  0
 13 18  1  0
 13  6  1  0
 13 14  1  0
 15 14  1  0
 16 15  1  0
 17 18  1  0
 17 16  2  0
  2 19  1  0
  2 20  1  0
  3 21  1  0
  3 22  1  0
  4 23  1  0
  5 24  1  0
  5 25  1  0
  6 26  1  6
  7 27  1  0
  9 28  1  0
 11 29  1  0
 13 30  1  6
 14 31  1  0
 14 32  1  0
 15 33  1  0
 15 34  1  0
 16 35  1  0
 17 36  1  0
 18 37  1  0
 18 38  1  0
M  ISO  8  19  13  20  13  21  13  22  13  23   5  24  13  25  13  26  13
M  ISO  8  27  14  28  14  29  14  30  13  31  13  32  13  33  13  34  13
M  ISO  4  35  13  36  13  37  13  38  13
M  END
>  <minimizedAffinity>  (1) 
-4.52986956

>  <minimizedRMSD>  (1) 
5.82222939

$$$$
