
     RDKit          3D

 34 36  0  0  0  0  0  0  0  0999 V2000
   37.6400   31.3370   49.6230 C   0  0  0  0  0  0  0  0  0  0  0  0
   38.0280   30.6980   50.7650 C   0  0  0  0  0  0  0  0  0  0  0  0
   37.1940   29.7890   51.3430 C   0  0  0  0  0  0  0  0  0  0  0  0
   35.9860   29.5180   50.7960 N   0  0  0  0  0  0  0  0  0  0  0  0
   35.6210   30.1630   49.6640 C   0  0  0  0  0  0  0  0  0  0  0  0
   36.4420   31.0620   49.0870 N   0  0  0  0  0  0  0  0  0  0  0  0
   39.6300   34.3450   48.9540 C   0  0  0  0  0  0  0  0  0  0  0  0
   40.0640   34.1480   47.6350 C   0  0  0  0  0  0  0  0  0  0  0  0
   39.6550   32.9650   46.9950 C   0  0  0  0  0  0  0  0  0  0  0  0
   38.8690   32.0810   47.6760 N   0  0  0  0  0  0  0  0  0  0  0  0
   38.4740   32.3140   48.9530 C   0  0  0  0  0  0  0  0  0  0  0  0
   38.8670   33.4510   49.5700 N   0  0  0  0  0  0  0  0  0  0  0  0
   34.2780   29.8050   49.1310 C   0  0  0  0  0  0  0  0  0  0  0  0
   34.0200   28.3520   49.4120 C   0  0  0  0  0  0  0  0  0  0  0  0
   34.1620   27.4800   48.1840 C   0  0  0  0  0  0  0  0  0  0  0  0
   33.1730   27.9490   47.1680 C   0  0  0  0  0  0  0  0  0  0  0  0
   33.2700   29.4120   46.8580 C   0  0  0  0  0  0  0  0  0  0  0  0
   34.3130   30.1240   47.6620 C   0  0  0  0  0  0  0  0  0  0  0  0
   39.0076   30.9155   51.2156 H   0  0  0  0  0  0  0  0  0  0  0  0
   37.5050   29.2708   52.2621 H   0  0  0  0  0  0  0  0  0  0  0  0
   39.9281   35.2590   49.4886 H   0  0  0  0  0  0  0  0  0  0  0  0
   40.6973   34.8875   47.1231 H   0  0  0  0  0  0  0  0  0  0  0  0
   39.9639   32.7548   45.9604 H   0  0  0  0  0  0  0  0  0  0  0  0
   33.4568   30.3656   49.6015 H   0  0  0  0  0  0  0  0  0  0  0  0
   34.7381   28.0085   50.1712 H   0  0  0  0  0  0  0  0  0  0  0  0
   32.9807   28.2631   49.7613 H   0  0  0  0  0  0  0  0  0  0  0  0
   35.1816   27.5669   47.7803 H   0  0  0  0  0  0  0  0  0  0  0  0
   33.9764   26.4264   48.4400 H   0  0  0  0  0  0  0  0  0  0  0  0
   33.3384   27.3859   46.2376 H   0  0  0  0  0  0  0  0  0  0  0  0
   32.1728   27.7777   47.5925 H   0  0  0  0  0  0  0  0  0  0  0  0
   33.5138   29.5267   45.7915 H   0  0  0  0  0  0  0  0  0  0  0  0
   32.2998   29.8625   47.1144 H   0  0  0  0  0  0  0  0  0  0  0  0
   35.3021   29.8435   47.2709 H   0  0  0  0  0  0  0  0  0  0  0  0
   34.1083   31.2005   47.5657 H   0  0  0  0  0  0  0  0  0  0  0  0
  1  2  2  0
  2  3  1  0
  4  3  2  0
  5  4  1  0
  6  1  1  0
  6  5  2  0
  7 12  2  0
  8  7  1  0
  9  8  2  0
  9 10  1  0
 10 11  2  0
 11 12  1  0
 11  1  1  0
 13 14  1  0
 13  5  1  0
 15 14  1  0
 16 15  1  0
 17 16  1  0
 17 18  1  0
 18 13  1  0
  2 19  1  0
  3 20  1  0
  7 21  1  0
  8 22  1  0
  9 23  1  0
 13 24  1  0
 14 25  1  0
 14 26  1  0
 15 27  1  0
 15 28  1  0
 16 29  1  0
 16 30  1  0
 17 31  1  0
 17 32  1  0
 18 33  1  0
 18 34  1  0
M  ISO  8  19  14  20  14  21  14  22  14  23  14  24  13  25  13  26  13
M  ISO  8  27  13  28  13  29  13  30  13  31  13  32  13  33  13  34  13
M  END
>  <minimizedAffinity>  (1) 
-5.9676733

>  <minimizedRMSD>  (1) 
2.54010439

$$$$
