
     RDKit          3D

 43 46  0  0  0  0  0  0  0  0999 V2000
   38.9040   30.8480   45.6920 C   0  0  0  0  0  0  0  0  0  0  0  0
   40.1470   31.3970   45.9500 C   0  0  0  0  0  0  0  0  0  0  0  0
   40.9570   31.3420   44.8090 C   0  0  0  0  0  0  0  0  0  0  0  0
   40.1570   30.7560   43.9040 N   0  0  0  0  0  0  0  0  0  0  0  0
   38.9610   30.4660   44.4130 N   0  0  0  0  0  0  0  0  0  0  0  0
   37.8040   30.7310   46.6320 C   0  0  0  0  0  0  0  0  0  0  0  0
   38.0480   30.9890   47.9960 C   0  0  0  0  0  0  0  0  0  0  0  0
   36.9810   30.8740   48.8810 C   0  0  0  0  0  0  0  0  0  0  0  0
   35.7600   30.5170   48.3770 N   0  0  0  0  0  0  0  0  0  0  0  0
   35.5500   30.2750   47.0610 C   0  0  0  0  0  0  0  0  0  0  0  0
   36.5820   30.3860   46.1990 N   0  0  0  0  0  0  0  0  0  0  0  0
   37.2070   31.1380   50.3240 C   0  0  0  0  0  0  0  0  0  0  0  0
   36.6940   32.3890   50.5620 F   0  0  0  0  0  0  0  0  0  0  0  0
   36.5560   30.2200   51.1480 F   0  0  0  0  0  0  0  0  0  0  0  0
   38.5640   31.1610   50.6360 F   0  0  0  0  0  0  0  0  0  0  0  0
   40.4460   30.4260   42.5030 C   0  0  0  0  0  0  0  0  0  0  0  0
   40.0990   31.2920   41.4530 C   0  0  0  0  0  0  0  0  0  0  0  0
   40.3750   30.9500   40.1900 C   0  0  0  0  0  0  0  0  0  0  0  0
   41.0210   29.7040   39.9240 C   0  0  0  0  0  0  0  0  0  0  0  0
   41.2240   29.0180   41.6470 S   0  0  0  0  0  0  0  0  0  0  0  0
   41.4580   29.0240   38.7700 C   0  0  0  0  0  0  0  0  0  0  0  0
   42.8020   29.5480   38.3800 C   0  0  0  0  0  0  0  0  0  0  0  0
   43.9090   28.5480   38.7220 C   0  0  0  0  0  0  0  0  0  0  0  0
   43.6770   27.3560   37.7870 C   0  0  0  0  0  0  0  0  0  0  0  0
   42.2920   26.7880   37.9900 C   0  0  0  0  0  0  0  0  0  0  0  0
   41.5100   27.5360   39.0360 C   0  0  0  0  0  0  0  0  0  0  0  0
   40.4565   31.8186   46.9177 H   0  0  0  0  0  0  0  0  0  0  0  0
   41.9924   31.6922   44.6850 H   0  0  0  0  0  0  0  0  0  0  0  0
   39.0504   31.2723   48.3495 H   0  0  0  0  0  0  0  0  0  0  0  0
   34.5505   29.9915   46.6995 H   0  0  0  0  0  0  0  0  0  0  0  0
   39.6015   32.2490   41.6690 H   0  0  0  0  0  0  0  0  0  0  0  0
   40.1066   31.6230   39.3623 H   0  0  0  0  0  0  0  0  0  0  0  0
   40.7543   29.1939   37.9418 H   0  0  0  0  0  0  0  0  0  0  0  0
   42.9899   30.4887   38.9183 H   0  0  0  0  0  0  0  0  0  0  0  0
   42.8079   29.7142   37.2926 H   0  0  0  0  0  0  0  0  0  0  0  0
   44.8991   28.9922   38.5422 H   0  0  0  0  0  0  0  0  0  0  0  0
   43.8820   28.2512   39.7808 H   0  0  0  0  0  0  0  0  0  0  0  0
   44.4232   26.5767   38.0015 H   0  0  0  0  0  0  0  0  0  0  0  0
   43.7736   27.6960   36.7453 H   0  0  0  0  0  0  0  0  0  0  0  0
   41.7459   26.8406   37.0366 H   0  0  0  0  0  0  0  0  0  0  0  0
   42.4039   25.7496   38.3352 H   0  0  0  0  0  0  0  0  0  0  0  0
   41.9826   27.3695   40.0153 H   0  0  0  0  0  0  0  0  0  0  0  0
   40.4774   27.1574   39.0141 H   0  0  0  0  0  0  0  0  0  0  0  0
  1  2  1  0
  1  6  1  0
  3  2  2  0
  4  5  1  0
  4  3  1  0
  5  1  2  0
  6  7  2  0
  7  8  1  0
  8 12  1  0
  9  8  2  0
 10  9  1  0
 11  6  1  0
 11 10  2  0
 12 13  1  0
 12 15  1  0
 12 14  1  0
 16  4  1  0
 17 16  2  0
 18 17  1  0
 19 18  2  0
 19 20  1  0
 20 16  1  0
 21 26  1  0
 21 19  1  0
 22 23  1  0
 22 21  1  0
 24 25  1  0
 24 23  1  0
 25 26  1  0
  2 27  1  0
  3 28  1  0
  7 29  1  0
 10 30  1  0
 17 31  1  0
 18 32  1  0
 21 33  1  0
 22 34  1  0
 22 35  1  0
 23 36  1  0
 23 37  1  0
 24 38  1  0
 24 39  1  0
 25 40  1  0
 25 41  1  0
 26 42  1  0
 26 43  1  0
M  ISO  8  27  14  28  14  29  14  30  14  31  14  32  14  33  13  34  13
M  ISO  8  35  13  36  13  37  13  38  13  39  13  40  13  41  13  42  13
M  ISO  1  43  13
M  END
>  <minimizedAffinity>  (1) 
-6.26979113

>  <minimizedRMSD>  (1) 
0.448499739

$$$$
