
     RDKit          3D

 35 37  0  0  0  0  0  0  0  0999 V2000
   35.7370   30.0080   50.0170 C   0  0  0  0  0  0  0  0  0  0  0  0
   36.5000   29.7110   51.1370 C   0  0  0  0  0  0  0  0  0  0  0  0
   37.6760   30.4110   50.9120 C   0  0  0  0  0  0  0  0  0  0  0  0
   37.5800   31.0740   49.7140 C   0  0  0  0  0  0  0  0  0  0  0  0
   36.3960   30.8120   49.1960 O   0  0  0  0  0  0  0  0  0  0  0  0
   38.5890   31.9450   49.0620 C   0  0  0  0  0  0  0  0  0  0  0  0
   38.4070   33.3850   49.4830 C   0  0  0  0  0  0  0  0  0  0  0  0
   39.5810   34.1850   48.9740 C   0  0  0  0  0  0  0  0  0  0  0  0
   39.7900   34.0380   47.4920 C   0  0  0  0  0  0  0  0  0  0  0  0
   39.5910   32.6610   46.9700 C   0  0  0  0  0  0  0  0  0  0  0  0
   38.4250   31.9200   47.5550 C   0  0  0  0  0  0  0  0  0  0  0  0
   34.3760   29.4850   49.7970 C   0  0  0  0  0  0  0  0  0  0  0  0
   33.5250   29.6510   50.6970 O   0  0  0  0  0  0  0  0  0  0  0  0
   33.8210   26.7770   47.4370 C   0  0  0  0  0  0  0  0  0  0  0  0
   33.4940   27.4470   46.2440 C   0  0  0  0  0  0  0  0  0  0  0  0
   33.4620   28.8370   46.2430 C   0  0  0  0  0  0  0  0  0  0  0  0
   33.7550   29.4550   47.4170 N   0  0  0  0  0  0  0  0  0  0  0  0
   34.0630   28.7940   48.5420 C   0  0  0  0  0  0  0  0  0  0  0  0
   34.0950   27.4590   48.5460 N   0  0  0  0  0  0  0  0  0  0  0  0
   36.2364   29.0750   51.9949 H   0  0  0  0  0  0  0  0  0  0  0  0
   38.5457   30.4315   51.5853 H   0  0  0  0  0  0  0  0  0  0  0  0
   39.5768   31.5652   49.3621 H   0  0  0  0  0  0  0  0  0  0  0  0
   37.4744   33.7816   49.0552 H   0  0  0  0  0  0  0  0  0  0  0  0
   38.3518   33.4529   50.5795 H   0  0  0  0  0  0  0  0  0  0  0  0
   39.4066   35.2472   49.2003 H   0  0  0  0  0  0  0  0  0  0  0  0
   40.4830   33.8029   49.4744 H   0  0  0  0  0  0  0  0  0  0  0  0
   39.0817   34.7047   46.9784 H   0  0  0  0  0  0  0  0  0  0  0  0
   40.8425   34.2937   47.3000 H   0  0  0  0  0  0  0  0  0  0  0  0
   39.4413   32.7274   45.8823 H   0  0  0  0  0  0  0  0  0  0  0  0
   40.4888   32.0930   47.2553 H   0  0  0  0  0  0  0  0  0  0  0  0
   37.4838   32.4128   47.2700 H   0  0  0  0  0  0  0  0  0  0  0  0
   38.3929   30.8854   47.1826 H   0  0  0  0  0  0  0  0  0  0  0  0
   33.8505   25.6775   47.4531 H   0  0  0  0  0  0  0  0  0  0  0  0
   33.2676   26.8812   45.3282 H   0  0  0  0  0  0  0  0  0  0  0  0
   33.2119   29.4080   45.3367 H   0  0  0  0  0  0  0  0  0  0  0  0
  1  2  2  0
  3  2  1  0
  4  3  2  0
  5  4  1  0
  5  1  1  0
  6  7  1  0
  6  4  1  0
  8  7  1  0
  9  8  1  0
 10  9  1  0
 10 11  1  0
 11  6  1  0
 12  1  1  0
 12 13  2  0
 14 19  2  0
 15 14  1  0
 16 15  2  0
 16 17  1  0
 17 18  2  0
 18 19  1  0
 18 12  1  0
  2 20  1  0
  3 21  1  0
  6 22  1  0
  7 23  1  0
  7 24  1  0
  8 25  1  0
  8 26  1  0
  9 27  1  0
  9 28  1  0
 10 29  1  0
 10 30  1  0
 11 31  1  0
 11 32  1  0
 14 33  1  0
 15 34  1  0
 16 35  1  0
M  ISO  8  20  14  21  14  22  13  23  13  24  13  25  13  26  13  27  13
M  ISO  8  28  13  29  13  30  13  31  13  32  13  33  14  34  14  35  14
M  END
>  <minimizedAffinity>  (1) 
-5.89834166

>  <minimizedRMSD>  (1) 
2.30636692

$$$$
