
     RDKit          3D

 35 37  0  0  1  0  0  0  0  0999 V2000
   37.2990   31.6640   46.4130 C   0  0  2  0  0  0  0  0  0  0  0  0
   36.6550   30.5110   45.5720 C   0  0  0  0  0  0  0  0  0  0  0  0
   37.4790   31.6450   45.0060 C   0  0  2  0  0  0  0  0  0  0  0  0
   38.5790   31.2050   44.1590 C   0  0  0  0  0  0  0  0  0  0  0  0
   38.7060   29.7020   44.3360 C   0  0  0  0  0  0  0  0  0  0  0  0
   39.2950   29.0400   43.1150 C   0  0  0  0  0  0  0  0  0  0  0  0
   40.3610   29.9790   42.6020 C   0  0  0  0  0  0  0  0  0  0  0  0
   40.9470   30.7080   43.7730 C   0  0  0  0  0  0  0  0  0  0  0  0
   39.9440   31.7570   44.3040 C   0  0  0  0  0  0  0  0  0  0  0  0
   38.2070   31.1240   47.4470 C   0  0  0  0  0  0  0  0  0  0  0  0
   39.4480   31.1870   47.1720 O   0  0  0  0  0  0  0  0  0  0  0  0
   37.6740   30.4160   51.0670 C   0  0  0  0  0  0  0  0  0  0  0  0
   38.1720   30.9970   49.9110 C   0  0  0  0  0  0  0  0  0  0  0  0
   37.6920   30.5640   48.6700 C   0  0  0  0  0  0  0  0  0  0  0  0
   36.7700   29.6030   48.6490 N   0  0  0  0  0  0  0  0  0  0  0  0
   36.3020   29.0540   49.8130 C   0  0  0  0  0  0  0  0  0  0  0  0
   36.7400   29.4460   50.9970 N   0  0  0  0  0  0  0  0  0  0  0  0
   37.0450   32.5227   47.0518 H   0  0  0  0  0  0  0  0  0  0  0  0
   37.0581   29.4885   45.6158 H   0  0  0  0  0  0  0  0  0  0  0  0
   35.6511   30.0883   45.4183 H   0  0  0  0  0  0  0  0  0  0  0  0
   37.4087   32.5210   44.3444 H   0  0  0  0  0  0  0  0  0  0  0  0
   38.2696   31.5928   43.1772 H   0  0  0  0  0  0  0  0  0  0  0  0
   39.3568   29.4992   45.1994 H   0  0  0  0  0  0  0  0  0  0  0  0
   37.6981   29.2908   44.4942 H   0  0  0  0  0  0  0  0  0  0  0  0
   39.7381   28.0696   43.3833 H   0  0  0  0  0  0  0  0  0  0  0  0
   38.5265   28.8492   42.3514 H   0  0  0  0  0  0  0  0  0  0  0  0
   41.1471   29.4052   42.0894 H   0  0  0  0  0  0  0  0  0  0  0  0
   39.9255   30.6943   41.8888 H   0  0  0  0  0  0  0  0  0  0  0  0
   41.1765   29.9875   44.5719 H   0  0  0  0  0  0  0  0  0  0  0  0
   41.8668   31.2199   43.4538 H   0  0  0  0  0  0  0  0  0  0  0  0
   40.0338   32.6862   43.7222 H   0  0  0  0  0  0  0  0  0  0  0  0
   40.1529   31.9824   45.3602 H   0  0  0  0  0  0  0  0  0  0  0  0
   38.0434   30.7487   52.0483 H   0  0  0  0  0  0  0  0  0  0  0  0
   38.9344   31.7879   49.9686 H   0  0  0  0  0  0  0  0  0  0  0  0
   35.5390   28.2634   49.7612 H   0  0  0  0  0  0  0  0  0  0  0  0
  1 10  1  0
  2  1  1  0
  3  2  1  0
  3  1  1  0
  4  9  1  0
  4  5  1  0
  4  3  1  0
  6  5  1  0
  7  6  1  0
  7  8  1  0
  8  9  1  0
 10 14  1  0
 11 10  2  0
 13 12  2  0
 14 13  1  0
 15 14  2  0
 15 16  1  0
 16 17  2  0
 17 12  1  0
  1 18  1  1
  2 19  1  0
  2 20  1  0
  3 21  1  6
  4 22  1  0
  5 23  1  0
  5 24  1  0
  6 25  1  0
  6 26  1  0
  7 27  1  0
  7 28  1  0
  8 29  1  0
  8 30  1  0
  9 31  1  0
  9 32  1  0
 12 33  1  0
 13 34  1  0
 16 35  1  0
M  ISO  8  18  13  19  13  20  13  21  13  22  13  23  13  24  13  25  13
M  ISO  8  26  13  27  13  28  13  29  13  30  13  31  13  32  13  33  14
M  ISO  2  34  14  35  14
M  END
>  <minimizedAffinity>  (1) 
-4.42843437

>  <minimizedRMSD>  (1) 
3.49091554

$$$$
