
     RDKit          3D

 39 41  0  0  0  0  0  0  0  0999 V2000
   36.2870   30.4610   46.6710 C   0  0  0  0  0  0  0  0  0  0  0  0
   34.9620   30.0410   46.6740 C   0  0  0  0  0  0  0  0  0  0  0  0
   34.2820   29.7980   45.5080 C   0  0  0  0  0  0  0  0  0  0  0  0
   34.9070   29.9670   44.2640 C   0  0  0  0  0  0  0  0  0  0  0  0
   36.2140   30.3820   44.2460 C   0  0  0  0  0  0  0  0  0  0  0  0
   36.8660   30.6160   45.4420 C   0  0  0  0  0  0  0  0  0  0  0  0
   37.3910   30.2630   50.1440 C   0  0  0  0  0  0  0  0  0  0  0  0
   38.2250   31.3750   50.2730 C   0  0  0  0  0  0  0  0  0  0  0  0
   38.4060   32.1810   49.1390 C   0  0  0  0  0  0  0  0  0  0  0  0
   37.7520   31.8100   48.0120 N   0  0  0  0  0  0  0  0  0  0  0  0
   36.9580   30.7370   47.9230 C   0  0  0  0  0  0  0  0  0  0  0  0
   36.7800   29.9660   48.9920 N   0  0  0  0  0  0  0  0  0  0  0  0
   37.1900   29.4030   51.3740 C   0  0  0  0  0  0  0  0  0  0  0  0
   35.8250   29.1430   51.5270 F   0  0  0  0  0  0  0  0  0  0  0  0
   37.9180   28.2800   51.2220 F   0  0  0  0  0  0  0  0  0  0  0  0
   37.5670   30.1410   52.4750 F   0  0  0  0  0  0  0  0  0  0  0  0
   38.2720   31.0630   45.2410 C   0  0  0  0  0  0  0  0  0  0  0  0
   38.2140   32.2220   44.2970 C   0  0  0  0  0  0  0  0  0  0  0  0
   39.4800   32.5350   43.5630 C   0  0  0  0  0  0  0  0  0  0  0  0
   40.5080   31.4300   43.5870 C   0  0  0  0  0  0  0  0  0  0  0  0
   39.6740   30.1600   43.3690 C   0  0  0  0  0  0  0  0  0  0  0  0
   39.0220   29.8720   44.6760 C   0  0  0  0  0  0  0  0  0  0  0  0
   34.4461   29.9000   47.6352 H   0  0  0  0  0  0  0  0  0  0  0  0
   33.2339   29.4666   45.5491 H   0  0  0  0  0  0  0  0  0  0  0  0
   34.3635   29.7719   43.3278 H   0  0  0  0  0  0  0  0  0  0  0  0
   36.7379   30.5271   43.2897 H   0  0  0  0  0  0  0  0  0  0  0  0
   38.7208   31.6101   51.2264 H   0  0  0  0  0  0  0  0  0  0  0  0
   39.0492   33.0730   49.1638 H   0  0  0  0  0  0  0  0  0  0  0  0
   38.7868   31.3904   46.1563 H   0  0  0  0  0  0  0  0  0  0  0  0
   37.4357   32.0085   43.5495 H   0  0  0  0  0  0  0  0  0  0  0  0
   38.0084   33.1034   44.9222 H   0  0  0  0  0  0  0  0  0  0  0  0
   39.9281   33.4308   44.0177 H   0  0  0  0  0  0  0  0  0  0  0  0
   39.2021   32.6804   42.5087 H   0  0  0  0  0  0  0  0  0  0  0  0
   41.2442   31.5603   42.7801 H   0  0  0  0  0  0  0  0  0  0  0  0
   41.0893   31.4058   44.5205 H   0  0  0  0  0  0  0  0  0  0  0  0
   38.9146   30.3295   42.5915 H   0  0  0  0  0  0  0  0  0  0  0  0
   40.2986   29.3185   43.0347 H   0  0  0  0  0  0  0  0  0  0  0  0
   38.3112   29.0439   44.5379 H   0  0  0  0  0  0  0  0  0  0  0  0
   39.8180   29.6161   45.3907 H   0  0  0  0  0  0  0  0  0  0  0  0
  1  2  2  0
  1 11  1  0
  3  2  1  0
  4  3  2  0
  5  4  1  0
  5  6  2  0
  6  1  1  0
  7  8  2  0
  7 13  1  0
  9  8  1  0
 10  9  2  0
 11 10  1  0
 11 12  2  0
 12  7  1  0
 13 14  1  0
 13 16  1  0
 15 13  1  0
 17  6  1  0
 18 17  1  0
 19 20  1  0
 19 18  1  0
 21 20  1  0
 21 22  1  0
 22 17  1  0
  2 23  1  0
  3 24  1  0
  4 25  1  0
  5 26  1  0
  8 27  1  0
  9 28  1  0
 17 29  1  0
 18 30  1  0
 18 31  1  0
 19 32  1  0
 19 33  1  0
 20 34  1  0
 20 35  1  0
 21 36  1  0
 21 37  1  0
 22 38  1  0
 22 39  1  0
M  ISO  8  23  14  24  14  25  14  26  14  27  14  28  14  29  13  30  13
M  ISO  8  31  13  32  13  33  13  34  13  35  13  36  13  37  13  38  13
M  ISO  1  39  13
M  END
>  <minimizedAffinity>  (1) 
-6.66028547

>  <minimizedRMSD>  (1) 
0.963429749

$$$$
