
     RDKit          3D

 42 44  0  0  0  0  0  0  0  0999 V2000
   39.7100   31.9620   46.7590 C   0  0  0  0  0  0  0  0  0  0  0  0
   39.7300   31.9180   45.3310 C   0  0  0  0  0  0  0  0  0  0  0  0
   39.5480   33.0540   44.6110 C   0  0  0  0  0  0  0  0  0  0  0  0
   39.5550   33.0770   43.2130 C   0  0  0  0  0  0  0  0  0  0  0  0
   39.7650   31.8250   42.6270 N   0  0  0  0  0  0  0  0  0  0  0  0
   39.9430   30.7120   43.3540 C   0  0  0  0  0  0  0  0  0  0  0  0
   39.9220   30.7830   44.7020 N   0  0  0  0  0  0  0  0  0  0  0  0
   40.1610   29.4180   42.6410 C   0  0  0  0  0  0  0  0  0  0  0  0
   39.0280   29.1400   41.7070 C   0  0  0  0  0  0  0  0  0  0  0  0
   39.3430   29.4110   40.2590 C   0  0  0  0  0  0  0  0  0  0  0  0
   40.5020   28.4570   39.9380 C   0  0  0  0  0  0  0  0  0  0  0  0
   41.6870   29.1150   40.6330 C   0  0  0  0  0  0  0  0  0  0  0  0
   41.5360   29.2730   42.0920 C   0  0  0  0  0  0  0  0  0  0  0  0
   38.5330   32.4410   47.4870 C   0  0  0  0  0  0  0  0  0  0  0  0
   37.8500   31.4270   48.3200 C   0  0  0  0  0  0  0  0  0  0  0  0
   36.8650   30.6180   47.7780 C   0  0  0  0  0  0  0  0  0  0  0  0
   36.4210   29.7920   48.7750 C   0  0  0  0  0  0  0  0  0  0  0  0
   37.1080   30.0890   49.8720 N   0  0  0  0  0  0  0  0  0  0  0  0
   37.9460   31.0580   49.5830 N   0  0  0  0  0  0  0  0  0  0  0  0
   36.9900   29.4780   51.1970 C   0  0  0  0  0  0  0  0  0  0  0  0
   37.8060   28.3850   51.2940 F   0  0  0  0  0  0  0  0  0  0  0  0
   35.6960   29.1070   51.4840 F   0  0  0  0  0  0  0  0  0  0  0  0
   37.4070   30.3730   52.1850 F   0  0  0  0  0  0  0  0  0  0  0  0
   40.5481   32.6065   47.0628 H   0  0  0  0  0  0  0  0  0  0  0  0
   39.7436   30.8970   47.0320 H   0  0  0  0  0  0  0  0  0  0  0  0
   39.3879   33.9987   45.1513 H   0  0  0  0  0  0  0  0  0  0  0  0
   39.4086   33.9966   42.6274 H   0  0  0  0  0  0  0  0  0  0  0  0
   40.1325   28.5950   43.3703 H   0  0  0  0  0  0  0  0  0  0  0  0
   38.7497   28.0805   41.8074 H   0  0  0  0  0  0  0  0  0  0  0  0
   38.2119   29.8224   41.9868 H   0  0  0  0  0  0  0  0  0  0  0  0
   38.4719   29.1936   39.6234 H   0  0  0  0  0  0  0  0  0  0  0  0
   39.6023   30.4641   40.0753 H   0  0  0  0  0  0  0  0  0  0  0  0
   40.3123   27.4528   40.3449 H   0  0  0  0  0  0  0  0  0  0  0  0
   40.6579   28.3105   38.8590 H   0  0  0  0  0  0  0  0  0  0  0  0
   42.5792   28.4995   40.4455 H   0  0  0  0  0  0  0  0  0  0  0  0
   41.7665   30.1303   40.2171 H   0  0  0  0  0  0  0  0  0  0  0  0
   41.9851   28.3872   42.5650 H   0  0  0  0  0  0  0  0  0  0  0  0
   42.0235   30.2333   42.3159 H   0  0  0  0  0  0  0  0  0  0  0  0
   38.8514   33.2630   48.1449 H   0  0  0  0  0  0  0  0  0  0  0  0
   37.8049   32.7468   46.7213 H   0  0  0  0  0  0  0  0  0  0  0  0
   36.5059   30.6360   46.7384 H   0  0  0  0  0  0  0  0  0  0  0  0
   35.6391   29.0236   48.6843 H   0  0  0  0  0  0  0  0  0  0  0  0
  1 14  1  0
  2  1  1  0
  3  2  2  0
  4  3  1  0
  5  4  2  0
  5  6  1  0
  6  7  2  0
  7  2  1  0
  8  6  1  0
  9  8  1  0
 10  9  1  0
 11 10  1  0
 11 12  1  0
 12 13  1  0
 13  8  1  0
 14 15  1  0
 15 19  2  0
 16 15  1  0
 16 17  2  0
 17 18  1  0
 18 20  1  0
 19 18  1  0
 20 21  1  0
 20 22  1  0
 20 23  1  0
  1 24  1  0
  1 25  1  0
  3 26  1  0
  4 27  1  0
  8 28  1  0
  9 29  1  0
  9 30  1  0
 10 31  1  0
 10 32  1  0
 11 33  1  0
 11 34  1  0
 12 35  1  0
 12 36  1  0
 13 37  1  0
 13 38  1  0
 14 39  1  0
 14 40  1  0
 16 41  1  0
 17 42  1  0
M  ISO  8  24   8  25   8  26  14  27  14  28  13  29  13  30  13  31  13
M  ISO  8  32  13  33  13  34  13  35  13  36  13  37  13  38  13  39   8
M  ISO  3  40   8  41  14  42  14
M  END
>  <minimizedAffinity>  (1) 
-6.07415771

>  <minimizedRMSD>  (1) 
0.743228018

$$$$
