
     RDKit          3D

 29 31  0  0  1  0  0  0  0  0999 V2000
   38.8170   31.5290   48.4110 C   0  0  2  0  0  0  0  0  0  0  0  0
   38.7330   33.0040   48.4070 C   0  0  0  0  0  0  0  0  0  0  0  0
   38.3080   32.2010   47.2040 C   0  0  1  0  0  0  0  0  0  0  0  0
   36.0840   29.1780   49.3820 C   0  0  0  0  0  0  0  0  0  0  0  0
   36.1500   29.2410   50.7770 C   0  0  0  0  0  0  0  0  0  0  0  0
   37.1210   30.0890   51.3840 C   0  0  0  0  0  0  0  0  0  0  0  0
   37.9370   30.7950   50.5760 N   0  0  0  0  0  0  0  0  0  0  0  0
   37.8500   30.7150   49.2190 C   0  0  0  0  0  0  0  0  0  0  0  0
   36.9310   29.9130   48.6170 N   0  0  0  0  0  0  0  0  0  0  0  0
   39.1110   32.2310   45.9260 C   0  0  0  0  0  0  0  0  0  0  0  0
   39.8490   30.9460   45.7900 C   0  0  0  0  0  0  0  0  0  0  0  0
   39.1950   29.9240   44.9220 C   0  0  0  0  0  0  0  0  0  0  0  0
   37.7940   30.2380   44.5200 C   0  0  0  0  0  0  0  0  0  0  0  0
   37.7490   31.6010   43.9110 C   0  0  0  0  0  0  0  0  0  0  0  0
   38.3380   32.6880   44.7470 C   0  0  0  0  0  0  0  0  0  0  0  0
   39.6296   30.8211   48.6313 H   0  0  0  0  0  0  0  0  0  0  0  0
   37.9797   33.5162   49.0236 H   0  0  0  0  0  0  0  0  0  0  0  0
   39.4375   33.8290   48.5888 H   0  0  0  0  0  0  0  0  0  0  0  0
   37.3943   32.1253   46.5962 H   0  0  0  0  0  0  0  0  0  0  0  0
   35.3394   28.5273   48.9001 H   0  0  0  0  0  0  0  0  0  0  0  0
   35.4632   28.6454   51.3963 H   0  0  0  0  0  0  0  0  0  0  0  0
   37.2022   30.1652   52.4783 H   0  0  0  0  0  0  0  0  0  0  0  0
   39.8757   33.0197   45.9814 H   0  0  0  0  0  0  0  0  0  0  0  0
   40.8093   30.7626   46.2941 H   0  0  0  0  0  0  0  0  0  0  0  0
   39.7090   29.0057   44.6019 H   0  0  0  0  0  0  0  0  0  0  0  0
   37.4473   29.4959   43.7858 H   0  0  0  0  0  0  0  0  0  0  0  0
   37.1412   30.2080   45.4048 H   0  0  0  0  0  0  0  0  0  0  0  0
   37.3135   31.7899   42.9187 H   0  0  0  0  0  0  0  0  0  0  0  0
   38.2076   33.7531   44.5052 H   0  0  0  0  0  0  0  0  0  0  0  0
  1  8  1  0
  2  1  1  0
  3  2  1  0
  3  1  1  0
  4  5  2  0
  5  6  1  0
  7  6  2  0
  8  7  1  0
  9  8  2  0
  9  4  1  0
 10 15  1  0
 10  3  1  0
 11 10  1  0
 12 11  2  0
 13 12  1  0
 14 13  1  0
 14 15  2  0
  1 16  1  6
  2 17  1  0
  2 18  1  0
  3 19  1  6
  4 20  1  0
  5 21  1  0
  6 22  1  0
 10 23  1  0
 11 24  1  0
 12 25  1  0
 13 26  1  0
 13 27  1  0
 14 28  1  0
 15 29  1  0
M  ISO  8  16  13  17  13  18  13  19  13  20  14  21  14  22  14  23  13
M  ISO  6  24  13  25  13  26  13  27  13  28  13  29  13
M  END
>  <minimizedAffinity>  (1) 
-5.32674026

>  <minimizedRMSD>  (1) 
6.37212133

$$$$
