
     RDKit          3D

 42 44  0  0  0  0  0  0  0  0999 V2000
   36.6430   29.4140   44.0720 Cl  0  0  0  0  0  0  0  0  0  0  0  0
   38.2870   29.8130   43.5140 C   0  0  0  0  0  0  0  0  0  0  0  0
   39.2940   30.3100   44.3440 C   0  0  0  0  0  0  0  0  0  0  0  0
   40.5160   30.5710   43.7680 C   0  0  0  0  0  0  0  0  0  0  0  0
   40.7380   30.3530   42.4300 C   0  0  0  0  0  0  0  0  0  0  0  0
   39.7610   29.8660   41.6020 C   0  0  0  0  0  0  0  0  0  0  0  0
   38.5430   29.5990   42.1470 C   0  0  0  0  0  0  0  0  0  0  0  0
   37.4580   29.0660   41.2600 C   0  0  0  0  0  0  0  0  0  0  0  0
   36.4210   30.1740   41.2020 C   0  0  0  0  0  0  0  0  0  0  0  0
   35.2380   29.6860   40.4290 C   0  0  0  0  0  0  0  0  0  0  0  0
   35.5170   28.4040   39.6820 C   0  0  0  0  0  0  0  0  0  0  0  0
   35.9670   27.2940   40.6080 C   0  0  0  0  0  0  0  0  0  0  0  0
   36.8370   27.8050   41.7460 C   0  0  0  0  0  0  0  0  0  0  0  0
   38.8800   30.4580   45.6380 O   0  0  0  0  0  0  0  0  0  0  0  0
   39.4430   32.5130   47.1020 O   0  0  0  0  0  0  0  0  0  0  0  0
   38.3010   31.8400   46.4110 P   0  0  1  0  0  0  0  0  0  0  0  0
   37.7160   32.8470   45.1670 O   0  0  0  0  0  0  0  0  0  0  0  0
   37.0240   31.4140   47.4390 O   0  0  0  0  0  0  0  0  0  0  0  0
   37.6160   30.5300   50.9820 C   0  0  0  0  0  0  0  0  0  0  0  0
   37.7030   31.2960   49.8180 C   0  0  0  0  0  0  0  0  0  0  0  0
   37.0730   30.8440   48.6610 C   0  0  0  0  0  0  0  0  0  0  0  0
   36.3930   29.6520   48.7370 N   0  0  0  0  0  0  0  0  0  0  0  0
   36.3320   28.9420   49.8800 C   0  0  0  0  0  0  0  0  0  0  0  0
   36.9420   29.3830   50.9930 N   0  0  0  0  0  0  0  0  0  0  0  0
   41.3326   30.9626   44.3923 H   0  0  0  0  0  0  0  0  0  0  0  0
   41.7301   30.5762   42.0107 H   0  0  0  0  0  0  0  0  0  0  0  0
   39.9547   29.6965   40.5325 H   0  0  0  0  0  0  0  0  0  0  0  0
   37.8781   28.8015   40.2784 H   0  0  0  0  0  0  0  0  0  0  0  0
   36.1105   30.4436   42.2222 H   0  0  0  0  0  0  0  0  0  0  0  0
   36.8484   31.0609   40.7113 H   0  0  0  0  0  0  0  0  0  0  0  0
   34.4080   29.5114   41.1294 H   0  0  0  0  0  0  0  0  0  0  0  0
   34.9877   30.4560   39.6844 H   0  0  0  0  0  0  0  0  0  0  0  0
   34.5985   28.0862   39.1668 H   0  0  0  0  0  0  0  0  0  0  0  0
   36.3285   28.5983   38.9653 H   0  0  0  0  0  0  0  0  0  0  0  0
   35.0774   26.8074   41.0345 H   0  0  0  0  0  0  0  0  0  0  0  0
   36.5686   26.5877   40.0171 H   0  0  0  0  0  0  0  0  0  0  0  0
   37.6148   27.0672   41.9922 H   0  0  0  0  0  0  0  0  0  0  0  0
   36.2452   27.9751   42.6575 H   0  0  0  0  0  0  0  0  0  0  0  0
   37.2604   33.6312   45.5640 H   0  0  0  0  0  0  0  0  0  0  0  0
   38.1104   30.8789   51.9006 H   0  0  0  0  0  0  0  0  0  0  0  0
   38.2615   32.2436   49.8147 H   0  0  0  0  0  0  0  0  0  0  0  0
   35.7776   27.9922   49.9025 H   0  0  0  0  0  0  0  0  0  0  0  0
  2  1  1  0
  2  3  2  0
  3 14  1  0
  4  3  1  0
  5  4  2  0
  6  7  2  0
  6  5  1  0
  7  2  1  0
  8 13  1  0
  8  7  1  0
  9  8  1  0
 10  9  1  0
 11 10  1  0
 11 12  1  0
 12 13  1  0
 14 16  1  0
 16 15  2  0
 16 18  1  0
 17 16  1  0
 18 21  1  0
 19 24  2  0
 20 19  1  0
 21 22  1  0
 21 20  2  0
 22 23  2  0
 23 24  1  0
  4 25  1  0
  5 26  1  0
  6 27  1  0
  8 28  1  0
  9 29  1  0
  9 30  1  0
 10 31  1  0
 10 32  1  0
 11 33  1  0
 11 34  1  0
 12 35  1  0
 12 36  1  0
 13 37  1  0
 13 38  1  0
 17 39  1  0
 19 40  1  0
 20 41  1  0
 23 42  1  0
M  ISO  8  25  14  26  14  27  14  28  13  29  13  30  13  31  13  32  13
M  ISO  8  33  13  34  13  35  13  36  13  37  13  38  13  39   3  40  14
M  ISO  2  41  14  42  14
M  END
>  <minimizedAffinity>  (1) 
-4.83107758

>  <minimizedRMSD>  (1) 
0.0765540227

$$$$
