
     RDKit          3D

 36 38  0  0  0  0  0  0  0  0999 V2000
   36.0380   30.4730   46.9770 C   0  0  0  0  0  0  0  0  0  0  0  0
   36.6780   30.5470   45.7060 C   0  0  0  0  0  0  0  0  0  0  0  0
   35.9780   30.1020   44.5770 C   0  0  0  0  0  0  0  0  0  0  0  0
   34.7200   29.6190   44.7490 N   0  0  0  0  0  0  0  0  0  0  0  0
   34.1250   29.5540   45.9650 C   0  0  0  0  0  0  0  0  0  0  0  0
   34.7790   29.9790   47.0750 N   0  0  0  0  0  0  0  0  0  0  0  0
   37.9900   31.0770   45.6670 N   0  0  0  0  0  0  0  0  0  0  0  0
   38.2640   32.3360   46.0960 C   0  0  0  0  0  0  0  0  0  0  0  0
   39.5700   32.8180   46.0420 C   0  0  0  0  0  0  0  0  0  0  0  0
   40.4810   31.9210   45.5340 C   0  0  0  0  0  0  0  0  0  0  0  0
   41.6760   32.3670   45.4870 O   0  0  0  0  0  0  0  0  0  0  0  0
   40.2480   30.6640   45.0980 N   0  0  0  0  0  0  0  0  0  0  0  0
   38.9610   30.2650   45.1800 C   0  0  0  0  0  0  0  0  0  0  0  0
   38.7190   29.1010   44.7800 O   0  0  0  0  0  0  0  0  0  0  0  0
   36.6260   30.8820   48.2490 C   0  0  0  0  0  0  0  0  0  0  0  0
   37.7040   29.9000   48.7290 C   0  0  0  0  0  0  0  0  0  0  0  0
   38.0250   30.3340   50.1530 C   0  0  0  0  0  0  0  0  0  0  0  0
   36.8910   29.7950   51.0260 C   0  0  0  0  0  0  0  0  0  0  0  0
   35.5850   29.8630   50.2800 C   0  0  0  0  0  0  0  0  0  0  0  0
   35.5490   31.0230   49.3050 C   0  0  0  0  0  0  0  0  0  0  0  0
   36.4351   30.1426   43.5773 H   0  0  0  0  0  0  0  0  0  0  0  0
   33.1042   29.1537   46.0525 H   0  0  0  0  0  0  0  0  0  0  0  0
   37.4567   32.9737   46.4852 H   0  0  0  0  0  0  0  0  0  0  0  0
   39.8486   33.8282   46.3765 H   0  0  0  0  0  0  0  0  0  0  0  0
   40.9947   30.0567   44.7312 H   0  0  0  0  0  0  0  0  0  0  0  0
   37.1108   31.8559   48.0860 H   0  0  0  0  0  0  0  0  0  0  0  0
   37.3213   28.8688   48.7159 H   0  0  0  0  0  0  0  0  0  0  0  0
   38.5935   29.9136   48.0820 H   0  0  0  0  0  0  0  0  0  0  0  0
   38.9881   29.9101   50.4734 H   0  0  0  0  0  0  0  0  0  0  0  0
   38.1071   31.4282   50.2310 H   0  0  0  0  0  0  0  0  0  0  0  0
   37.1032   28.7492   51.2929 H   0  0  0  0  0  0  0  0  0  0  0  0
   36.8168   30.4068   51.9371 H   0  0  0  0  0  0  0  0  0  0  0  0
   35.4452   28.9254   49.7220 H   0  0  0  0  0  0  0  0  0  0  0  0
   34.7805   30.0115   51.0153 H   0  0  0  0  0  0  0  0  0  0  0  0
   35.7078   31.9612   49.8569 H   0  0  0  0  0  0  0  0  0  0  0  0
   34.5689   31.0291   48.8056 H   0  0  0  0  0  0  0  0  0  0  0  0
  1  6  1  0
  1 15  1  0
  2  1  2  0
  3  4  2  0
  3  2  1  0
  4  5  1  0
  5  6  2  0
  7  2  1  0
  7  8  1  0
  9  8  2  0
 10  9  1  0
 11 10  2  0
 12 13  1  0
 12 10  1  0
 13  7  1  0
 14 13  2  0
 15 16  1  0
 15 20  1  0
 16 17  1  0
 17 18  1  0
 19 18  1  0
 20 19  1  0
  3 21  1  0
  5 22  1  0
  8 23  1  0
  9 24  1  0
 12 25  1  0
 15 26  1  0
 16 27  1  0
 16 28  1  0
 17 29  1  0
 17 30  1  0
 18 31  1  0
 18 32  1  0
 19 33  1  0
 19 34  1  0
 20 35  1  0
 20 36  1  0
M  ISO  8  21  14  22  14  23  14  24  14  25   9  26  13  27  13  28  13
M  ISO  8  29  13  30  13  31  13  32  13  33  13  34  13  35  13  36  13
M  END
>  <minimizedAffinity>  (1) 
-5.69077444

>  <minimizedRMSD>  (1) 
3.23777699

$$$$
