
     RDKit          3D

 53 57  0  0  1  0  0  0  0  0999 V2000
   38.0850   31.5380   44.8370 N   0  0  0  0  0  0  0  0  0  0  0  0
   38.1880   32.5480   43.8040 C   0  0  0  0  0  0  0  0  0  0  0  0
   39.5340   33.1710   43.7260 C   0  0  0  0  0  0  0  0  0  0  0  0
   40.5290   32.2750   44.2680 N   0  0  0  0  0  0  0  0  0  0  0  0
   40.2890   32.1930   45.7050 C   0  0  0  0  0  0  0  0  0  0  0  0
   39.1080   31.2910   45.8720 C   0  0  1  0  0  0  0  0  0  0  0  0
   38.3810   32.5050   47.9740 C   0  0  0  0  0  0  0  0  0  0  0  0
   38.5430   31.3320   47.2360 C   0  0  0  0  0  0  0  0  0  0  0  0
   38.1310   30.1210   47.7570 C   0  0  0  0  0  0  0  0  0  0  0  0
   37.5580   30.1230   49.0080 C   0  0  0  0  0  0  0  0  0  0  0  0
   37.4020   31.3210   49.7450 C   0  0  0  0  0  0  0  0  0  0  0  0
   37.8190   32.5600   49.2340 C   0  0  0  0  0  0  0  0  0  0  0  0
   36.7990   31.0400   50.9900 O   0  0  0  0  0  0  0  0  0  0  0  0
   36.2330   29.7610   50.8650 C   0  0  0  0  0  0  0  0  0  0  0  0
   37.0200   29.1440   49.8460 O   0  0  0  0  0  0  0  0  0  0  0  0
   36.7990   29.6220   43.9840 C   0  0  0  0  0  0  0  0  0  0  0  0
   36.9200   30.7130   44.8690 C   0  0  0  0  0  0  0  0  0  0  0  0
   35.8930   30.9290   45.7570 C   0  0  0  0  0  0  0  0  0  0  0  0
   34.8200   30.0750   45.7310 N   0  0  0  0  0  0  0  0  0  0  0  0
   34.7350   29.0480   44.8810 C   0  0  0  0  0  0  0  0  0  0  0  0
   35.7220   28.8110   44.0000 N   0  0  0  0  0  0  0  0  0  0  0  0
   33.5470   28.1260   44.8740 C   0  0  0  0  0  0  0  0  0  0  0  0
   33.8200   26.7940   44.2890 C   0  0  0  0  0  0  0  0  0  0  0  0
   34.3780   25.7540   45.1930 C   0  0  0  0  0  0  0  0  0  0  0  0
   33.6550   25.7160   46.5310 C   0  0  0  0  0  0  0  0  0  0  0  0
   33.8140   27.1230   47.1100 C   0  0  0  0  0  0  0  0  0  0  0  0
   33.0070   28.0520   46.2570 C   0  0  0  0  0  0  0  0  0  0  0  0
   37.9627   32.0803   42.8342 H   0  0  0  0  0  0  0  0  0  0  0  0
   37.4730   33.3455   44.0546 H   0  0  0  0  0  0  0  0  0  0  0  0
   39.7740   33.3877   42.6746 H   0  0  0  0  0  0  0  0  0  0  0  0
   39.5332   34.1031   44.3101 H   0  0  0  0  0  0  0  0  0  0  0  0
   40.4367   31.3428   43.8399 H   0  0  0  0  0  0  0  0  0  0  0  0
   41.1673   31.7721   46.2163 H   0  0  0  0  0  0  0  0  0  0  0  0
   40.1040   33.1858   46.1411 H   0  0  0  0  0  0  0  0  0  0  0  0
   39.4757   30.2641   45.7297 H   0  0  0  0  0  0  0  0  0  0  0  0
   38.7235   33.4478   47.5224 H   0  0  0  0  0  0  0  0  0  0  0  0
   38.2567   29.1863   47.1908 H   0  0  0  0  0  0  0  0  0  0  0  0
   37.7069   33.5006   49.7932 H   0  0  0  0  0  0  0  0  0  0  0  0
   36.3082   29.2041   51.8106 H   0  0  0  0  0  0  0  0  0  0  0  0
   35.1613   29.7899   50.6188 H   0  0  0  0  0  0  0  0  0  0  0  0
   37.6049   29.4273   43.2611 H   0  0  0  0  0  0  0  0  0  0  0  0
   35.9308   31.7655   46.4703 H   0  0  0  0  0  0  0  0  0  0  0  0
   32.7849   28.5457   44.2009 H   0  0  0  0  0  0  0  0  0  0  0  0
   32.8711   26.4085   43.8877 H   0  0  0  0  0  0  0  0  0  0  0  0
   34.6070   26.9699   43.5409 H   0  0  0  0  0  0  0  0  0  0  0  0
   34.2796   24.7716   44.7079 H   0  0  0  0  0  0  0  0  0  0  0  0
   35.4333   25.9993   45.3833 H   0  0  0  0  0  0  0  0  0  0  0  0
   32.5912   25.4750   46.3884 H   0  0  0  0  0  0  0  0  0  0  0  0
   34.0666   24.9460   47.2001 H   0  0  0  0  0  0  0  0  0  0  0  0
   33.4446   27.1473   48.1458 H   0  0  0  0  0  0  0  0  0  0  0  0
   34.8723   27.4228   47.1170 H   0  0  0  0  0  0  0  0  0  0  0  0
   33.0280   29.0570   46.7036 H   0  0  0  0  0  0  0  0  0  0  0  0
   31.9772   27.6686   46.2063 H   0  0  0  0  0  0  0  0  0  0  0  0
  1 17  1  0
  1  6  1  0
  2  1  1  0
  3  2  1  0
  3  4  1  0
  4  5  1  0
  5  6  1  0
  6  8  1  0
  7 12  2  0
  8  9  2  0
  8  7  1  0
  9 10  1  0
 10 11  2  0
 10 15  1  0
 11 13  1  0
 12 11  1  0
 14 13  1  0
 15 14  1  0
 16 21  2  0
 16 17  1  0
 17 18  2  0
 19 18  1  0
 20 19  2  0
 21 20  1  0
 22 20  1  0
 22 27  1  0
 23 22  1  0
 23 24  1  0
 24 25  1  0
 25 26  1  0
 27 26  1  0
  2 28  1  0
  2 29  1  0
  3 30  1  0
  3 31  1  0
  4 32  1  0
  5 33  1  0
  5 34  1  0
  6 35  1  6
  7 36  1  0
  9 37  1  0
 12 38  1  0
 14 39  1  0
 14 40  1  0
 16 41  1  0
 18 42  1  0
 22 43  1  0
 23 44  1  0
 23 45  1  0
 24 46  1  0
 24 47  1  0
 25 48  1  0
 25 49  1  0
 26 50  1  0
 26 51  1  0
 27 52  1  0
 27 53  1  0
M  ISO  8  28  13  29  13  30  13  31  13  32   5  33  13  34  13  35  13
M  ISO  8  36  14  37  14  38  14  39  13  40  13  41  14  42  14  43  13
M  ISO  8  44  13  45  13  46  13  47  13  48  13  49  13  50  13  51  13
M  ISO  2  52  13  53  13
M  END
>  <minimizedAffinity>  (1) 
-5.47290277

>  <minimizedRMSD>  (1) 
5.19060612

$$$$
