
     RDKit          3D

 25 27  0  0  0  0  0  0  0  0999 V2000
   37.1800   31.2210   49.6070 C   0  0  0  0  0  0  0  0  0  0  0  0
   36.2660   30.3490   49.0190 C   0  0  0  0  0  0  0  0  0  0  0  0
   35.8980   29.2640   49.8600 C   0  0  0  0  0  0  0  0  0  0  0  0
   36.4100   29.1290   51.1220 N   0  0  0  0  0  0  0  0  0  0  0  0
   37.2880   30.0210   51.6160 C   0  0  0  0  0  0  0  0  0  0  0  0
   37.6680   31.0680   50.8430 N   0  0  0  0  0  0  0  0  0  0  0  0
   37.5610   32.4120   48.7640 C   0  0  0  0  0  0  0  0  0  0  0  0
   38.7090   33.2300   49.0940 C   0  0  0  0  0  0  0  0  0  0  0  0
   38.9020   32.1800   48.0280 C   0  0  0  0  0  0  0  0  0  0  0  0
   35.6250   30.2430   47.7620 C   0  0  0  0  0  0  0  0  0  0  0  0
   36.1140   30.1750   46.4910 C   0  0  0  0  0  0  0  0  0  0  0  0
   35.4130   30.1390   45.3350 C   0  0  0  0  0  0  0  0  0  0  0  0
   34.0660   30.1760   45.4420 N   0  0  0  0  0  0  0  0  0  0  0  0
   33.4950   30.2460   46.6520 C   0  0  0  0  0  0  0  0  0  0  0  0
   34.2620   30.2760   47.7450 N   0  0  0  0  0  0  0  0  0  0  0  0
   35.1843   28.5145   49.4875 H   0  0  0  0  0  0  0  0  0  0  0  0
   37.6916   29.9024   52.6324 H   0  0  0  0  0  0  0  0  0  0  0  0
   36.5215   32.6888   48.5341 H   0  0  0  0  0  0  0  0  0  0  0  0
   38.7144   34.2936   48.8134 H   0  0  0  0  0  0  0  0  0  0  0  0
   39.2307   33.4624   50.0341 H   0  0  0  0  0  0  0  0  0  0  0  0
   39.5030   31.2812   48.2305 H   0  0  0  0  0  0  0  0  0  0  0  0
   39.2449   32.1579   46.9830 H   0  0  0  0  0  0  0  0  0  0  0  0
   37.2094   30.1460   46.3943 H   0  0  0  0  0  0  0  0  0  0  0  0
   35.9136   30.0825   44.3572 H   0  0  0  0  0  0  0  0  0  0  0  0
   32.3994   30.2786   46.7448 H   0  0  0  0  0  0  0  0  0  0  0  0
  1  6  2  0
  2  1  1  0
  2  3  2  0
  3  4  1  0
  4  5  2  0
  6  5  1  0
  7  8  1  0
  7  1  1  0
  9  7  1  0
  9  8  1  0
 10  2  1  0
 11 10  2  0
 12 13  2  0
 12 11  1  0
 13 14  1  0
 14 15  2  0
 15 10  1  0
  3 16  1  0
  5 17  1  0
  7 18  1  0
  8 19  1  0
  8 20  1  0
  9 21  1  0
  9 22  1  0
 11 23  1  0
 12 24  1  0
 14 25  1  0
M  ISO  8  16  14  17  14  18  13  19  13  20  13  21  13  22  13  23  14
M  ISO  2  24  14  25  14
M  END
>  <minimizedAffinity>  (1) 
-4.83834076

>  <minimizedRMSD>  (1) 
5.36882877

$$$$
