
     RDKit          3D

 34 37  0  0  0  0  0  0  0  0999 V2000
   34.2580   29.1850   49.4580 C   0  0  0  0  0  0  0  0  0  0  0  0
   34.8860   29.6230   48.2550 C   0  0  0  0  0  0  0  0  0  0  0  0
   34.4110   29.0940   47.0680 C   0  0  0  0  0  0  0  0  0  0  0  0
   33.3860   28.1970   47.1140 N   0  0  0  0  0  0  0  0  0  0  0  0
   32.8130   27.8010   48.2590 C   0  0  0  0  0  0  0  0  0  0  0  0
   33.2570   28.3010   49.4200 N   0  0  0  0  0  0  0  0  0  0  0  0
   36.0930   31.1260   49.7270 C   0  0  0  0  0  0  0  0  0  0  0  0
   35.9490   30.5840   48.4490 C   0  0  0  0  0  0  0  0  0  0  0  0
   36.8280   30.9950   47.4530 C   0  0  0  0  0  0  0  0  0  0  0  0
   37.8100   31.9350   47.7950 C   0  0  0  0  0  0  0  0  0  0  0  0
   38.7790   32.5110   47.0690 N   0  0  0  0  0  0  0  0  0  0  0  0
   39.4800   33.3480   47.8220 C   0  0  0  0  0  0  0  0  0  0  0  0
   38.9630   33.3230   49.0670 N   0  0  0  0  0  0  0  0  0  0  0  0
   37.9400   32.4560   49.0500 C   0  0  0  0  0  0  0  0  0  0  0  0
   37.0710   32.0500   50.0340 C   0  0  0  0  0  0  0  0  0  0  0  0
   31.6940   26.8200   48.2250 C   0  0  0  0  0  0  0  0  0  0  0  0
   30.4630   27.5910   48.5820 C   0  0  0  0  0  0  0  0  0  0  0  0
   29.8420   27.6230   49.8020 C   0  0  0  0  0  0  0  0  0  0  0  0
   28.7120   28.4100   49.9030 C   0  0  0  0  0  0  0  0  0  0  0  0
   28.2240   29.1200   48.8640 N   0  0  0  0  0  0  0  0  0  0  0  0
   28.8550   29.0670   47.6830 C   0  0  0  0  0  0  0  0  0  0  0  0
   29.9630   28.3080   47.5540 N   0  0  0  0  0  0  0  0  0  0  0  0
   34.6009   29.5786   50.4262 H   0  0  0  0  0  0  0  0  0  0  0  0
   34.8523   29.3918   46.1054 H   0  0  0  0  0  0  0  0  0  0  0  0
   35.4010   30.8046   50.5193 H   0  0  0  0  0  0  0  0  0  0  0  0
   36.7551   30.5957   46.4306 H   0  0  0  0  0  0  0  0  0  0  0  0
   38.9538   32.3296   46.0703 H   0  0  0  0  0  0  0  0  0  0  0  0
   40.3339   33.9563   47.4890 H   0  0  0  0  0  0  0  0  0  0  0  0
   37.1538   32.4561   51.0529 H   0  0  0  0  0  0  0  0  0  0  0  0
   31.5957   26.3863   47.2189 H   0  0  0  0  0  0  0  0  0  0  0  0
   31.8656   25.9868   48.9224 H   0  0  0  0  0  0  0  0  0  0  0  0
   30.2246   27.0499   50.6594 H   0  0  0  0  0  0  0  0  0  0  0  0
   28.1884   28.4604   50.8691 H   0  0  0  0  0  0  0  0  0  0  0  0
   28.4722   29.6384   46.8245 H   0  0  0  0  0  0  0  0  0  0  0  0
  2  8  1  0
  2  1  2  0
  3  4  2  0
  3  2  1  0
  4  5  1  0
  5  6  2  0
  6  1  1  0
  7 15  2  0
  8  7  1  0
  9 10  1  0
  9  8  2  0
 10 14  2  0
 11 10  1  0
 11 12  1  0
 12 13  2  0
 14 13  1  0
 14 15  1  0
 16  5  1  0
 16 17  1  0
 17 18  2  0
 18 19  1  0
 20 19  2  0
 21 20  1  0
 22 21  2  0
 22 17  1  0
  1 23  1  0
  3 24  1  0
  7 25  1  0
  9 26  1  0
 11 27  1  0
 12 28  1  0
 15 29  1  0
 16 30  1  0
 16 31  1  0
 18 32  1  0
 19 33  1  0
 21 34  1  0
M  ISO  8  23  14  24  14  25  14  26  14  27   9  28  14  29  14  30   8
M  ISO  4  31   8  32  14  33  14  34  14
M  END
>  <minimizedAffinity>  (1) 
-6.51603127

>  <minimizedRMSD>  (1) 
1.91590226

$$$$
