
     RDKit          3D

 44 47  0  0  1  0  0  0  0  0999 V2000
   37.1660   29.3280   50.3820 C   0  0  0  0  0  0  0  0  0  0  0  0
   37.3520   30.7090   50.6070 C   0  0  0  0  0  0  0  0  0  0  0  0
   36.6240   31.5840   49.8030 C   0  0  0  0  0  0  0  0  0  0  0  0
   35.7900   31.0610   48.8640 N   0  0  0  0  0  0  0  0  0  0  0  0
   35.6430   29.7520   48.6840 C   0  0  0  0  0  0  0  0  0  0  0  0
   36.3320   28.8860   49.4440 N   0  0  0  0  0  0  0  0  0  0  0  0
   34.7650   29.2660   47.6940 N   0  0  0  0  0  0  0  0  0  0  0  0
   34.1030   27.9540   47.7880 C   0  0  0  0  0  0  0  0  0  0  0  0
   32.6310   28.1280   47.6400 C   0  0  0  0  0  0  0  0  0  0  0  0
   32.1950   29.3580   47.1810 N   0  0  0  0  0  0  0  0  0  0  0  0
   33.0230   30.1160   46.2760 C   0  0  0  0  0  0  0  0  0  0  0  0
   34.4630   30.0520   46.5040 C   0  0  2  0  0  0  0  0  0  0  0  0
   35.1620   29.4540   45.4030 N   0  0  0  0  0  0  0  0  0  0  0  0
   36.4660   30.0490   45.1610 C   0  0  0  0  0  0  0  0  0  0  0  0
   36.7380   29.8990   43.6730 C   0  0  0  0  0  0  0  0  0  0  0  0
   35.5730   29.1270   43.1700 C   0  0  0  0  0  0  0  0  0  0  0  0
   34.4970   29.5520   44.1650 C   0  0  2  0  0  0  0  0  0  0  0  0
   34.2730   30.9370   43.6470 C   0  0  0  0  0  0  0  0  0  0  0  0
   33.0680   31.6080   43.5590 C   0  0  0  0  0  0  0  0  0  0  0  0
   32.8970   32.8910   43.0970 C   0  0  0  0  0  0  0  0  0  0  0  0
   34.0150   33.5310   42.7000 N   0  0  0  0  0  0  0  0  0  0  0  0
   35.2180   32.9330   42.7590 C   0  0  0  0  0  0  0  0  0  0  0  0
   35.2980   31.6890   43.2190 N   0  0  0  0  0  0  0  0  0  0  0  0
   37.7216   28.6026   50.9944 H   0  0  0  0  0  0  0  0  0  0  0  0
   38.0403   31.0778   51.3818 H   0  0  0  0  0  0  0  0  0  0  0  0
   36.7215   32.6729   49.9248 H   0  0  0  0  0  0  0  0  0  0  0  0
   34.4766   27.2969   46.9889 H   0  0  0  0  0  0  0  0  0  0  0  0
   34.3219   27.5025   48.7669 H   0  0  0  0  0  0  0  0  0  0  0  0
   32.2739   27.3631   46.9347 H   0  0  0  0  0  0  0  0  0  0  0  0
   32.2249   28.0383   48.6583 H   0  0  0  0  0  0  0  0  0  0  0  0
   31.2977   29.1972   46.7016 H   0  0  0  0  0  0  0  0  0  0  0  0
   32.7194   31.1708   46.3489 H   0  0  0  0  0  0  0  0  0  0  0  0
   32.8640   29.6628   45.2864 H   0  0  0  0  0  0  0  0  0  0  0  0
   34.7967   31.0930   46.6265 H   0  0  0  0  0  0  0  0  0  0  0  0
   36.4563   31.1129   45.4404 H   0  0  0  0  0  0  0  0  0  0  0  0
   37.2460   29.5564   45.7601 H   0  0  0  0  0  0  0  0  0  0  0  0
   36.7949   30.8831   43.1849 H   0  0  0  0  0  0  0  0  0  0  0  0
   37.6967   29.4009   43.4663 H   0  0  0  0  0  0  0  0  0  0  0  0
   35.3099   29.4153   42.1416 H   0  0  0  0  0  0  0  0  0  0  0  0
   35.7369   28.0408   43.1129 H   0  0  0  0  0  0  0  0  0  0  0  0
   33.5432   29.0154   44.2760 H   0  0  0  0  0  0  0  0  0  0  0  0
   32.1675   31.0682   43.8873 H   0  0  0  0  0  0  0  0  0  0  0  0
   31.9065   33.3674   43.0537 H   0  0  0  0  0  0  0  0  0  0  0  0
   36.1227   33.4660   42.4312 H   0  0  0  0  0  0  0  0  0  0  0  0
  1  2  2  0
  3  2  1  0
  4  3  2  0
  5  4  1  0
  5  6  2  0
  6  1  1  0
  7  8  1  0
  7  5  1  0
  9  8  1  0
 10  9  1  0
 11 12  1  0
 11 10  1  0
 12  7  1  0
 13 14  1  0
 13 12  1  0
 15 14  1  0
 16 15  1  0
 16 17  1  0
 17 13  1  0
 18 17  1  0
 19 18  2  0
 20 19  1  0
 21 22  1  0
 21 20  2  0
 22 23  2  0
 23 18  1  0
  1 24  1  0
  2 25  1  0
  3 26  1  0
  8 27  1  0
  8 28  1  0
  9 29  1  0
  9 30  1  0
 10 31  1  0
 11 32  1  0
 11 33  1  0
 12 34  1  1
 14 35  1  0
 14 36  1  0
 15 37  1  0
 15 38  1  0
 16 39  1  0
 16 40  1  0
 17 41  1  1
 19 42  1  0
 20 43  1  0
 22 44  1  0
M  ISO  8  24  14  25  14  26  14  27  13  28  13  29  13  30  13  31   5
M  ISO  8  32  13  33  13  34  13  35  13  36  13  37  13  38  13  39  13
M  ISO  5  40  13  41  13  42  14  43  14  44  14
M  END
>  <minimizedAffinity>  (1) 
-4.99757242

>  <minimizedRMSD>  (1) 
0.311516345

$$$$
