
     RDKit          3D

 41 44  0  0  1  0  0  0  0  0999 V2000
   38.4890   31.1160   45.9390 C   0  0  0  0  0  0  0  0  0  0  0  0
   39.8140   31.0110   46.2070 C   0  0  0  0  0  0  0  0  0  0  0  0
   40.4490   31.3780   45.0040 C   0  0  0  0  0  0  0  0  0  0  0  0
   39.5200   31.6780   44.0970 N   0  0  0  0  0  0  0  0  0  0  0  0
   38.3150   31.5200   44.6590 N   0  0  0  0  0  0  0  0  0  0  0  0
   39.8090   30.9140   41.7950 C   0  0  2  0  0  0  0  0  0  0  0  0
   39.8430   32.0930   42.7550 C   0  0  1  0  0  0  0  0  0  0  0  0
   38.7440   32.9160   42.1250 C   0  0  0  0  0  0  0  0  0  0  0  0
   38.8130   32.7450   40.7650 O   0  0  0  0  0  0  0  0  0  0  0  0
   39.6380   31.6930   40.4790 C   0  0  0  0  0  0  0  0  0  0  0  0
   38.6310   30.2120   42.0460 O   0  0  0  0  0  0  0  0  0  0  0  0
   38.5400   28.8580   42.3280 C   0  0  0  0  0  0  0  0  0  0  0  0
   39.6260   28.0300   42.6080 C   0  0  0  0  0  0  0  0  0  0  0  0
   39.3950   26.6980   42.8720 C   0  0  0  0  0  0  0  0  0  0  0  0
   38.1450   26.1860   42.8630 N   0  0  0  0  0  0  0  0  0  0  0  0
   37.0810   26.9970   42.5890 C   0  0  0  0  0  0  0  0  0  0  0  0
   37.3020   28.3080   42.3280 N   0  0  0  0  0  0  0  0  0  0  0  0
   36.5070   30.6430   49.0880 C   0  0  0  0  0  0  0  0  0  0  0  0
   37.5640   30.9210   48.2400 C   0  0  0  0  0  0  0  0  0  0  0  0
   37.4170   30.8380   46.8820 C   0  0  0  0  0  0  0  0  0  0  0  0
   36.1960   30.4750   46.4110 N   0  0  0  0  0  0  0  0  0  0  0  0
   35.1640   30.2050   47.2640 C   0  0  0  0  0  0  0  0  0  0  0  0
   35.3090   30.2860   48.5790 N   0  0  0  0  0  0  0  0  0  0  0  0
   36.8420   30.7790   50.4380 O   0  0  0  0  0  0  0  0  0  0  0  0
   36.8830   29.6990   51.3410 C   0  0  0  0  0  0  0  0  0  0  0  0
   35.5990   29.2340   51.6370 F   0  0  0  0  0  0  0  0  0  0  0  0
   37.5400   30.0920   52.4730 F   0  0  0  0  0  0  0  0  0  0  0  0
   37.6030   28.6740   50.7520 F   0  0  0  0  0  0  0  0  0  0  0  0
   40.2874   30.7072   47.1523 H   0  0  0  0  0  0  0  0  0  0  0  0
   41.5362   31.4115   44.8400 H   0  0  0  0  0  0  0  0  0  0  0  0
   40.6536   30.2104   41.8347 H   0  0  0  0  0  0  0  0  0  0  0  0
   40.8086   32.6069   42.8712 H   0  0  0  0  0  0  0  0  0  0  0  0
   37.7650   32.5770   42.4947 H   0  0  0  0  0  0  0  0  0  0  0  0
   38.8659   33.9782   42.3834 H   0  0  0  0  0  0  0  0  0  0  0  0
   39.1839   31.0497   39.7109 H   0  0  0  0  0  0  0  0  0  0  0  0
   40.6065   32.0371   40.0872 H   0  0  0  0  0  0  0  0  0  0  0  0
   40.6494   28.4333   42.6179 H   0  0  0  0  0  0  0  0  0  0  0  0
   40.2460   26.0376   43.0948 H   0  0  0  0  0  0  0  0  0  0  0  0
   36.0585   26.5914   42.5803 H   0  0  0  0  0  0  0  0  0  0  0  0
   38.5364   31.2129   48.6633 H   0  0  0  0  0  0  0  0  0  0  0  0
   34.1880   29.9130   46.8492 H   0  0  0  0  0  0  0  0  0  0  0  0
  1  2  1  0
  1 20  1  0
  3  2  2  0
  4  5  1  0
  4  3  1  0
  5  1  2  0
  6 11  1  0
  6  7  1  0
  7  4  1  0
  8  7  1  0
  9  8  1  0
 10  9  1  0
 10  6  1  0
 11 12  1  0
 12 17  1  0
 12 13  2  0
 13 14  1  0
 15 14  2  0
 16 15  1  0
 17 16  2  0
 18 24  1  0
 19 18  2  0
 20 19  1  0
 21 20  2  0
 21 22  1  0
 22 23  2  0
 23 18  1  0
 24 25  1  0
 25 26  1  0
 25 27  1  0
 28 25  1  0
  2 29  1  0
  3 30  1  0
  6 31  1  6
  7 32  1  1
  8 33  1  0
  8 34  1  0
 10 35  1  0
 10 36  1  0
 13 37  1  0
 14 38  1  0
 16 39  1  0
 19 40  1  0
 22 41  1  0
M  ISO  8  29  14  30  14  31  13  32  13  33  13  34  13  35  13  36  13
M  ISO  5  37  14  38  14  39  14  40  14  41  14
M  END
>  <minimizedAffinity>  (1) 
-6.21520662

>  <minimizedRMSD>  (1) 
0.366055787

$$$$
