
     RDKit          3D

 28 30  0  0  0  0  0  0  0  0999 V2000
   38.9260   31.1810   47.2580 Cl  0  0  0  0  0  0  0  0  0  0  0  0
   37.3680   30.7200   46.6300 C   0  0  0  0  0  0  0  0  0  0  0  0
   36.4850   30.2730   47.5930 C   0  0  0  0  0  0  0  0  0  0  0  0
   35.2060   29.8780   47.1850 C   0  0  0  0  0  0  0  0  0  0  0  0
   34.8200   29.9250   45.8830 C   0  0  0  0  0  0  0  0  0  0  0  0
   35.7100   30.3720   44.9400 C   0  0  0  0  0  0  0  0  0  0  0  0
   35.2480   30.4470   43.2600 Cl  0  0  0  0  0  0  0  0  0  0  0  0
   36.9530   30.7580   45.3170 C   0  0  0  0  0  0  0  0  0  0  0  0
   37.7990   30.7880   49.6180 C   0  0  0  0  0  0  0  0  0  0  0  0
   36.6860   30.1390   49.0430 C   0  0  0  0  0  0  0  0  0  0  0  0
   35.8440   29.4130   49.8780 C   0  0  0  0  0  0  0  0  0  0  0  0
   36.1260   29.3580   51.2080 N   0  0  0  0  0  0  0  0  0  0  0  0
   37.2180   30.0020   51.7220 C   0  0  0  0  0  0  0  0  0  0  0  0
   38.0550   30.7180   50.9240 N   0  0  0  0  0  0  0  0  0  0  0  0
   37.9720   31.2500   44.3830 C   0  0  0  0  0  0  0  0  0  0  0  0
   38.8190   30.2940   43.8540 C   0  0  0  0  0  0  0  0  0  0  0  0
   39.8160   30.6730   42.9590 C   0  0  0  0  0  0  0  0  0  0  0  0
   39.9250   31.9800   42.6330 N   0  0  0  0  0  0  0  0  0  0  0  0
   39.0610   32.8670   43.1900 C   0  0  0  0  0  0  0  0  0  0  0  0
   38.0800   32.5580   44.0590 N   0  0  0  0  0  0  0  0  0  0  0  0
   34.4919   29.5188   47.9407 H   0  0  0  0  0  0  0  0  0  0  0  0
   33.8081   29.6090   45.5895 H   0  0  0  0  0  0  0  0  0  0  0  0
   38.4738   31.3675   48.9708 H   0  0  0  0  0  0  0  0  0  0  0  0
   34.9651   28.8921   49.4704 H   0  0  0  0  0  0  0  0  0  0  0  0
   37.4230   29.9396   52.8009 H   0  0  0  0  0  0  0  0  0  0  0  0
   38.7057   29.2377   44.1391 H   0  0  0  0  0  0  0  0  0  0  0  0
   40.4988   29.9263   42.5275 H   0  0  0  0  0  0  0  0  0  0  0  0
   39.1715   33.9246   42.9083 H   0  0  0  0  0  0  0  0  0  0  0  0
  2  1  1  0
  2  3  2  0
  3 10  1  0
  4  3  1  0
  5  4  2  0
  6  8  2  0
  6  5  1  0
  7  6  1  0
  8  2  1  0
  9 14  2  0
 10  9  1  0
 10 11  2  0
 11 12  1  0
 12 13  2  0
 14 13  1  0
 15  8  1  0
 16 15  2  0
 17 16  1  0
 18 17  2  0
 18 19  1  0
 19 20  2  0
 20 15  1  0
  4 21  1  0
  5 22  1  0
  9 23  1  0
 11 24  1  0
 13 25  1  0
 16 26  1  0
 17 27  1  0
 19 28  1  0
M  ISO  8  21  14  22  14  23  14  24  14  25  14  26  14  27  14  28  14
M  END
>  <minimizedAffinity>  (1) 
-5.74117947

>  <minimizedRMSD>  (1) 
4.23654079

$$$$
