
     RDKit          3D

 25 27  0  0  0  0  0  0  0  0999 V2000
   35.5680   30.0210   47.5760 C   0  0  0  0  0  0  0  0  0  0  0  0
   34.6720   28.9860   47.0550 C   0  0  0  0  0  0  0  0  0  0  0  0
   34.1350   30.3580   47.3840 C   0  0  0  0  0  0  0  0  0  0  0  0
   38.3450   32.2270   46.4910 C   0  0  0  0  0  0  0  0  0  0  0  0
   38.4250   31.9490   45.1200 C   0  0  0  0  0  0  0  0  0  0  0  0
   37.5340   31.0150   44.5660 C   0  0  0  0  0  0  0  0  0  0  0  0
   36.6320   30.4250   45.4060 N   0  0  0  0  0  0  0  0  0  0  0  0
   36.5740   30.7110   46.7280 C   0  0  0  0  0  0  0  0  0  0  0  0
   37.4180   31.6000   47.2650 N   0  0  0  0  0  0  0  0  0  0  0  0
   36.0860   29.8240   48.9800 C   0  0  0  0  0  0  0  0  0  0  0  0
   37.4340   29.8750   49.2760 C   0  0  0  0  0  0  0  0  0  0  0  0
   37.7910   29.6790   50.6000 C   0  0  0  0  0  0  0  0  0  0  0  0
   36.9100   29.4470   51.5960 N   0  0  0  0  0  0  0  0  0  0  0  0
   35.5940   29.4100   51.2330 C   0  0  0  0  0  0  0  0  0  0  0  0
   35.1950   29.5940   49.9620 N   0  0  0  0  0  0  0  0  0  0  0  0
   34.4024   28.1242   47.6832 H   0  0  0  0  0  0  0  0  0  0  0  0
   34.6635   28.3393   46.1652 H   0  0  0  0  0  0  0  0  0  0  0  0
   33.8299   31.0414   46.5778 H   0  0  0  0  0  0  0  0  0  0  0  0
   33.3290   30.7554   48.0184 H   0  0  0  0  0  0  0  0  0  0  0  0
   39.0344   32.9551   46.9434 H   0  0  0  0  0  0  0  0  0  0  0  0
   39.1719   32.4530   44.4890 H   0  0  0  0  0  0  0  0  0  0  0  0
   37.5614   30.7674   43.4946 H   0  0  0  0  0  0  0  0  0  0  0  0
   38.1882   30.0623   48.4975 H   0  0  0  0  0  0  0  0  0  0  0  0
   38.8602   29.7147   50.8559 H   0  0  0  0  0  0  0  0  0  0  0  0
   34.8345   29.2233   52.0065 H   0  0  0  0  0  0  0  0  0  0  0  0
  1 10  1  0
  2  3  1  0
  2  1  1  0
  3  1  1  0
  4  9  2  0
  5  4  1  0
  6  5  2  0
  6  7  1  0
  7  8  2  0
  8  9  1  0
  8  1  1  0
 10 11  2  0
 10 15  1  0
 11 12  1  0
 12 13  2  0
 14 13  1  0
 15 14  2  0
  2 16  1  0
  2 17  1  0
  3 18  1  0
  3 19  1  0
  4 20  1  0
  5 21  1  0
  6 22  1  0
 11 23  1  0
 12 24  1  0
 14 25  1  0
M  ISO  8  16  13  17  13  18  13  19  13  20  14  21  14  22  14  23  14
M  ISO  2  24  14  25  14
M  END
>  <minimizedAffinity>  (1) 
-4.20116901

>  <minimizedRMSD>  (1) 
3.57126951

$$$$
