
     RDKit          3D

 34 36  0  0  0  0  0  0  0  0999 V2000
   36.6900   29.4770   44.0720 Cl  0  0  0  0  0  0  0  0  0  0  0  0
   38.3300   29.8480   43.5380 C   0  0  0  0  0  0  0  0  0  0  0  0
   39.3280   30.3390   44.3800 C   0  0  0  0  0  0  0  0  0  0  0  0
   40.5860   30.5960   43.8360 C   0  0  0  0  0  0  0  0  0  0  0  0
   40.8130   30.3640   42.5010 C   0  0  0  0  0  0  0  0  0  0  0  0
   39.8570   29.8870   41.6690 C   0  0  0  0  0  0  0  0  0  0  0  0
   38.6240   29.6300   42.1810 C   0  0  0  0  0  0  0  0  0  0  0  0
   37.5550   29.1120   41.3240 C   0  0  0  0  0  0  0  0  0  0  0  0
   37.3500   27.7780   41.0770 C   0  0  0  0  0  0  0  0  0  0  0  0
   36.3690   27.2540   40.2860 C   0  0  0  0  0  0  0  0  0  0  0  0
   35.5100   28.1280   39.6860 N   0  0  0  0  0  0  0  0  0  0  0  0
   35.6830   29.4490   39.9060 C   0  0  0  0  0  0  0  0  0  0  0  0
   36.6730   29.9150   40.6990 N   0  0  0  0  0  0  0  0  0  0  0  0
   38.8920   30.4980   45.6660 O   0  0  0  0  0  0  0  0  0  0  0  0
   39.4460   32.5480   47.1260 O   0  0  0  0  0  0  0  0  0  0  0  0
   38.3200   31.8660   46.4360 P   0  0  1  0  0  0  0  0  0  0  0  0
   37.7300   32.8590   45.1770 O   0  0  0  0  0  0  0  0  0  0  0  0
   37.0550   31.4400   47.4670 O   0  0  0  0  0  0  0  0  0  0  0  0
   37.6030   30.5220   50.9920 C   0  0  0  0  0  0  0  0  0  0  0  0
   37.7070   31.3100   49.8320 C   0  0  0  0  0  0  0  0  0  0  0  0
   37.0840   30.8560   48.6730 C   0  0  0  0  0  0  0  0  0  0  0  0
   36.4050   29.6640   48.7260 N   0  0  0  0  0  0  0  0  0  0  0  0
   36.3350   28.9510   49.8550 C   0  0  0  0  0  0  0  0  0  0  0  0
   36.9240   29.3640   50.9880 N   0  0  0  0  0  0  0  0  0  0  0  0
   41.3942   30.9833   44.4738 H   0  0  0  0  0  0  0  0  0  0  0  0
   41.8120   30.5743   42.0913 H   0  0  0  0  0  0  0  0  0  0  0  0
   40.0728   29.7117   40.6047 H   0  0  0  0  0  0  0  0  0  0  0  0
   38.0375   27.0677   41.5594 H   0  0  0  0  0  0  0  0  0  0  0  0
   36.2744   26.1681   40.1378 H   0  0  0  0  0  0  0  0  0  0  0  0
   34.9995   30.1653   39.4267 H   0  0  0  0  0  0  0  0  0  0  0  0
   37.2647   33.6421   45.5648 H   0  0  0  0  0  0  0  0  0  0  0  0
   38.0870   30.8608   51.9199 H   0  0  0  0  0  0  0  0  0  0  0  0
   38.2647   32.2581   49.8403 H   0  0  0  0  0  0  0  0  0  0  0  0
   35.7802   28.0012   49.8552 H   0  0  0  0  0  0  0  0  0  0  0  0
  2  1  1  0
  2  3  2  0
  3 14  1  0
  4  3  1  0
  5  4  2  0
  6  7  2  0
  6  5  1  0
  7  2  1  0
  8  7  1  0
  9  8  2  0
 10  9  1  0
 11 12  1  0
 11 10  2  0
 12 13  2  0
 13  8  1  0
 14 16  1  0
 16 15  2  0
 16 18  1  0
 17 16  1  0
 18 21  1  0
 20 19  2  0
 21 22  2  0
 21 20  1  0
 22 23  1  0
 23 24  2  0
 24 19  1  0
  4 25  1  0
  5 26  1  0
  6 27  1  0
  9 28  1  0
 10 29  1  0
 12 30  1  0
 17 31  1  0
 19 32  1  0
 20 33  1  0
 23 34  1  0
M  ISO  8  25  14  26  14  27  14  28  14  29  14  30  14  31   3  32  14
M  ISO  2  33  14  34  14
M  END
>  <minimizedAffinity>  (1) 
-4.83674812

>  <minimizedRMSD>  (1) 
0.386200398

$$$$
