
     RDKit          3D

 25 26  0  0  0  0  0  0  0  0999 V2000
   33.7260   28.6040   48.6990 C   0  0  0  0  0  0  0  0  0  0  0  0
   32.8130   27.4640   48.3480 C   0  0  0  0  0  0  0  0  0  0  0  0
   31.3800   27.8630   48.3460 C   0  0  0  0  0  0  0  0  0  0  0  0
   30.6950   27.7310   49.5380 C   0  0  0  0  0  0  0  0  0  0  0  0
   29.3640   28.0710   49.6550 C   0  0  0  0  0  0  0  0  0  0  0  0
   28.7150   28.5410   48.5860 N   0  0  0  0  0  0  0  0  0  0  0  0
   29.3930   28.6670   47.4190 C   0  0  0  0  0  0  0  0  0  0  0  0
   30.6910   28.3430   47.2830 N   0  0  0  0  0  0  0  0  0  0  0  0
   34.6190   28.2120   49.7350 O   0  0  0  0  0  0  0  0  0  0  0  0
   37.2300   30.1890   51.2930 C   0  0  0  0  0  0  0  0  0  0  0  0
   37.9100   30.6310   50.1410 C   0  0  0  0  0  0  0  0  0  0  0  0
   37.4310   30.2240   48.9020 C   0  0  0  0  0  0  0  0  0  0  0  0
   36.3250   29.4160   48.8870 N   0  0  0  0  0  0  0  0  0  0  0  0
   35.7000   29.0130   50.0000 C   0  0  0  0  0  0  0  0  0  0  0  0
   36.1580   29.4040   51.2110 N   0  0  0  0  0  0  0  0  0  0  0  0
   33.1252   29.4598   49.0406 H   0  0  0  0  0  0  0  0  0  0  0  0
   34.3077   28.8874   47.8094 H   0  0  0  0  0  0  0  0  0  0  0  0
   33.0781   27.0951   47.3462 H   0  0  0  0  0  0  0  0  0  0  0  0
   32.9422   26.6841   49.1129 H   0  0  0  0  0  0  0  0  0  0  0  0
   31.2267   27.3434   50.4195 H   0  0  0  0  0  0  0  0  0  0  0  0
   28.8427   27.9567   50.6169 H   0  0  0  0  0  0  0  0  0  0  0  0
   28.8552   29.0531   46.5405 H   0  0  0  0  0  0  0  0  0  0  0  0
   37.5935   30.4999   52.2836 H   0  0  0  0  0  0  0  0  0  0  0  0
   38.7948   31.2797   50.2203 H   0  0  0  0  0  0  0  0  0  0  0  0
   37.9211   30.5386   47.9688 H   0  0  0  0  0  0  0  0  0  0  0  0
  1  9  1  0
  2  1  1  0
  3  2  1  0
  3  4  2  0
  4  5  1  0
  6  5  2  0
  7  6  1  0
  8  7  2  0
  8  3  1  0
  9 14  1  0
 11 10  2  0
 12 11  1  0
 13 12  2  0
 13 14  1  0
 14 15  2  0
 15 10  1  0
  1 16  1  0
  1 17  1  0
  2 18  1  0
  2 19  1  0
  4 20  1  0
  5 21  1  0
  7 22  1  0
 10 23  1  0
 11 24  1  0
 12 25  1  0
M  ISO  8  16   8  17   8  18   8  19   8  20  14  21  14  22  14  23  14
M  ISO  2  24  14  25  14
M  END
>  <minimizedAffinity>  (1) 
-4.38018036

>  <minimizedRMSD>  (1) 
2.82346797

$$$$
