
     RDKit          3D

 36 39  0  0  1  0  0  0  0  0999 V2000
   38.5400   31.8850   46.4380 C   0  0  2  0  0  0  0  0  0  0  0  0
   38.9330   30.4300   46.2110 C   0  0  0  0  0  0  0  0  0  0  0  0
   39.7930   31.5960   45.7090 C   0  0  1  0  0  0  0  0  0  0  0  0
   39.8530   31.6810   44.2410 C   0  0  0  0  0  0  0  0  0  0  0  0
   39.2500   32.7300   43.5500 C   0  0  0  0  0  0  0  0  0  0  0  0
   39.3350   32.7390   42.1790 C   0  0  0  0  0  0  0  0  0  0  0  0
   39.9860   31.7600   41.4780 C   0  0  0  0  0  0  0  0  0  0  0  0
   40.5790   30.7260   42.1950 C   0  0  0  0  0  0  0  0  0  0  0  0
   40.4930   30.7230   43.5340 N   0  0  0  0  0  0  0  0  0  0  0  0
   38.5780   32.2490   47.8910 C   0  0  0  0  0  0  0  0  0  0  0  0
   39.2730   33.2390   48.2420 O   0  0  0  0  0  0  0  0  0  0  0  0
   37.4370   30.5090   51.0020 C   0  0  0  0  0  0  0  0  0  0  0  0
   38.2030   31.2890   50.1340 C   0  0  0  0  0  0  0  0  0  0  0  0
   37.8050   31.4460   48.8270 C   0  0  0  0  0  0  0  0  0  0  0  0
   36.6730   30.8220   48.4490 N   0  0  0  0  0  0  0  0  0  0  0  0
   35.9380   30.0690   49.2870 C   0  0  0  0  0  0  0  0  0  0  0  0
   36.3060   29.9020   50.5680 N   0  0  0  0  0  0  0  0  0  0  0  0
   34.7310   29.4450   48.7500 C   0  0  0  0  0  0  0  0  0  0  0  0
   34.0450   28.5100   49.4980 C   0  0  0  0  0  0  0  0  0  0  0  0
   32.9040   27.9740   48.8900 C   0  0  0  0  0  0  0  0  0  0  0  0
   32.5020   28.3410   47.6700 N   0  0  0  0  0  0  0  0  0  0  0  0
   33.1930   29.2560   46.9670 C   0  0  0  0  0  0  0  0  0  0  0  0
   34.3150   29.8060   47.5210 N   0  0  0  0  0  0  0  0  0  0  0  0
   37.7031   32.5564   46.1956 H   0  0  0  0  0  0  0  0  0  0  0  0
   39.2749   29.8088   47.0520 H   0  0  0  0  0  0  0  0  0  0  0  0
   38.4607   29.5448   45.7600 H   0  0  0  0  0  0  0  0  0  0  0  0
   40.8169   31.9756   45.8414 H   0  0  0  0  0  0  0  0  0  0  0  0
   38.7200   33.5297   44.0881 H   0  0  0  0  0  0  0  0  0  0  0  0
   38.8627   33.5631   41.6242 H   0  0  0  0  0  0  0  0  0  0  0  0
   40.0387   31.7901   40.3797 H   0  0  0  0  0  0  0  0  0  0  0  0
   41.1125   29.9198   41.6701 H   0  0  0  0  0  0  0  0  0  0  0  0
   37.7545   30.3860   52.0480 H   0  0  0  0  0  0  0  0  0  0  0  0
   39.1212   31.7761   50.4940 H   0  0  0  0  0  0  0  0  0  0  0  0
   34.3725   28.2067   50.5033 H   0  0  0  0  0  0  0  0  0  0  0  0
   32.3162   27.2223   49.4372 H   0  0  0  0  0  0  0  0  0  0  0  0
   32.8606   29.5568   45.9625 H   0  0  0  0  0  0  0  0  0  0  0  0
  1 10  1  0
  2  1  1  0
  3  2  1  0
  3  1  1  0
  4  3  1  0
  5  4  2  0
  6  5  1  0
  7  6  2  0
  7  8  1  0
  8  9  2  0
  9  4  1  0
 10 11  2  0
 10 14  1  0
 13 12  2  0
 14 13  1  0
 15 14  2  0
 15 16  1  0
 16 17  2  0
 17 12  1  0
 18 16  1  0
 18 19  2  0
 20 19  1  0
 21 20  2  0
 22 23  2  0
 22 21  1  0
 23 18  1  0
  1 24  1  6
  2 25  1  0
  2 26  1  0
  3 27  1  1
  5 28  1  0
  6 29  1  0
  7 30  1  0
  8 31  1  0
 12 32  1  0
 13 33  1  0
 19 34  1  0
 20 35  1  0
 22 36  1  0
M  ISO  8  24  13  25  13  26  13  27  13  28  14  29  14  30  14  31  14
M  ISO  5  32  14  33  14  34  14  35  14  36  14
M  END
>  <minimizedAffinity>  (1) 
-6.22041464

>  <minimizedRMSD>  (1) 
1.4820962

$$$$
