
     RDKit          3D

 37 39  0  0  0  0  0  0  0  0999 V2000
   35.5370   29.1770   50.4180 C   0  0  0  0  0  0  0  0  0  0  0  0
   36.3740   30.1400   49.7770 C   0  0  0  0  0  0  0  0  0  0  0  0
   36.2480   30.3250   48.4000 C   0  0  0  0  0  0  0  0  0  0  0  0
   35.3190   29.5660   47.7300 N   0  0  0  0  0  0  0  0  0  0  0  0
   34.5530   28.6810   48.3420 C   0  0  0  0  0  0  0  0  0  0  0  0
   34.6440   28.4710   49.6730 N   0  0  0  0  0  0  0  0  0  0  0  0
   32.7280   30.2940   46.5560 Cl  0  0  0  0  0  0  0  0  0  0  0  0
   32.6930   28.5470   46.7000 C   0  0  0  0  0  0  0  0  0  0  0  0
   33.5800   27.9050   47.5530 C   0  0  0  0  0  0  0  0  0  0  0  0
   33.5950   26.5120   47.7070 C   0  0  0  0  0  0  0  0  0  0  0  0
   32.6630   25.8070   46.9480 C   0  0  0  0  0  0  0  0  0  0  0  0
   31.7780   26.4040   46.1000 C   0  0  0  0  0  0  0  0  0  0  0  0
   30.6660   25.4060   45.2100 Cl  0  0  0  0  0  0  0  0  0  0  0  0
   31.7970   27.7940   45.9780 C   0  0  0  0  0  0  0  0  0  0  0  0
   30.8520   28.4690   45.0700 C   0  0  0  0  0  0  0  0  0  0  0  0
   29.8940   27.5560   44.6020 F   0  0  0  0  0  0  0  0  0  0  0  0
   31.4780   29.0700   44.0170 F   0  0  0  0  0  0  0  0  0  0  0  0
   30.1490   29.4370   45.7530 F   0  0  0  0  0  0  0  0  0  0  0  0
   37.3440   30.8970   50.6260 C   0  0  0  0  0  0  0  0  0  0  0  0
   38.6270   30.7950   50.1150 F   0  0  0  0  0  0  0  0  0  0  0  0
   36.9800   32.2340   50.5850 F   0  0  0  0  0  0  0  0  0  0  0  0
   37.3360   30.4980   51.9390 F   0  0  0  0  0  0  0  0  0  0  0  0
   37.1020   31.3090   47.7390 C   0  0  0  0  0  0  0  0  0  0  0  0
   37.5450   30.8530   46.3870 C   0  0  0  0  0  0  0  0  0  0  0  0
   38.8900   30.5660   46.2170 C   0  0  0  0  0  0  0  0  0  0  0  0
   39.2690   30.1420   44.9450 C   0  0  0  0  0  0  0  0  0  0  0  0
   38.4270   30.0010   43.8990 N   0  0  0  0  0  0  0  0  0  0  0  0
   37.1250   30.2950   44.1270 C   0  0  0  0  0  0  0  0  0  0  0  0
   36.7060   30.7100   45.3410 N   0  0  0  0  0  0  0  0  0  0  0  0
   35.6134   29.0078   51.5022 H   0  0  0  0  0  0  0  0  0  0  0  0
   34.2987   26.0067   48.3848 H   0  0  0  0  0  0  0  0  0  0  0  0
   32.6401   24.7109   47.0378 H   0  0  0  0  0  0  0  0  0  0  0  0
   36.5409   32.2488   47.6298 H   0  0  0  0  0  0  0  0  0  0  0  0
   37.9995   31.4488   48.3595 H   0  0  0  0  0  0  0  0  0  0  0  0
   39.6155   30.6669   47.0377 H   0  0  0  0  0  0  0  0  0  0  0  0
   40.3306   29.9051   44.7812 H   0  0  0  0  0  0  0  0  0  0  0  0
   36.3965   30.1939   43.3090 H   0  0  0  0  0  0  0  0  0  0  0  0
  2  1  2  0
  2 19  1  0
  3  2  1  0
  4  5  1  0
  4  3  2  0
  5  6  2  0
  6  1  1  0
  7  8  1  0
  8  9  2  0
  9 10  1  0
  9  5  1  0
 11 10  2  0
 12 11  1  0
 13 12  1  0
 14 12  2  0
 14  8  1  0
 15 18  1  0
 15 14  1  0
 16 15  1  0
 17 15  1  0
 19 22  1  0
 20 19  1  0
 21 19  1  0
 23  3  1  0
 24 23  1  0
 25 24  2  0
 26 25  1  0
 27 28  1  0
 27 26  2  0
 28 29  2  0
 29 24  1  0
  1 30  1  0
 10 31  1  0
 11 32  1  0
 23 33  1  0
 23 34  1  0
 25 35  1  0
 26 36  1  0
 28 37  1  0
M  ISO  8  30  14  31  14  32  14  33   8  34   8  35  14  36  14  37  14
M  END
>  <minimizedAffinity>  (1) 
-6.2890029

>  <minimizedRMSD>  (1) 
0.670533478

$$$$
