
     RDKit          3D

 44 47  0  0  1  0  0  0  0  0999 V2000
   36.8180   30.6210   46.4920 C   0  0  1  0  0  0  0  0  0  0  0  0
   35.2730   30.5260   46.3700 C   0  0  0  0  0  0  0  0  0  0  0  0
   35.0490   29.4140   45.3380 C   0  0  0  0  0  0  0  0  0  0  0  0
   35.4830   29.9430   44.0130 C   0  0  0  0  0  0  0  0  0  0  0  0
   36.9440   30.3280   44.0580 C   0  0  0  0  0  0  0  0  0  0  0  0
   37.2390   31.2640   45.2050 C   0  0  2  0  0  0  0  0  0  0  0  0
   36.7430   31.1280   48.9500 C   0  0  0  0  0  0  0  0  0  0  0  0
   37.2340   31.8320   50.0370 C   0  0  0  0  0  0  0  0  0  0  0  0
   38.2350   32.8080   49.8670 C   0  0  0  0  0  0  0  0  0  0  0  0
   38.6890   33.0190   48.5780 C   0  0  0  0  0  0  0  0  0  0  0  0
   38.2100   32.3290   47.4940 C   0  0  0  0  0  0  0  0  0  0  0  0
   37.2130   31.3610   47.6940 C   0  0  0  0  0  0  0  0  0  0  0  0
   34.7340   27.9560   49.4160 C   0  0  0  0  0  0  0  0  0  0  0  0
   35.8200   28.7900   49.0720 C   0  0  0  0  0  0  0  0  0  0  0  0
   35.7010   30.1670   49.2560 C   0  0  0  0  0  0  0  0  0  0  0  0
   34.5310   30.6010   49.7590 N   0  0  0  0  0  0  0  0  0  0  0  0
   33.4980   29.8050   50.0860 C   0  0  0  0  0  0  0  0  0  0  0  0
   33.6020   28.4960   49.9140 N   0  0  0  0  0  0  0  0  0  0  0  0
   38.6730   31.6300   45.1480 C   0  0  0  0  0  0  0  0  0  0  0  0
   39.6220   30.6670   45.4290 C   0  0  0  0  0  0  0  0  0  0  0  0
   40.9580   31.0080   45.3750 C   0  0  0  0  0  0  0  0  0  0  0  0
   41.3090   32.2730   45.0490 N   0  0  0  0  0  0  0  0  0  0  0  0
   40.3850   33.2130   44.7750 C   0  0  0  0  0  0  0  0  0  0  0  0
   39.0760   32.8900   44.8240 N   0  0  0  0  0  0  0  0  0  0  0  0
   37.3139   29.6479   46.6226 H   0  0  0  0  0  0  0  0  0  0  0  0
   34.8203   30.2593   47.3364 H   0  0  0  0  0  0  0  0  0  0  0  0
   34.8129   31.4794   46.0711 H   0  0  0  0  0  0  0  0  0  0  0  0
   35.6456   28.5287   45.6034 H   0  0  0  0  0  0  0  0  0  0  0  0
   33.9903   29.1167   45.3102 H   0  0  0  0  0  0  0  0  0  0  0  0
   34.8814   30.8287   43.7606 H   0  0  0  0  0  0  0  0  0  0  0  0
   35.3406   29.1628   43.2508 H   0  0  0  0  0  0  0  0  0  0  0  0
   37.5493   29.4172   44.1763 H   0  0  0  0  0  0  0  0  0  0  0  0
   37.1914   30.8463   43.1198 H   0  0  0  0  0  0  0  0  0  0  0  0
   36.6650   32.1997   45.1347 H   0  0  0  0  0  0  0  0  0  0  0  0
   36.8384   31.6269   51.0427 H   0  0  0  0  0  0  0  0  0  0  0  0
   38.6367   33.3756   50.7193 H   0  0  0  0  0  0  0  0  0  0  0  0
   39.4707   33.7755   48.4145 H   0  0  0  0  0  0  0  0  0  0  0  0
   38.6001   32.5304   46.4854 H   0  0  0  0  0  0  0  0  0  0  0  0
   34.8105   26.8673   49.2782 H   0  0  0  0  0  0  0  0  0  0  0  0
   36.7467   28.3596   48.6647 H   0  0  0  0  0  0  0  0  0  0  0  0
   32.5727   30.2381   50.4937 H   0  0  0  0  0  0  0  0  0  0  0  0
   39.3174   29.6432   45.6920 H   0  0  0  0  0  0  0  0  0  0  0  0
   41.7312   30.2573   45.5953 H   0  0  0  0  0  0  0  0  0  0  0  0
   40.6946   34.2356   44.5134 H   0  0  0  0  0  0  0  0  0  0  0  0
  1 12  1  0
  2  1  1  0
  3  2  1  0
  4  5  1  0
  4  3  1  0
  5  6  1  0
  6  1  1  0
  7 15  1  0
  7  8  2  0
  9  8  1  0
 10  9  2  0
 11 12  2  0
 11 10  1  0
 12  7  1  0
 13 18  2  0
 14 15  2  0
 14 13  1  0
 15 16  1  0
 16 17  2  0
 18 17  1  0
 19  6  1  0
 19 20  2  0
 21 20  1  0
 22 21  2  0
 23 24  2  0
 23 22  1  0
 24 19  1  0
  1 25  1  1
  2 26  1  0
  2 27  1  0
  3 28  1  0
  3 29  1  0
  4 30  1  0
  4 31  1  0
  5 32  1  0
  5 33  1  0
  6 34  1  6
  8 35  1  0
  9 36  1  0
 10 37  1  0
 11 38  1  0
 13 39  1  0
 14 40  1  0
 17 41  1  0
 20 42  1  0
 21 43  1  0
 23 44  1  0
M  ISO  8  25  13  26  13  27  13  28  13  29  13  30  13  31  13  32  13
M  ISO  8  33  13  34  13  35  14  36  14  37  14  38  14  39  14  40  14
M  ISO  4  41  14  42  14  43  14  44  14
M  END
>  <minimizedAffinity>  (1) 
-5.94310236

>  <minimizedRMSD>  (1) 
2.57345843

$$$$
