
     RDKit          3D

 28 30  0  0  0  0  0  0  0  0999 V2000
   37.7340   30.3320   46.9690 Cl  0  0  0  0  0  0  0  0  0  0  0  0
   38.3250   31.7400   47.8290 C   0  0  0  0  0  0  0  0  0  0  0  0
   37.9280   31.9220   49.1200 C   0  0  0  0  0  0  0  0  0  0  0  0
   38.4230   33.0540   49.7610 C   0  0  0  0  0  0  0  0  0  0  0  0
   39.2710   33.9260   49.0880 C   0  0  0  0  0  0  0  0  0  0  0  0
   39.6400   33.7020   47.7940 C   0  0  0  0  0  0  0  0  0  0  0  0
   39.1550   32.5850   47.1560 C   0  0  0  0  0  0  0  0  0  0  0  0
   37.4590   30.3110   50.9730 C   0  0  0  0  0  0  0  0  0  0  0  0
   37.0360   31.0180   49.8510 C   0  0  0  0  0  0  0  0  0  0  0  0
   35.7140   30.8370   49.4380 C   0  0  0  0  0  0  0  0  0  0  0  0
   34.9150   29.9940   50.1370 N   0  0  0  0  0  0  0  0  0  0  0  0
   35.3600   29.3280   51.2170 C   0  0  0  0  0  0  0  0  0  0  0  0
   36.6470   29.4840   51.6450 N   0  0  0  0  0  0  0  0  0  0  0  0
   39.5150   32.2950   45.7740 C   0  0  0  0  0  0  0  0  0  0  0  0
   40.4520   31.3710   45.3730 C   0  0  0  0  0  0  0  0  0  0  0  0
   40.7510   31.1410   44.0460 C   0  0  0  0  0  0  0  0  0  0  0  0
   40.1290   31.8210   43.0680 N   0  0  0  0  0  0  0  0  0  0  0  0
   39.2110   32.7270   43.4510 C   0  0  0  0  0  0  0  0  0  0  0  0
   38.9210   32.9500   44.7450 N   0  0  0  0  0  0  0  0  0  0  0  0
   38.1420   33.2595   50.8045 H   0  0  0  0  0  0  0  0  0  0  0  0
   39.6527   34.8158   49.6101 H   0  0  0  0  0  0  0  0  0  0  0  0
   40.3112   34.4001   47.2723 H   0  0  0  0  0  0  0  0  0  0  0  0
   38.4955   30.4356   51.3198 H   0  0  0  0  0  0  0  0  0  0  0  0
   35.3266   31.3711   48.5578 H   0  0  0  0  0  0  0  0  0  0  0  0
   34.6822   28.6526   51.7596 H   0  0  0  0  0  0  0  0  0  0  0  0
   40.9845   30.7919   46.1418 H   0  0  0  0  0  0  0  0  0  0  0  0
   41.5103   30.3893   43.7844 H   0  0  0  0  0  0  0  0  0  0  0  0
   38.6800   33.3045   42.6799 H   0  0  0  0  0  0  0  0  0  0  0  0
  1  2  1  0
  2  3  2  0
  3  4  1  0
  3  9  1  0
  5  4  2  0
  6  5  1  0
  7  6  2  0
  7  2  1  0
  8 13  2  0
  9  8  1  0
 10  9  2  0
 10 11  1  0
 11 12  2  0
 12 13  1  0
 14  7  1  0
 15 14  2  0
 16 15  1  0
 17 18  1  0
 17 16  2  0
 18 19  2  0
 19 14  1  0
  4 20  1  0
  5 21  1  0
  6 22  1  0
  8 23  1  0
 10 24  1  0
 12 25  1  0
 15 26  1  0
 16 27  1  0
 18 28  1  0
M  ISO  8  20  14  21  14  22  14  23  14  24  14  25  14  26  14  27  14
M  ISO  1  28  14
M  END
>  <minimizedAffinity>  (1) 
-6.62756538

>  <minimizedRMSD>  (1) 
0.647729933

$$$$
