
     RDKit          3D

 34 36  0  0  1  0  0  0  0  0999 V2000
   37.2600   31.1450   45.5860 C   0  0  2  0  0  0  0  0  0  0  0  0
   37.4080   31.1090   44.0820 C   0  0  0  0  0  0  0  0  0  0  0  0
   38.5490   30.2440   43.6330 C   0  0  0  0  0  0  0  0  0  0  0  0
   39.8530   30.6760   44.2600 C   0  0  0  0  0  0  0  0  0  0  0  0
   39.7520   30.8440   45.7350 C   0  0  0  0  0  0  0  0  0  0  0  0
   38.3980   30.5350   46.3200 C   0  0  1  0  0  0  0  0  0  0  0  0
   36.0200   30.4070   45.9880 C   0  0  0  0  0  0  0  0  0  0  0  0
   35.3740   29.6800   44.9680 C   0  0  0  0  0  0  0  0  0  0  0  0
   34.2180   28.9910   45.3100 C   0  0  0  0  0  0  0  0  0  0  0  0
   33.7600   29.0500   46.6110 N   0  0  0  0  0  0  0  0  0  0  0  0
   34.4170   29.7650   47.5660 C   0  0  0  0  0  0  0  0  0  0  0  0
   35.5310   30.4320   47.2500 N   0  0  0  0  0  0  0  0  0  0  0  0
   38.4260   31.2250   47.6610 C   0  0  0  0  0  0  0  0  0  0  0  0
   38.6440   32.5900   47.6480 C   0  0  0  0  0  0  0  0  0  0  0  0
   38.6710   33.2290   48.8710 C   0  0  0  0  0  0  0  0  0  0  0  0
   38.4910   32.5400   50.0350 N   0  0  0  0  0  0  0  0  0  0  0  0
   38.2810   31.1990   49.9870 C   0  0  0  0  0  0  0  0  0  0  0  0
   38.2510   30.5490   48.7860 N   0  0  0  0  0  0  0  0  0  0  0  0
   37.2182   32.2112   45.8532 H   0  0  0  0  0  0  0  0  0  0  0  0
   36.4770   30.7177   43.6460 H   0  0  0  0  0  0  0  0  0  0  0  0
   37.6157   32.1349   43.7439 H   0  0  0  0  0  0  0  0  0  0  0  0
   38.3423   29.2025   43.9204 H   0  0  0  0  0  0  0  0  0  0  0  0
   38.6439   30.3383   42.5412 H   0  0  0  0  0  0  0  0  0  0  0  0
   40.6169   29.9146   44.0438 H   0  0  0  0  0  0  0  0  0  0  0  0
   40.1206   31.6531   43.8314 H   0  0  0  0  0  0  0  0  0  0  0  0
   40.4878   30.1754   46.2058 H   0  0  0  0  0  0  0  0  0  0  0  0
   39.9381   31.9093   45.9365 H   0  0  0  0  0  0  0  0  0  0  0  0
   38.2449   29.4457   46.3132 H   0  0  0  0  0  0  0  0  0  0  0  0
   35.7698   29.6592   43.9419 H   0  0  0  0  0  0  0  0  0  0  0  0
   33.6741   28.4057   44.5540 H   0  0  0  0  0  0  0  0  0  0  0  0
   34.0313   29.7934   48.5958 H   0  0  0  0  0  0  0  0  0  0  0  0
   38.7891   33.1410   46.7071 H   0  0  0  0  0  0  0  0  0  0  0  0
   38.8410   34.3152   48.9082 H   0  0  0  0  0  0  0  0  0  0  0  0
   38.1344   30.6339   50.9193 H   0  0  0  0  0  0  0  0  0  0  0  0
  1  7  1  0
  1  6  1  0
  2  1  1  0
  3  2  1  0
  3  4  1  0
  4  5  1  0
  5  6  1  0
  6 13  1  0
  7 12  2  0
  8  9  2  0
  8  7  1  0
  9 10  1  0
 10 11  2  0
 12 11  1  0
 13 18  1  0
 14 13  2  0
 14 15  1  0
 15 16  2  0
 17 16  1  0
 18 17  2  0
  1 19  1  1
  2 20  1  0
  2 21  1  0
  3 22  1  0
  3 23  1  0
  4 24  1  0
  4 25  1  0
  5 26  1  0
  5 27  1  0
  6 28  1  1
  8 29  1  0
  9 30  1  0
 11 31  1  0
 14 32  1  0
 15 33  1  0
 17 34  1  0
M  ISO  8  19  13  20  13  21  13  22  13  23  13  24  13  25  13  26  13
M  ISO  8  27  13  28  13  29  14  30  14  31  14  32  14  33  14  34  14
M  END
>  <minimizedAffinity>  (1) 
-4.80967379

>  <minimizedRMSD>  (1) 
5.16756868

$$$$
