
     RDKit          3D

 18 19  0  0  0  0  0  0  0  0999 V2000
   38.1040   33.0720   49.4920 C   0  0  0  0  0  0  0  0  0  0  0  0
   38.9800   33.1460   48.3980 C   0  0  0  0  0  0  0  0  0  0  0  0
   38.8000   32.2030   47.3600 C   0  0  0  0  0  0  0  0  0  0  0  0
   37.7970   31.2930   47.4870 N   0  0  0  0  0  0  0  0  0  0  0  0
   36.9730   31.2570   48.5610 C   0  0  0  0  0  0  0  0  0  0  0  0
   37.1350   32.1540   49.5620 N   0  0  0  0  0  0  0  0  0  0  0  0
   35.9210   30.2460   48.6160 C   0  0  0  0  0  0  0  0  0  0  0  0
   35.8900   29.2780   49.5650 C   0  0  0  0  0  0  0  0  0  0  0  0
   34.8780   28.3600   49.5620 C   0  0  0  0  0  0  0  0  0  0  0  0
   33.9080   28.4180   48.6110 N   0  0  0  0  0  0  0  0  0  0  0  0
   33.9630   29.3880   47.6830 C   0  0  0  0  0  0  0  0  0  0  0  0
   34.9580   30.3080   47.6680 N   0  0  0  0  0  0  0  0  0  0  0  0
   38.2183   33.7910   50.3166 H   0  0  0  0  0  0  0  0  0  0  0  0
   39.7737   33.9061   48.3501 H   0  0  0  0  0  0  0  0  0  0  0  0
   39.4527   32.2052   46.4746 H   0  0  0  0  0  0  0  0  0  0  0  0
   36.6757   29.2320   50.3335 H   0  0  0  0  0  0  0  0  0  0  0  0
   34.8480   27.5730   50.3300 H   0  0  0  0  0  0  0  0  0  0  0  0
   33.1783   29.4368   46.9137 H   0  0  0  0  0  0  0  0  0  0  0  0
  1  6  2  0
  2  1  1  0
  3  4  1  0
  3  2  2  0
  4  5  2  0
  5  7  1  0
  5  6  1  0
  7  8  2  0
  9  8  1  0
 10  9  2  0
 11 10  1  0
 12 11  2  0
 12  7  1  0
  1 13  1  0
  2 14  1  0
  3 15  1  0
  8 16  1  0
  9 17  1  0
 11 18  1  0
M  ISO  6  13  14  14  14  15  14  16  14  17  14  18  14
M  END
>  <minimizedAffinity>  (1) 
-4.31063938

>  <minimizedRMSD>  (1) 
2.94707203

$$$$
