
     RDKit          3D

 40 43  0  0  1  0  0  0  0  0999 V2000
   37.9600   31.5810   45.3050 C   0  0  0  0  0  0  0  0  0  0  0  0
   36.9160   30.9140   45.4740 O   0  0  0  0  0  0  0  0  0  0  0  0
   38.4500   32.4880   46.3340 N   0  0  0  0  0  0  0  0  0  0  0  0
   38.7550   31.4880   44.0580 C   0  0  0  0  0  0  0  0  0  0  0  0
   39.8150   30.6270   44.0030 C   0  0  0  0  0  0  0  0  0  0  0  0
   40.5210   30.5860   42.8130 C   0  0  0  0  0  0  0  0  0  0  0  0
   40.1370   31.3860   41.7780 C   0  0  0  0  0  0  0  0  0  0  0  0
   39.0650   32.2570   41.8340 C   0  0  0  0  0  0  0  0  0  0  0  0
   38.4080   32.2670   43.0010 N   0  0  0  0  0  0  0  0  0  0  0  0
   38.6920   33.0960   40.6940 C   0  0  0  0  0  0  0  0  0  0  0  0
   38.3940   34.2940   40.9060 O   0  0  0  0  0  0  0  0  0  0  0  0
   38.6530   32.5960   39.3300 C   0  0  0  0  0  0  0  0  0  0  0  0
   37.6030   31.7690   38.9910 C   0  0  0  0  0  0  0  0  0  0  0  0
   37.5330   31.2700   37.6930 C   0  0  0  0  0  0  0  0  0  0  0  0
   38.5060   31.6240   36.8190 N   0  0  0  0  0  0  0  0  0  0  0  0
   39.5210   32.4290   37.1600 C   0  0  0  0  0  0  0  0  0  0  0  0
   39.5920   32.9150   38.4200 N   0  0  0  0  0  0  0  0  0  0  0  0
   38.4670   31.4910   48.6110 C   0  0  2  0  0  0  0  0  0  0  0  0
   38.7650   32.9390   48.7680 C   0  0  0  0  0  0  0  0  0  0  0  0
   37.8660   32.3550   47.6470 C   0  0  1  0  0  0  0  0  0  0  0  0
   35.6440   29.5800   50.0620 C   0  0  0  0  0  0  0  0  0  0  0  0
   36.0680   29.4110   51.4150 C   0  0  0  0  0  0  0  0  0  0  0  0
   37.3370   29.9800   51.8050 C   0  0  0  0  0  0  0  0  0  0  0  0
   38.0900   30.6560   50.8750 N   0  0  0  0  0  0  0  0  0  0  0  0
   37.6180   30.7720   49.6150 C   0  0  0  0  0  0  0  0  0  0  0  0
   36.4070   30.2490   49.1770 N   0  0  0  0  0  0  0  0  0  0  0  0
   39.1773   33.1895   46.1344 H   0  0  0  0  0  0  0  0  0  0  0  0
   40.0932   29.9980   44.8615 H   0  0  0  0  0  0  0  0  0  0  0  0
   41.3846   29.9136   42.7034 H   0  0  0  0  0  0  0  0  0  0  0  0
   40.7143   31.3354   40.8431 H   0  0  0  0  0  0  0  0  0  0  0  0
   36.8341   31.5080   39.7331 H   0  0  0  0  0  0  0  0  0  0  0  0
   36.7108   30.6070   37.3857 H   0  0  0  0  0  0  0  0  0  0  0  0
   40.2913   32.6928   36.4203 H   0  0  0  0  0  0  0  0  0  0  0  0
   39.1056   30.5990   48.5298 H   0  0  0  0  0  0  0  0  0  0  0  0
   38.3260   33.5153   49.5957 H   0  0  0  0  0  0  0  0  0  0  0  0
   39.6645   33.5695   48.8259 H   0  0  0  0  0  0  0  0  0  0  0  0
   36.8313   32.4556   47.2875 H   0  0  0  0  0  0  0  0  0  0  0  0
   34.6811   29.1580   49.7384 H   0  0  0  0  0  0  0  0  0  0  0  0
   35.4465   28.8636   52.1389 H   0  0  0  0  0  0  0  0  0  0  0  0
   37.6980   29.8731   52.8386 H   0  0  0  0  0  0  0  0  0  0  0  0
  1  2  2  0
  1  3  1  0
  3 20  1  0
  4  1  1  0
  5  4  2  0
  6  5  1  0
  7  8  1  0
  7  6  2  0
  8  9  2  0
  9  4  1  0
 10 11  2  0
 10  8  1  0
 12 10  1  0
 13 12  2  0
 14 13  1  0
 15 16  1  0
 15 14  2  0
 16 17  2  0
 17 12  1  0
 18 19  1  0
 18 25  1  0
 20 18  1  0
 20 19  1  0
 21 22  2  0
 22 23  1  0
 24 23  2  0
 25 24  1  0
 26 25  2  0
 26 21  1  0
  3 27  1  0
  5 28  1  0
  6 29  1  0
  7 30  1  0
 13 31  1  0
 14 32  1  0
 16 33  1  0
 18 34  1  6
 19 35  1  0
 19 36  1  0
 20 37  1  6
 21 38  1  0
 22 39  1  0
 23 40  1  0
M  ISO  8  28  14  29  14  30  14  31  14  32  14  33  14  34  13  35  13
M  ISO  5  36  13  37  13  38  14  39  14  40  14
M  END
>  <minimizedAffinity>  (1) 
-5.4376626

>  <minimizedRMSD>  (1) 
1.3259933

$$$$
