
     RDKit          3D

 30 32  0  0  0  0  0  0  0  0999 V2000
   39.0090   31.1880   46.9270 Cl  0  0  0  0  0  0  0  0  0  0  0  0
   37.4360   30.7580   46.3340 C   0  0  0  0  0  0  0  0  0  0  0  0
   36.5670   30.3640   47.3110 C   0  0  0  0  0  0  0  0  0  0  0  0
   35.2550   30.0050   46.9330 C   0  0  0  0  0  0  0  0  0  0  0  0
   34.8550   30.0480   45.6330 C   0  0  0  0  0  0  0  0  0  0  0  0
   35.7600   30.4520   44.6650 C   0  0  0  0  0  0  0  0  0  0  0  0
   35.2580   30.5170   42.9900 Cl  0  0  0  0  0  0  0  0  0  0  0  0
   37.0340   30.8000   45.0340 C   0  0  0  0  0  0  0  0  0  0  0  0
   37.0960   31.4270   49.4730 C   0  0  0  0  0  0  0  0  0  0  0  0
   36.7710   30.2360   48.7570 C   0  0  0  0  0  0  0  0  0  0  0  0
   36.6770   29.0630   49.4770 C   0  0  0  0  0  0  0  0  0  0  0  0
   36.8980   29.1170   50.8160 N   0  0  0  0  0  0  0  0  0  0  0  0
   37.2020   30.2490   51.4670 C   0  0  0  0  0  0  0  0  0  0  0  0
   37.3010   31.4060   50.7910 N   0  0  0  0  0  0  0  0  0  0  0  0
   38.0190   31.2090   44.0390 C   0  0  0  0  0  0  0  0  0  0  0  0
   38.2240   32.3760   43.5850 O   0  0  0  0  0  0  0  0  0  0  0  0
   38.9250   30.2000   43.4350 C   0  0  0  0  0  0  0  0  0  0  0  0
   40.1450   30.5980   42.9310 C   0  0  0  0  0  0  0  0  0  0  0  0
   41.0760   29.7440   42.3290 C   0  0  0  0  0  0  0  0  0  0  0  0
   40.7340   28.4430   42.2470 N   0  0  0  0  0  0  0  0  0  0  0  0
   39.5420   28.0600   42.7400 C   0  0  0  0  0  0  0  0  0  0  0  0
   38.6790   28.9100   43.3090 N   0  0  0  0  0  0  0  0  0  0  0  0
   34.5410   29.6837   47.7056 H   0  0  0  0  0  0  0  0  0  0  0  0
   33.8287   29.7663   45.3550 H   0  0  0  0  0  0  0  0  0  0  0  0
   37.1789   32.3791   48.9284 H   0  0  0  0  0  0  0  0  0  0  0  0
   36.4304   28.1124   48.9815 H   0  0  0  0  0  0  0  0  0  0  0  0
   37.3703   30.2305   52.5539 H   0  0  0  0  0  0  0  0  0  0  0  0
   40.4054   31.6640   43.0076 H   0  0  0  0  0  0  0  0  0  0  0  0
   42.0368   30.1152   41.9429 H   0  0  0  0  0  0  0  0  0  0  0  0
   39.2637   26.9980   42.6721 H   0  0  0  0  0  0  0  0  0  0  0  0
  2  1  1  0
  2  3  2  0
  3 10  1  0
  4  3  1  0
  5  4  2  0
  6  8  2  0
  6  5  1  0
  7  6  1  0
  8  2  1  0
  9 14  2  0
 10  9  1  0
 10 11  2  0
 11 12  1  0
 12 13  2  0
 14 13  1  0
 15  8  1  0
 16 15  2  0
 17 15  1  0
 18 17  2  0
 19 18  1  0
 20 19  2  0
 20 21  1  0
 21 22  2  0
 22 17  1  0
  4 23  1  0
  5 24  1  0
  9 25  1  0
 11 26  1  0
 13 27  1  0
 18 28  1  0
 19 29  1  0
 21 30  1  0
M  ISO  8  23  14  24  14  25  14  26  14  27  14  28  14  29  14  30  14
M  END
>  <minimizedAffinity>  (1) 
-5.46934652

>  <minimizedRMSD>  (1) 
6.04371119

$$$$
