
     RDKit          3D

 39 41  0  0  1  0  0  0  0  0999 V2000
   31.9150   26.8250   48.2970 C   0  0  1  0  0  0  0  0  0  0  0  0
   32.5970   28.1720   48.3040 C   0  0  2  0  0  0  0  0  0  0  0  0
   32.5260   28.7180   46.9100 C   0  0  0  0  0  0  0  0  0  0  0  0
   31.8910   27.8750   46.0200 O   0  0  0  0  0  0  0  0  0  0  0  0
   30.5830   27.5920   46.4010 C   0  0  0  0  0  0  0  0  0  0  0  0
   30.4940   27.0560   47.7950 C   0  0  2  0  0  0  0  0  0  0  0  0
   32.5230   25.9540   47.3930 O   0  0  0  0  0  0  0  0  0  0  0  0
   34.2990   28.0660   48.8950 S   0  0  0  0  0  0  0  0  0  0  0  0
   34.6180   29.3530   50.1230 C   0  0  0  0  0  0  0  0  0  0  0  0
   36.3280   29.4690   50.6190 S   0  0  0  0  0  0  0  0  0  0  0  0
   37.1720   30.6240   49.5540 C   0  0  0  0  0  0  0  0  0  0  0  0
   37.2240   31.9230   50.0300 C   0  0  0  0  0  0  0  0  0  0  0  0
   37.8730   32.8910   49.2470 C   0  0  0  0  0  0  0  0  0  0  0  0
   38.4120   32.4930   48.0670 N   0  0  0  0  0  0  0  0  0  0  0  0
   38.3330   31.2060   47.6480 C   0  0  0  0  0  0  0  0  0  0  0  0
   37.7260   30.2960   48.3760 N   0  0  0  0  0  0  0  0  0  0  0  0
   29.9550   28.0040   48.6520 O   0  0  0  0  0  0  0  0  0  0  0  0
   28.9530   27.8640   49.5680 C   0  0  0  0  0  0  0  0  0  0  0  0
   28.9910   27.1130   50.7330 C   0  0  0  0  0  0  0  0  0  0  0  0
   27.9100   27.0480   51.5830 C   0  0  0  0  0  0  0  0  0  0  0  0
   26.7670   27.7320   51.2910 N   0  0  0  0  0  0  0  0  0  0  0  0
   26.7370   28.4670   50.1430 C   0  0  0  0  0  0  0  0  0  0  0  0
   27.7950   28.5340   49.3050 N   0  0  0  0  0  0  0  0  0  0  0  0
   31.9611   26.3900   49.3063 H   0  0  0  0  0  0  0  0  0  0  0  0
   32.0851   28.8484   49.0043 H   0  0  0  0  0  0  0  0  0  0  0  0
   31.9787   29.6718   46.9371 H   0  0  0  0  0  0  0  0  0  0  0  0
   33.5607   28.8406   46.5575 H   0  0  0  0  0  0  0  0  0  0  0  0
   29.9903   28.5167   46.3404 H   0  0  0  0  0  0  0  0  0  0  0  0
   30.1974   26.8182   45.7208 H   0  0  0  0  0  0  0  0  0  0  0  0
   29.8773   26.1453   47.7792 H   0  0  0  0  0  0  0  0  0  0  0  0
   33.0131   25.2519   47.8899 H   0  0  0  0  0  0  0  0  0  0  0  0
   34.3141   30.3208   49.6977 H   0  0  0  0  0  0  0  0  0  0  0  0
   34.0416   29.0877   51.0215 H   0  0  0  0  0  0  0  0  0  0  0  0
   36.7692   32.1895   50.9955 H   0  0  0  0  0  0  0  0  0  0  0  0
   37.9422   33.9374   49.5791 H   0  0  0  0  0  0  0  0  0  0  0  0
   38.7830   30.9198   46.6859 H   0  0  0  0  0  0  0  0  0  0  0  0
   29.9060   26.5563   50.9838 H   0  0  0  0  0  0  0  0  0  0  0  0
   27.9684   26.4429   52.4998 H   0  0  0  0  0  0  0  0  0  0  0  0
   25.8222   29.0233   49.8909 H   0  0  0  0  0  0  0  0  0  0  0  0
  1  2  1  0
  2  8  1  0
  3  2  1  0
  4  5  1  0
  4  3  1  0
  5  6  1  0
  6  1  1  0
  6 17  1  0
  7  1  1  0
  8  9  1  0
  9 10  1  0
 11 12  2  0
 11 10  1  0
 13 12  1  0
 14 13  2  0
 15 14  1  0
 15 16  2  0
 16 11  1  0
 17 18  1  0
 18 19  2  0
 19 20  1  0
 21 20  2  0
 22 21  1  0
 23 18  1  0
 23 22  2  0
  1 24  1  1
  2 25  1  1
  3 26  1  0
  3 27  1  0
  5 28  1  0
  5 29  1  0
  6 30  1  6
  7 31  1  0
  9 32  1  0
  9 33  1  0
 12 34  1  0
 13 35  1  0
 15 36  1  0
 19 37  1  0
 20 38  1  0
 22 39  1  0
M  ISO  8  24  13  25  13  26  13  27  13  28  13  29  13  30  13  31   3
M  ISO  8  32   8  33   8  34  14  35  14  36  14  37  14  38  14  39  14
M  END
>  <minimizedAffinity>  (1) 
-5.63532972

>  <minimizedRMSD>  (1) 
1.24032748

$$$$
