
     RDKit          3D

 44 46  0  0  0  0  0  0  0  0999 V2000
   30.2280   28.2380   48.1370 O   0  0  0  0  0  0  0  0  0  0  0  0
   27.9760   28.1220   48.6030 C   0  0  0  0  0  0  0  0  0  0  0  0
   29.2800   27.9170   49.0740 C   0  0  0  0  0  0  0  0  0  0  0  0
   29.5200   27.4430   50.3510 C   0  0  0  0  0  0  0  0  0  0  0  0
   28.4550   27.1690   51.1660 C   0  0  0  0  0  0  0  0  0  0  0  0
   27.1880   27.3650   50.7200 C   0  0  0  0  0  0  0  0  0  0  0  0
   26.8970   27.8330   49.4630 C   0  0  0  0  0  0  0  0  0  0  0  0
   27.5930   28.7170   47.0070 S   0  0  0  0  0  0  0  0  0  0  0  0
   28.7890   28.6470   46.1170 O   0  0  0  0  0  0  0  0  0  0  0  0
   26.4470   27.8790   46.4460 O   0  0  0  0  0  0  0  0  0  0  0  0
   26.9710   30.3340   47.0610 C   0  0  0  0  0  0  0  0  0  0  0  0
   26.5260   30.9460   48.2360 C   0  0  0  0  0  0  0  0  0  0  0  0
   26.0440   32.2490   48.1800 C   0  0  0  0  0  0  0  0  0  0  0  0
   26.0040   32.9210   47.0040 N   0  0  0  0  0  0  0  0  0  0  0  0
   26.4340   32.3280   45.8800 C   0  0  0  0  0  0  0  0  0  0  0  0
   26.8920   31.0840   45.9460 N   0  0  0  0  0  0  0  0  0  0  0  0
   31.7200   26.0620   48.1860 O   0  0  0  0  0  0  0  0  0  0  0  0
   31.7580   27.5720   47.9600 P   0  0  1  0  0  0  0  0  0  0  0  0
   32.4190   27.9460   46.4420 O   0  0  0  0  0  0  0  0  0  0  0  0
   32.8270   28.1570   49.1570 O   0  0  0  0  0  0  0  0  0  0  0  0
   34.1410   27.8250   48.7780 C   0  0  0  0  0  0  0  0  0  0  0  0
   36.1320   29.1800   49.2980 C   0  0  0  0  0  0  0  0  0  0  0  0
   35.0050   29.0230   48.6560 C   0  0  0  0  0  0  0  0  0  0  0  0
   37.4520   32.5800   49.6120 C   0  0  0  0  0  0  0  0  0  0  0  0
   38.3720   32.6340   48.5690 C   0  0  0  0  0  0  0  0  0  0  0  0
   38.5300   31.4970   47.7650 C   0  0  0  0  0  0  0  0  0  0  0  0
   37.7470   30.4250   48.0940 N   0  0  0  0  0  0  0  0  0  0  0  0
   36.8820   30.4000   49.0890 C   0  0  0  0  0  0  0  0  0  0  0  0
   36.7550   31.4930   49.8330 N   0  0  0  0  0  0  0  0  0  0  0  0
   30.5497   27.2888   50.7058 H   0  0  0  0  0  0  0  0  0  0  0  0
   28.6261   26.7893   52.1841 H   0  0  0  0  0  0  0  0  0  0  0  0
   26.3534   27.1375   51.3995 H   0  0  0  0  0  0  0  0  0  0  0  0
   25.8563   27.9778   49.1374 H   0  0  0  0  0  0  0  0  0  0  0  0
   26.5567   30.4039   49.1927 H   0  0  0  0  0  0  0  0  0  0  0  0
   25.6916   32.7392   49.0995 H   0  0  0  0  0  0  0  0  0  0  0  0
   26.4074   32.8639   44.9197 H   0  0  0  0  0  0  0  0  0  0  0  0
   33.2740   28.4298   46.5645 H   0  0  0  0  0  0  0  0  0  0  0  0
   34.5702   27.1538   49.5365 H   0  0  0  0  0  0  0  0  0  0  0  0
   34.0967   27.3373   47.7930 H   0  0  0  0  0  0  0  0  0  0  0  0
   36.5025   28.4023   49.9821 H   0  0  0  0  0  0  0  0  0  0  0  0
   34.6772   29.8295   47.9836 H   0  0  0  0  0  0  0  0  0  0  0  0
   37.3087   33.4591   50.2574 H   0  0  0  0  0  0  0  0  0  0  0  0
   38.9594   33.5448   48.3808 H   0  0  0  0  0  0  0  0  0  0  0  0
   39.2381   31.4686   46.9237 H   0  0  0  0  0  0  0  0  0  0  0  0
  1  3  1  0
  2  3  1  0
  2  7  2  0
  3  4  2  0
  4  5  1  0
  6  5  2  0
  7  6  1  0
  8 11  1  0
  8  2  1  0
  9  8  2  0
 10  8  2  0
 11 12  2  0
 13 12  1  0
 14 13  2  0
 15 16  2  0
 15 14  1  0
 16 11  1  0
 18  1  1  0
 18 17  2  0
 18 20  1  0
 19 18  1  0
 21 20  1  0
 23 21  1  0
 23 22  2  0
 24 29  2  0
 25 24  1  0
 26 27  1  0
 26 25  2  0
 27 28  2  0
 28 22  1  0
 28 29  1  0
  4 30  1  0
  5 31  1  0
  6 32  1  0
  7 33  1  0
 12 34  1  0
 13 35  1  0
 15 36  1  0
 19 37  1  0
 21 38  1  0
 21 39  1  0
 22 40  1  0
 23 41  1  0
 24 42  1  0
 25 43  1  0
 26 44  1  0
M  ISO  8  30  14  31  14  32  14  33  14  34  14  35  14  36  14  37   3
M  ISO  5  38   8  39   8  42  14  43  14  44  14
M  END
>  <minimizedAffinity>  (1) 
-6.89327812

>  <minimizedRMSD>  (1) 
2.34447837

$$$$
