
     RDKit          3D

 39 41  0  0  0  0  0  0  0  0999 V2000
   35.0090   28.3750   49.3460 O   0  0  0  0  0  0  0  0  0  0  0  0
   37.2810   30.1250   51.5340 C   0  0  0  0  0  0  0  0  0  0  0  0
   38.0320   30.8470   50.5870 C   0  0  0  0  0  0  0  0  0  0  0  0
   37.7070   30.6850   49.2370 C   0  0  0  0  0  0  0  0  0  0  0  0
   36.6800   29.8310   48.9810 N   0  0  0  0  0  0  0  0  0  0  0  0
   35.9750   29.1520   49.8880 C   0  0  0  0  0  0  0  0  0  0  0  0
   36.2990   29.3170   51.1910 N   0  0  0  0  0  0  0  0  0  0  0  0
   38.8530   33.3390   49.1550 F   0  0  0  0  0  0  0  0  0  0  0  0
   38.8980   32.5670   48.0770 C   0  0  0  0  0  0  0  0  0  0  0  0
   38.3630   31.3400   48.1300 C   0  0  0  0  0  0  0  0  0  0  0  0
   38.4640   30.6080   46.9430 C   0  0  0  0  0  0  0  0  0  0  0  0
   39.0600   31.1070   45.8200 C   0  0  0  0  0  0  0  0  0  0  0  0
   39.6040   32.3810   45.8000 C   0  0  0  0  0  0  0  0  0  0  0  0
   39.5080   33.1030   46.9630 C   0  0  0  0  0  0  0  0  0  0  0  0
   34.4200   28.7550   48.1210 C   0  0  0  0  0  0  0  0  0  0  0  0
   33.5480   27.6590   47.5730 C   0  0  0  0  0  0  0  0  0  0  0  0
   32.0990   27.9400   47.7530 C   0  0  0  0  0  0  0  0  0  0  0  0
   31.5180   27.5030   48.9480 C   0  0  0  0  0  0  0  0  0  0  0  0
   30.1840   27.7190   49.2000 C   0  0  0  0  0  0  0  0  0  0  0  0
   29.4340   28.3530   48.2950 N   0  0  0  0  0  0  0  0  0  0  0  0
   30.0260   28.7680   47.1380 C   0  0  0  0  0  0  0  0  0  0  0  0
   31.3270   28.5730   46.8580 N   0  0  0  0  0  0  0  0  0  0  0  0
   29.1620   29.4720   46.1460 C   0  0  0  0  0  0  0  0  0  0  0  0
   28.0330   29.8860   46.8890 O   0  0  0  0  0  0  0  0  0  0  0  0
   37.5235   30.2400   52.6007 H   0  0  0  0  0  0  0  0  0  0  0  0
   38.8473   31.5163   50.8989 H   0  0  0  0  0  0  0  0  0  0  0  0
   38.0472   29.5905   46.9124 H   0  0  0  0  0  0  0  0  0  0  0  0
   39.1090   30.4853   44.9139 H   0  0  0  0  0  0  0  0  0  0  0  0
   40.0866   32.7914   44.9008 H   0  0  0  0  0  0  0  0  0  0  0  0
   39.9225   34.1210   47.0069 H   0  0  0  0  0  0  0  0  0  0  0  0
   33.8074   29.6545   48.2813 H   0  0  0  0  0  0  0  0  0  0  0  0
   35.2228   28.9562   47.3964 H   0  0  0  0  0  0  0  0  0  0  0  0
   33.7925   26.7207   48.0925 H   0  0  0  0  0  0  0  0  0  0  0  0
   33.7425   27.5860   46.4928 H   0  0  0  0  0  0  0  0  0  0  0  0
   32.1351   26.9809   49.6941 H   0  0  0  0  0  0  0  0  0  0  0  0
   29.7364   27.3712   50.1427 H   0  0  0  0  0  0  0  0  0  0  0  0
   28.8652   28.7897   45.3358 H   0  0  0  0  0  0  0  0  0  0  0  0
   29.6790   30.3162   45.6665 H   0  0  0  0  0  0  0  0  0  0  0  0
   28.2301   29.8137   47.8565 H   0  0  0  0  0  0  0  0  0  0  0  0
  1  6  1  0
  3  2  2  0
  4  3  1  0
  5  4  2  0
  5  6  1  0
  6  7  2  0
  7  2  1  0
  9 10  2  0
  9  8  1  0
 10  4  1  0
 11 10  1  0
 12 11  2  0
 13 12  1  0
 13 14  2  0
 14  9  1  0
 15  1  1  0
 16 17  1  0
 16 15  1  0
 17 18  2  0
 18 19  1  0
 20 19  2  0
 21 20  1  0
 22 21  2  0
 22 17  1  0
 23 24  1  0
 23 21  1  0
  2 25  1  0
  3 26  1  0
 11 27  1  0
 12 28  1  0
 13 29  1  0
 14 30  1  0
 15 31  1  0
 15 32  1  0
 16 33  1  0
 16 34  1  0
 18 35  1  0
 19 36  1  0
 23 37  1  0
 23 38  1  0
 24 39  1  0
M  ISO  8  25  14  26  14  27  14  28  14  29  14  30  14  31   8  32   8
M  ISO  7  33   8  34   8  35  14  36  14  37   8  38   8  39   3
M  END
>  <minimizedAffinity>  (1) 
-6.25007868

>  <minimizedRMSD>  (1) 
0.537196279

$$$$
