
     RDKit          3D

 29 30  0  0  1  0  0  0  0  0999 V2000
   37.3240   31.0940   49.3100 C   0  0  0  0  0  0  0  0  0  0  0  0
   37.4930   32.3860   49.8590 C   0  0  0  0  0  0  0  0  0  0  0  0
   38.1800   33.3440   49.0970 C   0  0  0  0  0  0  0  0  0  0  0  0
   38.6380   32.9530   47.8700 N   0  0  0  0  0  0  0  0  0  0  0  0
   38.4590   31.7200   47.3810 C   0  0  0  0  0  0  0  0  0  0  0  0
   37.8020   30.7890   48.1000 N   0  0  0  0  0  0  0  0  0  0  0  0
   38.9790   31.4240   46.0920 N   0  0  0  0  0  0  0  0  0  0  0  0
   40.3300   30.9030   45.9770 C   0  0  0  0  0  0  0  0  0  0  0  0
   40.9620   31.7060   44.8370 C   0  0  0  0  0  0  0  0  0  0  0  0
   40.2630   31.2120   43.5930 C   0  0  0  0  0  0  0  0  0  0  0  0
   38.8500   31.6850   43.6300 C   0  0  0  0  0  0  0  0  0  0  0  0
   38.1800   31.6380   44.9460 C   0  0  2  0  0  0  0  0  0  0  0  0
   36.5920   30.0810   50.1260 C   0  0  0  0  0  0  0  0  0  0  0  0
   35.2300   30.3860   50.1290 F   0  0  0  0  0  0  0  0  0  0  0  0
   36.8930   28.8470   49.6280 F   0  0  0  0  0  0  0  0  0  0  0  0
   37.0280   30.2150   51.4380 F   0  0  0  0  0  0  0  0  0  0  0  0
   37.5310   32.8710   45.1270 O   0  0  0  0  0  0  0  0  0  0  0  0
   37.0973   32.6334   50.8551 H   0  0  0  0  0  0  0  0  0  0  0  0
   38.3428   34.3655   49.4713 H   0  0  0  0  0  0  0  0  0  0  0  0
   40.8857   31.0565   46.9138 H   0  0  0  0  0  0  0  0  0  0  0  0
   40.3428   29.8209   45.7800 H   0  0  0  0  0  0  0  0  0  0  0  0
   40.7894   32.7832   44.9781 H   0  0  0  0  0  0  0  0  0  0  0  0
   42.0525   31.5712   44.7852 H   0  0  0  0  0  0  0  0  0  0  0  0
   40.2864   30.1126   43.5651 H   0  0  0  0  0  0  0  0  0  0  0  0
   40.7684   31.5988   42.6958 H   0  0  0  0  0  0  0  0  0  0  0  0
   38.8365   32.7290   43.2838 H   0  0  0  0  0  0  0  0  0  0  0  0
   38.2896   30.9879   42.9896 H   0  0  0  0  0  0  0  0  0  0  0  0
   37.5295   30.7528   44.8888 H   0  0  0  0  0  0  0  0  0  0  0  0
   37.4346   33.0542   46.0951 H   0  0  0  0  0  0  0  0  0  0  0  0
  1  2  2  0
  1 13  1  0
  3  2  1  0
  4  3  2  0
  5  4  1  0
  5  6  2  0
  6  1  1  0
  7  5  1  0
  8  7  1  0
  9  8  1  0
 10 11  1  0
 10  9  1  0
 11 12  1  0
 12 17  1  0
 12  7  1  0
 13 14  1  0
 13 16  1  0
 15 13  1  0
  2 18  1  0
  3 19  1  0
  8 20  1  0
  8 21  1  0
  9 22  1  0
  9 23  1  0
 10 24  1  0
 10 25  1  0
 11 26  1  0
 11 27  1  0
 12 28  1  6
 17 29  1  0
M  ISO  8  18  14  19  14  20  13  21  13  22  13  23  13  24  13  25  13
M  ISO  4  26  13  27  13  28  13  29   3
M  END
>  <minimizedAffinity>  (1) 
-6.19439316

>  <minimizedRMSD>  (1) 
0.774136901

$$$$
