
     RDKit          3D

 38 41  0  0  1  0  0  0  0  0999 V2000
   36.1570   30.1770   46.8120 C   0  0  0  0  0  0  0  0  0  0  0  0
   37.0390   30.7340   47.7110 C   0  0  0  0  0  0  0  0  0  0  0  0
   38.0360   31.6240   47.2910 C   0  0  0  0  0  0  0  0  0  0  0  0
   38.0820   31.9080   45.9360 C   0  0  0  0  0  0  0  0  0  0  0  0
   38.9510   32.7400   45.2900 N   0  0  0  0  0  0  0  0  0  0  0  0
   38.6120   32.7010   43.9930 C   0  0  0  0  0  0  0  0  0  0  0  0
   37.5890   31.8960   43.8080 N   0  0  0  0  0  0  0  0  0  0  0  0
   37.2170   31.3700   45.0040 C   0  0  0  0  0  0  0  0  0  0  0  0
   36.2330   30.4850   45.4590 C   0  0  0  0  0  0  0  0  0  0  0  0
   37.5680   30.2430   51.4050 C   0  0  0  0  0  0  0  0  0  0  0  0
   37.8250   30.6490   50.1040 C   0  0  0  0  0  0  0  0  0  0  0  0
   36.9110   30.3740   49.1130 C   0  0  0  0  0  0  0  0  0  0  0  0
   35.7780   29.7010   49.4770 N   0  0  0  0  0  0  0  0  0  0  0  0
   35.5290   29.3060   50.7400 C   0  0  0  0  0  0  0  0  0  0  0  0
   36.4200   29.5780   51.6900 N   0  0  0  0  0  0  0  0  0  0  0  0
   39.3050   33.4510   43.0320 O   0  0  0  0  0  0  0  0  0  0  0  0
   39.1470   31.7510   41.5120 N   0  0  0  0  0  0  0  0  0  0  0  0
   38.9490   33.2090   41.6760 C   0  0  1  0  0  0  0  0  0  0  0  0
   37.5470   33.5150   41.4100 C   0  0  0  0  0  0  0  0  0  0  0  0
   37.2820   33.2360   40.0560 O   0  0  0  0  0  0  0  0  0  0  0  0
   37.5620   31.9600   39.6610 C   0  0  0  0  0  0  0  0  0  0  0  0
   38.9280   31.4970   40.1060 C   0  0  1  0  0  0  0  0  0  0  0  0
   39.9420   32.0450   39.3180 O   0  0  0  0  0  0  0  0  0  0  0  0
   35.3838   29.4806   47.1688 H   0  0  0  0  0  0  0  0  0  0  0  0
   38.7458   32.0741   48.0007 H   0  0  0  0  0  0  0  0  0  0  0  0
   39.7136   33.2875   45.7137 H   0  0  0  0  0  0  0  0  0  0  0  0
   35.5232   30.0353   44.7491 H   0  0  0  0  0  0  0  0  0  0  0  0
   38.2928   30.4595   52.2036 H   0  0  0  0  0  0  0  0  0  0  0  0
   38.7540   31.1877   49.8658 H   0  0  0  0  0  0  0  0  0  0  0  0
   34.6020   28.7660   50.9830 H   0  0  0  0  0  0  0  0  0  0  0  0
   40.1040   31.4833   41.7830 H   0  0  0  0  0  0  0  0  0  0  0  0
   39.5446   33.8339   40.9942 H   0  0  0  0  0  0  0  0  0  0  0  0
   36.9030   32.8944   42.0504 H   0  0  0  0  0  0  0  0  0  0  0  0
   37.3433   34.5743   41.6252 H   0  0  0  0  0  0  0  0  0  0  0  0
   36.8056   31.2856   40.0888 H   0  0  0  0  0  0  0  0  0  0  0  0
   37.5482   31.9429   38.5612 H   0  0  0  0  0  0  0  0  0  0  0  0
   38.9619   30.4067   39.9645 H   0  0  0  0  0  0  0  0  0  0  0  0
   40.6451   32.4250   39.9023 H   0  0  0  0  0  0  0  0  0  0  0  0
  1  2  2  0
  2 12  1  0
  3  2  1  0
  4  3  2  0
  5  4  1  0
  6  5  1  0
  7  6  2  0
  7  8  1  0
  8  9  2  0
  8  4  1  0
  9  1  1  0
 10 15  2  0
 11 10  1  0
 12 13  1  0
 12 11  2  0
 13 14  2  0
 14 15  1  0
 16  6  1  0
 17 18  1  0
 18 16  1  0
 19 18  1  0
 20 19  1  0
 21 20  1  0
 21 22  1  0
 22 17  1  0
 23 22  1  0
  1 24  1  0
  3 25  1  0
  5 26  1  0
  9 27  1  0
 10 28  1  0
 11 29  1  0
 14 30  1  0
 17 31  1  0
 18 32  1  6
 19 33  1  0
 19 34  1  0
 21 35  1  0
 21 36  1  0
 22 37  1  1
 23 38  1  0
M  ISO  8  24  14  25  14  26   9  27  14  28  14  29  14  30  14  31   5
M  ISO  7  32  13  33  13  34  13  35  13  36  13  37  13  38   3
M  END
>  <minimizedAffinity>  (1) 
-5.5293169

>  <minimizedRMSD>  (1) 
0.286354512

$$$$
