
     RDKit          3D

 28 29  0  0  1  0  0  0  0  0999 V2000
   37.3210   30.9870   49.5250 C   0  0  0  0  0  0  0  0  0  0  0  0
   37.4590   32.2680   50.0520 C   0  0  0  0  0  0  0  0  0  0  0  0
   38.0550   33.2610   49.2490 C   0  0  0  0  0  0  0  0  0  0  0  0
   38.4580   32.8940   47.9970 N   0  0  0  0  0  0  0  0  0  0  0  0
   38.3100   31.6590   47.5250 C   0  0  0  0  0  0  0  0  0  0  0  0
   37.7440   30.7010   48.2760 N   0  0  0  0  0  0  0  0  0  0  0  0
   38.7680   31.3930   46.2060 N   0  0  0  0  0  0  0  0  0  0  0  0
   40.1270   30.9370   45.9950 C   0  0  0  0  0  0  0  0  0  0  0  0
   40.7670   31.6340   44.8170 C   0  0  0  0  0  0  0  0  0  0  0  0
   39.9180   31.6700   43.6690 N   0  0  0  0  0  0  0  0  0  0  0  0
   38.6440   31.0470   43.8390 C   0  0  0  0  0  0  0  0  0  0  0  0
   37.8940   31.5690   45.0460 C   0  0  2  0  0  0  0  0  0  0  0  0
   36.6900   29.9320   50.3720 C   0  0  0  0  0  0  0  0  0  0  0  0
   35.2980   30.0860   50.3510 F   0  0  0  0  0  0  0  0  0  0  0  0
   37.1210   28.7230   49.9350 F   0  0  0  0  0  0  0  0  0  0  0  0
   37.0800   30.1790   51.6860 F   0  0  0  0  0  0  0  0  0  0  0  0
   37.5750   32.9080   44.8710 O   0  0  0  0  0  0  0  0  0  0  0  0
   37.1116   32.4994   51.0697 H   0  0  0  0  0  0  0  0  0  0  0  0
   38.1900   34.2893   49.6157 H   0  0  0  0  0  0  0  0  0  0  0  0
   40.7186   31.1456   46.8986 H   0  0  0  0  0  0  0  0  0  0  0  0
   40.1008   29.8575   45.7854 H   0  0  0  0  0  0  0  0  0  0  0  0
   41.0087   32.6668   45.1083 H   0  0  0  0  0  0  0  0  0  0  0  0
   41.6688   31.0659   44.5451 H   0  0  0  0  0  0  0  0  0  0  0  0
   40.4055   31.1943   42.8964 H   0  0  0  0  0  0  0  0  0  0  0  0
   38.0381   31.2343   42.9403 H   0  0  0  0  0  0  0  0  0  0  0  0
   38.8183   29.9723   43.9958 H   0  0  0  0  0  0  0  0  0  0  0  0
   36.9502   31.0223   45.1888 H   0  0  0  0  0  0  0  0  0  0  0  0
   37.4719   33.3410   45.7553 H   0  0  0  0  0  0  0  0  0  0  0  0
  1  2  2  0
  1 13  1  0
  3  2  1  0
  4  3  2  0
  5  4  1  0
  5  6  2  0
  6  1  1  0
  7  5  1  0
  8  7  1  0
  9  8  1  0
 10 11  1  0
 10  9  1  0
 11 12  1  0
 12  7  1  0
 13 16  1  0
 14 13  1  0
 15 13  1  0
 17 12  1  0
  2 18  1  0
  3 19  1  0
  8 20  1  0
  8 21  1  0
  9 22  1  0
  9 23  1  0
 10 24  1  0
 11 25  1  0
 11 26  1  0
 12 27  1  1
 17 28  1  0
M  ISO  8  18  14  19  14  20  13  21  13  22  13  23  13  24   5  25  13
M  ISO  3  26  13  27  13  28   3
M  END
>  <minimizedAffinity>  (1) 
-6.20202637

>  <minimizedRMSD>  (1) 
0.85438323

$$$$
