
     RDKit          3D

 34 36  0  0  1  0  0  0  0  0999 V2000
   39.1670   32.7430   45.1930 C   0  0  0  0  0  0  0  0  0  0  0  0
   40.1040   31.8690   44.6540 C   0  0  0  0  0  0  0  0  0  0  0  0
   39.7540   30.5360   44.5110 C   0  0  0  0  0  0  0  0  0  0  0  0
   38.5190   30.1340   44.9020 N   0  0  0  0  0  0  0  0  0  0  0  0
   37.6340   30.9500   45.4090 C   0  0  0  0  0  0  0  0  0  0  0  0
   38.0190   32.1930   45.5190 N   0  0  0  0  0  0  0  0  0  0  0  0
   36.3580   30.4980   45.7950 N   0  0  0  0  0  0  0  0  0  0  0  0
   35.4360   29.8500   44.8570 C   0  0  0  0  0  0  0  0  0  0  0  0
   34.2960   29.4120   45.6680 C   0  0  0  0  0  0  0  0  0  0  0  0
   34.7960   29.4980   47.1120 C   0  0  0  0  0  0  0  0  0  0  0  0
   35.7110   30.6260   47.1110 C   0  0  1  0  0  0  0  0  0  0  0  0
   36.6770   29.9100   49.3370 C   0  0  0  0  0  0  0  0  0  0  0  0
   36.5650   30.7970   48.2500 C   0  0  0  0  0  0  0  0  0  0  0  0
   37.4800   31.8370   48.3470 C   0  0  0  0  0  0  0  0  0  0  0  0
   38.4040   32.0020   49.3670 C   0  0  0  0  0  0  0  0  0  0  0  0
   38.4420   31.0600   50.4090 C   0  0  0  0  0  0  0  0  0  0  0  0
   37.5620   29.9920   50.3990 C   0  0  0  0  0  0  0  0  0  0  0  0
   34.9500   28.0160   49.5230 N   0  0  0  0  0  0  0  0  0  0  0  0
   35.7070   28.8470   49.4300 C   0  0  0  0  0  0  0  0  0  0  0  0
   37.5930   29.0630   51.4220 O   0  0  0  0  0  0  0  0  0  0  0  0
   39.3712   33.8144   45.3359 H   0  0  0  0  0  0  0  0  0  0  0  0
   41.0984   32.2267   44.3487 H   0  0  0  0  0  0  0  0  0  0  0  0
   40.4674   29.8142   44.0865 H   0  0  0  0  0  0  0  0  0  0  0  0
   35.9201   28.9870   44.3764 H   0  0  0  0  0  0  0  0  0  0  0  0
   35.1260   30.5327   44.0522 H   0  0  0  0  0  0  0  0  0  0  0  0
   33.4326   30.0762   45.5155 H   0  0  0  0  0  0  0  0  0  0  0  0
   33.9587   28.3993   45.4022 H   0  0  0  0  0  0  0  0  0  0  0  0
   33.9594   29.6761   47.8036 H   0  0  0  0  0  0  0  0  0  0  0  0
   35.2784   28.5671   47.4448 H   0  0  0  0  0  0  0  0  0  0  0  0
   35.1886   31.5856   47.2386 H   0  0  0  0  0  0  0  0  0  0  0  0
   37.4708   32.5928   47.5479 H   0  0  0  0  0  0  0  0  0  0  0  0
   39.0964   32.8567   49.3608 H   0  0  0  0  0  0  0  0  0  0  0  0
   39.1675   31.1709   51.2284 H   0  0  0  0  0  0  0  0  0  0  0  0
   38.2437   29.1625   52.1614 H   0  0  0  0  0  0  0  0  0  0  0  0
  1  6  2  0
  2  1  1  0
  3  2  2  0
  3  4  1  0
  4  5  2  0
  5  6  1  0
  5  7  1  0
  7 11  1  0
  8  9  1  0
  8  7  1  0
  9 10  1  0
 11 10  1  0
 11 13  1  0
 12 19  1  0
 12 17  2  0
 13 14  2  0
 13 12  1  0
 14 15  1  0
 15 16  2  0
 17 16  1  0
 17 20  1  0
 19 18  3  0
  1 21  1  0
  2 22  1  0
  3 23  1  0
  8 24  1  0
  8 25  1  0
  9 26  1  0
  9 27  1  0
 10 28  1  0
 10 29  1  0
 11 30  1  6
 14 31  1  0
 15 32  1  0
 16 33  1  0
 20 34  1  0
M  ISO  8  21  14  22  14  23  14  24  13  25  13  26  13  27  13  28  13
M  ISO  6  29  13  30  13  31  14  32  14  33  14  34   3
M  END
>  <minimizedAffinity>  (1) 
-6.28521538

>  <minimizedRMSD>  (1) 
0.72868979

$$$$
