
     RDKit          3D

 34 36  0  0  0  0  0  0  0  0999 V2000
   35.9890   30.4920   49.3040 C   0  0  0  0  0  0  0  0  0  0  0  0
   36.8640   30.6470   50.3220 C   0  0  0  0  0  0  0  0  0  0  0  0
   37.9940   31.3100   49.8340 C   0  0  0  0  0  0  0  0  0  0  0  0
   37.7200   31.5260   48.4850 C   0  0  0  0  0  0  0  0  0  0  0  0
   36.5500   31.0240   48.2680 O   0  0  0  0  0  0  0  0  0  0  0  0
   38.6150   32.1970   47.5260 C   0  0  0  0  0  0  0  0  0  0  0  0
   39.2860   33.2040   47.9310 O   0  0  0  0  0  0  0  0  0  0  0  0
   38.6750   31.6750   46.2030 N   0  0  0  0  0  0  0  0  0  0  0  0
   39.3850   30.4460   45.8850 C   0  0  0  0  0  0  0  0  0  0  0  0
   39.5230   30.3760   44.3600 C   0  0  0  0  0  0  0  0  0  0  0  0
   38.2280   30.4430   43.8670 O   0  0  0  0  0  0  0  0  0  0  0  0
   37.8660   31.7690   43.8680 C   0  0  0  0  0  0  0  0  0  0  0  0
   37.9750   32.4620   45.1860 C   0  0  0  0  0  0  0  0  0  0  0  0
   34.7020   29.8400   49.4570 C   0  0  0  0  0  0  0  0  0  0  0  0
   34.1050   29.9400   50.5320 O   0  0  0  0  0  0  0  0  0  0  0  0
   34.1960   29.0990   48.3040 C   0  0  0  0  0  0  0  0  0  0  0  0
   34.2400   27.7100   48.3910 C   0  0  0  0  0  0  0  0  0  0  0  0
   33.7620   26.9840   47.3020 C   0  0  0  0  0  0  0  0  0  0  0  0
   33.2830   27.6510   46.2200 N   0  0  0  0  0  0  0  0  0  0  0  0
   33.2560   29.0040   46.1730 C   0  0  0  0  0  0  0  0  0  0  0  0
   33.7090   29.7100   47.2060 N   0  0  0  0  0  0  0  0  0  0  0  0
   36.7130   30.3092   51.3579 H   0  0  0  0  0  0  0  0  0  0  0  0
   38.8981   31.5972   50.3910 H   0  0  0  0  0  0  0  0  0  0  0  0
   40.3808   30.4557   46.3523 H   0  0  0  0  0  0  0  0  0  0  0  0
   38.8363   29.5717   46.2652 H   0  0  0  0  0  0  0  0  0  0  0  0
   40.1199   31.2221   43.9888 H   0  0  0  0  0  0  0  0  0  0  0  0
   40.0350   29.4570   44.0384 H   0  0  0  0  0  0  0  0  0  0  0  0
   38.5125   32.2977   43.1522 H   0  0  0  0  0  0  0  0  0  0  0  0
   36.7991   31.7919   43.6010 H   0  0  0  0  0  0  0  0  0  0  0  0
   38.5208   33.4057   45.0392 H   0  0  0  0  0  0  0  0  0  0  0  0
   36.9505   32.6254   45.5516 H   0  0  0  0  0  0  0  0  0  0  0  0
   34.6366   27.2056   49.2845 H   0  0  0  0  0  0  0  0  0  0  0  0
   33.7724   25.8842   47.3183 H   0  0  0  0  0  0  0  0  0  0  0  0
   32.8610   29.5177   45.2841 H   0  0  0  0  0  0  0  0  0  0  0  0
  1 14  1  0
  1  2  2  0
  3  2  1  0
  4  3  2  0
  5  4  1  0
  5  1  1  0
  6  7  2  0
  6  4  1  0
  8  6  1  0
  9  8  1  0
 10  9  1  0
 11 12  1  0
 11 10  1  0
 12 13  1  0
 13  8  1  0
 14 15  2  0
 16 17  2  0
 16 14  1  0
 18 17  1  0
 19 18  2  0
 20 19  1  0
 20 21  2  0
 21 16  1  0
  2 22  1  0
  3 23  1  0
  9 24  1  0
  9 25  1  0
 10 26  1  0
 10 27  1  0
 12 28  1  0
 12 29  1  0
 13 30  1  0
 13 31  1  0
 17 32  1  0
 18 33  1  0
 20 34  1  0
M  ISO  8  22  14  23  14  24  13  25  13  26  13  27  13  28  13  29  13
M  ISO  5  30  13  31  13  32  14  33  14  34  14
M  END
>  <minimizedAffinity>  (1) 
-5.51333237

>  <minimizedRMSD>  (1) 
5.78724861

$$$$
