
     RDKit          3D

 35 37  0  0  0  0  0  0  0  0999 V2000
   36.1490   30.8110   45.1680 Cl  0  0  0  0  0  0  0  0  0  0  0  0
   36.3870   30.5570   46.8680 C   0  0  0  0  0  0  0  0  0  0  0  0
   37.6450   30.8750   47.2890 C   0  0  0  0  0  0  0  0  0  0  0  0
   37.9530   30.7100   48.6590 C   0  0  0  0  0  0  0  0  0  0  0  0
   37.0140   30.2420   49.5460 C   0  0  0  0  0  0  0  0  0  0  0  0
   35.7590   29.9340   49.0820 C   0  0  0  0  0  0  0  0  0  0  0  0
   34.5450   29.3390   50.1880 Cl  0  0  0  0  0  0  0  0  0  0  0  0
   35.4630   30.0940   47.7550 C   0  0  0  0  0  0  0  0  0  0  0  0
   34.1420   29.7730   47.2180 C   0  0  0  0  0  0  0  0  0  0  0  0
   33.2570   30.5520   46.7880 O   0  0  0  0  0  0  0  0  0  0  0  0
   33.4990   28.5000   47.0360 N   0  0  0  0  0  0  0  0  0  0  0  0
   32.1950   28.7780   46.4610 C   0  0  0  0  0  0  0  0  0  0  0  0
   31.5700   27.4510   46.0960 C   0  0  0  0  0  0  0  0  0  0  0  0
   31.4220   26.6640   47.2270 O   0  0  0  0  0  0  0  0  0  0  0  0
   32.5650   26.5370   47.9670 C   0  0  0  0  0  0  0  0  0  0  0  0
   33.8120   27.0940   47.2720 C   0  0  0  0  0  0  0  0  0  0  0  0
   39.4270   30.4810   45.6260 C   0  0  0  0  0  0  0  0  0  0  0  0
   38.8010   31.3830   46.5350 C   0  0  0  0  0  0  0  0  0  0  0  0
   39.3240   32.6550   46.6410 C   0  0  0  0  0  0  0  0  0  0  0  0
   40.4000   32.9780   45.8750 N   0  0  0  0  0  0  0  0  0  0  0  0
   40.9680   32.1070   45.0260 C   0  0  0  0  0  0  0  0  0  0  0  0
   40.4810   30.8510   44.9000 N   0  0  0  0  0  0  0  0  0  0  0  0
   38.9612   30.9605   49.0207 H   0  0  0  0  0  0  0  0  0  0  0  0
   37.2634   30.1162   50.6099 H   0  0  0  0  0  0  0  0  0  0  0  0
   31.5644   29.3015   47.1947 H   0  0  0  0  0  0  0  0  0  0  0  0
   32.2909   29.4197   45.5727 H   0  0  0  0  0  0  0  0  0  0  0  0
   30.5827   27.6266   45.6439 H   0  0  0  0  0  0  0  0  0  0  0  0
   32.2240   26.9312   45.3803 H   0  0  0  0  0  0  0  0  0  0  0  0
   32.4263   27.0756   48.9161 H   0  0  0  0  0  0  0  0  0  0  0  0
   32.7336   25.4604   48.1171 H   0  0  0  0  0  0  0  0  0  0  0  0
   33.9942   26.5710   46.3216 H   0  0  0  0  0  0  0  0  0  0  0  0
   34.7221   26.9628   47.8757 H   0  0  0  0  0  0  0  0  0  0  0  0
   39.0322   29.4596   45.5219 H   0  0  0  0  0  0  0  0  0  0  0  0
   38.8812   33.3905   47.3288 H   0  0  0  0  0  0  0  0  0  0  0  0
   41.8372   32.4172   44.4274 H   0  0  0  0  0  0  0  0  0  0  0  0
  1  2  1  0
  2  3  2  0
  2  8  1  0
  3  4  1  0
  4  5  2  0
  6  5  1  0
  6  7  1  0
  8  6  2  0
  9  8  1  0
 10  9  2  0
 11  9  1  0
 11 16  1  0
 12 11  1  0
 13 12  1  0
 13 14  1  0
 14 15  1  0
 16 15  1  0
 17 18  2  0
 18 19  1  0
 18  3  1  0
 20 19  2  0
 21 20  1  0
 22 21  2  0
 22 17  1  0
  4 23  1  0
  5 24  1  0
 12 25  1  0
 12 26  1  0
 13 27  1  0
 13 28  1  0
 15 29  1  0
 15 30  1  0
 16 31  1  0
 16 32  1  0
 17 33  1  0
 19 34  1  0
 21 35  1  0
M  ISO  8  23  14  24  14  25  13  26  13  27  13  28  13  29  13  30  13
M  ISO  5  31  13  32  13  33  14  34  14  35  14
M  END
>  <minimizedAffinity>  (1) 
-5.94224072

>  <minimizedRMSD>  (1) 
7.5433917

$$$$
