
     RDKit          3D

 41 44  0  0  1  0  0  0  0  0999 V2000
   35.8820   29.1770   49.8270 C   0  0  0  0  0  0  0  0  0  0  0  0
   34.8680   29.6590   50.6240 C   0  0  0  0  0  0  0  0  0  0  0  0
   33.6660   29.1140   50.1480 C   0  0  0  0  0  0  0  0  0  0  0  0
   34.0370   28.3280   49.0790 C   0  0  0  0  0  0  0  0  0  0  0  0
   35.3380   28.3930   48.9250 O   0  0  0  0  0  0  0  0  0  0  0  0
   37.2720   29.5410   50.0400 C   0  0  0  0  0  0  0  0  0  0  0  0
   37.9240   28.9540   50.9180 O   0  0  0  0  0  0  0  0  0  0  0  0
   37.8120   30.5760   49.2040 C   0  0  0  0  0  0  0  0  0  0  0  0
   38.1620   31.7650   49.8240 C   0  0  0  0  0  0  0  0  0  0  0  0
   38.6900   32.7980   49.0410 C   0  0  0  0  0  0  0  0  0  0  0  0
   38.8310   32.5720   47.6920 N   0  0  0  0  0  0  0  0  0  0  0  0
   38.4820   31.4140   47.1290 C   0  0  0  0  0  0  0  0  0  0  0  0
   37.9760   30.4190   47.8730 N   0  0  0  0  0  0  0  0  0  0  0  0
   33.1210   27.5400   48.2450 C   0  0  0  0  0  0  0  0  0  0  0  0
   31.8910   27.4850   48.5830 O   0  0  0  0  0  0  0  0  0  0  0  0
   33.6400   26.8190   47.0350 C   0  0  1  0  0  0  0  0  0  0  0  0
   33.7720   25.2870   47.3230 C   0  0  0  0  0  0  0  0  0  0  0  0
   32.7920   25.8390   46.3540 C   0  0  2  0  0  0  0  0  0  0  0  0
   32.8750   25.6260   44.9520 N   0  0  0  0  0  0  0  0  0  0  0  0
   31.9340   26.3040   44.1270 C   0  0  0  0  0  0  0  0  0  0  0  0
   31.7330   25.4370   42.8990 C   0  0  0  0  0  0  0  0  0  0  0  0
   32.9540   24.9720   42.4480 O   0  0  0  0  0  0  0  0  0  0  0  0
   34.0320   25.7110   42.8830 C   0  0  0  0  0  0  0  0  0  0  0  0
   34.1830   25.7130   44.3910 C   0  0  0  0  0  0  0  0  0  0  0  0
   34.9797   30.3449   51.4767 H   0  0  0  0  0  0  0  0  0  0  0  0
   32.6519   29.2780   50.5412 H   0  0  0  0  0  0  0  0  0  0  0  0
   38.0277   31.8941   50.9081 H   0  0  0  0  0  0  0  0  0  0  0  0
   38.9825   33.7587   49.4899 H   0  0  0  0  0  0  0  0  0  0  0  0
   38.6102   31.2739   46.0455 H   0  0  0  0  0  0  0  0  0  0  0  0
   34.2435   27.6579   46.6581 H   0  0  0  0  0  0  0  0  0  0  0  0
   34.6504   24.7272   46.9695 H   0  0  0  0  0  0  0  0  0  0  0  0
   33.7305   24.6405   48.2120 H   0  0  0  0  0  0  0  0  0  0  0  0
   31.7045   25.7153   46.2443 H   0  0  0  0  0  0  0  0  0  0  0  0
   30.9815   26.4309   44.6624 H   0  0  0  0  0  0  0  0  0  0  0  0
   32.2962   27.3054   43.8514 H   0  0  0  0  0  0  0  0  0  0  0  0
   31.0897   24.5827   43.1567 H   0  0  0  0  0  0  0  0  0  0  0  0
   31.2574   26.0343   42.1072 H   0  0  0  0  0  0  0  0  0  0  0  0
   34.9466   25.2896   42.4403 H   0  0  0  0  0  0  0  0  0  0  0  0
   33.8637   26.7518   42.5693 H   0  0  0  0  0  0  0  0  0  0  0  0
   34.6712   26.6427   44.7185 H   0  0  0  0  0  0  0  0  0  0  0  0
   34.8031   24.8660   44.7198 H   0  0  0  0  0  0  0  0  0  0  0  0
  1  6  1  0
  1  2  2  0
  3  2  1  0
  4  3  2  0
  5  4  1  0
  5  1  1  0
  6  7  2  0
  8  9  2  0
  8  6  1  0
 10  9  1  0
 11 10  2  0
 12 11  1  0
 12 13  2  0
 13  8  1  0
 14 15  2  0
 14  4  1  0
 16 17  1  0
 16 14  1  0
 18 16  1  0
 18 17  1  0
 19 24  1  0
 19 18  1  0
 20 19  1  0
 21 20  1  0
 22 23  1  0
 22 21  1  0
 23 24  1  0
  2 25  1  0
  3 26  1  0
  9 27  1  0
 10 28  1  0
 12 29  1  0
 16 30  1  6
 17 31  1  0
 17 32  1  0
 18 33  1  1
 20 34  1  0
 20 35  1  0
 21 36  1  0
 21 37  1  0
 23 38  1  0
 23 39  1  0
 24 40  1  0
 24 41  1  0
M  ISO  8  25  14  26  14  27  14  28  14  29  14  30  13  31  13  32  13
M  ISO  8  33  13  34  13  35  13  36  13  37  13  38  13  39  13  40  13
M  ISO  1  41  13
M  END
>  <minimizedAffinity>  (1) 
-4.86100054

>  <minimizedRMSD>  (1) 
0.143683553

$$$$
