
     RDKit          3D

 50 53  0  0  1  0  0  0  0  0999 V2000
   39.5730   32.9550   44.1480 C   0  0  0  0  0  0  0  0  0  0  0  0
   39.4210   29.6540   42.8570 C   0  0  1  0  0  0  0  0  0  0  0  0
   39.5290   31.1220   42.4760 C   0  0  0  0  0  0  0  0  0  0  0  0
   40.2450   31.6910   43.6580 C   0  0  2  0  0  0  0  0  0  0  0  0
   40.3220   30.7280   44.6240 O   0  0  0  0  0  0  0  0  0  0  0  0
   39.3330   29.7890   44.3700 C   0  0  0  0  0  0  0  0  0  0  0  0
   38.2900   29.0710   42.3190 O   0  0  0  0  0  0  0  0  0  0  0  0
   37.8630   27.0220   41.4750 N   0  0  0  0  0  0  0  0  0  0  0  0
   38.7450   28.1930   41.3360 C   0  0  2  0  0  0  0  0  0  0  0  0
   40.1400   27.6820   41.5790 C   0  0  0  0  0  0  0  0  0  0  0  0
   40.4420   26.8640   40.4910 O   0  0  0  0  0  0  0  0  0  0  0  0
   39.5630   25.8290   40.2940 C   0  0  0  0  0  0  0  0  0  0  0  0
   38.1120   26.2160   40.2970 C   0  0  0  0  0  0  0  0  0  0  0  0
   40.4940   33.5430   45.5890 S   0  0  0  0  0  0  0  0  0  0  0  0
   37.7290   31.8790   47.9170 C   0  0  0  0  0  0  0  0  0  0  0  0
   37.8650   32.5590   49.1390 C   0  0  0  0  0  0  0  0  0  0  0  0
   38.8030   33.5490   49.3000 C   0  0  0  0  0  0  0  0  0  0  0  0
   39.5920   33.8310   48.2060 C   0  0  0  0  0  0  0  0  0  0  0  0
   39.4440   33.1610   47.0310 C   0  0  0  0  0  0  0  0  0  0  0  0
   38.5210   32.1810   46.8620 N   0  0  0  0  0  0  0  0  0  0  0  0
   36.7250   30.8560   47.8270 C   0  0  0  0  0  0  0  0  0  0  0  0
   36.3440   30.4310   46.7320 O   0  0  0  0  0  0  0  0  0  0  0  0
   36.9270   29.6300   49.9550 C   0  0  0  0  0  0  0  0  0  0  0  0
   36.1020   30.2630   49.0180 C   0  0  0  0  0  0  0  0  0  0  0  0
   34.7150   30.3110   49.2440 C   0  0  0  0  0  0  0  0  0  0  0  0
   34.2230   29.7300   50.3840 N   0  0  0  0  0  0  0  0  0  0  0  0
   35.0440   29.1300   51.2650 C   0  0  0  0  0  0  0  0  0  0  0  0
   36.3510   29.0840   51.0540 N   0  0  0  0  0  0  0  0  0  0  0  0
   38.5318   32.7405   44.4306 H   0  0  0  0  0  0  0  0  0  0  0  0
   39.5656   33.7193   43.3569 H   0  0  0  0  0  0  0  0  0  0  0  0
   40.2387   29.0122   42.4973 H   0  0  0  0  0  0  0  0  0  0  0  0
   40.1117   31.2546   41.5525 H   0  0  0  0  0  0  0  0  0  0  0  0
   38.5610   31.6012   42.2676 H   0  0  0  0  0  0  0  0  0  0  0  0
   41.2663   31.9858   43.3752 H   0  0  0  0  0  0  0  0  0  0  0  0
   38.3436   30.1532   44.6837 H   0  0  0  0  0  0  0  0  0  0  0  0
   39.4657   28.8413   44.9124 H   0  0  0  0  0  0  0  0  0  0  0  0
   38.0948   26.4947   42.3289 H   0  0  0  0  0  0  0  0  0  0  0  0
   38.7436   28.7047   40.3623 H   0  0  0  0  0  0  0  0  0  0  0  0
   40.8500   28.5202   41.6363 H   0  0  0  0  0  0  0  0  0  0  0  0
   40.2090   27.1322   42.5292 H   0  0  0  0  0  0  0  0  0  0  0  0
   39.7205   25.0912   41.0945 H   0  0  0  0  0  0  0  0  0  0  0  0
   39.7731   25.4360   39.2883 H   0  0  0  0  0  0  0  0  0  0  0  0
   37.8792   26.7965   39.3921 H   0  0  0  0  0  0  0  0  0  0  0  0
   37.4781   25.3171   40.3096 H   0  0  0  0  0  0  0  0  0  0  0  0
   37.2089   32.2938   49.9811 H   0  0  0  0  0  0  0  0  0  0  0  0
   38.9184   34.0883   50.2518 H   0  0  0  0  0  0  0  0  0  0  0  0
   40.3589   34.6156   48.2844 H   0  0  0  0  0  0  0  0  0  0  0  0
   38.0152   29.5769   49.8034 H   0  0  0  0  0  0  0  0  0  0  0  0
   34.0425   30.8018   48.5250 H   0  0  0  0  0  0  0  0  0  0  0  0
   34.6244   28.6715   52.1726 H   0  0  0  0  0  0  0  0  0  0  0  0
  1 14  1  0
  2  6  1  0
  3  2  1  0
  3  4  1  0
  4  1  1  0
  4  5  1  0
  6  5  1  0
  7  2  1  0
  9  8  1  0
  9 10  1  0
  9  7  1  0
 11 10  1  0
 12 13  1  0
 12 11  1  0
 13  8  1  0
 14 19  1  0
 15 16  2  0
 16 17  1  0
 18 17  2  0
 19 18  1  0
 20 19  2  0
 20 15  1  0
 21 15  1  0
 21 24  1  0
 22 21  2  0
 23 28  2  0
 24 25  2  0
 24 23  1  0
 25 26  1  0
 26 27  2  0
 28 27  1  0
  1 29  1  0
  1 30  1  0
  2 31  1  1
  3 32  1  0
  3 33  1  0
  4 34  1  6
  6 35  1  0
  6 36  1  0
  8 37  1  0
  9 38  1  6
 10 39  1  0
 10 40  1  0
 12 41  1  0
 12 42  1  0
 13 43  1  0
 13 44  1  0
 16 45  1  0
 17 46  1  0
 18 47  1  0
 23 48  1  0
 25 49  1  0
 27 50  1  0
M  ISO  8  29   8  30   8  31  13  32  13  33  13  34  13  35  13  36  13
M  ISO  8  37   5  38  13  39  13  40  13  41  13  42  13  43  13  44  13
M  ISO  6  45  14  46  14  47  14  48  14  49  14  50  14
M  END
>  <minimizedAffinity>  (1) 
-5.41012049

>  <minimizedRMSD>  (1) 
0.916116774

$$$$
