
     RDKit          3D

 45 48  0  0  0  0  0  0  0  0999 V2000
   35.3020   29.5850   47.6910 C   0  0  0  0  0  0  0  0  0  0  0  0
   35.5250   30.0480   46.4060 C   0  0  0  0  0  0  0  0  0  0  0  0
   34.5210   29.9770   45.4460 C   0  0  0  0  0  0  0  0  0  0  0  0
   33.3320   29.4400   45.8320 N   0  0  0  0  0  0  0  0  0  0  0  0
   33.1340   28.9940   47.0900 C   0  0  0  0  0  0  0  0  0  0  0  0
   34.1080   29.0590   48.0360 N   0  0  0  0  0  0  0  0  0  0  0  0
   31.8360   28.4220   47.4590 C   0  0  0  0  0  0  0  0  0  0  0  0
   31.7380   27.4670   48.4310 C   0  0  0  0  0  0  0  0  0  0  0  0
   30.5370   26.9030   48.8100 C   0  0  0  0  0  0  0  0  0  0  0  0
   29.4320   27.3630   48.1430 N   0  0  0  0  0  0  0  0  0  0  0  0
   29.5430   28.2950   47.1960 C   0  0  0  0  0  0  0  0  0  0  0  0
   30.7230   28.8380   46.8360 N   0  0  0  0  0  0  0  0  0  0  0  0
   28.3710   28.7470   46.5270 N   0  0  0  0  0  0  0  0  0  0  0  0
   28.3320   29.9460   45.7300 C   0  0  0  0  0  0  0  0  0  0  0  0
   26.8590   30.1740   45.3690 C   0  0  0  0  0  0  0  0  0  0  0  0
   26.3220   29.1270   44.6410 O   0  0  0  0  0  0  0  0  0  0  0  0
   26.6250   27.8850   45.1620 C   0  0  0  0  0  0  0  0  0  0  0  0
   27.1170   28.0210   46.6000 C   0  0  0  0  0  0  0  0  0  0  0  0
   36.2860   29.6270   48.7260 N   0  0  0  0  0  0  0  0  0  0  0  0
   36.1770   28.8660   49.9520 C   0  0  0  0  0  0  0  0  0  0  0  0
   36.5180   29.6250   51.1940 C   0  0  0  0  0  0  0  0  0  0  0  0
   37.4450   30.6810   51.0830 N   0  0  0  0  0  0  0  0  0  0  0  0
   37.3340   31.4260   49.8370 C   0  0  0  0  0  0  0  0  0  0  0  0
   37.4840   30.3840   48.7330 C   0  0  0  0  0  0  0  0  0  0  0  0
   36.5036   30.4754   46.1419 H   0  0  0  0  0  0  0  0  0  0  0  0
   34.6813   30.3391   44.4198 H   0  0  0  0  0  0  0  0  0  0  0  0
   32.6574   27.1328   48.9339 H   0  0  0  0  0  0  0  0  0  0  0  0
   30.4711   26.1354   49.5951 H   0  0  0  0  0  0  0  0  0  0  0  0
   28.7196   30.7992   46.3060 H   0  0  0  0  0  0  0  0  0  0  0  0
   28.9544   29.8476   44.8284 H   0  0  0  0  0  0  0  0  0  0  0  0
   26.2821   30.2894   46.2985 H   0  0  0  0  0  0  0  0  0  0  0  0
   26.8049   31.0773   44.7436 H   0  0  0  0  0  0  0  0  0  0  0  0
   25.7239   27.2543   45.1446 H   0  0  0  0  0  0  0  0  0  0  0  0
   27.4179   27.4251   44.5540 H   0  0  0  0  0  0  0  0  0  0  0  0
   27.2759   27.0277   47.0451 H   0  0  0  0  0  0  0  0  0  0  0  0
   26.3833   28.5467   47.2287 H   0  0  0  0  0  0  0  0  0  0  0  0
   35.1402   28.5098   50.0425 H   0  0  0  0  0  0  0  0  0  0  0  0
   36.9113   28.0505   49.8763 H   0  0  0  0  0  0  0  0  0  0  0  0
   35.5823   30.0493   51.5870 H   0  0  0  0  0  0  0  0  0  0  0  0
   37.0130   28.8877   51.8432 H   0  0  0  0  0  0  0  0  0  0  0  0
   37.2921   31.3321   51.8663 H   0  0  0  0  0  0  0  0  0  0  0  0
   36.3540   31.9210   49.7696 H   0  0  0  0  0  0  0  0  0  0  0  0
   38.0948   32.2169   49.7618 H   0  0  0  0  0  0  0  0  0  0  0  0
   38.3444   29.7311   48.9415 H   0  0  0  0  0  0  0  0  0  0  0  0
   37.6575   30.8616   47.7574 H   0  0  0  0  0  0  0  0  0  0  0  0
  1  6  1  0
  1 19  1  0
  2  1  2  0
  3  4  2  0
  3  2  1  0
  4  5  1  0
  5  7  1  0
  5  6  2  0
  7  8  2  0
  8  9  1  0
 10  9  2  0
 11 10  1  0
 12 11  2  0
 12  7  1  0
 13 18  1  0
 13 11  1  0
 14 13  1  0
 15 14  1  0
 16 17  1  0
 16 15  1  0
 17 18  1  0
 19 24  1  0
 19 20  1  0
 20 21  1  0
 22 21  1  0
 23 22  1  0
 24 23  1  0
  2 25  1  0
  3 26  1  0
  8 27  1  0
  9 28  1  0
 14 29  1  0
 14 30  1  0
 15 31  1  0
 15 32  1  0
 17 33  1  0
 17 34  1  0
 18 35  1  0
 18 36  1  0
 20 37  1  0
 20 38  1  0
 21 39  1  0
 21 40  1  0
 22 41  1  0
 23 42  1  0
 23 43  1  0
 24 44  1  0
 24 45  1  0
M  ISO  8  25  14  26  14  27  14  28  14  29  13  30  13  31  13  32  13
M  ISO  8  33  13  34  13  35  13  36  13  37  13  38  13  39  13  40  13
M  ISO  5  41   5  42  13  43  13  44  13  45  13
M  END
>  <minimizedAffinity>  (1) 
-5.58594227

>  <minimizedRMSD>  (1) 
0.313327849

$$$$
