
     RDKit          3D

 33 35  0  0  0  0  0  0  0  0999 V2000
   38.0210   31.2510   46.3500 C   0  0  0  0  0  0  0  0  0  0  0  0
   39.3490   31.0930   46.6550 C   0  0  0  0  0  0  0  0  0  0  0  0
   40.4090   31.3340   45.8040 C   0  0  0  0  0  0  0  0  0  0  0  0
   40.0820   31.7640   44.5600 N   0  0  0  0  0  0  0  0  0  0  0  0
   38.7780   31.9290   44.2280 C   0  0  0  0  0  0  0  0  0  0  0  0
   37.7740   31.6810   45.0950 N   0  0  0  0  0  0  0  0  0  0  0  0
   38.4080   32.3780   42.9340 N   0  0  0  0  0  0  0  0  0  0  0  0
   37.3460   31.8020   42.1320 C   0  0  0  0  0  0  0  0  0  0  0  0
   38.0250   31.4840   40.7930 C   0  0  0  0  0  0  0  0  0  0  0  0
   38.5340   32.5940   40.1780 O   0  0  0  0  0  0  0  0  0  0  0  0
   38.5610   33.7480   40.9360 C   0  0  0  0  0  0  0  0  0  0  0  0
   39.1270   33.5030   42.3290 C   0  0  0  0  0  0  0  0  0  0  0  0
   34.8740   30.0790   47.7400 C   0  0  0  0  0  0  0  0  0  0  0  0
   34.9290   30.4040   49.0890 C   0  0  0  0  0  0  0  0  0  0  0  0
   36.0980   31.0490   49.5130 C   0  0  0  0  0  0  0  0  0  0  0  0
   37.0860   31.3160   48.6230 N   0  0  0  0  0  0  0  0  0  0  0  0
   36.9650   30.9700   47.3210 C   0  0  0  0  0  0  0  0  0  0  0  0
   35.8560   30.3410   46.8390 N   0  0  0  0  0  0  0  0  0  0  0  0
   33.8510   30.0910   49.9590 N   0  0  0  0  0  0  0  0  0  0  0  0
   39.5912   30.7426   47.6692 H   0  0  0  0  0  0  0  0  0  0  0  0
   41.4536   31.1865   46.1155 H   0  0  0  0  0  0  0  0  0  0  0  0
   36.9552   30.8863   42.5997 H   0  0  0  0  0  0  0  0  0  0  0  0
   36.4847   32.4772   42.0209 H   0  0  0  0  0  0  0  0  0  0  0  0
   38.8468   30.7759   40.9755 H   0  0  0  0  0  0  0  0  0  0  0  0
   37.2593   31.0594   40.1271 H   0  0  0  0  0  0  0  0  0  0  0  0
   39.1869   34.4942   40.4246 H   0  0  0  0  0  0  0  0  0  0  0  0
   37.5267   34.1053   41.0477 H   0  0  0  0  0  0  0  0  0  0  0  0
   40.1980   33.2628   42.2570 H   0  0  0  0  0  0  0  0  0  0  0  0
   39.0051   34.4039   42.9483 H   0  0  0  0  0  0  0  0  0  0  0  0
   33.9688   29.5722   47.3743 H   0  0  0  0  0  0  0  0  0  0  0  0
   36.2146   31.3389   50.5677 H   0  0  0  0  0  0  0  0  0  0  0  0
   33.9064   30.3384   50.9573 H   0  0  0  0  0  0  0  0  0  0  0  0
   33.0138   29.6166   49.5917 H   0  0  0  0  0  0  0  0  0  0  0  0
  1  2  2  0
  1 17  1  0
  3  2  1  0
  4  3  2  0
  5  4  1  0
  5  6  2  0
  6  1  1  0
  7  5  1  0
  8  7  1  0
  9  8  1  0
 10  9  1  0
 10 11  1  0
 11 12  1  0
 12  7  1  0
 13 14  2  0
 14 15  1  0
 14 19  1  0
 16 15  2  0
 17 16  1  0
 18 17  2  0
 18 13  1  0
  2 20  1  0
  3 21  1  0
  8 22  1  0
  8 23  1  0
  9 24  1  0
  9 25  1  0
 11 26  1  0
 11 27  1  0
 12 28  1  0
 12 29  1  0
 13 30  1  0
 15 31  1  0
 19 32  1  0
 19 33  1  0
M  ISO  8  20  14  21  14  22  13  23  13  24  13  25  13  26  13  27  13
M  ISO  4  28  13  29  13  30  14  31  14
M  END
>  <minimizedAffinity>  (1) 
-5.11625433

>  <minimizedRMSD>  (1) 
1.51768565

$$$$
