
     RDKit          3D

 26 27  0  0  0  0  0  0  0  0999 V2000
   38.2970   32.9010   49.4580 C   0  0  0  0  0  0  0  0  0  0  0  0
   38.9600   32.9780   48.2250 C   0  0  0  0  0  0  0  0  0  0  0  0
   38.5240   32.1640   47.1890 C   0  0  0  0  0  0  0  0  0  0  0  0
   37.4710   31.3280   47.4310 N   0  0  0  0  0  0  0  0  0  0  0  0
   36.8520   31.2720   48.6240 C   0  0  0  0  0  0  0  0  0  0  0  0
   37.2700   32.0550   49.6200 N   0  0  0  0  0  0  0  0  0  0  0  0
   39.0970   32.1340   45.8900 N   0  0  0  0  0  0  0  0  0  0  0  0
   38.3680   32.5600   44.6920 C   0  0  0  0  0  0  0  0  0  0  0  0
   39.4440   33.0470   43.7320 C   0  0  0  0  0  0  0  0  0  0  0  0
   40.1630   31.9540   43.2820 O   0  0  0  0  0  0  0  0  0  0  0  0
   40.5440   31.0890   44.2840 C   0  0  0  0  0  0  0  0  0  0  0  0
   40.4390   31.6830   45.6640 C   0  0  0  0  0  0  0  0  0  0  0  0
   35.7160   30.3320   48.7900 C   0  0  0  0  0  0  0  0  0  0  0  0
   34.8930   30.6560   49.8540 F   0  0  0  0  0  0  0  0  0  0  0  0
   34.9220   30.3000   47.6530 F   0  0  0  0  0  0  0  0  0  0  0  0
   36.1250   29.0290   48.9900 F   0  0  0  0  0  0  0  0  0  0  0  0
   38.6207   33.5369   50.2951 H   0  0  0  0  0  0  0  0  0  0  0  0
   39.8055   33.6671   48.0822 H   0  0  0  0  0  0  0  0  0  0  0  0
   37.8133   31.7161   44.2559 H   0  0  0  0  0  0  0  0  0  0  0  0
   37.6265   33.3415   44.9142 H   0  0  0  0  0  0  0  0  0  0  0  0
   38.9750   33.5586   42.8786 H   0  0  0  0  0  0  0  0  0  0  0  0
   40.1145   33.7516   44.2459 H   0  0  0  0  0  0  0  0  0  0  0  0
   39.8999   30.1985   44.2385 H   0  0  0  0  0  0  0  0  0  0  0  0
   41.6038   30.8470   44.1162 H   0  0  0  0  0  0  0  0  0  0  0  0
   40.7002   30.9202   46.4123 H   0  0  0  0  0  0  0  0  0  0  0  0
   41.1309   32.5338   45.7503 H   0  0  0  0  0  0  0  0  0  0  0  0
  1  6  2  0
  2  1  1  0
  3  4  1  0
  3  2  2  0
  4  5  2  0
  5 13  1  0
  5  6  1  0
  7  3  1  0
  8  7  1  0
  9  8  1  0
 10  9  1  0
 10 11  1  0
 11 12  1  0
 12  7  1  0
 13 16  1  0
 13 14  1  0
 15 13  1  0
  1 17  1  0
  2 18  1  0
  8 19  1  0
  8 20  1  0
  9 21  1  0
  9 22  1  0
 11 23  1  0
 11 24  1  0
 12 25  1  0
 12 26  1  0
M  ISO  8  17  14  18  14  19  13  20  13  21  13  22  13  23  13  24  13
M  ISO  2  25  13  26  13
M  END
>  <minimizedAffinity>  (1) 
-5.45094299

>  <minimizedRMSD>  (1) 
2.4426074

$$$$
