
     RDKit          3D

 50 55  0  0  1  0  0  0  0  0999 V2000
   31.5010   27.7920   48.7510 C   0  0  1  0  0  0  0  0  0  0  0  0
   31.8630   26.4920   47.9370 C   0  0  0  0  0  0  0  0  0  0  0  0
   31.7850   27.8570   47.3210 C   0  0  2  0  0  0  0  0  0  0  0  0
   28.0730   28.6000   49.4680 C   0  0  0  0  0  0  0  0  0  0  0  0
   28.2860   27.5940   50.3840 C   0  0  0  0  0  0  0  0  0  0  0  0
   29.6200   27.1430   50.2440 C   0  0  0  0  0  0  0  0  0  0  0  0
   30.1480   27.8970   49.2510 N   0  0  0  0  0  0  0  0  0  0  0  0
   29.2220   28.7170   48.8380 N   0  0  0  0  0  0  0  0  0  0  0  0
   25.5730   28.6580   49.6010 C   0  0  0  0  0  0  0  0  0  0  0  0
   26.8200   29.2850   49.3310 C   0  0  0  0  0  0  0  0  0  0  0  0
   26.7760   30.5970   48.9260 C   0  0  0  0  0  0  0  0  0  0  0  0
   25.5700   31.2190   48.8050 N   0  0  0  0  0  0  0  0  0  0  0  0
   24.4060   30.5820   49.0720 C   0  0  0  0  0  0  0  0  0  0  0  0
   24.4040   29.2910   49.4730 N   0  0  0  0  0  0  0  0  0  0  0  0
   33.0500   28.5070   46.8390 C   0  0  0  0  0  0  0  0  0  0  0  0
   33.4620   28.5870   45.5220 C   0  0  0  0  0  0  0  0  0  0  0  0
   34.6380   29.2630   45.4850 N   0  0  0  0  0  0  0  0  0  0  0  0
   34.9750   29.6110   46.7520 C   0  0  0  0  0  0  0  0  0  0  0  0
   33.9990   29.1400   47.5460 N   0  0  0  0  0  0  0  0  0  0  0  0
   36.1780   30.3610   47.1670 C   0  0  0  0  0  0  0  0  0  0  0  0
   36.3200   30.8180   48.5030 C   0  0  0  0  0  0  0  0  0  0  0  0
   37.9340   31.6670   48.4770 S   0  0  0  0  0  0  0  0  0  0  0  0
   38.1630   31.2560   46.6220 C   0  0  0  0  0  0  0  0  0  0  0  0
   37.2080   30.6850   46.3960 N   0  0  0  0  0  0  0  0  0  0  0  0
   39.4300   31.8190   46.2550 N   0  0  0  0  0  0  0  0  0  0  0  0
   39.7900   33.2400   46.2740 C   0  0  0  0  0  0  0  0  0  0  0  0
   40.0130   33.5950   44.7970 C   0  0  0  0  0  0  0  0  0  0  0  0
   39.8800   32.5110   43.9580 O   0  0  0  0  0  0  0  0  0  0  0  0
   40.6770   31.4170   44.2860 C   0  0  0  0  0  0  0  0  0  0  0  0
   40.5520   31.0420   45.7620 C   0  0  0  0  0  0  0  0  0  0  0  0
   31.8903   28.3310   49.6273 H   0  0  0  0  0  0  0  0  0  0  0  0
   32.8350   25.9967   48.0777 H   0  0  0  0  0  0  0  0  0  0  0  0
   31.4025   25.5091   47.7583 H   0  0  0  0  0  0  0  0  0  0  0  0
   31.2275   28.2728   46.4688 H   0  0  0  0  0  0  0  0  0  0  0  0
   27.5466   27.2076   51.1009 H   0  0  0  0  0  0  0  0  0  0  0  0
   30.1207   26.3499   50.8187 H   0  0  0  0  0  0  0  0  0  0  0  0
   25.5709   27.6080   49.9289 H   0  0  0  0  0  0  0  0  0  0  0  0
   27.7058   31.1402   48.7015 H   0  0  0  0  0  0  0  0  0  0  0  0
   23.4528   31.1198   48.9617 H   0  0  0  0  0  0  0  0  0  0  0  0
   32.9284   28.1738   44.6534 H   0  0  0  0  0  0  0  0  0  0  0  0
   35.1831   29.4760   44.6374 H   0  0  0  0  0  0  0  0  0  0  0  0
   35.6265   30.6912   49.3474 H   0  0  0  0  0  0  0  0  0  0  0  0
   38.9748   33.8428   46.7008 H   0  0  0  0  0  0  0  0  0  0  0  0
   40.6771   33.4404   46.8928 H   0  0  0  0  0  0  0  0  0  0  0  0
   39.2761   34.3575   44.5044 H   0  0  0  0  0  0  0  0  0  0  0  0
   41.0449   33.9630   44.6988 H   0  0  0  0  0  0  0  0  0  0  0  0
   40.3694   30.5567   43.6734 H   0  0  0  0  0  0  0  0  0  0  0  0
   41.7250   31.6886   44.0912 H   0  0  0  0  0  0  0  0  0  0  0  0
   40.3543   29.9655   45.8717 H   0  0  0  0  0  0  0  0  0  0  0  0
   41.4761   31.2518   46.3205 H   0  0  0  0  0  0  0  0  0  0  0  0
  1  7  1  0
  2  1  1  0
  3  2  1  0
  3  1  1  0
  4  5  1  0
  6  5  2  0
  7  6  1  0
  8  7  1  0
  8  4  2  0
 10  4  1  0
 10  9  2  0
 11 10  1  0
 12 11  2  0
 12 13  1  0
 13 14  2  0
 14  9  1  0
 15  3  1  0
 15 19  1  0
 16 15  2  0
 17 16  1  0
 17 18  1  0
 18 20  1  0
 18 19  2  0
 20 21  2  0
 22 21  1  0
 23 22  1  0
 24 23  2  0
 24 20  1  0
 25 26  1  0
 25 23  1  0
 27 26  1  0
 28 29  1  0
 28 27  1  0
 29 30  1  0
 30 25  1  0
  1 31  1  1
  2 32  1  0
  2 33  1  0
  3 34  1  6
  5 35  1  0
  6 36  1  0
  9 37  1  0
 11 38  1  0
 13 39  1  0
 16 40  1  0
 17 41  1  0
 21 42  1  0
 26 43  1  0
 26 44  1  0
 27 45  1  0
 27 46  1  0
 29 47  1  0
 29 48  1  0
 30 49  1  0
 30 50  1  0
M  ISO  8  31  13  32  13  33  13  34  13  35  14  36  14  37  14  38  14
M  ISO  8  39  14  40  14  41   9  42  14  43  13  44  13  45  13  46  13
M  ISO  4  47  13  48  13  49  13  50  13
M  END
>  <minimizedAffinity>  (1) 
-7.25305653

>  <minimizedRMSD>  (1) 
2.51512718

$$$$
