
     RDKit          3D

 45 48  0  0  0  0  0  0  0  0999 V2000
   37.3480   31.1390   47.1040 N   0  0  0  0  0  0  0  0  0  0  0  0
   36.7010   30.9030   45.9280 C   0  0  0  0  0  0  0  0  0  0  0  0
   37.1570   31.4400   44.7300 C   0  0  0  0  0  0  0  0  0  0  0  0
   38.3060   32.2350   44.7710 C   0  0  0  0  0  0  0  0  0  0  0  0
   38.7510   32.7380   43.7150 O   0  0  0  0  0  0  0  0  0  0  0  0
   38.9510   32.4650   45.9620 N   0  0  0  0  0  0  0  0  0  0  0  0
   38.4200   31.8970   47.0420 C   0  0  0  0  0  0  0  0  0  0  0  0
   39.0390   32.1350   48.1060 O   0  0  0  0  0  0  0  0  0  0  0  0
   36.5140   31.2250   43.4610 C   0  0  0  0  0  0  0  0  0  0  0  0
   36.7690   30.1490   42.6480 C   0  0  0  0  0  0  0  0  0  0  0  0
   36.1870   29.8970   41.4310 C   0  0  0  0  0  0  0  0  0  0  0  0
   35.2400   30.8140   40.9630 C   0  0  0  0  0  0  0  0  0  0  0  0
   34.9960   31.9040   41.8110 C   0  0  0  0  0  0  0  0  0  0  0  0
   35.6070   32.0720   42.9750 N   0  0  0  0  0  0  0  0  0  0  0  0
   34.0250   32.8450   41.3280 N   0  0  0  0  0  0  0  0  0  0  0  0
   33.8680   33.0310   39.9000 C   0  0  0  0  0  0  0  0  0  0  0  0
   32.6000   33.8570   39.7200 C   0  0  0  0  0  0  0  0  0  0  0  0
   32.8010   35.0420   40.4360 O   0  0  0  0  0  0  0  0  0  0  0  0
   32.6450   34.8420   41.7990 C   0  0  0  0  0  0  0  0  0  0  0  0
   33.2350   33.5760   42.2970 C   0  0  0  0  0  0  0  0  0  0  0  0
   37.2500   29.4190   50.3920 C   0  0  0  0  0  0  0  0  0  0  0  0
   37.7360   29.9510   49.1900 C   0  0  0  0  0  0  0  0  0  0  0  0
   36.8890   30.5970   48.3110 C   0  0  0  0  0  0  0  0  0  0  0  0
   35.5830   30.6940   48.6580 N   0  0  0  0  0  0  0  0  0  0  0  0
   35.0920   30.1800   49.8270 C   0  0  0  0  0  0  0  0  0  0  0  0
   35.9390   29.5470   50.6790 N   0  0  0  0  0  0  0  0  0  0  0  0
   40.1350   33.2870   45.9880 C   0  0  0  0  0  0  0  0  0  0  0  0
   40.0590   34.2760   45.0540 F   0  0  0  0  0  0  0  0  0  0  0  0
   41.2960   32.5890   45.7230 F   0  0  0  0  0  0  0  0  0  0  0  0
   40.2220   33.9030   47.2510 F   0  0  0  0  0  0  0  0  0  0  0  0
   35.7986   30.2740   45.9270 H   0  0  0  0  0  0  0  0  0  0  0  0
   37.5103   29.4193   43.0059 H   0  0  0  0  0  0  0  0  0  0  0  0
   36.4555   29.0059   40.8446 H   0  0  0  0  0  0  0  0  0  0  0  0
   34.7240   30.6892   39.9996 H   0  0  0  0  0  0  0  0  0  0  0  0
   34.7351   33.5672   39.4869 H   0  0  0  0  0  0  0  0  0  0  0  0
   33.7989   32.0675   39.3737 H   0  0  0  0  0  0  0  0  0  0  0  0
   32.4370   34.0781   38.6549 H   0  0  0  0  0  0  0  0  0  0  0  0
   31.7139   33.3152   40.0824 H   0  0  0  0  0  0  0  0  0  0  0  0
   33.1252   35.6784   42.3280 H   0  0  0  0  0  0  0  0  0  0  0  0
   31.5631   34.7839   41.9891 H   0  0  0  0  0  0  0  0  0  0  0  0
   32.4134   32.9241   42.6287 H   0  0  0  0  0  0  0  0  0  0  0  0
   33.9248   33.8564   43.1066 H   0  0  0  0  0  0  0  0  0  0  0  0
   37.9273   28.9053   51.0901 H   0  0  0  0  0  0  0  0  0  0  0  0
   38.8036   29.8530   48.9440 H   0  0  0  0  0  0  0  0  0  0  0  0
   34.0245   30.2783   50.0736 H   0  0  0  0  0  0  0  0  0  0  0  0
  1 23  1  0
  2  1  1  0
  3  4  1  0
  3  2  2  0
  4  6  1  0
  5  4  2  0
  6 27  1  0
  6  7  1  0
  7  1  1  0
  7  8  2  0
  9  3  1  0
 10  9  2  0
 11 10  1  0
 12 11  2  0
 12 13  1  0
 13 14  2  0
 14  9  1  0
 15 13  1  0
 15 20  1  0
 16 15  1  0
 17 16  1  0
 17 18  1  0
 18 19  1  0
 19 20  1  0
 21 26  2  0
 22 21  1  0
 23 24  1  0
 23 22  2  0
 24 25  2  0
 25 26  1  0
 27 30  1  0
 28 27  1  0
 29 27  1  0
  2 31  1  0
 10 32  1  0
 11 33  1  0
 12 34  1  0
 16 35  1  0
 16 36  1  0
 17 37  1  0
 17 38  1  0
 19 39  1  0
 19 40  1  0
 20 41  1  0
 20 42  1  0
 21 43  1  0
 22 44  1  0
 25 45  1  0
M  ISO  8  31  14  32  14  33  14  34  14  35  13  36  13  37  13  38  13
M  ISO  7  39  13  40  13  41  13  42  13  43  14  44  14  45  14
M  END
>  <minimizedAffinity>  (1) 
-6.77585268

>  <minimizedRMSD>  (1) 
0.424674153

$$$$
