
     RDKit          3D

 33 35  0  0  0  0  0  0  0  0999 V2000
   37.1520   31.2860   49.2450 C   0  0  0  0  0  0  0  0  0  0  0  0
   37.3700   32.5410   49.8330 C   0  0  0  0  0  0  0  0  0  0  0  0
   38.2970   33.3640   49.2100 C   0  0  0  0  0  0  0  0  0  0  0  0
   38.9300   32.9210   48.0890 N   0  0  0  0  0  0  0  0  0  0  0  0
   38.6860   31.6980   47.5550 C   0  0  0  0  0  0  0  0  0  0  0  0
   37.7750   30.8560   48.1450 N   0  0  0  0  0  0  0  0  0  0  0  0
   36.1290   30.3960   49.8740 C   0  0  0  0  0  0  0  0  0  0  0  0
   36.0860   28.9700   49.6690 C   0  0  0  0  0  0  0  0  0  0  0  0
   36.7100   29.4720   50.9530 C   0  0  0  0  0  0  0  0  0  0  0  0
   39.3420   31.2340   46.3420 C   0  0  0  0  0  0  0  0  0  0  0  0
   38.9970   32.1890   45.2970 N   0  0  0  0  0  0  0  0  0  0  0  0
   40.0330   32.3680   44.3350 C   0  0  0  0  0  0  0  0  0  0  0  0
   39.5510   32.7810   42.9750 C   0  0  0  0  0  0  0  0  0  0  0  0
   38.4010   32.1150   42.5580 O   0  0  0  0  0  0  0  0  0  0  0  0
   37.3920   32.4820   43.4580 C   0  0  0  0  0  0  0  0  0  0  0  0
   37.7210   31.8190   44.7730 C   0  0  0  0  0  0  0  0  0  0  0  0
   36.8340   32.8560   50.7405 H   0  0  0  0  0  0  0  0  0  0  0  0
   38.5178   34.3619   49.6167 H   0  0  0  0  0  0  0  0  0  0  0  0
   35.3408   31.1559   49.7672 H   0  0  0  0  0  0  0  0  0  0  0  0
   35.1198   28.4455   49.7039 H   0  0  0  0  0  0  0  0  0  0  0  0
   36.4298   28.3047   48.8633 H   0  0  0  0  0  0  0  0  0  0  0  0
   37.7970   29.4083   51.1092 H   0  0  0  0  0  0  0  0  0  0  0  0
   36.5592   29.3096   52.0304 H   0  0  0  0  0  0  0  0  0  0  0  0
   40.4321   31.2051   46.4862 H   0  0  0  0  0  0  0  0  0  0  0  0
   39.0167   30.2173   46.0765 H   0  0  0  0  0  0  0  0  0  0  0  0
   40.7182   33.1437   44.7075 H   0  0  0  0  0  0  0  0  0  0  0  0
   40.5199   31.3893   44.2119 H   0  0  0  0  0  0  0  0  0  0  0  0
   39.3382   33.8600   42.9958 H   0  0  0  0  0  0  0  0  0  0  0  0
   40.3470   32.5215   42.2615 H   0  0  0  0  0  0  0  0  0  0  0  0
   37.3715   33.5751   43.5793 H   0  0  0  0  0  0  0  0  0  0  0  0
   36.4031   32.1676   43.0931 H   0  0  0  0  0  0  0  0  0  0  0  0
   36.9498   32.0987   45.5059 H   0  0  0  0  0  0  0  0  0  0  0  0
   37.7502   30.7349   44.5890 H   0  0  0  0  0  0  0  0  0  0  0  0
  1  2  2  0
  1  7  1  0
  3  2  1  0
  4  3  2  0
  5  4  1  0
  5  6  2  0
  6  1  1  0
  7  9  1  0
  8  7  1  0
  8  9  1  0
 10  5  1  0
 11 10  1  0
 12 11  1  0
 13 12  1  0
 14 13  1  0
 14 15  1  0
 15 16  1  0
 16 11  1  0
  2 17  1  0
  3 18  1  0
  7 19  1  0
  8 20  1  0
  8 21  1  0
  9 22  1  0
  9 23  1  0
 10 24  1  0
 10 25  1  0
 12 26  1  0
 12 27  1  0
 13 28  1  0
 13 29  1  0
 15 30  1  0
 15 31  1  0
 16 32  1  0
 16 33  1  0
M  ISO  8  17  14  18  14  19  13  20  13  21  13  22  13  23  13  24   8
M  ISO  8  25   8  26  13  27  13  28  13  29  13  30  13  31  13  32  13
M  ISO  1  33  13
M  END
>  <minimizedAffinity>  (1) 
-5.2750206

>  <minimizedRMSD>  (1) 
1.77676451

$$$$
