
     RDKit          3D

 33 35  0  0  1  0  0  0  0  0999 V2000
   35.9620   30.6010   49.8110 C   0  0  1  0  0  0  0  0  0  0  0  0
   35.4610   29.3130   49.3890 C   0  0  1  0  0  0  0  0  0  0  0  0
   36.4350   29.3460   50.5440 C   0  0  0  0  0  0  0  0  0  0  0  0
   37.0840   31.2930   49.0720 C   0  0  0  0  0  0  0  0  0  0  0  0
   37.4990   32.5180   49.5970 C   0  0  0  0  0  0  0  0  0  0  0  0
   38.5180   33.1480   48.8800 C   0  0  0  0  0  0  0  0  0  0  0  0
   39.0410   32.5690   47.7450 N   0  0  0  0  0  0  0  0  0  0  0  0
   38.5920   31.3730   47.2840 C   0  0  0  0  0  0  0  0  0  0  0  0
   37.5920   30.7260   47.9660 N   0  0  0  0  0  0  0  0  0  0  0  0
   34.0050   29.0170   49.6140 C   0  0  0  0  0  0  0  0  0  0  0  0
   33.5410   27.8440   48.9310 N   0  0  0  0  0  0  0  0  0  0  0  0
   34.2160   27.5970   47.6710 C   0  0  0  0  0  0  0  0  0  0  0  0
   33.3570   26.5800   46.9090 C   0  0  0  0  0  0  0  0  0  0  0  0
   32.2440   27.2450   46.4250 O   0  0  0  0  0  0  0  0  0  0  0  0
   31.8550   28.2680   47.3040 C   0  0  0  0  0  0  0  0  0  0  0  0
   32.1350   27.7950   48.7160 C   0  0  0  0  0  0  0  0  0  0  0  0
   35.4345   31.5395   50.0365 H   0  0  0  0  0  0  0  0  0  0  0  0
   35.4435   28.7514   48.4433 H   0  0  0  0  0  0  0  0  0  0  0  0
   37.4644   28.9796   50.4174 H   0  0  0  0  0  0  0  0  0  0  0  0
   36.4489   28.9891   51.5844 H   0  0  0  0  0  0  0  0  0  0  0  0
   37.0573   32.9534   50.5055 H   0  0  0  0  0  0  0  0  0  0  0  0
   38.9073   34.1171   49.2253 H   0  0  0  0  0  0  0  0  0  0  0  0
   39.0244   30.9285   46.3755 H   0  0  0  0  0  0  0  0  0  0  0  0
   33.8420   28.8775   50.6929 H   0  0  0  0  0  0  0  0  0  0  0  0
   33.4384   29.8687   49.2096 H   0  0  0  0  0  0  0  0  0  0  0  0
   34.2999   28.5306   47.0954 H   0  0  0  0  0  0  0  0  0  0  0  0
   35.2346   27.2149   47.8335 H   0  0  0  0  0  0  0  0  0  0  0  0
   33.9325   26.1559   46.0730 H   0  0  0  0  0  0  0  0  0  0  0  0
   33.0544   25.7577   47.5740 H   0  0  0  0  0  0  0  0  0  0  0  0
   32.4310   29.1813   47.0939 H   0  0  0  0  0  0  0  0  0  0  0  0
   30.7862   28.4965   47.1796 H   0  0  0  0  0  0  0  0  0  0  0  0
   31.6251   28.4514   49.4365 H   0  0  0  0  0  0  0  0  0  0  0  0
   31.7653   26.7681   48.8529 H   0  0  0  0  0  0  0  0  0  0  0  0
  1  3  1  0
  2 10  1  0
  2  1  1  0
  2  3  1  0
  4  5  2  0
  4  1  1  0
  6  5  1  0
  7  6  2  0
  8  7  1  0
  8  9  2  0
  9  4  1  0
 11 10  1  0
 12 11  1  0
 13 12  1  0
 14 13  1  0
 14 15  1  0
 15 16  1  0
 16 11  1  0
  1 17  1  1
  2 18  1  6
  3 19  1  0
  3 20  1  0
  5 21  1  0
  6 22  1  0
  8 23  1  0
 10 24  1  0
 10 25  1  0
 12 26  1  0
 12 27  1  0
 13 28  1  0
 13 29  1  0
 15 30  1  0
 15 31  1  0
 16 32  1  0
 16 33  1  0
M  ISO  8  17  13  18  13  19  13  20  13  21  14  22  14  23  14  24   8
M  ISO  8  25   8  26  13  27  13  28  13  29  13  30  13  31  13  32  13
M  ISO  1  33  13
M  END
>  <minimizedAffinity>  (1) 
-4.75459909

>  <minimizedRMSD>  (1) 
1.4430908

$$$$
