
     RDKit          3D

 46 48  0  0  1  0  0  0  0  0999 V2000
   34.9000   28.6320   50.0980 O   0  0  0  0  0  0  0  0  0  0  0  0
   34.6680   28.9760   48.9320 C   0  0  0  0  0  0  0  0  0  0  0  0
   35.3720   30.0820   48.3200 C   0  0  2  0  0  0  0  0  0  0  0  0
   34.8640   29.9940   46.8430 C   0  0  0  0  0  0  0  0  0  0  0  0
   33.5260   29.3200   46.9990 C   0  0  0  0  0  0  0  0  0  0  0  0
   33.7120   28.3480   48.0680 N   0  0  0  0  0  0  0  0  0  0  0  0
   33.0500   27.0790   48.1670 C   0  0  0  0  0  0  0  0  0  0  0  0
   30.7830   27.4750   47.1150 C   0  0  2  0  0  0  0  0  0  0  0  0
   31.5670   27.1440   48.3350 C   0  0  2  0  0  0  0  0  0  0  0  0
   31.1980   28.0070   49.3710 O   0  0  0  0  0  0  0  0  0  0  0  0
   29.9720   27.5970   49.9160 C   0  0  0  0  0  0  0  0  0  0  0  0
   29.0460   27.1430   48.7960 C   0  0  2  0  0  0  0  0  0  0  0  0
   29.3990   27.9140   47.5230 C   0  0  1  0  0  0  0  0  0  0  0  0
   30.7390   26.4260   46.1940 O   0  0  0  0  0  0  0  0  0  0  0  0
   27.7470   27.4250   49.1970 O   0  0  0  0  0  0  0  0  0  0  0  0
   29.2860   29.2680   47.6950 O   0  0  0  0  0  0  0  0  0  0  0  0
   36.7870   29.9170   48.2520 O   0  0  0  0  0  0  0  0  0  0  0  0
   37.5760   31.0670   48.3060 C   0  0  0  0  0  0  0  0  0  0  0  0
   37.7260   31.6660   49.5440 C   0  0  0  0  0  0  0  0  0  0  0  0
   38.5040   32.8090   49.6240 C   0  0  0  0  0  0  0  0  0  0  0  0
   39.0810   33.2920   48.4910 N   0  0  0  0  0  0  0  0  0  0  0  0
   38.9210   32.6910   47.2870 C   0  0  0  0  0  0  0  0  0  0  0  0
   38.1770   31.6000   47.2180 N   0  0  0  0  0  0  0  0  0  0  0  0
   40.4430   32.3100   45.5160 C   0  0  0  0  0  0  0  0  0  0  0  0
   40.7330   31.1340   45.8850 O   0  0  0  0  0  0  0  0  0  0  0  0
   39.5410   33.2300   46.1240 N   0  0  0  0  0  0  0  0  0  0  0  0
   35.1929   31.0096   48.8835 H   0  0  0  0  0  0  0  0  0  0  0  0
   35.5437   29.3900   46.2240 H   0  0  0  0  0  0  0  0  0  0  0  0
   34.8075   30.9703   46.3394 H   0  0  0  0  0  0  0  0  0  0  0  0
   32.7540   30.0536   47.2743 H   0  0  0  0  0  0  0  0  0  0  0  0
   33.1926   28.8454   46.0644 H   0  0  0  0  0  0  0  0  0  0  0  0
   33.2635   26.5118   47.2490 H   0  0  0  0  0  0  0  0  0  0  0  0
   33.4389   26.6034   49.0794 H   0  0  0  0  0  0  0  0  0  0  0  0
   31.2926   28.2991   46.5943 H   0  0  0  0  0  0  0  0  0  0  0  0
   31.3040   26.1055   48.5848 H   0  0  0  0  0  0  0  0  0  0  0  0
   30.1410   26.7629   50.6130 H   0  0  0  0  0  0  0  0  0  0  0  0
   29.5108   28.4374   50.4554 H   0  0  0  0  0  0  0  0  0  0  0  0
   29.1493   26.0673   48.5904 H   0  0  0  0  0  0  0  0  0  0  0  0
   28.6883   27.6865   46.7148 H   0  0  0  0  0  0  0  0  0  0  0  0
   30.7028   25.5632   46.6781 H   0  0  0  0  0  0  0  0  0  0  0  0
   27.7017   27.4348   50.1859 H   0  0  0  0  0  0  0  0  0  0  0  0
   29.2685   29.4774   48.6624 H   0  0  0  0  0  0  0  0  0  0  0  0
   37.2417   31.2469   50.4383 H   0  0  0  0  0  0  0  0  0  0  0  0
   38.6528   33.3177   50.5879 H   0  0  0  0  0  0  0  0  0  0  0  0
   40.9532   32.6673   44.6093 H   0  0  0  0  0  0  0  0  0  0  0  0
   39.3582   34.1773   45.7633 H   0  0  0  0  0  0  0  0  0  0  0  0
  2  1  2  0
  3  2  1  0
  4  5  1  0
  4  3  1  0
  5  6  1  0
  6  7  1  0
  6  2  1  0
  8 14  1  0
  8 13  1  0
  8  9  1  0
  9  7  1  0
  9 10  1  0
 10 11  1  0
 12 15  1  0
 12 11  1  0
 13 16  1  0
 13 12  1  0
 17 18  1  0
 17  3  1  0
 18 19  2  0
 19 20  1  0
 21 20  2  0
 22 21  1  0
 23 22  2  0
 23 18  1  0
 24 25  2  0
 24 26  1  0
 26 22  1  0
  3 27  1  1
  4 28  1  0
  4 29  1  0
  5 30  1  0
  5 31  1  0
  7 32  1  0
  7 33  1  0
  8 34  1  6
  9 35  1  1
 11 36  1  0
 11 37  1  0
 12 38  1  6
 13 39  1  6
 14 40  1  0
 15 41  1  0
 16 42  1  0
 19 43  1  0
 20 44  1  0
 24 45  1  0
 26 46  1  0
M  ISO  8  27  13  28  13  29  13  30  13  31  13  32   8  33   8  34  13
M  ISO  8  35  13  36  13  37  13  38  13  39  13  40   3  41   3  42   3
M  ISO  3  43  14  44  14  45   6
M  END
>  <minimizedAffinity>  (1) 
-6.73135138

>  <minimizedRMSD>  (1) 
1.48444128

$$$$
