
     RDKit          3D

 46 48  0  0  1  0  0  0  0  0999 V2000
   33.2320   27.3060   45.8660 C   0  0  1  0  0  0  0  0  0  0  0  0
   33.9110   27.4590   47.2440 C   0  0  2  0  0  0  0  0  0  0  0  0
   33.7290   26.2400   47.8180 O   0  0  0  0  0  0  0  0  0  0  0  0
   34.0480   25.3300   46.8350 C   0  0  0  0  0  0  0  0  0  0  0  0
   33.6170   25.8920   45.5160 C   0  0  2  0  0  0  0  0  0  0  0  0
   31.8720   27.5280   45.9720 O   0  0  0  0  0  0  0  0  0  0  0  0
   33.2780   28.5190   47.8250 O   0  0  0  0  0  0  0  0  0  0  0  0
   35.3380   29.8050   46.7890 O   0  0  0  0  0  0  0  0  0  0  0  0
   34.0750   29.9880   47.6230 P   0  0  1  0  0  0  0  0  0  0  0  0
   33.1080   31.0520   46.7290 O   0  0  0  0  0  0  0  0  0  0  0  0
   34.3870   30.6060   49.1780 O   0  0  0  0  0  0  0  0  0  0  0  0
   35.6160   30.4890   49.7910 C   0  0  0  0  0  0  0  0  0  0  0  0
   35.9580   29.4720   50.7070 C   0  0  0  0  0  0  0  0  0  0  0  0
   37.2400   29.4840   51.2440 C   0  0  0  0  0  0  0  0  0  0  0  0
   38.1020   30.4790   50.8570 N   0  0  0  0  0  0  0  0  0  0  0  0
   37.7360   31.4440   49.9690 C   0  0  0  0  0  0  0  0  0  0  0  0
   36.4900   31.4540   49.4310 N   0  0  0  0  0  0  0  0  0  0  0  0
   34.6640   25.9050   44.6030 O   0  0  0  0  0  0  0  0  0  0  0  0
   35.5660   23.9900   43.5080 C   0  0  1  0  0  0  0  0  0  0  0  0
   34.4920   25.0540   43.5290 C   0  0  2  0  0  0  0  0  0  0  0  0
   34.6220   25.8580   42.3770 O   0  0  0  0  0  0  0  0  0  0  0  0
   35.8840   26.4710   42.4190 C   0  0  0  0  0  0  0  0  0  0  0  0
   36.9500   25.4380   42.1040 C   0  0  1  0  0  0  0  0  0  0  0  0
   36.3310   24.0590   42.1970 C   0  0  2  0  0  0  0  0  0  0  0  0
   36.5320   24.2240   44.5070 O   0  0  0  0  0  0  0  0  0  0  0  0
   37.4260   25.6100   40.7850 O   0  0  0  0  0  0  0  0  0  0  0  0
   35.4920   23.8630   41.1040 O   0  0  0  0  0  0  0  0  0  0  0  0
   33.5365   28.0221   45.0885 H   0  0  0  0  0  0  0  0  0  0  0  0
   34.9864   27.6858   47.2902 H   0  0  0  0  0  0  0  0  0  0  0  0
   35.1341   25.1556   46.8279 H   0  0  0  0  0  0  0  0  0  0  0  0
   33.5383   24.3737   47.0241 H   0  0  0  0  0  0  0  0  0  0  0  0
   32.8120   25.3057   45.0489 H   0  0  0  0  0  0  0  0  0  0  0  0
   31.6179   27.5695   46.9279 H   0  0  0  0  0  0  0  0  0  0  0  0
   32.5880   31.6241   47.3474 H   0  0  0  0  0  0  0  0  0  0  0  0
   35.2328   28.6939   50.9875 H   0  0  0  0  0  0  0  0  0  0  0  0
   37.5562   28.7136   51.9627 H   0  0  0  0  0  0  0  0  0  0  0  0
   38.4578   32.2238   49.6846 H   0  0  0  0  0  0  0  0  0  0  0  0
   35.0609   23.0241   43.6558 H   0  0  0  0  0  0  0  0  0  0  0  0
   33.5174   24.5469   43.5845 H   0  0  0  0  0  0  0  0  0  0  0  0
   35.9249   27.2806   41.6755 H   0  0  0  0  0  0  0  0  0  0  0  0
   36.0589   26.8895   43.4211 H   0  0  0  0  0  0  0  0  0  0  0  0
   37.7800   25.5539   42.8165 H   0  0  0  0  0  0  0  0  0  0  0  0
   37.0939   23.2668   42.1794 H   0  0  0  0  0  0  0  0  0  0  0  0
   36.1151   24.1230   45.3993 H   0  0  0  0  0  0  0  0  0  0  0  0
   38.3568   25.9463   40.8113 H   0  0  0  0  0  0  0  0  0  0  0  0
   34.5793   23.6498   41.4227 H   0  0  0  0  0  0  0  0  0  0  0  0
  1  6  1  0
  1  2  1  0
  2  3  1  0
  2  7  1  0
  4  3  1  0
  5  1  1  0
  5  4  1  0
  9  8  2  0
  9  7  1  0
  9 11  1  0
 10  9  1  0
 11 12  1  0
 12 13  2  0
 13 14  1  0
 15 14  2  0
 16 15  1  0
 17 12  1  0
 17 16  2  0
 18  5  1  0
 19 20  1  0
 19 25  1  0
 20 18  1  0
 21 22  1  0
 21 20  1  0
 23 26  1  0
 23 24  1  0
 23 22  1  0
 24 27  1  0
 24 19  1  0
  1 28  1  6
  2 29  1  6
  4 30  1  0
  4 31  1  0
  5 32  1  6
  6 33  1  0
 10 34  1  0
 13 35  1  0
 14 36  1  0
 16 37  1  0
 19 38  1  1
 20 39  1  1
 22 40  1  0
 22 41  1  0
 23 42  1  1
 24 43  1  1
 25 44  1  0
 26 45  1  0
 27 46  1  0
M  ISO  8  28  13  29  13  30  13  31  13  32  13  33   3  34   3  35  14
M  ISO  8  36  14  37  14  38  13  39  13  40  13  41  13  42  13  43  13
M  ISO  3  44   3  45   3  46   3
M  END
>  <minimizedAffinity>  (1) 
-4.19820023

>  <minimizedRMSD>  (1) 
0.469569623

$$$$
