
     RDKit          3D

 47 50  0  0  1  0  0  0  0  0999 V2000
   32.5890   28.9240   46.9280 C   0  0  2  0  0  0  0  0  0  0  0  0
   33.3730   27.8290   47.6180 C   0  0  2  0  0  0  0  0  0  0  0  0
   32.5820   27.3960   48.6370 O   0  0  0  0  0  0  0  0  0  0  0  0
   31.2660   27.6760   48.3740 C   0  0  0  0  0  0  0  0  0  0  0  0
   31.1880   28.3250   47.0070 C   0  0  1  0  0  0  0  0  0  0  0  0
   34.7000   29.7330   48.7730 C   0  0  1  0  0  0  0  0  0  0  0  0
   34.6420   28.4420   48.1290 C   0  0  1  0  0  0  0  0  0  0  0  0
   34.9800   28.4580   49.5830 C   0  0  0  0  0  0  0  0  0  0  0  0
   35.9400   30.6080   48.6560 C   0  0  0  0  0  0  0  0  0  0  0  0
   36.3020   31.3500   49.7800 C   0  0  0  0  0  0  0  0  0  0  0  0
   37.4250   32.1570   49.6090 C   0  0  0  0  0  0  0  0  0  0  0  0
   38.0970   32.1920   48.4160 N   0  0  0  0  0  0  0  0  0  0  0  0
   37.7040   31.4500   47.3560 C   0  0  0  0  0  0  0  0  0  0  0  0
   36.6150   30.6500   47.4770 N   0  0  0  0  0  0  0  0  0  0  0  0
   32.9750   29.1320   45.6120 O   0  0  0  0  0  0  0  0  0  0  0  0
   30.2040   29.2740   46.9100 O   0  0  0  0  0  0  0  0  0  0  0  0
   27.9450   28.9670   46.1970 C   0  0  2  0  0  0  0  0  0  0  0  0
   28.9630   28.7910   47.3030 C   0  0  2  0  0  0  0  0  0  0  0  0
   28.4850   29.4460   48.4370 O   0  0  0  0  0  0  0  0  0  0  0  0
   27.5890   28.5870   49.0790 C   0  0  0  0  0  0  0  0  0  0  0  0
   26.6380   27.9440   48.0950 C   0  0  2  0  0  0  0  0  0  0  0  0
   26.5740   28.7160   46.7950 C   0  0  2  0  0  0  0  0  0  0  0  0
   28.1960   27.9850   45.2390 O   0  0  0  0  0  0  0  0  0  0  0  0
   25.3640   27.9790   48.6600 O   0  0  0  0  0  0  0  0  0  0  0  0
   25.7410   28.0110   45.9260 O   0  0  0  0  0  0  0  0  0  0  0  0
   32.7144   29.9182   47.3817 H   0  0  0  0  0  0  0  0  0  0  0  0
   33.6348   26.9859   46.9618 H   0  0  0  0  0  0  0  0  0  0  0  0
   30.6784   26.7461   48.3795 H   0  0  0  0  0  0  0  0  0  0  0  0
   30.8590   28.3515   49.1408 H   0  0  0  0  0  0  0  0  0  0  0  0
   30.9243   27.6370   46.1903 H   0  0  0  0  0  0  0  0  0  0  0  0
   33.9962   30.5784   48.7698 H   0  0  0  0  0  0  0  0  0  0  0  0
   35.1247   28.0292   47.2309 H   0  0  0  0  0  0  0  0  0  0  0  0
   36.0002   28.2244   49.9217 H   0  0  0  0  0  0  0  0  0  0  0  0
   34.5826   27.9930   50.4973 H   0  0  0  0  0  0  0  0  0  0  0  0
   35.7447   31.3020   50.7272 H   0  0  0  0  0  0  0  0  0  0  0  0
   37.7779   32.7766   50.4465 H   0  0  0  0  0  0  0  0  0  0  0  0
   38.2601   31.4945   46.4079 H   0  0  0  0  0  0  0  0  0  0  0  0
   33.8464   29.6016   45.5940 H   0  0  0  0  0  0  0  0  0  0  0  0
   27.9973   29.9711   45.7508 H   0  0  0  0  0  0  0  0  0  0  0  0
   29.1020   27.7241   47.5319 H   0  0  0  0  0  0  0  0  0  0  0  0
   28.1567   27.7987   49.5950 H   0  0  0  0  0  0  0  0  0  0  0  0
   26.9984   29.1764   49.7957 H   0  0  0  0  0  0  0  0  0  0  0  0
   26.9862   26.9218   47.8853 H   0  0  0  0  0  0  0  0  0  0  0  0
   26.1621   29.7188   46.9816 H   0  0  0  0  0  0  0  0  0  0  0  0
   28.4142   27.1315   45.6907 H   0  0  0  0  0  0  0  0  0  0  0  0
   25.4406   27.9769   49.6470 H   0  0  0  0  0  0  0  0  0  0  0  0
   25.1001   27.4686   46.4506 H   0  0  0  0  0  0  0  0  0  0  0  0
  1  5  1  0
  1  2  1  0
  2  7  1  0
  2  3  1  0
  4  3  1  0
  5  4  1  0
  6  8  1  0
  7  6  1  0
  7  8  1  0
  9  6  1  0
  9 10  2  0
 11 10  1  0
 12 11  2  0
 13 14  2  0
 13 12  1  0
 14  9  1  0
 15  1  1  0
 16  5  1  0
 17 23  1  0
 17 22  1  0
 17 18  1  0
 18 16  1  0
 18 19  1  0
 19 20  1  0
 21 24  1  0
 21 20  1  0
 22 25  1  0
 22 21  1  0
  1 26  1  1
  2 27  1  6
  4 28  1  0
  4 29  1  0
  5 30  1  6
  6 31  1  1
  7 32  1  6
  8 33  1  0
  8 34  1  0
 10 35  1  0
 11 36  1  0
 13 37  1  0
 15 38  1  0
 17 39  1  6
 18 40  1  1
 20 41  1  0
 20 42  1  0
 21 43  1  6
 22 44  1  1
 23 45  1  0
 24 46  1  0
 25 47  1  0
M  ISO  8  26  13  27  13  28  13  29  13  30  13  31  13  32  13  33  13
M  ISO  8  34  13  35  14  36  14  37  14  38   3  39  13  40  13  41  13
M  ISO  6  42  13  43  13  44  13  45   3  46   3  47   3
M  END
>  <minimizedAffinity>  (1) 
-6.62736082

>  <minimizedRMSD>  (1) 
3.02421021

$$$$
