
     RDKit          3D

 55 58  0  0  1  0  0  0  0  0999 V2000
   34.8020   30.5920   49.7920 C   0  0  0  0  0  0  0  0  0  0  0  0
   34.5050   27.8650   49.9580 F   0  0  0  0  0  0  0  0  0  0  0  0
   34.3600   28.4600   48.7410 C   0  0  0  0  0  0  0  0  0  0  0  0
   34.4920   29.8370   48.5420 C   0  0  0  0  0  0  0  0  0  0  0  0
   34.3400   30.4010   47.2990 C   0  0  0  0  0  0  0  0  0  0  0  0
   34.0420   29.5770   46.1950 C   0  0  0  0  0  0  0  0  0  0  0  0
   33.9120   28.2220   46.3880 C   0  0  0  0  0  0  0  0  0  0  0  0
   34.0670   27.6720   47.6370 C   0  0  0  0  0  0  0  0  0  0  0  0
   33.9200   26.3140   47.7650 O   0  0  0  0  0  0  0  0  0  0  0  0
   32.2410   24.8840   46.7710 C   0  0  1  0  0  0  0  0  0  0  0  0
   33.6820   25.3990   46.7540 C   0  0  2  0  0  0  0  0  0  0  0  0
   34.4750   24.2620   46.9660 O   0  0  0  0  0  0  0  0  0  0  0  0
   34.5760   23.4920   45.8150 C   0  0  0  0  0  0  0  0  0  0  0  0
   33.1980   22.9540   45.4950 C   0  0  2  0  0  0  0  0  0  0  0  0
   32.1680   23.4100   46.5060 C   0  0  1  0  0  0  0  0  0  0  0  0
   31.7790   25.1560   48.0640 O   0  0  0  0  0  0  0  0  0  0  0  0
   33.2410   21.5510   45.5760 O   0  0  0  0  0  0  0  0  0  0  0  0
   32.2430   22.6870   47.6930 O   0  0  0  0  0  0  0  0  0  0  0  0
   36.4970   30.1670   50.2550 S   0  0  0  0  0  0  0  0  0  0  0  0
   38.7650   32.8920   48.3320 C   0  0  0  0  0  0  0  0  0  0  0  0
   39.0640   32.2210   47.1480 C   0  0  0  0  0  0  0  0  0  0  0  0
   38.5530   30.9550   46.9940 C   0  0  0  0  0  0  0  0  0  0  0  0
   37.7900   30.4440   48.0070 N   0  0  0  0  0  0  0  0  0  0  0  0
   37.5320   31.1020   49.1010 C   0  0  0  0  0  0  0  0  0  0  0  0
   38.0120   32.3720   49.3200 N   0  0  0  0  0  0  0  0  0  0  0  0
   39.8330   32.8510   46.2270 O   0  0  0  0  0  0  0  0  0  0  0  0
   39.9810   32.2950   44.9660 C   0  0  0  0  0  0  0  0  0  0  0  0
   40.6690   31.1640   44.6080 C   0  0  0  0  0  0  0  0  0  0  0  0
   40.6960   30.7790   43.3150 C   0  0  0  0  0  0  0  0  0  0  0  0
   40.0330   31.5330   42.3890 C   0  0  0  0  0  0  0  0  0  0  0  0
   39.3320   32.6850   42.7590 C   0  0  0  0  0  0  0  0  0  0  0  0
   39.3260   33.0410   44.0640 N   0  0  0  0  0  0  0  0  0  0  0  0
   38.6010   33.5100   41.7140 C   0  0  0  0  0  0  0  0  0  0  0  0
   34.1066   30.3000   50.5927 H   0  0  0  0  0  0  0  0  0  0  0  0
   34.6967   31.6755   49.6341 H   0  0  0  0  0  0  0  0  0  0  0  0
   34.4500   31.4874   47.1661 H   0  0  0  0  0  0  0  0  0  0  0  0
   33.9152   30.0121   45.1927 H   0  0  0  0  0  0  0  0  0  0  0  0
   33.6811   27.5707   45.5321 H   0  0  0  0  0  0  0  0  0  0  0  0
   31.6404   25.3665   45.9858 H   0  0  0  0  0  0  0  0  0  0  0  0
   33.8986   25.9149   45.8069 H   0  0  0  0  0  0  0  0  0  0  0  0
   34.9387   24.1112   44.9813 H   0  0  0  0  0  0  0  0  0  0  0  0
   35.2852   22.6650   45.9673 H   0  0  0  0  0  0  0  0  0  0  0  0
   32.9199   23.3181   44.4949 H   0  0  0  0  0  0  0  0  0  0  0  0
   31.1866   23.2065   46.0528 H   0  0  0  0  0  0  0  0  0  0  0  0
   32.4131   24.7827   48.7263 H   0  0  0  0  0  0  0  0  0  0  0  0
   33.2494   21.2755   46.5268 H   0  0  0  0  0  0  0  0  0  0  0  0
   32.1787   23.3073   48.4619 H   0  0  0  0  0  0  0  0  0  0  0  0
   39.1679   33.9065   48.4677 H   0  0  0  0  0  0  0  0  0  0  0  0
   38.7516   30.3704   46.0836 H   0  0  0  0  0  0  0  0  0  0  0  0
   41.1965   30.5733   45.3715 H   0  0  0  0  0  0  0  0  0  0  0  0
   41.2424   29.8737   43.0120 H   0  0  0  0  0  0  0  0  0  0  0  0
   40.0508   31.2283   41.3322 H   0  0  0  0  0  0  0  0  0  0  0  0
   37.9513   34.2432   42.2144 H   0  0  0  0  0  0  0  0  0  0  0  0
   39.3334   34.0378   41.0854 H   0  0  0  0  0  0  0  0  0  0  0  0
   37.9889   32.8465   41.0854 H   0  0  0  0  0  0  0  0  0  0  0  0
  1 19  1  0
  3  2  1  0
  4  3  2  0
  4  1  1  0
  5  4  1  0
  6  7  1  0
  6  5  2  0
  7  8  2  0
  8  9  1  0
  8  3  1  0
 10 16  1  0
 11 10  1  0
 11 12  1  0
 11  9  1  0
 13 12  1  0
 14 17  1  0
 14 13  1  0
 14 15  1  0
 15 10  1  0
 15 18  1  0
 20 25  2  0
 21 20  1  0
 22 21  2  0
 22 23  1  0
 23 24  2  0
 24 25  1  0
 24 19  1  0
 26 21  1  0
 27 26  1  0
 28 27  2  0
 29 28  1  0
 30 31  1  0
 30 29  2  0
 31 32  2  0
 32 27  1  0
 33 31  1  0
  1 34  1  0
  1 35  1  0
  5 36  1  0
  6 37  1  0
  7 38  1  0
 10 39  1  6
 11 40  1  6
 13 41  1  0
 13 42  1  0
 14 43  1  6
 15 44  1  6
 16 45  1  0
 17 46  1  0
 18 47  1  0
 20 48  1  0
 22 49  1  0
 28 50  1  0
 29 51  1  0
 30 52  1  0
 33 53  1  0
 33 54  1  0
 33 55  1  0
M  ISO  8  34   8  35   8  36  14  37  14  38  14  39  13  40  13  41  13
M  ISO  8  42  13  43  13  44  13  45   3  46   3  47   3  48  14  49  14
M  ISO  6  50  14  51  14  52  14  53   8  54   8  55   8
M  END
>  <minimizedAffinity>  (1) 
-6.25942564

>  <minimizedRMSD>  (1) 
0.684476137

$$$$
