
     RDKit          3D

 55 58  0  0  1  0  0  0  0  0999 V2000
   33.2780   27.8940   47.3870 C   0  0  0  0  0  0  0  0  0  0  0  0
   31.8200   28.0320   47.6410 C   0  0  0  0  0  0  0  0  0  0  0  0
   31.2880   27.3990   48.7590 C   0  0  0  0  0  0  0  0  0  0  0  0
   29.9580   27.4750   49.0650 C   0  0  0  0  0  0  0  0  0  0  0  0
   29.1500   28.1720   48.2720 N   0  0  0  0  0  0  0  0  0  0  0  0
   29.6750   28.7930   47.1750 C   0  0  0  0  0  0  0  0  0  0  0  0
   30.9750   28.7370   46.8490 N   0  0  0  0  0  0  0  0  0  0  0  0
   28.7300   29.5580   46.3240 C   0  0  0  0  0  0  0  0  0  0  0  0
   26.7030   29.1090   44.9290 C   0  0  2  0  0  0  0  0  0  0  0  0
   28.0320   28.5700   45.4140 C   0  0  1  0  0  0  0  0  0  0  0  0
   28.7880   28.2840   44.2800 O   0  0  0  0  0  0  0  0  0  0  0  0
   28.4110   27.0210   43.8320 C   0  0  0  0  0  0  0  0  0  0  0  0
   26.9300   26.7770   43.9940 C   0  0  1  0  0  0  0  0  0  0  0  0
   26.1360   28.0630   43.9810 C   0  0  1  0  0  0  0  0  0  0  0  0
   26.9580   30.3010   44.2400 O   0  0  0  0  0  0  0  0  0  0  0  0
   26.5110   26.0270   42.8920 O   0  0  0  0  0  0  0  0  0  0  0  0
   24.8660   27.7320   44.4590 O   0  0  0  0  0  0  0  0  0  0  0  0
   34.0900   28.9400   48.0830 C   0  0  0  0  0  0  0  0  0  0  0  0
   34.6610   28.4500   49.2820 O   0  0  0  0  0  0  0  0  0  0  0  0
   37.0350   29.9330   51.5620 C   0  0  0  0  0  0  0  0  0  0  0  0
   37.8340   30.6550   50.6390 C   0  0  0  0  0  0  0  0  0  0  0  0
   37.5030   30.5840   49.3000 C   0  0  0  0  0  0  0  0  0  0  0  0
   36.4240   29.8140   48.9800 N   0  0  0  0  0  0  0  0  0  0  0  0
   35.6780   29.1380   49.8510 C   0  0  0  0  0  0  0  0  0  0  0  0
   35.9960   29.2030   51.1630 N   0  0  0  0  0  0  0  0  0  0  0  0
   38.7440   33.2010   49.3200 F   0  0  0  0  0  0  0  0  0  0  0  0
   38.7910   32.4650   48.2150 C   0  0  0  0  0  0  0  0  0  0  0  0
   38.2090   31.2570   48.2280 C   0  0  0  0  0  0  0  0  0  0  0  0
   38.3120   30.5580   47.0150 C   0  0  0  0  0  0  0  0  0  0  0  0
   38.9540   31.0810   45.9230 C   0  0  0  0  0  0  0  0  0  0  0  0
   39.5340   32.3290   45.9660 C   0  0  0  0  0  0  0  0  0  0  0  0
   39.4410   33.0130   47.1310 C   0  0  0  0  0  0  0  0  0  0  0  0
   33.6038   26.9042   47.7393 H   0  0  0  0  0  0  0  0  0  0  0  0
   33.4384   28.0158   46.3056 H   0  0  0  0  0  0  0  0  0  0  0  0
   31.9557   26.8213   49.4151 H   0  0  0  0  0  0  0  0  0  0  0  0
   29.5613   26.9661   49.9559 H   0  0  0  0  0  0  0  0  0  0  0  0
   27.9911   30.0743   46.9544 H   0  0  0  0  0  0  0  0  0  0  0  0
   29.2672   30.3147   45.7334 H   0  0  0  0  0  0  0  0  0  0  0  0
   25.9953   29.3070   45.7475 H   0  0  0  0  0  0  0  0  0  0  0  0
   27.8893   27.6614   46.0174 H   0  0  0  0  0  0  0  0  0  0  0  0
   28.9602   26.2621   44.4086 H   0  0  0  0  0  0  0  0  0  0  0  0
   28.6482   26.9583   42.7597 H   0  0  0  0  0  0  0  0  0  0  0  0
   26.7642   26.2708   44.9564 H   0  0  0  0  0  0  0  0  0  0  0  0
   26.1477   28.4811   42.9636 H   0  0  0  0  0  0  0  0  0  0  0  0
   27.1142   31.0310   44.8902 H   0  0  0  0  0  0  0  0  0  0  0  0
   26.0530   25.2072   43.2056 H   0  0  0  0  0  0  0  0  0  0  0  0
   24.8750   27.7344   45.4490 H   0  0  0  0  0  0  0  0  0  0  0  0
   34.8975   29.2688   47.4123 H   0  0  0  0  0  0  0  0  0  0  0  0
   33.4233   29.7768   48.3385 H   0  0  0  0  0  0  0  0  0  0  0  0
   37.2799   29.9774   52.6335 H   0  0  0  0  0  0  0  0  0  0  0  0
   38.6917   31.2537   50.9794 H   0  0  0  0  0  0  0  0  0  0  0  0
   37.8624   29.5570   46.9384 H   0  0  0  0  0  0  0  0  0  0  0  0
   39.0069   30.4928   44.9950 H   0  0  0  0  0  0  0  0  0  0  0  0
   40.0506   32.7521   45.0918 H   0  0  0  0  0  0  0  0  0  0  0  0
   39.8882   34.0147   47.2125 H   0  0  0  0  0  0  0  0  0  0  0  0
  1  2  1  0
  1 18  1  0
  2  3  2  0
  3  4  1  0
  5  4  2  0
  6  5  1  0
  7  6  2  0
  7  2  1  0
  8  6  1  0
  9 15  1  0
  9 10  1  0
 10  8  1  0
 11 10  1  0
 12 13  1  0
 12 11  1  0
 13 16  1  0
 14 13  1  0
 14 17  1  0
 14  9  1  0
 18 19  1  0
 19 24  1  0
 21 20  2  0
 22 21  1  0
 23 22  2  0
 23 24  1  0
 24 25  2  0
 25 20  1  0
 27 28  2  0
 27 26  1  0
 28 22  1  0
 29 28  1  0
 30 31  1  0
 30 29  2  0
 31 32  2  0
 32 27  1  0
  1 33  1  0
  1 34  1  0
  3 35  1  0
  4 36  1  0
  8 37  1  0
  8 38  1  0
  9 39  1  1
 10 40  1  1
 12 41  1  0
 12 42  1  0
 13 43  1  1
 14 44  1  6
 15 45  1  0
 16 46  1  0
 17 47  1  0
 18 48  1  0
 18 49  1  0
 20 50  1  0
 21 51  1  0
 29 52  1  0
 30 53  1  0
 31 54  1  0
 32 55  1  0
M  ISO  8  33   8  34   8  35  14  36  14  37   8  38   8  39  13  40  13
M  ISO  8  41  13  42  13  43  13  44  13  45   3  46   3  47   3  48   8
M  ISO  7  49   8  50  14  51  14  52  14  53  14  54  14  55  14
M  END
>  <minimizedAffinity>  (1) 
-6.88890934

>  <minimizedRMSD>  (1) 
0.770383954

$$$$
