
     RDKit          3D

 48 50  0  0  1  0  0  0  0  0999 V2000
   38.8540   32.4680   47.8740 C   0  0  2  0  0  0  0  0  0  0  0  0
   38.1840   31.4110   48.7240 C   0  0  1  0  0  0  0  0  0  0  0  0
   38.6820   31.8920   50.0900 C   0  0  0  0  0  0  0  0  0  0  0  0
   38.3420   33.2320   50.0390 O   0  0  0  0  0  0  0  0  0  0  0  0
   38.6410   33.6860   48.7700 C   0  0  0  0  0  0  0  0  0  0  0  0
   36.8270   31.6120   48.6260 O   0  0  0  0  0  0  0  0  0  0  0  0
   35.9030   29.8460   46.9530 O   0  0  0  0  0  0  0  0  0  0  0  0
   35.9590   30.1860   48.4110 P   0  0  1  0  0  0  0  0  0  0  0  0
   36.7750   28.9010   49.2200 O   0  0  0  0  0  0  0  0  0  0  0  0
   34.4050   30.3440   49.0640 O   0  0  0  0  0  0  0  0  0  0  0  0
   34.1460   29.2000   49.7920 C   0  0  0  0  0  0  0  0  0  0  0  0
   33.2840   28.2290   49.0820 C   0  0  0  0  0  0  0  0  0  0  0  0
   33.9150   27.3380   48.2470 C   0  0  0  0  0  0  0  0  0  0  0  0
   33.1590   26.3940   47.5480 C   0  0  0  0  0  0  0  0  0  0  0  0
   31.8090   26.4190   47.7420 N   0  0  0  0  0  0  0  0  0  0  0  0
   31.2130   27.3010   48.5670 C   0  0  0  0  0  0  0  0  0  0  0  0
   31.9490   28.2100   49.2390 N   0  0  0  0  0  0  0  0  0  0  0  0
   38.1750   32.5580   46.6710 O   0  0  0  0  0  0  0  0  0  0  0  0
   38.2890   31.1490   44.8000 C   0  0  1  0  0  0  0  0  0  0  0  0
   38.9680   32.2620   45.5740 C   0  0  2  0  0  0  0  0  0  0  0  0
   40.1600   31.7230   46.0160 O   0  0  0  0  0  0  0  0  0  0  0  0
   41.0540   31.4120   45.0280 C   0  0  0  0  0  0  0  0  0  0  0  0
   40.5210   31.2120   43.6680 C   0  0  2  0  0  0  0  0  0  0  0  0
   39.0580   31.0770   43.4960 C   0  0  1  0  0  0  0  0  0  0  0  0
   38.4660   29.9050   45.4240 O   0  0  0  0  0  0  0  0  0  0  0  0
   41.1080   30.0410   43.1280 O   0  0  0  0  0  0  0  0  0  0  0  0
   38.6890   29.9210   42.7900 O   0  0  0  0  0  0  0  0  0  0  0  0
   39.9070   32.3071   47.5996 H   0  0  0  0  0  0  0  0  0  0  0  0
   38.3832   30.3552   48.4882 H   0  0  0  0  0  0  0  0  0  0  0  0
   38.1659   31.3755   50.9127 H   0  0  0  0  0  0  0  0  0  0  0  0
   39.7495   31.7021   50.2757 H   0  0  0  0  0  0  0  0  0  0  0  0
   39.5567   34.2949   48.7970 H   0  0  0  0  0  0  0  0  0  0  0  0
   37.8208   34.3081   48.3824 H   0  0  0  0  0  0  0  0  0  0  0  0
   36.6964   29.0248   50.1991 H   0  0  0  0  0  0  0  0  0  0  0  0
   35.1036   28.7107   50.0235 H   0  0  0  0  0  0  0  0  0  0  0  0
   33.6049   29.5097   50.6982 H   0  0  0  0  0  0  0  0  0  0  0  0
   35.0083   27.3681   48.1299 H   0  0  0  0  0  0  0  0  0  0  0  0
   33.6302   25.6646   46.8727 H   0  0  0  0  0  0  0  0  0  0  0  0
   30.1205   27.2800   48.6935 H   0  0  0  0  0  0  0  0  0  0  0  0
   37.2114   31.3485   44.7055 H   0  0  0  0  0  0  0  0  0  0  0  0
   39.1245   33.1706   44.9741 H   0  0  0  0  0  0  0  0  0  0  0  0
   41.7877   32.2300   44.9777 H   0  0  0  0  0  0  0  0  0  0  0  0
   41.4621   30.4322   45.3167 H   0  0  0  0  0  0  0  0  0  0  0  0
   40.7772   32.1519   43.1572 H   0  0  0  0  0  0  0  0  0  0  0  0
   38.7785   31.9518   42.8906 H   0  0  0  0  0  0  0  0  0  0  0  0
   38.4492   30.0234   46.4068 H   0  0  0  0  0  0  0  0  0  0  0  0
   41.4041   29.4502   43.8652 H   0  0  0  0  0  0  0  0  0  0  0  0
   38.4595   29.2021   43.4308 H   0  0  0  0  0  0  0  0  0  0  0  0
  1  2  1  0
  1  5  1  0
  2  3  1  0
  4  3  1  0
  5  4  1  0
  6  2  1  0
  8  7  2  0
  8  6  1  0
  8 10  1  0
  8  9  1  0
 10 11  1  0
 12 17  1  0
 12 11  1  0
 13 12  2  0
 14 15  2  0
 14 13  1  0
 15 16  1  0
 16 17  2  0
 18  1  1  0
 19 25  1  0
 19 20  1  0
 20 21  1  0
 20 18  1  0
 22 21  1  0
 23 26  1  0
 23 22  1  0
 24 27  1  0
 24 23  1  0
 24 19  1  0
  1 28  1  6
  2 29  1  6
  3 30  1  0
  3 31  1  0
  5 32  1  0
  5 33  1  0
  9 34  1  0
 11 35  1  0
 11 36  1  0
 13 37  1  0
 14 38  1  0
 16 39  1  0
 19 40  1  6
 20 41  1  6
 22 42  1  0
 22 43  1  0
 23 44  1  6
 24 45  1  6
 25 46  1  0
 26 47  1  0
 27 48  1  0
M  ISO  8  28  13  29  13  30  13  31  13  32  13  33  13  34   3  35   8
M  ISO  8  36   8  37  14  38  14  39  14  40  13  41  13  42  13  43  13
M  ISO  5  44  13  45  13  46   3  47   3  48   3
M  END
>  <minimizedAffinity>  (1) 
-5.25931406

>  <minimizedRMSD>  (1) 
0.387507617

$$$$
