
     RDKit          3D

 52 55  0  0  1  0  0  0  0  0999 V2000
   39.3680   31.8210   43.7360 C   0  0  1  0  0  0  0  0  0  0  0  0
   39.4020   32.0300   45.2180 C   0  0  1  0  0  0  0  0  0  0  0  0
   40.5360   33.0750   45.3240 C   0  0  0  0  0  0  0  0  0  0  0  0
   40.2830   33.8990   44.2350 O   0  0  0  0  0  0  0  0  0  0  0  0
   39.7590   33.1410   43.1920 C   0  0  0  0  0  0  0  0  0  0  0  0
   38.4000   32.6100   45.7890 O   0  0  0  0  0  0  0  0  0  0  0  0
   38.2380   31.1760   47.5850 C   0  0  1  0  0  0  0  0  0  0  0  0
   37.3530   29.9590   47.7800 C   0  0  2  0  0  0  0  0  0  0  0  0
   36.2530   30.1520   46.9310 O   0  0  0  0  0  0  0  0  0  0  0  0
   36.8510   30.7320   45.8410 C   0  0  0  0  0  0  0  0  0  0  0  0
   37.5290   31.9850   46.6280 C   0  0  2  0  0  0  0  0  0  0  0  0
   37.2840   29.5920   51.5150 C   0  0  0  0  0  0  0  0  0  0  0  0
   37.8350   29.7900   50.2120 C   0  0  0  0  0  0  0  0  0  0  0  0
   36.9000   29.7640   49.1620 C   0  0  0  0  0  0  0  0  0  0  0  0
   35.5440   29.5540   49.4150 N   0  0  0  0  0  0  0  0  0  0  0  0
   35.1100   29.3750   50.6770 C   0  0  0  0  0  0  0  0  0  0  0  0
   35.9640   29.3930   51.7110 N   0  0  0  0  0  0  0  0  0  0  0  0
   38.7140   31.7310   48.6990 O   0  0  0  0  0  0  0  0  0  0  0  0
   40.2390   30.7800   43.4580 O   0  0  0  0  0  0  0  0  0  0  0  0
   41.3880   29.2970   42.0720 C   0  0  1  0  0  0  0  0  0  0  0  0
   40.4730   30.5040   42.1400 C   0  0  1  0  0  0  0  0  0  0  0  0
   39.2660   30.3340   41.5090 O   0  0  0  0  0  0  0  0  0  0  0  0
   39.2370   29.4360   40.4660 C   0  0  0  0  0  0  0  0  0  0  0  0
   39.7380   28.0680   40.8250 C   0  0  1  0  0  0  0  0  0  0  0  0
   40.5010   28.0720   42.1430 C   0  0  2  0  0  0  0  0  0  0  0  0
   42.1670   29.3070   40.9190 O   0  0  0  0  0  0  0  0  0  0  0  0
   38.7630   27.0800   40.7870 O   0  0  0  0  0  0  0  0  0  0  0  0
   39.6570   28.2380   43.2400 O   0  0  0  0  0  0  0  0  0  0  0  0
   38.4054   31.5266   43.2925 H   0  0  0  0  0  0  0  0  0  0  0  0
   39.4674   31.0424   45.6979 H   0  0  0  0  0  0  0  0  0  0  0  0
   40.4750   33.6343   46.2692 H   0  0  0  0  0  0  0  0  0  0  0  0
   41.5435   32.6334   45.3171 H   0  0  0  0  0  0  0  0  0  0  0  0
   40.5186   33.0109   42.4071 H   0  0  0  0  0  0  0  0  0  0  0  0
   38.8862   33.6469   42.7535 H   0  0  0  0  0  0  0  0  0  0  0  0
   39.2281   30.9330   47.1718 H   0  0  0  0  0  0  0  0  0  0  0  0
   37.9269   29.0503   47.5456 H   0  0  0  0  0  0  0  0  0  0  0  0
   36.1217   31.0559   45.0839 H   0  0  0  0  0  0  0  0  0  0  0  0
   37.5292   30.0944   45.2548 H   0  0  0  0  0  0  0  0  0  0  0  0
   36.8781   32.7786   47.0238 H   0  0  0  0  0  0  0  0  0  0  0  0
   37.9566   29.6021   52.3854 H   0  0  0  0  0  0  0  0  0  0  0  0
   38.9099   29.9507   50.0427 H   0  0  0  0  0  0  0  0  0  0  0  0
   34.0382   29.2114   50.8628 H   0  0  0  0  0  0  0  0  0  0  0  0
   38.3239   31.2761   49.4870 H   0  0  0  0  0  0  0  0  0  0  0  0
   42.1025   29.3036   42.9083 H   0  0  0  0  0  0  0  0  0  0  0  0
   40.9838   31.3244   41.6147 H   0  0  0  0  0  0  0  0  0  0  0  0
   39.8625   29.8309   39.6519 H   0  0  0  0  0  0  0  0  0  0  0  0
   38.1829   29.3223   40.1729 H   0  0  0  0  0  0  0  0  0  0  0  0
   40.4486   27.7986   40.0297 H   0  0  0  0  0  0  0  0  0  0  0  0
   41.0366   27.1199   42.2720 H   0  0  0  0  0  0  0  0  0  0  0  0
   43.1251   29.3193   41.1681 H   0  0  0  0  0  0  0  0  0  0  0  0
   38.5134   26.8270   41.7110 H   0  0  0  0  0  0  0  0  0  0  0  0
   40.1779   28.1355   44.0756 H   0  0  0  0  0  0  0  0  0  0  0  0
  1  2  1  0
  2  3  1  0
  2  6  1  0
  4  3  1  0
  5  1  1  0
  5  4  1  0
  6 11  1  0
  7  8  1  0
  7 18  1  0
  8 14  1  0
  9  8  1  0
 10 11  1  0
 10  9  1  0
 11  7  1  0
 12 17  2  0
 13 12  1  0
 14 15  1  0
 14 13  2  0
 15 16  2  0
 16 17  1  0
 19  1  1  0
 20 26  1  0
 20 21  1  0
 20 25  1  0
 21 19  1  0
 22 21  1  0
 23 24  1  0
 23 22  1  0
 24 27  1  0
 24 25  1  0
 25 28  1  0
  1 29  1  6
  2 30  1  1
  3 31  1  0
  3 32  1  0
  5 33  1  0
  5 34  1  0
  7 35  1  6
  8 36  1  6
 10 37  1  0
 10 38  1  0
 11 39  1  1
 12 40  1  0
 13 41  1  0
 16 42  1  0
 18 43  1  0
 20 44  1  1
 21 45  1  6
 23 46  1  0
 23 47  1  0
 24 48  1  6
 25 49  1  1
 26 50  1  0
 27 51  1  0
 28 52  1  0
M  ISO  8  29  13  30  13  31  13  32  13  33  13  34  13  35  13  36  13
M  ISO  8  37  13  38  13  39  13  40  14  41  14  42  14  43   3  44  13
M  ISO  8  45  13  46  13  47  13  48  13  49  13  50   3  51   3  52   3
M  END
>  <minimizedAffinity>  (1) 
-5.91371012

>  <minimizedRMSD>  (1) 
3.48240852

$$$$
