
     RDKit          3D

 49 52  0  0  1  0  0  0  0  0999 V2000
   37.3610   31.0380   47.2890 N   0  0  0  0  0  0  0  0  0  0  0  0
   36.7450   30.7250   46.1190 C   0  0  0  0  0  0  0  0  0  0  0  0
   37.1810   31.2080   44.9000 C   0  0  0  0  0  0  0  0  0  0  0  0
   38.3090   32.0540   44.8990 C   0  0  0  0  0  0  0  0  0  0  0  0
   38.7470   32.5190   43.8210 O   0  0  0  0  0  0  0  0  0  0  0  0
   38.9260   32.3650   46.0900 N   0  0  0  0  0  0  0  0  0  0  0  0
   38.4120   31.8400   47.1900 C   0  0  0  0  0  0  0  0  0  0  0  0
   39.0020   32.1460   48.2520 O   0  0  0  0  0  0  0  0  0  0  0  0
   37.3100   29.4750   50.6600 C   0  0  0  0  0  0  0  0  0  0  0  0
   37.7840   29.9780   49.4330 C   0  0  0  0  0  0  0  0  0  0  0  0
   36.8990   30.5370   48.5090 C   0  0  0  0  0  0  0  0  0  0  0  0
   35.5880   30.5760   48.8310 N   0  0  0  0  0  0  0  0  0  0  0  0
   35.1160   30.0930   50.0150 C   0  0  0  0  0  0  0  0  0  0  0  0
   35.9820   29.5500   50.9140 N   0  0  0  0  0  0  0  0  0  0  0  0
   36.5620   30.9060   43.6220 C   0  0  0  0  0  0  0  0  0  0  0  0
   36.7600   29.7300   42.9520 C   0  0  0  0  0  0  0  0  0  0  0  0
   36.1980   29.3990   41.7440 C   0  0  0  0  0  0  0  0  0  0  0  0
   35.3470   30.3390   41.1350 C   0  0  0  0  0  0  0  0  0  0  0  0
   35.1700   31.5240   41.8470 C   0  0  0  0  0  0  0  0  0  0  0  0
   35.7530   31.7760   43.0220 N   0  0  0  0  0  0  0  0  0  0  0  0
   34.4410   33.8430   42.2310 C   0  0  2  0  0  0  0  0  0  0  0  0
   34.2950   32.6280   41.3380 C   0  0  1  0  0  0  0  0  0  0  0  0
   34.6130   32.8970   40.0100 O   0  0  0  0  0  0  0  0  0  0  0  0
   33.7450   33.8060   39.4640 C   0  0  0  0  0  0  0  0  0  0  0  0
   33.4930   35.0250   40.3350 C   0  0  2  0  0  0  0  0  0  0  0  0
   34.6080   35.0720   41.3550 C   0  0  1  0  0  0  0  0  0  0  0  0
   35.5170   33.7090   43.1160 O   0  0  0  0  0  0  0  0  0  0  0  0
   32.3110   34.7600   41.0580 O   0  0  0  0  0  0  0  0  0  0  0  0
   34.5300   36.1940   42.1780 O   0  0  0  0  0  0  0  0  0  0  0  0
   40.0800   33.2300   46.0830 C   0  0  0  0  0  0  0  0  0  0  0  0
   39.9690   34.1860   45.1330 F   0  0  0  0  0  0  0  0  0  0  0  0
   41.2760   32.5580   45.8270 F   0  0  0  0  0  0  0  0  0  0  0  0
   40.1660   33.8680   47.3260 F   0  0  0  0  0  0  0  0  0  0  0  0
   35.8670   30.0628   46.1431 H   0  0  0  0  0  0  0  0  0  0  0  0
   38.0006   29.0327   51.3931 H   0  0  0  0  0  0  0  0  0  0  0  0
   38.8582   29.9302   49.2011 H   0  0  0  0  0  0  0  0  0  0  0  0
   34.0410   30.1417   50.2428 H   0  0  0  0  0  0  0  0  0  0  0  0
   37.4243   28.9884   43.4197 H   0  0  0  0  0  0  0  0  0  0  0  0
   36.4065   28.4297   41.2676 H   0  0  0  0  0  0  0  0  0  0  0  0
   34.8572   30.1525   40.1679 H   0  0  0  0  0  0  0  0  0  0  0  0
   33.5364   33.9452   42.8485 H   0  0  0  0  0  0  0  0  0  0  0  0
   33.2372   32.3275   41.3669 H   0  0  0  0  0  0  0  0  0  0  0  0
   34.1608   34.1472   38.5045 H   0  0  0  0  0  0  0  0  0  0  0  0
   32.7788   33.2927   39.3503 H   0  0  0  0  0  0  0  0  0  0  0  0
   33.4299   35.9500   39.7430 H   0  0  0  0  0  0  0  0  0  0  0  0
   35.5731   35.1098   40.8286 H   0  0  0  0  0  0  0  0  0  0  0  0
   35.1850   33.7503   44.0478 H   0  0  0  0  0  0  0  0  0  0  0  0
   32.5013   34.8027   42.0286 H   0  0  0  0  0  0  0  0  0  0  0  0
   34.5498   35.9098   43.1261 H   0  0  0  0  0  0  0  0  0  0  0  0
  1 11  1  0
  2  1  1  0
  3  2  2  0
  4  3  1  0
  4  6  1  0
  5  4  2  0
  6  7  1  0
  7  1  1  0
  7  8  2  0
  9 14  2  0
 10  9  1  0
 11 12  1  0
 11 10  2  0
 12 13  2  0
 13 14  1  0
 15  3  1  0
 16 15  2  0
 17 16  1  0
 18 17  2  0
 18 19  1  0
 19 20  2  0
 20 15  1  0
 21 27  1  0
 22 19  1  0
 22 21  1  0
 23 22  1  0
 24 23  1  0
 24 25  1  0
 25 28  1  0
 25 26  1  0
 26 29  1  0
 26 21  1  0
 30  6  1  0
 30 33  1  0
 31 30  1  0
 32 30  1  0
  2 34  1  0
  9 35  1  0
 10 36  1  0
 13 37  1  0
 16 38  1  0
 17 39  1  0
 18 40  1  0
 21 41  1  1
 22 42  1  6
 24 43  1  0
 24 44  1  0
 25 45  1  6
 26 46  1  6
 27 47  1  0
 28 48  1  0
 29 49  1  0
M  ISO  8  34  14  35  14  36  14  37  14  38  14  39  14  40  14  41  13
M  ISO  8  42  13  43  13  44  13  45  13  46  13  47   3  48   3  49   3
M  END
>  <minimizedAffinity>  (1) 
-7.52965307

>  <minimizedRMSD>  (1) 
0.446346968

$$$$
