
     RDKit          3D

 55 58  0  0  1  0  0  0  0  0999 V2000
   35.2610   30.2990   49.7570 C   0  0  2  0  0  0  0  0  0  0  0  0
   36.1840   31.3400   49.3310 C   0  0  0  0  0  0  0  0  0  0  0  0
   37.6760   30.8880   49.4110 C   0  0  2  0  0  0  0  0  0  0  0  0
   38.0870   30.4760   50.7320 C   0  0  0  0  0  0  0  0  0  0  0  0
   37.0110   29.6960   51.4950 C   0  0  0  0  0  0  0  0  0  0  0  0
   35.9560   29.1870   50.5570 C   0  0  0  0  0  0  0  0  0  0  0  0
   38.4550   30.9390   46.5660 Cl  0  0  0  0  0  0  0  0  0  0  0  0
   38.8740   32.2200   47.6730 C   0  0  0  0  0  0  0  0  0  0  0  0
   38.4180   32.1070   48.9630 C   0  0  0  0  0  0  0  0  0  0  0  0
   38.7630   33.1830   49.7660 C   0  0  0  0  0  0  0  0  0  0  0  0
   39.4950   34.2650   49.3170 C   0  0  0  0  0  0  0  0  0  0  0  0
   39.9220   34.3000   47.9880 C   0  0  0  0  0  0  0  0  0  0  0  0
   39.5970   33.2400   47.1420 C   0  0  0  0  0  0  0  0  0  0  0  0
   40.0320   33.2800   45.7940 N   0  0  0  0  0  0  0  0  0  0  0  0
   34.4940   29.6360   48.7070 C   0  0  0  0  0  0  0  0  0  0  0  0
   35.0410   29.7540   47.4380 C   0  0  0  0  0  0  0  0  0  0  0  0
   34.4040   29.1350   46.3690 C   0  0  0  0  0  0  0  0  0  0  0  0
   33.2330   28.4170   46.6290 N   0  0  0  0  0  0  0  0  0  0  0  0
   32.7300   28.3240   47.8720 C   0  0  0  0  0  0  0  0  0  0  0  0
   33.3820   28.9410   48.8700 N   0  0  0  0  0  0  0  0  0  0  0  0
   30.3590   28.1620   47.3770 C   0  0  2  0  0  0  0  0  0  0  0  0
   31.4910   27.5660   48.1460 C   0  0  2  0  0  0  0  0  0  0  0  0
   31.2320   27.4770   49.5110 O   0  0  0  0  0  0  0  0  0  0  0  0
   29.9550   27.8840   49.8430 C   0  0  0  0  0  0  0  0  0  0  0  0
   28.8670   27.1790   49.0650 C   0  0  2  0  0  0  0  0  0  0  0  0
   29.0460   27.4940   47.6110 C   0  0  2  0  0  0  0  0  0  0  0  0
   30.6600   28.0170   46.0150 O   0  0  0  0  0  0  0  0  0  0  0  0
   27.6580   27.6900   49.4990 O   0  0  0  0  0  0  0  0  0  0  0  0
   28.9270   26.3330   46.8420 O   0  0  0  0  0  0  0  0  0  0  0  0
   34.5576   30.8788   50.3727 H   0  0  0  0  0  0  0  0  0  0  0  0
   36.0469   32.2189   49.9780 H   0  0  0  0  0  0  0  0  0  0  0  0
   35.9620   31.5724   48.2790 H   0  0  0  0  0  0  0  0  0  0  0  0
   37.8666   29.9959   48.7963 H   0  0  0  0  0  0  0  0  0  0  0  0
   38.9770   29.8368   50.6355 H   0  0  0  0  0  0  0  0  0  0  0  0
   38.2894   31.3919   51.3067 H   0  0  0  0  0  0  0  0  0  0  0  0
   37.4794   28.8431   52.0080 H   0  0  0  0  0  0  0  0  0  0  0  0
   36.5384   30.3694   52.2252 H   0  0  0  0  0  0  0  0  0  0  0  0
   35.1950   28.6532   51.1452 H   0  0  0  0  0  0  0  0  0  0  0  0
   36.4574   28.5303   49.8309 H   0  0  0  0  0  0  0  0  0  0  0  0
   38.4366   33.1748   50.8164 H   0  0  0  0  0  0  0  0  0  0  0  0
   39.7393   35.0917   50.0003 H   0  0  0  0  0  0  0  0  0  0  0  0
   40.5072   35.1527   47.6132 H   0  0  0  0  0  0  0  0  0  0  0  0
   40.5781   34.0838   45.4527 H   0  0  0  0  0  0  0  0  0  0  0  0
   39.8021   32.5052   45.1554 H   0  0  0  0  0  0  0  0  0  0  0  0
   35.9653   30.3290   47.2799 H   0  0  0  0  0  0  0  0  0  0  0  0
   34.8091   29.2079   45.3489 H   0  0  0  0  0  0  0  0  0  0  0  0
   30.2570   29.2067   47.7058 H   0  0  0  0  0  0  0  0  0  0  0  0
   31.6209   26.5287   47.8037 H   0  0  0  0  0  0  0  0  0  0  0  0
   29.7967   27.6896   50.9141 H   0  0  0  0  0  0  0  0  0  0  0  0
   29.8850   28.9531   49.5937 H   0  0  0  0  0  0  0  0  0  0  0  0
   28.9040   26.0896   49.2127 H   0  0  0  0  0  0  0  0  0  0  0  0
   28.2526   28.1904   47.3019 H   0  0  0  0  0  0  0  0  0  0  0  0
   31.5475   27.5895   45.9169 H   0  0  0  0  0  0  0  0  0  0  0  0
   27.6393   27.6979   50.4888 H   0  0  0  0  0  0  0  0  0  0  0  0
   28.8465   25.5480   47.4398 H   0  0  0  0  0  0  0  0  0  0  0  0
  1  6  1  0
  2  3  1  0
  2  1  1  0
  3  4  1  0
  4  5  1  0
  6  5  1  0
  7  8  1  0
  8  9  2  0
  9  3  1  0
  9 10  1  0
 11 10  2  0
 12 11  1  0
 13  8  1  0
 13 12  2  0
 14 13  1  0
 15 20  1  0
 15  1  1  0
 16 15  2  0
 17 18  2  0
 17 16  1  0
 18 19  1  0
 19 20  2  0
 21 27  1  0
 21 26  1  0
 21 22  1  0
 22 19  1  0
 22 23  1  0
 23 24  1  0
 25 28  1  0
 25 24  1  0
 26 29  1  0
 26 25  1  0
  1 30  1  1
  2 31  1  0
  2 32  1  0
  3 33  1  6
  4 34  1  0
  4 35  1  0
  5 36  1  0
  5 37  1  0
  6 38  1  0
  6 39  1  0
 10 40  1  0
 11 41  1  0
 12 42  1  0
 14 43  1  0
 14 44  1  0
 16 45  1  0
 17 46  1  0
 21 47  1  1
 22 48  1  6
 24 49  1  0
 24 50  1  0
 25 51  1  6
 26 52  1  6
 27 53  1  0
 28 54  1  0
 29 55  1  0
M  END
>  <minimizedAffinity>  (1) 
-8.48372173

>  <minimizedRMSD>  (1) 
1.17338622

$$$$
