
     RDKit          3D

 30 32  0  0  0  0  0  0  0  0999 V2000
   34.6460   28.5370   49.7500 C   0  0  0  0  0  0  0  0  0  0  0  0
   35.7630   29.4610   50.0330 C   0  0  0  0  0  0  0  0  0  0  0  0
   36.3700   29.4570   51.2920 C   0  0  0  0  0  0  0  0  0  0  0  0
   37.3520   30.4080   51.2900 C   0  0  0  0  0  0  0  0  0  0  0  0
   37.3450   30.9670   50.0780 N   0  0  0  0  0  0  0  0  0  0  0  0
   36.4080   30.4000   49.3540 N   0  0  0  0  0  0  0  0  0  0  0  0
   38.0580   31.9900   49.3630 C   0  0  0  0  0  0  0  0  0  0  0  0
   38.9000   33.0390   49.6670 C   0  0  0  0  0  0  0  0  0  0  0  0
   39.2100   33.6100   48.4410 C   0  0  0  0  0  0  0  0  0  0  0  0
   38.5850   32.9360   47.4570 N   0  0  0  0  0  0  0  0  0  0  0  0
   37.8780   31.9440   48.0110 N   0  0  0  0  0  0  0  0  0  0  0  0
   34.5090   28.1580   48.3340 C   0  0  0  0  0  0  0  0  0  0  0  0
   33.4980   28.7780   47.5220 C   0  0  0  0  0  0  0  0  0  0  0  0
   32.2750   28.1840   47.3650 C   0  0  0  0  0  0  0  0  0  0  0  0
   31.2750   28.7870   46.5770 C   0  0  0  0  0  0  0  0  0  0  0  0
   31.6240   29.9880   45.9980 N   0  0  0  0  0  0  0  0  0  0  0  0
   32.8420   30.5490   46.1730 C   0  0  0  0  0  0  0  0  0  0  0  0
   33.7650   29.9320   46.9370 N   0  0  0  0  0  0  0  0  0  0  0  0
   34.8018   27.6200   50.3373 H   0  0  0  0  0  0  0  0  0  0  0  0
   33.7231   29.0707   50.0210 H   0  0  0  0  0  0  0  0  0  0  0  0
   36.1043   28.8035   52.1360 H   0  0  0  0  0  0  0  0  0  0  0  0
   38.0194   30.6634   52.1262 H   0  0  0  0  0  0  0  0  0  0  0  0
   39.2488   33.3536   50.6617 H   0  0  0  0  0  0  0  0  0  0  0  0
   39.8663   34.4806   48.2951 H   0  0  0  0  0  0  0  0  0  0  0  0
   38.6414   33.1477   46.4506 H   0  0  0  0  0  0  0  0  0  0  0  0
   35.4760   28.3677   47.8534 H   0  0  0  0  0  0  0  0  0  0  0  0
   34.1878   27.1070   48.3818 H   0  0  0  0  0  0  0  0  0  0  0  0
   32.0703   27.2235   47.8605 H   0  0  0  0  0  0  0  0  0  0  0  0
   30.2843   28.3309   46.4338 H   0  0  0  0  0  0  0  0  0  0  0  0
   33.0794   31.5092   45.6916 H   0  0  0  0  0  0  0  0  0  0  0  0
  1  2  1  0
  2  3  1  0
  4  3  2  0
  5  4  1  0
  6  2  2  0
  6  5  1  0
  7  8  1  0
  7  5  1  0
  9  8  2  0
 10 11  1  0
 10  9  1  0
 11  7  2  0
 12  1  1  0
 13 12  1  0
 14 13  2  0
 15 14  1  0
 16 17  1  0
 16 15  2  0
 17 18  2  0
 18 13  1  0
  1 19  1  0
  1 20  1  0
  3 21  1  0
  4 22  1  0
  8 23  1  0
  9 24  1  0
 10 25  1  0
 12 26  1  0
 12 27  1  0
 14 28  1  0
 15 29  1  0
 17 30  1  0
M  ISO  8  19   8  20   8  21  14  22  14  23  14  24  14  25   9  26   8
M  ISO  4  27   8  28  14  29  14  30  14
M  END
>  <minimizedAffinity>  (1) 
-5.56987572

>  <minimizedRMSD>  (1) 
5.78682566

$$$$
