
     RDKit          3D

 28 30  0  0  1  0  0  0  0  0999 V2000
   38.4810   31.0240   47.2850 C   0  0  2  0  0  0  0  0  0  0  0  0
   39.0260   32.3400   46.9680 C   0  0  0  0  0  0  0  0  0  0  0  0
   38.4250   31.4290   45.8840 C   0  0  1  0  0  0  0  0  0  0  0  0
   34.9380   30.2860   48.0660 C   0  0  0  0  0  0  0  0  0  0  0  0
   34.8920   30.4940   49.4690 C   0  0  0  0  0  0  0  0  0  0  0  0
   36.1050   30.8900   50.1300 C   0  0  0  0  0  0  0  0  0  0  0  0
   37.2230   31.0450   49.3870 N   0  0  0  0  0  0  0  0  0  0  0  0
   37.2060   30.8310   48.0430 C   0  0  0  0  0  0  0  0  0  0  0  0
   36.0880   30.4530   47.3580 N   0  0  0  0  0  0  0  0  0  0  0  0
   38.9240   30.2700   43.7600 C   0  0  0  0  0  0  0  0  0  0  0  0
   37.7140   30.3990   43.4380 O   0  0  0  0  0  0  0  0  0  0  0  0
   39.4250   30.8430   44.9850 N   0  0  0  0  0  0  0  0  0  0  0  0
   39.8990   29.5460   42.9380 C   0  0  0  0  0  0  0  0  0  0  0  0
   39.7010   28.5250   42.0360 C   0  0  0  0  0  0  0  0  0  0  0  0
   40.9270   28.1640   41.5060 C   0  0  0  0  0  0  0  0  0  0  0  0
   41.8330   28.9670   42.0910 N   0  0  0  0  0  0  0  0  0  0  0  0
   41.2420   29.7910   42.9410 N   0  0  0  0  0  0  0  0  0  0  0  0
   38.9027   30.1677   47.8316 H   0  0  0  0  0  0  0  0  0  0  0  0
   38.4962   33.2508   47.2838 H   0  0  0  0  0  0  0  0  0  0  0  0
   39.9865   32.8535   47.1225 H   0  0  0  0  0  0  0  0  0  0  0  0
   37.6275   31.4899   45.1289 H   0  0  0  0  0  0  0  0  0  0  0  0
   34.0219   29.9825   47.5381 H   0  0  0  0  0  0  0  0  0  0  0  0
   33.9575   30.3565   50.0327 H   0  0  0  0  0  0  0  0  0  0  0  0
   36.1230   31.0630   51.2162 H   0  0  0  0  0  0  0  0  0  0  0  0
   40.4288   30.8409   45.2157 H   0  0  0  0  0  0  0  0  0  0  0  0
   38.7316   28.0725   41.7799 H   0  0  0  0  0  0  0  0  0  0  0  0
   41.1209   27.3803   40.7588 H   0  0  0  0  0  0  0  0  0  0  0  0
   42.8456   28.9439   41.9037 H   0  0  0  0  0  0  0  0  0  0  0  0
  1  8  1  0
  2  1  1  0
  3  2  1  0
  3  1  1  0
  4  5  2  0
  5  6  1  0
  7  6  2  0
  8  7  1  0
  9  8  2  0
  9  4  1  0
 10 12  1  0
 11 10  2  0
 12  3  1  0
 13 17  2  0
 13 10  1  0
 14 13  1  0
 15 14  2  0
 15 16  1  0
 16 17  1  0
  1 18  1  6
  2 19  1  0
  2 20  1  0
  3 21  1  6
  4 22  1  0
  5 23  1  0
  6 24  1  0
 12 25  1  0
 14 26  1  0
 15 27  1  0
 16 28  1  0
M  ISO  8  18  13  19  13  20  13  21  13  22  14  23  14  24  14  26  14
M  ISO  2  27  14  28   9
M  END
>  <minimizedAffinity>  (1) 
-4.72071457

>  <minimizedRMSD>  (1) 
7.47707891

$$$$
