
     RDKit          3D

 31 33  0  0  1  0  0  0  0  0999 V2000
   37.6080   30.5160   46.7910 N   0  0  0  0  0  0  0  0  0  0  0  0
   37.0620   30.2080   45.4540 C   0  0  0  0  0  0  0  0  0  0  0  0
   38.1010   30.2090   44.3930 C   0  0  0  0  0  0  0  0  0  0  0  0
   39.4120   30.0430   44.9570 N   0  0  0  0  0  0  0  0  0  0  0  0
   39.6720   31.2640   45.7110 C   0  0  0  0  0  0  0  0  0  0  0  0
   38.9300   31.0480   47.0060 C   0  0  1  0  0  0  0  0  0  0  0  0
   37.2780   29.5810   49.0400 C   0  0  0  0  0  0  0  0  0  0  0  0
   36.7920   30.2760   47.9220 C   0  0  0  0  0  0  0  0  0  0  0  0
   35.4790   30.7180   47.9710 C   0  0  0  0  0  0  0  0  0  0  0  0
   34.7230   30.4660   49.0840 N   0  0  0  0  0  0  0  0  0  0  0  0
   35.2420   29.7890   50.1370 C   0  0  0  0  0  0  0  0  0  0  0  0
   36.5250   29.3350   50.1370 N   0  0  0  0  0  0  0  0  0  0  0  0
   38.9730   32.2200   47.9010 C   0  0  0  0  0  0  0  0  0  0  0  0
   38.6340   32.2440   49.2530 C   0  0  0  0  0  0  0  0  0  0  0  0
   38.8150   33.5400   49.7160 C   0  0  0  0  0  0  0  0  0  0  0  0
   39.2470   34.2310   48.6480 N   0  0  0  0  0  0  0  0  0  0  0  0
   39.3510   33.4840   47.5610 N   0  0  0  0  0  0  0  0  0  0  0  0
   36.5939   29.2131   45.4864 H   0  0  0  0  0  0  0  0  0  0  0  0
   36.3340   30.9941   45.2048 H   0  0  0  0  0  0  0  0  0  0  0  0
   38.0609   31.1653   43.8510 H   0  0  0  0  0  0  0  0  0  0  0  0
   37.9046   29.3702   43.7090 H   0  0  0  0  0  0  0  0  0  0  0  0
   39.4339   29.2237   45.5808 H   0  0  0  0  0  0  0  0  0  0  0  0
   40.7494   31.3912   45.8926 H   0  0  0  0  0  0  0  0  0  0  0  0
   39.3478   32.1709   45.1796 H   0  0  0  0  0  0  0  0  0  0  0  0
   39.4742   30.2670   47.5572 H   0  0  0  0  0  0  0  0  0  0  0  0
   38.3170   29.2202   49.0239 H   0  0  0  0  0  0  0  0  0  0  0  0
   35.0476   31.2675   47.1213 H   0  0  0  0  0  0  0  0  0  0  0  0
   34.6085   29.6011   51.0164 H   0  0  0  0  0  0  0  0  0  0  0  0
   38.2847   31.3872   49.8479 H   0  0  0  0  0  0  0  0  0  0  0  0
   38.6425   33.9184   50.7344 H   0  0  0  0  0  0  0  0  0  0  0  0
   39.4732   35.2355   48.6728 H   0  0  0  0  0  0  0  0  0  0  0  0
  1  6  1  0
  1  8  1  0
  2  1  1  0
  3  4  1  0
  3  2  1  0
  4  5  1  0
  5  6  1  0
  6 13  1  0
  7 12  2  0
  8  9  2  0
  8  7  1  0
  9 10  1  0
 10 11  2  0
 11 12  1  0
 13 14  1  0
 14 15  2  0
 16 15  1  0
 17 13  2  0
 17 16  1  0
  2 18  1  0
  2 19  1  0
  3 20  1  0
  3 21  1  0
  4 22  1  0
  5 23  1  0
  5 24  1  0
  6 25  1  1
  7 26  1  0
  9 27  1  0
 11 28  1  0
 14 29  1  0
 15 30  1  0
 16 31  1  0
M  ISO  8  18  13  19  13  20  13  21  13  22   5  23  13  24  13  25  13
M  ISO  6  26  14  27  14  28  14  29  14  30  14  31   9
M  END
>  <minimizedAffinity>  (1) 
-4.73121691

>  <minimizedRMSD>  (1) 
2.23711371

$$$$
