
     RDKit          3D

 40 43  0  0  1  0  0  0  0  0999 V2000
   34.6640   29.2970   48.0440 C   0  0  0  0  0  0  0  0  0  0  0  0
   34.4050   30.0790   46.9080 C   0  0  0  0  0  0  0  0  0  0  0  0
   33.1910   29.8620   46.2510 C   0  0  0  0  0  0  0  0  0  0  0  0
   32.3460   28.8990   46.7660 N   0  0  0  0  0  0  0  0  0  0  0  0
   32.6370   28.1820   47.8480 C   0  0  0  0  0  0  0  0  0  0  0  0
   33.7970   28.3830   48.4850 N   0  0  0  0  0  0  0  0  0  0  0  0
   35.9100   29.5200   48.7210 N   0  0  0  0  0  0  0  0  0  0  0  0
   37.0460   30.2360   48.2300 C   0  0  0  0  0  0  0  0  0  0  0  0
   37.6920   30.7530   49.5130 C   0  0  2  0  0  0  0  0  0  0  0  0
   36.7520   30.3640   50.6460 C   0  0  0  0  0  0  0  0  0  0  0  0
   36.2580   29.0530   50.0560 C   0  0  0  0  0  0  0  0  0  0  0  0
   37.9310   32.2430   49.4660 C   0  0  0  0  0  0  0  0  0  0  0  0
   36.8270   32.8440   50.0370 F   0  0  0  0  0  0  0  0  0  0  0  0
   37.9360   32.6120   48.1350 F   0  0  0  0  0  0  0  0  0  0  0  0
   39.0950   32.6190   50.0790 F   0  0  0  0  0  0  0  0  0  0  0  0
   31.5020   26.9550   48.4600 S   0  0  0  0  0  0  0  0  0  0  0  0
   30.0450   27.4750   49.1090 C   0  0  0  0  0  0  0  0  0  0  0  0
   29.3160   27.4360   50.2610 C   0  0  0  0  0  0  0  0  0  0  0  0
   28.0900   28.0000   50.4460 C   0  0  0  0  0  0  0  0  0  0  0  0
   27.5950   28.6930   49.2260 C   0  0  0  0  0  0  0  0  0  0  0  0
   28.9110   28.4620   47.9860 S   0  0  0  0  0  0  0  0  0  0  0  0
   26.3250   29.3650   49.1720 C   0  0  0  0  0  0  0  0  0  0  0  0
   25.9380   30.6220   48.7900 C   0  0  0  0  0  0  0  0  0  0  0  0
   24.5700   30.6550   48.9730 C   0  0  0  0  0  0  0  0  0  0  0  0
   24.1730   29.4590   49.4450 N   0  0  0  0  0  0  0  0  0  0  0  0
   25.2410   28.6720   49.5670 N   0  0  0  0  0  0  0  0  0  0  0  0
   35.1255   30.8294   46.5506 H   0  0  0  0  0  0  0  0  0  0  0  0
   32.9180   30.4383   45.3547 H   0  0  0  0  0  0  0  0  0  0  0  0
   37.7287   29.5702   47.6817 H   0  0  0  0  0  0  0  0  0  0  0  0
   36.7870   31.0333   47.5179 H   0  0  0  0  0  0  0  0  0  0  0  0
   38.6883   30.3094   49.6569 H   0  0  0  0  0  0  0  0  0  0  0  0
   37.2823   30.2204   51.5989 H   0  0  0  0  0  0  0  0  0  0  0  0
   35.9789   31.1002   50.9114 H   0  0  0  0  0  0  0  0  0  0  0  0
   35.3839   28.6610   50.5966 H   0  0  0  0  0  0  0  0  0  0  0  0
   36.9735   28.2183   50.0934 H   0  0  0  0  0  0  0  0  0  0  0  0
   29.7568   26.9022   51.1158 H   0  0  0  0  0  0  0  0  0  0  0  0
   27.5291   27.9489   51.3909 H   0  0  0  0  0  0  0  0  0  0  0  0
   26.5806   31.4330   48.4167 H   0  0  0  0  0  0  0  0  0  0  0  0
   23.9148   31.5144   48.7675 H   0  0  0  0  0  0  0  0  0  0  0  0
   23.2039   29.1956   49.6740 H   0  0  0  0  0  0  0  0  0  0  0  0
  1  6  1  0
  1  7  1  0
  2  1  2  0
  3  4  2  0
  3  2  1  0
  4  5  1  0
  5 16  1  0
  5  6  2  0
  7 11  1  0
  8  7  1  0
  8  9  1  0
  9 10  1  0
 11 10  1  0
 12  9  1  0
 12 13  1  0
 12 15  1  0
 14 12  1  0
 16 17  1  0
 17 18  2  0
 18 19  1  0
 20 19  2  0
 21 17  1  0
 21 20  1  0
 22 20  1  0
 22 26  2  0
 23 24  2  0
 23 22  1  0
 24 25  1  0
 25 26  1  0
  2 27  1  0
  3 28  1  0
  8 29  1  0
  8 30  1  0
  9 31  1  1
 10 32  1  0
 10 33  1  0
 11 34  1  0
 11 35  1  0
 18 36  1  0
 19 37  1  0
 23 38  1  0
 24 39  1  0
 25 40  1  0
M  ISO  8  27  14  28  14  29  13  30  13  31  13  32  13  33  13  34  13
M  ISO  6  35  13  36  14  37  14  38  14  39  14  40   9
M  END
>  <minimizedAffinity>  (1) 
-7.80553198

>  <minimizedRMSD>  (1) 
0.733444035

$$$$
