
     RDKit          3D

 32 35  0  0  0  0  0  0  0  0999 V2000
   36.1200   30.2280   48.8280 C   0  0  0  0  0  0  0  0  0  0  0  0
   36.1030   29.2140   49.6890 C   0  0  0  0  0  0  0  0  0  0  0  0
   35.0400   28.3350   49.6720 C   0  0  0  0  0  0  0  0  0  0  0  0
   34.0690   28.5850   48.7510 C   0  0  0  0  0  0  0  0  0  0  0  0
   34.6770   30.0850   47.9040 S   0  0  0  0  0  0  0  0  0  0  0  0
   38.1020   33.2290   49.4390 C   0  0  0  0  0  0  0  0  0  0  0  0
   39.0090   33.2490   48.3840 C   0  0  0  0  0  0  0  0  0  0  0  0
   38.9360   32.2140   47.4470 C   0  0  0  0  0  0  0  0  0  0  0  0
   37.9900   31.2310   47.5980 N   0  0  0  0  0  0  0  0  0  0  0  0
   37.1370   31.2820   48.6580 C   0  0  0  0  0  0  0  0  0  0  0  0
   37.1700   32.2450   49.5690 N   0  0  0  0  0  0  0  0  0  0  0  0
   32.8330   27.8440   48.4900 C   0  0  0  0  0  0  0  0  0  0  0  0
   32.7900   26.9270   47.5060 C   0  0  0  0  0  0  0  0  0  0  0  0
   31.6160   26.2520   47.2880 C   0  0  0  0  0  0  0  0  0  0  0  0
   30.5120   26.5030   48.0530 N   0  0  0  0  0  0  0  0  0  0  0  0
   30.6520   27.4460   49.0220 C   0  0  0  0  0  0  0  0  0  0  0  0
   31.7840   28.1390   49.2760 N   0  0  0  0  0  0  0  0  0  0  0  0
   29.4810   27.7310   49.8520 C   0  0  0  0  0  0  0  0  0  0  0  0
   28.8760   26.9020   50.7730 C   0  0  0  0  0  0  0  0  0  0  0  0
   27.7970   27.5240   51.3560 C   0  0  0  0  0  0  0  0  0  0  0  0
   27.7560   28.7280   50.7810 N   0  0  0  0  0  0  0  0  0  0  0  0
   28.7460   28.8580   49.8930 N   0  0  0  0  0  0  0  0  0  0  0  0
   36.9264   29.0782   50.4056 H   0  0  0  0  0  0  0  0  0  0  0  0
   34.9803   27.4811   50.3629 H   0  0  0  0  0  0  0  0  0  0  0  0
   38.1390   34.0318   50.1901 H   0  0  0  0  0  0  0  0  0  0  0  0
   39.7567   34.0504   48.2906 H   0  0  0  0  0  0  0  0  0  0  0  0
   39.6315   32.1876   46.5952 H   0  0  0  0  0  0  0  0  0  0  0  0
   33.6778   26.7230   46.8894 H   0  0  0  0  0  0  0  0  0  0  0  0
   31.5626   25.4994   46.4875 H   0  0  0  0  0  0  0  0  0  0  0  0
   29.2111   25.8813   51.0093 H   0  0  0  0  0  0  0  0  0  0  0  0
   27.1201   27.1203   52.1234 H   0  0  0  0  0  0  0  0  0  0  0  0
   27.0583   29.4556   50.9924 H   0  0  0  0  0  0  0  0  0  0  0  0
  1  2  2  0
  3  2  1  0
  4  3  2  0
  5  4  1  0
  5  1  1  0
  6 11  2  0
  7  6  1  0
  8  9  1  0
  8  7  2  0
  9 10  2  0
 10  1  1  0
 10 11  1  0
 12  4  1  0
 12 17  1  0
 13 12  2  0
 14 13  1  0
 14 15  2  0
 15 16  1  0
 16 17  2  0
 16 18  1  0
 18 22  2  0
 18 19  1  0
 19 20  2  0
 21 20  1  0
 22 21  1  0
  2 23  1  0
  3 24  1  0
  6 25  1  0
  7 26  1  0
  8 27  1  0
 13 28  1  0
 14 29  1  0
 19 30  1  0
 20 31  1  0
 21 32  1  0
M  ISO  8  23  14  24  14  25  14  26  14  27  14  28  14  29  14  30  14
M  ISO  2  31  14  32   9
M  END
>  <minimizedAffinity>  (1) 
-6.9105072

>  <minimizedRMSD>  (1) 
0.753152907

$$$$
