
     RDKit          3D

 42 45  0  0  0  0  0  0  0  0999 V2000
   34.4150   29.1140   47.7800 C   0  0  0  0  0  0  0  0  0  0  0  0
   33.6830   28.0720   46.9990 C   0  0  0  0  0  0  0  0  0  0  0  0
   32.2460   27.9660   47.3660 C   0  0  0  0  0  0  0  0  0  0  0  0
   31.8940   27.0000   48.2980 C   0  0  0  0  0  0  0  0  0  0  0  0
   30.6070   26.8120   48.7100 C   0  0  0  0  0  0  0  0  0  0  0  0
   29.6620   27.5800   48.2030 N   0  0  0  0  0  0  0  0  0  0  0  0
   29.9970   28.5410   47.2790 C   0  0  0  0  0  0  0  0  0  0  0  0
   31.2690   28.7420   46.8580 N   0  0  0  0  0  0  0  0  0  0  0  0
   28.9720   29.4060   46.7000 C   0  0  0  0  0  0  0  0  0  0  0  0
   27.7830   29.6180   47.4050 C   0  0  0  0  0  0  0  0  0  0  0  0
   26.9970   30.4730   46.6260 C   0  0  0  0  0  0  0  0  0  0  0  0
   27.7100   30.7430   45.5150 N   0  0  0  0  0  0  0  0  0  0  0  0
   28.8910   30.1080   45.5520 N   0  0  0  0  0  0  0  0  0  0  0  0
   35.1210   28.5210   48.8730 O   0  0  0  0  0  0  0  0  0  0  0  0
   37.2870   30.0690   51.3010 C   0  0  0  0  0  0  0  0  0  0  0  0
   38.0990   30.8720   50.4420 C   0  0  0  0  0  0  0  0  0  0  0  0
   37.8310   30.8150   49.0800 C   0  0  0  0  0  0  0  0  0  0  0  0
   36.8140   29.9940   48.6860 N   0  0  0  0  0  0  0  0  0  0  0  0
   36.0730   29.2560   49.5180 C   0  0  0  0  0  0  0  0  0  0  0  0
   36.3150   29.2970   50.8360 N   0  0  0  0  0  0  0  0  0  0  0  0
   38.8480   33.5220   49.2130 F   0  0  0  0  0  0  0  0  0  0  0  0
   39.0250   32.8130   48.1120 C   0  0  0  0  0  0  0  0  0  0  0  0
   38.5430   31.5510   48.0710 C   0  0  0  0  0  0  0  0  0  0  0  0
   38.7850   30.8920   46.8620 C   0  0  0  0  0  0  0  0  0  0  0  0
   39.4570   31.4820   45.8120 C   0  0  0  0  0  0  0  0  0  0  0  0
   39.9280   32.7680   45.9010 C   0  0  0  0  0  0  0  0  0  0  0  0
   39.7000   33.4320   47.0780 C   0  0  0  0  0  0  0  0  0  0  0  0
   33.6932   29.8463   48.1707 H   0  0  0  0  0  0  0  0  0  0  0  0
   35.1396   29.6098   47.1173 H   0  0  0  0  0  0  0  0  0  0  0  0
   34.1626   27.0987   47.1796 H   0  0  0  0  0  0  0  0  0  0  0  0
   33.7289   28.3653   45.9398 H   0  0  0  0  0  0  0  0  0  0  0  0
   32.6832   26.3611   48.7210 H   0  0  0  0  0  0  0  0  0  0  0  0
   30.3624   26.0357   49.4500 H   0  0  0  0  0  0  0  0  0  0  0  0
   27.5170   29.1936   48.3844 H   0  0  0  0  0  0  0  0  0  0  0  0
   25.9937   30.8509   46.8719 H   0  0  0  0  0  0  0  0  0  0  0  0
   27.3931   31.3509   44.7462 H   0  0  0  0  0  0  0  0  0  0  0  0
   37.4749   30.0923   52.3846 H   0  0  0  0  0  0  0  0  0  0  0  0
   38.9022   31.5082   50.8422 H   0  0  0  0  0  0  0  0  0  0  0  0
   38.4243   29.8596   46.7432 H   0  0  0  0  0  0  0  0  0  0  0  0
   39.6185   30.9111   44.8857 H   0  0  0  0  0  0  0  0  0  0  0  0
   40.4637   33.2437   45.0663 H   0  0  0  0  0  0  0  0  0  0  0  0
   40.0571   34.4652   47.2001 H   0  0  0  0  0  0  0  0  0  0  0  0
  1 14  1  0
  2  3  1  0
  2  1  1  0
  3  4  2  0
  4  5  1  0
  6  5  2  0
  7  6  1  0
  8  7  2  0
  8  3  1  0
  9  7  1  0
  9 10  1  0
 11 10  2  0
 12 13  1  0
 12 11  1  0
 13  9  2  0
 14 19  1  0
 16 15  2  0
 17 16  1  0
 18 17  2  0
 18 19  1  0
 19 20  2  0
 20 15  1  0
 22 21  1  0
 23 22  2  0
 23 17  1  0
 24 23  1  0
 25 26  1  0
 25 24  2  0
 26 27  2  0
 27 22  1  0
  1 28  1  0
  1 29  1  0
  2 30  1  0
  2 31  1  0
  4 32  1  0
  5 33  1  0
 10 34  1  0
 11 35  1  0
 12 36  1  0
 15 37  1  0
 16 38  1  0
 24 39  1  0
 25 40  1  0
 26 41  1  0
 27 42  1  0
M  ISO  8  28   8  29   8  30   8  31   8  32  14  33  14  34  14  35  14
M  ISO  7  36   9  37  14  38  14  39  14  40  14  41  14  42  14
M  END
>  <minimizedAffinity>  (1) 
-6.66245842

>  <minimizedRMSD>  (1) 
0.94536978

$$$$
