
     RDKit          3D

 27 29  0  0  0  0  0  0  0  0999 V2000
   38.4950   32.1350   47.2180 C   0  0  0  0  0  0  0  0  0  0  0  0
   39.0540   33.0920   48.0510 C   0  0  0  0  0  0  0  0  0  0  0  0
   38.6810   33.3540   49.3490 C   0  0  0  0  0  0  0  0  0  0  0  0
   37.6660   32.5870   49.8380 N   0  0  0  0  0  0  0  0  0  0  0  0
   37.1000   31.6430   49.0480 C   0  0  0  0  0  0  0  0  0  0  0  0
   37.5050   31.4290   47.7820 N   0  0  0  0  0  0  0  0  0  0  0  0
   38.5810   32.3480   43.6050 C   0  0  0  0  0  0  0  0  0  0  0  0
   39.7580   31.6880   43.2250 C   0  0  0  0  0  0  0  0  0  0  0  0
   40.5300   31.1590   44.2830 C   0  0  0  0  0  0  0  0  0  0  0  0
   40.1090   31.3120   45.5600 N   0  0  0  0  0  0  0  0  0  0  0  0
   38.9770   31.9520   45.8540 C   0  0  0  0  0  0  0  0  0  0  0  0
   38.1660   32.4970   44.8920 N   0  0  0  0  0  0  0  0  0  0  0  0
   40.1320   31.5700   41.8610 N   0  0  0  0  0  0  0  0  0  0  0  0
   36.0080   30.7730   49.4800 C   0  0  0  0  0  0  0  0  0  0  0  0
   36.2280   29.8080   50.4660 C   0  0  0  0  0  0  0  0  0  0  0  0
   35.0150   29.1370   50.6670 C   0  0  0  0  0  0  0  0  0  0  0  0
   34.1210   29.7120   49.8110 N   0  0  0  0  0  0  0  0  0  0  0  0
   34.7020   30.6800   49.1050 N   0  0  0  0  0  0  0  0  0  0  0  0
   39.8722   33.6984   47.6352 H   0  0  0  0  0  0  0  0  0  0  0  0
   39.1703   34.1322   49.9531 H   0  0  0  0  0  0  0  0  0  0  0  0
   37.9513   32.7736   42.8098 H   0  0  0  0  0  0  0  0  0  0  0  0
   41.4682   30.6256   44.0701 H   0  0  0  0  0  0  0  0  0  0  0  0
   41.0016   31.0805   41.6059 H   0  0  0  0  0  0  0  0  0  0  0  0
   39.5338   31.9739   41.1262 H   0  0  0  0  0  0  0  0  0  0  0  0
   37.1766   29.6118   50.9872 H   0  0  0  0  0  0  0  0  0  0  0  0
   34.8223   28.3143   51.3713 H   0  0  0  0  0  0  0  0  0  0  0  0
   33.1328   29.4352   49.7232 H   0  0  0  0  0  0  0  0  0  0  0  0
  1  6  1  0
  1  2  2  0
  2  3  1  0
  3  4  2  0
  5 14  1  0
  5  4  1  0
  6  5  2  0
  7 12  2  0
  8  7  1  0
  8  9  2  0
  9 10  1  0
 10 11  2  0
 11  1  1  0
 12 11  1  0
 13  8  1  0
 14 15  1  0
 15 16  2  0
 17 16  1  0
 18 14  2  0
 18 17  1  0
  2 19  1  0
  3 20  1  0
  7 21  1  0
  9 22  1  0
 13 23  1  0
 13 24  1  0
 15 25  1  0
 16 26  1  0
 17 27  1  0
M  ISO  7  19  14  20  14  21  14  22  14  25  14  26  14  27   9
M  END
>  <minimizedAffinity>  (1) 
-5.84446287

>  <minimizedRMSD>  (1) 
6.50089359

$$$$
