
     RDKit          3D

 31 33  0  0  1  0  0  0  0  0999 V2000
   33.2740   28.5120   47.5310 N   0  0  0  0  0  0  0  0  0  0  0  0
   34.2090   28.8380   48.5850 C   0  0  0  0  0  0  0  0  0  0  0  0
   34.9920   30.0960   48.3400 C   0  0  2  0  0  0  0  0  0  0  0  0
   35.3720   30.3310   47.0020 N   0  0  0  0  0  0  0  0  0  0  0  0
   34.2620   30.0950   46.0830 C   0  0  0  0  0  0  0  0  0  0  0  0
   33.9170   28.6320   46.2670 C   0  0  0  0  0  0  0  0  0  0  0  0
   31.9230   28.1350   47.7520 C   0  0  0  0  0  0  0  0  0  0  0  0
   30.9440   28.1580   46.7660 C   0  0  0  0  0  0  0  0  0  0  0  0
   29.6480   27.7710   47.0710 C   0  0  0  0  0  0  0  0  0  0  0  0
   29.3900   27.3760   48.3580 N   0  0  0  0  0  0  0  0  0  0  0  0
   30.3560   27.3600   49.3020 C   0  0  0  0  0  0  0  0  0  0  0  0
   31.6110   27.7360   49.0070 N   0  0  0  0  0  0  0  0  0  0  0  0
   36.1510   30.1360   49.2460 C   0  0  0  0  0  0  0  0  0  0  0  0
   36.8520   31.2720   49.6670 C   0  0  0  0  0  0  0  0  0  0  0  0
   37.8540   30.8030   50.5090 C   0  0  0  0  0  0  0  0  0  0  0  0
   37.7540   29.4700   50.5860 N   0  0  0  0  0  0  0  0  0  0  0  0
   36.7410   29.0720   49.8340 N   0  0  0  0  0  0  0  0  0  0  0  0
   33.6456   28.9583   49.5221 H   0  0  0  0  0  0  0  0  0  0  0  0
   34.9366   28.0143   48.6307 H   0  0  0  0  0  0  0  0  0  0  0  0
   34.3025   30.9248   48.5585 H   0  0  0  0  0  0  0  0  0  0  0  0
   35.6822   31.3087   46.9086 H   0  0  0  0  0  0  0  0  0  0  0  0
   34.5681   30.2941   45.0454 H   0  0  0  0  0  0  0  0  0  0  0  0
   33.4051   30.7541   46.2864 H   0  0  0  0  0  0  0  0  0  0  0  0
   33.2404   28.2998   45.4659 H   0  0  0  0  0  0  0  0  0  0  0  0
   34.8214   28.0072   46.2257 H   0  0  0  0  0  0  0  0  0  0  0  0
   31.1967   28.4825   45.7458 H   0  0  0  0  0  0  0  0  0  0  0  0
   28.8557   27.7806   46.3080 H   0  0  0  0  0  0  0  0  0  0  0  0
   30.1119   27.0352   50.3242 H   0  0  0  0  0  0  0  0  0  0  0  0
   36.6519   32.3175   49.3896 H   0  0  0  0  0  0  0  0  0  0  0  0
   38.6025   31.4224   51.0248 H   0  0  0  0  0  0  0  0  0  0  0  0
   38.3662   28.8546   51.1405 H   0  0  0  0  0  0  0  0  0  0  0  0
  1  7  1  0
  1  2  1  0
  3  2  1  0
  3 13  1  0
  4  3  1  0
  5  6  1  0
  5  4  1  0
  6  1  1  0
  7 12  2  0
  8  9  2  0
  8  7  1  0
  9 10  1  0
 10 11  2  0
 12 11  1  0
 13 14  1  0
 13 17  2  0
 14 15  2  0
 15 16  1  0
 17 16  1  0
  2 18  1  0
  2 19  1  0
  3 20  1  1
  4 21  1  0
  5 22  1  0
  5 23  1  0
  6 24  1  0
  6 25  1  0
  8 26  1  0
  9 27  1  0
 11 28  1  0
 14 29  1  0
 15 30  1  0
 16 31  1  0
M  ISO  8  18  13  19  13  20  13  21   5  22  13  23  13  24  13  25  13
M  ISO  6  26  14  27  14  28  14  29  14  30  14  31   9
M  END
>  <minimizedAffinity>  (1) 
-4.71187258

>  <minimizedRMSD>  (1) 
4.03518581

$$$$
