
     RDKit          3D

 18 19  0  0  0  0  0  0  0  0999 V2000
   36.9800   30.1220   50.8250 C   0  0  0  0  0  0  0  0  0  0  0  0
   36.6710   30.9460   49.7470 C   0  0  0  0  0  0  0  0  0  0  0  0
   35.3810   30.8570   49.2500 C   0  0  0  0  0  0  0  0  0  0  0  0
   34.4970   29.9960   49.8190 N   0  0  0  0  0  0  0  0  0  0  0  0
   34.8220   29.2060   50.8670 C   0  0  0  0  0  0  0  0  0  0  0  0
   36.0690   29.2720   51.3690 N   0  0  0  0  0  0  0  0  0  0  0  0
   37.6430   31.8590   49.1570 C   0  0  0  0  0  0  0  0  0  0  0  0
   37.8040   33.1750   49.5360 C   0  0  0  0  0  0  0  0  0  0  0  0
   38.8180   33.6690   48.7350 C   0  0  0  0  0  0  0  0  0  0  0  0
   39.2500   32.7000   47.9100 N   0  0  0  0  0  0  0  0  0  0  0  0
   38.5350   31.6160   48.1750 N   0  0  0  0  0  0  0  0  0  0  0  0
   38.2790   30.2590   51.2720 O   0  0  0  0  0  0  0  0  0  0  0  0
   35.0734   31.4810   48.3979 H   0  0  0  0  0  0  0  0  0  0  0  0
   34.0796   28.5208   51.3021 H   0  0  0  0  0  0  0  0  0  0  0  0
   37.2441   33.7177   50.3119 H   0  0  0  0  0  0  0  0  0  0  0  0
   39.2101   34.6962   48.7682 H   0  0  0  0  0  0  0  0  0  0  0  0
   39.9960   32.7840   47.2048 H   0  0  0  0  0  0  0  0  0  0  0  0
   38.8904   30.8987   50.8281 H   0  0  0  0  0  0  0  0  0  0  0  0
  1 12  1  0
  1  6  2  0
  2  1  1  0
  3  2  2  0
  3  4  1  0
  4  5  2  0
  5  6  1  0
  7  8  1  0
  7  2  1  0
  9  8  2  0
 10 11  1  0
 10  9  1  0
 11  7  2  0
  3 13  1  0
  5 14  1  0
  8 15  1  0
  9 16  1  0
 10 17  1  0
 12 18  1  0
M  ISO  6  13  14  14  14  15  14  16  14  17   9  18   3
M  END
>  <minimizedAffinity>  (1) 
-4.61920977

>  <minimizedRMSD>  (1) 
2.3311224

$$$$
