
     RDKit          3D

 44 48  0  0  0  0  0  0  0  0999 V2000
   39.2050   31.9150   44.9390 C   0  0  0  0  0  0  0  0  0  0  0  0
   38.1110   32.5530   45.0770 O   0  0  0  0  0  0  0  0  0  0  0  0
   39.9120   31.6600   46.1440 N   0  0  0  0  0  0  0  0  0  0  0  0
   39.0020   32.1660   42.5580 C   0  0  0  0  0  0  0  0  0  0  0  0
   39.6180   31.5200   43.6140 C   0  0  0  0  0  0  0  0  0  0  0  0
   40.5790   30.5460   43.4350 C   0  0  0  0  0  0  0  0  0  0  0  0
   40.9510   30.1910   42.1510 C   0  0  0  0  0  0  0  0  0  0  0  0
   41.8420   29.2920   41.6910 N   0  0  0  0  0  0  0  0  0  0  0  0
   41.7940   29.3660   40.3480 C   0  0  0  0  0  0  0  0  0  0  0  0
   40.8910   30.2920   39.9760 N   0  0  0  0  0  0  0  0  0  0  0  0
   40.3410   30.8310   41.0990 C   0  0  0  0  0  0  0  0  0  0  0  0
   39.3840   31.8010   41.2690 C   0  0  0  0  0  0  0  0  0  0  0  0
   38.7430   32.4730   40.1430 C   0  0  0  0  0  0  0  0  0  0  0  0
   37.9940   31.8870   39.1480 C   0  0  0  0  0  0  0  0  0  0  0  0
   37.6170   32.9530   38.3260 C   0  0  0  0  0  0  0  0  0  0  0  0
   38.1310   34.1140   38.8290 N   0  0  0  0  0  0  0  0  0  0  0  0
   38.8120   33.8000   39.9340 N   0  0  0  0  0  0  0  0  0  0  0  0
   38.0800   30.1550   47.4930 F   0  0  0  0  0  0  0  0  0  0  0  0
   38.3560   31.3890   47.9900 C   0  0  0  0  0  0  0  0  0  0  0  0
   37.7150   31.8140   49.1220 C   0  0  0  0  0  0  0  0  0  0  0  0
   38.0390   33.0680   49.5690 C   0  0  0  0  0  0  0  0  0  0  0  0
   38.9540   33.8850   48.9420 C   0  0  0  0  0  0  0  0  0  0  0  0
   39.5780   33.4170   47.8020 C   0  0  0  0  0  0  0  0  0  0  0  0
   39.2810   32.1670   47.3210 C   0  0  0  0  0  0  0  0  0  0  0  0
   36.0930   29.3470   51.4720 C   0  0  0  0  0  0  0  0  0  0  0  0
   37.0420   30.1980   50.8820 C   0  0  0  0  0  0  0  0  0  0  0  0
   36.7550   30.9230   49.7580 C   0  0  0  0  0  0  0  0  0  0  0  0
   35.4970   30.7800   49.2340 N   0  0  0  0  0  0  0  0  0  0  0  0
   34.5870   29.9680   49.7930 C   0  0  0  0  0  0  0  0  0  0  0  0
   34.8770   29.2670   50.8870 N   0  0  0  0  0  0  0  0  0  0  0  0
   40.8070   31.1508   46.1674 H   0  0  0  0  0  0  0  0  0  0  0  0
   38.2387   32.9393   42.7294 H   0  0  0  0  0  0  0  0  0  0  0  0
   41.0441   30.0573   44.3039 H   0  0  0  0  0  0  0  0  0  0  0  0
   42.4407   28.6716   42.2545 H   0  0  0  0  0  0  0  0  0  0  0  0
   42.4011   28.7610   39.6585 H   0  0  0  0  0  0  0  0  0  0  0  0
   37.7479   30.8217   39.0271 H   0  0  0  0  0  0  0  0  0  0  0  0
   37.0030   32.8698   37.4171 H   0  0  0  0  0  0  0  0  0  0  0  0
   38.0150   35.0566   38.4302 H   0  0  0  0  0  0  0  0  0  0  0  0
   37.5423   33.4421   50.4764 H   0  0  0  0  0  0  0  0  0  0  0  0
   39.1820   34.8851   49.3393 H   0  0  0  0  0  0  0  0  0  0  0  0
   40.3133   34.0468   47.2797 H   0  0  0  0  0  0  0  0  0  0  0  0
   36.3304   28.7674   52.3762 H   0  0  0  0  0  0  0  0  0  0  0  0
   38.0407   30.2836   51.3350 H   0  0  0  0  0  0  0  0  0  0  0  0
   33.5879   29.8803   49.3413 H   0  0  0  0  0  0  0  0  0  0  0  0
  1  2  2  0
  1  3  1  0
  3 24  1  0
  4  5  2  0
  5  1  1  0
  6  5  1  0
  7  6  2  0
  8  7  1  0
  9  8  1  0
 10  9  2  0
 10 11  1  0
 11 12  2  0
 11  7  1  0
 12  4  1  0
 13 12  1  0
 14 13  1  0
 15 16  1  0
 15 14  2  0
 16 17  1  0
 17 13  2  0
 18 19  1  0
 19 20  2  0
 20 21  1  0
 20 27  1  0
 22 21  2  0
 23 22  1  0
 24 23  2  0
 24 19  1  0
 26 25  2  0
 27 26  1  0
 28 27  2  0
 28 29  1  0
 29 30  2  0
 30 25  1  0
  3 31  1  0
  4 32  1  0
  6 33  1  0
  8 34  1  0
  9 35  1  0
 14 36  1  0
 15 37  1  0
 16 38  1  0
 21 39  1  0
 22 40  1  0
 23 41  1  0
 25 42  1  0
 26 43  1  0
 29 44  1  0
M  ISO  8  32  14  33  14  34   9  35  14  36  14  37  14  38   9  39  14
M  ISO  5  40  14  41  14  42  14  43  14  44  14
M  END
>  <minimizedAffinity>  (1) 
-7.43201876

>  <minimizedRMSD>  (1) 
0.251861334

$$$$
