
     RDKit          3D

 27 29  0  0  0  0  0  0  0  0999 V2000
   37.8290   31.9440   47.1240 C   0  0  0  0  0  0  0  0  0  0  0  0
   38.1240   31.8590   45.7480 C   0  0  0  0  0  0  0  0  0  0  0  0
   37.3710   30.9550   45.0000 C   0  0  0  0  0  0  0  0  0  0  0  0
   36.4010   30.2070   45.6170 N   0  0  0  0  0  0  0  0  0  0  0  0
   36.1550   30.3230   46.9390 C   0  0  0  0  0  0  0  0  0  0  0  0
   36.8740   31.1970   47.6950 N   0  0  0  0  0  0  0  0  0  0  0  0
   36.9630   29.4270   49.8350 Br  0  0  0  0  0  0  0  0  0  0  0  0
   35.3400   29.0730   48.9060 C   0  0  0  0  0  0  0  0  0  0  0  0
   35.1340   29.5440   47.6170 C   0  0  0  0  0  0  0  0  0  0  0  0
   33.9250   29.2460   47.0020 C   0  0  0  0  0  0  0  0  0  0  0  0
   32.9350   28.5050   47.6270 C   0  0  0  0  0  0  0  0  0  0  0  0
   33.1730   28.0540   48.9040 C   0  0  0  0  0  0  0  0  0  0  0  0
   34.3800   28.3430   49.5360 C   0  0  0  0  0  0  0  0  0  0  0  0
   38.5970   32.8820   47.9510 C   0  0  0  0  0  0  0  0  0  0  0  0
   38.4590   33.0680   49.3150 C   0  0  0  0  0  0  0  0  0  0  0  0
   39.3930   34.0440   49.6130 C   0  0  0  0  0  0  0  0  0  0  0  0
   40.0530   34.4270   48.5150 N   0  0  0  0  0  0  0  0  0  0  0  0
   39.5620   33.7190   47.5260 N   0  0  0  0  0  0  0  0  0  0  0  0
   38.9097   32.4757   45.2872 H   0  0  0  0  0  0  0  0  0  0  0  0
   37.5538   30.8423   43.9212 H   0  0  0  0  0  0  0  0  0  0  0  0
   33.7466   29.6121   45.9801 H   0  0  0  0  0  0  0  0  0  0  0  0
   31.9861   28.2839   47.1164 H   0  0  0  0  0  0  0  0  0  0  0  0
   32.4075   27.4630   49.4282 H   0  0  0  0  0  0  0  0  0  0  0  0
   34.5595   27.9764   50.5575 H   0  0  0  0  0  0  0  0  0  0  0  0
   37.7677   32.5585   50.0024 H   0  0  0  0  0  0  0  0  0  0  0  0
   39.5693   34.4510   50.6196 H   0  0  0  0  0  0  0  0  0  0  0  0
   40.7979   35.1361   48.4574 H   0  0  0  0  0  0  0  0  0  0  0  0
  1  6  1  0
  1 14  1  0
  2  1  2  0
  3  4  2  0
  3  2  1  0
  4  5  1  0
  5  9  1  0
  5  6  2  0
  8 13  2  0
  8  7  1  0
  9  8  1  0
 10  9  2  0
 10 11  1  0
 11 12  2  0
 12 13  1  0
 14 15  1  0
 15 16  2  0
 17 16  1  0
 18 14  2  0
 18 17  1  0
  2 19  1  0
  3 20  1  0
 10 21  1  0
 11 22  1  0
 12 23  1  0
 13 24  1  0
 15 25  1  0
 16 26  1  0
 17 27  1  0
M  ISO  8  19  14  20  14  21  14  22  14  23  14  24  14  25  14  26  14
M  ISO  1  27   9
M  END
>  <minimizedAffinity>  (1) 
-5.42562342

>  <minimizedRMSD>  (1) 
2.47643685

$$$$
