
     RDKit          3D

 38 42  0  0  1  0  0  0  0  0999 V2000
   32.3580   27.7130   48.3120 C   0  0  1  0  0  0  0  0  0  0  0  0
   33.3190   26.6540   47.6700 C   0  0  0  0  0  0  0  0  0  0  0  0
   33.1840   28.0320   47.1340 C   0  0  2  0  0  0  0  0  0  0  0  0
   28.7510   27.6530   48.4190 C   0  0  0  0  0  0  0  0  0  0  0  0
   28.9880   26.6740   47.4820 C   0  0  0  0  0  0  0  0  0  0  0  0
   30.3780   26.5590   47.3110 C   0  0  0  0  0  0  0  0  0  0  0  0
   30.9380   27.4620   48.1400 N   0  0  0  0  0  0  0  0  0  0  0  0
   29.9630   28.0700   48.7580 N   0  0  0  0  0  0  0  0  0  0  0  0
   27.0140   27.9720   50.2000 C   0  0  0  0  0  0  0  0  0  0  0  0
   27.4420   28.0550   48.8570 C   0  0  0  0  0  0  0  0  0  0  0  0
   26.5300   28.5540   47.9320 C   0  0  0  0  0  0  0  0  0  0  0  0
   25.2990   28.9280   48.3670 N   0  0  0  0  0  0  0  0  0  0  0  0
   24.9290   28.8330   49.6580 C   0  0  0  0  0  0  0  0  0  0  0  0
   25.7990   28.3490   50.5870 N   0  0  0  0  0  0  0  0  0  0  0  0
   34.3280   28.9950   47.2820 C   0  0  0  0  0  0  0  0  0  0  0  0
   34.7380   29.8700   46.2630 C   0  0  0  0  0  0  0  0  0  0  0  0
   35.7930   30.5820   46.7440 N   0  0  0  0  0  0  0  0  0  0  0  0
   36.0330   30.1690   48.0180 C   0  0  0  0  0  0  0  0  0  0  0  0
   35.1390   29.1980   48.3510 N   0  0  0  0  0  0  0  0  0  0  0  0
   37.1010   30.7230   48.8440 C   0  0  0  0  0  0  0  0  0  0  0  0
   37.6440   31.9840   48.7850 C   0  0  0  0  0  0  0  0  0  0  0  0
   38.6170   32.0420   49.7540 C   0  0  0  0  0  0  0  0  0  0  0  0
   38.6400   30.8250   50.3700 N   0  0  0  0  0  0  0  0  0  0  0  0
   37.7190   30.0380   49.8080 N   0  0  0  0  0  0  0  0  0  0  0  0
   32.2128   28.1817   49.2965 H   0  0  0  0  0  0  0  0  0  0  0  0
   34.2375   26.3476   48.1920 H   0  0  0  0  0  0  0  0  0  0  0  0
   33.2183   25.6351   47.2678 H   0  0  0  0  0  0  0  0  0  0  0  0
   32.9526   28.4315   46.1356 H   0  0  0  0  0  0  0  0  0  0  0  0
   28.2222   26.0836   46.9576 H   0  0  0  0  0  0  0  0  0  0  0  0
   30.9043   25.8691   46.6349 H   0  0  0  0  0  0  0  0  0  0  0  0
   27.7121   27.5807   50.9547 H   0  0  0  0  0  0  0  0  0  0  0  0
   26.8007   28.6437   46.8696 H   0  0  0  0  0  0  0  0  0  0  0  0
   23.9202   29.1475   49.9635 H   0  0  0  0  0  0  0  0  0  0  0  0
   34.2899   29.9625   45.2627 H   0  0  0  0  0  0  0  0  0  0  0  0
   36.3178   31.3064   46.2334 H   0  0  0  0  0  0  0  0  0  0  0  0
   37.3556   32.7911   48.0954 H   0  0  0  0  0  0  0  0  0  0  0  0
   39.2561   32.9060   49.9884 H   0  0  0  0  0  0  0  0  0  0  0  0
   39.2659   30.5568   51.1428 H   0  0  0  0  0  0  0  0  0  0  0  0
  2  1  1  0
  3 15  1  0
  3  2  1  0
  3  1  1  0
  4  8  2  0
  4 10  1  0
  5  4  1  0
  6  5  2  0
  6  7  1  0
  7  1  1  0
  7  8  1  0
  9 14  2  0
 10  9  1  0
 11 12  1  0
 11 10  2  0
 12 13  2  0
 13 14  1  0
 15 19  1  0
 16 17  1  0
 16 15  2  0
 17 18  1  0
 18 19  2  0
 18 20  1  0
 20 24  2  0
 21 20  1  0
 21 22  2  0
 22 23  1  0
 24 23  1  0
  1 25  1  1
  2 26  1  0
  2 27  1  0
  3 28  1  6
  5 29  1  0
  6 30  1  0
  9 31  1  0
 11 32  1  0
 13 33  1  0
 16 34  1  0
 17 35  1  0
 21 36  1  0
 22 37  1  0
 23 38  1  0
M  ISO  8  25  13  26  13  27  13  28  13  29  14  30  14  31  14  32  14
M  ISO  6  33  14  34  14  35   9  36  14  37  14  38   9
M  END
>  <minimizedAffinity>  (1) 
-6.4004221

>  <minimizedRMSD>  (1) 
5.36580276

$$$$
