
     RDKit          3D

 29 31  0  0  0  0  0  0  0  0999 V2000
   34.6550   28.8870   49.7710 C   0  0  0  0  0  0  0  0  0  0  0  0
   35.4190   29.5700   48.8210 C   0  0  0  0  0  0  0  0  0  0  0  0
   34.9590   29.5990   47.5040 C   0  0  0  0  0  0  0  0  0  0  0  0
   33.7860   28.9620   47.1850 N   0  0  0  0  0  0  0  0  0  0  0  0
   33.0870   28.3140   48.1500 C   0  0  0  0  0  0  0  0  0  0  0  0
   33.5000   28.2660   49.4280 N   0  0  0  0  0  0  0  0  0  0  0  0
   31.8640   27.6630   47.7560 N   0  0  0  0  0  0  0  0  0  0  0  0
   30.7310   28.3370   47.1720 C   0  0  0  0  0  0  0  0  0  0  0  0
   29.8530   27.2520   46.6520 C   0  0  0  0  0  0  0  0  0  0  0  0
   30.6220   25.9540   46.8200 C   0  0  0  0  0  0  0  0  0  0  0  0
   31.6040   26.2310   47.8940 C   0  0  0  0  0  0  0  0  0  0  0  0
   36.6560   30.2260   49.2230 C   0  0  0  0  0  0  0  0  0  0  0  0
   37.1070   31.4490   48.7770 C   0  0  0  0  0  0  0  0  0  0  0  0
   38.3180   31.6090   49.4610 C   0  0  0  0  0  0  0  0  0  0  0  0
   38.5570   30.5320   50.2630 N   0  0  0  0  0  0  0  0  0  0  0  0
   37.5290   29.7030   50.1000 N   0  0  0  0  0  0  0  0  0  0  0  0
   34.9970   28.8527   50.8159 H   0  0  0  0  0  0  0  0  0  0  0  0
   35.5317   30.1280   46.7280 H   0  0  0  0  0  0  0  0  0  0  0  0
   30.2015   28.9299   47.9323 H   0  0  0  0  0  0  0  0  0  0  0  0
   31.0340   29.0352   46.3778 H   0  0  0  0  0  0  0  0  0  0  0  0
   29.6260   27.4239   45.5895 H   0  0  0  0  0  0  0  0  0  0  0  0
   28.8973   27.2202   47.1957 H   0  0  0  0  0  0  0  0  0  0  0  0
   29.9454   25.1383   47.1148 H   0  0  0  0  0  0  0  0  0  0  0  0
   31.1078   25.6358   45.8858 H   0  0  0  0  0  0  0  0  0  0  0  0
   32.5248   25.6479   47.7451 H   0  0  0  0  0  0  0  0  0  0  0  0
   31.2355   25.9563   48.8934 H   0  0  0  0  0  0  0  0  0  0  0  0
   36.6315   32.1330   48.0586 H   0  0  0  0  0  0  0  0  0  0  0  0
   38.9828   32.4802   49.3652 H   0  0  0  0  0  0  0  0  0  0  0  0
   39.3731   30.3885   50.8748 H   0  0  0  0  0  0  0  0  0  0  0  0
  2 12  1  0
  2  1  2  0
  3  2  1  0
  4  3  2  0
  4  5  1  0
  5  6  2  0
  6  1  1  0
  7 11  1  0
  7  5  1  0
  8  7  1  0
  9 10  1  0
  9  8  1  0
 10 11  1  0
 12 16  2  0
 13 12  1  0
 13 14  2  0
 14 15  1  0
 16 15  1  0
  1 17  1  0
  3 18  1  0
  8 19  1  0
  8 20  1  0
  9 21  1  0
  9 22  1  0
 10 23  1  0
 10 24  1  0
 11 25  1  0
 11 26  1  0
 13 27  1  0
 14 28  1  0
 15 29  1  0
M  ISO  8  17  14  18  14  19  13  20  13  21  13  22  13  23  13  24  13
M  ISO  5  25  13  26  13  27  14  28  14  29   9
M  END
>  <minimizedAffinity>  (1) 
-4.92836428

>  <minimizedRMSD>  (1) 
5.14327574

$$$$
