
     RDKit          3D

 30 33  0  0  0  0  0  0  0  0999 V2000
   37.7950   32.8710   49.6130 C   0  0  0  0  0  0  0  0  0  0  0  0
   38.7510   32.9030   48.5780 C   0  0  0  0  0  0  0  0  0  0  0  0
   38.6100   31.9370   47.5620 C   0  0  0  0  0  0  0  0  0  0  0  0
   37.5880   31.0440   47.6260 N   0  0  0  0  0  0  0  0  0  0  0  0
   36.6980   31.0490   48.6330 C   0  0  0  0  0  0  0  0  0  0  0  0
   36.8000   31.9590   49.6240 N   0  0  0  0  0  0  0  0  0  0  0  0
   35.6480   29.0310   49.5690 C   0  0  0  0  0  0  0  0  0  0  0  0
   35.6210   30.0710   48.6550 C   0  0  0  0  0  0  0  0  0  0  0  0
   34.5790   30.1970   47.7520 C   0  0  0  0  0  0  0  0  0  0  0  0
   33.5410   29.2880   47.7440 C   0  0  0  0  0  0  0  0  0  0  0  0
   32.4270   29.1530   47.0110 N   0  0  0  0  0  0  0  0  0  0  0  0
   31.8110   28.0410   47.4990 C   0  0  0  0  0  0  0  0  0  0  0  0
   32.5280   27.5100   48.5000 N   0  0  0  0  0  0  0  0  0  0  0  0
   33.6100   28.2690   48.6730 C   0  0  0  0  0  0  0  0  0  0  0  0
   34.6270   28.1010   49.5910 C   0  0  0  0  0  0  0  0  0  0  0  0
   39.5440   31.8810   46.4440 C   0  0  0  0  0  0  0  0  0  0  0  0
   39.9960   32.9800   45.7410 C   0  0  0  0  0  0  0  0  0  0  0  0
   40.8720   32.5760   44.7440 C   0  0  0  0  0  0  0  0  0  0  0  0
   40.9280   31.2300   44.8690 N   0  0  0  0  0  0  0  0  0  0  0  0
   40.1530   30.8420   45.8590 N   0  0  0  0  0  0  0  0  0  0  0  0
   37.8611   33.6051   50.4295 H   0  0  0  0  0  0  0  0  0  0  0  0
   39.5645   33.6433   48.5641 H   0  0  0  0  0  0  0  0  0  0  0  0
   36.4840   28.9454   50.2787 H   0  0  0  0  0  0  0  0  0  0  0  0
   34.5787   31.0301   47.0338 H   0  0  0  0  0  0  0  0  0  0  0  0
   32.1058   29.7601   46.2434 H   0  0  0  0  0  0  0  0  0  0  0  0
   30.8594   27.6355   47.1248 H   0  0  0  0  0  0  0  0  0  0  0  0
   34.6245   27.2656   50.3066 H   0  0  0  0  0  0  0  0  0  0  0  0
   39.7047   34.0216   45.9417 H   0  0  0  0  0  0  0  0  0  0  0  0
   41.4018   33.2078   44.0158 H   0  0  0  0  0  0  0  0  0  0  0  0
   41.4925   30.6032   44.2780 H   0  0  0  0  0  0  0  0  0  0  0  0
  1  6  2  0
  2  1  1  0
  3  4  1  0
  3  2  2  0
  4  5  2  0
  5  8  1  0
  5  6  1  0
  7 15  2  0
  8  7  1  0
  9  8  2  0
 10  9  1  0
 10 14  2  0
 11 12  1  0
 11 10  1  0
 12 13  2  0
 13 14  1  0
 14 15  1  0
 16  3  1  0
 17 16  1  0
 18 19  1  0
 18 17  2  0
 19 20  1  0
 20 16  2  0
  1 21  1  0
  2 22  1  0
  7 23  1  0
  9 24  1  0
 11 25  1  0
 12 26  1  0
 15 27  1  0
 17 28  1  0
 18 29  1  0
 19 30  1  0
M  ISO  8  21  14  22  14  23  14  24  14  25   9  26  14  27  14  28  14
M  ISO  2  29  14  30   9
M  END
>  <minimizedAffinity>  (1) 
-6.80817986

>  <minimizedRMSD>  (1) 
1.89195585

$$$$
