
     RDKit          3D

 27 29  0  0  1  0  0  0  0  0999 V2000
   36.2210   31.0000   49.9450 C   0  0  1  0  0  0  0  0  0  0  0  0
   35.6820   29.6650   49.8340 C   0  0  1  0  0  0  0  0  0  0  0  0
   36.7350   29.9140   50.8900 C   0  0  0  0  0  0  0  0  0  0  0  0
   37.3130   31.4800   49.0040 C   0  0  0  0  0  0  0  0  0  0  0  0
   37.9160   32.6930   49.3420 C   0  0  0  0  0  0  0  0  0  0  0  0
   38.8980   33.1200   48.4480 C   0  0  0  0  0  0  0  0  0  0  0  0
   39.2210   32.3780   47.3300 N   0  0  0  0  0  0  0  0  0  0  0  0
   38.5890   31.2030   47.0620 C   0  0  0  0  0  0  0  0  0  0  0  0
   37.6220   30.7560   47.9190 N   0  0  0  0  0  0  0  0  0  0  0  0
   34.2490   29.4440   50.2370 C   0  0  0  0  0  0  0  0  0  0  0  0
   33.6610   28.4510   49.3000 C   0  0  0  0  0  0  0  0  0  0  0  0
   34.4570   27.7220   48.4140 C   0  0  0  0  0  0  0  0  0  0  0  0
   33.6040   26.8930   47.6920 C   0  0  0  0  0  0  0  0  0  0  0  0
   32.3540   27.1270   48.1370 N   0  0  0  0  0  0  0  0  0  0  0  0
   32.3880   28.0480   49.0890 N   0  0  0  0  0  0  0  0  0  0  0  0
   35.7167   31.9759   50.0027 H   0  0  0  0  0  0  0  0  0  0  0  0
   35.5904   28.9302   49.0206 H   0  0  0  0  0  0  0  0  0  0  0  0
   37.7502   29.5068   50.7739 H   0  0  0  0  0  0  0  0  0  0  0  0
   36.8190   29.7796   51.9785 H   0  0  0  0  0  0  0  0  0  0  0  0
   37.6394   33.2652   50.2398 H   0  0  0  0  0  0  0  0  0  0  0  0
   39.4252   34.0666   48.6378 H   0  0  0  0  0  0  0  0  0  0  0  0
   38.8528   30.6202   46.1672 H   0  0  0  0  0  0  0  0  0  0  0  0
   34.2050   29.0588   51.2664 H   0  0  0  0  0  0  0  0  0  0  0  0
   33.6884   30.3895   50.1961 H   0  0  0  0  0  0  0  0  0  0  0  0
   35.5497   27.7901   48.3072 H   0  0  0  0  0  0  0  0  0  0  0  0
   33.8953   26.1808   46.9060 H   0  0  0  0  0  0  0  0  0  0  0  0
   31.5030   26.6616   47.7905 H   0  0  0  0  0  0  0  0  0  0  0  0
  1  3  1  0
  2  1  1  0
  2 10  1  0
  2  3  1  0
  4  5  2  0
  4  1  1  0
  6  5  1  0
  7  6  2  0
  8  7  1  0
  8  9  2  0
  9  4  1  0
 11 10  1  0
 12 11  1  0
 13 14  1  0
 13 12  2  0
 14 15  1  0
 15 11  2  0
  1 16  1  1
  2 17  1  6
  3 18  1  0
  3 19  1  0
  5 20  1  0
  6 21  1  0
  8 22  1  0
 10 23  1  0
 10 24  1  0
 12 25  1  0
 13 26  1  0
 14 27  1  0
M  ISO  8  16  13  17  13  18  13  19  13  20  14  21  14  22  14  23   8
M  ISO  4  24   8  25  14  26  14  27   9
M  END
>  <minimizedAffinity>  (1) 
-5.18419409

>  <minimizedRMSD>  (1) 
1.8435787

$$$$
