
     RDKit          3D

 39 42  0  0  0  0  0  0  0  0999 V2000
   37.6900   30.2830   51.0380 C   0  0  0  0  0  0  0  0  0  0  0  0
   38.1570   30.8330   49.8340 C   0  0  0  0  0  0  0  0  0  0  0  0
   37.4370   30.5660   48.6850 C   0  0  0  0  0  0  0  0  0  0  0  0
   36.3490   29.8030   48.8060 N   0  0  0  0  0  0  0  0  0  0  0  0
   35.9070   29.2790   49.9650 C   0  0  0  0  0  0  0  0  0  0  0  0
   36.5880   29.5240   51.0870 N   0  0  0  0  0  0  0  0  0  0  0  0
   37.8150   31.0790   47.3870 C   0  0  0  0  0  0  0  0  0  0  0  0
   37.0870   30.7320   46.2560 C   0  0  0  0  0  0  0  0  0  0  0  0
   37.3970   31.1930   45.0020 C   0  0  0  0  0  0  0  0  0  0  0  0
   38.4600   32.0230   44.8500 N   0  0  0  0  0  0  0  0  0  0  0  0
   39.1470   32.3440   45.9510 C   0  0  0  0  0  0  0  0  0  0  0  0
   38.8650   31.9090   47.1890 N   0  0  0  0  0  0  0  0  0  0  0  0
   40.3140   33.2520   45.8170 C   0  0  0  0  0  0  0  0  0  0  0  0
   40.4070   34.0020   47.0100 F   0  0  0  0  0  0  0  0  0  0  0  0
   41.4610   32.5650   45.5650 F   0  0  0  0  0  0  0  0  0  0  0  0
   40.1070   34.2160   44.8420 F   0  0  0  0  0  0  0  0  0  0  0  0
   34.7570   28.5090   49.9040 O   0  0  0  0  0  0  0  0  0  0  0  0
   33.5930   26.7010   46.9200 N   0  0  0  0  0  0  0  0  0  0  0  0
   34.1360   26.8540   48.1370 C   0  0  0  0  0  0  0  0  0  0  0  0
   34.2380   28.1260   48.6820 C   0  0  0  0  0  0  0  0  0  0  0  0
   33.7730   29.2090   47.9500 C   0  0  0  0  0  0  0  0  0  0  0  0
   33.7680   30.4330   48.2540 O   0  0  0  0  0  0  0  0  0  0  0  0
   33.2310   28.9960   46.7210 N   0  0  0  0  0  0  0  0  0  0  0  0
   33.1380   27.7550   46.2010 C   0  0  0  0  0  0  0  0  0  0  0  0
   32.6450   27.5080   45.0690 O   0  0  0  0  0  0  0  0  0  0  0  0
   32.7250   30.0330   45.8840 C   0  0  0  0  0  0  0  0  0  0  0  0
   33.6260   30.5080   44.9480 C   0  0  0  0  0  0  0  0  0  0  0  0
   33.0040   31.4850   44.2320 N   0  0  0  0  0  0  0  0  0  0  0  0
   31.7380   31.6080   44.7210 C   0  0  0  0  0  0  0  0  0  0  0  0
   31.5720   30.7170   45.7330 N   0  0  0  0  0  0  0  0  0  0  0  0
   38.2447   30.4810   51.9670 H   0  0  0  0  0  0  0  0  0  0  0  0
   39.0641   31.4546   49.8060 H   0  0  0  0  0  0  0  0  0  0  0  0
   36.2249   30.0586   46.3710 H   0  0  0  0  0  0  0  0  0  0  0  0
   36.7931   30.8945   44.1324 H   0  0  0  0  0  0  0  0  0  0  0  0
   33.5199   25.7544   46.5206 H   0  0  0  0  0  0  0  0  0  0  0  0
   34.4971   25.9792   48.6977 H   0  0  0  0  0  0  0  0  0  0  0  0
   34.6596   30.1590   44.8073 H   0  0  0  0  0  0  0  0  0  0  0  0
   33.4152   32.0312   43.4616 H   0  0  0  0  0  0  0  0  0  0  0  0
   30.9760   32.3126   44.3564 H   0  0  0  0  0  0  0  0  0  0  0  0
  1  6  2  0
  2  1  1  0
  3  4  1  0
  3  2  2  0
  4  5  2  0
  5  6  1  0
  7  3  1  0
  8  7  2  0
  9  8  1  0
 10  9  2  0
 10 11  1  0
 11 12  2  0
 12  7  1  0
 13 11  1  0
 13 14  1  0
 15 13  1  0
 16 13  1  0
 17  5  1  0
 18 19  1  0
 19 20  2  0
 20 17  1  0
 21 22  2  0
 21 20  1  0
 23 21  1  0
 24 23  1  0
 24 18  1  0
 25 24  2  0
 26 23  1  0
 27 26  2  0
 28 29  1  0
 28 27  1  0
 29 30  2  0
 30 26  1  0
  1 31  1  0
  2 32  1  0
  8 33  1  0
  9 34  1  0
 18 35  1  0
 19 36  1  0
 27 37  1  0
 28 38  1  0
 29 39  1  0
M  ISO  8  31  14  32  14  33  14  34  14  35   9  36  14  37  14  38   9
M  ISO  1  39  14
M  END
>  <minimizedAffinity>  (1) 
-6.80790615

>  <minimizedRMSD>  (1) 
1.13379908

$$$$
