
     RDKit          3D

 39 42  0  0  1  0  0  0  0  0999 V2000
   38.4120   31.8310   44.5540 C   0  0  0  0  0  0  0  0  0  0  0  0
   37.3340   32.4310   44.4300 O   0  0  0  0  0  0  0  0  0  0  0  0
   38.9510   31.5280   45.8740 N   0  0  0  0  0  0  0  0  0  0  0  0
   39.2140   31.3890   43.3870 C   0  0  0  0  0  0  0  0  0  0  0  0
   40.2020   30.4610   43.5620 C   0  0  0  0  0  0  0  0  0  0  0  0
   40.9170   30.0920   42.4340 C   0  0  0  0  0  0  0  0  0  0  0  0
   40.6020   30.6660   41.2290 C   0  0  0  0  0  0  0  0  0  0  0  0
   39.6030   31.6040   41.0550 C   0  0  0  0  0  0  0  0  0  0  0  0
   38.9370   31.9310   42.1720 N   0  0  0  0  0  0  0  0  0  0  0  0
   39.3090   32.1820   39.7470 C   0  0  0  0  0  0  0  0  0  0  0  0
   38.6240   33.2310   39.7040 O   0  0  0  0  0  0  0  0  0  0  0  0
   39.8020   31.5530   38.5260 C   0  0  0  0  0  0  0  0  0  0  0  0
   39.1460   30.5550   37.8380 C   0  0  0  0  0  0  0  0  0  0  0  0
   39.9580   30.2820   36.7890 N   0  0  0  0  0  0  0  0  0  0  0  0
   41.0750   31.0640   36.8050 C   0  0  0  0  0  0  0  0  0  0  0  0
   40.9570   31.8580   37.9080 N   0  0  0  0  0  0  0  0  0  0  0  0
   38.4110   31.0840   48.2540 C   0  0  2  0  0  0  0  0  0  0  0  0
   38.6290   32.5500   48.1280 C   0  0  0  0  0  0  0  0  0  0  0  0
   38.0530   31.6500   46.9940 C   0  0  1  0  0  0  0  0  0  0  0  0
   35.0280   30.2280   49.5420 C   0  0  0  0  0  0  0  0  0  0  0  0
   35.3440   29.5860   50.7880 C   0  0  0  0  0  0  0  0  0  0  0  0
   36.7250   29.4730   51.1530 C   0  0  0  0  0  0  0  0  0  0  0  0
   37.6960   29.9710   50.3180 N   0  0  0  0  0  0  0  0  0  0  0  0
   37.3240   30.5620   49.1640 C   0  0  0  0  0  0  0  0  0  0  0  0
   36.0040   30.7060   48.7490 N   0  0  0  0  0  0  0  0  0  0  0  0
   39.9315   31.2391   46.0006 H   0  0  0  0  0  0  0  0  0  0  0  0
   40.4189   30.0283   44.5498 H   0  0  0  0  0  0  0  0  0  0  0  0
   41.7255   29.3495   42.5040 H   0  0  0  0  0  0  0  0  0  0  0  0
   41.1814   30.3602   40.3454 H   0  0  0  0  0  0  0  0  0  0  0  0
   38.1818   30.0866   38.0849 H   0  0  0  0  0  0  0  0  0  0  0  0
   39.7571   29.5728   36.0696 H   0  0  0  0  0  0  0  0  0  0  0  0
   41.9008   31.0562   36.0784 H   0  0  0  0  0  0  0  0  0  0  0  0
   39.0707   30.2538   48.5466 H   0  0  0  0  0  0  0  0  0  0  0  0
   37.9826   33.2615   48.6627 H   0  0  0  0  0  0  0  0  0  0  0  0
   39.4703   33.2484   48.2476 H   0  0  0  0  0  0  0  0  0  0  0  0
   37.1411   31.5794   46.3830 H   0  0  0  0  0  0  0  0  0  0  0  0
   33.9771   30.3297   49.2333 H   0  0  0  0  0  0  0  0  0  0  0  0
   34.5507   29.1936   51.4412 H   0  0  0  0  0  0  0  0  0  0  0  0
   37.0072   28.9887   52.0995 H   0  0  0  0  0  0  0  0  0  0  0  0
  1  3  1  0
  2  1  2  0
  3 19  1  0
  4  5  2  0
  4  1  1  0
  6  5  1  0
  7  6  2  0
  8  7  1  0
  8  9  2  0
  9  4  1  0
 10  8  1  0
 11 10  2  0
 12 10  1  0
 13 12  2  0
 14 15  1  0
 14 13  1  0
 15 16  2  0
 16 12  1  0
 17 24  1  0
 18 17  1  0
 19 18  1  0
 19 17  1  0
 20 21  2  0
 21 22  1  0
 23 22  2  0
 24 23  1  0
 25 24  2  0
 25 20  1  0
  3 26  1  0
  5 27  1  0
  6 28  1  0
  7 29  1  0
 13 30  1  0
 14 31  1  0
 15 32  1  0
 17 33  1  6
 18 34  1  0
 18 35  1  0
 19 36  1  6
 20 37  1  0
 21 38  1  0
 22 39  1  0
M  ISO  8  27  14  28  14  29  14  30  14  31   9  32  14  33  13  34  13
M  ISO  5  35  13  36  13  37  14  38  14  39  14
M  END
>  <minimizedAffinity>  (1) 
-4.93964767

>  <minimizedRMSD>  (1) 
0.707519829

$$$$
