
     RDKit          3D

 39 43  0  0  0  0  0  0  0  0999 V2000
   35.7660   29.1950   49.8520 C   0  0  0  0  0  0  0  0  0  0  0  0
   34.7060   29.6970   50.5510 C   0  0  0  0  0  0  0  0  0  0  0  0
   33.5510   29.0930   50.0400 C   0  0  0  0  0  0  0  0  0  0  0  0
   33.9980   28.2420   49.0370 C   0  0  0  0  0  0  0  0  0  0  0  0
   35.2950   28.3520   48.9820 O   0  0  0  0  0  0  0  0  0  0  0  0
   33.5370   26.4520   47.3640 C   0  0  0  0  0  0  0  0  0  0  0  0
   33.0980   27.4110   48.2380 C   0  0  0  0  0  0  0  0  0  0  0  0
   31.7410   27.6560   48.4170 C   0  0  0  0  0  0  0  0  0  0  0  0
   30.8330   26.9020   47.6850 C   0  0  0  0  0  0  0  0  0  0  0  0
   29.4960   26.9170   47.6510 N   0  0  0  0  0  0  0  0  0  0  0  0
   29.1080   25.9860   46.7710 N   0  0  0  0  0  0  0  0  0  0  0  0
   30.2100   25.3900   46.2580 C   0  0  0  0  0  0  0  0  0  0  0  0
   31.3250   25.9510   46.8200 C   0  0  0  0  0  0  0  0  0  0  0  0
   32.6710   25.6950   46.6310 C   0  0  0  0  0  0  0  0  0  0  0  0
   37.1300   29.6130   50.1290 C   0  0  0  0  0  0  0  0  0  0  0  0
   37.7460   29.0880   51.0760 O   0  0  0  0  0  0  0  0  0  0  0  0
   37.6960   30.6330   49.2700 C   0  0  0  0  0  0  0  0  0  0  0  0
   37.6830   31.9410   49.7450 C   0  0  0  0  0  0  0  0  0  0  0  0
   38.2180   32.9610   48.9510 C   0  0  0  0  0  0  0  0  0  0  0  0
   38.7300   32.5930   47.7340 N   0  0  0  0  0  0  0  0  0  0  0  0
   38.7340   31.3340   47.2960 C   0  0  0  0  0  0  0  0  0  0  0  0
   38.2160   30.3630   48.0690 N   0  0  0  0  0  0  0  0  0  0  0  0
   39.2820   30.9600   45.9960 C   0  0  0  0  0  0  0  0  0  0  0  0
   40.5730   31.2710   45.5940 C   0  0  0  0  0  0  0  0  0  0  0  0
   40.7140   30.7640   44.3410 N   0  0  0  0  0  0  0  0  0  0  0  0
   39.5650   30.1480   43.9460 C   0  0  0  0  0  0  0  0  0  0  0  0
   38.6950   30.2780   44.9740 N   0  0  0  0  0  0  0  0  0  0  0  0
   34.7511   30.4373   51.3634 H   0  0  0  0  0  0  0  0  0  0  0  0
   32.5125   29.2570   50.3633 H   0  0  0  0  0  0  0  0  0  0  0  0
   34.6187   26.2877   47.2501 H   0  0  0  0  0  0  0  0  0  0  0  0
   31.3954   28.4276   49.1207 H   0  0  0  0  0  0  0  0  0  0  0  0
   28.8787   27.5316   48.2006 H   0  0  0  0  0  0  0  0  0  0  0  0
   30.2095   24.5840   45.5094 H   0  0  0  0  0  0  0  0  0  0  0  0
   33.0231   24.9245   45.9293 H   0  0  0  0  0  0  0  0  0  0  0  0
   37.2571   32.1701   50.7330 H   0  0  0  0  0  0  0  0  0  0  0  0
   38.2273   34.0083   49.2873 H   0  0  0  0  0  0  0  0  0  0  0  0
   41.3309   31.8185   46.1736 H   0  0  0  0  0  0  0  0  0  0  0  0
   41.5687   30.8354   43.7707 H   0  0  0  0  0  0  0  0  0  0  0  0
   39.3814   29.6459   42.9846 H   0  0  0  0  0  0  0  0  0  0  0  0
  1 15  1  0
  1  2  2  0
  3  2  1  0
  4  3  2  0
  5  4  1  0
  5  1  1  0
  6  7  2  0
  7  8  1  0
  7  4  1  0
  9  8  2  0
 10  9  1  0
 11 10  1  0
 12 11  2  0
 12 13  1  0
 13  9  1  0
 14 13  2  0
 14  6  1  0
 15 16  2  0
 17 18  2  0
 17 15  1  0
 19 18  1  0
 20 19  2  0
 21 20  1  0
 21 22  2  0
 22 17  1  0
 23 21  1  0
 24 23  2  0
 25 24  1  0
 26 25  1  0
 26 27  2  0
 27 23  1  0
  2 28  1  0
  3 29  1  0
  6 30  1  0
  8 31  1  0
 10 32  1  0
 12 33  1  0
 14 34  1  0
 18 35  1  0
 19 36  1  0
 24 37  1  0
 25 38  1  0
 26 39  1  0
M  ISO  8  28  14  29  14  30  14  31  14  32   9  33  14  34  14  35  14
M  ISO  4  36  14  37  14  38   9  39  14
M  END
>  <minimizedAffinity>  (1) 
-6.89319324

>  <minimizedRMSD>  (1) 
0.519595981

$$$$
