
     RDKit          3D

 41 44  0  0  0  0  0  0  0  0999 V2000
   35.5900   29.6070   48.4890 C   0  0  0  0  0  0  0  0  0  0  0  0
   35.3530   28.7460   49.4980 C   0  0  0  0  0  0  0  0  0  0  0  0
   34.5010   27.7260   49.3590 C   0  0  0  0  0  0  0  0  0  0  0  0
   33.8620   27.5590   48.1690 N   0  0  0  0  0  0  0  0  0  0  0  0
   34.1000   28.4100   47.1790 C   0  0  0  0  0  0  0  0  0  0  0  0
   34.9570   29.4360   47.3170 N   0  0  0  0  0  0  0  0  0  0  0  0
   32.0170   27.8880   45.9900 C   0  0  0  0  0  0  0  0  0  0  0  0
   33.3900   28.1280   45.9530 C   0  0  0  0  0  0  0  0  0  0  0  0
   34.1520   28.0920   44.8010 C   0  0  0  0  0  0  0  0  0  0  0  0
   33.5370   27.8010   43.6020 C   0  0  0  0  0  0  0  0  0  0  0  0
   32.1840   27.5480   43.5440 C   0  0  0  0  0  0  0  0  0  0  0  0
   31.5210   27.6070   44.7250 C   0  0  0  0  0  0  0  0  0  0  0  0
   31.0630   27.9460   47.3570 S   0  0  0  0  0  0  0  0  0  0  0  0
   30.2110   26.6720   47.0420 O   0  0  0  0  0  0  0  0  0  0  0  0
   30.1750   29.1570   47.2290 O   0  0  0  0  0  0  0  0  0  0  0  0
   30.7970   27.6720   48.9080 C   0  0  0  0  0  0  0  0  0  0  0  0
   30.2980   26.4680   49.4450 F   0  0  0  0  0  0  0  0  0  0  0  0
   29.5560   28.3540   49.3220 F   0  0  0  0  0  0  0  0  0  0  0  0
   31.4470   28.4330   49.9230 F   0  0  0  0  0  0  0  0  0  0  0  0
   37.3540   32.5940   49.6830 C   0  0  0  0  0  0  0  0  0  0  0  0
   38.3560   32.7690   48.7080 C   0  0  0  0  0  0  0  0  0  0  0  0
   38.3960   31.8470   47.6580 C   0  0  0  0  0  0  0  0  0  0  0  0
   37.4720   30.8550   47.6520 N   0  0  0  0  0  0  0  0  0  0  0  0
   36.5160   30.7170   48.6140 C   0  0  0  0  0  0  0  0  0  0  0  0
   36.4670   31.5900   49.6240 N   0  0  0  0  0  0  0  0  0  0  0  0
   39.3740   31.9090   46.5880 C   0  0  0  0  0  0  0  0  0  0  0  0
   39.9180   33.0800   46.0730 C   0  0  0  0  0  0  0  0  0  0  0  0
   40.7870   32.7550   45.0950 N   0  0  0  0  0  0  0  0  0  0  0  0
   40.8060   31.3960   44.9790 C   0  0  0  0  0  0  0  0  0  0  0  0
   39.9440   30.9130   45.8920 N   0  0  0  0  0  0  0  0  0  0  0  0
   35.8724   28.8859   50.4575 H   0  0  0  0  0  0  0  0  0  0  0  0
   34.3190   27.0324   50.1931 H   0  0  0  0  0  0  0  0  0  0  0  0
   35.2329   28.2925   44.8400 H   0  0  0  0  0  0  0  0  0  0  0  0
   34.1347   27.7704   42.6791 H   0  0  0  0  0  0  0  0  0  0  0  0
   31.6735   27.3128   42.5984 H   0  0  0  0  0  0  0  0  0  0  0  0
   30.4411   27.4042   44.6733 H   0  0  0  0  0  0  0  0  0  0  0  0
   37.2974   33.3048   50.5206 H   0  0  0  0  0  0  0  0  0  0  0  0
   39.0772   33.5972   48.7705 H   0  0  0  0  0  0  0  0  0  0  0  0
   39.6794   34.1004   46.4074 H   0  0  0  0  0  0  0  0  0  0  0  0
   41.3403   33.4176   44.5331 H   0  0  0  0  0  0  0  0  0  0  0  0
   41.4108   30.8073   44.2735 H   0  0  0  0  0  0  0  0  0  0  0  0
  1 24  1  0
  1  2  2  0
  3  2  1  0
  4  3  2  0
  5  6  2  0
  5  4  1  0
  6  1  1  0
  7 13  1  0
  8  7  2  0
  8  5  1  0
  9  8  1  0
 10  9  2  0
 11 10  1  0
 11 12  2  0
 12  7  1  0
 13 16  1  0
 14 13  2  0
 15 13  2  0
 16 18  1  0
 16 17  1  0
 16 19  1  0
 21 20  2  0
 22 21  1  0
 23 22  2  0
 23 24  1  0
 24 25  2  0
 25 20  1  0
 26 22  1  0
 27 26  2  0
 28 27  1  0
 29 28  1  0
 29 30  2  0
 30 26  1  0
  2 31  1  0
  3 32  1  0
  9 33  1  0
 10 34  1  0
 11 35  1  0
 12 36  1  0
 20 37  1  0
 21 38  1  0
 27 39  1  0
 28 40  1  0
 29 41  1  0
M  ISO  8  31  14  32  14  33  14  34  14  35  14  36  14  37  14  38  14
M  ISO  3  39  14  40   9  41  14
M  END
>  <minimizedAffinity>  (1) 
-6.40119314

>  <minimizedRMSD>  (1) 
0.526301622

$$$$
