
     RDKit          3D

 46 50  0  0  1  0  0  0  0  0999 V2000
   36.3480   30.5540   44.5430 C   0  0  1  0  0  0  0  0  0  0  0  0
   37.4270   31.2330   45.3040 C   0  0  0  0  0  0  0  0  0  0  0  0
   37.6920   29.8390   45.0120 C   0  0  2  0  0  0  0  0  0  0  0  0
   38.7680   29.7040   43.9720 C   0  0  0  0  0  0  0  0  0  0  0  0
   39.6740   30.7580   44.0640 C   0  0  0  0  0  0  0  0  0  0  0  0
   40.7960   30.7760   43.2780 C   0  0  0  0  0  0  0  0  0  0  0  0
   41.0570   29.7410   42.3710 C   0  0  0  0  0  0  0  0  0  0  0  0
   40.1380   28.7020   42.3020 C   0  0  0  0  0  0  0  0  0  0  0  0
   40.2750   27.6420   41.4520 C   0  0  0  0  0  0  0  0  0  0  0  0
   39.3710   26.6150   41.3640 C   0  0  0  0  0  0  0  0  0  0  0  0
   38.2510   26.6520   42.1850 C   0  0  0  0  0  0  0  0  0  0  0  0
   38.1060   27.7160   43.0450 C   0  0  0  0  0  0  0  0  0  0  0  0
   39.0470   28.7300   43.0970 C   0  0  0  0  0  0  0  0  0  0  0  0
   32.9280   29.2370   45.4420 C   0  0  0  0  0  0  0  0  0  0  0  0
   34.0410   29.6810   44.6710 C   0  0  0  0  0  0  0  0  0  0  0  0
   35.1730   30.0770   45.3190 C   0  0  0  0  0  0  0  0  0  0  0  0
   35.1450   30.0120   46.6980 N   0  0  0  0  0  0  0  0  0  0  0  0
   34.0960   29.5950   47.4070 C   0  0  0  0  0  0  0  0  0  0  0  0
   32.9690   29.2000   46.7980 N   0  0  0  0  0  0  0  0  0  0  0  0
   34.2300   29.5910   48.9150 C   0  0  0  0  0  0  0  0  0  0  0  0
   35.3800   28.6410   49.2560 C   0  0  0  0  0  0  0  0  0  0  0  0
   36.4160   29.2980   50.0600 C   0  0  0  0  0  0  0  0  0  0  0  0
   37.5930   29.9170   49.6260 C   0  0  0  0  0  0  0  0  0  0  0  0
   38.1730   30.3490   50.7580 N   0  0  0  0  0  0  0  0  0  0  0  0
   37.4690   30.0590   51.8580 C   0  0  0  0  0  0  0  0  0  0  0  0
   36.3960   29.4130   51.3940 N   0  0  0  0  0  0  0  0  0  0  0  0
   35.8022   30.7725   43.6133 H   0  0  0  0  0  0  0  0  0  0  0  0
   38.0276   32.0064   44.8029 H   0  0  0  0  0  0  0  0  0  0  0  0
   37.4252   31.8076   46.2420 H   0  0  0  0  0  0  0  0  0  0  0  0
   37.9098   28.9121   45.5627 H   0  0  0  0  0  0  0  0  0  0  0  0
   39.4877   31.5798   44.7711 H   0  0  0  0  0  0  0  0  0  0  0  0
   41.5021   31.6154   43.3604 H   0  0  0  0  0  0  0  0  0  0  0  0
   41.9560   29.7508   41.7372 H   0  0  0  0  0  0  0  0  0  0  0  0
   41.1610   27.6104   40.8009 H   0  0  0  0  0  0  0  0  0  0  0  0
   39.5285   25.7833   40.6615 H   0  0  0  0  0  0  0  0  0  0  0  0
   37.4987   25.8504   42.1484 H   0  0  0  0  0  0  0  0  0  0  0  0
   37.2261   27.7618   43.7035 H   0  0  0  0  0  0  0  0  0  0  0  0
   32.0118   28.9159   44.9247 H   0  0  0  0  0  0  0  0  0  0  0  0
   33.9877   29.7038   43.5725 H   0  0  0  0  0  0  0  0  0  0  0  0
   34.4564   30.6046   49.2774 H   0  0  0  0  0  0  0  0  0  0  0  0
   33.2945   29.2645   49.3928 H   0  0  0  0  0  0  0  0  0  0  0  0
   34.9793   27.7873   49.8222 H   0  0  0  0  0  0  0  0  0  0  0  0
   35.8400   28.3122   48.3124 H   0  0  0  0  0  0  0  0  0  0  0  0
   37.9595   30.0252   48.5945 H   0  0  0  0  0  0  0  0  0  0  0  0
   39.0708   30.8535   50.7772 H   0  0  0  0  0  0  0  0  0  0  0  0
   37.7166   30.2974   52.9029 H   0  0  0  0  0  0  0  0  0  0  0  0
  1  3  1  0
  1  2  1  0
  1 16  1  0
  3  2  1  0
  4  5  2  0
  4  3  1  0
  6  5  1  0
  7  6  2  0
  8  7  1  0
  8 13  2  0
  9  8  1  0
 10  9  2  0
 10 11  1  0
 11 12  2  0
 12 13  1  0
 13  4  1  0
 14 19  2  0
 15 16  2  0
 15 14  1  0
 16 17  1  0
 17 18  2  0
 18 20  1  0
 19 18  1  0
 20 21  1  0
 21 22  1  0
 22 26  1  0
 23 22  2  0
 23 24  1  0
 24 25  1  0
 26 25  2  0
  1 27  1  6
  2 28  1  0
  2 29  1  0
  3 30  1  1
  5 31  1  0
  6 32  1  0
  7 33  1  0
  9 34  1  0
 10 35  1  0
 11 36  1  0
 12 37  1  0
 14 38  1  0
 15 39  1  0
 20 40  1  0
 20 41  1  0
 21 42  1  0
 21 43  1  0
 23 44  1  0
 24 45  1  0
 25 46  1  0
M  ISO  8  27  13  28  13  29  13  30  13  31  14  32  14  33  14  34  14
M  ISO  8  35  14  36  14  37  14  38  14  39  14  40   8  41   8  42   8
M  ISO  4  43   8  44  14  45   9  46  14
M  END
>  <minimizedAffinity>  (1) 
-5.60558796

>  <minimizedRMSD>  (1) 
3.27547169

$$$$
