
     RDKit          3D

 45 48  0  0  0  0  0  0  0  0999 V2000
   34.3890   28.2470   48.2830 C   0  0  0  0  0  0  0  0  0  0  0  0
   33.2280   27.3000   48.2590 C   0  0  0  0  0  0  0  0  0  0  0  0
   32.0140   27.9000   47.6370 C   0  0  0  0  0  0  0  0  0  0  0  0
   30.8260   27.8310   48.3420 C   0  0  0  0  0  0  0  0  0  0  0  0
   29.6500   28.3540   47.8530 C   0  0  0  0  0  0  0  0  0  0  0  0
   29.6590   28.9490   46.6540 N   0  0  0  0  0  0  0  0  0  0  0  0
   30.8430   29.0060   45.9720 C   0  0  0  0  0  0  0  0  0  0  0  0
   31.9960   28.5050   46.4280 N   0  0  0  0  0  0  0  0  0  0  0  0
   30.7760   29.6830   44.6440 C   0  0  0  0  0  0  0  0  0  0  0  0
   30.9760   31.1440   44.7310 C   0  0  0  0  0  0  0  0  0  0  0  0
   32.0040   31.7410   45.4340 C   0  0  0  0  0  0  0  0  0  0  0  0
   31.9190   33.0760   45.3270 N   0  0  0  0  0  0  0  0  0  0  0  0
   30.8290   33.3480   44.5500 C   0  0  0  0  0  0  0  0  0  0  0  0
   30.2790   32.1470   44.2050 N   0  0  0  0  0  0  0  0  0  0  0  0
   34.3090   29.1020   49.4250 O   0  0  0  0  0  0  0  0  0  0  0  0
   37.0430   29.8310   51.6710 C   0  0  0  0  0  0  0  0  0  0  0  0
   37.8930   30.5520   50.8060 C   0  0  0  0  0  0  0  0  0  0  0  0
   37.4710   30.7450   49.4900 C   0  0  0  0  0  0  0  0  0  0  0  0
   36.2570   30.2080   49.1680 N   0  0  0  0  0  0  0  0  0  0  0  0
   35.4640   29.5270   50.0060 C   0  0  0  0  0  0  0  0  0  0  0  0
   35.8780   29.3440   51.2730 N   0  0  0  0  0  0  0  0  0  0  0  0
   38.6350   33.3880   49.6240 F   0  0  0  0  0  0  0  0  0  0  0  0
   38.7540   32.6760   48.5070 C   0  0  0  0  0  0  0  0  0  0  0  0
   38.2020   31.4510   48.4730 C   0  0  0  0  0  0  0  0  0  0  0  0
   38.3860   30.7930   47.2560 C   0  0  0  0  0  0  0  0  0  0  0  0
   39.0610   31.3370   46.1940 C   0  0  0  0  0  0  0  0  0  0  0  0
   39.6060   32.6020   46.2850 C   0  0  0  0  0  0  0  0  0  0  0  0
   39.4380   33.2650   47.4730 C   0  0  0  0  0  0  0  0  0  0  0  0
   34.3762   28.8597   47.3695 H   0  0  0  0  0  0  0  0  0  0  0  0
   35.3223   27.6671   48.3353 H   0  0  0  0  0  0  0  0  0  0  0  0
   33.5136   26.4065   47.6845 H   0  0  0  0  0  0  0  0  0  0  0  0
   32.9801   27.0492   49.3009 H   0  0  0  0  0  0  0  0  0  0  0  0
   30.8206   27.3415   49.3271 H   0  0  0  0  0  0  0  0  0  0  0  0
   28.7203   28.2842   48.4368 H   0  0  0  0  0  0  0  0  0  0  0  0
   29.7876   29.4901   44.2015 H   0  0  0  0  0  0  0  0  0  0  0  0
   31.5891   29.2755   44.0252 H   0  0  0  0  0  0  0  0  0  0  0  0
   32.7786   31.2015   45.9987 H   0  0  0  0  0  0  0  0  0  0  0  0
   32.5558   33.7657   45.7510 H   0  0  0  0  0  0  0  0  0  0  0  0
   30.4642   34.3439   44.2582 H   0  0  0  0  0  0  0  0  0  0  0  0
   37.3591   29.6679   52.7119 H   0  0  0  0  0  0  0  0  0  0  0  0
   38.8568   30.9490   51.1575 H   0  0  0  0  0  0  0  0  0  0  0  0
   37.9664   29.7825   47.1427 H   0  0  0  0  0  0  0  0  0  0  0  0
   39.1691   30.7614   45.2628 H   0  0  0  0  0  0  0  0  0  0  0  0
   40.1496   33.0567   45.4437 H   0  0  0  0  0  0  0  0  0  0  0  0
   39.8540   34.2755   47.5984 H   0  0  0  0  0  0  0  0  0  0  0  0
  1 15  1  0
  2  1  1  0
  3  2  1  0
  3  4  2  0
  5  4  1  0
  6  5  2  0
  7  8  2  0
  7  6  1  0
  8  3  1  0
  9 10  1  0
  9  7  1  0
 10 11  2  0
 12 11  1  0
 13 12  1  0
 14 13  2  0
 14 10  1  0
 15 20  1  0
 17 16  2  0
 18 17  1  0
 19 18  2  0
 19 20  1  0
 20 21  2  0
 21 16  1  0
 23 22  1  0
 24 23  2  0
 24 18  1  0
 25 24  1  0
 26 27  1  0
 26 25  2  0
 27 28  2  0
 28 23  1  0
  1 29  1  0
  1 30  1  0
  2 31  1  0
  2 32  1  0
  4 33  1  0
  5 34  1  0
  9 35  1  0
  9 36  1  0
 11 37  1  0
 12 38  1  0
 13 39  1  0
 16 40  1  0
 17 41  1  0
 25 42  1  0
 26 43  1  0
 27 44  1  0
 28 45  1  0
M  ISO  8  29   8  30   8  31   8  32   8  33  14  34  14  35   8  36   8
M  ISO  8  37  14  38   9  39  14  40  14  41  14  42  14  43  14  44  14
M  ISO  1  45  14
M  END
>  <minimizedAffinity>  (1) 
-6.51144171

>  <minimizedRMSD>  (1) 
1.21052074

$$$$
