
     RDKit          3D

 45 48  0  0  1  0  0  0  0  0999 V2000
   35.3550   30.3370   49.9240 C   0  0  2  0  0  0  0  0  0  0  0  0
   36.2660   31.3390   49.3880 C   0  0  0  0  0  0  0  0  0  0  0  0
   37.7540   30.8810   49.4340 C   0  0  2  0  0  0  0  0  0  0  0  0
   38.2170   30.5610   50.7640 C   0  0  0  0  0  0  0  0  0  0  0  0
   37.1790   29.8310   51.6180 C   0  0  0  0  0  0  0  0  0  0  0  0
   36.0760   29.2780   50.7680 C   0  0  0  0  0  0  0  0  0  0  0  0
   38.6010   30.6260   46.6190 Cl  0  0  0  0  0  0  0  0  0  0  0  0
   38.9710   32.0300   47.5820 C   0  0  0  0  0  0  0  0  0  0  0  0
   38.4890   32.0500   48.8680 C   0  0  0  0  0  0  0  0  0  0  0  0
   38.8000   33.2140   49.5530 C   0  0  0  0  0  0  0  0  0  0  0  0
   39.5250   34.2530   49.0030 C   0  0  0  0  0  0  0  0  0  0  0  0
   39.9800   34.1520   47.6880 C   0  0  0  0  0  0  0  0  0  0  0  0
   39.6910   33.0000   46.9580 C   0  0  0  0  0  0  0  0  0  0  0  0
   40.1530   32.8960   45.6210 N   0  0  0  0  0  0  0  0  0  0  0  0
   34.5340   29.6140   48.9570 C   0  0  0  0  0  0  0  0  0  0  0  0
   35.0620   29.5860   47.6760 C   0  0  0  0  0  0  0  0  0  0  0  0
   34.3720   28.9000   46.6810 C   0  0  0  0  0  0  0  0  0  0  0  0
   33.1730   28.2690   47.0270 N   0  0  0  0  0  0  0  0  0  0  0  0
   32.6990   28.3210   48.2770 C   0  0  0  0  0  0  0  0  0  0  0  0
   33.3950   28.9920   49.2040 N   0  0  0  0  0  0  0  0  0  0  0  0
   31.4490   27.6650   48.6420 C   0  0  0  0  0  0  0  0  0  0  0  0
   30.7270   26.6390   48.0780 C   0  0  0  0  0  0  0  0  0  0  0  0
   29.6490   26.4710   48.8690 N   0  0  0  0  0  0  0  0  0  0  0  0
   29.6530   27.3360   49.8960 C   0  0  0  0  0  0  0  0  0  0  0  0
   30.7780   28.0800   49.7520 N   0  0  0  0  0  0  0  0  0  0  0  0
   34.6833   30.9638   50.5290 H   0  0  0  0  0  0  0  0  0  0  0  0
   36.1627   32.2611   49.9788 H   0  0  0  0  0  0  0  0  0  0  0  0
   35.9997   31.5012   48.3331 H   0  0  0  0  0  0  0  0  0  0  0  0
   37.9093   29.9466   48.8748 H   0  0  0  0  0  0  0  0  0  0  0  0
   39.1073   29.9208   50.6770 H   0  0  0  0  0  0  0  0  0  0  0  0
   38.4333   31.5150   51.2670 H   0  0  0  0  0  0  0  0  0  0  0  0
   37.6701   29.0044   52.1523 H   0  0  0  0  0  0  0  0  0  0  0  0
   36.7457   30.5478   52.3310 H   0  0  0  0  0  0  0  0  0  0  0  0
   35.3376   28.7980   51.4270 H   0  0  0  0  0  0  0  0  0  0  0  0
   36.5376   28.5682   50.0658 H   0  0  0  0  0  0  0  0  0  0  0  0
   38.4505   33.3159   50.5910 H   0  0  0  0  0  0  0  0  0  0  0  0
   39.7419   35.1530   49.5971 H   0  0  0  0  0  0  0  0  0  0  0  0
   40.5586   34.9698   47.2336 H   0  0  0  0  0  0  0  0  0  0  0  0
   40.6948   33.6653   45.2020 H   0  0  0  0  0  0  0  0  0  0  0  0
   39.9466   32.0512   45.0691 H   0  0  0  0  0  0  0  0  0  0  0  0
   36.0095   30.0969   47.4497 H   0  0  0  0  0  0  0  0  0  0  0  0
   34.7586   28.8554   45.6521 H   0  0  0  0  0  0  0  0  0  0  0  0
   30.9778   26.0726   47.1690 H   0  0  0  0  0  0  0  0  0  0  0  0
   28.9144   25.7676   48.7063 H   0  0  0  0  0  0  0  0  0  0  0  0
   28.8983   27.4234   50.6915 H   0  0  0  0  0  0  0  0  0  0  0  0
  1  6  1  0
  2  3  1  0
  2  1  1  0
  3  4  1  0
  4  5  1  0
  6  5  1  0
  7  8  1  0
  8  9  2  0
  9  3  1  0
  9 10  1  0
 11 10  2  0
 12 11  1  0
 13  8  1  0
 13 12  2  0
 14 13  1  0
 15 20  1  0
 15  1  1  0
 16 15  2  0
 17 18  2  0
 17 16  1  0
 18 19  1  0
 19 21  1  0
 19 20  2  0
 21 25  1  0
 22 21  2  0
 22 23  1  0
 23 24  1  0
 25 24  2  0
  1 26  1  1
  2 27  1  0
  2 28  1  0
  3 29  1  6
  4 30  1  0
  4 31  1  0
  5 32  1  0
  5 33  1  0
  6 34  1  0
  6 35  1  0
 10 36  1  0
 11 37  1  0
 12 38  1  0
 14 39  1  0
 14 40  1  0
 16 41  1  0
 17 42  1  0
 22 43  1  0
 23 44  1  0
 24 45  1  0
M  ISO  8  26  13  27  13  28  13  29  13  30  13  31  13  32  13  33  13
M  ISO  8  34  13  35  13  36  14  37  14  38  14  41  14  42  14  43  14
M  ISO  2  44   9  45  14
M  END
>  <minimizedAffinity>  (1) 
-7.64939833

>  <minimizedRMSD>  (1) 
0.890121281

$$$$
