
     RDKit          3D

 41 45  0  0  0  0  0  0  0  0999 V2000
   34.5400   28.2680   47.9820 C   0  0  0  0  0  0  0  0  0  0  0  0
   33.0650   28.3330   47.6850 C   0  0  0  0  0  0  0  0  0  0  0  0
   32.0800   27.5120   48.2240 C   0  0  0  0  0  0  0  0  0  0  0  0
   30.8550   27.8970   47.6950 C   0  0  0  0  0  0  0  0  0  0  0  0
   31.1360   28.9320   46.8590 N   0  0  0  0  0  0  0  0  0  0  0  0
   32.4350   29.1820   46.8590 N   0  0  0  0  0  0  0  0  0  0  0  0
   28.7440   29.2920   46.2470 N   0  0  0  0  0  0  0  0  0  0  0  0
   30.0550   29.5390   46.1640 C   0  0  0  0  0  0  0  0  0  0  0  0
   30.2020   30.5320   45.2440 N   0  0  0  0  0  0  0  0  0  0  0  0
   29.0030   30.8890   44.7720 C   0  0  0  0  0  0  0  0  0  0  0  0
   28.6700   31.8410   43.8370 C   0  0  0  0  0  0  0  0  0  0  0  0
   27.3730   32.0160   43.5250 N   0  0  0  0  0  0  0  0  0  0  0  0
   26.4310   31.2510   44.1380 C   0  0  0  0  0  0  0  0  0  0  0  0
   26.7740   30.3230   45.0520 N   0  0  0  0  0  0  0  0  0  0  0  0
   28.0620   30.1110   45.3990 C   0  0  0  0  0  0  0  0  0  0  0  0
   34.6580   28.2780   49.4810 C   0  0  0  0  0  0  0  0  0  0  0  0
   37.1720   30.0370   51.5390 C   0  0  0  0  0  0  0  0  0  0  0  0
   37.8930   30.7490   50.5710 C   0  0  0  0  0  0  0  0  0  0  0  0
   37.5100   30.6190   49.2200 C   0  0  0  0  0  0  0  0  0  0  0  0
   36.4690   29.8170   48.9270 N   0  0  0  0  0  0  0  0  0  0  0  0
   35.7940   29.1410   49.9020 C   0  0  0  0  0  0  0  0  0  0  0  0
   36.1550   29.2630   51.1760 N   0  0  0  0  0  0  0  0  0  0  0  0
   38.2260   31.3380   48.1750 C   0  0  0  0  0  0  0  0  0  0  0  0
   38.6040   32.6560   48.2370 C   0  0  0  0  0  0  0  0  0  0  0  0
   39.2500   33.0500   47.1300 N   0  0  0  0  0  0  0  0  0  0  0  0
   39.2850   31.9440   46.3320 C   0  0  0  0  0  0  0  0  0  0  0  0
   38.6700   30.9330   46.9720 N   0  0  0  0  0  0  0  0  0  0  0  0
   35.0560   29.1389   47.5515 H   0  0  0  0  0  0  0  0  0  0  0  0
   35.0011   27.3695   47.5460 H   0  0  0  0  0  0  0  0  0  0  0  0
   32.2433   26.6977   48.9453 H   0  0  0  0  0  0  0  0  0  0  0  0
   29.8686   27.4586   47.9069 H   0  0  0  0  0  0  0  0  0  0  0  0
   28.3132   28.5865   46.8615 H   0  0  0  0  0  0  0  0  0  0  0  0
   29.4495   32.4480   43.3533 H   0  0  0  0  0  0  0  0  0  0  0  0
   25.3703   31.3924   43.8831 H   0  0  0  0  0  0  0  0  0  0  0  0
   33.7256   28.6671   49.9161 H   0  0  0  0  0  0  0  0  0  0  0  0
   34.8377   27.2516   49.8334 H   0  0  0  0  0  0  0  0  0  0  0  0
   37.4484   30.1190   52.6005 H   0  0  0  0  0  0  0  0  0  0  0  0
   38.7370   31.3935   50.8579 H   0  0  0  0  0  0  0  0  0  0  0  0
   38.4005   33.3130   49.0954 H   0  0  0  0  0  0  0  0  0  0  0  0
   39.6354   33.9833   46.9267 H   0  0  0  0  0  0  0  0  0  0  0  0
   39.7401   31.8882   45.3321 H   0  0  0  0  0  0  0  0  0  0  0  0
  1 16  1  0
  2  1  1  0
  2  3  1  0
  4  3  2  0
  5  4  1  0
  6  5  1  0
  6  2  2  0
  8  7  1  0
  8  5  1  0
  9  8  2  0
 10  9  1  0
 10 15  2  0
 11 10  1  0
 12 11  2  0
 12 13  1  0
 13 14  2  0
 14 15  1  0
 15  7  1  0
 16 21  1  0
 18 17  2  0
 19 18  1  0
 20 19  2  0
 20 21  1  0
 21 22  2  0
 22 17  1  0
 23 24  2  0
 23 19  1  0
 25 24  1  0
 26 27  2  0
 26 25  1  0
 27 23  1  0
  1 28  1  0
  1 29  1  0
  3 30  1  0
  4 31  1  0
  7 32  1  0
 11 33  1  0
 13 34  1  0
 16 35  1  0
 16 36  1  0
 17 37  1  0
 18 38  1  0
 24 39  1  0
 25 40  1  0
 26 41  1  0
M  ISO  8  28   8  29   8  30  14  31  14  32   9  33  14  34  14  35   8
M  ISO  6  36   8  37  14  38  14  39  14  40   9  41  14
M  END
>  <minimizedAffinity>  (1) 
-6.73338318

>  <minimizedRMSD>  (1) 
0.441907763

$$$$
