
     RDKit          3D

 27 29  0  0  0  0  0  0  0  0999 V2000
   36.4060   30.4030   46.4190 Cl  0  0  0  0  0  0  0  0  0  0  0  0
   36.8310   30.4790   48.1200 C   0  0  0  0  0  0  0  0  0  0  0  0
   38.0490   31.0730   48.4230 C   0  0  0  0  0  0  0  0  0  0  0  0
   38.4060   31.1430   49.7650 C   0  0  0  0  0  0  0  0  0  0  0  0
   37.5580   30.6340   50.7170 C   0  0  0  0  0  0  0  0  0  0  0  0
   36.3780   30.0640   50.3510 C   0  0  0  0  0  0  0  0  0  0  0  0
   35.9660   29.9620   49.0550 C   0  0  0  0  0  0  0  0  0  0  0  0
   39.9730   33.4570   46.4510 C   0  0  0  0  0  0  0  0  0  0  0  0
   40.5310   32.6850   45.4230 C   0  0  0  0  0  0  0  0  0  0  0  0
   40.2320   31.3220   45.4170 C   0  0  0  0  0  0  0  0  0  0  0  0
   39.4290   30.8340   46.3980 N   0  0  0  0  0  0  0  0  0  0  0  0
   38.9180   31.6020   47.3620 C   0  0  0  0  0  0  0  0  0  0  0  0
   39.1900   32.9190   47.3880 N   0  0  0  0  0  0  0  0  0  0  0  0
   34.6960   29.3480   48.6770 C   0  0  0  0  0  0  0  0  0  0  0  0
   33.8040   28.8050   49.5790 C   0  0  0  0  0  0  0  0  0  0  0  0
   32.7370   28.3230   48.9140 N   0  0  0  0  0  0  0  0  0  0  0  0
   32.9470   28.5560   47.6030 C   0  0  0  0  0  0  0  0  0  0  0  0
   34.1340   29.1780   47.4500 N   0  0  0  0  0  0  0  0  0  0  0  0
   39.3604   31.6026   50.0615 H   0  0  0  0  0  0  0  0  0  0  0  0
   37.8337   30.6872   51.7806 H   0  0  0  0  0  0  0  0  0  0  0  0
   35.7235   29.6654   51.1401 H   0  0  0  0  0  0  0  0  0  0  0  0
   40.1863   34.5355   46.4864 H   0  0  0  0  0  0  0  0  0  0  0  0
   41.1768   33.1341   44.6541 H   0  0  0  0  0  0  0  0  0  0  0  0
   40.6363   30.6594   44.6376 H   0  0  0  0  0  0  0  0  0  0  0  0
   33.9428   28.7712   50.6697 H   0  0  0  0  0  0  0  0  0  0  0  0
   31.9145   27.8626   49.3292 H   0  0  0  0  0  0  0  0  0  0  0  0
   32.2602   28.2826   46.7884 H   0  0  0  0  0  0  0  0  0  0  0  0
  1  2  1  0
  2  3  2  0
  2  7  1  0
  3  4  1  0
  4  5  2  0
  6  5  1  0
  7  6  2  0
  8 13  2  0
  9  8  1  0
 10  9  2  0
 10 11  1  0
 11 12  2  0
 12 13  1  0
 12  3  1  0
 14  7  1  0
 14 15  2  0
 16 15  1  0
 17 16  1  0
 18 17  2  0
 18 14  1  0
  4 19  1  0
  5 20  1  0
  6 21  1  0
  8 22  1  0
  9 23  1  0
 10 24  1  0
 15 25  1  0
 16 26  1  0
 17 27  1  0
M  ISO  8  19  14  20  14  21  14  22  14  23  14  24  14  25  14  26   9
M  ISO  1  27  14
M  END
>  <minimizedAffinity>  (1) 
-6.27286291

>  <minimizedRMSD>  (1) 
0.214957133

$$$$
