
     RDKit          3D

 46 50  0  0  1  0  0  0  0  0999 V2000
   38.6630   31.6350   43.8790 C   0  0  0  0  0  0  0  0  0  0  0  0
   39.7570   30.8070   43.7630 C   0  0  0  0  0  0  0  0  0  0  0  0
   40.4260   30.7960   42.5620 C   0  0  0  0  0  0  0  0  0  0  0  0
   39.9680   31.6070   41.5460 C   0  0  0  0  0  0  0  0  0  0  0  0
   38.8720   32.4390   41.6560 C   0  0  0  0  0  0  0  0  0  0  0  0
   38.2480   32.4150   42.8550 N   0  0  0  0  0  0  0  0  0  0  0  0
   37.9300   31.6570   45.1630 C   0  0  0  0  0  0  0  0  0  0  0  0
   36.9140   30.9480   45.3340 O   0  0  0  0  0  0  0  0  0  0  0  0
   38.4110   32.5090   46.2080 N   0  0  0  0  0  0  0  0  0  0  0  0
   38.5180   31.4120   48.4420 C   0  0  2  0  0  0  0  0  0  0  0  0
   38.8090   32.8540   48.6560 C   0  0  0  0  0  0  0  0  0  0  0  0
   37.8870   32.3240   47.5420 C   0  0  1  0  0  0  0  0  0  0  0  0
   35.8960   29.1980   49.8640 C   0  0  0  0  0  0  0  0  0  0  0  0
   36.1940   29.2600   51.2620 C   0  0  0  0  0  0  0  0  0  0  0  0
   37.3080   30.0850   51.6940 C   0  0  0  0  0  0  0  0  0  0  0  0
   38.0250   30.7700   50.7490 N   0  0  0  0  0  0  0  0  0  0  0  0
   37.6780   30.6580   49.4380 C   0  0  0  0  0  0  0  0  0  0  0  0
   36.6240   29.8860   48.9590 N   0  0  0  0  0  0  0  0  0  0  0  0
   38.3880   33.2750   40.5690 C   0  0  0  0  0  0  0  0  0  0  0  0
   37.8290   34.3660   40.8290 O   0  0  0  0  0  0  0  0  0  0  0  0
   37.8300   31.8370   38.5650 C   0  0  0  0  0  0  0  0  0  0  0  0
   38.5250   32.8960   39.1680 C   0  0  0  0  0  0  0  0  0  0  0  0
   39.3720   33.5870   38.3300 C   0  0  0  0  0  0  0  0  0  0  0  0
   39.6090   33.3600   36.9970 C   0  0  0  0  0  0  0  0  0  0  0  0
   40.4070   33.9740   36.1070 N   0  0  0  0  0  0  0  0  0  0  0  0
   40.2080   33.2880   34.9410 C   0  0  0  0  0  0  0  0  0  0  0  0
   39.2980   32.2720   35.1250 C   0  0  0  0  0  0  0  0  0  0  0  0
   38.8970   32.3080   36.4660 C   0  0  0  0  0  0  0  0  0  0  0  0
   38.0220   31.5480   37.2080 C   0  0  0  0  0  0  0  0  0  0  0  0
   40.0845   30.1760   44.6024 H   0  0  0  0  0  0  0  0  0  0  0  0
   41.3072   30.1542   42.4152 H   0  0  0  0  0  0  0  0  0  0  0  0
   40.5092   31.5902   40.5885 H   0  0  0  0  0  0  0  0  0  0  0  0
   39.1138   33.2365   46.0137 H   0  0  0  0  0  0  0  0  0  0  0  0
   39.1589   30.5290   48.3021 H   0  0  0  0  0  0  0  0  0  0  0  0
   38.3909   33.3871   49.5226 H   0  0  0  0  0  0  0  0  0  0  0  0
   39.7061   33.4876   48.7167 H   0  0  0  0  0  0  0  0  0  0  0  0
   36.8421   32.4479   47.2215 H   0  0  0  0  0  0  0  0  0  0  0  0
   35.0562   28.5768   49.5194 H   0  0  0  0  0  0  0  0  0  0  0  0
   35.5939   28.6965   51.9916 H   0  0  0  0  0  0  0  0  0  0  0  0
   37.5711   30.1585   52.7595 H   0  0  0  0  0  0  0  0  0  0  0  0
   37.1313   31.2310   39.1605 H   0  0  0  0  0  0  0  0  0  0  0  0
   39.9257   34.4221   38.7839 H   0  0  0  0  0  0  0  0  0  0  0  0
   41.0284   34.7797   36.2671 H   0  0  0  0  0  0  0  0  0  0  0  0
   40.7065   33.5166   33.9875 H   0  0  0  0  0  0  0  0  0  0  0  0
   38.9500   31.5626   34.3597 H   0  0  0  0  0  0  0  0  0  0  0  0
   37.4758   30.7172   36.7375 H   0  0  0  0  0  0  0  0  0  0  0  0
  1  7  1  0
  2  1  2  0
  3  2  1  0
  4  5  1  0
  4  3  2  0
  5  6  2  0
  6  1  1  0
  7  8  2  0
  7  9  1  0
  9 12  1  0
 10 11  1  0
 10 17  1  0
 12 10  1  0
 12 11  1  0
 13 14  2  0
 14 15  1  0
 16 15  2  0
 17 16  1  0
 18 17  2  0
 18 13  1  0
 19 20  2  0
 19  5  1  0
 21 22  2  0
 22 19  1  0
 23 22  1  0
 24 23  2  0
 25 24  1  0
 26 27  2  0
 26 25  1  0
 27 28  1  0
 28 24  1  0
 28 29  2  0
 29 21  1  0
  2 30  1  0
  3 31  1  0
  4 32  1  0
  9 33  1  0
 10 34  1  6
 11 35  1  0
 11 36  1  0
 12 37  1  6
 13 38  1  0
 14 39  1  0
 15 40  1  0
 21 41  1  0
 23 42  1  0
 25 43  1  0
 26 44  1  0
 27 45  1  0
 29 46  1  0
M  ISO  8  30  14  31  14  32  14  34  13  35  13  36  13  37  13  38  14
M  ISO  8  39  14  40  14  41  14  42  14  43   9  44  14  45  14  46  14
M  END
>  <minimizedAffinity>  (1) 
-5.48365116

>  <minimizedRMSD>  (1) 
2.09666038

$$$$
