
     RDKit          3D

 26 28  0  0  0  0  0  0  0  0999 V2000
   37.2810   30.9630   45.9280 C   0  0  0  0  0  0  0  0  0  0  0  0
   38.3430   31.2250   46.7640 C   0  0  0  0  0  0  0  0  0  0  0  0
   39.6100   31.1030   46.1680 C   0  0  0  0  0  0  0  0  0  0  0  0
   39.7950   30.7570   44.8670 C   0  0  0  0  0  0  0  0  0  0  0  0
   40.9180   30.5970   44.1030 N   0  0  0  0  0  0  0  0  0  0  0  0
   40.5010   30.2550   42.8690 C   0  0  0  0  0  0  0  0  0  0  0  0
   39.1070   30.1830   42.7980 C   0  0  0  0  0  0  0  0  0  0  0  0
   38.6930   30.5070   44.0830 C   0  0  0  0  0  0  0  0  0  0  0  0
   37.4130   30.6080   44.6050 C   0  0  0  0  0  0  0  0  0  0  0  0
   38.3730   31.6740   48.1460 C   0  0  0  0  0  0  0  0  0  0  0  0
   38.9110   32.7960   48.4310 O   0  0  0  0  0  0  0  0  0  0  0  0
   37.3870   30.1580   51.4240 C   0  0  0  0  0  0  0  0  0  0  0  0
   38.0550   31.0180   50.5280 C   0  0  0  0  0  0  0  0  0  0  0  0
   37.7750   30.8310   49.1850 C   0  0  0  0  0  0  0  0  0  0  0  0
   36.8870   29.8440   48.8260 N   0  0  0  0  0  0  0  0  0  0  0  0
   36.2830   29.0560   49.7150 C   0  0  0  0  0  0  0  0  0  0  0  0
   36.5210   29.1990   51.0180 N   0  0  0  0  0  0  0  0  0  0  0  0
   36.2653   31.0422   46.3427 H   0  0  0  0  0  0  0  0  0  0  0  0
   40.4982   31.2978   46.7870 H   0  0  0  0  0  0  0  0  0  0  0  0
   41.8936   30.7152   44.4116 H   0  0  0  0  0  0  0  0  0  0  0  0
   41.1741   30.0569   42.0219 H   0  0  0  0  0  0  0  0  0  0  0  0
   38.4838   29.9291   41.9278 H   0  0  0  0  0  0  0  0  0  0  0  0
   36.5293   30.4103   43.9806 H   0  0  0  0  0  0  0  0  0  0  0  0
   37.5779   30.2711   52.5014 H   0  0  0  0  0  0  0  0  0  0  0  0
   38.7564   31.7910   50.8752 H   0  0  0  0  0  0  0  0  0  0  0  0
   35.5823   28.2813   49.3702 H   0  0  0  0  0  0  0  0  0  0  0  0
  1  2  2  0
  2 10  1  0
  3  2  1  0
  4  3  2  0
  5  4  1  0
  6  5  1  0
  7  6  2  0
  7  8  1  0
  8  9  2  0
  8  4  1  0
  9  1  1  0
 10 11  2  0
 10 14  1  0
 13 12  2  0
 14 13  1  0
 15 14  2  0
 15 16  1  0
 16 17  2  0
 17 12  1  0
  1 18  1  0
  3 19  1  0
  5 20  1  0
  6 21  1  0
  7 22  1  0
  9 23  1  0
 12 24  1  0
 13 25  1  0
 16 26  1  0
M  ISO  8  18  14  19  14  20   9  21  14  22  14  23  14  24  14  25  14
M  ISO  1  26  14
M  END
>  <minimizedAffinity>  (1) 
-5.81736088

>  <minimizedRMSD>  (1) 
1.22126007

$$$$
