
     RDKit          3D

 50 54  0  0  1  0  0  0  0  0999 V2000
   35.2380   29.4720   45.5960 N   0  0  0  0  0  0  0  0  0  0  0  0
   36.3560   30.3310   45.2090 C   0  0  0  0  0  0  0  0  0  0  0  0
   36.4750   30.2580   43.6990 C   0  0  0  0  0  0  0  0  0  0  0  0
   35.5240   29.1750   43.3470 C   0  0  0  0  0  0  0  0  0  0  0  0
   34.4380   29.2870   44.4390 C   0  0  1  0  0  0  0  0  0  0  0  0
   37.2640   29.2670   50.5480 C   0  0  0  0  0  0  0  0  0  0  0  0
   37.4190   30.6430   50.8230 C   0  0  0  0  0  0  0  0  0  0  0  0
   36.6610   31.5300   50.0590 C   0  0  0  0  0  0  0  0  0  0  0  0
   35.8290   31.0200   49.1090 N   0  0  0  0  0  0  0  0  0  0  0  0
   35.7170   29.7160   48.8870 C   0  0  0  0  0  0  0  0  0  0  0  0
   36.4310   28.8360   49.6020 N   0  0  0  0  0  0  0  0  0  0  0  0
   34.8340   29.2440   47.8840 N   0  0  0  0  0  0  0  0  0  0  0  0
   34.2100   27.9310   47.9690 C   0  0  0  0  0  0  0  0  0  0  0  0
   32.7240   28.0660   47.8370 C   0  0  0  0  0  0  0  0  0  0  0  0
   32.2550   29.2500   47.3320 N   0  0  0  0  0  0  0  0  0  0  0  0
   33.0740   30.1180   46.5270 C   0  0  0  0  0  0  0  0  0  0  0  0
   34.5090   30.0460   46.7170 C   0  0  2  0  0  0  0  0  0  0  0  0
   32.4770   27.9820   43.8000 C   0  0  0  0  0  0  0  0  0  0  0  0
   33.7690   27.9700   44.2970 C   0  0  0  0  0  0  0  0  0  0  0  0
   34.2710   26.7210   44.6060 C   0  0  0  0  0  0  0  0  0  0  0  0
   33.5390   25.5670   44.4330 C   0  0  0  0  0  0  0  0  0  0  0  0
   33.9440   24.2960   44.7080 N   0  0  0  0  0  0  0  0  0  0  0  0
   32.9420   23.4830   44.4000 C   0  0  0  0  0  0  0  0  0  0  0  0
   31.8790   24.2570   43.9200 C   0  0  0  0  0  0  0  0  0  0  0  0
   32.2650   25.6010   43.9420 C   0  0  0  0  0  0  0  0  0  0  0  0
   31.7310   26.8340   43.6220 C   0  0  0  0  0  0  0  0  0  0  0  0
   36.1611   31.3673   45.5221 H   0  0  0  0  0  0  0  0  0  0  0  0
   37.2879   30.0002   45.6908 H   0  0  0  0  0  0  0  0  0  0  0  0
   36.1822   31.2099   43.2319 H   0  0  0  0  0  0  0  0  0  0  0  0
   37.5010   30.0670   43.3515 H   0  0  0  0  0  0  0  0  0  0  0  0
   35.0954   29.3366   42.3469 H   0  0  0  0  0  0  0  0  0  0  0  0
   35.9966   28.1824   43.3101 H   0  0  0  0  0  0  0  0  0  0  0  0
   33.6665   30.0710   44.4271 H   0  0  0  0  0  0  0  0  0  0  0  0
   37.8442   28.5342   51.1280 H   0  0  0  0  0  0  0  0  0  0  0  0
   38.1064   30.9993   51.6044 H   0  0  0  0  0  0  0  0  0  0  0  0
   36.7334   32.6158   50.2199 H   0  0  0  0  0  0  0  0  0  0  0  0
   34.5920   27.2920   47.1592 H   0  0  0  0  0  0  0  0  0  0  0  0
   34.4485   27.4778   48.9425 H   0  0  0  0  0  0  0  0  0  0  0  0
   32.3738   27.2598   47.1756 H   0  0  0  0  0  0  0  0  0  0  0  0
   32.3375   28.0179   48.8657 H   0  0  0  0  0  0  0  0  0  0  0  0
   31.4352   29.0121   46.7556 H   0  0  0  0  0  0  0  0  0  0  0  0
   32.7647   31.1524   46.7376 H   0  0  0  0  0  0  0  0  0  0  0  0
   32.9098   29.7806   45.4930 H   0  0  0  0  0  0  0  0  0  0  0  0
   34.8195   31.0950   46.8319 H   0  0  0  0  0  0  0  0  0  0  0  0
   32.0247   28.9491   43.5352 H   0  0  0  0  0  0  0  0  0  0  0  0
   35.2932   26.6449   45.0050 H   0  0  0  0  0  0  0  0  0  0  0  0
   34.8606   24.0171   45.0860 H   0  0  0  0  0  0  0  0  0  0  0  0
   32.9458   22.3879   44.5040 H   0  0  0  0  0  0  0  0  0  0  0  0
   30.9049   23.8731   43.5826 H   0  0  0  0  0  0  0  0  0  0  0  0
   30.7078   26.9015   43.2239 H   0  0  0  0  0  0  0  0  0  0  0  0
  1  2  1  0
  1 17  1  0
  3  2  1  0
  4  3  1  0
  4  5  1  0
  5  1  1  0
  6  7  2  0
  8  7  1  0
  9  8  2  0
 10  9  1  0
 10 11  2  0
 11  6  1  0
 12 13  1  0
 12 10  1  0
 14 13  1  0
 15 14  1  0
 16 17  1  0
 16 15  1  0
 17 12  1  0
 18 19  2  0
 19  5  1  0
 19 20  1  0
 21 20  2  0
 21 22  1  0
 23 22  1  0
 24 25  1  0
 24 23  2  0
 25 21  1  0
 26 18  1  0
 26 25  2  0
  2 27  1  0
  2 28  1  0
  3 29  1  0
  3 30  1  0
  4 31  1  0
  4 32  1  0
  5 33  1  6
  6 34  1  0
  7 35  1  0
  8 36  1  0
 13 37  1  0
 13 38  1  0
 14 39  1  0
 14 40  1  0
 15 41  1  0
 16 42  1  0
 16 43  1  0
 17 44  1  1
 18 45  1  0
 20 46  1  0
 22 47  1  0
 23 48  1  0
 24 49  1  0
 26 50  1  0
M  ISO  8  27  13  28  13  29  13  30  13  31  13  32  13  33  13  34  14
M  ISO  8  35  14  36  14  37  13  38  13  39  13  40  13  41   5  42  13
M  ISO  8  43  13  44  13  45  14  46  14  47   9  48  14  49  14  50  14
M  END
>  <minimizedAffinity>  (1) 
-4.82368708

>  <minimizedRMSD>  (1) 
0.842877328

$$$$
