
     RDKit          3D

 27 29  0  0  0  0  0  0  0  0999 V2000
   36.3420   29.8070   49.7950 C   0  0  0  0  0  0  0  0  0  0  0  0
   37.2550   30.5160   48.9970 C   0  0  0  0  0  0  0  0  0  0  0  0
   36.9050   30.7870   47.6780 C   0  0  0  0  0  0  0  0  0  0  0  0
   35.6970   30.3520   47.2320 N   0  0  0  0  0  0  0  0  0  0  0  0
   34.8420   29.6690   48.0380 C   0  0  0  0  0  0  0  0  0  0  0  0
   35.1640   29.4000   49.3080 N   0  0  0  0  0  0  0  0  0  0  0  0
   38.8490   32.1700   47.3050 C   0  0  0  0  0  0  0  0  0  0  0  0
   37.7670   31.5130   46.7550 C   0  0  0  0  0  0  0  0  0  0  0  0
   37.5610   31.5750   45.4120 C   0  0  0  0  0  0  0  0  0  0  0  0
   38.4280   32.2870   44.6080 C   0  0  0  0  0  0  0  0  0  0  0  0
   38.4350   32.4890   43.2920 N   0  0  0  0  0  0  0  0  0  0  0  0
   39.4750   33.2550   42.9180 C   0  0  0  0  0  0  0  0  0  0  0  0
   40.1460   33.5380   44.0910 C   0  0  0  0  0  0  0  0  0  0  0  0
   39.5100   32.9440   45.1570 C   0  0  0  0  0  0  0  0  0  0  0  0
   39.7450   32.9000   46.5200 C   0  0  0  0  0  0  0  0  0  0  0  0
   36.7280   29.5150   51.2110 C   0  0  0  0  0  0  0  0  0  0  0  0
   35.6200   29.1440   51.9400 F   0  0  0  0  0  0  0  0  0  0  0  0
   37.6940   28.5330   51.1760 F   0  0  0  0  0  0  0  0  0  0  0  0
   37.2350   30.6730   51.7610 F   0  0  0  0  0  0  0  0  0  0  0  0
   38.2213   30.8482   49.4042 H   0  0  0  0  0  0  0  0  0  0  0  0
   33.8728   29.3331   47.6408 H   0  0  0  0  0  0  0  0  0  0  0  0
   39.0104   32.1174   48.3918 H   0  0  0  0  0  0  0  0  0  0  0  0
   36.7004   31.0559   44.9650 H   0  0  0  0  0  0  0  0  0  0  0  0
   37.7327   32.1069   42.6426 H   0  0  0  0  0  0  0  0  0  0  0  0
   39.7342   33.5839   41.9008 H   0  0  0  0  0  0  0  0  0  0  0  0
   41.0573   34.1499   44.1630 H   0  0  0  0  0  0  0  0  0  0  0  0
   40.6045   33.4199   46.9683 H   0  0  0  0  0  0  0  0  0  0  0  0
  1 16  1  0
  2  1  2  0
  3  2  1  0
  4  3  2  0
  4  5  1  0
  5  6  2  0
  6  1  1  0
  8  7  2  0
  8  3  1  0
  9  8  1  0
 10 14  1  0
 10  9  2  0
 11 10  1  0
 12 11  1  0
 12 13  2  0
 13 14  1  0
 14 15  2  0
 15  7  1  0
 16 19  1  0
 16 17  1  0
 18 16  1  0
  2 20  1  0
  5 21  1  0
  7 22  1  0
  9 23  1  0
 11 24  1  0
 12 25  1  0
 13 26  1  0
 15 27  1  0
M  ISO  8  20  14  21  14  22  14  23  14  24   9  25  14  26  14  27  14
M  END
>  <minimizedAffinity>  (1) 
-6.4714613

>  <minimizedRMSD>  (1) 
3.61329532

$$$$
