
     RDKit          3D

 47 52  0  0  0  0  0  0  0  0999 V2000
   37.3650   30.9870   49.5580 C   0  0  0  0  0  0  0  0  0  0  0  0
   37.6050   30.6370   50.8680 C   0  0  0  0  0  0  0  0  0  0  0  0
   36.7820   29.7220   51.4690 C   0  0  0  0  0  0  0  0  0  0  0  0
   35.7490   29.1770   50.7730 N   0  0  0  0  0  0  0  0  0  0  0  0
   35.5520   29.5430   49.5070 C   0  0  0  0  0  0  0  0  0  0  0  0
   36.3450   30.4400   48.8920 N   0  0  0  0  0  0  0  0  0  0  0  0
   34.4450   28.9640   48.7480 C   0  0  0  0  0  0  0  0  0  0  0  0
   34.4830   28.8570   47.3800 C   0  0  0  0  0  0  0  0  0  0  0  0
   33.5180   28.3380   46.5510 C   0  0  0  0  0  0  0  0  0  0  0  0
   32.3940   27.8800   47.2080 C   0  0  0  0  0  0  0  0  0  0  0  0
   31.3890   27.3490   46.4700 N   0  0  0  0  0  0  0  0  0  0  0  0
   30.2480   26.8740   47.0170 C   0  0  0  0  0  0  0  0  0  0  0  0
   30.0890   26.9260   48.3890 C   0  0  0  0  0  0  0  0  0  0  0  0
   31.1110   27.4660   49.1520 C   0  0  0  0  0  0  0  0  0  0  0  0
   32.2840   27.9540   48.5900 C   0  0  0  0  0  0  0  0  0  0  0  0
   33.2950   28.4900   49.3610 C   0  0  0  0  0  0  0  0  0  0  0  0
   39.4730   33.9140   48.8300 C   0  0  0  0  0  0  0  0  0  0  0  0
   39.8230   33.7000   47.4860 C   0  0  0  0  0  0  0  0  0  0  0  0
   39.3250   32.5450   46.8460 C   0  0  0  0  0  0  0  0  0  0  0  0
   38.5430   31.7260   47.5830 N   0  0  0  0  0  0  0  0  0  0  0  0
   38.2220   31.9610   48.8830 C   0  0  0  0  0  0  0  0  0  0  0  0
   38.6910   33.0520   49.4940 N   0  0  0  0  0  0  0  0  0  0  0  0
   39.2110   33.1170   44.5100 C   0  0  0  0  0  0  0  0  0  0  0  0
   39.6070   32.2000   45.4590 C   0  0  0  0  0  0  0  0  0  0  0  0
   40.2330   31.0260   45.1020 C   0  0  0  0  0  0  0  0  0  0  0  0
   40.4640   30.7710   43.7650 C   0  0  0  0  0  0  0  0  0  0  0  0
   41.0430   29.7230   43.1750 N   0  0  0  0  0  0  0  0  0  0  0  0
   41.0710   29.8670   41.8400 C   0  0  0  0  0  0  0  0  0  0  0  0
   40.4680   31.0840   41.6080 C   0  0  0  0  0  0  0  0  0  0  0  0
   40.0730   31.6800   42.8040 C   0  0  0  0  0  0  0  0  0  0  0  0
   39.4450   32.8570   43.1640 C   0  0  0  0  0  0  0  0  0  0  0  0
   38.4432   31.0846   51.4222 H   0  0  0  0  0  0  0  0  0  0  0  0
   36.9567   29.4281   52.5145 H   0  0  0  0  0  0  0  0  0  0  0  0
   35.3938   29.2310   46.8894 H   0  0  0  0  0  0  0  0  0  0  0  0
   33.6315   28.2915   45.4579 H   0  0  0  0  0  0  0  0  0  0  0  0
   29.4572   26.4520   46.3794 H   0  0  0  0  0  0  0  0  0  0  0  0
   29.1720   26.5473   48.8640 H   0  0  0  0  0  0  0  0  0  0  0  0
   30.9893   27.5101   50.2444 H   0  0  0  0  0  0  0  0  0  0  0  0
   33.1894   28.5410   50.4547 H   0  0  0  0  0  0  0  0  0  0  0  0
   39.8491   34.8085   49.3482 H   0  0  0  0  0  0  0  0  0  0  0  0
   40.4664   34.4120   46.9484 H   0  0  0  0  0  0  0  0  0  0  0  0
   38.7128   34.0491   44.8151 H   0  0  0  0  0  0  0  0  0  0  0  0
   40.5440   30.3029   45.8703 H   0  0  0  0  0  0  0  0  0  0  0  0
   41.4202   28.9079   43.6792 H   0  0  0  0  0  0  0  0  0  0  0  0
   41.4836   29.1686   41.0970 H   0  0  0  0  0  0  0  0  0  0  0  0
   40.3184   31.5260   40.6119 H   0  0  0  0  0  0  0  0  0  0  0  0
   39.1339   33.5796   42.3952 H   0  0  0  0  0  0  0  0  0  0  0  0
  1  2  2  0
  2  3  1  0
  4  3  2  0
  5  4  1  0
  6  5  2  0
  6  1  1  0
  7 16  1  0
  7  5  1  0
  8  7  2  0
  9 10  2  0
  9  8  1  0
 10 15  1  0
 11 12  2  0
 11 10  1  0
 12 13  1  0
 13 14  2  0
 15 14  1  0
 15 16  2  0
 17 22  2  0
 18 17  1  0
 19 18  2  0
 19 20  1  0
 20 21  2  0
 21 22  1  0
 21  1  1  0
 23 24  2  0
 24 19  1  0
 25 24  1  0
 26 25  2  0
 27 26  1  0
 28 27  1  0
 29 28  2  0
 29 30  1  0
 30 31  2  0
 30 26  1  0
 31 23  1  0
  2 32  1  0
  3 33  1  0
  8 34  1  0
  9 35  1  0
 12 36  1  0
 13 37  1  0
 14 38  1  0
 16 39  1  0
 17 40  1  0
 18 41  1  0
 23 42  1  0
 25 43  1  0
 27 44  1  0
 28 45  1  0
 29 46  1  0
 31 47  1  0
M  ISO  8  32  14  33  14  34  14  35  14  36  14  37  14  38  14  39  14
M  ISO  8  40  14  41  14  42  14  43  14  44   9  45  14  46  14  47  14
M  END
>  <minimizedAffinity>  (1) 
-8.57861519

>  <minimizedRMSD>  (1) 
0.504087031

$$$$
