
     RDKit          3D

 38 41  0  0  1  0  0  0  0  0999 V2000
   36.4870   29.5790   49.0550 N   0  0  0  0  0  0  0  0  0  0  0  0
   36.6780   28.7520   50.2560 C   0  0  0  0  0  0  0  0  0  0  0  0
   37.2710   29.4680   51.4070 C   0  0  0  0  0  0  0  0  0  0  0  0
   38.1090   30.5720   51.1580 N   0  0  0  0  0  0  0  0  0  0  0  0
   37.6930   31.3710   49.9870 C   0  0  0  0  0  0  0  0  0  0  0  0
   37.6220   30.3940   48.8410 C   0  0  2  0  0  0  0  0  0  0  0  0
   38.9170   31.8000   47.4190 C   0  0  0  0  0  0  0  0  0  0  0  0
   37.8040   30.9810   47.5130 C   0  0  0  0  0  0  0  0  0  0  0  0
   36.9880   30.8060   46.3900 C   0  0  0  0  0  0  0  0  0  0  0  0
   37.3240   31.4600   45.2250 C   0  0  0  0  0  0  0  0  0  0  0  0
   36.7110   31.4510   44.0400 N   0  0  0  0  0  0  0  0  0  0  0  0
   37.3890   32.2370   43.1820 C   0  0  0  0  0  0  0  0  0  0  0  0
   38.4880   32.7740   43.8440 C   0  0  0  0  0  0  0  0  0  0  0  0
   38.4130   32.2690   45.1130 C   0  0  0  0  0  0  0  0  0  0  0  0
   39.2110   32.4380   46.2110 C   0  0  0  0  0  0  0  0  0  0  0  0
   35.3010   29.5100   48.2770 C   0  0  0  0  0  0  0  0  0  0  0  0
   34.5120   30.6280   48.0150 C   0  0  0  0  0  0  0  0  0  0  0  0
   33.3690   30.4900   47.2330 C   0  0  0  0  0  0  0  0  0  0  0  0
   33.0750   29.2390   46.7530 N   0  0  0  0  0  0  0  0  0  0  0  0
   33.8800   28.1660   47.0370 C   0  0  0  0  0  0  0  0  0  0  0  0
   34.9840   28.2770   47.7880 N   0  0  0  0  0  0  0  0  0  0  0  0
   35.6968   28.3610   50.5633 H   0  0  0  0  0  0  0  0  0  0  0  0
   37.3899   27.9601   49.9801 H   0  0  0  0  0  0  0  0  0  0  0  0
   36.4378   29.8277   52.0286 H   0  0  0  0  0  0  0  0  0  0  0  0
   37.9382   28.7251   51.8686 H   0  0  0  0  0  0  0  0  0  0  0  0
   38.1019   31.1813   51.9884 H   0  0  0  0  0  0  0  0  0  0  0  0
   36.7087   31.8292   50.1637 H   0  0  0  0  0  0  0  0  0  0  0  0
   38.3953   32.1924   49.7816 H   0  0  0  0  0  0  0  0  0  0  0  0
   38.5026   29.7348   48.8354 H   0  0  0  0  0  0  0  0  0  0  0  0
   39.5680   31.9479   48.2932 H   0  0  0  0  0  0  0  0  0  0  0  0
   36.0983   30.1608   46.4363 H   0  0  0  0  0  0  0  0  0  0  0  0
   35.8538   30.9254   43.8165 H   0  0  0  0  0  0  0  0  0  0  0  0
   37.1186   32.4233   42.1322 H   0  0  0  0  0  0  0  0  0  0  0  0
   39.2498   33.4550   43.4367 H   0  0  0  0  0  0  0  0  0  0  0  0
   40.0974   33.0858   46.1421 H   0  0  0  0  0  0  0  0  0  0  0  0
   34.7900   31.6111   48.4226 H   0  0  0  0  0  0  0  0  0  0  0  0
   32.7248   31.3527   47.0080 H   0  0  0  0  0  0  0  0  0  0  0  0
   33.6098   27.1788   46.6339 H   0  0  0  0  0  0  0  0  0  0  0  0
  1  2  1  0
  2  3  1  0
  4  3  1  0
  5  4  1  0
  6  1  1  0
  6  5  1  0
  7  8  2  0
  8  6  1  0
  9  8  1  0
 10  9  2  0
 11 10  1  0
 12 13  2  0
 12 11  1  0
 13 14  1  0
 14 10  1  0
 14 15  2  0
 15  7  1  0
 16  1  1  0
 17 16  2  0
 18 17  1  0
 19 20  1  0
 19 18  2  0
 20 21  2  0
 21 16  1  0
  2 22  1  0
  2 23  1  0
  3 24  1  0
  3 25  1  0
  4 26  1  0
  5 27  1  0
  5 28  1  0
  6 29  1  1
  7 30  1  0
  9 31  1  0
 11 32  1  0
 12 33  1  0
 13 34  1  0
 15 35  1  0
 17 36  1  0
 18 37  1  0
 20 38  1  0
M  ISO  8  22  13  23  13  24  13  25  13  26   5  27  13  28  13  29  13
M  ISO  8  30  14  31  14  32   9  33  14  34  14  35  14  36  14  37  14
M  ISO  1  38  14
M  END
>  <minimizedAffinity>  (1) 
-5.51745939

>  <minimizedRMSD>  (1) 
1.3549335

$$$$
