
     RDKit          3D

 45 48  0  0  1  0  0  0  0  0999 V2000
   32.8800   27.1220   48.0720 C   0  0  1  0  0  0  0  0  0  0  0  0
   33.5340   28.4600   48.2660 C   0  0  2  0  0  0  0  0  0  0  0  0
   33.9620   28.9520   46.9200 C   0  0  0  0  0  0  0  0  0  0  0  0
   33.6720   28.0740   45.8910 O   0  0  0  0  0  0  0  0  0  0  0  0
   32.3010   27.8120   45.8070 C   0  0  0  0  0  0  0  0  0  0  0  0
   31.7180   27.3210   47.1050 C   0  0  2  0  0  0  0  0  0  0  0  0
   33.7530   26.2100   47.4650 O   0  0  0  0  0  0  0  0  0  0  0  0
   34.9240   28.3790   49.4130 S   0  0  0  0  0  0  0  0  0  0  0  0
   35.2470   30.0090   50.1200 C   0  0  0  0  0  0  0  0  0  0  0  0
   36.9590   30.2750   50.5670 S   0  0  0  0  0  0  0  0  0  0  0  0
   37.7920   31.0720   49.2180 C   0  0  0  0  0  0  0  0  0  0  0  0
   38.2400   32.3540   49.4740 C   0  0  0  0  0  0  0  0  0  0  0  0
   38.9070   33.0550   48.4650 C   0  0  0  0  0  0  0  0  0  0  0  0
   39.0810   32.4200   47.2560 N   0  0  0  0  0  0  0  0  0  0  0  0
   38.6190   31.1610   47.0630 C   0  0  0  0  0  0  0  0  0  0  0  0
   37.9930   30.5030   48.0110 N   0  0  0  0  0  0  0  0  0  0  0  0
   30.9390   28.3160   47.6760 O   0  0  0  0  0  0  0  0  0  0  0  0
   28.6580   28.6830   48.0540 C   0  0  0  0  0  0  0  0  0  0  0  0
   29.8720   28.1780   48.5300 C   0  0  0  0  0  0  0  0  0  0  0  0
   29.8510   27.6070   49.7850 C   0  0  0  0  0  0  0  0  0  0  0  0
   28.6870   27.5410   50.5280 C   0  0  0  0  0  0  0  0  0  0  0  0
   28.4750   27.0280   51.7610 N   0  0  0  0  0  0  0  0  0  0  0  0
   27.1560   27.2080   52.0470 C   0  0  0  0  0  0  0  0  0  0  0  0
   26.5100   27.8390   51.0060 C   0  0  0  0  0  0  0  0  0  0  0  0
   27.4830   28.0460   50.0500 C   0  0  0  0  0  0  0  0  0  0  0  0
   27.4950   28.6200   48.7940 C   0  0  0  0  0  0  0  0  0  0  0  0
   32.5697   26.7345   49.0536 H   0  0  0  0  0  0  0  0  0  0  0  0
   32.8172   29.1602   48.7198 H   0  0  0  0  0  0  0  0  0  0  0  0
   33.4499   29.9045   46.7190 H   0  0  0  0  0  0  0  0  0  0  0  0
   35.0560   29.0632   46.9503 H   0  0  0  0  0  0  0  0  0  0  0  0
   31.7836   28.7387   45.5181 H   0  0  0  0  0  0  0  0  0  0  0  0
   32.1621   27.0160   45.0606 H   0  0  0  0  0  0  0  0  0  0  0  0
   31.1311   26.4089   46.9216 H   0  0  0  0  0  0  0  0  0  0  0  0
   34.2383   25.7030   48.1632 H   0  0  0  0  0  0  0  0  0  0  0  0
   34.9590   30.7710   49.3809 H   0  0  0  0  0  0  0  0  0  0  0  0
   34.6590   30.0787   51.0470 H   0  0  0  0  0  0  0  0  0  0  0  0
   38.0741   32.8165   50.4582 H   0  0  0  0  0  0  0  0  0  0  0  0
   39.2792   34.0767   48.6311 H   0  0  0  0  0  0  0  0  0  0  0  0
   38.7724   30.6777   46.0868 H   0  0  0  0  0  0  0  0  0  0  0  0
   28.6292   29.1458   47.0565 H   0  0  0  0  0  0  0  0  0  0  0  0
   30.7808   27.1950   50.2041 H   0  0  0  0  0  0  0  0  0  0  0  0
   29.1784   26.5848   52.3690 H   0  0  0  0  0  0  0  0  0  0  0  0
   26.6714   26.8923   52.9827 H   0  0  0  0  0  0  0  0  0  0  0  0
   25.4474   28.1176   50.9495 H   0  0  0  0  0  0  0  0  0  0  0  0
   26.5643   29.0328   48.3776 H   0  0  0  0  0  0  0  0  0  0  0  0
  1  2  1  0
  2  8  1  0
  3  2  1  0
  4  3  1  0
  5  4  1  0
  5  6  1  0
  6 17  1  0
  6  1  1  0
  7  1  1  0
  8  9  1  0
  9 10  1  0
 11 12  2  0
 11 10  1  0
 13 12  1  0
 14 13  2  0
 15 14  1  0
 15 16  2  0
 16 11  1  0
 17 19  1  0
 18 19  2  0
 18 26  1  0
 19 20  1  0
 20 21  2  0
 21 22  1  0
 22 23  1  0
 24 23  2  0
 25 21  1  0
 25 24  1  0
 26 25  2  0
  1 27  1  1
  2 28  1  1
  3 29  1  0
  3 30  1  0
  5 31  1  0
  5 32  1  0
  6 33  1  6
  7 34  1  0
  9 35  1  0
  9 36  1  0
 12 37  1  0
 13 38  1  0
 15 39  1  0
 18 40  1  0
 20 41  1  0
 22 42  1  0
 23 43  1  0
 24 44  1  0
 26 45  1  0
M  ISO  8  27  13  28  13  29  13  30  13  31  13  32  13  33  13  34   3
M  ISO  8  35   8  36   8  37  14  38  14  39  14  40  14  41  14  42   9
M  ISO  3  43  14  44  14  45  14
M  END
>  <minimizedAffinity>  (1) 
-6.27254105

>  <minimizedRMSD>  (1) 
0.564763546

$$$$
