
     RDKit          3D

 44 48  0  0  1  0  0  0  0  0999 V2000
   36.1170   30.2600   46.8570 C   0  0  0  0  0  0  0  0  0  0  0  0
   37.0670   30.6940   47.7500 C   0  0  0  0  0  0  0  0  0  0  0  0
   38.1540   31.4790   47.3350 C   0  0  0  0  0  0  0  0  0  0  0  0
   38.1990   31.7830   45.9720 C   0  0  0  0  0  0  0  0  0  0  0  0
   39.1520   32.5310   45.3230 N   0  0  0  0  0  0  0  0  0  0  0  0
   38.7860   32.5590   44.0320 C   0  0  0  0  0  0  0  0  0  0  0  0
   37.6730   31.8690   43.8730 N   0  0  0  0  0  0  0  0  0  0  0  0
   37.2750   31.3710   45.0540 C   0  0  0  0  0  0  0  0  0  0  0  0
   36.2090   30.5900   45.5160 C   0  0  0  0  0  0  0  0  0  0  0  0
   37.5580   30.1810   51.4500 C   0  0  0  0  0  0  0  0  0  0  0  0
   37.8480   30.5990   50.1530 C   0  0  0  0  0  0  0  0  0  0  0  0
   36.9470   30.3400   49.1540 C   0  0  0  0  0  0  0  0  0  0  0  0
   35.7920   29.6710   49.5080 N   0  0  0  0  0  0  0  0  0  0  0  0
   35.5210   29.2700   50.7660 C   0  0  0  0  0  0  0  0  0  0  0  0
   36.3920   29.5240   51.7150 N   0  0  0  0  0  0  0  0  0  0  0  0
   39.5230   33.2350   43.0600 O   0  0  0  0  0  0  0  0  0  0  0  0
   38.6000   31.5690   41.7590 N   0  0  0  0  0  0  0  0  0  0  0  0
   39.2510   32.8680   41.7170 C   0  0  1  0  0  0  0  0  0  0  0  0
   38.3890   33.8480   41.0750 C   0  0  0  0  0  0  0  0  0  0  0  0
   38.1670   33.4600   39.7440 O   0  0  0  0  0  0  0  0  0  0  0  0
   37.6750   32.1970   39.5820 C   0  0  0  0  0  0  0  0  0  0  0  0
   38.4520   31.1770   40.3670 C   0  0  1  0  0  0  0  0  0  0  0  0
   39.8050   31.0910   39.7820 C   0  0  0  0  0  0  0  0  0  0  0  0
   40.9320   30.5840   40.2740 C   0  0  0  0  0  0  0  0  0  0  0  0
   42.1060   30.5970   39.5680 C   0  0  0  0  0  0  0  0  0  0  0  0
   41.9850   31.2060   38.2650 C   0  0  0  0  0  0  0  0  0  0  0  0
   40.2540   31.6990   38.1530 S   0  0  0  0  0  0  0  0  0  0  0  0
   35.2763   29.6451   47.2109 H   0  0  0  0  0  0  0  0  0  0  0  0
   38.9221   31.8326   48.0385 H   0  0  0  0  0  0  0  0  0  0  0  0
   39.9792   32.9791   45.7423 H   0  0  0  0  0  0  0  0  0  0  0  0
   35.4419   30.2374   44.8109 H   0  0  0  0  0  0  0  0  0  0  0  0
   38.2714   30.3813   52.2630 H   0  0  0  0  0  0  0  0  0  0  0  0
   38.7866   31.1292   49.9343 H   0  0  0  0  0  0  0  0  0  0  0  0
   34.5852   28.7385   50.9939 H   0  0  0  0  0  0  0  0  0  0  0  0
   39.1828   30.8883   42.2668 H   0  0  0  0  0  0  0  0  0  0  0  0
   40.1812   32.8254   41.1315 H   0  0  0  0  0  0  0  0  0  0  0  0
   37.4287   33.9003   41.6089 H   0  0  0  0  0  0  0  0  0  0  0  0
   38.8696   34.8372   41.0983 H   0  0  0  0  0  0  0  0  0  0  0  0
   36.6278   32.1795   39.9182 H   0  0  0  0  0  0  0  0  0  0  0  0
   37.7592   31.9371   38.5165 H   0  0  0  0  0  0  0  0  0  0  0  0
   37.9125   30.2193   40.3248 H   0  0  0  0  0  0  0  0  0  0  0  0
   40.9210   30.1399   41.2803 H   0  0  0  0  0  0  0  0  0  0  0  0
   43.0486   30.1837   39.9562 H   0  0  0  0  0  0  0  0  0  0  0  0
   42.7728   31.3396   37.5090 H   0  0  0  0  0  0  0  0  0  0  0  0
  1  2  2  0
  2 12  1  0
  3  2  1  0
  4  3  2  0
  5  4  1  0
  6  5  1  0
  7  6  2  0
  7  8  1  0
  8  9  2  0
  8  4  1  0
  9  1  1  0
 10 15  2  0
 11 10  1  0
 12 13  1  0
 12 11  2  0
 13 14  2  0
 14 15  1  0
 16  6  1  0
 18 17  1  0
 18 16  1  0
 19 18  1  0
 20 19  1  0
 21 20  1  0
 21 22  1  0
 22 17  1  0
 23 24  2  0
 23 22  1  0
 25 24  1  0
 26 25  2  0
 27 26  1  0
 27 23  1  0
  1 28  1  0
  3 29  1  0
  5 30  1  0
  9 31  1  0
 10 32  1  0
 11 33  1  0
 14 34  1  0
 17 35  1  0
 18 36  1  6
 19 37  1  0
 19 38  1  0
 21 39  1  0
 21 40  1  0
 22 41  1  1
 24 42  1  0
 25 43  1  0
 26 44  1  0
M  ISO  8  28  14  29  14  30   9  31  14  32  14  33  14  34  14  35   5
M  ISO  8  36  13  37  13  38  13  39  13  40  13  41  13  42  14  43  14
M  ISO  1  44  14
M  END
>  <minimizedAffinity>  (1) 
-5.72687769

>  <minimizedRMSD>  (1) 
1.12045217

$$$$
