
     RDKit          3D

 37 39  0  0  1  0  0  0  0  0999 V2000
   39.0050   32.0250   47.4710 C   0  0  0  0  0  0  0  0  0  0  0  0
   37.9910   31.0750   47.5470 C   0  0  0  0  0  0  0  0  0  0  0  0
   37.0060   31.1160   48.5130 C   0  0  0  0  0  0  0  0  0  0  0  0
   37.1110   32.1500   49.3740 N   0  0  0  0  0  0  0  0  0  0  0  0
   38.0760   33.0860   49.3330 C   0  0  0  0  0  0  0  0  0  0  0  0
   39.0210   33.0120   48.3730 N   0  0  0  0  0  0  0  0  0  0  0  0
   35.9910   30.1560   48.5770 N   0  0  0  0  0  0  0  0  0  0  0  0
   36.0930   29.1880   49.6340 C   0  0  0  0  0  0  0  0  0  0  0  0
   34.9180   28.2830   49.7800 C   0  0  0  0  0  0  0  0  0  0  0  0
   33.8960   28.3640   48.8570 N   0  0  0  0  0  0  0  0  0  0  0  0
   34.0320   29.0080   47.6420 C   0  0  0  0  0  0  0  0  0  0  0  0
   34.9340   30.2090   47.6010 C   0  0  2  0  0  0  0  0  0  0  0  0
   35.4230   30.3000   46.1830 C   0  0  0  0  0  0  0  0  0  0  0  0
   34.5860   29.3040   45.3820 C   0  0  0  0  0  0  0  0  0  0  0  0
   35.4000   28.9470   44.1180 C   0  0  0  0  0  0  0  0  0  0  0  0
   35.1780   28.0030   43.1760 C   0  0  0  0  0  0  0  0  0  0  0  0
   36.0680   27.9100   42.1620 C   0  0  0  0  0  0  0  0  0  0  0  0
   37.1610   28.7860   42.1420 C   0  0  0  0  0  0  0  0  0  0  0  0
   36.8170   29.7840   43.7220 S   0  0  0  0  0  0  0  0  0  0  0  0
   39.7750   31.9654   46.6877 H   0  0  0  0  0  0  0  0  0  0  0  0
   37.9738   30.2598   46.8086 H   0  0  0  0  0  0  0  0  0  0  0  0
   38.0945   33.9006   50.0720 H   0  0  0  0  0  0  0  0  0  0  0  0
   36.9798   28.5662   49.4418 H   0  0  0  0  0  0  0  0  0  0  0  0
   36.1543   29.7627   50.5699 H   0  0  0  0  0  0  0  0  0  0  0  0
   35.2991   27.2516   49.7501 H   0  0  0  0  0  0  0  0  0  0  0  0
   34.4506   28.6053   50.7221 H   0  0  0  0  0  0  0  0  0  0  0  0
   33.6346   27.3925   48.6362 H   0  0  0  0  0  0  0  0  0  0  0  0
   34.4228   28.2753   46.9206 H   0  0  0  0  0  0  0  0  0  0  0  0
   33.0291   29.3974   47.4125 H   0  0  0  0  0  0  0  0  0  0  0  0
   34.3921   31.1240   47.8823 H   0  0  0  0  0  0  0  0  0  0  0  0
   35.2795   31.3190   45.7942 H   0  0  0  0  0  0  0  0  0  0  0  0
   36.4966   30.0712   46.1125 H   0  0  0  0  0  0  0  0  0  0  0  0
   34.3998   28.3996   45.9798 H   0  0  0  0  0  0  0  0  0  0  0  0
   33.6109   29.7362   45.1130 H   0  0  0  0  0  0  0  0  0  0  0  0
   34.3057   27.3352   43.2322 H   0  0  0  0  0  0  0  0  0  0  0  0
   35.9361   27.1605   41.3678 H   0  0  0  0  0  0  0  0  0  0  0  0
   37.9843   28.8718   41.4176 H   0  0  0  0  0  0  0  0  0  0  0  0
  1  2  2  0
  1  6  1  0
  2  3  1  0
  3  7  1  0
  3  4  2  0
  5  4  1  0
  6  5  2  0
  7  8  1  0
  8  9  1  0
 10  9  1  0
 11 10  1  0
 12 11  1  0
 12  7  1  0
 13 12  1  0
 14 13  1  0
 15 14  1  0
 16 15  2  0
 17 16  1  0
 18 17  2  0
 18 19  1  0
 19 15  1  0
  1 20  1  0
  2 21  1  0
  5 22  1  0
  8 23  1  0
  8 24  1  0
  9 25  1  0
  9 26  1  0
 10 27  1  0
 11 28  1  0
 11 29  1  0
 12 30  1  1
 13 31  1  0
 13 32  1  0
 14 33  1  0
 14 34  1  0
 16 35  1  0
 17 36  1  0
 18 37  1  0
M  ISO  8  20  14  21  14  22  14  23  13  24  13  25  13  26  13  27   5
M  ISO  8  28  13  29  13  30  13  31   8  32   8  33   8  34   8  35  14
M  ISO  2  36  14  37  14
M  END
>  <minimizedAffinity>  (1) 
-4.62297344

>  <minimizedRMSD>  (1) 
7.54334688

$$$$
