
     RDKit          3D

 33 36  0  0  0  0  0  0  0  0999 V2000
   35.3800   28.9890   49.2740 C   0  0  0  0  0  0  0  0  0  0  0  0
   35.4430   30.0060   48.2710 C   0  0  0  0  0  0  0  0  0  0  0  0
   34.5400   29.9140   47.2050 C   0  0  0  0  0  0  0  0  0  0  0  0
   33.6680   28.8900   47.1720 N   0  0  0  0  0  0  0  0  0  0  0  0
   33.6310   27.9340   48.1430 C   0  0  0  0  0  0  0  0  0  0  0  0
   34.4880   27.9950   49.1820 N   0  0  0  0  0  0  0  0  0  0  0  0
   36.5180   31.5850   49.7580 C   0  0  0  0  0  0  0  0  0  0  0  0
   36.4480   31.0120   48.5020 C   0  0  0  0  0  0  0  0  0  0  0  0
   37.3580   31.4460   47.5380 C   0  0  0  0  0  0  0  0  0  0  0  0
   38.2870   32.4310   47.8920 C   0  0  0  0  0  0  0  0  0  0  0  0
   39.2690   33.0420   47.2020 N   0  0  0  0  0  0  0  0  0  0  0  0
   39.8920   33.9220   47.9780 C   0  0  0  0  0  0  0  0  0  0  0  0
   39.3100   33.8870   49.1930 N   0  0  0  0  0  0  0  0  0  0  0  0
   38.3340   32.9810   49.1410 C   0  0  0  0  0  0  0  0  0  0  0  0
   37.4370   32.5520   50.0910 C   0  0  0  0  0  0  0  0  0  0  0  0
   32.6300   26.8380   48.0210 C   0  0  0  0  0  0  0  0  0  0  0  0
   31.2310   27.4180   48.2280 C   0  0  0  0  0  0  0  0  0  0  0  0
   30.7280   27.5920   49.4550 C   0  0  0  0  0  0  0  0  0  0  0  0
   29.5310   28.0850   49.7800 C   0  0  0  0  0  0  0  0  0  0  0  0
   28.8180   28.4210   48.6180 C   0  0  0  0  0  0  0  0  0  0  0  0
   30.0110   27.9630   47.1810 S   0  0  0  0  0  0  0  0  0  0  0  0
   36.0709   29.0236   50.1292 H   0  0  0  0  0  0  0  0  0  0  0  0
   34.5435   30.6690   46.4050 H   0  0  0  0  0  0  0  0  0  0  0  0
   35.8053   31.2519   50.5268 H   0  0  0  0  0  0  0  0  0  0  0  0
   37.3457   31.0236   46.5224 H   0  0  0  0  0  0  0  0  0  0  0  0
   39.5028   32.8544   46.2166 H   0  0  0  0  0  0  0  0  0  0  0  0
   40.7336   34.5652   47.6814 H   0  0  0  0  0  0  0  0  0  0  0  0
   37.4545   32.9774   51.1053 H   0  0  0  0  0  0  0  0  0  0  0  0
   32.6978   26.3861   47.0204 H   0  0  0  0  0  0  0  0  0  0  0  0
   32.8288   26.0663   48.7793 H   0  0  0  0  0  0  0  0  0  0  0  0
   31.3755   27.2945   50.2930 H   0  0  0  0  0  0  0  0  0  0  0  0
   29.1579   28.2097   50.8072 H   0  0  0  0  0  0  0  0  0  0  0  0
   27.8072   28.8488   48.5460 H   0  0  0  0  0  0  0  0  0  0  0  0
  2  8  1  0
  2  1  2  0
  3  2  1  0
  4  3  2  0
  4  5  1  0
  5  6  2  0
  6  1  1  0
  7 15  2  0
  8  7  1  0
  9 10  1  0
  9  8  2  0
 10 14  2  0
 11 10  1  0
 11 12  1  0
 12 13  2  0
 14 13  1  0
 14 15  1  0
 16  5  1  0
 16 17  1  0
 17 18  2  0
 18 19  1  0
 20 19  2  0
 21 17  1  0
 21 20  1  0
  1 22  1  0
  3 23  1  0
  7 24  1  0
  9 25  1  0
 11 26  1  0
 12 27  1  0
 15 28  1  0
 16 29  1  0
 16 30  1  0
 18 31  1  0
 19 32  1  0
 20 33  1  0
M  ISO  8  22  14  23  14  24  14  25  14  26   9  27  14  28  14  29   8
M  ISO  4  30   8  31  14  32  14  33  14
M  END
>  <minimizedAffinity>  (1) 
-6.27790642

>  <minimizedRMSD>  (1) 
1.88379896

$$$$
