
     RDKit          3D

 33 35  0  0  0  0  0  0  0  0999 V2000
   35.1990   29.3470   50.4490 C   0  0  0  0  0  0  0  0  0  0  0  0
   36.2180   30.1140   49.8010 C   0  0  0  0  0  0  0  0  0  0  0  0
   36.2170   30.1830   48.4200 C   0  0  0  0  0  0  0  0  0  0  0  0
   35.2230   29.4990   47.7650 N   0  0  0  0  0  0  0  0  0  0  0  0
   34.2910   28.7980   48.3660 C   0  0  0  0  0  0  0  0  0  0  0  0
   34.2790   28.7220   49.6890 N   0  0  0  0  0  0  0  0  0  0  0  0
   32.7520   30.5700   46.4390 Cl  0  0  0  0  0  0  0  0  0  0  0  0
   32.4940   28.8350   46.6450 C   0  0  0  0  0  0  0  0  0  0  0  0
   33.2740   28.1150   47.5710 C   0  0  0  0  0  0  0  0  0  0  0  0
   33.1040   26.7540   47.7630 C   0  0  0  0  0  0  0  0  0  0  0  0
   32.1180   26.1310   46.9900 C   0  0  0  0  0  0  0  0  0  0  0  0
   31.3460   26.8080   46.0830 C   0  0  0  0  0  0  0  0  0  0  0  0
   30.1490   25.9190   45.1770 Cl  0  0  0  0  0  0  0  0  0  0  0  0
   31.5450   28.1740   45.9170 C   0  0  0  0  0  0  0  0  0  0  0  0
   30.7190   28.9160   44.9420 C   0  0  0  0  0  0  0  0  0  0  0  0
   29.6680   28.1190   44.4790 F   0  0  0  0  0  0  0  0  0  0  0  0
   31.4360   29.4340   43.9200 F   0  0  0  0  0  0  0  0  0  0  0  0
   30.0960   29.9820   45.5860 F   0  0  0  0  0  0  0  0  0  0  0  0
   37.1340   30.9580   47.6320 C   0  0  0  0  0  0  0  0  0  0  0  0
   38.0990   31.8920   47.6650 C   0  0  0  0  0  0  0  0  0  0  0  0
   38.7220   32.4030   46.5960 C   0  0  0  0  0  0  0  0  0  0  0  0
   38.3730   31.9570   45.2860 C   0  0  0  0  0  0  0  0  0  0  0  0
   37.0500   30.7250   45.8040 S   0  0  0  0  0  0  0  0  0  0  0  0
   37.2540   30.7920   50.6340 C   0  0  0  0  0  0  0  0  0  0  0  0
   38.5390   30.4730   50.2140 F   0  0  0  0  0  0  0  0  0  0  0  0
   37.0310   32.1350   50.5990 F   0  0  0  0  0  0  0  0  0  0  0  0
   37.1690   30.4090   51.9750 F   0  0  0  0  0  0  0  0  0  0  0  0
   35.1674   29.2692   51.5458 H   0  0  0  0  0  0  0  0  0  0  0  0
   33.7129   26.1916   48.4861 H   0  0  0  0  0  0  0  0  0  0  0  0
   31.9556   25.0504   47.1161 H   0  0  0  0  0  0  0  0  0  0  0  0
   38.4026   32.2683   48.6530 H   0  0  0  0  0  0  0  0  0  0  0  0
   39.5028   33.1666   46.7273 H   0  0  0  0  0  0  0  0  0  0  0  0
   38.7544   32.2417   44.2943 H   0  0  0  0  0  0  0  0  0  0  0  0
  2  1  2  0
  2 24  1  0
  3  2  1  0
  4  5  1  0
  4  3  2  0
  5  6  2  0
  6  1  1  0
  7  8  1  0
  8  9  2  0
  9 10  1  0
  9  5  1  0
 11 10  2  0
 12 11  1  0
 13 12  1  0
 14 12  2  0
 14  8  1  0
 15 18  1  0
 15 14  1  0
 16 15  1  0
 17 15  1  0
 19 20  2  0
 19  3  1  0
 21 20  1  0
 22 23  1  0
 22 21  2  0
 23 19  1  0
 24 27  1  0
 25 24  1  0
 26 24  1  0
  1 28  1  0
 10 29  1  0
 11 30  1  0
 20 31  1  0
 21 32  1  0
 22 33  1  0
M  ISO  6  28  14  29  14  30  14  31  14  32  14  33  14
M  END
>  <minimizedAffinity>  (1) 
-6.30477571

>  <minimizedRMSD>  (1) 
0.851357341

$$$$
