
     RDKit          3D

 26 28  0  0  1  0  0  0  0  0999 V2000
   33.8920   28.9440   49.3020 C   0  0  2  0  0  0  0  0  0  0  0  0
   34.5220   27.5610   48.8830 C   0  0  0  0  0  0  0  0  0  0  0  0
   33.1150   27.9840   48.5400 C   0  0  2  0  0  0  0  0  0  0  0  0
   32.7290   28.1740   47.1590 C   0  0  0  0  0  0  0  0  0  0  0  0
   31.6220   28.7390   46.6280 C   0  0  0  0  0  0  0  0  0  0  0  0
   31.4070   28.8250   45.2880 C   0  0  0  0  0  0  0  0  0  0  0  0
   32.4510   28.2680   44.4910 C   0  0  0  0  0  0  0  0  0  0  0  0
   33.6750   27.6580   45.7730 S   0  0  0  0  0  0  0  0  0  0  0  0
   34.6690   30.0460   48.6720 C   0  0  0  0  0  0  0  0  0  0  0  0
   34.1640   30.6080   47.6410 O   0  0  0  0  0  0  0  0  0  0  0  0
   38.1360   31.4140   48.9730 C   0  0  0  0  0  0  0  0  0  0  0  0
   36.8990   31.0750   48.4450 C   0  0  0  0  0  0  0  0  0  0  0  0
   35.9440   30.4270   49.2310 C   0  0  0  0  0  0  0  0  0  0  0  0
   36.2750   30.1570   50.4950 N   0  0  0  0  0  0  0  0  0  0  0  0
   37.4980   30.5000   50.9910 C   0  0  0  0  0  0  0  0  0  0  0  0
   38.4130   31.1130   50.2590 N   0  0  0  0  0  0  0  0  0  0  0  0
   33.6094   29.5281   50.1903 H   0  0  0  0  0  0  0  0  0  0  0  0
   35.2978   27.5112   48.1048 H   0  0  0  0  0  0  0  0  0  0  0  0
   35.0004   26.7122   49.3935 H   0  0  0  0  0  0  0  0  0  0  0  0
   32.1152   27.5574   48.7084 H   0  0  0  0  0  0  0  0  0  0  0  0
   30.8614   29.1473   47.3098 H   0  0  0  0  0  0  0  0  0  0  0  0
   30.5058   29.2844   44.8558 H   0  0  0  0  0  0  0  0  0  0  0  0
   32.5205   28.2106   43.3947 H   0  0  0  0  0  0  0  0  0  0  0  0
   38.8847   31.9238   48.3489 H   0  0  0  0  0  0  0  0  0  0  0  0
   36.6682   31.3189   47.3975 H   0  0  0  0  0  0  0  0  0  0  0  0
   37.7320   30.2580   52.0382 H   0  0  0  0  0  0  0  0  0  0  0  0
  2  1  1  0
  3  2  1  0
  3  1  1  0
  4  3  1  0
  5  4  2  0
  6  5  1  0
  7  6  2  0
  7  8  1  0
  8  4  1  0
  9 13  1  0
  9  1  1  0
 10  9  2  0
 11 16  2  0
 12 11  1  0
 12 13  2  0
 13 14  1  0
 14 15  2  0
 16 15  1  0
  1 17  1  1
  2 18  1  0
  2 19  1  0
  3 20  1  1
  5 21  1  0
  6 22  1  0
  7 23  1  0
 11 24  1  0
 12 25  1  0
 15 26  1  0
M  ISO  8  17  13  18  13  19  13  20  13  21  14  22  14  23  14  24  14
M  ISO  2  25  14  26  14
M  END
>  <minimizedAffinity>  (1) 
-4.13534975

>  <minimizedRMSD>  (1) 
7.36812305

$$$$
