
     RDKit          3D

 34 37  0  0  0  0  0  0  0  0999 V2000
   33.2880   28.4770   48.2280 C   0  0  0  0  0  0  0  0  0  0  0  0
   34.0870   27.9490   49.1840 C   0  0  0  0  0  0  0  0  0  0  0  0
   35.2610   28.5270   49.6350 C   0  0  0  0  0  0  0  0  0  0  0  0
   35.6800   29.7110   49.1080 C   0  0  0  0  0  0  0  0  0  0  0  0
   34.8570   30.2640   48.1180 C   0  0  0  0  0  0  0  0  0  0  0  0
   33.7230   29.6590   47.7150 N   0  0  0  0  0  0  0  0  0  0  0  0
   31.0990   27.3130   48.6120 C   0  0  0  0  0  0  0  0  0  0  0  0
   32.0720   27.8720   47.7650 C   0  0  0  0  0  0  0  0  0  0  0  0
   31.8100   27.8210   46.4020 C   0  0  0  0  0  0  0  0  0  0  0  0
   30.6660   27.2520   45.9480 N   0  0  0  0  0  0  0  0  0  0  0  0
   29.7630   26.7290   46.8140 C   0  0  0  0  0  0  0  0  0  0  0  0
   29.9730   26.7560   48.1320 N   0  0  0  0  0  0  0  0  0  0  0  0
   36.8280   30.4370   49.4370 O   0  0  0  0  0  0  0  0  0  0  0  0
   37.5110   31.1870   48.4950 C   0  0  0  0  0  0  0  0  0  0  0  0
   38.3540   32.1660   49.0380 C   0  0  0  0  0  0  0  0  0  0  0  0
   38.9820   32.8490   48.0180 C   0  0  0  0  0  0  0  0  0  0  0  0
   38.5100   32.2770   46.9020 N   0  0  0  0  0  0  0  0  0  0  0  0
   37.6580   31.3140   47.1700 N   0  0  0  0  0  0  0  0  0  0  0  0
   38.8010   32.5720   45.5200 C   0  0  0  0  0  0  0  0  0  0  0  0
   37.8490   32.3450   44.5660 C   0  0  0  0  0  0  0  0  0  0  0  0
   37.9890   32.5740   43.2560 C   0  0  0  0  0  0  0  0  0  0  0  0
   39.2890   33.1110   42.8760 C   0  0  0  0  0  0  0  0  0  0  0  0
   40.2300   33.2370   44.5520 S   0  0  0  0  0  0  0  0  0  0  0  0
   33.7820   26.9930   49.6345 H   0  0  0  0  0  0  0  0  0  0  0  0
   35.8544   28.0312   50.4174 H   0  0  0  0  0  0  0  0  0  0  0  0
   35.1453   31.2200   47.6565 H   0  0  0  0  0  0  0  0  0  0  0  0
   31.2636   27.3318   49.6995 H   0  0  0  0  0  0  0  0  0  0  0  0
   32.5328   28.2435   45.6886 H   0  0  0  0  0  0  0  0  0  0  0  0
   28.8407   26.2743   46.4233 H   0  0  0  0  0  0  0  0  0  0  0  0
   38.4932   32.3596   50.1118 H   0  0  0  0  0  0  0  0  0  0  0  0
   39.7047   33.6741   48.1013 H   0  0  0  0  0  0  0  0  0  0  0  0
   36.8845   31.9389   44.9050 H   0  0  0  0  0  0  0  0  0  0  0  0
   37.1901   32.3738   42.5268 H   0  0  0  0  0  0  0  0  0  0  0  0
   39.6476   33.3803   41.8716 H   0  0  0  0  0  0  0  0  0  0  0  0
  1  2  2  0
  2  3  1  0
  4 13  1  0
  4  3  2  0
  5  4  1  0
  6  5  2  0
  6  1  1  0
  8  1  1  0
  8  7  2  0
  9  8  1  0
 10  9  2  0
 10 11  1  0
 11 12  2  0
 12  7  1  0
 14 15  1  0
 14 13  1  0
 16 15  2  0
 17 18  1  0
 17 16  1  0
 18 14  2  0
 19 17  1  0
 20 19  2  0
 21 20  1  0
 22 21  2  0
 22 23  1  0
 23 19  1  0
  2 24  1  0
  3 25  1  0
  5 26  1  0
  7 27  1  0
  9 28  1  0
 11 29  1  0
 15 30  1  0
 16 31  1  0
 20 32  1  0
 21 33  1  0
 22 34  1  0
M  ISO  8  24  14  25  14  26  14  27  14  28  14  29  14  30  14  31  14
M  ISO  3  32  14  33  14  34  14
M  END
>  <minimizedAffinity>  (1) 
-5.75184727

>  <minimizedRMSD>  (1) 
1.60828531

$$$$
