
     RDKit          3D

 39 43  0  0  0  0  0  0  0  0999 V2000
   35.5140   29.5310   49.6080 C   0  0  0  0  0  0  0  0  0  0  0  0
   36.5700   29.0750   50.3880 C   0  0  0  0  0  0  0  0  0  0  0  0
   37.6890   29.6180   49.7640 C   0  0  0  0  0  0  0  0  0  0  0  0
   37.2870   30.3500   48.6780 C   0  0  0  0  0  0  0  0  0  0  0  0
   35.9700   30.2750   48.6150 O   0  0  0  0  0  0  0  0  0  0  0  0
   38.6340   32.3210   48.1180 C   0  0  0  0  0  0  0  0  0  0  0  0
   38.1280   31.0880   47.7430 C   0  0  0  0  0  0  0  0  0  0  0  0
   38.3970   30.5280   46.4970 C   0  0  0  0  0  0  0  0  0  0  0  0
   39.1960   31.2220   45.5990 C   0  0  0  0  0  0  0  0  0  0  0  0
   39.6390   30.9700   44.3420 N   0  0  0  0  0  0  0  0  0  0  0  0
   40.3770   32.0040   43.9820 N   0  0  0  0  0  0  0  0  0  0  0  0
   40.4270   32.9210   44.9620 C   0  0  0  0  0  0  0  0  0  0  0  0
   39.6720   32.4410   46.0200 C   0  0  0  0  0  0  0  0  0  0  0  0
   39.4440   33.0470   47.2340 C   0  0  0  0  0  0  0  0  0  0  0  0
   34.1120   29.2150   49.8730 C   0  0  0  0  0  0  0  0  0  0  0  0
   33.5420   29.7800   50.8240 O   0  0  0  0  0  0  0  0  0  0  0  0
   31.4280   27.2160   48.4560 C   0  0  0  0  0  0  0  0  0  0  0  0
   32.0560   26.4630   47.4570 C   0  0  0  0  0  0  0  0  0  0  0  0
   33.4000   26.6490   47.2770 C   0  0  0  0  0  0  0  0  0  0  0  0
   34.0630   27.5270   48.0450 N   0  0  0  0  0  0  0  0  0  0  0  0
   33.4300   28.2530   49.0180 C   0  0  0  0  0  0  0  0  0  0  0  0
   32.1160   28.0730   49.1970 N   0  0  0  0  0  0  0  0  0  0  0  0
   34.0980   25.8900   46.2490 C   0  0  0  0  0  0  0  0  0  0  0  0
   34.7040   24.6980   46.2260 C   0  0  0  0  0  0  0  0  0  0  0  0
   35.2910   24.2080   45.1160 C   0  0  0  0  0  0  0  0  0  0  0  0
   35.2040   25.0830   43.9710 C   0  0  0  0  0  0  0  0  0  0  0  0
   34.2730   26.5360   44.6240 S   0  0  0  0  0  0  0  0  0  0  0  0
   36.5307   28.4377   51.2837 H   0  0  0  0  0  0  0  0  0  0  0  0
   38.7304   29.4813   50.0907 H   0  0  0  0  0  0  0  0  0  0  0  0
   38.3999   32.7315   49.1113 H   0  0  0  0  0  0  0  0  0  0  0  0
   37.9808   29.5462   46.2272 H   0  0  0  0  0  0  0  0  0  0  0  0
   39.4382   30.1327   43.7768 H   0  0  0  0  0  0  0  0  0  0  0  0
   40.9683   33.8781   44.9305 H   0  0  0  0  0  0  0  0  0  0  0  0
   39.8665   34.0293   47.4920 H   0  0  0  0  0  0  0  0  0  0  0  0
   30.3484   27.0948   48.6285 H   0  0  0  0  0  0  0  0  0  0  0  0
   31.4908   25.7489   46.8400 H   0  0  0  0  0  0  0  0  0  0  0  0
   34.7241   24.0957   47.1462 H   0  0  0  0  0  0  0  0  0  0  0  0
   35.7916   23.2290   45.0853 H   0  0  0  0  0  0  0  0  0  0  0  0
   35.5971   24.9225   42.9562 H   0  0  0  0  0  0  0  0  0  0  0  0
  1 15  1  0
  1  2  2  0
  3  2  1  0
  4  3  2  0
  5  4  1  0
  5  1  1  0
  7  6  2  0
  7  4  1  0
  8  7  1  0
  9 13  1  0
  9  8  2  0
 10  9  1  0
 11 10  1  0
 11 12  2  0
 12 13  1  0
 13 14  2  0
 14  6  1  0
 15 16  2  0
 17 22  2  0
 18 17  1  0
 19 18  2  0
 19 20  1  0
 20 21  2  0
 21 22  1  0
 21 15  1  0
 23 19  1  0
 24 23  2  0
 25 24  1  0
 26 27  1  0
 26 25  2  0
 27 23  1  0
  2 28  1  0
  3 29  1  0
  6 30  1  0
  8 31  1  0
 10 32  1  0
 12 33  1  0
 14 34  1  0
 17 35  1  0
 18 36  1  0
 24 37  1  0
 25 38  1  0
 26 39  1  0
M  ISO  8  28  14  29  14  30  14  31  14  32   9  33  14  34  14  35  14
M  ISO  4  36  14  37  14  38  14  39  14
M  END
>  <minimizedAffinity>  (1) 
-6.52332211

>  <minimizedRMSD>  (1) 
0.630630434

$$$$
