
     RDKit          3D

 39 42  0  0  0  0  0  0  0  0999 V2000
   38.3270   32.2300   47.4210 C   0  0  0  0  0  0  0  0  0  0  0  0
   38.1590   32.1070   48.7940 C   0  0  0  0  0  0  0  0  0  0  0  0
   38.8650   33.0340   49.5570 C   0  0  0  0  0  0  0  0  0  0  0  0
   39.6760   34.0030   48.9580 C   0  0  0  0  0  0  0  0  0  0  0  0
   39.7960   34.0670   47.5830 C   0  0  0  0  0  0  0  0  0  0  0  0
   39.1130   33.1680   46.8030 C   0  0  0  0  0  0  0  0  0  0  0  0
   35.9340   31.2150   49.3370 C   0  0  0  0  0  0  0  0  0  0  0  0
   37.3280   31.1130   49.3900 C   0  0  0  0  0  0  0  0  0  0  0  0
   37.8630   30.0000   50.0500 C   0  0  0  0  0  0  0  0  0  0  0  0
   37.0100   29.0850   50.5990 N   0  0  0  0  0  0  0  0  0  0  0  0
   35.6700   29.2310   50.5200 C   0  0  0  0  0  0  0  0  0  0  0  0
   35.1260   30.2960   49.8890 N   0  0  0  0  0  0  0  0  0  0  0  0
   37.6540   31.3390   46.5590 O   0  0  0  0  0  0  0  0  0  0  0  0
   39.2330   33.2300   45.4210 O   0  0  0  0  0  0  0  0  0  0  0  0
   37.0140   32.5130   43.5070 Cl  0  0  0  0  0  0  0  0  0  0  0  0
   38.5160   31.6520   43.6310 C   0  0  0  0  0  0  0  0  0  0  0  0
   39.4060   32.1460   44.5790 C   0  0  0  0  0  0  0  0  0  0  0  0
   40.6220   31.4780   44.7070 C   0  0  0  0  0  0  0  0  0  0  0  0
   40.9660   30.3850   43.9550 C   0  0  0  0  0  0  0  0  0  0  0  0
   40.0600   29.9040   43.0100 C   0  0  0  0  0  0  0  0  0  0  0  0
   38.8690   30.5590   42.8850 C   0  0  0  0  0  0  0  0  0  0  0  0
   37.9360   30.0720   41.9170 C   0  0  0  0  0  0  0  0  0  0  0  0
   36.9220   29.0700   41.9720 C   0  0  0  0  0  0  0  0  0  0  0  0
   36.2180   28.8860   40.8100 C   0  0  0  0  0  0  0  0  0  0  0  0
   36.4970   29.6180   39.7240 C   0  0  0  0  0  0  0  0  0  0  0  0
   37.8530   30.7340   40.1750 S   0  0  0  0  0  0  0  0  0  0  0  0
   38.7829   33.0032   50.6535 H   0  0  0  0  0  0  0  0  0  0  0  0
   40.2232   34.7206   49.5870 H   0  0  0  0  0  0  0  0  0  0  0  0
   40.4340   34.8325   47.1173 H   0  0  0  0  0  0  0  0  0  0  0  0
   35.4841   32.0784   48.8251 H   0  0  0  0  0  0  0  0  0  0  0  0
   38.9520   29.8646   50.1252 H   0  0  0  0  0  0  0  0  0  0  0  0
   35.0131   28.4746   50.9743 H   0  0  0  0  0  0  0  0  0  0  0  0
   37.7671   31.4183   45.5787 H   0  0  0  0  0  0  0  0  0  0  0  0
   41.3437   31.8472   45.4505 H   0  0  0  0  0  0  0  0  0  0  0  0
   41.9409   29.8950   44.0945 H   0  0  0  0  0  0  0  0  0  0  0  0
   40.2967   29.0283   42.3878 H   0  0  0  0  0  0  0  0  0  0  0  0
   36.7194   28.4864   42.8821 H   0  0  0  0  0  0  0  0  0  0  0  0
   35.4183   28.1317   40.7695 H   0  0  0  0  0  0  0  0  0  0  0  0
   35.9988   29.5544   38.7454 H   0  0  0  0  0  0  0  0  0  0  0  0
  1  2  2  0
  2  8  1  0
  2  3  1  0
  4  3  2  0
  5  4  1  0
  6  1  1  0
  6  5  2  0
  7  8  2  0
  7 12  1  0
  8  9  1  0
  9 10  2  0
 11 10  1  0
 12 11  2  0
 13  1  1  0
 14  6  1  0
 15 16  1  0
 16 17  2  0
 17 18  1  0
 17 14  1  0
 19 18  2  0
 20 19  1  0
 21 20  2  0
 21 16  1  0
 22 23  2  0
 22 21  1  0
 24 23  1  0
 25 26  1  0
 25 24  2  0
 26 22  1  0
  3 27  1  0
  4 28  1  0
  5 29  1  0
  7 30  1  0
  9 31  1  0
 11 32  1  0
 13 33  1  0
 18 34  1  0
 19 35  1  0
 20 36  1  0
 23 37  1  0
 24 38  1  0
 25 39  1  0
M  ISO  8  27  14  28  14  29  14  30  14  31  14  32  14  33   3  34  14
M  ISO  5  35  14  36  14  37  14  38  14  39  14
M  END
>  <minimizedAffinity>  (1) 
-5.33187008

>  <minimizedRMSD>  (1) 
0.0539292619

$$$$
