
     RDKit          3D

 29 31  0  0  1  0  0  0  0  0999 V2000
   37.0470   31.3740   49.2500 C   0  0  0  0  0  0  0  0  0  0  0  0
   37.3400   32.5270   49.9690 C   0  0  0  0  0  0  0  0  0  0  0  0
   38.2510   33.3880   49.3650 C   0  0  0  0  0  0  0  0  0  0  0  0
   38.8020   33.0980   48.1540 N   0  0  0  0  0  0  0  0  0  0  0  0
   38.4880   31.9600   47.4820 C   0  0  0  0  0  0  0  0  0  0  0  0
   37.6010   31.0870   48.0360 N   0  0  0  0  0  0  0  0  0  0  0  0
   36.0620   30.4330   49.8670 C   0  0  1  0  0  0  0  0  0  0  0  0
   34.9110   29.9240   49.1230 C   0  0  2  0  0  0  0  0  0  0  0  0
   36.1170   29.0370   49.2080 C   0  0  0  0  0  0  0  0  0  0  0  0
   34.6140   30.5430   47.9170 O   0  0  0  0  0  0  0  0  0  0  0  0
   33.8910   30.0940   46.8630 C   0  0  0  0  0  0  0  0  0  0  0  0
   34.1390   29.0130   46.2910 O   0  0  0  0  0  0  0  0  0  0  0  0
   32.8940   31.0320   46.5880 N   0  0  0  0  0  0  0  0  0  0  0  0
   39.1330   31.7790   46.2270 C   0  0  0  0  0  0  0  0  0  0  0  0
   40.2830   31.1870   45.8290 C   0  0  0  0  0  0  0  0  0  0  0  0
   40.6660   31.1630   44.5290 C   0  0  0  0  0  0  0  0  0  0  0  0
   39.8140   31.7790   43.6300 C   0  0  0  0  0  0  0  0  0  0  0  0
   38.4280   32.3950   44.7710 S   0  0  0  0  0  0  0  0  0  0  0  0
   36.8839   32.7434   50.9463 H   0  0  0  0  0  0  0  0  0  0  0  0
   38.5315   34.3210   49.8757 H   0  0  0  0  0  0  0  0  0  0  0  0
   36.1308   30.8933   50.8637 H   0  0  0  0  0  0  0  0  0  0  0  0
   33.8477   29.7676   49.3572 H   0  0  0  0  0  0  0  0  0  0  0  0
   36.0973   28.1277   49.8267 H   0  0  0  0  0  0  0  0  0  0  0  0
   36.7757   28.5236   48.4921 H   0  0  0  0  0  0  0  0  0  0  0  0
   32.2342   30.8703   45.8138 H   0  0  0  0  0  0  0  0  0  0  0  0
   32.8183   31.8857   47.1593 H   0  0  0  0  0  0  0  0  0  0  0  0
   40.9265   30.7108   46.5834 H   0  0  0  0  0  0  0  0  0  0  0  0
   41.6010   30.6811   44.2072 H   0  0  0  0  0  0  0  0  0  0  0  0
   39.9137   31.8842   42.5396 H   0  0  0  0  0  0  0  0  0  0  0  0
  1  7  1  0
  1  2  2  0
  3  2  1  0
  4  3  2  0
  5  6  2  0
  5  4  1  0
  6  1  1  0
  8  9  1  0
  8  7  1  0
  9  7  1  0
 10  8  1  0
 11 10  1  0
 12 11  2  0
 13 11  1  0
 14  5  1  0
 15 14  2  0
 16 15  1  0
 17 16  2  0
 17 18  1  0
 18 14  1  0
  2 19  1  0
  3 20  1  0
  7 21  1  1
  8 22  1  1
  9 23  1  0
  9 24  1  0
 13 25  1  0
 13 26  1  0
 15 27  1  0
 16 28  1  0
 17 29  1  0
M  ISO  8  19  14  20  14  21  13  22  13  23  13  24  13  27  14  28  14
M  ISO  1  29  14
M  END
>  <minimizedAffinity>  (1) 
-5.8306694

>  <minimizedRMSD>  (1) 
2.62473607

$$$$
