
     RDKit          3D

 33 35  0  0  1  0  0  0  0  0999 V2000
   35.3120   30.3120   49.9600 C   0  0  2  0  0  0  0  0  0  0  0  0
   36.2520   31.2110   49.1940 C   0  0  0  0  0  0  0  0  0  0  0  0
   37.6860   30.8020   49.2730 C   0  0  2  0  0  0  0  0  0  0  0  0
   38.1670   30.5960   50.6920 C   0  0  0  0  0  0  0  0  0  0  0  0
   37.1680   29.9450   51.5910 C   0  0  0  0  0  0  0  0  0  0  0  0
   36.0270   29.3260   50.8150 C   0  0  0  0  0  0  0  0  0  0  0  0
   34.4580   29.5510   48.9950 C   0  0  0  0  0  0  0  0  0  0  0  0
   34.3410   30.0820   47.7000 C   0  0  0  0  0  0  0  0  0  0  0  0
   33.5360   29.3840   46.8050 C   0  0  0  0  0  0  0  0  0  0  0  0
   32.8990   28.2290   47.2120 N   0  0  0  0  0  0  0  0  0  0  0  0
   33.0440   27.7510   48.4840 C   0  0  0  0  0  0  0  0  0  0  0  0
   33.8160   28.4140   49.3550 N   0  0  0  0  0  0  0  0  0  0  0  0
   38.4620   32.0410   48.8150 C   0  0  0  0  0  0  0  0  0  0  0  0
   38.7500   33.1310   49.5420 C   0  0  0  0  0  0  0  0  0  0  0  0
   39.4610   34.1270   48.9250 C   0  0  0  0  0  0  0  0  0  0  0  0
   39.8370   33.9670   47.6200 C   0  0  0  0  0  0  0  0  0  0  0  0
   39.1160   32.2520   47.2430 S   0  0  0  0  0  0  0  0  0  0  0  0
   34.7105   30.9620   50.6125 H   0  0  0  0  0  0  0  0  0  0  0  0
   36.1607   32.2303   49.5974 H   0  0  0  0  0  0  0  0  0  0  0  0
   35.9612   31.1457   48.1351 H   0  0  0  0  0  0  0  0  0  0  0  0
   37.8191   29.8738   48.6979 H   0  0  0  0  0  0  0  0  0  0  0  0
   39.0670   29.9643   50.6624 H   0  0  0  0  0  0  0  0  0  0  0  0
   38.3602   31.5960   51.1075 H   0  0  0  0  0  0  0  0  0  0  0  0
   37.6718   29.1575   52.1707 H   0  0  0  0  0  0  0  0  0  0  0  0
   36.7497   30.7189   52.2514 H   0  0  0  0  0  0  0  0  0  0  0  0
   35.3100   28.8937   51.5284 H   0  0  0  0  0  0  0  0  0  0  0  0
   36.4538   28.5592   50.1518 H   0  0  0  0  0  0  0  0  0  0  0  0
   34.8611   31.0060   47.4071 H   0  0  0  0  0  0  0  0  0  0  0  0
   33.4076   29.7515   45.7762 H   0  0  0  0  0  0  0  0  0  0  0  0
   32.5302   26.8280   48.7905 H   0  0  0  0  0  0  0  0  0  0  0  0
   38.4287   33.2216   50.5901 H   0  0  0  0  0  0  0  0  0  0  0  0
   39.7259   35.0435   49.4726 H   0  0  0  0  0  0  0  0  0  0  0  0
   40.4032   34.6470   46.9666 H   0  0  0  0  0  0  0  0  0  0  0  0
  1  6  1  0
  2  3  1  0
  2  1  1  0
  3  4  1  0
  4  5  1  0
  6  5  1  0
  7 12  1  0
  7  1  1  0
  8  7  2  0
  9 10  2  0
  9  8  1  0
 10 11  1  0
 11 12  2  0
 13  3  1  0
 13 14  2  0
 15 14  1  0
 16 15  2  0
 17 16  1  0
 17 13  1  0
  1 18  1  1
  2 19  1  0
  2 20  1  0
  3 21  1  6
  4 22  1  0
  4 23  1  0
  5 24  1  0
  5 25  1  0
  6 26  1  0
  6 27  1  0
  8 28  1  0
  9 29  1  0
 11 30  1  0
 14 31  1  0
 15 32  1  0
 16 33  1  0
M  ISO  8  18  13  19  13  20  13  21  13  22  13  23  13  24  13  25  13
M  ISO  8  26  13  27  13  28  14  29  14  30  14  31  14  32  14  33  14
M  END
>  <minimizedAffinity>  (1) 
-6.25425148

>  <minimizedRMSD>  (1) 
0.746911049

$$$$
