
     RDKit          3D

 52 55  0  0  0  0  0  0  0  0999 V2000
   27.9470   28.2280   48.6300 C   0  0  0  0  0  0  0  0  0  0  0  0
   29.2530   27.9590   49.0780 C   0  0  0  0  0  0  0  0  0  0  0  0
   29.5080   27.4350   50.3180 C   0  0  0  0  0  0  0  0  0  0  0  0
   28.4540   27.1630   51.1510 C   0  0  0  0  0  0  0  0  0  0  0  0
   27.1830   27.4140   50.7420 C   0  0  0  0  0  0  0  0  0  0  0  0
   26.8860   27.9380   49.5100 C   0  0  0  0  0  0  0  0  0  0  0  0
   27.5470   28.8740   47.0640 S   0  0  0  0  0  0  0  0  0  0  0  0
   28.7700   28.9550   46.2000 O   0  0  0  0  0  0  0  0  0  0  0  0
   26.5000   27.9650   46.4270 O   0  0  0  0  0  0  0  0  0  0  0  0
   26.8560   30.4420   47.1590 C   0  0  0  0  0  0  0  0  0  0  0  0
   26.5730   31.0880   48.3550 C   0  0  0  0  0  0  0  0  0  0  0  0
   26.0430   32.3400   48.4310 C   0  0  0  0  0  0  0  0  0  0  0  0
   25.7760   32.9970   47.2420 C   0  0  0  0  0  0  0  0  0  0  0  0
   26.0440   32.3870   46.0240 C   0  0  0  0  0  0  0  0  0  0  0  0
   25.7210   33.1560   44.9250 C   0  0  0  0  0  0  0  0  0  0  0  0
   25.9480   32.6230   43.6770 C   0  0  0  0  0  0  0  0  0  0  0  0
   26.4830   31.3550   43.5830 C   0  0  0  0  0  0  0  0  0  0  0  0
   26.8010   30.6000   44.6850 C   0  0  0  0  0  0  0  0  0  0  0  0
   26.5820   31.1160   45.9640 C   0  0  0  0  0  0  0  0  0  0  0  0
   30.1850   28.2900   48.1180 O   0  0  0  0  0  0  0  0  0  0  0  0
   31.7170   26.1210   48.1900 O   0  0  0  0  0  0  0  0  0  0  0  0
   31.7360   27.6380   47.9510 P   0  0  1  0  0  0  0  0  0  0  0  0
   32.3810   28.0060   46.4240 O   0  0  0  0  0  0  0  0  0  0  0  0
   32.8000   28.2340   49.1430 O   0  0  0  0  0  0  0  0  0  0  0  0
   34.0770   27.7050   48.8960 C   0  0  0  0  0  0  0  0  0  0  0  0
   35.2140   29.8260   49.4320 C   0  0  0  0  0  0  0  0  0  0  0  0
   35.0860   28.7670   48.6760 C   0  0  0  0  0  0  0  0  0  0  0  0
   37.5910   32.6040   49.5880 C   0  0  0  0  0  0  0  0  0  0  0  0
   38.2130   32.5240   48.3300 C   0  0  0  0  0  0  0  0  0  0  0  0
   37.8050   31.5180   47.4510 C   0  0  0  0  0  0  0  0  0  0  0  0
   36.8140   30.6930   47.9200 N   0  0  0  0  0  0  0  0  0  0  0  0
   36.2480   30.7910   49.1060 C   0  0  0  0  0  0  0  0  0  0  0  0
   36.6460   31.7520   49.9330 N   0  0  0  0  0  0  0  0  0  0  0  0
   30.5410   27.2360   50.6396 H   0  0  0  0  0  0  0  0  0  0  0  0
   28.6372   26.7416   52.1504 H   0  0  0  0  0  0  0  0  0  0  0  0
   26.3552   27.1868   51.4298 H   0  0  0  0  0  0  0  0  0  0  0  0
   25.8432   28.1275   49.2157 H   0  0  0  0  0  0  0  0  0  0  0  0
   26.7892   30.5583   49.2945 H   0  0  0  0  0  0  0  0  0  0  0  0
   25.8345   32.8124   49.4023 H   0  0  0  0  0  0  0  0  0  0  0  0
   25.3482   34.0102   47.2625 H   0  0  0  0  0  0  0  0  0  0  0  0
   25.2954   34.1635   45.0428 H   0  0  0  0  0  0  0  0  0  0  0  0
   25.7072   33.1977   42.7705 H   0  0  0  0  0  0  0  0  0  0  0  0
   26.6623   30.9311   42.5839 H   0  0  0  0  0  0  0  0  0  0  0  0
   27.2264   29.5932   44.5608 H   0  0  0  0  0  0  0  0  0  0  0  0
   33.2354   28.4935   46.5354 H   0  0  0  0  0  0  0  0  0  0  0  0
   34.3832   27.0983   49.7610 H   0  0  0  0  0  0  0  0  0  0  0  0
   34.0208   27.0959   47.9817 H   0  0  0  0  0  0  0  0  0  0  0  0
   34.5522   29.9823   50.2966 H   0  0  0  0  0  0  0  0  0  0  0  0
   35.7711   28.6577   47.8224 H   0  0  0  0  0  0  0  0  0  0  0  0
   37.8973   33.3891   50.2950 H   0  0  0  0  0  0  0  0  0  0  0  0
   39.0015   33.2360   48.0448 H   0  0  0  0  0  0  0  0  0  0  0  0
   38.2477   31.3956   46.4515 H   0  0  0  0  0  0  0  0  0  0  0  0
  1  2  1  0
  1  6  2  0
  2  3  2  0
  3  4  1  0
  5  4  2  0
  6  5  1  0
  7 10  1  0
  7  1  1  0
  8  7  2  0
  9  7  2  0
 10 11  2  0
 11 12  1  0
 13 12  2  0
 14 13  1  0
 15 14  2  0
 16 15  1  0
 17 16  2  0
 17 18  1  0
 18 19  2  0
 19 14  1  0
 19 10  1  0
 20  2  1  0
 22 20  1  0
 22 21  2  0
 22 24  1  0
 23 22  1  0
 25 24  1  0
 27 25  1  0
 27 26  2  0
 28 33  2  0
 29 28  1  0
 30 31  1  0
 30 29  2  0
 31 32  2  0
 32 26  1  0
 32 33  1  0
  3 34  1  0
  4 35  1  0
  5 36  1  0
  6 37  1  0
 11 38  1  0
 12 39  1  0
 13 40  1  0
 15 41  1  0
 16 42  1  0
 17 43  1  0
 18 44  1  0
 23 45  1  0
 25 46  1  0
 25 47  1  0
 26 48  1  0
 27 49  1  0
 28 50  1  0
 29 51  1  0
 30 52  1  0
M  ISO  8  34  14  35  14  36  14  37  14  38  14  39  14  40  14  41  14
M  ISO  8  42  14  43  14  44  14  45   3  46   8  47   8  50  14  51  14
M  ISO  1  52  14
M  END
>  <minimizedAffinity>  (1) 
-7.35683107

>  <minimizedRMSD>  (1) 
2.55907941

$$$$
