
     RDKit          3D

 43 47  0  0  0  0  0  0  0  0999 V2000
   37.0810   29.6730   49.7800 O   0  0  0  0  0  0  0  0  0  0  0  0
   33.1620   28.3160   49.0460 C   0  0  0  0  0  0  0  0  0  0  0  0
   33.4860   28.9160   50.2130 C   0  0  0  0  0  0  0  0  0  0  0  0
   34.7370   29.3870   50.5330 C   0  0  0  0  0  0  0  0  0  0  0  0
   35.7590   29.2590   49.6310 C   0  0  0  0  0  0  0  0  0  0  0  0
   35.4340   28.6410   48.4250 C   0  0  0  0  0  0  0  0  0  0  0  0
   34.1910   28.1950   48.1560 N   0  0  0  0  0  0  0  0  0  0  0  0
   30.7570   27.8930   49.5760 C   0  0  0  0  0  0  0  0  0  0  0  0
   31.8570   27.8240   48.7110 C   0  0  0  0  0  0  0  0  0  0  0  0
   31.6280   27.2490   47.4900 C   0  0  0  0  0  0  0  0  0  0  0  0
   30.3730   26.7810   47.1780 N   0  0  0  0  0  0  0  0  0  0  0  0
   29.3540   26.8760   48.0550 C   0  0  0  0  0  0  0  0  0  0  0  0
   29.5370   27.4320   49.2590 N   0  0  0  0  0  0  0  0  0  0  0  0
   37.6450   30.6320   48.9630 C   0  0  0  0  0  0  0  0  0  0  0  0
   38.0240   31.7840   49.6270 C   0  0  0  0  0  0  0  0  0  0  0  0
   38.5790   32.6780   48.7020 C   0  0  0  0  0  0  0  0  0  0  0  0
   38.5130   32.0310   47.5160 N   0  0  0  0  0  0  0  0  0  0  0  0
   37.9690   30.8490   47.6890 N   0  0  0  0  0  0  0  0  0  0  0  0
   38.9010   32.3760   46.1910 C   0  0  0  0  0  0  0  0  0  0  0  0
   40.0160   33.1370   45.9140 C   0  0  0  0  0  0  0  0  0  0  0  0
   40.4370   33.5000   44.6530 C   0  0  0  0  0  0  0  0  0  0  0  0
   39.6670   33.0550   43.5960 C   0  0  0  0  0  0  0  0  0  0  0  0
   38.5230   32.2800   43.7900 C   0  0  0  0  0  0  0  0  0  0  0  0
   37.7930   31.8640   42.6980 C   0  0  0  0  0  0  0  0  0  0  0  0
   36.6700   31.0970   42.9830 C   0  0  0  0  0  0  0  0  0  0  0  0
   36.2390   30.7280   44.2410 C   0  0  0  0  0  0  0  0  0  0  0  0
   37.0260   31.1870   45.2480 C   0  0  0  0  0  0  0  0  0  0  0  0
   38.1630   31.9550   45.0970 C   0  0  0  0  0  0  0  0  0  0  0  0
   32.6895   29.0363   50.9621 H   0  0  0  0  0  0  0  0  0  0  0  0
   34.9160   29.8639   51.5079 H   0  0  0  0  0  0  0  0  0  0  0  0
   36.2197   28.5127   47.6659 H   0  0  0  0  0  0  0  0  0  0  0  0
   30.9008   28.3488   50.5667 H   0  0  0  0  0  0  0  0  0  0  0  0
   32.4461   27.1615   46.7599 H   0  0  0  0  0  0  0  0  0  0  0  0
   28.3609   26.4924   47.7784 H   0  0  0  0  0  0  0  0  0  0  0  0
   37.9086   31.9685   50.7053 H   0  0  0  0  0  0  0  0  0  0  0  0
   38.9798   33.6836   48.8971 H   0  0  0  0  0  0  0  0  0  0  0  0
   40.6180   33.4822   46.7675 H   0  0  0  0  0  0  0  0  0  0  0  0
   41.3380   34.1114   44.4965 H   0  0  0  0  0  0  0  0  0  0  0  0
   39.9646   33.3195   42.5706 H   0  0  0  0  0  0  0  0  0  0  0  0
   38.0804   32.1222   41.6681 H   0  0  0  0  0  0  0  0  0  0  0  0
   36.0698   30.7525   42.1280 H   0  0  0  0  0  0  0  0  0  0  0  0
   35.3400   30.1178   44.4124 H   0  0  0  0  0  0  0  0  0  0  0  0
   36.7314   30.9236   46.2746 H   0  0  0  0  0  0  0  0  0  0  0  0
  2  3  2  0
  3  4  1  0
  5  1  1  0
  5  4  2  0
  6  5  1  0
  7  6  2  0
  7  2  1  0
  9  2  1  0
  9  8  2  0
 10  9  1  0
 11 10  2  0
 11 12  1  0
 12 13  2  0
 13  8  1  0
 14 15  1  0
 14  1  1  0
 16 15  2  0
 17 18  1  0
 17 16  1  0
 18 14  2  0
 19 17  1  0
 20 19  2  0
 21 20  1  0
 22 23  1  0
 22 21  2  0
 23 28  2  0
 24 25  2  0
 24 23  1  0
 25 26  1  0
 26 27  2  0
 28 27  1  0
 28 19  1  0
  3 29  1  0
  4 30  1  0
  6 31  1  0
  8 32  1  0
 10 33  1  0
 12 34  1  0
 15 35  1  0
 16 36  1  0
 20 37  1  0
 21 38  1  0
 22 39  1  0
 24 40  1  0
 25 41  1  0
 26 42  1  0
 27 43  1  0
M  ISO  8  29  14  30  14  31  14  32  14  33  14  34  14  35  14  36  14
M  ISO  7  37  14  38  14  39  14  40  14  41  14  42  14  43  14
M  END
>  <minimizedAffinity>  (1) 
-6.47468281

>  <minimizedRMSD>  (1) 
1.82981145

$$$$
