
     RDKit          3D

 40 43  0  0  1  0  0  0  0  0999 V2000
   32.2090   28.2260   47.7020 C   0  0  2  0  0  0  0  0  0  0  0  0
   33.5710   28.1330   48.3710 C   0  0  1  0  0  0  0  0  0  0  0  0
   34.0060   26.8460   48.2600 O   0  0  0  0  0  0  0  0  0  0  0  0
   33.1530   26.1500   47.4320 C   0  0  0  0  0  0  0  0  0  0  0  0
   32.4120   27.2030   46.5900 C   0  0  1  0  0  0  0  0  0  0  0  0
   31.9890   29.5010   47.1870 O   0  0  0  0  0  0  0  0  0  0  0  0
   34.6930   29.1950   47.4080 S   0  0  0  0  0  0  0  0  0  0  0  0
   37.3590   29.4920   50.3190 C   0  0  0  0  0  0  0  0  0  0  0  0
   37.9210   30.7540   50.1800 C   0  0  0  0  0  0  0  0  0  0  0  0
   37.4550   31.5560   49.1370 C   0  0  0  0  0  0  0  0  0  0  0  0
   36.4840   31.0660   48.3150 N   0  0  0  0  0  0  0  0  0  0  0  0
   35.9670   29.8240   48.4930 C   0  0  0  0  0  0  0  0  0  0  0  0
   36.3950   29.0320   49.4870 N   0  0  0  0  0  0  0  0  0  0  0  0
   31.2300   26.6840   46.1330 O   0  0  0  0  0  0  0  0  0  0  0  0
   30.2350   27.4650   45.5710 C   0  0  0  0  0  0  0  0  0  0  0  0
   30.2220   28.2030   44.4090 C   0  0  0  0  0  0  0  0  0  0  0  0
   29.1080   28.9200   44.0320 C   0  0  0  0  0  0  0  0  0  0  0  0
   27.9720   28.9340   44.7870 C   0  0  0  0  0  0  0  0  0  0  0  0
   27.9450   28.2020   45.9680 C   0  0  0  0  0  0  0  0  0  0  0  0
   26.7810   28.2580   46.6770 C   0  0  0  0  0  0  0  0  0  0  0  0
   26.7000   27.5500   47.8570 C   0  0  0  0  0  0  0  0  0  0  0  0
   27.7820   26.8120   48.2880 C   0  0  0  0  0  0  0  0  0  0  0  0
   28.9310   26.7950   47.5300 C   0  0  0  0  0  0  0  0  0  0  0  0
   29.0730   27.4780   46.3470 C   0  0  0  0  0  0  0  0  0  0  0  0
   31.3439   28.0439   48.3566 H   0  0  0  0  0  0  0  0  0  0  0  0
   33.5312   28.4346   49.4281 H   0  0  0  0  0  0  0  0  0  0  0  0
   33.7240   25.4735   46.7791 H   0  0  0  0  0  0  0  0  0  0  0  0
   32.4491   25.5339   48.0107 H   0  0  0  0  0  0  0  0  0  0  0  0
   32.9070   27.5804   45.6831 H   0  0  0  0  0  0  0  0  0  0  0  0
   31.8782   30.1433   47.9322 H   0  0  0  0  0  0  0  0  0  0  0  0
   37.7096   28.8424   51.1346 H   0  0  0  0  0  0  0  0  0  0  0  0
   38.7042   31.1085   50.8662 H   0  0  0  0  0  0  0  0  0  0  0  0
   37.8638   32.5652   48.9811 H   0  0  0  0  0  0  0  0  0  0  0  0
   31.1173   28.2204   43.7701 H   0  0  0  0  0  0  0  0  0  0  0  0
   29.1352   29.4974   43.0961 H   0  0  0  0  0  0  0  0  0  0  0  0
   27.0937   29.5138   44.4670 H   0  0  0  0  0  0  0  0  0  0  0  0
   25.9289   28.8528   46.3164 H   0  0  0  0  0  0  0  0  0  0  0  0
   25.7755   27.5737   48.4526 H   0  0  0  0  0  0  0  0  0  0  0  0
   27.7276   26.2428   49.2277 H   0  0  0  0  0  0  0  0  0  0  0  0
   29.7831   26.2011   47.8921 H   0  0  0  0  0  0  0  0  0  0  0  0
  1  2  1  0
  3  2  1  0
  4  3  1  0
  5  4  1  0
  5  1  1  0
  6  1  1  0
  7  2  1  0
  7 12  1  0
  9  8  2  0
 10  9  1  0
 11 12  1  0
 11 10  2  0
 12 13  2  0
 13  8  1  0
 14  5  1  0
 15 14  1  0
 15 24  1  0
 16 15  2  0
 17 16  1  0
 17 18  2  0
 18 19  1  0
 19 24  2  0
 19 20  1  0
 20 21  2  0
 21 22  1  0
 23 22  2  0
 24 23  1  0
  1 25  1  1
  2 26  1  1
  4 27  1  0
  4 28  1  0
  5 29  1  6
  6 30  1  0
  8 31  1  0
  9 32  1  0
 10 33  1  0
 16 34  1  0
 17 35  1  0
 18 36  1  0
 20 37  1  0
 21 38  1  0
 22 39  1  0
 23 40  1  0
M  ISO  8  25  13  26  13  27  13  28  13  29  13  30   3  31  14  32  14
M  ISO  8  33  14  34  14  35  14  36  14  37  14  38  14  39  14  40  14
M  END
>  <minimizedAffinity>  (1) 
-5.04942751

>  <minimizedRMSD>  (1) 
2.86915827

$$$$
