
     RDKit          3D

 53 57  0  0  1  0  0  0  0  0999 V2000
   39.6830   31.9660   43.8030 C   0  0  0  0  0  0  0  0  0  0  0  0
   40.1330   28.7210   42.4310 C   0  0  1  0  0  0  0  0  0  0  0  0
   40.7150   30.1310   42.4840 C   0  0  0  0  0  0  0  0  0  0  0  0
   40.2760   30.5720   43.8570 C   0  0  2  0  0  0  0  0  0  0  0  0
   39.3920   29.6540   44.3490 O   0  0  0  0  0  0  0  0  0  0  0  0
   38.8870   28.9270   43.2820 C   0  0  0  0  0  0  0  0  0  0  0  0
   39.8070   28.3630   41.1420 O   0  0  0  0  0  0  0  0  0  0  0  0
   39.8440   27.0860   40.6620 C   0  0  0  0  0  0  0  0  0  0  0  0
   39.1150   25.9760   41.0290 C   0  0  0  0  0  0  0  0  0  0  0  0
   39.2650   24.7350   40.4450 C   0  0  0  0  0  0  0  0  0  0  0  0
   40.2040   24.6220   39.4410 C   0  0  0  0  0  0  0  0  0  0  0  0
   40.9650   25.6970   39.0290 C   0  0  0  0  0  0  0  0  0  0  0  0
   41.8650   25.4400   38.0160 C   0  0  0  0  0  0  0  0  0  0  0  0
   42.6430   26.4910   37.5790 C   0  0  0  0  0  0  0  0  0  0  0  0
   42.5060   27.7380   38.1520 C   0  0  0  0  0  0  0  0  0  0  0  0
   41.5880   27.9360   39.1630 C   0  0  0  0  0  0  0  0  0  0  0  0
   40.7810   26.9280   39.6450 C   0  0  0  0  0  0  0  0  0  0  0  0
   40.5030   32.9580   45.0820 S   0  0  0  0  0  0  0  0  0  0  0  0
   37.6900   31.7030   47.5990 C   0  0  0  0  0  0  0  0  0  0  0  0
   37.9170   32.4650   48.7600 C   0  0  0  0  0  0  0  0  0  0  0  0
   38.9380   33.3920   48.8190 C   0  0  0  0  0  0  0  0  0  0  0  0
   39.7080   33.5220   47.6870 C   0  0  0  0  0  0  0  0  0  0  0  0
   39.4820   32.7810   46.5700 C   0  0  0  0  0  0  0  0  0  0  0  0
   38.4740   31.8640   46.5070 N   0  0  0  0  0  0  0  0  0  0  0  0
   36.6100   30.7620   47.6190 C   0  0  0  0  0  0  0  0  0  0  0  0
   36.0920   30.3720   46.5780 O   0  0  0  0  0  0  0  0  0  0  0  0
   36.9680   29.6250   49.7820 C   0  0  0  0  0  0  0  0  0  0  0  0
   36.0690   30.2170   48.8760 C   0  0  0  0  0  0  0  0  0  0  0  0
   34.7150   30.2670   49.1990 C   0  0  0  0  0  0  0  0  0  0  0  0
   34.2960   29.7380   50.3860 N   0  0  0  0  0  0  0  0  0  0  0  0
   35.1890   29.1710   51.2410 C   0  0  0  0  0  0  0  0  0  0  0  0
   36.4790   29.1210   50.9390 N   0  0  0  0  0  0  0  0  0  0  0  0
   39.8590   32.4108   42.8125 H   0  0  0  0  0  0  0  0  0  0  0  0
   38.5972   31.9319   43.9762 H   0  0  0  0  0  0  0  0  0  0  0  0
   40.8067   27.9218   42.7736 H   0  0  0  0  0  0  0  0  0  0  0  0
   41.8113   30.1191   42.3948 H   0  0  0  0  0  0  0  0  0  0  0  0
   40.3824   30.7898   41.6683 H   0  0  0  0  0  0  0  0  0  0  0  0
   41.1404   30.6240   44.5354 H   0  0  0  0  0  0  0  0  0  0  0  0
   38.1189   29.4956   42.7372 H   0  0  0  0  0  0  0  0  0  0  0  0
   38.3873   27.9920   43.5755 H   0  0  0  0  0  0  0  0  0  0  0  0
   38.3718   26.0853   41.8326 H   0  0  0  0  0  0  0  0  0  0  0  0
   38.6618   23.8730   40.7662 H   0  0  0  0  0  0  0  0  0  0  0  0
   40.3506   23.6464   38.9544 H   0  0  0  0  0  0  0  0  0  0  0  0
   41.9583   24.4368   37.5745 H   0  0  0  0  0  0  0  0  0  0  0  0
   43.3741   26.3347   36.7721 H   0  0  0  0  0  0  0  0  0  0  0  0
   43.1287   28.5749   37.8030 H   0  0  0  0  0  0  0  0  0  0  0  0
   41.4964   28.9402   39.6026 H   0  0  0  0  0  0  0  0  0  0  0  0
   37.2688   32.3192   49.6367 H   0  0  0  0  0  0  0  0  0  0  0  0
   39.1253   33.9931   49.7210 H   0  0  0  0  0  0  0  0  0  0  0  0
   40.5334   34.2491   47.6854 H   0  0  0  0  0  0  0  0  0  0  0  0
   38.0431   29.5730   49.5553 H   0  0  0  0  0  0  0  0  0  0  0  0
   33.9933   30.7263   48.5074 H   0  0  0  0  0  0  0  0  0  0  0  0
   34.8369   28.7491   52.1939 H   0  0  0  0  0  0  0  0  0  0  0  0
  1  4  1  0
  1 18  1  0
  2  3  1  0
  2  6  1  0
  3  4  1  0
  4  5  1  0
  6  5  1  0
  7  2  1  0
  8  9  2  0
  8  7  1  0
 10  9  1  0
 11 10  2  0
 12 11  1  0
 12 17  2  0
 13 12  1  0
 14 13  2  0
 14 15  1  0
 15 16  2  0
 16 17  1  0
 17  8  1  0
 18 23  1  0
 19 25  1  0
 19 20  2  0
 20 21  1  0
 22 21  2  0
 23 22  1  0
 24 23  2  0
 24 19  1  0
 25 28  1  0
 26 25  2  0
 27 32  2  0
 28 29  2  0
 28 27  1  0
 29 30  1  0
 30 31  2  0
 32 31  1  0
  1 33  1  0
  1 34  1  0
  2 35  1  1
  3 36  1  0
  3 37  1  0
  4 38  1  1
  6 39  1  0
  6 40  1  0
  9 41  1  0
 10 42  1  0
 11 43  1  0
 13 44  1  0
 14 45  1  0
 15 46  1  0
 16 47  1  0
 20 48  1  0
 21 49  1  0
 22 50  1  0
 27 51  1  0
 29 52  1  0
 31 53  1  0
M  ISO  8  33   8  34   8  35  13  36  13  37  13  38  13  39  13  40  13
M  ISO  8  41  14  42  14  43  14  44  14  45  14  46  14  47  14  48  14
M  ISO  5  49  14  50  14  51  14  52  14  53  14
M  END
>  <minimizedAffinity>  (1) 
-5.98894501

>  <minimizedRMSD>  (1) 
2.32323217

$$$$
