
     RDKit          3D

 38 41  0  0  1  0  0  0  0  0999 V2000
   39.1310   32.4920   47.6440 C   0  0  2  0  0  0  0  0  0  0  0  0
   38.0370   32.6950   48.7280 C   0  0  2  0  0  0  0  0  0  0  0  0
   38.8010   33.4610   49.7250 C   0  0  0  0  0  0  0  0  0  0  0  0
   39.6130   34.3370   49.0170 O   0  0  0  0  0  0  0  0  0  0  0  0
   39.7570   33.8850   47.7320 C   0  0  0  0  0  0  0  0  0  0  0  0
   37.4340   29.4270   50.5330 C   0  0  0  0  0  0  0  0  0  0  0  0
   38.0580   30.6500   50.1710 C   0  0  0  0  0  0  0  0  0  0  0  0
   37.4560   31.4460   49.1610 C   0  0  0  0  0  0  0  0  0  0  0  0
   36.2930   30.9820   48.5840 N   0  0  0  0  0  0  0  0  0  0  0  0
   35.7370   29.8180   48.9580 C   0  0  0  0  0  0  0  0  0  0  0  0
   36.2930   29.0370   49.9220 N   0  0  0  0  0  0  0  0  0  0  0  0
   38.5190   32.3110   46.4040 O   0  0  0  0  0  0  0  0  0  0  0  0
   38.9510   31.6010   45.3290 C   0  0  0  0  0  0  0  0  0  0  0  0
   40.2310   31.6120   44.7790 C   0  0  0  0  0  0  0  0  0  0  0  0
   40.5750   30.8550   43.6820 C   0  0  0  0  0  0  0  0  0  0  0  0
   39.6490   30.0440   43.0810 C   0  0  0  0  0  0  0  0  0  0  0  0
   38.3690   30.0130   43.6090 C   0  0  0  0  0  0  0  0  0  0  0  0
   37.4770   29.1790   42.9660 C   0  0  0  0  0  0  0  0  0  0  0  0
   36.1950   29.1130   43.4480 C   0  0  0  0  0  0  0  0  0  0  0  0
   35.7940   29.8480   44.5420 C   0  0  0  0  0  0  0  0  0  0  0  0
   36.7360   30.6710   45.1510 C   0  0  0  0  0  0  0  0  0  0  0  0
   38.0300   30.7740   44.7070 C   0  0  0  0  0  0  0  0  0  0  0  0
   39.8164   31.6407   47.7690 H   0  0  0  0  0  0  0  0  0  0  0  0
   37.1237   33.2233   48.4169 H   0  0  0  0  0  0  0  0  0  0  0  0
   38.1165   34.0221   50.3781 H   0  0  0  0  0  0  0  0  0  0  0  0
   39.3994   32.7943   50.3632 H   0  0  0  0  0  0  0  0  0  0  0  0
   40.8248   33.8307   47.4735 H   0  0  0  0  0  0  0  0  0  0  0  0
   39.2604   34.5705   47.0295 H   0  0  0  0  0  0  0  0  0  0  0  0
   37.8810   28.7942   51.3139 H   0  0  0  0  0  0  0  0  0  0  0  0
   38.9874   30.9737   50.6623 H   0  0  0  0  0  0  0  0  0  0  0  0
   34.8073   29.4879   48.4715 H   0  0  0  0  0  0  0  0  0  0  0  0
   40.9979   32.2517   45.2402 H   0  0  0  0  0  0  0  0  0  0  0  0
   41.6000   30.9016   43.2855 H   0  0  0  0  0  0  0  0  0  0  0  0
   39.9144   29.4349   42.2043 H   0  0  0  0  0  0  0  0  0  0  0  0
   37.7852   28.5850   42.0930 H   0  0  0  0  0  0  0  0  0  0  0  0
   35.4679   28.4561   42.9482 H   0  0  0  0  0  0  0  0  0  0  0  0
   34.7633   29.7862   44.9214 H   0  0  0  0  0  0  0  0  0  0  0  0
   36.4304   31.2642   46.0255 H   0  0  0  0  0  0  0  0  0  0  0  0
  1  5  1  0
  1  2  1  0
  2  8  1  0
  2  3  1  0
  4  3  1  0
  5  4  1  0
  7  6  2  0
  8  7  1  0
  9 10  1  0
  9  8  2  0
 10 11  2  0
 11  6  1  0
 12  1  1  0
 13 12  1  0
 14 13  2  0
 15 14  1  0
 16 17  1  0
 16 15  2  0
 17 22  2  0
 18 19  2  0
 18 17  1  0
 19 20  1  0
 20 21  2  0
 22 21  1  0
 22 13  1  0
  1 23  1  1
  2 24  1  6
  3 25  1  0
  3 26  1  0
  5 27  1  0
  5 28  1  0
  6 29  1  0
  7 30  1  0
 10 31  1  0
 14 32  1  0
 15 33  1  0
 16 34  1  0
 18 35  1  0
 19 36  1  0
 20 37  1  0
 21 38  1  0
M  ISO  8  23  13  24  13  25  13  26  13  27  13  28  13  29  14  30  14
M  ISO  8  31  14  32  14  33  14  34  14  35  14  36  14  37  14  38  14
M  END
>  <minimizedAffinity>  (1) 
-5.98206043

>  <minimizedRMSD>  (1) 
3.60280156

$$$$
