
     RDKit          3D

 37 40  0  0  0  0  0  0  0  0999 V2000
   35.4470   28.8360   49.2210 C   0  0  0  0  0  0  0  0  0  0  0  0
   35.3560   30.0070   48.4480 C   0  0  0  0  0  0  0  0  0  0  0  0
   34.2530   30.1250   47.6280 C   0  0  0  0  0  0  0  0  0  0  0  0
   33.3150   29.1570   47.5820 N   0  0  0  0  0  0  0  0  0  0  0  0
   33.4160   28.0410   48.3270 C   0  0  0  0  0  0  0  0  0  0  0  0
   34.4900   27.8740   49.1570 N   0  0  0  0  0  0  0  0  0  0  0  0
   36.3870   30.9660   48.5640 N   0  0  0  0  0  0  0  0  0  0  0  0
   36.5920   31.6490   49.7060 C   0  0  0  0  0  0  0  0  0  0  0  0
   37.6300   32.5870   49.7550 C   0  0  0  0  0  0  0  0  0  0  0  0
   38.3540   32.7190   48.6060 C   0  0  0  0  0  0  0  0  0  0  0  0
   39.2970   33.5710   48.6510 O   0  0  0  0  0  0  0  0  0  0  0  0
   38.1720   32.0560   47.4610 N   0  0  0  0  0  0  0  0  0  0  0  0
   37.1520   31.1550   47.4550 C   0  0  0  0  0  0  0  0  0  0  0  0
   36.9640   30.5140   46.3750 O   0  0  0  0  0  0  0  0  0  0  0  0
   32.5130   26.9880   48.3550 O   0  0  0  0  0  0  0  0  0  0  0  0
   31.1460   27.1230   48.4110 C   0  0  0  0  0  0  0  0  0  0  0  0
   30.7640   27.7870   49.5810 C   0  0  0  0  0  0  0  0  0  0  0  0
   29.4140   28.0370   49.8510 C   0  0  0  0  0  0  0  0  0  0  0  0
   28.4350   27.6210   48.9430 C   0  0  0  0  0  0  0  0  0  0  0  0
   28.8260   26.9690   47.7970 C   0  0  0  0  0  0  0  0  0  0  0  0
   27.9270   26.5200   46.8540 C   0  0  0  0  0  0  0  0  0  0  0  0
   28.3870   25.8570   45.7140 C   0  0  0  0  0  0  0  0  0  0  0  0
   29.7450   25.6220   45.4770 C   0  0  0  0  0  0  0  0  0  0  0  0
   30.6400   26.0770   46.4280 C   0  0  0  0  0  0  0  0  0  0  0  0
   30.1530   26.7270   47.5410 C   0  0  0  0  0  0  0  0  0  0  0  0
   36.3090   28.6963   49.8899 H   0  0  0  0  0  0  0  0  0  0  0  0
   34.1367   31.0221   47.0022 H   0  0  0  0  0  0  0  0  0  0  0  0
   35.9549   31.4730   50.5853 H   0  0  0  0  0  0  0  0  0  0  0  0
   37.8470   33.1770   50.6576 H   0  0  0  0  0  0  0  0  0  0  0  0
   38.7659   32.2164   46.6349 H   0  0  0  0  0  0  0  0  0  0  0  0
   31.5324   28.1160   50.2961 H   0  0  0  0  0  0  0  0  0  0  0  0
   29.1236   28.5591   50.7746 H   0  0  0  0  0  0  0  0  0  0  0  0
   27.3702   27.8121   49.1421 H   0  0  0  0  0  0  0  0  0  0  0  0
   26.8489   26.6835   46.9989 H   0  0  0  0  0  0  0  0  0  0  0  0
   27.6527   25.5061   44.9740 H   0  0  0  0  0  0  0  0  0  0  0  0
   30.0868   25.0975   44.5725 H   0  0  0  0  0  0  0  0  0  0  0  0
   31.7214   25.9227   46.2982 H   0  0  0  0  0  0  0  0  0  0  0  0
  2  7  1  0
  2  1  2  0
  3  2  1  0
  4  3  2  0
  4  5  1  0
  5 15  1  0
  5  6  2  0
  6  1  1  0
  7  8  1  0
  8  9  2  0
 10 11  2  0
 10  9  1  0
 12 10  1  0
 13 12  1  0
 13  7  1  0
 14 13  2  0
 15 16  1  0
 16 17  2  0
 17 18  1  0
 19 18  2  0
 20 19  1  0
 21 20  2  0
 22 21  1  0
 23 22  2  0
 23 24  1  0
 24 25  2  0
 25 20  1  0
 25 16  1  0
  1 26  1  0
  3 27  1  0
  8 28  1  0
  9 29  1  0
 12 30  1  0
 17 31  1  0
 18 32  1  0
 19 33  1  0
 21 34  1  0
 22 35  1  0
 23 36  1  0
 24 37  1  0
M  ISO  8  26  14  27  14  28  14  29  14  30   9  31  14  32  14  33  14
M  ISO  4  34  14  35  14  36  14  37  14
M  END
>  <minimizedAffinity>  (1) 
-6.45640612

>  <minimizedRMSD>  (1) 
1.78913748

$$$$
