
     RDKit          3D

 34 37  0  0  1  0  0  0  0  0999 V2000
   36.5350   30.5950   50.2660 C   0  0  1  0  0  0  0  0  0  0  0  0
   35.6660   29.4680   49.9940 C   0  0  2  0  0  0  0  0  0  0  0  0
   36.9690   29.2010   50.7260 C   0  0  0  0  0  0  0  0  0  0  0  0
   37.4520   31.1450   49.1940 C   0  0  0  0  0  0  0  0  0  0  0  0
   37.9470   32.4320   49.4010 C   0  0  0  0  0  0  0  0  0  0  0  0
   38.7650   32.9290   48.4010 C   0  0  0  0  0  0  0  0  0  0  0  0
   39.0420   32.1650   47.2940 N   0  0  0  0  0  0  0  0  0  0  0  0
   38.5410   30.9150   47.1290 C   0  0  0  0  0  0  0  0  0  0  0  0
   37.7370   30.4050   48.0930 N   0  0  0  0  0  0  0  0  0  0  0  0
   35.5980   28.9430   48.7150 O   0  0  0  0  0  0  0  0  0  0  0  0
   34.5550   29.2460   47.8700 C   0  0  0  0  0  0  0  0  0  0  0  0
   34.1280   30.4270   47.3200 C   0  0  0  0  0  0  0  0  0  0  0  0
   33.0500   30.5440   46.4830 C   0  0  0  0  0  0  0  0  0  0  0  0
   32.3120   29.4530   46.1370 C   0  0  0  0  0  0  0  0  0  0  0  0
   32.6920   28.2340   46.6580 C   0  0  0  0  0  0  0  0  0  0  0  0
   31.9230   27.1510   46.2880 C   0  0  0  0  0  0  0  0  0  0  0  0
   32.2390   25.8990   46.7700 C   0  0  0  0  0  0  0  0  0  0  0  0
   33.3180   25.7450   47.6140 C   0  0  0  0  0  0  0  0  0  0  0  0
   34.0480   26.8650   47.9460 C   0  0  0  0  0  0  0  0  0  0  0  0
   33.7800   28.1400   47.4970 C   0  0  0  0  0  0  0  0  0  0  0  0
   36.3201   31.5791   50.7080 H   0  0  0  0  0  0  0  0  0  0  0  0
   34.5963   29.2989   50.1869 H   0  0  0  0  0  0  0  0  0  0  0  0
   37.7959   28.6787   50.2226 H   0  0  0  0  0  0  0  0  0  0  0  0
   37.2676   28.7327   51.6755 H   0  0  0  0  0  0  0  0  0  0  0  0
   37.7031   33.0150   50.3013 H   0  0  0  0  0  0  0  0  0  0  0  0
   39.1939   33.9377   48.4932 H   0  0  0  0  0  0  0  0  0  0  0  0
   38.7826   30.3276   46.2309 H   0  0  0  0  0  0  0  0  0  0  0  0
   34.6880   31.3409   47.5672 H   0  0  0  0  0  0  0  0  0  0  0  0
   32.7768   31.5324   46.0850 H   0  0  0  0  0  0  0  0  0  0  0  0
   31.4445   29.5409   45.4664 H   0  0  0  0  0  0  0  0  0  0  0  0
   31.0643   27.2851   45.6137 H   0  0  0  0  0  0  0  0  0  0  0  0
   31.6332   25.0270   46.4826 H   0  0  0  0  0  0  0  0  0  0  0  0
   33.5885   24.7555   48.0112 H   0  0  0  0  0  0  0  0  0  0  0  0
   34.9079   26.7319   48.6189 H   0  0  0  0  0  0  0  0  0  0  0  0
  1  3  1  0
  2  1  1  0
  2  3  1  0
  4  5  2  0
  4  1  1  0
  6  5  1  0
  7  6  2  0
  8  7  1  0
  8  9  2  0
  9  4  1  0
 10  2  1  0
 11 10  1  0
 12 11  2  0
 13 12  1  0
 14 13  2  0
 14 15  1  0
 15 20  2  0
 16 15  1  0
 16 17  2  0
 17 18  1  0
 18 19  2  0
 20 11  1  0
 20 19  1  0
  1 21  1  1
  2 22  1  1
  3 23  1  0
  3 24  1  0
  5 25  1  0
  6 26  1  0
  8 27  1  0
 12 28  1  0
 13 29  1  0
 14 30  1  0
 16 31  1  0
 17 32  1  0
 18 33  1  0
 19 34  1  0
M  ISO  8  21  13  22  13  23  13  24  13  25  14  26  14  27  14  28  14
M  ISO  6  29  14  30  14  31  14  32  14  33  14  34  14
M  END
>  <minimizedAffinity>  (1) 
-5.53599453

>  <minimizedRMSD>  (1) 
3.29966712

$$$$
