
     RDKit          3D

 49 53  0  0  1  0  0  0  0  0999 V2000
   40.0590   30.7610   41.9130 C   0  0  2  0  0  0  0  0  0  0  0  0
   39.9310   32.0170   42.8000 C   0  0  1  0  0  0  0  0  0  0  0  0
   38.8320   32.7110   42.0600 C   0  0  0  0  0  0  0  0  0  0  0  0
   39.0290   32.4560   40.7170 O   0  0  0  0  0  0  0  0  0  0  0  0
   39.9740   31.4620   40.5650 C   0  0  0  0  0  0  0  0  0  0  0  0
   38.4930   31.1240   45.9640 C   0  0  0  0  0  0  0  0  0  0  0  0
   39.8100   31.1010   46.3020 C   0  0  0  0  0  0  0  0  0  0  0  0
   40.4790   31.4410   45.1180 C   0  0  0  0  0  0  0  0  0  0  0  0
   39.5820   31.6510   44.1420 N   0  0  0  0  0  0  0  0  0  0  0  0
   38.3550   31.4560   44.6600 N   0  0  0  0  0  0  0  0  0  0  0  0
   36.4170   30.6450   49.0500 C   0  0  0  0  0  0  0  0  0  0  0  0
   37.4890   30.9290   48.2390 C   0  0  0  0  0  0  0  0  0  0  0  0
   37.3960   30.8360   46.8660 C   0  0  0  0  0  0  0  0  0  0  0  0
   36.1960   30.4520   46.3640 N   0  0  0  0  0  0  0  0  0  0  0  0
   35.1430   30.1740   47.1840 C   0  0  0  0  0  0  0  0  0  0  0  0
   35.2410   30.2650   48.5010 N   0  0  0  0  0  0  0  0  0  0  0  0
   36.7030   30.7950   50.4100 O   0  0  0  0  0  0  0  0  0  0  0  0
   36.7800   29.6990   51.3030 C   0  0  0  0  0  0  0  0  0  0  0  0
   35.5320   29.2080   51.6240 F   0  0  0  0  0  0  0  0  0  0  0  0
   37.4490   30.1100   52.4250 F   0  0  0  0  0  0  0  0  0  0  0  0
   37.5360   28.7060   50.7090 F   0  0  0  0  0  0  0  0  0  0  0  0
   38.9280   30.0220   42.1470 O   0  0  0  0  0  0  0  0  0  0  0  0
   38.7840   28.6810   42.3760 C   0  0  0  0  0  0  0  0  0  0  0  0
   39.7520   27.6850   42.3890 C   0  0  0  0  0  0  0  0  0  0  0  0
   39.4020   26.3730   42.6450 C   0  0  0  0  0  0  0  0  0  0  0  0
   38.0990   26.0300   42.8880 C   0  0  0  0  0  0  0  0  0  0  0  0
   37.1330   26.9880   42.8800 C   0  0  0  0  0  0  0  0  0  0  0  0
   35.8290   26.5850   43.1340 C   0  0  0  0  0  0  0  0  0  0  0  0
   34.8150   27.5120   43.1370 C   0  0  0  0  0  0  0  0  0  0  0  0
   35.1140   28.8350   42.8880 C   0  0  0  0  0  0  0  0  0  0  0  0
   36.3910   29.2280   42.6410 C   0  0  0  0  0  0  0  0  0  0  0  0
   37.4540   28.3230   42.6270 C   0  0  0  0  0  0  0  0  0  0  0  0
   40.9275   30.0979   42.0394 H   0  0  0  0  0  0  0  0  0  0  0  0
   40.8354   32.6284   42.9352 H   0  0  0  0  0  0  0  0  0  0  0  0
   37.8549   32.3199   42.3799 H   0  0  0  0  0  0  0  0  0  0  0  0
   38.8437   33.7924   42.2612 H   0  0  0  0  0  0  0  0  0  0  0  0
   39.6622   30.7533   39.7837 H   0  0  0  0  0  0  0  0  0  0  0  0
   40.9479   31.8725   40.2601 H   0  0  0  0  0  0  0  0  0  0  0  0
   40.2507   30.8683   47.2826 H   0  0  0  0  0  0  0  0  0  0  0  0
   41.5702   31.5230   45.0061 H   0  0  0  0  0  0  0  0  0  0  0  0
   38.4417   31.2371   48.6944 H   0  0  0  0  0  0  0  0  0  0  0  0
   34.1855   29.8656   46.7390 H   0  0  0  0  0  0  0  0  0  0  0  0
   40.8036   27.9422   42.1943 H   0  0  0  0  0  0  0  0  0  0  0  0
   40.1795   25.5949   42.6537 H   0  0  0  0  0  0  0  0  0  0  0  0
   37.8336   24.9817   43.0894 H   0  0  0  0  0  0  0  0  0  0  0  0
   35.6081   25.5258   43.3324 H   0  0  0  0  0  0  0  0  0  0  0  0
   33.7781   27.2029   43.3354 H   0  0  0  0  0  0  0  0  0  0  0  0
   34.3072   29.5827   42.8894 H   0  0  0  0  0  0  0  0  0  0  0  0
   36.5934   30.2915   42.4461 H   0  0  0  0  0  0  0  0  0  0  0  0
  1 22  1  0
  1  2  1  0
  2  9  1  0
  3  2  1  0
  4  3  1  0
  5  4  1  0
  5  1  1  0
  6  7  1  0
  6 13  1  0
  8  7  2  0
  9 10  1  0
  9  8  1  0
 10  6  2  0
 11 17  1  0
 12 11  2  0
 13 12  1  0
 14 13  2  0
 14 15  1  0
 15 16  2  0
 16 11  1  0
 17 18  1  0
 18 19  1  0
 18 20  1  0
 21 18  1  0
 22 23  1  0
 23 24  2  0
 23 32  1  0
 24 25  1  0
 25 26  2  0
 27 26  1  0
 27 28  2  0
 28 29  1  0
 30 29  2  0
 31 30  1  0
 32 31  2  0
 32 27  1  0
  1 33  1  6
  2 34  1  1
  3 35  1  0
  3 36  1  0
  5 37  1  0
  5 38  1  0
  7 39  1  0
  8 40  1  0
 12 41  1  0
 15 42  1  0
 24 43  1  0
 25 44  1  0
 26 45  1  0
 28 46  1  0
 29 47  1  0
 30 48  1  0
 31 49  1  0
M  ISO  8  33  13  34  13  35  13  36  13  37  13  38  13  39  14  40  14
M  ISO  8  41  14  42  14  43  14  44  14  45  14  46  14  47  14  48  14
M  ISO  1  49  14
M  END
>  <minimizedAffinity>  (1) 
-6.66911745

>  <minimizedRMSD>  (1) 
0.690749288

$$$$
