
     RDKit          3D

 38 40  0  0  0  0  0  0  0  0999 V2000
   35.7450   29.3680   51.3170 O   0  0  0  0  0  0  0  0  0  0  0  0
   36.9830   29.1980   50.6790 C   0  0  0  0  0  0  0  0  0  0  0  0
   37.7610   30.4630   50.8470 C   0  0  0  0  0  0  0  0  0  0  0  0
   38.1040   31.1360   49.6030 C   0  0  0  0  0  0  0  0  0  0  0  0
   38.5700   32.4360   49.5660 C   0  0  0  0  0  0  0  0  0  0  0  0
   38.8740   32.9990   48.3190 C   0  0  0  0  0  0  0  0  0  0  0  0
   38.6890   32.2260   47.2000 N   0  0  0  0  0  0  0  0  0  0  0  0
   38.2290   30.9510   47.2750 C   0  0  0  0  0  0  0  0  0  0  0  0
   37.9360   30.4100   48.4940 N   0  0  0  0  0  0  0  0  0  0  0  0
   34.7010   30.9800   49.5490 O   0  0  0  0  0  0  0  0  0  0  0  0
   34.5000   29.6100   50.1890 P   0  0  2  0  0  0  0  0  0  0  0  0
   33.0020   29.6630   50.9520 O   0  0  0  0  0  0  0  0  0  0  0  0
   34.4980   28.3990   49.0330 O   0  0  0  0  0  0  0  0  0  0  0  0
   34.0050   28.6730   47.7630 C   0  0  0  0  0  0  0  0  0  0  0  0
   34.6680   29.3820   46.7820 C   0  0  0  0  0  0  0  0  0  0  0  0
   34.1370   29.6260   45.5470 C   0  0  0  0  0  0  0  0  0  0  0  0
   32.8570   29.0960   45.3560 C   0  0  0  0  0  0  0  0  0  0  0  0
   32.1560   28.3840   46.3020 C   0  0  0  0  0  0  0  0  0  0  0  0
   30.8880   27.9100   45.9840 C   0  0  0  0  0  0  0  0  0  0  0  0
   30.1790   27.1910   46.9380 C   0  0  0  0  0  0  0  0  0  0  0  0
   30.7580   26.9730   48.1660 C   0  0  0  0  0  0  0  0  0  0  0  0
   32.0210   27.4530   48.4630 C   0  0  0  0  0  0  0  0  0  0  0  0
   32.7480   28.1680   47.5380 C   0  0  0  0  0  0  0  0  0  0  0  0
   36.8278   28.9934   49.6094 H   0  0  0  0  0  0  0  0  0  0  0  0
   37.5286   28.3501   51.1187 H   0  0  0  0  0  0  0  0  0  0  0  0
   37.1620   31.1551   51.4571 H   0  0  0  0  0  0  0  0  0  0  0  0
   38.7131   30.1815   51.3206 H   0  0  0  0  0  0  0  0  0  0  0  0
   38.6993   33.0149   50.4923 H   0  0  0  0  0  0  0  0  0  0  0  0
   39.2497   34.0298   48.2395 H   0  0  0  0  0  0  0  0  0  0  0  0
   38.0931   30.3571   46.3591 H   0  0  0  0  0  0  0  0  0  0  0  0
   33.1312   29.6584   51.9335 H   0  0  0  0  0  0  0  0  0  0  0  0
   35.6730   29.7696   47.0053 H   0  0  0  0  0  0  0  0  0  0  0  0
   34.6710   30.1913   44.7690 H   0  0  0  0  0  0  0  0  0  0  0  0
   32.3765   29.2600   44.3802 H   0  0  0  0  0  0  0  0  0  0  0  0
   30.4529   28.1015   44.9920 H   0  0  0  0  0  0  0  0  0  0  0  0
   29.1739   26.8036   46.7154 H   0  0  0  0  0  0  0  0  0  0  0  0
   30.2051   26.4048   48.9285 H   0  0  0  0  0  0  0  0  0  0  0  0
   32.4523   27.2599   49.4563 H   0  0  0  0  0  0  0  0  0  0  0  0
  2  3  1  0
  2  1  1  0
  4  3  1  0
  5  4  2  0
  6  5  1  0
  7  8  1  0
  7  6  2  0
  8  9  2  0
  9  4  1  0
 11 10  2  0
 11 12  1  0
 11  1  1  0
 13 11  1  0
 14 13  1  0
 15 14  2  0
 16 15  1  0
 17 16  2  0
 17 18  1  0
 18 23  2  0
 19 18  1  0
 19 20  2  0
 20 21  1  0
 21 22  2  0
 23 14  1  0
 23 22  1  0
  2 24  1  0
  2 25  1  0
  3 26  1  0
  3 27  1  0
  5 28  1  0
  6 29  1  0
  8 30  1  0
 12 31  1  0
 15 32  1  0
 16 33  1  0
 17 34  1  0
 19 35  1  0
 20 36  1  0
 21 37  1  0
 22 38  1  0
M  ISO  8  24   8  25   8  26   8  27   8  28  14  29  14  30  14  31   3
M  ISO  7  32  14  33  14  34  14  35  14  36  14  37  14  38  14
M  END
>  <minimizedAffinity>  (1) 
-5.69698429

>  <minimizedRMSD>  (1) 
1.66953766

$$$$
