
     RDKit          3D

 49 54  0  0  1  0  0  0  0  0999 V2000
   34.0180   30.1100   46.7440 C   0  0  1  0  0  0  0  0  0  0  0  0
   33.5660   28.9950   47.5940 C   0  0  0  0  0  0  0  0  0  0  0  0
   35.0330   29.1500   47.4260 C   0  0  2  0  0  0  0  0  0  0  0  0
   35.6670   29.5740   48.7030 C   0  0  0  0  0  0  0  0  0  0  0  0
   35.0980   28.8780   49.7810 C   0  0  0  0  0  0  0  0  0  0  0  0
   35.5770   29.0320   51.0630 C   0  0  0  0  0  0  0  0  0  0  0  0
   36.6510   29.8900   51.3230 C   0  0  0  0  0  0  0  0  0  0  0  0
   37.1900   30.5580   50.2480 C   0  0  0  0  0  0  0  0  0  0  0  0
   38.2420   31.4450   50.3650 C   0  0  0  0  0  0  0  0  0  0  0  0
   38.7850   32.1340   49.2920 C   0  0  0  0  0  0  0  0  0  0  0  0
   38.2540   31.9310   48.0290 C   0  0  0  0  0  0  0  0  0  0  0  0
   37.2060   31.0490   47.9030 C   0  0  0  0  0  0  0  0  0  0  0  0
   36.6990   30.3880   48.9900 C   0  0  0  0  0  0  0  0  0  0  0  0
   32.7710   29.4420   43.2560 C   0  0  0  0  0  0  0  0  0  0  0  0
   32.7890   29.5700   44.6820 C   0  0  0  0  0  0  0  0  0  0  0  0
   33.9600   29.9740   45.2790 C   0  0  0  0  0  0  0  0  0  0  0  0
   34.9920   30.2140   44.4520 N   0  0  0  0  0  0  0  0  0  0  0  0
   35.0100   30.1080   43.1340 C   0  0  0  0  0  0  0  0  0  0  0  0
   33.8560   29.7060   42.5130 N   0  0  0  0  0  0  0  0  0  0  0  0
   36.0810   30.3630   42.1950 C   0  0  0  0  0  0  0  0  0  0  0  0
   35.8360   30.6630   40.8560 C   0  0  0  0  0  0  0  0  0  0  0  0
   36.7890   30.9170   39.9120 C   0  0  0  0  0  0  0  0  0  0  0  0
   38.1150   30.8850   40.2580 C   0  0  0  0  0  0  0  0  0  0  0  0
   38.4510   30.5970   41.5600 C   0  0  0  0  0  0  0  0  0  0  0  0
   39.7740   30.5750   41.8860 C   0  0  0  0  0  0  0  0  0  0  0  0
   40.1800   30.2970   43.1740 C   0  0  0  0  0  0  0  0  0  0  0  0
   39.1760   30.0440   44.1130 C   0  0  0  0  0  0  0  0  0  0  0  0
   37.8580   30.0810   43.7230 C   0  0  0  0  0  0  0  0  0  0  0  0
   37.4310   30.3540   42.4470 C   0  0  0  0  0  0  0  0  0  0  0  0
   33.7929   31.1866   46.7288 H   0  0  0  0  0  0  0  0  0  0  0  0
   33.1082   29.2112   48.5705 H   0  0  0  0  0  0  0  0  0  0  0  0
   32.8703   28.1574   47.4376 H   0  0  0  0  0  0  0  0  0  0  0  0
   35.8961   28.5829   47.0473 H   0  0  0  0  0  0  0  0  0  0  0  0
   34.2538   28.1969   49.5984 H   0  0  0  0  0  0  0  0  0  0  0  0
   35.1111   28.4756   51.8897 H   0  0  0  0  0  0  0  0  0  0  0  0
   37.0464   30.0243   52.3406 H   0  0  0  0  0  0  0  0  0  0  0  0
   38.6720   31.6137   51.3633 H   0  0  0  0  0  0  0  0  0  0  0  0
   39.6235   32.8303   49.4409 H   0  0  0  0  0  0  0  0  0  0  0  0
   38.6582   32.4593   47.1529 H   0  0  0  0  0  0  0  0  0  0  0  0
   36.7668   30.8712   46.9103 H   0  0  0  0  0  0  0  0  0  0  0  0
   31.8449   29.1193   42.7578 H   0  0  0  0  0  0  0  0  0  0  0  0
   31.8931   29.3517   45.2818 H   0  0  0  0  0  0  0  0  0  0  0  0
   34.7853   30.6981   40.5323 H   0  0  0  0  0  0  0  0  0  0  0  0
   36.4939   31.1465   38.8775 H   0  0  0  0  0  0  0  0  0  0  0  0
   38.8950   31.0858   39.5088 H   0  0  0  0  0  0  0  0  0  0  0  0
   40.5276   30.7817   41.1118 H   0  0  0  0  0  0  0  0  0  0  0  0
   41.2446   30.2753   43.4498 H   0  0  0  0  0  0  0  0  0  0  0  0
   39.4385   29.8169   45.1568 H   0  0  0  0  0  0  0  0  0  0  0  0
   37.0925   29.8778   44.4864 H   0  0  0  0  0  0  0  0  0  0  0  0
  1  3  1  0
  1  2  1  0
  3  2  1  0
  3  4  1  0
  4 13  1  0
  4  5  2  0
  5  6  1  0
  6  7  2  0
  8  9  2  0
  8  7  1  0
 10  9  1  0
 11 10  2  0
 12 11  1  0
 12 13  2  0
 13  8  1  0
 14 15  2  0
 15 16  1  0
 16  1  1  0
 17 16  2  0
 18 17  1  0
 19 18  2  0
 19 14  1  0
 20 29  1  0
 20 18  1  0
 21 20  2  0
 22 23  2  0
 22 21  1  0
 23 24  1  0
 24 25  1  0
 24 29  2  0
 25 26  2  0
 26 27  1  0
 28 27  2  0
 29 28  1  0
  1 30  1  1
  2 31  1  0
  2 32  1  0
  3 33  1  6
  5 34  1  0
  6 35  1  0
  7 36  1  0
  9 37  1  0
 10 38  1  0
 11 39  1  0
 12 40  1  0
 14 41  1  0
 15 42  1  0
 21 43  1  0
 22 44  1  0
 23 45  1  0
 25 46  1  0
 26 47  1  0
 27 48  1  0
 28 49  1  0
M  ISO  8  30  13  31  13  32  13  33  13  34  14  35  14  36  14  37  14
M  ISO  8  38  14  39  14  40  14  41  14  42  14  43  14  44  14  45  14
M  ISO  4  46  14  47  14  48  14  49  14
M  END
>  <minimizedAffinity>  (1) 
-6.92929459

>  <minimizedRMSD>  (1) 
8.91419601

$$$$
