
     RDKit          3D

 40 43  0  0  1  0  0  0  0  0999 V2000
   34.5160   29.1370   48.2540 C   0  0  0  0  0  0  0  0  0  0  0  0
   33.9400   28.6740   49.4430 C   0  0  0  0  0  0  0  0  0  0  0  0
   34.4690   28.9270   50.7110 C   0  0  0  0  0  0  0  0  0  0  0  0
   35.6560   29.7000   50.7670 C   0  0  0  0  0  0  0  0  0  0  0  0
   36.2280   30.1610   49.5780 C   0  0  0  0  0  0  0  0  0  0  0  0
   35.6570   29.8740   48.3730 C   0  0  0  0  0  0  0  0  0  0  0  0
   36.4230   30.4340   47.2760 C   0  0  0  0  0  0  0  0  0  0  0  0
   36.4170   30.2270   45.9130 C   0  0  0  0  0  0  0  0  0  0  0  0
   37.2310   30.9060   45.0400 C   0  0  0  0  0  0  0  0  0  0  0  0
   38.1180   31.8550   45.5010 C   0  0  0  0  0  0  0  0  0  0  0  0
   38.1520   32.0900   46.8560 C   0  0  0  0  0  0  0  0  0  0  0  0
   39.0580   33.0480   47.2490 C   0  0  0  0  0  0  0  0  0  0  0  0
   39.1690   33.3560   48.5870 C   0  0  0  0  0  0  0  0  0  0  0  0
   38.3770   32.7060   49.5070 C   0  0  0  0  0  0  0  0  0  0  0  0
   37.4970   31.7630   49.0520 C   0  0  0  0  0  0  0  0  0  0  0  0
   37.3190   31.3940   47.7410 C   0  0  0  0  0  0  0  0  0  0  0  0
   33.8740   28.8120   46.9950 C   0  0  0  0  0  0  0  0  0  0  0  0
   34.4210   27.8250   46.3780 O   0  0  0  0  0  0  0  0  0  0  0  0
   32.0440   31.4440   45.3070 C   0  0  0  0  0  0  0  0  0  0  0  0
   30.7170   30.9760   45.2900 C   0  0  0  0  0  0  0  0  0  0  0  0
   30.4510   29.7340   45.8750 C   0  0  0  0  0  0  0  0  0  0  0  0
   31.4790   29.0140   46.4400 N   0  0  0  0  0  0  0  0  0  0  0  0
   32.7210   29.4980   46.4320 C   0  0  0  0  0  0  0  0  0  0  0  0
   33.0010   30.6990   45.8730 N   0  0  0  0  0  0  0  0  0  0  0  0
   33.0185   28.0771   49.3750 H   0  0  0  0  0  0  0  0  0  0  0  0
   33.9872   28.5445   51.6229 H   0  0  0  0  0  0  0  0  0  0  0  0
   36.1217   29.9344   51.7356 H   0  0  0  0  0  0  0  0  0  0  0  0
   37.1487   30.7618   49.6144 H   0  0  0  0  0  0  0  0  0  0  0  0
   35.7233   29.4782   45.5030 H   0  0  0  0  0  0  0  0  0  0  0  0
   37.1746   30.6905   43.9628 H   0  0  0  0  0  0  0  0  0  0  0  0
   38.7748   32.4044   44.8105 H   0  0  0  0  0  0  0  0  0  0  0  0
   39.6851   33.5609   46.5049 H   0  0  0  0  0  0  0  0  0  0  0  0
   39.8882   34.1190   48.9196 H   0  0  0  0  0  0  0  0  0  0  0  0
   38.4501   32.9390   50.5795 H   0  0  0  0  0  0  0  0  0  0  0  0
   36.8758   31.2542   49.8038 H   0  0  0  0  0  0  0  0  0  0  0  0
   33.2033   28.1138   47.5172 H   0  0  0  0  0  0  0  0  0  0  0  0
   34.7784   27.1801   47.0386 H   0  0  0  0  0  0  0  0  0  0  0  0
   32.2933   32.4166   44.8577 H   0  0  0  0  0  0  0  0  0  0  0  0
   29.9129   31.5694   44.8303 H   0  0  0  0  0  0  0  0  0  0  0  0
   29.4261   29.3347   45.8836 H   0  0  0  0  0  0  0  0  0  0  0  0
  1  6  1  0
  1  2  2  0
  2  3  1  0
  3  4  2  0
  5  4  1  0
  6  5  2  0
  7 16  1  0
  7  6  1  0
  8  7  2  0
  9 10  2  0
  9  8  1  0
 10 11  1  0
 11 12  1  0
 11 16  2  0
 12 13  2  0
 13 14  1  0
 15 14  2  0
 16 15  1  0
 17 18  1  0
 17  1  1  0
 19 24  2  0
 20 19  1  0
 20 21  2  0
 21 22  1  0
 23 22  2  0
 23 17  1  0
 24 23  1  0
  2 25  1  0
  3 26  1  0
  4 27  1  0
  5 28  1  0
  8 29  1  0
  9 30  1  0
 10 31  1  0
 12 32  1  0
 13 33  1  0
 14 34  1  0
 15 35  1  0
 17 36  1  0
 18 37  1  0
 19 38  1  0
 20 39  1  0
 21 40  1  0
M  ISO  8  25  14  26  14  27  14  28  14  29  14  30  14  31  14  32  14
M  ISO  8  33  14  34  14  35  14  36   8  37   3  38  14  39  14  40  14
M  END
>  <minimizedAffinity>  (1) 
-6.38522577

>  <minimizedRMSD>  (1) 
2.40360284

$$$$
