
     RDKit          3D

 52 56  0  0  1  0  0  0  0  0999 V2000
   37.3180   29.3150   50.5220 C   0  0  0  0  0  0  0  0  0  0  0  0
   37.4210   30.6970   50.7730 C   0  0  0  0  0  0  0  0  0  0  0  0
   36.5890   31.5360   50.0340 C   0  0  0  0  0  0  0  0  0  0  0  0
   35.7430   30.9770   49.1280 N   0  0  0  0  0  0  0  0  0  0  0  0
   35.6790   29.6660   48.9240 C   0  0  0  0  0  0  0  0  0  0  0  0
   36.4680   28.8280   49.6200 N   0  0  0  0  0  0  0  0  0  0  0  0
   34.7720   29.1400   47.9680 N   0  0  0  0  0  0  0  0  0  0  0  0
   34.2070   27.8110   48.1100 C   0  0  0  0  0  0  0  0  0  0  0  0
   32.7200   27.8630   48.0170 C   0  0  0  0  0  0  0  0  0  0  0  0
   32.1710   29.0340   47.5460 N   0  0  0  0  0  0  0  0  0  0  0  0
   32.9190   29.9370   46.7100 C   0  0  0  0  0  0  0  0  0  0  0  0
   34.3640   29.9090   46.8130 C   0  0  2  0  0  0  0  0  0  0  0  0
   35.0640   29.3320   45.6670 N   0  0  0  0  0  0  0  0  0  0  0  0
   36.1050   30.2400   45.1820 C   0  0  0  0  0  0  0  0  0  0  0  0
   36.0870   30.1800   43.6660 C   0  0  0  0  0  0  0  0  0  0  0  0
   35.1840   29.0380   43.3980 C   0  0  0  0  0  0  0  0  0  0  0  0
   34.1700   29.1170   44.5610 C   0  0  1  0  0  0  0  0  0  0  0  0
   33.5420   27.8150   44.4780 C   0  0  0  0  0  0  0  0  0  0  0  0
   34.2790   26.6860   44.7650 C   0  0  0  0  0  0  0  0  0  0  0  0
   33.7730   25.4060   44.6930 C   0  0  0  0  0  0  0  0  0  0  0  0
   32.4640   25.1870   44.3180 C   0  0  0  0  0  0  0  0  0  0  0  0
   31.6790   26.2790   44.0190 C   0  0  0  0  0  0  0  0  0  0  0  0
   30.3680   26.0850   43.6340 C   0  0  0  0  0  0  0  0  0  0  0  0
   29.5500   27.1620   43.3160 C   0  0  0  0  0  0  0  0  0  0  0  0
   30.1010   28.4470   43.4010 C   0  0  0  0  0  0  0  0  0  0  0  0
   31.4040   28.5750   43.7880 C   0  0  0  0  0  0  0  0  0  0  0  0
   32.2450   27.5340   44.1100 C   0  0  0  0  0  0  0  0  0  0  0  0
   37.9567   28.6194   51.0861 H   0  0  0  0  0  0  0  0  0  0  0  0
   38.1255   31.0957   51.5178 H   0  0  0  0  0  0  0  0  0  0  0  0
   36.6161   32.6259   50.1803 H   0  0  0  0  0  0  0  0  0  0  0  0
   34.5973   27.1644   47.3103 H   0  0  0  0  0  0  0  0  0  0  0  0
   34.4880   27.4084   49.0943 H   0  0  0  0  0  0  0  0  0  0  0  0
   32.3993   27.0514   47.3473 H   0  0  0  0  0  0  0  0  0  0  0  0
   32.3620   27.7720   49.0531 H   0  0  0  0  0  0  0  0  0  0  0  0
   31.3348   28.7661   47.0076 H   0  0  0  0  0  0  0  0  0  0  0  0
   32.5919   30.9584   46.9545 H   0  0  0  0  0  0  0  0  0  0  0  0
   32.7069   29.6054   45.6829 H   0  0  0  0  0  0  0  0  0  0  0  0
   34.6407   30.9716   46.8793 H   0  0  0  0  0  0  0  0  0  0  0  0
   35.8971   31.2658   45.5204 H   0  0  0  0  0  0  0  0  0  0  0  0
   37.0906   29.9452   45.5713 H   0  0  0  0  0  0  0  0  0  0  0  0
   35.6880   31.1108   43.2366 H   0  0  0  0  0  0  0  0  0  0  0  0
   37.0860   30.0612   43.2213 H   0  0  0  0  0  0  0  0  0  0  0  0
   34.6809   29.1512   42.4264 H   0  0  0  0  0  0  0  0  0  0  0  0
   35.7092   28.0729   43.3454 H   0  0  0  0  0  0  0  0  0  0  0  0
   33.3725   29.8736   44.5998 H   0  0  0  0  0  0  0  0  0  0  0  0
   35.3287   26.8137   45.0682 H   0  0  0  0  0  0  0  0  0  0  0  0
   34.4198   24.5504   44.9371 H   0  0  0  0  0  0  0  0  0  0  0  0
   32.0572   24.1667   44.2591 H   0  0  0  0  0  0  0  0  0  0  0  0
   29.9649   25.0630   43.5781 H   0  0  0  0  0  0  0  0  0  0  0  0
   28.5049   27.0107   43.0079 H   0  0  0  0  0  0  0  0  0  0  0  0
   29.4967   29.3342   43.1610 H   0  0  0  0  0  0  0  0  0  0  0  0
   31.8154   29.5934   43.8473 H   0  0  0  0  0  0  0  0  0  0  0  0
  1  2  2  0
  3  2  1  0
  4  3  2  0
  5  4  1  0
  5  6  2  0
  6  1  1  0
  7  8  1  0
  7  5  1  0
  9  8  1  0
 10  9  1  0
 11 12  1  0
 11 10  1  0
 12  7  1  0
 13 14  1  0
 13 12  1  0
 15 14  1  0
 16 15  1  0
 16 17  1  0
 17 13  1  0
 18 17  1  0
 18 19  2  0
 20 19  1  0
 21 20  2  0
 22 27  2  0
 22 21  1  0
 23 22  1  0
 24 25  1  0
 24 23  2  0
 25 26  2  0
 26 27  1  0
 27 18  1  0
  1 28  1  0
  2 29  1  0
  3 30  1  0
  8 31  1  0
  8 32  1  0
  9 33  1  0
  9 34  1  0
 10 35  1  0
 11 36  1  0
 11 37  1  0
 12 38  1  1
 14 39  1  0
 14 40  1  0
 15 41  1  0
 15 42  1  0
 16 43  1  0
 16 44  1  0
 17 45  1  6
 19 46  1  0
 20 47  1  0
 21 48  1  0
 23 49  1  0
 24 50  1  0
 25 51  1  0
 26 52  1  0
M  ISO  8  28  14  29  14  30  14  31  13  32  13  33  13  34  13  35   5
M  ISO  8  36  13  37  13  38  13  39  13  40  13  41  13  42  13  43  13
M  ISO  8  44  13  45  13  46  14  47  14  48  14  49  14  50  14  51  14
M  ISO  1  52  14
M  END
>  <minimizedAffinity>  (1) 
-4.84159613

>  <minimizedRMSD>  (1) 
1.8915205

$$$$
