
     RDKit          3D

 50 54  0  0  0  0  0  0  0  0999 V2000
   34.4680   27.5750   49.5300 Cl  0  0  0  0  0  0  0  0  0  0  0  0
   33.8630   28.5270   48.2080 C   0  0  0  0  0  0  0  0  0  0  0  0
   34.4480   29.7370   47.9230 C   0  0  0  0  0  0  0  0  0  0  0  0
   33.9990   30.5200   46.8860 C   0  0  0  0  0  0  0  0  0  0  0  0
   32.9500   30.1200   46.0970 C   0  0  0  0  0  0  0  0  0  0  0  0
   32.3430   28.9090   46.3580 C   0  0  0  0  0  0  0  0  0  0  0  0
   30.9880   28.2740   45.4250 Cl  0  0  0  0  0  0  0  0  0  0  0  0
   32.8220   28.1570   47.4030 C   0  0  0  0  0  0  0  0  0  0  0  0
   32.4160   30.8820   44.9870 C   0  0  0  0  0  0  0  0  0  0  0  0
   31.3780   31.7400   45.3550 C   0  0  0  0  0  0  0  0  0  0  0  0
   30.7880   32.5250   44.3610 C   0  0  0  0  0  0  0  0  0  0  0  0
   31.1590   32.5140   43.0320 C   0  0  0  0  0  0  0  0  0  0  0  0
   32.1960   31.6410   42.7240 C   0  0  0  0  0  0  0  0  0  0  0  0
   32.6470   31.5570   41.4030 C   0  0  0  0  0  0  0  0  0  0  0  0
   33.6910   30.6810   41.0870 C   0  0  0  0  0  0  0  0  0  0  0  0
   34.2850   29.8940   42.0760 C   0  0  0  0  0  0  0  0  0  0  0  0
   33.8370   29.9760   43.3980 C   0  0  0  0  0  0  0  0  0  0  0  0
   32.8110   30.8470   43.6690 C   0  0  0  0  0  0  0  0  0  0  0  0
   36.7540   30.2270   50.7420 C   0  0  0  0  0  0  0  0  0  0  0  0
   37.6990   31.1110   50.2310 C   0  0  0  0  0  0  0  0  0  0  0  0
   37.5250   31.5310   48.9070 C   0  0  0  0  0  0  0  0  0  0  0  0
   36.4620   31.0570   48.2120 N   0  0  0  0  0  0  0  0  0  0  0  0
   35.5730   30.2040   48.7430 C   0  0  0  0  0  0  0  0  0  0  0  0
   35.7300   29.7980   50.0050 N   0  0  0  0  0  0  0  0  0  0  0  0
   38.4490   32.4590   48.2550 C   0  0  0  0  0  0  0  0  0  0  0  0
   39.0270   33.5420   48.8720 C   0  0  0  0  0  0  0  0  0  0  0  0
   39.8390   34.2130   48.0070 N   0  0  0  0  0  0  0  0  0  0  0  0
   39.7710   33.5500   46.8480 C   0  0  0  0  0  0  0  0  0  0  0  0
   38.9400   32.5150   47.0240 N   0  0  0  0  0  0  0  0  0  0  0  0
   40.6700   32.6500   44.7850 C   0  0  0  0  0  0  0  0  0  0  0  0
   40.3620   31.5040   45.1730 O   0  0  0  0  0  0  0  0  0  0  0  0
   40.3940   33.7790   45.6050 N   0  0  0  0  0  0  0  0  0  0  0  0
   32.1760   26.8350   47.7060 C   0  0  0  0  0  0  0  0  0  0  0  0
   33.1400   25.8190   47.7480 F   0  0  0  0  0  0  0  0  0  0  0  0
   31.3570   26.4530   46.6340 F   0  0  0  0  0  0  0  0  0  0  0  0
   31.3900   26.8720   48.8230 F   0  0  0  0  0  0  0  0  0  0  0  0
   34.4892   31.4840   46.6852 H   0  0  0  0  0  0  0  0  0  0  0  0
   31.0342   31.7965   46.3984 H   0  0  0  0  0  0  0  0  0  0  0  0
   29.9709   33.1986   44.6586 H   0  0  0  0  0  0  0  0  0  0  0  0
   30.6721   33.1467   42.2753 H   0  0  0  0  0  0  0  0  0  0  0  0
   32.1847   32.1746   40.6189 H   0  0  0  0  0  0  0  0  0  0  0  0
   34.0477   30.6114   40.0488 H   0  0  0  0  0  0  0  0  0  0  0  0
   35.1055   29.2094   41.8149 H   0  0  0  0  0  0  0  0  0  0  0  0
   34.2903   29.3647   44.1922 H   0  0  0  0  0  0  0  0  0  0  0  0
   36.8545   29.8738   51.7789 H   0  0  0  0  0  0  0  0  0  0  0  0
   38.5445   31.4639   50.8397 H   0  0  0  0  0  0  0  0  0  0  0  0
   38.8576   33.8283   49.9205 H   0  0  0  0  0  0  0  0  0  0  0  0
   40.3924   35.0587   48.2058 H   0  0  0  0  0  0  0  0  0  0  0  0
   41.1556   32.7868   43.8075 H   0  0  0  0  0  0  0  0  0  0  0  0
   40.6411   34.7315   45.3006 H   0  0  0  0  0  0  0  0  0  0  0  0
  2  1  1  0
  3  2  2  0
  3 23  1  0
  4  3  1  0
  5  6  1  0
  5  4  2  0
  6  8  2  0
  7  6  1  0
  8 33  1  0
  8  2  1  0
  9 10  2  0
  9  5  1  0
 11 10  1  0
 12 11  2  0
 13 12  1  0
 13 18  2  0
 14 13  1  0
 15 14  2  0
 15 16  1  0
 16 17  2  0
 17 18  1  0
 18  9  1  0
 20 19  2  0
 21 20  1  0
 22 23  1  0
 22 21  2  0
 23 24  2  0
 24 19  1  0
 25 26  2  0
 25 21  1  0
 27 26  1  0
 28 29  2  0
 28 27  1  0
 29 25  1  0
 30 31  2  0
 30 32  1  0
 32 28  1  0
 33 34  1  0
 33 36  1  0
 35 33  1  0
  4 37  1  0
 10 38  1  0
 11 39  1  0
 12 40  1  0
 14 41  1  0
 15 42  1  0
 16 43  1  0
 17 44  1  0
 19 45  1  0
 20 46  1  0
 26 47  1  0
 27 48  1  0
 30 49  1  0
 32 50  1  0
M  END
>  <minimizedAffinity>  (1) 
-7.06753397

>  <minimizedRMSD>  (1) 
0.906236053

$$$$
