
     RDKit          3D

 29 31  0  0  0  0  0  0  0  0999 V2000
   36.6850   29.9000   49.5050 C   0  0  0  0  0  0  0  0  0  0  0  0
   37.7750   30.3580   48.7840 C   0  0  0  0  0  0  0  0  0  0  0  0
   37.6830   30.7470   47.4660 C   0  0  0  0  0  0  0  0  0  0  0  0
   36.4120   30.6450   46.9290 N   0  0  0  0  0  0  0  0  0  0  0  0
   35.3630   30.2040   47.6320 C   0  0  0  0  0  0  0  0  0  0  0  0
   35.5060   29.8370   48.9040 N   0  0  0  0  0  0  0  0  0  0  0  0
   38.6570   31.3040   46.5810 C   0  0  0  0  0  0  0  0  0  0  0  0
   39.2120   32.5420   46.9410 C   0  0  0  0  0  0  0  0  0  0  0  0
   40.1470   33.2380   46.2240 C   0  0  0  0  0  0  0  0  0  0  0  0
   40.6020   32.7030   45.0410 C   0  0  0  0  0  0  0  0  0  0  0  0
   40.1080   31.5060   44.6230 C   0  0  0  0  0  0  0  0  0  0  0  0
   40.5330   30.9800   43.4220 C   0  0  0  0  0  0  0  0  0  0  0  0
   40.0320   29.7770   42.9280 C   0  0  0  0  0  0  0  0  0  0  0  0
   39.0730   29.1320   43.7180 C   0  0  0  0  0  0  0  0  0  0  0  0
   38.6930   29.6990   44.8970 C   0  0  0  0  0  0  0  0  0  0  0  0
   39.1770   30.8790   45.3990 C   0  0  0  0  0  0  0  0  0  0  0  0
   36.8740   29.4970   50.9260 C   0  0  0  0  0  0  0  0  0  0  0  0
   35.6530   29.1270   51.4690 F   0  0  0  0  0  0  0  0  0  0  0  0
   37.8210   28.4970   50.9550 F   0  0  0  0  0  0  0  0  0  0  0  0
   37.3320   30.6010   51.6310 F   0  0  0  0  0  0  0  0  0  0  0  0
   38.7533   30.4133   49.2839 H   0  0  0  0  0  0  0  0  0  0  0  0
   34.3735   30.1440   47.1552 H   0  0  0  0  0  0  0  0  0  0  0  0
   38.8647   32.9925   47.8825 H   0  0  0  0  0  0  0  0  0  0  0  0
   40.5268   34.2048   46.5859 H   0  0  0  0  0  0  0  0  0  0  0  0
   41.3548   33.2356   44.4413 H   0  0  0  0  0  0  0  0  0  0  0  0
   41.2887   31.5249   42.8371 H   0  0  0  0  0  0  0  0  0  0  0  0
   40.3716   29.3572   41.9696 H   0  0  0  0  0  0  0  0  0  0  0  0
   38.6317   28.1790   43.3908 H   0  0  0  0  0  0  0  0  0  0  0  0
   37.9373   29.1673   45.4938 H   0  0  0  0  0  0  0  0  0  0  0  0
  1 17  1  0
  2  1  2  0
  3  2  1  0
  4  3  2  0
  4  5  1  0
  5  6  2  0
  6  1  1  0
  7  8  2  0
  7  3  1  0
  9  8  1  0
 10  9  2  0
 11 10  1  0
 11 16  2  0
 12 11  1  0
 13 12  2  0
 13 14  1  0
 14 15  2  0
 15 16  1  0
 16  7  1  0
 17 19  1  0
 17 18  1  0
 17 20  1  0
  2 21  1  0
  5 22  1  0
  8 23  1  0
  9 24  1  0
 10 25  1  0
 12 26  1  0
 13 27  1  0
 14 28  1  0
 15 29  1  0
M  ISO  8  21  14  22  14  23  14  24  14  25  14  26  14  27  14  28  14
M  ISO  1  29  14
M  END
>  <minimizedAffinity>  (1) 
-7.17465591

>  <minimizedRMSD>  (1) 
3.2345686

$$$$
