
     RDKit          3D

 42 45  0  0  0  0  0  0  0  0999 V2000
   38.6560   31.9670   44.6640 C   0  0  0  0  0  0  0  0  0  0  0  0
   39.5850   32.8210   45.1530 C   0  0  0  0  0  0  0  0  0  0  0  0
   39.6670   33.0410   46.5310 C   0  0  0  0  0  0  0  0  0  0  0  0
   38.7730   32.3570   47.3100 N   0  0  0  0  0  0  0  0  0  0  0  0
   37.8590   31.5160   46.8190 C   0  0  0  0  0  0  0  0  0  0  0  0
   37.8520   31.3650   45.4920 N   0  0  0  0  0  0  0  0  0  0  0  0
   36.8520   30.7250   47.5300 C   0  0  0  0  0  0  0  0  0  0  0  0
   35.7260   30.2260   46.8740 C   0  0  0  0  0  0  0  0  0  0  0  0
   34.7470   29.4820   47.4790 C   0  0  0  0  0  0  0  0  0  0  0  0
   34.8520   29.1910   48.8170 C   0  0  0  0  0  0  0  0  0  0  0  0
   35.9420   29.6560   49.5180 C   0  0  0  0  0  0  0  0  0  0  0  0
   36.0150   29.3460   50.8570 C   0  0  0  0  0  0  0  0  0  0  0  0
   37.0680   29.7740   51.6140 C   0  0  0  0  0  0  0  0  0  0  0  0
   38.0420   30.5300   50.9540 C   0  0  0  0  0  0  0  0  0  0  0  0
   37.9280   30.8160   49.6150 C   0  0  0  0  0  0  0  0  0  0  0  0
   36.8820   30.3960   48.8420 C   0  0  0  0  0  0  0  0  0  0  0  0
   38.5430   31.7220   43.2420 C   0  0  0  0  0  0  0  0  0  0  0  0
   39.6280   32.1370   42.3520 C   0  0  0  0  0  0  0  0  0  0  0  0
   40.3760   31.0340   41.7280 C   0  0  0  0  0  0  0  0  0  0  0  0
   40.8420   29.9840   42.5010 C   0  0  0  0  0  0  0  0  0  0  0  0
   41.4950   29.1100   41.6760 C   0  0  0  0  0  0  0  0  0  0  0  0
   41.4280   29.6080   40.4480 N   0  0  0  0  0  0  0  0  0  0  0  0
   40.7610   30.7520   40.4900 N   0  0  0  0  0  0  0  0  0  0  0  0
   41.9710   29.0560   39.2000 C   0  0  0  0  0  0  0  0  0  0  0  0
   41.0730   28.1950   38.6200 F   0  0  0  0  0  0  0  0  0  0  0  0
   43.1620   28.3800   39.4340 F   0  0  0  0  0  0  0  0  0  0  0  0
   42.2290   30.0730   38.2810 F   0  0  0  0  0  0  0  0  0  0  0  0
   40.2727   33.3398   44.4690 H   0  0  0  0  0  0  0  0  0  0  0  0
   40.4095   33.7264   46.9657 H   0  0  0  0  0  0  0  0  0  0  0  0
   35.6171   30.4441   45.8013 H   0  0  0  0  0  0  0  0  0  0  0  0
   33.8852   29.1213   46.8984 H   0  0  0  0  0  0  0  0  0  0  0  0
   34.0768   28.5953   49.3212 H   0  0  0  0  0  0  0  0  0  0  0  0
   35.2175   28.7477   51.3219 H   0  0  0  0  0  0  0  0  0  0  0  0
   37.1459   29.5368   52.6853 H   0  0  0  0  0  0  0  0  0  0  0  0
   38.9122   30.9011   51.5152 H   0  0  0  0  0  0  0  0  0  0  0  0
   38.7198   31.4142   49.1404 H   0  0  0  0  0  0  0  0  0  0  0  0
   38.4204   30.6365   43.1129 H   0  0  0  0  0  0  0  0  0  0  0  0
   37.6994   32.3582   42.9359 H   0  0  0  0  0  0  0  0  0  0  0  0
   39.1949   32.7526   41.5498 H   0  0  0  0  0  0  0  0  0  0  0  0
   40.3491   32.6817   42.9791 H   0  0  0  0  0  0  0  0  0  0  0  0
   40.7103   29.8724   43.5874 H   0  0  0  0  0  0  0  0  0  0  0  0
   41.9838   28.1709   41.9745 H   0  0  0  0  0  0  0  0  0  0  0  0
  1  2  2  0
  1  6  1  0
  2  3  1  0
  3  4  2  0
  5  4  1  0
  5  7  1  0
  6  5  2  0
  7 16  2  0
  8  9  2  0
  8  7  1  0
  9 10  1  0
 10 11  2  0
 11 12  1  0
 12 13  2  0
 14 13  1  0
 15 14  2  0
 16 11  1  0
 16 15  1  0
 17  1  1  0
 18 17  1  0
 19 18  1  0
 19 20  1  0
 21 20  2  0
 22 23  1  0
 22 21  1  0
 23 19  2  0
 24 26  1  0
 24 22  1  0
 25 24  1  0
 27 24  1  0
  2 28  1  0
  3 29  1  0
  8 30  1  0
  9 31  1  0
 10 32  1  0
 12 33  1  0
 13 34  1  0
 14 35  1  0
 15 36  1  0
 17 37  1  0
 17 38  1  0
 18 39  1  0
 18 40  1  0
 20 41  1  0
 21 42  1  0
M  ISO  8  28  14  29  14  30  14  31  14  32  14  33  14  34  14  35  14
M  ISO  7  36  14  37   8  38   8  39   8  40   8  41  14  42  14
M  END
>  <minimizedAffinity>  (1) 
-7.17637253

>  <minimizedRMSD>  (1) 
9.22109604

$$$$
