
     RDKit          3D

 38 41  0  0  0  0  0  0  0  0999 V2000
   36.6940   30.3890   47.8550 C   0  0  0  0  0  0  0  0  0  0  0  0
   36.9110   30.7910   46.5100 C   0  0  0  0  0  0  0  0  0  0  0  0
   36.0240   30.3450   45.5320 C   0  0  0  0  0  0  0  0  0  0  0  0
   34.9890   29.5480   45.9060 N   0  0  0  0  0  0  0  0  0  0  0  0
   34.8020   29.1810   47.1800 C   0  0  0  0  0  0  0  0  0  0  0  0
   35.6380   29.5900   48.1630 N   0  0  0  0  0  0  0  0  0  0  0  0
   33.6950   28.3420   47.5150 N   0  0  0  0  0  0  0  0  0  0  0  0
   32.3070   28.7300   47.2480 C   0  0  0  0  0  0  0  0  0  0  0  0
   31.5070   27.5110   47.5160 C   0  0  0  0  0  0  0  0  0  0  0  0
   32.5000   26.3790   47.6590 C   0  0  0  0  0  0  0  0  0  0  0  0
   33.7450   27.0430   48.1390 C   0  0  0  0  0  0  0  0  0  0  0  0
   38.0800   31.6230   46.3710 C   0  0  0  0  0  0  0  0  0  0  0  0
   38.7520   31.5290   45.1470 C   0  0  0  0  0  0  0  0  0  0  0  0
   39.8760   32.2660   44.8210 C   0  0  0  0  0  0  0  0  0  0  0  0
   40.3490   33.1550   45.7940 C   0  0  0  0  0  0  0  0  0  0  0  0
   39.7180   33.2790   47.0130 C   0  0  0  0  0  0  0  0  0  0  0  0
   40.2060   34.1520   47.9530 C   0  0  0  0  0  0  0  0  0  0  0  0
   39.5300   34.2220   49.1560 C   0  0  0  0  0  0  0  0  0  0  0  0
   38.3990   33.4650   49.4590 C   0  0  0  0  0  0  0  0  0  0  0  0
   37.9660   32.6120   48.4720 C   0  0  0  0  0  0  0  0  0  0  0  0
   38.6130   32.5170   47.2630 C   0  0  0  0  0  0  0  0  0  0  0  0
   37.3800   30.7240   48.6470 H   0  0  0  0  0  0  0  0  0  0  0  0
   36.1590   30.6323   44.4788 H   0  0  0  0  0  0  0  0  0  0  0  0
   31.9995   29.5483   47.9157 H   0  0  0  0  0  0  0  0  0  0  0  0
   32.1714   29.0940   46.2189 H   0  0  0  0  0  0  0  0  0  0  0  0
   30.9286   27.6306   48.4440 H   0  0  0  0  0  0  0  0  0  0  0  0
   30.7896   27.3155   46.7054 H   0  0  0  0  0  0  0  0  0  0  0  0
   32.1452   25.6391   48.3915 H   0  0  0  0  0  0  0  0  0  0  0  0
   32.6513   25.8300   46.7179 H   0  0  0  0  0  0  0  0  0  0  0  0
   34.6371   26.4860   47.8168 H   0  0  0  0  0  0  0  0  0  0  0  0
   33.8068   27.0965   49.2360 H   0  0  0  0  0  0  0  0  0  0  0  0
   38.3618   30.8249   44.3973 H   0  0  0  0  0  0  0  0  0  0  0  0
   40.3737   32.1591   43.8459 H   0  0  0  0  0  0  0  0  0  0  0  0
   41.2395   33.7649   45.5818 H   0  0  0  0  0  0  0  0  0  0  0  0
   41.0957   34.7685   47.7573 H   0  0  0  0  0  0  0  0  0  0  0  0
   39.9069   34.9169   49.9209 H   0  0  0  0  0  0  0  0  0  0  0  0
   37.8849   33.5455   50.4282 H   0  0  0  0  0  0  0  0  0  0  0  0
   37.0781   31.9888   48.6545 H   0  0  0  0  0  0  0  0  0  0  0  0
  1  6  2  0
  2  1  1  0
  3  4  1  0
  3  2  2  0
  4  5  2  0
  5  7  1  0
  5  6  1  0
  7 11  1  0
  8  7  1  0
  8  9  1  0
  9 10  1  0
 10 11  1  0
 12  2  1  0
 12 21  1  0
 13 12  2  0
 14 13  1  0
 14 15  2  0
 15 16  1  0
 16 21  2  0
 16 17  1  0
 17 18  2  0
 18 19  1  0
 20 19  2  0
 21 20  1  0
  1 22  1  0
  3 23  1  0
  8 24  1  0
  8 25  1  0
  9 26  1  0
  9 27  1  0
 10 28  1  0
 10 29  1  0
 11 30  1  0
 11 31  1  0
 13 32  1  0
 14 33  1  0
 15 34  1  0
 17 35  1  0
 18 36  1  0
 19 37  1  0
 20 38  1  0
M  ISO  8  22  14  23  14  24  13  25  13  26  13  27  13  28  13  29  13
M  ISO  8  30  13  31  13  32  14  33  14  34  14  35  14  36  14  37  14
M  ISO  1  38  14
M  END
>  <minimizedAffinity>  (1) 
-6.10859394

>  <minimizedRMSD>  (1) 
3.64168501

$$$$
