
     RDKit          3D

 47 51  0  0  0  0  0  0  0  0999 V2000
   34.4260   30.3790   47.5790 F   0  0  0  0  0  0  0  0  0  0  0  0
   34.7830   29.9330   46.3300 C   0  0  0  0  0  0  0  0  0  0  0  0
   33.8870   29.2880   45.4890 C   0  0  0  0  0  0  0  0  0  0  0  0
   34.3090   28.8830   44.2490 C   0  0  0  0  0  0  0  0  0  0  0  0
   35.6270   29.1160   43.8330 C   0  0  0  0  0  0  0  0  0  0  0  0
   36.4730   29.7630   44.7180 C   0  0  0  0  0  0  0  0  0  0  0  0
   36.0960   30.1740   45.9410 C   0  0  0  0  0  0  0  0  0  0  0  0
   37.9270   32.4030   44.7080 Br  0  0  0  0  0  0  0  0  0  0  0  0
   37.9140   31.8570   46.5340 C   0  0  0  0  0  0  0  0  0  0  0  0
   37.0390   30.8360   46.8200 C   0  0  0  0  0  0  0  0  0  0  0  0
   37.0040   30.3510   48.1400 C   0  0  0  0  0  0  0  0  0  0  0  0
   37.8040   30.8750   49.0950 C   0  0  0  0  0  0  0  0  0  0  0  0
   38.6670   31.9070   48.7500 C   0  0  0  0  0  0  0  0  0  0  0  0
   38.7300   32.4140   47.4490 C   0  0  0  0  0  0  0  0  0  0  0  0
   39.5390   33.4200   47.0230 O   0  0  0  0  0  0  0  0  0  0  0  0
   32.3460   27.9990   46.8180 C   0  0  0  0  0  0  0  0  0  0  0  0
   32.5670   29.1100   46.0330 C   0  0  0  0  0  0  0  0  0  0  0  0
   31.5060   29.9760   45.8420 C   0  0  0  0  0  0  0  0  0  0  0  0
   30.3050   29.6970   46.4290 N   0  0  0  0  0  0  0  0  0  0  0  0
   30.1260   28.6230   47.1780 C   0  0  0  0  0  0  0  0  0  0  0  0
   31.1210   27.8040   47.3610 N   0  0  0  0  0  0  0  0  0  0  0  0
   28.7500   28.5810   47.6770 C   0  0  0  0  0  0  0  0  0  0  0  0
   27.6650   29.0190   46.9460 C   0  0  0  0  0  0  0  0  0  0  0  0
   26.3640   29.0090   47.3450 C   0  0  0  0  0  0  0  0  0  0  0  0
   26.0590   28.5220   48.5950 C   0  0  0  0  0  0  0  0  0  0  0  0
   27.0850   28.0640   49.3900 C   0  0  0  0  0  0  0  0  0  0  0  0
   26.7470   27.5820   50.6350 C   0  0  0  0  0  0  0  0  0  0  0  0
   27.7210   27.1080   51.4860 C   0  0  0  0  0  0  0  0  0  0  0  0
   29.0250   27.1380   51.0360 C   0  0  0  0  0  0  0  0  0  0  0  0
   29.3050   27.6310   49.7820 C   0  0  0  0  0  0  0  0  0  0  0  0
   28.3690   28.1140   48.9000 C   0  0  0  0  0  0  0  0  0  0  0  0
   33.6070   28.3707   43.5747 H   0  0  0  0  0  0  0  0  0  0  0  0
   35.9765   28.7967   42.8401 H   0  0  0  0  0  0  0  0  0  0  0  0
   37.5101   29.9508   44.4030 H   0  0  0  0  0  0  0  0  0  0  0  0
   36.3153   29.5332   48.3987 H   0  0  0  0  0  0  0  0  0  0  0  0
   37.7722   30.4915   50.1255 H   0  0  0  0  0  0  0  0  0  0  0  0
   39.3200   32.3380   49.5232 H   0  0  0  0  0  0  0  0  0  0  0  0
   40.1568   33.8612   47.6585 H   0  0  0  0  0  0  0  0  0  0  0  0
   33.1564   27.2781   47.0015 H   0  0  0  0  0  0  0  0  0  0  0  0
   31.6279   30.8784   45.2249 H   0  0  0  0  0  0  0  0  0  0  0  0
   27.8721   29.4156   45.9411 H   0  0  0  0  0  0  0  0  0  0  0  0
   25.5712   29.3832   46.6806 H   0  0  0  0  0  0  0  0  0  0  0  0
   25.0185   28.4992   48.9511 H   0  0  0  0  0  0  0  0  0  0  0  0
   25.6936   27.5755   50.9516 H   0  0  0  0  0  0  0  0  0  0  0  0
   27.4692   26.7210   52.4844 H   0  0  0  0  0  0  0  0  0  0  0  0
   29.8385   26.7689   51.6778 H   0  0  0  0  0  0  0  0  0  0  0  0
   30.3573   27.6389   49.4618 H   0  0  0  0  0  0  0  0  0  0  0  0
  2  1  1  0
  3 17  1  0
  3  2  2  0
  4  3  1  0
  5  4  2  0
  5  6  1  0
  6  7  2  0
  7  2  1  0
  7 10  1  0
  8  9  1  0
  9 10  2  0
  9 14  1  0
 10 11  1  0
 11 12  2  0
 13 12  1  0
 14 13  2  0
 15 14  1  0
 16 21  2  0
 17 16  1  0
 18 17  2  0
 18 19  1  0
 19 20  2  0
 20 21  1  0
 20 22  1  0
 22 31  2  0
 23 24  2  0
 23 22  1  0
 24 25  1  0
 25 26  2  0
 26 27  1  0
 27 28  2  0
 29 28  1  0
 30 29  2  0
 31 26  1  0
 31 30  1  0
  4 32  1  0
  5 33  1  0
  6 34  1  0
 11 35  1  0
 12 36  1  0
 13 37  1  0
 15 38  1  0
 16 39  1  0
 18 40  1  0
 23 41  1  0
 24 42  1  0
 25 43  1  0
 27 44  1  0
 28 45  1  0
 29 46  1  0
 30 47  1  0
M  END
>  <minimizedAffinity>  (1) 
-8.28072643

>  <minimizedRMSD>  (1) 
0.471486598

$$$$
