
     RDKit          3D

 33 35  0  0  0  0  0  0  0  0999 V2000
   32.7600   27.4860   48.3410 C   0  0  0  0  0  0  0  0  0  0  0  0
   31.4680   28.0370   47.8860 C   0  0  0  0  0  0  0  0  0  0  0  0
   31.4490   28.7250   46.6790 C   0  0  0  0  0  0  0  0  0  0  0  0
   30.3530   29.3220   46.1040 C   0  0  0  0  0  0  0  0  0  0  0  0
   29.1560   29.2130   46.8210 C   0  0  0  0  0  0  0  0  0  0  0  0
   29.1260   28.5380   48.0250 C   0  0  0  0  0  0  0  0  0  0  0  0
   27.9750   28.3960   48.7730 C   0  0  0  0  0  0  0  0  0  0  0  0
   27.9110   27.7240   49.9770 C   0  0  0  0  0  0  0  0  0  0  0  0
   29.0740   27.1730   50.4400 C   0  0  0  0  0  0  0  0  0  0  0  0
   30.2510   27.2770   49.7490 C   0  0  0  0  0  0  0  0  0  0  0  0
   30.2670   27.9550   48.5550 C   0  0  0  0  0  0  0  0  0  0  0  0
   33.7120   28.5820   48.6820 C   0  0  0  0  0  0  0  0  0  0  0  0
   34.5910   28.1850   49.7170 O   0  0  0  0  0  0  0  0  0  0  0  0
   37.1950   30.1860   51.2790 C   0  0  0  0  0  0  0  0  0  0  0  0
   37.8760   30.6240   50.1470 C   0  0  0  0  0  0  0  0  0  0  0  0
   37.4180   30.2190   48.8950 C   0  0  0  0  0  0  0  0  0  0  0  0
   36.3110   29.4050   48.8860 N   0  0  0  0  0  0  0  0  0  0  0  0
   35.6810   29.0010   49.9880 C   0  0  0  0  0  0  0  0  0  0  0  0
   36.1280   29.3960   51.1900 N   0  0  0  0  0  0  0  0  0  0  0  0
   33.1919   26.8697   47.5387 H   0  0  0  0  0  0  0  0  0  0  0  0
   32.5866   26.8768   49.2404 H   0  0  0  0  0  0  0  0  0  0  0  0
   32.4007   28.7987   46.1324 H   0  0  0  0  0  0  0  0  0  0  0  0
   30.4126   29.8517   45.1418 H   0  0  0  0  0  0  0  0  0  0  0  0
   28.2360   29.6667   46.4239 H   0  0  0  0  0  0  0  0  0  0  0  0
   27.0497   28.8470   48.3851 H   0  0  0  0  0  0  0  0  0  0  0  0
   26.9688   27.6358   50.5378 H   0  0  0  0  0  0  0  0  0  0  0  0
   29.0632   26.6299   51.3965 H   0  0  0  0  0  0  0  0  0  0  0  0
   31.1717   26.8235   50.1449 H   0  0  0  0  0  0  0  0  0  0  0  0
   34.3004   28.8385   47.7887 H   0  0  0  0  0  0  0  0  0  0  0  0
   33.1354   29.4532   49.0263 H   0  0  0  0  0  0  0  0  0  0  0  0
   37.5477   30.5008   52.2722 H   0  0  0  0  0  0  0  0  0  0  0  0
   38.7571   31.2761   50.2388 H   0  0  0  0  0  0  0  0  0  0  0  0
   37.9150   30.5334   47.9654 H   0  0  0  0  0  0  0  0  0  0  0  0
  1 12  1  0
  2  1  1  0
  2 11  1  0
  3  2  2  0
  4  3  1  0
  4  5  2  0
  5  6  1  0
  6 11  2  0
  6  7  1  0
  7  8  2  0
  8  9  1  0
 10  9  2  0
 11 10  1  0
 12 13  1  0
 13 18  1  0
 15 14  2  0
 16 15  1  0
 17 16  2  0
 17 18  1  0
 18 19  2  0
 19 14  1  0
  1 20  1  0
  1 21  1  0
  3 22  1  0
  4 23  1  0
  5 24  1  0
  7 25  1  0
  8 26  1  0
  9 27  1  0
 10 28  1  0
 12 29  1  0
 12 30  1  0
 14 31  1  0
 15 32  1  0
 16 33  1  0
M  ISO  8  20   8  21   8  22  14  23  14  24  14  25  14  26  14  27  14
M  ISO  6  28  14  29   8  30   8  31  14  32  14  33  14
M  END
>  <minimizedAffinity>  (1) 
-5.32962894

>  <minimizedRMSD>  (1) 
2.77877283

$$$$
