
     RDKit          3D

 53 59  0  0  1  0  0  0  0  0999 V2000
   32.3830   27.9130   48.0950 C   0  0  0  0  0  0  0  0  0  0  0  0
   33.2320   26.8380   47.9000 C   0  0  0  0  0  0  0  0  0  0  0  0
   34.4630   27.1930   48.3520 N   0  0  0  0  0  0  0  0  0  0  0  0
   34.4020   28.4690   48.8250 C   0  0  0  0  0  0  0  0  0  0  0  0
   33.1320   28.8940   48.6620 N   0  0  0  0  0  0  0  0  0  0  0  0
   29.9070   27.9050   48.7600 C   0  0  1  0  0  0  0  0  0  0  0  0
   30.1260   26.6920   47.7820 C   0  0  0  0  0  0  0  0  0  0  0  0
   30.9330   27.9540   47.7210 C   0  0  2  0  0  0  0  0  0  0  0  0
   27.2320   30.1480   47.8920 C   0  0  0  0  0  0  0  0  0  0  0  0
   26.5970   29.3520   48.8210 C   0  0  0  0  0  0  0  0  0  0  0  0
   27.5250   28.3930   49.2750 C   0  0  0  0  0  0  0  0  0  0  0  0
   28.6680   28.6380   48.6190 N   0  0  0  0  0  0  0  0  0  0  0  0
   28.4530   29.6600   47.8310 N   0  0  0  0  0  0  0  0  0  0  0  0
   25.7290   32.1670   47.8860 C   0  0  0  0  0  0  0  0  0  0  0  0
   26.5950   31.2440   47.2060 C   0  0  0  0  0  0  0  0  0  0  0  0
   26.7950   31.4470   45.8660 C   0  0  0  0  0  0  0  0  0  0  0  0
   26.1700   32.4990   45.2600 N   0  0  0  0  0  0  0  0  0  0  0  0
   25.3670   33.3370   45.9380 C   0  0  0  0  0  0  0  0  0  0  0  0
   25.1340   33.1840   47.2640 N   0  0  0  0  0  0  0  0  0  0  0  0
   35.5160   29.2690   49.4130 C   0  0  0  0  0  0  0  0  0  0  0  0
   35.9040   29.1170   50.7450 C   0  0  0  0  0  0  0  0  0  0  0  0
   37.2730   30.3330   50.8790 S   0  0  0  0  0  0  0  0  0  0  0  0
   37.0700   30.8370   49.0760 C   0  0  0  0  0  0  0  0  0  0  0  0
   36.2270   30.1660   48.7910 N   0  0  0  0  0  0  0  0  0  0  0  0
   38.0320   31.8950   48.6430 C   0  0  0  0  0  0  0  0  0  0  0  0
   38.3150   33.0120   49.3880 C   0  0  0  0  0  0  0  0  0  0  0  0
   39.2100   33.9760   48.9600 C   0  0  0  0  0  0  0  0  0  0  0  0
   39.8390   33.8060   47.7450 C   0  0  0  0  0  0  0  0  0  0  0  0
   39.5840   32.7130   46.9800 C   0  0  0  0  0  0  0  0  0  0  0  0
   40.2270   32.5710   45.7700 C   0  0  0  0  0  0  0  0  0  0  0  0
   39.9630   31.4450   44.9850 C   0  0  0  0  0  0  0  0  0  0  0  0
   39.0460   30.5130   45.4820 C   0  0  0  0  0  0  0  0  0  0  0  0
   38.4240   30.6840   46.6880 C   0  0  0  0  0  0  0  0  0  0  0  0
   38.6960   31.7990   47.4480 C   0  0  0  0  0  0  0  0  0  0  0  0
   32.9589   25.8686   47.4577 H   0  0  0  0  0  0  0  0  0  0  0  0
   35.3027   26.5966   48.3392 H   0  0  0  0  0  0  0  0  0  0  0  0
   29.9185   28.0801   49.8459 H   0  0  0  0  0  0  0  0  0  0  0  0
   30.5778   25.7567   48.1441 H   0  0  0  0  0  0  0  0  0  0  0  0
   29.5061   26.1084   47.0854 H   0  0  0  0  0  0  0  0  0  0  0  0
   31.1510   28.6759   46.9201 H   0  0  0  0  0  0  0  0  0  0  0  0
   25.5517   29.4481   49.1497 H   0  0  0  0  0  0  0  0  0  0  0  0
   27.3469   27.6021   50.0185 H   0  0  0  0  0  0  0  0  0  0  0  0
   25.5502   32.0286   48.9625 H   0  0  0  0  0  0  0  0  0  0  0  0
   27.4471   30.7749   45.2889 H   0  0  0  0  0  0  0  0  0  0  0  0
   24.8864   34.1689   45.4023 H   0  0  0  0  0  0  0  0  0  0  0  0
   35.4961   28.4443   51.5138 H   0  0  0  0  0  0  0  0  0  0  0  0
   37.8135   33.1453   50.3579 H   0  0  0  0  0  0  0  0  0  0  0  0
   39.4162   34.8623   49.5780 H   0  0  0  0  0  0  0  0  0  0  0  0
   40.5545   34.5631   47.3916 H   0  0  0  0  0  0  0  0  0  0  0  0
   40.9398   33.3347   45.4256 H   0  0  0  0  0  0  0  0  0  0  0  0
   40.4575   31.2975   44.0135 H   0  0  0  0  0  0  0  0  0  0  0  0
   38.8186   29.6169   44.8859 H   0  0  0  0  0  0  0  0  0  0  0  0
   37.7076   29.9318   47.0500 H   0  0  0  0  0  0  0  0  0  0  0  0
  1  5  1  0
  2  1  2  0
  2  3  1  0
  3  4  1  0
  4 20  1  0
  5  4  2  0
  7  6  1  0
  8  7  1  0
  8  1  1  0
  8  6  1  0
  9 10  1  0
 10 11  2  0
 12  6  1  0
 12 11  1  0
 13  9  2  0
 13 12  1  0
 15 14  2  0
 15  9  1  0
 16 15  1  0
 17 16  2  0
 17 18  1  0
 18 19  2  0
 19 14  1  0
 20 21  2  0
 21 22  1  0
 23 22  1  0
 24 23  2  0
 24 20  1  0
 25 23  1  0
 25 26  2  0
 27 26  1  0
 28 27  2  0
 29 34  2  0
 29 28  1  0
 30 29  1  0
 31 32  1  0
 31 30  2  0
 32 33  2  0
 33 34  1  0
 34 25  1  0
  2 35  1  0
  3 36  1  0
  6 37  1  1
  7 38  1  0
  7 39  1  0
  8 40  1  6
 10 41  1  0
 11 42  1  0
 14 43  1  0
 16 44  1  0
 18 45  1  0
 21 46  1  0
 26 47  1  0
 27 48  1  0
 28 49  1  0
 30 50  1  0
 31 51  1  0
 32 52  1  0
 33 53  1  0
M  END
>  <minimizedAffinity>  (1) 
-8.70435333

>  <minimizedRMSD>  (1) 
3.20955396

$$$$
