
     RDKit          3D

 38 41  0  0  1  0  0  0  0  0999 V2000
   36.3650   30.2840   48.6620 N   0  0  0  0  0  0  0  0  0  0  0  0
   36.8840   31.3970   47.8780 C   0  0  1  0  0  0  0  0  0  0  0  0
   37.5410   32.2520   48.9280 C   0  0  0  0  0  0  0  0  0  0  0  0
   37.2400   31.6040   50.2770 C   0  0  0  0  0  0  0  0  0  0  0  0
   37.1600   30.1620   49.8740 C   0  0  0  0  0  0  0  0  0  0  0  0
   37.7270   30.9960   46.7680 C   0  0  0  0  0  0  0  0  0  0  0  0
   39.1030   30.8910   46.7860 C   0  0  0  0  0  0  0  0  0  0  0  0
   39.9050   30.5030   45.7330 C   0  0  0  0  0  0  0  0  0  0  0  0
   39.3060   30.1850   44.5430 C   0  0  0  0  0  0  0  0  0  0  0  0
   37.9330   30.2640   44.4420 C   0  0  0  0  0  0  0  0  0  0  0  0
   37.3970   29.9360   43.2300 C   0  0  0  0  0  0  0  0  0  0  0  0
   36.0320   29.9930   43.0490 C   0  0  0  0  0  0  0  0  0  0  0  0
   35.2240   30.3810   44.1010 C   0  0  0  0  0  0  0  0  0  0  0  0
   35.8280   30.6970   45.2890 C   0  0  0  0  0  0  0  0  0  0  0  0
   37.1850   30.6620   45.5370 C   0  0  0  0  0  0  0  0  0  0  0  0
   35.2710   29.4390   48.3540 C   0  0  0  0  0  0  0  0  0  0  0  0
   34.2200   30.0280   47.6360 C   0  0  0  0  0  0  0  0  0  0  0  0
   33.1000   29.2640   47.3000 C   0  0  0  0  0  0  0  0  0  0  0  0
   33.1220   27.9450   47.7170 N   0  0  0  0  0  0  0  0  0  0  0  0
   34.1490   27.4180   48.4030 C   0  0  0  0  0  0  0  0  0  0  0  0
   35.2440   28.1680   48.7300 N   0  0  0  0  0  0  0  0  0  0  0  0
   36.1092   31.9502   47.3270 H   0  0  0  0  0  0  0  0  0  0  0  0
   38.6275   32.2897   48.7601 H   0  0  0  0  0  0  0  0  0  0  0  0
   37.1600   33.2833   48.8920 H   0  0  0  0  0  0  0  0  0  0  0  0
   38.0490   31.7792   51.0015 H   0  0  0  0  0  0  0  0  0  0  0  0
   36.3419   31.9901   50.7814 H   0  0  0  0  0  0  0  0  0  0  0  0
   36.6523   29.5524   50.6360 H   0  0  0  0  0  0  0  0  0  0  0  0
   38.1311   29.6621   49.7435 H   0  0  0  0  0  0  0  0  0  0  0  0
   39.6085   31.1406   47.7305 H   0  0  0  0  0  0  0  0  0  0  0  0
   40.9979   30.4503   45.8461 H   0  0  0  0  0  0  0  0  0  0  0  0
   39.9116   29.8710   43.6801 H   0  0  0  0  0  0  0  0  0  0  0  0
   38.0517   29.6276   42.4016 H   0  0  0  0  0  0  0  0  0  0  0  0
   35.5897   29.7321   42.0762 H   0  0  0  0  0  0  0  0  0  0  0  0
   34.1311   30.4343   43.9879 H   0  0  0  0  0  0  0  0  0  0  0  0
   35.1741   31.0057   46.1179 H   0  0  0  0  0  0  0  0  0  0  0  0
   34.2774   31.0856   47.3392 H   0  0  0  0  0  0  0  0  0  0  0  0
   32.2529   29.6850   46.7386 H   0  0  0  0  0  0  0  0  0  0  0  0
   34.1083   26.3619   48.7078 H   0  0  0  0  0  0  0  0  0  0  0  0
  1  5  1  0
  2  1  1  0
  2  3  1  0
  3  4  1  0
  5  4  1  0
  6  7  2  0
  6  2  1  0
  8  7  1  0
  9  8  2  0
 10  9  1  0
 10 15  2  0
 11 10  1  0
 12 11  2  0
 12 13  1  0
 13 14  2  0
 14 15  1  0
 15  6  1  0
 16  1  1  0
 16 21  1  0
 17 16  2  0
 18 17  1  0
 18 19  2  0
 19 20  1  0
 20 21  2  0
  2 22  1  6
  3 23  1  0
  3 24  1  0
  4 25  1  0
  4 26  1  0
  5 27  1  0
  5 28  1  0
  7 29  1  0
  8 30  1  0
  9 31  1  0
 11 32  1  0
 12 33  1  0
 13 34  1  0
 14 35  1  0
 17 36  1  0
 18 37  1  0
 20 38  1  0
M  ISO  8  22  13  23  13  24  13  25  13  26  13  27  13  28  13  29  14
M  ISO  8  30  14  31  14  32  14  33  14  34  14  35  14  36  14  37  14
M  ISO  1  38  14
M  END
>  <minimizedAffinity>  (1) 
-4.76893377

>  <minimizedRMSD>  (1) 
3.12079072

$$$$
