
     RDKit          3D

 55 59  0  0  0  0  0  0  0  0999 V2000
   39.7650   25.1790   53.3990 C   0  0  0  0  0  0  0  0  0  0  0  0
   39.5730   26.1870   52.4650 C   0  0  0  0  0  0  0  0  0  0  0  0
   40.2000   25.9960   51.2410 C   0  0  0  0  0  0  0  0  0  0  0  0
   40.9590   24.9110   50.9390 C   0  0  0  0  0  0  0  0  0  0  0  0
   41.6510   24.4760   49.9000 N   0  0  0  0  0  0  0  0  0  0  0  0
   42.2520   23.2750   50.1330 C   0  0  0  0  0  0  0  0  0  0  0  0
   41.9050   22.9360   51.4240 C   0  0  0  0  0  0  0  0  0  0  0  0
   41.1100   23.9410   51.9190 C   0  0  0  0  0  0  0  0  0  0  0  0
   40.5240   24.0550   53.1520 C   0  0  0  0  0  0  0  0  0  0  0  0
   40.6790   23.0370   54.1900 C   0  0  0  0  0  0  0  0  0  0  0  0
   40.0530   21.8100   54.0860 C   0  0  0  0  0  0  0  0  0  0  0  0
   40.2640   20.9020   55.1310 C   0  0  0  0  0  0  0  0  0  0  0  0
   41.0660   21.2350   56.2130 C   0  0  0  0  0  0  0  0  0  0  0  0
   41.6750   22.4740   56.2790 C   0  0  0  0  0  0  0  0  0  0  0  0
   42.4730   22.7690   57.3820 C   0  0  0  0  0  0  0  0  0  0  0  0
   43.0820   24.0090   57.4480 C   0  0  0  0  0  0  0  0  0  0  0  0
   42.8890   24.9200   56.4290 C   0  0  0  0  0  0  0  0  0  0  0  0
   42.0960   24.6510   55.3140 C   0  0  0  0  0  0  0  0  0  0  0  0
   41.4930   23.3990   55.2690 C   0  0  0  0  0  0  0  0  0  0  0  0
   38.6340   27.6710   52.6430 S   0  0  0  0  0  0  0  0  0  0  0  0
   37.9420   28.2840   51.1290 C   0  0  0  0  0  0  0  0  0  0  0  0
   36.9100   29.3770   51.3190 C   0  0  0  0  0  0  0  0  0  0  0  0
   37.2710   30.5770   50.7930 C   0  0  0  0  0  0  0  0  0  0  0  0
   37.4010   30.1900   49.4910 O   0  0  0  0  0  0  0  0  0  0  0  0
   38.0600   31.0250   48.6210 C   0  0  0  0  0  0  0  0  0  0  0  0
   38.3210   32.2600   49.1640 C   0  0  0  0  0  0  0  0  0  0  0  0
   38.9920   33.2140   48.3800 C   0  0  0  0  0  0  0  0  0  0  0  0
   39.3490   32.8560   47.1160 N   0  0  0  0  0  0  0  0  0  0  0  0
   39.0730   31.6110   46.6020 C   0  0  0  0  0  0  0  0  0  0  0  0
   38.4320   30.7240   47.3740 N   0  0  0  0  0  0  0  0  0  0  0  0
   40.1120   32.4310   44.6070 C   0  0  0  0  0  0  0  0  0  0  0  0
   40.3120   33.5740   45.0930 O   0  0  0  0  0  0  0  0  0  0  0  0
   39.4910   31.3420   45.2730 N   0  0  0  0  0  0  0  0  0  0  0  0
   39.2882   25.2818   54.3849 H   0  0  0  0  0  0  0  0  0  0  0  0
   40.0745   26.7700   50.4695 H   0  0  0  0  0  0  0  0  0  0  0  0
   41.7277   24.9893   49.0103 H   0  0  0  0  0  0  0  0  0  0  0  0
   42.8806   22.6983   49.4385 H   0  0  0  0  0  0  0  0  0  0  0  0
   42.2098   22.0253   51.9604 H   0  0  0  0  0  0  0  0  0  0  0  0
   39.4188   21.5581   53.2232 H   0  0  0  0  0  0  0  0  0  0  0  0
   39.7874   19.9113   55.0935 H   0  0  0  0  0  0  0  0  0  0  0  0
   41.2183   20.5078   57.0241 H   0  0  0  0  0  0  0  0  0  0  0  0
   42.6159   22.0304   58.1845 H   0  0  0  0  0  0  0  0  0  0  0  0
   43.7169   24.2680   58.3081 H   0  0  0  0  0  0  0  0  0  0  0  0
   43.3822   25.9007   56.4996 H   0  0  0  0  0  0  0  0  0  0  0  0
   41.9549   25.3906   54.5121 H   0  0  0  0  0  0  0  0  0  0  0  0
   37.4636   27.4447   50.6030 H   0  0  0  0  0  0  0  0  0  0  0  0
   38.7711   28.7262   50.5572 H   0  0  0  0  0  0  0  0  0  0  0  0
   35.9742   29.0562   50.8380 H   0  0  0  0  0  0  0  0  0  0  0  0
   36.8004   29.5255   52.4034 H   0  0  0  0  0  0  0  0  0  0  0  0
   36.4894   31.3399   50.9236 H   0  0  0  0  0  0  0  0  0  0  0  0
   38.1553   31.0518   51.2431 H   0  0  0  0  0  0  0  0  0  0  0  0
   38.0108   32.4973   50.1923 H   0  0  0  0  0  0  0  0  0  0  0  0
   39.2208   34.2152   48.7740 H   0  0  0  0  0  0  0  0  0  0  0  0
   40.4484   32.2602   43.5737 H   0  0  0  0  0  0  0  0  0  0  0  0
   39.3540   30.4248   44.8248 H   0  0  0  0  0  0  0  0  0  0  0  0
  2 20  1  0
  2  1  2  0
  3  2  1  0
  4  3  2  0
  4  8  1  0
  5  6  1  0
  5  4  1  0
  6  7  2  0
  7  8  1  0
  8  9  2  0
  9  1  1  0
  9 10  1  0
 10 19  1  0
 11 10  2  0
 11 12  1  0
 12 13  2  0
 13 14  1  0
 14 15  2  0
 15 16  1  0
 17 16  2  0
 18 17  1  0
 19 18  2  0
 19 14  1  0
 21 22  1  0
 21 20  1  0
 23 22  1  0
 24 23  1  0
 25 26  2  0
 25 24  1  0
 27 26  1  0
 28 27  2  0
 29 28  1  0
 29 30  2  0
 30 25  1  0
 31 32  2  0
 31 33  1  0
 33 29  1  0
  1 34  1  0
  3 35  1  0
  5 36  1  0
  6 37  1  0
  7 38  1  0
 11 39  1  0
 12 40  1  0
 13 41  1  0
 15 42  1  0
 16 43  1  0
 17 44  1  0
 18 45  1  0
 21 46  1  0
 21 47  1  0
 22 48  1  0
 22 49  1  0
 23 50  1  0
 23 51  1  0
 26 52  1  0
 27 53  1  0
 31 54  1  0
 33 55  1  0
M  ISO  8  34  14  35  14  36   9  37  14  38  14  39  14  40  14  41  14
M  ISO  8  42  14  43  14  44  14  45  14  46   8  47   8  48   8  49   8
M  ISO  5  50   8  51   8  52  14  53  14  54   6
M  END
>  <minimizedAffinity>  (1) 
-4.86955881

>  <minimizedRMSD>  (1) 
0.954272926

$$$$
