
     RDKit          3D

 29 31  0  0  0  0  0  0  0  0999 V2000
   37.2970   30.5410   49.5660 C   0  0  0  0  0  0  0  0  0  0  0  0
   37.1330   31.7420   50.2380 C   0  0  0  0  0  0  0  0  0  0  0  0
   37.5990   32.9010   49.5960 C   0  0  0  0  0  0  0  0  0  0  0  0
   38.1730   32.7800   48.3780 N   0  0  0  0  0  0  0  0  0  0  0  0
   38.3200   31.6120   47.7500 C   0  0  0  0  0  0  0  0  0  0  0  0
   37.8710   30.5360   48.3780 N   0  0  0  0  0  0  0  0  0  0  0  0
   38.9010   31.2970   46.4480 C   0  0  0  0  0  0  0  0  0  0  0  0
   40.2590   31.4710   46.1470 C   0  0  0  0  0  0  0  0  0  0  0  0
   40.8210   31.1800   44.9330 C   0  0  0  0  0  0  0  0  0  0  0  0
   40.0600   30.6900   43.9250 C   0  0  0  0  0  0  0  0  0  0  0  0
   38.7160   30.4890   44.1400 C   0  0  0  0  0  0  0  0  0  0  0  0
   37.9750   29.9880   43.0930 C   0  0  0  0  0  0  0  0  0  0  0  0
   36.6240   29.7640   43.2470 C   0  0  0  0  0  0  0  0  0  0  0  0
   36.0630   30.0640   44.4870 C   0  0  0  0  0  0  0  0  0  0  0  0
   36.8560   30.5630   45.4980 C   0  0  0  0  0  0  0  0  0  0  0  0
   38.2030   30.7980   45.3750 C   0  0  0  0  0  0  0  0  0  0  0  0
   36.8120   29.2800   50.2160 C   0  0  0  0  0  0  0  0  0  0  0  0
   36.0330   28.5500   49.3230 F   0  0  0  0  0  0  0  0  0  0  0  0
   37.9070   28.5770   50.6490 F   0  0  0  0  0  0  0  0  0  0  0  0
   35.9930   29.6590   51.2700 F   0  0  0  0  0  0  0  0  0  0  0  0
   36.6591   31.7855   51.2297 H   0  0  0  0  0  0  0  0  0  0  0  0
   37.4990   33.8865   50.0742 H   0  0  0  0  0  0  0  0  0  0  0  0
   40.9149   31.8666   46.9365 H   0  0  0  0  0  0  0  0  0  0  0  0
   41.8970   31.3451   44.7751 H   0  0  0  0  0  0  0  0  0  0  0  0
   40.5101   30.4562   42.9489 H   0  0  0  0  0  0  0  0  0  0  0  0
   38.4623   29.7662   42.1321 H   0  0  0  0  0  0  0  0  0  0  0  0
   36.0129   29.3644   42.4242 H   0  0  0  0  0  0  0  0  0  0  0  0
   34.9885   29.9027   44.6587 H   0  0  0  0  0  0  0  0  0  0  0  0
   36.3797   30.7870   46.4639 H   0  0  0  0  0  0  0  0  0  0  0  0
  1 17  1  0
  1  2  2  0
  3  2  1  0
  4  3  2  0
  5  4  1  0
  5  6  2  0
  6  1  1  0
  7  5  1  0
  8  7  2  0
  9  8  1  0
 10 11  1  0
 10  9  2  0
 11 16  2  0
 12 13  2  0
 12 11  1  0
 13 14  1  0
 14 15  2  0
 16 15  1  0
 16  7  1  0
 17 19  1  0
 17 20  1  0
 18 17  1  0
  2 21  1  0
  3 22  1  0
  8 23  1  0
  9 24  1  0
 10 25  1  0
 12 26  1  0
 13 27  1  0
 14 28  1  0
 15 29  1  0
M  ISO  8  21  14  22  14  23  14  24  14  25  14  26  14  27  14  28  14
M  ISO  1  29  14
M  END
>  <minimizedAffinity>  (1) 
-6.4506588

>  <minimizedRMSD>  (1) 
3.57768536

$$$$
