
     RDKit          3D

 51 54  0  0  0  0  0  0  0  0999 V2000
   33.6170   27.4210   47.8220 C   0  0  0  0  0  0  0  0  0  0  0  0
   32.1800   27.8310   47.7950 C   0  0  0  0  0  0  0  0  0  0  0  0
   31.3880   27.4340   48.8550 C   0  0  0  0  0  0  0  0  0  0  0  0
   30.0600   27.7680   48.9060 C   0  0  0  0  0  0  0  0  0  0  0  0
   29.5230   28.4800   47.9280 N   0  0  0  0  0  0  0  0  0  0  0  0
   30.3060   28.8730   46.8790 C   0  0  0  0  0  0  0  0  0  0  0  0
   31.6050   28.5500   46.8240 N   0  0  0  0  0  0  0  0  0  0  0  0
   29.6660   29.6750   45.8070 C   0  0  0  0  0  0  0  0  0  0  0  0
   27.2400   29.7360   45.1420 C   0  0  0  0  0  0  0  0  0  0  0  0
   28.4450   29.0810   45.2450 C   0  0  0  0  0  0  0  0  0  0  0  0
   28.5120   27.7620   44.7800 C   0  0  0  0  0  0  0  0  0  0  0  0
   27.4370   27.0940   44.2280 C   0  0  0  0  0  0  0  0  0  0  0  0
   26.2240   27.7350   44.1170 C   0  0  0  0  0  0  0  0  0  0  0  0
   26.1650   29.0370   44.5790 C   0  0  0  0  0  0  0  0  0  0  0  0
   27.0630   31.3690   45.6950 S   0  0  0  0  0  0  0  0  0  0  0  0
   26.4410   31.5050   47.0350 O   0  0  0  0  0  0  0  0  0  0  0  0
   26.0950   32.0450   44.7250 O   0  0  0  0  0  0  0  0  0  0  0  0
   34.5240   28.5530   48.2400 C   0  0  0  0  0  0  0  0  0  0  0  0
   35.0250   28.3390   49.5530 O   0  0  0  0  0  0  0  0  0  0  0  0
   37.3700   30.1940   51.5710 C   0  0  0  0  0  0  0  0  0  0  0  0
   38.0810   30.8810   50.5630 C   0  0  0  0  0  0  0  0  0  0  0  0
   37.7020   30.6580   49.2460 C   0  0  0  0  0  0  0  0  0  0  0  0
   36.6650   29.7840   49.0450 N   0  0  0  0  0  0  0  0  0  0  0  0
   36.0070   29.1450   50.0160 C   0  0  0  0  0  0  0  0  0  0  0  0
   36.3730   29.3610   51.2870 N   0  0  0  0  0  0  0  0  0  0  0  0
   38.9640   33.2630   49.0410 F   0  0  0  0  0  0  0  0  0  0  0  0
   38.9040   32.4790   47.9710 C   0  0  0  0  0  0  0  0  0  0  0  0
   38.3150   31.2740   48.0870 C   0  0  0  0  0  0  0  0  0  0  0  0
   38.3040   30.5240   46.9020 C   0  0  0  0  0  0  0  0  0  0  0  0
   38.8530   30.9950   45.7340 C   0  0  0  0  0  0  0  0  0  0  0  0
   39.4420   32.2260   45.6580 C   0  0  0  0  0  0  0  0  0  0  0  0
   39.4510   32.9480   46.8040 C   0  0  0  0  0  0  0  0  0  0  0  0
   33.9090   27.0859   46.8158 H   0  0  0  0  0  0  0  0  0  0  0  0
   33.7240   26.6119   48.5595 H   0  0  0  0  0  0  0  0  0  0  0  0
   31.8297   26.8413   49.6697 H   0  0  0  0  0  0  0  0  0  0  0  0
   29.4422   27.4454   49.7570 H   0  0  0  0  0  0  0  0  0  0  0  0
   29.4083   30.6602   46.2229 H   0  0  0  0  0  0  0  0  0  0  0  0
   30.3930   29.7313   44.9834 H   0  0  0  0  0  0  0  0  0  0  0  0
   29.4715   27.2299   44.8586 H   0  0  0  0  0  0  0  0  0  0  0  0
   27.5492   26.0568   43.8794 H   0  0  0  0  0  0  0  0  0  0  0  0
   25.3452   27.2363   43.6823 H   0  0  0  0  0  0  0  0  0  0  0  0
   25.2021   29.5627   44.4983 H   0  0  0  0  0  0  0  0  0  0  0  0
   28.3204   31.9088   45.7620 H   0  0  0  0  0  0  0  0  0  0  0  0
   35.3682   28.6170   47.5377 H   0  0  0  0  0  0  0  0  0  0  0  0
   33.9469   29.4894   48.2308 H   0  0  0  0  0  0  0  0  0  0  0  0
   37.6492   30.3526   52.6231 H   0  0  0  0  0  0  0  0  0  0  0  0
   38.9041   31.5670   50.8117 H   0  0  0  0  0  0  0  0  0  0  0  0
   37.8408   29.5263   46.9079 H   0  0  0  0  0  0  0  0  0  0  0  0
   38.8175   30.3633   44.8342 H   0  0  0  0  0  0  0  0  0  0  0  0
   39.8814   32.6067   44.7242 H   0  0  0  0  0  0  0  0  0  0  0  0
   39.9135   33.9460   46.7985 H   0  0  0  0  0  0  0  0  0  0  0  0
  1 18  1  0
  2  1  1  0
  2  3  2  0
  3  4  1  0
  5  4  2  0
  6  5  1  0
  7  6  2  0
  7  2  1  0
  8  6  1  0
  9 10  2  0
  9 15  1  0
 10  8  1  0
 11 10  1  0
 12 11  2  0
 13 12  1  0
 13 14  2  0
 14  9  1  0
 15 16  2  0
 17 15  2  0
 18 19  1  0
 19 24  1  0
 21 20  2  0
 22 21  1  0
 23 22  2  0
 23 24  1  0
 24 25  2  0
 25 20  1  0
 27 28  2  0
 27 26  1  0
 28 22  1  0
 29 28  1  0
 30 29  2  0
 31 30  1  0
 31 32  2  0
 32 27  1  0
  1 33  1  0
  1 34  1  0
  3 35  1  0
  4 36  1  0
  8 37  1  0
  8 38  1  0
 11 39  1  0
 12 40  1  0
 13 41  1  0
 14 42  1  0
 15 43  1  0
 18 44  1  0
 18 45  1  0
 20 46  1  0
 21 47  1  0
 29 48  1  0
 30 49  1  0
 31 50  1  0
 32 51  1  0
M  ISO  8  33   8  34   8  35  14  36  14  37   8  38   8  39  14  40  14
M  ISO  8  41  14  42  14  43  11  44   8  45   8  46  14  47  14  48  14
M  ISO  3  49  14  50  14  51  14
M  END
>  <minimizedAffinity>  (1) 
-6.92849112

>  <minimizedRMSD>  (1) 
0.803934157

$$$$
