
     RDKit          3D

 48 51  0  0  0  0  0  0  0  0999 V2000
   31.2930   28.9130   46.8340 C   0  0  0  0  0  0  0  0  0  0  0  0
   32.4350   29.6880   46.6280 C   0  0  0  0  0  0  0  0  0  0  0  0
   32.5100   30.6670   45.6840 C   0  0  0  0  0  0  0  0  0  0  0  0
   31.4150   30.9220   44.8790 C   0  0  0  0  0  0  0  0  0  0  0  0
   30.2610   30.1870   45.0280 C   0  0  0  0  0  0  0  0  0  0  0  0
   30.2560   29.2130   46.0020 C   0  0  0  0  0  0  0  0  0  0  0  0
   35.6100   30.0570   48.4060 C   0  0  0  0  0  0  0  0  0  0  0  0
   35.6520   28.8810   49.0450 C   0  0  0  0  0  0  0  0  0  0  0  0
   34.6700   27.9600   48.9260 C   0  0  0  0  0  0  0  0  0  0  0  0
   33.5970   28.2320   48.1260 N   0  0  0  0  0  0  0  0  0  0  0  0
   33.5820   29.4240   47.4930 C   0  0  0  0  0  0  0  0  0  0  0  0
   34.5620   30.3340   47.6190 N   0  0  0  0  0  0  0  0  0  0  0  0
   37.7430   32.7360   49.7650 C   0  0  0  0  0  0  0  0  0  0  0  0
   38.6250   32.9880   48.7080 C   0  0  0  0  0  0  0  0  0  0  0  0
   38.4690   32.2230   47.5380 C   0  0  0  0  0  0  0  0  0  0  0  0
   37.4800   31.2910   47.5000 N   0  0  0  0  0  0  0  0  0  0  0  0
   36.6530   31.0740   48.5240 C   0  0  0  0  0  0  0  0  0  0  0  0
   36.7930   31.8030   49.6580 N   0  0  0  0  0  0  0  0  0  0  0  0
   31.0070   27.7490   47.9730 S   0  0  0  0  0  0  0  0  0  0  0  0
   30.6590   26.4040   47.2540 O   0  0  0  0  0  0  0  0  0  0  0  0
   30.8860   27.8350   49.3280 O   0  0  0  0  0  0  0  0  0  0  0  0
   28.2410   27.2210   47.5920 C   0  0  0  0  0  0  0  0  0  0  0  0
   29.2370   27.9740   48.3060 C   0  0  0  0  0  0  0  0  0  0  0  0
   28.7480   28.7540   49.2190 C   0  0  0  0  0  0  0  0  0  0  0  0
   27.4060   28.8840   49.5160 C   0  0  0  0  0  0  0  0  0  0  0  0
   26.5000   28.1450   48.8110 C   0  0  0  0  0  0  0  0  0  0  0  0
   26.8470   27.2730   47.8130 C   0  0  0  0  0  0  0  0  0  0  0  0
   28.6850   26.1530   46.2880 S   0  0  0  0  0  0  0  0  0  0  0  0
   28.3530   26.7380   44.9380 O   0  0  0  0  0  0  0  0  0  0  0  0
   28.3660   24.7600   46.3330 O   0  0  0  0  0  0  0  0  0  0  0  0
   33.4347   31.2504   45.5629 H   0  0  0  0  0  0  0  0  0  0  0  0
   31.4664   31.7143   44.1176 H   0  0  0  0  0  0  0  0  0  0  0  0
   29.3796   30.3697   44.3958 H   0  0  0  0  0  0  0  0  0  0  0  0
   29.3335   28.6253   46.1186 H   0  0  0  0  0  0  0  0  0  0  0  0
   36.5153   28.6568   49.6888 H   0  0  0  0  0  0  0  0  0  0  0  0
   34.7341   27.0040   49.4663 H   0  0  0  0  0  0  0  0  0  0  0  0
   37.8333   33.3141   50.6965 H   0  0  0  0  0  0  0  0  0  0  0  0
   39.4097   33.7546   48.7891 H   0  0  0  0  0  0  0  0  0  0  0  0
   39.1320   32.3754   46.6736 H   0  0  0  0  0  0  0  0  0  0  0  0
   30.4781   25.7049   47.9313 H   0  0  0  0  0  0  0  0  0  0  0  0
   31.6130   27.3183   49.7577 H   0  0  0  0  0  0  0  0  0  0  0  0
   29.4575   29.3592   49.8023 H   0  0  0  0  0  0  0  0  0  0  0  0
   27.0723   29.5714   50.3073 H   0  0  0  0  0  0  0  0  0  0  0  0
   25.4337   28.2557   49.0577 H   0  0  0  0  0  0  0  0  0  0  0  0
   26.1178   26.6770   47.2445 H   0  0  0  0  0  0  0  0  0  0  0  0
   30.0357   26.1021   46.5114 H   0  0  0  0  0  0  0  0  0  0  0  0
   27.8680   27.5926   45.0589 H   0  0  0  0  0  0  0  0  0  0  0  0
   28.2989   24.4671   47.2763 H   0  0  0  0  0  0  0  0  0  0  0  0
  1 19  1  0
  2  1  1  0
  2 11  1  0
  3  2  2  0
  4  5  2  0
  4  3  1  0
  5  6  1  0
  6  1  2  0
  7 17  1  0
  7  8  2  0
  9  8  1  0
 10  9  2  0
 11 12  2  0
 11 10  1  0
 12  7  1  0
 14 13  2  0
 15 14  1  0
 16 15  2  0
 16 17  1  0
 17 18  2  0
 18 13  1  0
 19 23  1  0
 19 21  1  0
 20 19  1  0
 22 27  2  0
 22 23  1  0
 23 24  2  0
 24 25  1  0
 26 25  2  0
 27 26  1  0
 28 30  1  0
 28 22  1  0
 29 28  1  0
  3 31  1  0
  4 32  1  0
  5 33  1  0
  6 34  1  0
  8 35  1  0
  9 36  1  0
 13 37  1  0
 14 38  1  0
 15 39  1  0
 20 40  1  0
 21 41  1  0
 24 42  1  0
 25 43  1  0
 26 44  1  0
 27 45  1  0
 28 46  1  0
 29 47  1  0
 30 48  1  0
M  ISO  8  31  14  32  14  33  14  34  14  35  14  36  14  37  14  38  14
M  ISO  8  39  14  40   3  41   3  42  14  43  14  44  14  45  14  46  11
M  ISO  2  47   3  48   3
M  END
>  <minimizedAffinity>  (1) 
-6.46955824

>  <minimizedRMSD>  (1) 
1.39139724

$$$$
