
     RDKit          3D

 42 44  0  0  0  0  0  0  0  0999 V2000
   35.4860   29.2430   50.4140 C   0  0  0  0  0  0  0  0  0  0  0  0
   36.3480   30.1250   49.7190 C   0  0  0  0  0  0  0  0  0  0  0  0
   36.2460   30.2320   48.3330 C   0  0  0  0  0  0  0  0  0  0  0  0
   35.2960   29.4620   47.7070 N   0  0  0  0  0  0  0  0  0  0  0  0
   34.4980   28.6420   48.3660 C   0  0  0  0  0  0  0  0  0  0  0  0
   34.5740   28.5170   49.7170 N   0  0  0  0  0  0  0  0  0  0  0  0
   32.6470   30.2190   46.5680 Cl  0  0  0  0  0  0  0  0  0  0  0  0
   32.5930   28.4690   46.7640 C   0  0  0  0  0  0  0  0  0  0  0  0
   33.5040   27.8490   47.6280 C   0  0  0  0  0  0  0  0  0  0  0  0
   33.5060   26.4720   47.8210 C   0  0  0  0  0  0  0  0  0  0  0  0
   32.5510   25.7420   47.1080 C   0  0  0  0  0  0  0  0  0  0  0  0
   31.6520   26.3380   46.2580 C   0  0  0  0  0  0  0  0  0  0  0  0
   30.5090   25.3090   45.4270 Cl  0  0  0  0  0  0  0  0  0  0  0  0
   31.6840   27.7120   46.0960 C   0  0  0  0  0  0  0  0  0  0  0  0
   30.7150   28.3640   45.1790 C   0  0  0  0  0  0  0  0  0  0  0  0
   29.6750   27.4790   44.8550 F   0  0  0  0  0  0  0  0  0  0  0  0
   31.3080   28.8510   44.0530 F   0  0  0  0  0  0  0  0  0  0  0  0
   30.1210   29.4310   45.8110 F   0  0  0  0  0  0  0  0  0  0  0  0
   37.3360   30.9060   50.5320 C   0  0  0  0  0  0  0  0  0  0  0  0
   38.6070   30.8140   49.9870 F   0  0  0  0  0  0  0  0  0  0  0  0
   36.9680   32.2390   50.4680 F   0  0  0  0  0  0  0  0  0  0  0  0
   37.3610   30.5470   51.8510 F   0  0  0  0  0  0  0  0  0  0  0  0
   37.1350   31.1390   47.6190 C   0  0  0  0  0  0  0  0  0  0  0  0
   38.4430   31.0560   45.5090 C   0  0  0  0  0  0  0  0  0  0  0  0
   37.2510   30.8440   46.1720 C   0  0  0  0  0  0  0  0  0  0  0  0
   36.1210   30.3520   45.5220 C   0  0  0  0  0  0  0  0  0  0  0  0
   36.1510   30.0560   44.1830 C   0  0  0  0  0  0  0  0  0  0  0  0
   37.3250   30.2520   43.4800 C   0  0  0  0  0  0  0  0  0  0  0  0
   38.4230   30.7410   44.1590 C   0  0  0  0  0  0  0  0  0  0  0  0
   39.8490   31.6610   46.2840 S   0  0  0  0  0  0  0  0  0  0  0  0
   41.0600   31.2100   45.4710 O   0  0  0  0  0  0  0  0  0  0  0  0
   39.9670   33.1340   46.3630 O   0  0  0  0  0  0  0  0  0  0  0  0
   35.5542   29.1466   51.5076 H   0  0  0  0  0  0  0  0  0  0  0  0
   34.2212   25.9832   48.4989 H   0  0  0  0  0  0  0  0  0  0  0  0
   32.5182   24.6495   47.2323 H   0  0  0  0  0  0  0  0  0  0  0  0
   36.7516   32.1635   47.7348 H   0  0  0  0  0  0  0  0  0  0  0  0
   38.1378   31.0141   48.0536 H   0  0  0  0  0  0  0  0  0  0  0  0
   35.1919   30.1988   46.0906 H   0  0  0  0  0  0  0  0  0  0  0  0
   35.2547   29.6686   43.6764 H   0  0  0  0  0  0  0  0  0  0  0  0
   37.3829   30.0238   42.4055 H   0  0  0  0  0  0  0  0  0  0  0  0
   39.3503   30.8918   43.5868 H   0  0  0  0  0  0  0  0  0  0  0  0
   39.7754   31.1827   47.5657 H   0  0  0  0  0  0  0  0  0  0  0  0
  2  1  2  0
  2 19  1  0
  3  2  1  0
  4  3  2  0
  4  5  1  0
  5  6  2  0
  6  1  1  0
  7  8  1  0
  8  9  2  0
  9 10  1  0
  9  5  1  0
 11 10  2  0
 12 11  1  0
 13 12  1  0
 14 12  2  0
 14  8  1  0
 15 18  1  0
 15 14  1  0
 16 15  1  0
 17 15  1  0
 19 22  1  0
 20 19  1  0
 21 19  1  0
 23  3  1  0
 24 25  2  0
 24 30  1  0
 25 23  1  0
 26 25  1  0
 27 26  2  0
 28 29  2  0
 28 27  1  0
 29 24  1  0
 30 32  2  0
 31 30  2  0
  1 33  1  0
 10 34  1  0
 11 35  1  0
 23 36  1  0
 23 37  1  0
 26 38  1  0
 27 39  1  0
 28 40  1  0
 29 41  1  0
 30 42  1  0
M  ISO  8  33  14  34  14  35  14  36   8  37   8  38  14  39  14  40  14
M  ISO  2  41  14  42  11
M  END
>  <minimizedAffinity>  (1) 
-6.71012878

>  <minimizedRMSD>  (1) 
0.49205929

$$$$
