
     RDKit          3D

 51 54  0  0  0  0  0  0  0  0999 V2000
   35.0970   30.7940   49.7090 C   0  0  0  0  0  0  0  0  0  0  0  0
   33.6830   28.4900   50.1630 F   0  0  0  0  0  0  0  0  0  0  0  0
   33.9050   28.8690   48.8760 C   0  0  0  0  0  0  0  0  0  0  0  0
   34.6060   30.0150   48.5240 C   0  0  0  0  0  0  0  0  0  0  0  0
   34.8010   30.3530   47.2110 C   0  0  0  0  0  0  0  0  0  0  0  0
   34.2950   29.5470   46.1810 C   0  0  0  0  0  0  0  0  0  0  0  0
   33.5970   28.4060   46.5090 C   0  0  0  0  0  0  0  0  0  0  0  0
   33.4140   28.0870   47.8350 C   0  0  0  0  0  0  0  0  0  0  0  0
   32.7020   26.9260   48.0950 O   0  0  0  0  0  0  0  0  0  0  0  0
   31.6450   25.4490   46.7230 C   0  0  0  0  0  0  0  0  0  0  0  0
   32.8090   25.7330   47.4510 C   0  0  0  0  0  0  0  0  0  0  0  0
   33.8260   24.8040   47.4040 C   0  0  0  0  0  0  0  0  0  0  0  0
   33.6940   23.6450   46.6650 C   0  0  0  0  0  0  0  0  0  0  0  0
   32.5430   23.3780   45.9520 C   0  0  0  0  0  0  0  0  0  0  0  0
   31.5090   24.2780   45.9750 C   0  0  0  0  0  0  0  0  0  0  0  0
   30.2260   26.4910   46.6420 S   0  0  0  0  0  0  0  0  0  0  0  0
   29.5750   26.4850   47.9860 O   0  0  0  0  0  0  0  0  0  0  0  0
   29.2280   26.0100   45.6340 O   0  0  0  0  0  0  0  0  0  0  0  0
   36.7920   30.2320   50.0260 S   0  0  0  0  0  0  0  0  0  0  0  0
   39.0170   32.9170   47.9980 C   0  0  0  0  0  0  0  0  0  0  0  0
   39.2940   32.2080   46.8240 C   0  0  0  0  0  0  0  0  0  0  0  0
   38.7790   30.9380   46.7210 C   0  0  0  0  0  0  0  0  0  0  0  0
   38.0390   30.4500   47.7540 N   0  0  0  0  0  0  0  0  0  0  0  0
   37.8020   31.1390   48.8300 C   0  0  0  0  0  0  0  0  0  0  0  0
   38.2850   32.4180   49.0060 N   0  0  0  0  0  0  0  0  0  0  0  0
   40.0450   32.8130   45.8720 O   0  0  0  0  0  0  0  0  0  0  0  0
   40.0670   32.2970   44.5790 C   0  0  0  0  0  0  0  0  0  0  0  0
   40.6410   31.1160   44.1680 C   0  0  0  0  0  0  0  0  0  0  0  0
   40.5600   30.7760   42.8580 C   0  0  0  0  0  0  0  0  0  0  0  0
   39.9140   31.6090   41.9840 C   0  0  0  0  0  0  0  0  0  0  0  0
   39.3420   32.8010   42.4330 C   0  0  0  0  0  0  0  0  0  0  0  0
   39.4320   33.1240   43.7410 N   0  0  0  0  0  0  0  0  0  0  0  0
   38.6250   33.7230   41.4570 C   0  0  0  0  0  0  0  0  0  0  0  0
   34.4608   30.5961   50.5843 H   0  0  0  0  0  0  0  0  0  0  0  0
   35.0658   31.8763   49.5150 H   0  0  0  0  0  0  0  0  0  0  0  0
   35.3606   31.2666   46.9618 H   0  0  0  0  0  0  0  0  0  0  0  0
   34.4531   29.8218   45.1277 H   0  0  0  0  0  0  0  0  0  0  0  0
   33.1902   27.7568   45.7197 H   0  0  0  0  0  0  0  0  0  0  0  0
   34.7554   24.9883   47.9627 H   0  0  0  0  0  0  0  0  0  0  0  0
   34.5219   22.9210   46.6443 H   0  0  0  0  0  0  0  0  0  0  0  0
   32.4557   22.4492   45.3691 H   0  0  0  0  0  0  0  0  0  0  0  0
   30.5850   24.0802   45.4119 H   0  0  0  0  0  0  0  0  0  0  0  0
   30.6325   27.7449   46.2685 H   0  0  0  0  0  0  0  0  0  0  0  0
   39.4198   33.9355   48.0999 H   0  0  0  0  0  0  0  0  0  0  0  0
   38.9609   30.3290   45.8232 H   0  0  0  0  0  0  0  0  0  0  0  0
   41.1549   30.4613   44.8872 H   0  0  0  0  0  0  0  0  0  0  0  0
   41.0098   29.8382   42.5000 H   0  0  0  0  0  0  0  0  0  0  0  0
   39.8452   31.3371   40.9204 H   0  0  0  0  0  0  0  0  0  0  0  0
   38.0440   34.4701   42.0177 H   0  0  0  0  0  0  0  0  0  0  0  0
   39.3654   34.2340   40.8240 H   0  0  0  0  0  0  0  0  0  0  0  0
   37.9474   33.1313   40.8240 H   0  0  0  0  0  0  0  0  0  0  0  0
  1 19  1  0
  3  2  1  0
  4  3  2  0
  4  1  1  0
  5  4  1  0
  6  7  1  0
  6  5  2  0
  7  8  2  0
  8  9  1  0
  8  3  1  0
 10 11  2  0
 11  9  1  0
 12 11  1  0
 13 12  2  0
 14 15  2  0
 14 13  1  0
 15 10  1  0
 16 10  1  0
 16 17  2  0
 18 16  2  0
 20 25  2  0
 21 20  1  0
 22 21  2  0
 22 23  1  0
 23 24  2  0
 24 25  1  0
 24 19  1  0
 26 21  1  0
 27 26  1  0
 28 27  2  0
 29 28  1  0
 30 31  1  0
 30 29  2  0
 31 32  2  0
 32 27  1  0
 33 31  1  0
  1 34  1  0
  1 35  1  0
  5 36  1  0
  6 37  1  0
  7 38  1  0
 12 39  1  0
 13 40  1  0
 14 41  1  0
 15 42  1  0
 16 43  1  0
 20 44  1  0
 22 45  1  0
 28 46  1  0
 29 47  1  0
 30 48  1  0
 33 49  1  0
 33 50  1  0
 33 51  1  0
M  ISO  8  34   8  35   8  36  14  37  14  38  14  39  14  40  14  41  14
M  ISO  8  42  14  43  11  44  14  45  14  46  14  47  14  48  14  49   8
M  ISO  2  50   8  51   8
M  END
>  <minimizedAffinity>  (1) 
-5.87450933

>  <minimizedRMSD>  (1) 
2.23157024

$$$$
