
     RDKit          3D

 52 56  0  0  1  0  0  0  0  0999 V2000
   33.5760   26.8870   45.1210 C   0  0  0  0  0  0  0  0  0  0  0  0
   34.2330   27.6320   44.1000 C   0  0  0  0  0  0  0  0  0  0  0  0
   34.7990   28.8300   44.4120 C   0  0  0  0  0  0  0  0  0  0  0  0
   34.6860   29.2350   45.7300 N   0  0  0  0  0  0  0  0  0  0  0  0
   34.0660   28.5250   46.6780 C   0  0  0  0  0  0  0  0  0  0  0  0
   33.5010   27.3420   46.3920 N   0  0  0  0  0  0  0  0  0  0  0  0
   35.4770   29.6340   43.3640 C   0  0  1  0  0  0  0  0  0  0  0  0
   35.4150   31.1120   43.5020 C   0  0  0  0  0  0  0  0  0  0  0  0
   36.6510   30.5230   43.9730 C   0  0  2  0  0  0  0  0  0  0  0  0
   37.7920   30.8390   43.0500 C   0  0  0  0  0  0  0  0  0  0  0  0
   37.7590   32.1910   42.6840 C   0  0  0  0  0  0  0  0  0  0  0  0
   38.7710   32.7180   41.9230 C   0  0  0  0  0  0  0  0  0  0  0  0
   39.8500   31.9330   41.4980 C   0  0  0  0  0  0  0  0  0  0  0  0
   39.8480   30.6000   41.8810 C   0  0  0  0  0  0  0  0  0  0  0  0
   40.8420   29.7250   41.5270 C   0  0  0  0  0  0  0  0  0  0  0  0
   40.8570   28.4020   41.8910 C   0  0  0  0  0  0  0  0  0  0  0  0
   39.8090   27.9170   42.6610 C   0  0  0  0  0  0  0  0  0  0  0  0
   38.8080   28.7950   43.0190 C   0  0  0  0  0  0  0  0  0  0  0  0
   38.8350   30.1150   42.6300 C   0  0  0  0  0  0  0  0  0  0  0  0
   34.0280   29.1100   48.0690 C   0  0  0  0  0  0  0  0  0  0  0  0
   35.0570   30.2560   48.1010 C   0  0  0  0  0  0  0  0  0  0  0  0
   37.1170   30.7760   49.2390 C   0  0  0  0  0  0  0  0  0  0  0  0
   35.8870   30.1580   49.3310 C   0  0  0  0  0  0  0  0  0  0  0  0
   35.5080   29.5210   50.4950 C   0  0  0  0  0  0  0  0  0  0  0  0
   36.3500   29.4860   51.5940 C   0  0  0  0  0  0  0  0  0  0  0  0
   37.5830   30.1020   51.5080 C   0  0  0  0  0  0  0  0  0  0  0  0
   37.9680   30.7460   50.3350 C   0  0  0  0  0  0  0  0  0  0  0  0
   37.8070   31.6330   47.8860 S   0  0  0  0  0  0  0  0  0  0  0  0
   38.5250   30.6380   46.9930 O   0  0  0  0  0  0  0  0  0  0  0  0
   38.8700   32.6270   48.3210 O   0  0  0  0  0  0  0  0  0  0  0  0
   33.1189   25.9186   44.8694 H   0  0  0  0  0  0  0  0  0  0  0  0
   34.2824   27.2439   43.0719 H   0  0  0  0  0  0  0  0  0  0  0  0
   35.3103   28.9268   42.5381 H   0  0  0  0  0  0  0  0  0  0  0  0
   35.4323   31.7335   42.5946 H   0  0  0  0  0  0  0  0  0  0  0  0
   34.6843   31.7830   43.9772 H   0  0  0  0  0  0  0  0  0  0  0  0
   37.2355   30.4812   44.9039 H   0  0  0  0  0  0  0  0  0  0  0  0
   36.9228   32.8288   43.0065 H   0  0  0  0  0  0  0  0  0  0  0  0
   38.7343   33.7804   41.6403 H   0  0  0  0  0  0  0  0  0  0  0  0
   40.6625   32.3546   40.8879 H   0  0  0  0  0  0  0  0  0  0  0  0
   41.6746   30.1048   40.9167 H   0  0  0  0  0  0  0  0  0  0  0  0
   41.6799   27.7416   41.5800 H   0  0  0  0  0  0  0  0  0  0  0  0
   39.7780   26.8636   42.9762 H   0  0  0  0  0  0  0  0  0  0  0  0
   37.9682   28.4321   43.6298 H   0  0  0  0  0  0  0  0  0  0  0  0
   33.0225   29.4983   48.2887 H   0  0  0  0  0  0  0  0  0  0  0  0
   34.2659   28.3461   48.8239 H   0  0  0  0  0  0  0  0  0  0  0  0
   35.7069   30.1872   47.2162 H   0  0  0  0  0  0  0  0  0  0  0  0
   34.5259   31.2193   48.0988 H   0  0  0  0  0  0  0  0  0  0  0  0
   34.5232   29.0341   50.5507 H   0  0  0  0  0  0  0  0  0  0  0  0
   36.0421   28.9766   52.5190 H   0  0  0  0  0  0  0  0  0  0  0  0
   38.2648   30.0838   52.3710 H   0  0  0  0  0  0  0  0  0  0  0  0
   38.9522   31.2338   50.2767 H   0  0  0  0  0  0  0  0  0  0  0  0
   36.7782   32.2851   47.2589 H   0  0  0  0  0  0  0  0  0  0  0  0
  1  6  2  0
  2  3  2  0
  2  1  1  0
  3  4  1  0
  4  5  2  0
  5 20  1  0
  6  5  1  0
  7  8  1  0
  7  9  1  0
  7  3  1  0
  8  9  1  0
 10  9  1  0
 11 10  2  0
 12 11  1  0
 13 14  1  0
 13 12  2  0
 14 19  2  0
 15 14  1  0
 15 16  2  0
 16 17  1  0
 17 18  2  0
 19 18  1  0
 19 10  1  0
 20 21  1  0
 21 23  1  0
 22 23  2  0
 22 27  1  0
 23 24  1  0
 24 25  2  0
 26 25  1  0
 27 26  2  0
 28 30  2  0
 28 22  1  0
 29 28  2  0
  1 31  1  0
  2 32  1  0
  7 33  1  6
  8 34  1  0
  8 35  1  0
  9 36  1  1
 11 37  1  0
 12 38  1  0
 13 39  1  0
 15 40  1  0
 16 41  1  0
 17 42  1  0
 18 43  1  0
 20 44  1  0
 20 45  1  0
 21 46  1  0
 21 47  1  0
 24 48  1  0
 25 49  1  0
 26 50  1  0
 27 51  1  0
 28 52  1  0
M  ISO  8  31  14  32  14  33  13  34  13  35  13  36  13  37  14  38  14
M  ISO  8  39  14  40  14  41  14  42  14  43  14  44   8  45   8  46   8
M  ISO  6  47   8  48  14  49  14  50  14  51  14  52  11
M  END
>  <minimizedAffinity>  (1) 
-6.34515715

>  <minimizedRMSD>  (1) 
4.2913518

$$$$
