
     RDKit          3D

 47 49  0  0  0  0  0  0  0  0999 V2000
   34.2420   29.4330   49.8180 C   0  0  0  0  0  0  0  0  0  0  0  0
   35.3350   30.3860   49.4950 C   0  0  0  0  0  0  0  0  0  0  0  0
   38.2200   31.5500   48.9800 Br  0  0  0  0  0  0  0  0  0  0  0  0
   36.9650   30.9210   47.6560 C   0  0  0  0  0  0  0  0  0  0  0  0
   37.2800   30.9480   46.3190 C   0  0  0  0  0  0  0  0  0  0  0  0
   36.3520   30.4940   45.4340 C   0  0  0  0  0  0  0  0  0  0  0  0
   35.1180   30.0130   45.8400 C   0  0  0  0  0  0  0  0  0  0  0  0
   34.8280   30.0000   47.2020 C   0  0  0  0  0  0  0  0  0  0  0  0
   35.7570   30.4540   48.0980 C   0  0  0  0  0  0  0  0  0  0  0  0
   39.7790   33.2700   45.0120 C   0  0  0  0  0  0  0  0  0  0  0  0
   40.9810   32.4880   44.9860 C   0  0  0  0  0  0  0  0  0  0  0  0
   40.8860   31.1920   45.4180 C   0  0  0  0  0  0  0  0  0  0  0  0
   39.6810   30.6860   45.8530 N   0  0  0  0  0  0  0  0  0  0  0  0
   38.5790   31.4600   45.8590 C   0  0  0  0  0  0  0  0  0  0  0  0
   38.6430   32.7340   45.4410 N   0  0  0  0  0  0  0  0  0  0  0  0
   34.6200   28.1370   49.3950 N   0  0  0  0  0  0  0  0  0  0  0  0
   33.6660   27.3550   48.6910 C   0  0  0  0  0  0  0  0  0  0  0  0
   32.3100   27.9310   48.9670 C   0  0  0  0  0  0  0  0  0  0  0  0
   30.0380   27.0010   48.0140 C   0  0  0  0  0  0  0  0  0  0  0  0
   31.3910   27.1500   48.0370 C   0  0  0  0  0  0  0  0  0  0  0  0
   32.0190   26.4870   46.9620 C   0  0  0  0  0  0  0  0  0  0  0  0
   31.4170   25.7540   45.9620 C   0  0  0  0  0  0  0  0  0  0  0  0
   30.0460   25.6720   46.0390 C   0  0  0  0  0  0  0  0  0  0  0  0
   29.3780   26.2970   47.0640 C   0  0  0  0  0  0  0  0  0  0  0  0
   29.1750   27.7400   49.3230 S   0  0  0  0  0  0  0  0  0  0  0  0
   27.6920   27.7270   48.9540 O   0  0  0  0  0  0  0  0  0  0  0  0
   29.2420   26.8590   50.5620 O   0  0  0  0  0  0  0  0  0  0  0  0
   34.0648   29.4294   50.9036 H   0  0  0  0  0  0  0  0  0  0  0  0
   33.3193   29.7375   49.3023 H   0  0  0  0  0  0  0  0  0  0  0  0
   34.9988   31.3908   49.7906 H   0  0  0  0  0  0  0  0  0  0  0  0
   36.2130   30.0143   50.0436 H   0  0  0  0  0  0  0  0  0  0  0  0
   36.5894   30.5093   44.3600 H   0  0  0  0  0  0  0  0  0  0  0  0
   34.3850   29.6501   45.1044 H   0  0  0  0  0  0  0  0  0  0  0  0
   33.8559   29.6262   47.5561 H   0  0  0  0  0  0  0  0  0  0  0  0
   39.7986   34.3171   44.6754 H   0  0  0  0  0  0  0  0  0  0  0  0
   41.9346   32.9096   44.6354 H   0  0  0  0  0  0  0  0  0  0  0  0
   41.7792   30.5499   45.4176 H   0  0  0  0  0  0  0  0  0  0  0  0
   35.4402   28.2434   48.7811 H   0  0  0  0  0  0  0  0  0  0  0  0
   33.7075   26.3120   49.0380 H   0  0  0  0  0  0  0  0  0  0  0  0
   33.8778   27.3695   47.6117 H   0  0  0  0  0  0  0  0  0  0  0  0
   32.0256   27.7787   50.0186 H   0  0  0  0  0  0  0  0  0  0  0  0
   32.2653   29.0170   48.7979 H   0  0  0  0  0  0  0  0  0  0  0  0
   33.1154   26.5638   46.9165 H   0  0  0  0  0  0  0  0  0  0  0  0
   31.9920   25.2690   45.1594 H   0  0  0  0  0  0  0  0  0  0  0  0
   29.4850   25.1064   45.2805 H   0  0  0  0  0  0  0  0  0  0  0  0
   28.2816   26.2238   47.1141 H   0  0  0  0  0  0  0  0  0  0  0  0
   29.7011   28.9849   49.5471 H   0  0  0  0  0  0  0  0  0  0  0  0
  2  1  1  0
  4  9  2  0
  4  3  1  0
  5  4  1  0
  6  7  1  0
  6  5  2  0
  7  8  2  0
  8  9  1  0
  9  2  1  0
 10 15  2  0
 11 10  1  0
 11 12  2  0
 12 13  1  0
 13 14  2  0
 14  5  1  0
 15 14  1  0
 16  1  1  0
 17 18  1  0
 17 16  1  0
 19 20  2  0
 19 25  1  0
 20 18  1  0
 21 20  1  0
 22 23  1  0
 22 21  2  0
 23 24  2  0
 24 19  1  0
 25 27  2  0
 26 25  2  0
  1 28  1  0
  1 29  1  0
  2 30  1  0
  2 31  1  0
  6 32  1  0
  7 33  1  0
  8 34  1  0
 10 35  1  0
 11 36  1  0
 12 37  1  0
 16 38  1  0
 17 39  1  0
 17 40  1  0
 18 41  1  0
 18 42  1  0
 21 43  1  0
 22 44  1  0
 23 45  1  0
 24 46  1  0
 25 47  1  0
M  ISO  8  28   8  29   8  30   8  31   8  32  14  33  14  34  14  35  14
M  ISO  8  36  14  37  14  38   5  39   8  40   8  41   8  42   8  43  14
M  ISO  4  44  14  45  14  46  14  47  11
M  END
>  <minimizedAffinity>  (1) 
-5.79051352

>  <minimizedRMSD>  (1) 
0.755353928

$$$$
