
     RDKit          3D

 36 38  0  0  0  0  0  0  0  0999 V2000
   39.9160   32.6890   45.4220 C   0  0  0  0  0  0  0  0  0  0  0  0
   37.7780   31.0150   47.8060 C   0  0  0  0  0  0  0  0  0  0  0  0
   37.0450   30.9160   46.6490 C   0  0  0  0  0  0  0  0  0  0  0  0
   37.7430   31.5210   45.6200 C   0  0  0  0  0  0  0  0  0  0  0  0
   38.8930   31.9750   46.1840 N   0  0  0  0  0  0  0  0  0  0  0  0
   38.9000   31.6690   47.4740 N   0  0  0  0  0  0  0  0  0  0  0  0
   37.4280   30.1960   51.4530 C   0  0  0  0  0  0  0  0  0  0  0  0
   37.9450   30.7540   50.2810 C   0  0  0  0  0  0  0  0  0  0  0  0
   37.3100   30.4780   49.0600 C   0  0  0  0  0  0  0  0  0  0  0  0
   36.2200   29.6730   49.1050 N   0  0  0  0  0  0  0  0  0  0  0  0
   35.7430   29.1470   50.2550 C   0  0  0  0  0  0  0  0  0  0  0  0
   36.3450   29.4100   51.4160 N   0  0  0  0  0  0  0  0  0  0  0  0
   39.4890   32.8480   43.9890 C   0  0  0  0  0  0  0  0  0  0  0  0
   39.2770   31.7620   41.8370 C   0  0  0  0  0  0  0  0  0  0  0  0
   39.8730   31.7500   43.1030 C   0  0  0  0  0  0  0  0  0  0  0  0
   40.7540   30.7100   43.3580 C   0  0  0  0  0  0  0  0  0  0  0  0
   41.0380   29.7430   42.4370 C   0  0  0  0  0  0  0  0  0  0  0  0
   40.4690   29.7270   41.1850 C   0  0  0  0  0  0  0  0  0  0  0  0
   39.5960   30.7530   40.9230 C   0  0  0  0  0  0  0  0  0  0  0  0
   38.1390   33.0180   41.3800 S   0  0  0  0  0  0  0  0  0  0  0  0
   38.8410   34.3290   41.2570 O   0  0  0  0  0  0  0  0  0  0  0  0
   37.0340   33.1230   42.3900 O   0  0  0  0  0  0  0  0  0  0  0  0
   40.0704   33.6833   45.8663 H   0  0  0  0  0  0  0  0  0  0  0  0
   40.8513   32.1109   45.4528 H   0  0  0  0  0  0  0  0  0  0  0  0
   36.0610   30.4332   46.5558 H   0  0  0  0  0  0  0  0  0  0  0  0
   37.4333   31.6148   44.5687 H   0  0  0  0  0  0  0  0  0  0  0  0
   37.9161   30.4048   52.4164 H   0  0  0  0  0  0  0  0  0  0  0  0
   38.8353   31.3992   50.3146 H   0  0  0  0  0  0  0  0  0  0  0  0
   34.8543   28.4991   50.2335 H   0  0  0  0  0  0  0  0  0  0  0  0
   38.3927   32.9359   43.9676 H   0  0  0  0  0  0  0  0  0  0  0  0
   40.0070   33.7421   43.6119 H   0  0  0  0  0  0  0  0  0  0  0  0
   41.2437   30.6622   44.3418 H   0  0  0  0  0  0  0  0  0  0  0  0
   41.7482   28.9473   42.7063 H   0  0  0  0  0  0  0  0  0  0  0  0
   40.6978   28.9460   40.4449 H   0  0  0  0  0  0  0  0  0  0  0  0
   39.1177   30.7835   39.9329 H   0  0  0  0  0  0  0  0  0  0  0  0
   37.5941   32.6860   40.1676 H   0  0  0  0  0  0  0  0  0  0  0  0
  1  5  1  0
  2  9  1  0
  3  2  1  0
  4  5  1  0
  4  3  2  0
  5  6  1  0
  6  2  2  0
  8  7  2  0
  9 10  2  0
  9  8  1  0
 10 11  1  0
 11 12  2  0
 12  7  1  0
 13  1  1  0
 14 15  2  0
 15 16  1  0
 15 13  1  0
 17 16  2  0
 18 17  1  0
 19 18  2  0
 19 14  1  0
 20 14  1  0
 20 22  2  0
 21 20  2  0
  1 23  1  0
  1 24  1  0
  3 25  1  0
  4 26  1  0
  7 27  1  0
  8 28  1  0
 11 29  1  0
 13 30  1  0
 13 31  1  0
 16 32  1  0
 17 33  1  0
 18 34  1  0
 19 35  1  0
 20 36  1  0
M  ISO  8  23   8  24   8  25  14  26  14  27  14  28  14  29  14  30   8
M  ISO  6  31   8  32  14  33  14  34  14  35  14  36  11
M  END
>  <minimizedAffinity>  (1) 
-5.50132418

>  <minimizedRMSD>  (1) 
0.862332523

$$$$
