
     RDKit          3D

 47 50  0  0  0  0  0  0  0  0999 V2000
   32.3030   28.3920   47.2710 C   0  0  0  0  0  0  0  0  0  0  0  0
   32.6180   27.8030   48.5040 C   0  0  0  0  0  0  0  0  0  0  0  0
   33.8180   27.8680   49.1260 C   0  0  0  0  0  0  0  0  0  0  0  0
   34.8430   28.5410   48.5670 C   0  0  0  0  0  0  0  0  0  0  0  0
   34.5480   29.1150   47.3710 C   0  0  0  0  0  0  0  0  0  0  0  0
   33.3650   29.0230   46.8070 N   0  0  0  0  0  0  0  0  0  0  0  0
   29.9880   28.6160   47.7040 C   0  0  0  0  0  0  0  0  0  0  0  0
   30.9650   28.2590   46.7150 C   0  0  0  0  0  0  0  0  0  0  0  0
   30.4850   27.8910   45.4910 C   0  0  0  0  0  0  0  0  0  0  0  0
   29.1230   27.8930   45.3110 N   0  0  0  0  0  0  0  0  0  0  0  0
   28.2320   28.2270   46.2370 C   0  0  0  0  0  0  0  0  0  0  0  0
   28.6890   28.5910   47.4450 N   0  0  0  0  0  0  0  0  0  0  0  0
   26.8830   28.1800   45.8670 N   0  0  0  0  0  0  0  0  0  0  0  0
   31.4200   27.5120   44.4450 C   0  0  0  0  0  0  0  0  0  0  0  0
   32.2580   26.5980   44.9170 F   0  0  0  0  0  0  0  0  0  0  0  0
   30.8290   27.0220   43.2940 F   0  0  0  0  0  0  0  0  0  0  0  0
   32.2020   28.6150   44.0250 F   0  0  0  0  0  0  0  0  0  0  0  0
   36.2430   30.8770   48.6580 F   0  0  0  0  0  0  0  0  0  0  0  0
   36.4120   30.7610   47.2920 C   0  0  0  0  0  0  0  0  0  0  0  0
   35.5750   29.8880   46.6410 C   0  0  0  0  0  0  0  0  0  0  0  0
   35.7790   29.8080   45.2870 C   0  0  0  0  0  0  0  0  0  0  0  0
   36.7370   30.5370   44.6320 C   0  0  0  0  0  0  0  0  0  0  0  0
   37.5470   31.3960   45.3440 C   0  0  0  0  0  0  0  0  0  0  0  0
   37.3990   31.5260   46.6950 C   0  0  0  0  0  0  0  0  0  0  0  0
   39.3960   33.0360   46.9800 C   0  0  0  0  0  0  0  0  0  0  0  0
   38.2520   32.4340   47.4580 C   0  0  0  0  0  0  0  0  0  0  0  0
   37.8540   32.6950   48.7740 C   0  0  0  0  0  0  0  0  0  0  0  0
   38.6280   33.5400   49.5170 C   0  0  0  0  0  0  0  0  0  0  0  0
   39.7900   34.1670   49.0680 C   0  0  0  0  0  0  0  0  0  0  0  0
   40.1620   33.8860   47.7510 C   0  0  0  0  0  0  0  0  0  0  0  0
   39.8760   32.7030   45.3520 S   0  0  0  0  0  0  0  0  0  0  0  0
   41.2220   32.0180   45.3740 O   0  0  0  0  0  0  0  0  0  0  0  0
   40.1250   34.0060   44.6040 O   0  0  0  0  0  0  0  0  0  0  0  0
   31.8202   27.2391   49.0095 H   0  0  0  0  0  0  0  0  0  0  0  0
   33.9579   27.3676   50.0955 H   0  0  0  0  0  0  0  0  0  0  0  0
   35.8338   28.6191   49.0385 H   0  0  0  0  0  0  0  0  0  0  0  0
   30.3275   28.9190   48.7055 H   0  0  0  0  0  0  0  0  0  0  0  0
   26.1529   28.4298   46.5492 H   0  0  0  0  0  0  0  0  0  0  0  0
   26.6204   27.8956   44.9125 H   0  0  0  0  0  0  0  0  0  0  0  0
   35.1446   29.1276   44.7000 H   0  0  0  0  0  0  0  0  0  0  0  0
   36.8591   30.4373   43.5434 H   0  0  0  0  0  0  0  0  0  0  0  0
   38.3176   31.9805   44.8201 H   0  0  0  0  0  0  0  0  0  0  0  0
   36.9482   32.2350   49.1958 H   0  0  0  0  0  0  0  0  0  0  0  0
   38.3100   33.7419   50.5505 H   0  0  0  0  0  0  0  0  0  0  0  0
   40.3766   34.8403   49.7103 H   0  0  0  0  0  0  0  0  0  0  0  0
   41.0682   34.3437   47.3275 H   0  0  0  0  0  0  0  0  0  0  0  0
   38.8931   31.9510   44.7643 H   0  0  0  0  0  0  0  0  0  0  0  0
  1  2  2  0
  2  3  1  0
  4  3  2  0
  5  4  1  0
  6  1  1  0
  6  5  2  0
  8  1  1  0
  8  7  2  0
  9  8  1  0
 10  9  2  0
 10 11  1  0
 11 12  2  0
 12  7  1  0
 13 11  1  0
 14 15  1  0
 14  9  1  0
 16 14  1  0
 17 14  1  0
 19 18  1  0
 20 19  2  0
 20  5  1  0
 21 20  1  0
 22 21  2  0
 22 23  1  0
 23 24  2  0
 24 19  1  0
 24 26  1  0
 25 26  2  0
 25 30  1  0
 26 27  1  0
 27 28  2  0
 29 28  1  0
 30 29  2  0
 31 32  2  0
 31 25  1  0
 33 31  2  0
  2 34  1  0
  3 35  1  0
  4 36  1  0
  7 37  1  0
 13 38  1  0
 13 39  1  0
 21 40  1  0
 22 41  1  0
 23 42  1  0
 27 43  1  0
 28 44  1  0
 29 45  1  0
 30 46  1  0
 31 47  1  0
M  ISO  8  34  14  35  14  36  14  37  14  40  14  41  14  42  14  43  14
M  ISO  4  44  14  45  14  46  14  47  11
M  END
>  <minimizedAffinity>  (1) 
-6.35898113

>  <minimizedRMSD>  (1) 
3.62485123

$$$$
