
     RDKit          3D

 31 33  0  0  1  0  0  0  0  0999 V2000
   35.9990   31.1460   49.9580 C   0  0  1  0  0  0  0  0  0  0  0  0
   34.8670   30.2850   49.5720 C   0  0  2  0  0  0  0  0  0  0  0  0
   35.9590   29.6990   50.4550 C   0  0  0  0  0  0  0  0  0  0  0  0
   37.1170   31.3970   48.9880 C   0  0  0  0  0  0  0  0  0  0  0  0
   37.8290   32.5790   49.1910 C   0  0  0  0  0  0  0  0  0  0  0  0
   38.8580   32.8360   48.2680 C   0  0  0  0  0  0  0  0  0  0  0  0
   39.0940   31.9340   47.2510 N   0  0  0  0  0  0  0  0  0  0  0  0
   38.3720   30.8020   47.1020 C   0  0  0  0  0  0  0  0  0  0  0  0
   37.3670   30.5290   47.9860 N   0  0  0  0  0  0  0  0  0  0  0  0
   34.7910   29.7920   48.3150 O   0  0  0  0  0  0  0  0  0  0  0  0
   33.5200   28.8140   46.3890 C   0  0  0  0  0  0  0  0  0  0  0  0
   34.1780   28.8800   47.5840 C   0  0  0  0  0  0  0  0  0  0  0  0
   34.2560   27.6600   48.2810 C   0  0  0  0  0  0  0  0  0  0  0  0
   33.7110   26.4770   47.8030 C   0  0  0  0  0  0  0  0  0  0  0  0
   33.0640   26.5190   46.5770 C   0  0  0  0  0  0  0  0  0  0  0  0
   32.9600   27.6870   45.8550 C   0  0  0  0  0  0  0  0  0  0  0  0
   33.4350   30.3190   45.5420 S   0  0  0  0  0  0  0  0  0  0  0  0
   32.3200   31.2050   46.0450 O   0  0  0  0  0  0  0  0  0  0  0  0
   33.0630   30.0360   44.0900 O   0  0  0  0  0  0  0  0  0  0  0  0
   36.0358   32.1567   50.3907 H   0  0  0  0  0  0  0  0  0  0  0  0
   33.7763   30.4112   49.6386 H   0  0  0  0  0  0  0  0  0  0  0  0
   36.6596   28.9529   50.0519 H   0  0  0  0  0  0  0  0  0  0  0  0
   36.0010   29.1973   51.4330 H   0  0  0  0  0  0  0  0  0  0  0  0
   37.6003   33.2656   50.0194 H   0  0  0  0  0  0  0  0  0  0  0  0
   39.4686   33.7468   48.3558 H   0  0  0  0  0  0  0  0  0  0  0  0
   38.5910   30.1075   46.2776 H   0  0  0  0  0  0  0  0  0  0  0  0
   34.7739   27.6435   49.2513 H   0  0  0  0  0  0  0  0  0  0  0  0
   33.7892   25.5407   48.3751 H   0  0  0  0  0  0  0  0  0  0  0  0
   32.6230   25.5965   46.1713 H   0  0  0  0  0  0  0  0  0  0  0  0
   32.4448   27.7123   44.8834 H   0  0  0  0  0  0  0  0  0  0  0  0
   34.6496   30.9300   45.7100 H   0  0  0  0  0  0  0  0  0  0  0  0
  1  3  1  0
  2  1  1  0
  2  3  1  0
  4  5  2  0
  4  1  1  0
  6  5  1  0
  7  6  2  0
  8  7  1  0
  8  9  2  0
  9  4  1  0
 10  2  1  0
 11 12  2  0
 12 13  1  0
 12 10  1  0
 14 13  2  0
 15 14  1  0
 16 11  1  0
 16 15  2  0
 17 18  2  0
 17 11  1  0
 19 17  2  0
  1 20  1  1
  2 21  1  1
  3 22  1  0
  3 23  1  0
  5 24  1  0
  6 25  1  0
  8 26  1  0
 13 27  1  0
 14 28  1  0
 15 29  1  0
 16 30  1  0
 17 31  1  0
M  ISO  8  20  13  21  13  22  13  23  13  24  14  25  14  26  14  27  14
M  ISO  4  28  14  29  14  30  14  31  11
M  END
>  <minimizedAffinity>  (1) 
-4.98248863

>  <minimizedRMSD>  (1) 
2.00070238

$$$$
