
     RDKit          3D

 34 36  0  0  0  0  0  0  0  0999 V2000
   37.0800   30.8600   46.4230 Cl  0  0  0  0  0  0  0  0  0  0  0  0
   38.0570   31.9800   47.3720 C   0  0  0  0  0  0  0  0  0  0  0  0
   37.9830   31.9030   48.7300 C   0  0  0  0  0  0  0  0  0  0  0  0
   38.7630   32.8280   49.4070 C   0  0  0  0  0  0  0  0  0  0  0  0
   39.5450   33.7430   48.7250 C   0  0  0  0  0  0  0  0  0  0  0  0
   39.5750   33.7660   47.3540 C   0  0  0  0  0  0  0  0  0  0  0  0
   38.8050   32.8530   46.6480 C   0  0  0  0  0  0  0  0  0  0  0  0
   37.7700   29.9060   50.2040 C   0  0  0  0  0  0  0  0  0  0  0  0
   37.1610   30.9400   49.4730 C   0  0  0  0  0  0  0  0  0  0  0  0
   35.7690   31.0560   49.4520 C   0  0  0  0  0  0  0  0  0  0  0  0
   35.0810   30.1190   50.1690 N   0  0  0  0  0  0  0  0  0  0  0  0
   35.6540   29.1420   50.8600 C   0  0  0  0  0  0  0  0  0  0  0  0
   36.9920   29.0310   50.8800 N   0  0  0  0  0  0  0  0  0  0  0  0
   38.8570   32.9040   45.2770 O   0  0  0  0  0  0  0  0  0  0  0  0
   38.6110   31.6960   43.3770 C   0  0  0  0  0  0  0  0  0  0  0  0
   39.4350   31.9440   44.4820 C   0  0  0  0  0  0  0  0  0  0  0  0
   40.6010   31.2230   44.5660 C   0  0  0  0  0  0  0  0  0  0  0  0
   40.9390   30.2980   43.6010 C   0  0  0  0  0  0  0  0  0  0  0  0
   40.1340   30.0520   42.5180 C   0  0  0  0  0  0  0  0  0  0  0  0
   38.9600   30.7600   42.4080 C   0  0  0  0  0  0  0  0  0  0  0  0
   37.0720   32.4790   43.0330 S   0  0  0  0  0  0  0  0  0  0  0  0
   35.9550   31.4800   42.9330 O   0  0  0  0  0  0  0  0  0  0  0  0
   37.1870   33.2020   41.7290 O   0  0  0  0  0  0  0  0  0  0  0  0
   38.7600   32.8344   50.5070 H   0  0  0  0  0  0  0  0  0  0  0  0
   40.1527   34.4639   49.2916 H   0  0  0  0  0  0  0  0  0  0  0  0
   40.2005   34.4978   46.8218 H   0  0  0  0  0  0  0  0  0  0  0  0
   38.8656   29.8097   50.2260 H   0  0  0  0  0  0  0  0  0  0  0  0
   35.2582   31.8533   48.8922 H   0  0  0  0  0  0  0  0  0  0  0  0
   35.0336   28.4237   51.4159 H   0  0  0  0  0  0  0  0  0  0  0  0
   41.2771   31.3864   45.4182 H   0  0  0  0  0  0  0  0  0  0  0  0
   41.8820   29.7409   43.7026 H   0  0  0  0  0  0  0  0  0  0  0  0
   40.4194   29.3091   41.7586 H   0  0  0  0  0  0  0  0  0  0  0  0
   38.2938   30.5856   41.5502 H   0  0  0  0  0  0  0  0  0  0  0  0
   36.7863   33.3425   44.0575 H   0  0  0  0  0  0  0  0  0  0  0  0
  1  2  1  0
  2  3  2  0
  3  4  1  0
  3  9  1  0
  5  4  2  0
  6  5  1  0
  7  6  2  0
  7  2  1  0
  8 13  2  0
  9  8  1  0
 10  9  2  0
 10 11  1  0
 11 12  2  0
 12 13  1  0
 14  7  1  0
 15 16  2  0
 16 17  1  0
 16 14  1  0
 18 17  2  0
 19 18  1  0
 20 19  2  0
 20 15  1  0
 21 15  1  0
 22 21  2  0
 23 21  2  0
  4 24  1  0
  5 25  1  0
  6 26  1  0
  8 27  1  0
 10 28  1  0
 12 29  1  0
 17 30  1  0
 18 31  1  0
 19 32  1  0
 20 33  1  0
 21 34  1  0
M  ISO  8  24  14  25  14  26  14  27  14  28  14  29  14  30  14  31  14
M  ISO  3  32  14  33  14  34  11
M  END
>  <minimizedAffinity>  (1) 
-5.28913927

>  <minimizedRMSD>  (1) 
1.83976376

$$$$
