
     RDKit          3D

 49 52  0  0  1  0  0  0  0  0999 V2000
   36.8250   30.7040   45.5600 C   0  0  1  0  0  0  0  0  0  0  0  0
   35.5780   29.7580   45.6870 C   0  0  0  0  0  0  0  0  0  0  0  0
   34.5860   30.2470   46.7300 C   0  0  0  0  0  0  0  0  0  0  0  0
   35.3140   30.6400   47.9670 C   0  0  0  0  0  0  0  0  0  0  0  0
   36.6660   30.0360   47.9780 C   0  0  0  0  0  0  0  0  0  0  0  0
   37.5200   30.5590   46.8810 C   0  0  2  0  0  0  0  0  0  0  0  0
   37.2130   30.6850   43.1750 C   0  0  0  0  0  0  0  0  0  0  0  0
   38.0400   30.2430   42.1210 C   0  0  0  0  0  0  0  0  0  0  0  0
   39.0790   29.3720   42.2550 C   0  0  0  0  0  0  0  0  0  0  0  0
   39.3750   28.8540   43.5160 C   0  0  0  0  0  0  0  0  0  0  0  0
   38.5720   29.2810   44.5470 C   0  0  0  0  0  0  0  0  0  0  0  0
   37.5200   30.1680   44.4120 C   0  0  0  0  0  0  0  0  0  0  0  0
   34.9430   30.9630   42.3790 C   0  0  0  0  0  0  0  0  0  0  0  0
   36.1680   31.5560   42.7820 C   0  0  0  0  0  0  0  0  0  0  0  0
   36.2420   32.9390   42.7500 C   0  0  0  0  0  0  0  0  0  0  0  0
   35.1390   33.6420   42.3350 N   0  0  0  0  0  0  0  0  0  0  0  0
   33.9990   33.0680   41.9610 C   0  0  0  0  0  0  0  0  0  0  0  0
   33.9140   31.7310   41.9870 N   0  0  0  0  0  0  0  0  0  0  0  0
   38.5940   32.1740   48.5590 C   0  0  0  0  0  0  0  0  0  0  0  0
   38.3150   31.7770   47.2660 C   0  0  0  0  0  0  0  0  0  0  0  0
   38.8310   32.5310   46.2390 C   0  0  0  0  0  0  0  0  0  0  0  0
   39.6120   33.6600   46.4270 C   0  0  0  0  0  0  0  0  0  0  0  0
   39.9070   34.0770   47.7290 C   0  0  0  0  0  0  0  0  0  0  0  0
   39.3850   33.3170   48.7530 C   0  0  0  0  0  0  0  0  0  0  0  0
   37.9660   31.2960   49.9060 S   0  0  0  0  0  0  0  0  0  0  0  0
   38.1700   29.8050   49.8110 O   0  0  0  0  0  0  0  0  0  0  0  0
   36.5910   31.6340   50.3410 O   0  0  0  0  0  0  0  0  0  0  0  0
   36.6738   31.7805   45.3917 H   0  0  0  0  0  0  0  0  0  0  0  0
   35.0707   29.7088   44.7122 H   0  0  0  0  0  0  0  0  0  0  0  0
   35.9379   28.7679   46.0034 H   0  0  0  0  0  0  0  0  0  0  0  0
   34.0390   31.1160   46.3356 H   0  0  0  0  0  0  0  0  0  0  0  0
   33.8762   29.4402   46.9650 H   0  0  0  0  0  0  0  0  0  0  0  0
   35.4051   31.7356   48.0025 H   0  0  0  0  0  0  0  0  0  0  0  0
   34.7534   30.2814   48.8429 H   0  0  0  0  0  0  0  0  0  0  0  0
   37.1476   30.2617   48.9409 H   0  0  0  0  0  0  0  0  0  0  0  0
   36.5539   28.9514   47.8326 H   0  0  0  0  0  0  0  0  0  0  0  0
   38.2566   29.7587   46.7169 H   0  0  0  0  0  0  0  0  0  0  0  0
   37.8298   30.6315   41.1136 H   0  0  0  0  0  0  0  0  0  0  0  0
   39.6774   29.0806   41.3792 H   0  0  0  0  0  0  0  0  0  0  0  0
   40.2016   28.1461   43.6759 H   0  0  0  0  0  0  0  0  0  0  0  0
   38.7818   28.8883   45.5529 H   0  0  0  0  0  0  0  0  0  0  0  0
   34.8362   29.8682   42.3879 H   0  0  0  0  0  0  0  0  0  0  0  0
   37.1626   33.4610   43.0500 H   0  0  0  0  0  0  0  0  0  0  0  0
   33.1433   33.6785   41.6369 H   0  0  0  0  0  0  0  0  0  0  0  0
   38.6110   32.2198   45.2071 H   0  0  0  0  0  0  0  0  0  0  0  0
   39.9955   34.2217   45.5624 H   0  0  0  0  0  0  0  0  0  0  0  0
   40.5241   34.9661   47.9255 H   0  0  0  0  0  0  0  0  0  0  0  0
   39.6017   33.6252   49.7865 H   0  0  0  0  0  0  0  0  0  0  0  0
   38.7589   31.7616   50.9216 H   0  0  0  0  0  0  0  0  0  0  0  0
  1  2  1  0
  1  6  1  0
  2  3  1  0
  3  4  1  0
  4  5  1  0
  6 20  1  0
  6  5  1  0
  7 12  2  0
  8  9  2  0
  8  7  1  0
  9 10  1  0
 10 11  2  0
 12 11  1  0
 12  1  1  0
 13 14  2  0
 14  7  1  0
 15 14  1  0
 16 15  2  0
 17 18  2  0
 17 16  1  0
 18 13  1  0
 19 24  2  0
 19 25  1  0
 20 19  1  0
 21 22  1  0
 21 20  2  0
 22 23  2  0
 23 24  1  0
 25 27  2  0
 26 25  2  0
  1 28  1  6
  2 29  1  0
  2 30  1  0
  3 31  1  0
  3 32  1  0
  4 33  1  0
  4 34  1  0
  5 35  1  0
  5 36  1  0
  6 37  1  6
  8 38  1  0
  9 39  1  0
 10 40  1  0
 11 41  1  0
 13 42  1  0
 15 43  1  0
 17 44  1  0
 21 45  1  0
 22 46  1  0
 23 47  1  0
 24 48  1  0
 25 49  1  0
M  ISO  8  28  13  29  13  30  13  31  13  32  13  33  13  34  13  35  13
M  ISO  8  36  13  37  13  38  14  39  14  40  14  41  14  42  14  43  14
M  ISO  6  44  14  45  14  46  14  47  14  48  14  49  11
M  END
>  <minimizedAffinity>  (1) 
-4.99742031

>  <minimizedRMSD>  (1) 
4.28797007

$$$$
