
     RDKit          3D

 44 48  0  0  0  0  0  0  0  0999 V2000
   38.2360   32.6210   49.4820 C   0  0  0  0  0  0  0  0  0  0  0  0
   38.9010   32.8470   48.2710 C   0  0  0  0  0  0  0  0  0  0  0  0
   38.4680   32.1240   47.1570 C   0  0  0  0  0  0  0  0  0  0  0  0
   37.4470   31.2560   47.2970 N   0  0  0  0  0  0  0  0  0  0  0  0
   36.8230   31.0580   48.4800 C   0  0  0  0  0  0  0  0  0  0  0  0
   37.2100   31.7310   49.5660 N   0  0  0  0  0  0  0  0  0  0  0  0
   35.7610   29.0880   49.4890 C   0  0  0  0  0  0  0  0  0  0  0  0
   35.7260   30.0980   48.5380 C   0  0  0  0  0  0  0  0  0  0  0  0
   34.6710   30.1850   47.6690 C   0  0  0  0  0  0  0  0  0  0  0  0
   33.6360   29.2860   47.7180 C   0  0  0  0  0  0  0  0  0  0  0  0
   32.4970   29.1550   46.9850 N   0  0  0  0  0  0  0  0  0  0  0  0
   31.8810   28.0690   47.5200 C   0  0  0  0  0  0  0  0  0  0  0  0
   32.6080   27.5580   48.5310 N   0  0  0  0  0  0  0  0  0  0  0  0
   33.7160   28.2980   48.6820 C   0  0  0  0  0  0  0  0  0  0  0  0
   34.7370   28.1650   49.5670 C   0  0  0  0  0  0  0  0  0  0  0  0
   39.0540   32.2440   45.8320 C   0  0  0  0  0  0  0  0  0  0  0  0
   39.5600   33.4030   45.3080 C   0  0  0  0  0  0  0  0  0  0  0  0
   40.1170   33.5320   44.0600 C   0  0  0  0  0  0  0  0  0  0  0  0
   40.1590   32.4160   43.3020 N   0  0  0  0  0  0  0  0  0  0  0  0
   39.6790   31.2650   43.7670 C   0  0  0  0  0  0  0  0  0  0  0  0
   39.1580   31.1990   44.9690 N   0  0  0  0  0  0  0  0  0  0  0  0
   38.6840   29.5260   42.2810 C   0  0  0  0  0  0  0  0  0  0  0  0
   39.7840   30.1330   42.8510 C   0  0  0  0  0  0  0  0  0  0  0  0
   41.0050   29.6080   42.5090 C   0  0  0  0  0  0  0  0  0  0  0  0
   41.1950   28.5410   41.6530 C   0  0  0  0  0  0  0  0  0  0  0  0
   40.0880   27.9430   41.0890 C   0  0  0  0  0  0  0  0  0  0  0  0
   38.8640   28.4590   41.4240 C   0  0  0  0  0  0  0  0  0  0  0  0
   37.0780   30.1090   42.6460 S   0  0  0  0  0  0  0  0  0  0  0  0
   36.1350   29.9290   41.4650 O   0  0  0  0  0  0  0  0  0  0  0  0
   36.5130   29.3010   43.7870 O   0  0  0  0  0  0  0  0  0  0  0  0
   38.5482   33.1724   50.3812 H   0  0  0  0  0  0  0  0  0  0  0  0
   39.7312   33.5651   48.1996 H   0  0  0  0  0  0  0  0  0  0  0  0
   36.6101   29.0223   50.1853 H   0  0  0  0  0  0  0  0  0  0  0  0
   34.6533   30.9895   46.9190 H   0  0  0  0  0  0  0  0  0  0  0  0
   32.1757   29.7442   46.2037 H   0  0  0  0  0  0  0  0  0  0  0  0
   30.9191   27.6625   47.1742 H   0  0  0  0  0  0  0  0  0  0  0  0
   34.7480   27.3572   50.3136 H   0  0  0  0  0  0  0  0  0  0  0  0
   39.5168   34.3038   45.9379 H   0  0  0  0  0  0  0  0  0  0  0  0
   40.5083   34.4938   43.6970 H   0  0  0  0  0  0  0  0  0  0  0  0
   41.8996   30.0720   42.9498 H   0  0  0  0  0  0  0  0  0  0  0  0
   42.2076   28.1761   41.4261 H   0  0  0  0  0  0  0  0  0  0  0  0
   40.1834   27.0900   40.4010 H   0  0  0  0  0  0  0  0  0  0  0  0
   37.9697   27.9945   40.9830 H   0  0  0  0  0  0  0  0  0  0  0  0
   37.1791   31.4402   42.9536 H   0  0  0  0  0  0  0  0  0  0  0  0
  1  6  2  0
  2  1  1  0
  3  4  1  0
  3  2  2  0
  4  5  2  0
  5  8  1  0
  5  6  1  0
  7 15  2  0
  8  7  1  0
  9 10  1  0
  9  8  2  0
 10 14  2  0
 11 12  1  0
 11 10  1  0
 12 13  2  0
 13 14  1  0
 14 15  1  0
 16  3  1  0
 17 16  2  0
 18 17  1  0
 19 20  1  0
 19 18  2  0
 20 21  2  0
 21 16  1  0
 22 28  1  0
 22 23  2  0
 23 20  1  0
 24 23  1  0
 25 24  2  0
 26 27  2  0
 26 25  1  0
 27 22  1  0
 28 30  2  0
 29 28  2  0
  1 31  1  0
  2 32  1  0
  7 33  1  0
  9 34  1  0
 11 35  1  0
 12 36  1  0
 15 37  1  0
 17 38  1  0
 18 39  1  0
 24 40  1  0
 25 41  1  0
 26 42  1  0
 27 43  1  0
 28 44  1  0
M  END
>  <minimizedAffinity>  (1) 
-7.17782927

>  <minimizedRMSD>  (1) 
2.42968106

$$$$
