
     RDKit          3D

 33 35  0  0  0  0  0  0  0  0999 V2000
   37.0430   30.1530   46.2450 Cl  0  0  0  0  0  0  0  0  0  0  0  0
   37.5880   31.3360   47.4260 C   0  0  0  0  0  0  0  0  0  0  0  0
   38.5860   32.1790   47.0070 C   0  0  0  0  0  0  0  0  0  0  0  0
   39.0370   33.1330   47.9370 C   0  0  0  0  0  0  0  0  0  0  0  0
   38.4800   33.1820   49.1870 C   0  0  0  0  0  0  0  0  0  0  0  0
   37.4870   32.3040   49.5300 C   0  0  0  0  0  0  0  0  0  0  0  0
   37.0020   31.3520   48.6750 C   0  0  0  0  0  0  0  0  0  0  0  0
   39.1340   32.8550   43.4750 C   0  0  0  0  0  0  0  0  0  0  0  0
   40.1800   32.0060   43.1180 C   0  0  0  0  0  0  0  0  0  0  0  0
   40.7030   31.1860   44.1230 C   0  0  0  0  0  0  0  0  0  0  0  0
   40.1720   31.2560   45.3770 N   0  0  0  0  0  0  0  0  0  0  0  0
   39.1580   32.0990   45.6650 C   0  0  0  0  0  0  0  0  0  0  0  0
   38.6430   32.8940   44.7140 N   0  0  0  0  0  0  0  0  0  0  0  0
   36.0650   29.4720   50.0060 C   0  0  0  0  0  0  0  0  0  0  0  0
   35.9480   30.3940   48.9890 C   0  0  0  0  0  0  0  0  0  0  0  0
   34.8080   30.4410   48.2220 C   0  0  0  0  0  0  0  0  0  0  0  0
   33.7760   29.5490   48.4830 C   0  0  0  0  0  0  0  0  0  0  0  0
   33.8550   28.6110   49.4910 C   0  0  0  0  0  0  0  0  0  0  0  0
   35.0270   28.5920   50.2510 C   0  0  0  0  0  0  0  0  0  0  0  0
   37.5320   29.4610   50.9450 S   0  0  0  0  0  0  0  0  0  0  0  0
   37.3740   30.0650   52.2850 O   0  0  0  0  0  0  0  0  0  0  0  0
   38.0040   28.0390   51.1230 O   0  0  0  0  0  0  0  0  0  0  0  0
   39.8351   33.8379   47.6609 H   0  0  0  0  0  0  0  0  0  0  0  0
   38.8306   33.9273   49.9161 H   0  0  0  0  0  0  0  0  0  0  0  0
   37.0586   32.3669   50.5412 H   0  0  0  0  0  0  0  0  0  0  0  0
   38.6993   33.5145   42.7095 H   0  0  0  0  0  0  0  0  0  0  0  0
   40.5763   31.9819   42.0922 H   0  0  0  0  0  0  0  0  0  0  0  0
   41.5305   30.4948   43.9051 H   0  0  0  0  0  0  0  0  0  0  0  0
   34.7143   31.1773   47.4102 H   0  0  0  0  0  0  0  0  0  0  0  0
   32.8664   29.5920   47.8659 H   0  0  0  0  0  0  0  0  0  0  0  0
   33.0315   27.9088   49.6878 H   0  0  0  0  0  0  0  0  0  0  0  0
   35.1266   27.8586   51.0647 H   0  0  0  0  0  0  0  0  0  0  0  0
   38.4414   30.2151   50.2513 H   0  0  0  0  0  0  0  0  0  0  0  0
  1  2  1  0
  2  7  2  0
  3  2  1  0
  3  4  2  0
  4  5  1  0
  5  6  2  0
  7 15  1  0
  7  6  1  0
  8 13  2  0
  9  8  1  0
  9 10  2  0
 10 11  1  0
 11 12  2  0
 12  3  1  0
 13 12  1  0
 14 19  2  0
 14 20  1  0
 15 14  1  0
 16 17  1  0
 16 15  2  0
 17 18  2  0
 18 19  1  0
 20 22  2  0
 20 21  2  0
  4 23  1  0
  5 24  1  0
  6 25  1  0
  8 26  1  0
  9 27  1  0
 10 28  1  0
 16 29  1  0
 17 30  1  0
 18 31  1  0
 19 32  1  0
 20 33  1  0
M  ISO  8  23  14  24  14  25  14  26  14  27  14  28  14  29  14  30  14
M  ISO  3  31  14  32  14  33  11
M  END
>  <minimizedAffinity>  (1) 
-6.40291166

>  <minimizedRMSD>  (1) 
2.37679124

$$$$
