
     RDKit          3D

 37 39  0  0  1  0  0  0  0  0999 V2000
   35.1870   30.0200   47.9220 C   0  0  0  0  0  0  0  0  0  0  0  0
   35.0560   30.3350   49.2800 C   0  0  0  0  0  0  0  0  0  0  0  0
   35.9860   31.1460   49.9440 C   0  0  0  0  0  0  0  0  0  0  0  0
   37.0830   31.6560   49.2140 C   0  0  0  0  0  0  0  0  0  0  0  0
   37.1960   31.3320   47.8650 C   0  0  0  0  0  0  0  0  0  0  0  0
   36.2660   30.5290   47.2280 C   0  0  0  0  0  0  0  0  0  0  0  0
   37.6370   30.7210   45.0390 C   0  0  0  0  0  0  0  0  0  0  0  0
   36.5690   30.3410   45.8260 C   0  0  0  0  0  0  0  0  0  0  0  0
   35.5150   29.6600   45.2010 C   0  0  0  0  0  0  0  0  0  0  0  0
   35.5550   29.3800   43.8300 C   0  0  0  0  0  0  0  0  0  0  0  0
   36.6350   29.7700   43.0660 C   0  0  0  0  0  0  0  0  0  0  0  0
   37.6630   30.4390   43.6920 C   0  0  0  0  0  0  0  0  0  0  0  0
   38.8940   31.5310   45.9470 S   0  0  0  0  0  0  0  0  0  0  0  0
   40.1990   30.7970   45.9180 O   0  0  0  0  0  0  0  0  0  0  0  0
   39.1420   32.9170   45.3870 O   0  0  0  0  0  0  0  0  0  0  0  0
   34.1980   29.1500   47.3150 C   0  0  0  0  0  0  0  0  0  0  0  0
   34.4800   27.8970   47.4130 O   0  0  0  0  0  0  0  0  0  0  0  0
   31.9220   31.4280   45.6610 C   0  0  0  0  0  0  0  0  0  0  0  0
   30.8110   30.6330   45.3410 C   0  0  0  0  0  0  0  0  0  0  0  0
   30.8410   29.2840   45.7060 C   0  0  0  0  0  0  0  0  0  0  0  0
   31.9460   28.7880   46.3560 N   0  0  0  0  0  0  0  0  0  0  0  0
   32.9800   29.5760   46.6420 C   0  0  0  0  0  0  0  0  0  0  0  0
   32.9480   30.8600   46.2950 N   0  0  0  0  0  0  0  0  0  0  0  0
   34.1990   29.9346   49.8414 H   0  0  0  0  0  0  0  0  0  0  0  0
   35.8645   31.3808   51.0118 H   0  0  0  0  0  0  0  0  0  0  0  0
   37.8327   32.2962   49.7019 H   0  0  0  0  0  0  0  0  0  0  0  0
   38.0474   31.7247   47.2897 H   0  0  0  0  0  0  0  0  0  0  0  0
   34.6458   29.3417   45.7953 H   0  0  0  0  0  0  0  0  0  0  0  0
   34.7181   28.8444   43.3581 H   0  0  0  0  0  0  0  0  0  0  0  0
   36.6740   29.5530   41.9883 H   0  0  0  0  0  0  0  0  0  0  0  0
   38.5317   30.7579   43.0973 H   0  0  0  0  0  0  0  0  0  0  0  0
   38.4433   31.5858   47.2396 H   0  0  0  0  0  0  0  0  0  0  0  0
   33.6540   29.1022   48.2699 H   0  0  0  0  0  0  0  0  0  0  0  0
   34.5367   27.6453   48.3688 H   0  0  0  0  0  0  0  0  0  0  0  0
   31.9459   32.4951   45.3949 H   0  0  0  0  0  0  0  0  0  0  0  0
   29.9419   31.0588   44.8182 H   0  0  0  0  0  0  0  0  0  0  0  0
   29.9897   28.6266   45.4756 H   0  0  0  0  0  0  0  0  0  0  0  0
  1  2  2  0
  2  3  1  0
  4  3  2  0
  5  4  1  0
  6  5  2  0
  6  1  1  0
  7  8  2  0
  7 13  1  0
  8  6  1  0
  9  8  1  0
 10  9  2  0
 11 12  2  0
 11 10  1  0
 12  7  1  0
 14 13  2  0
 15 13  2  0
 16 17  1  0
 16  1  1  0
 18 23  2  0
 19 18  1  0
 19 20  2  0
 20 21  1  0
 21 22  2  0
 22 16  1  0
 23 22  1  0
  2 24  1  0
  3 25  1  0
  4 26  1  0
  5 27  1  0
  9 28  1  0
 10 29  1  0
 11 30  1  0
 12 31  1  0
 13 32  1  0
 16 33  1  0
 17 34  1  0
 18 35  1  0
 19 36  1  0
 20 37  1  0
M  ISO  8  24  14  25  14  26  14  27  14  28  14  29  14  30  14  31  14
M  ISO  6  32  11  33   8  34   3  35  14  36  14  37  14
M  END
>  <minimizedAffinity>  (1) 
-4.96958208

>  <minimizedRMSD>  (1) 
1.84940219

$$$$
