
     RDKit          3D

 37 39  0  0  1  0  0  0  0  0999 V2000
   36.5480   29.4810   49.2060 N   0  0  0  0  0  0  0  0  0  0  0  0
   36.6790   28.6670   50.4360 C   0  0  0  0  0  0  0  0  0  0  0  0
   37.3060   29.3640   51.5690 C   0  0  0  0  0  0  0  0  0  0  0  0
   38.1210   30.4920   51.3410 N   0  0  0  0  0  0  0  0  0  0  0  0
   37.7730   31.2560   50.1380 C   0  0  0  0  0  0  0  0  0  0  0  0
   37.7060   30.2470   49.0070 C   0  0  2  0  0  0  0  0  0  0  0  0
   35.3700   29.4070   48.4260 C   0  0  0  0  0  0  0  0  0  0  0  0
   34.8300   30.5160   47.7900 C   0  0  0  0  0  0  0  0  0  0  0  0
   33.6870   30.4290   47.0160 C   0  0  0  0  0  0  0  0  0  0  0  0
   33.1180   29.1750   46.9210 N   0  0  0  0  0  0  0  0  0  0  0  0
   33.6690   28.1000   47.5580 C   0  0  0  0  0  0  0  0  0  0  0  0
   34.7810   28.2020   48.3040 N   0  0  0  0  0  0  0  0  0  0  0  0
   38.5200   32.0840   47.6390 C   0  0  0  0  0  0  0  0  0  0  0  0
   38.0620   30.7570   47.6950 C   0  0  0  0  0  0  0  0  0  0  0  0
   37.9860   30.1620   46.4300 C   0  0  0  0  0  0  0  0  0  0  0  0
   38.2990   30.7260   45.2280 C   0  0  0  0  0  0  0  0  0  0  0  0
   38.7430   32.0290   45.2400 C   0  0  0  0  0  0  0  0  0  0  0  0
   38.8520   32.7000   46.4380 C   0  0  0  0  0  0  0  0  0  0  0  0
   38.7450   33.1380   49.0170 S   0  0  0  0  0  0  0  0  0  0  0  0
   37.4270   33.8180   49.3620 O   0  0  0  0  0  0  0  0  0  0  0  0
   39.8140   34.1630   48.7520 O   0  0  0  0  0  0  0  0  0  0  0  0
   35.6726   28.3475   50.7445 H   0  0  0  0  0  0  0  0  0  0  0  0
   37.3411   27.8257   50.1833 H   0  0  0  0  0  0  0  0  0  0  0  0
   36.4906   29.6904   52.2312 H   0  0  0  0  0  0  0  0  0  0  0  0
   38.0119   28.6186   51.9641 H   0  0  0  0  0  0  0  0  0  0  0  0
   38.0403   31.1179   52.1550 H   0  0  0  0  0  0  0  0  0  0  0  0
   36.7989   31.7502   50.2675 H   0  0  0  0  0  0  0  0  0  0  0  0
   38.5132   32.0433   49.9324 H   0  0  0  0  0  0  0  0  0  0  0  0
   38.5329   29.5220   49.0321 H   0  0  0  0  0  0  0  0  0  0  0  0
   35.3249   31.4917   47.9047 H   0  0  0  0  0  0  0  0  0  0  0  0
   33.2579   31.3050   46.5076 H   0  0  0  0  0  0  0  0  0  0  0  0
   33.1855   27.1172   47.4566 H   0  0  0  0  0  0  0  0  0  0  0  0
   37.6335   29.1204   46.4021 H   0  0  0  0  0  0  0  0  0  0  0  0
   38.2007   30.1630   44.2881 H   0  0  0  0  0  0  0  0  0  0  0  0
   39.0092   32.5314   44.2983 H   0  0  0  0  0  0  0  0  0  0  0  0
   39.2078   33.7409   46.4444 H   0  0  0  0  0  0  0  0  0  0  0  0
   39.1546   32.3793   50.0817 H   0  0  0  0  0  0  0  0  0  0  0  0
  1  2  1  0
  2  3  1  0
  4  3  1  0
  5  4  1  0
  6  1  1  0
  6  5  1  0
  7  1  1  0
  8  7  2  0
  9  8  1  0
 10  9  2  0
 10 11  1  0
 11 12  2  0
 12  7  1  0
 13 14  2  0
 13 19  1  0
 14  6  1  0
 15 14  1  0
 16 17  1  0
 16 15  2  0
 17 18  2  0
 18 13  1  0
 19 20  2  0
 21 19  2  0
  2 22  1  0
  2 23  1  0
  3 24  1  0
  3 25  1  0
  4 26  1  0
  5 27  1  0
  5 28  1  0
  6 29  1  1
  8 30  1  0
  9 31  1  0
 11 32  1  0
 15 33  1  0
 16 34  1  0
 17 35  1  0
 18 36  1  0
 19 37  1  0
M  ISO  8  22  13  23  13  24  13  25  13  26   5  27  13  28  13  29  13
M  ISO  8  30  14  31  14  32  14  33  14  34  14  35  14  36  14  37  11
M  END
>  <minimizedAffinity>  (1) 
-5.3840909

>  <minimizedRMSD>  (1) 
1.35334742

$$$$
