
     RDKit          3D

 32 34  0  0  0  0  0  0  0  0999 V2000
   38.2280   31.3250   47.9740 C   0  0  0  0  0  0  0  0  0  0  0  0
   38.9420   32.4770   48.0590 C   0  0  0  0  0  0  0  0  0  0  0  0
   39.5480   33.1150   47.0110 C   0  0  0  0  0  0  0  0  0  0  0  0
   39.4430   32.5720   45.7630 C   0  0  0  0  0  0  0  0  0  0  0  0
   38.7170   31.3970   45.6600 C   0  0  0  0  0  0  0  0  0  0  0  0
   38.1550   30.8300   46.7170 N   0  0  0  0  0  0  0  0  0  0  0  0
   37.2900   30.1710   51.4250 C   0  0  0  0  0  0  0  0  0  0  0  0
   37.9810   30.8890   50.4300 C   0  0  0  0  0  0  0  0  0  0  0  0
   37.5930   30.6500   49.1010 C   0  0  0  0  0  0  0  0  0  0  0  0
   36.6040   29.7690   48.8430 N   0  0  0  0  0  0  0  0  0  0  0  0
   35.9700   29.1020   49.8490 C   0  0  0  0  0  0  0  0  0  0  0  0
   36.3170   29.3080   51.1170 N   0  0  0  0  0  0  0  0  0  0  0  0
   37.7400   30.9310   43.3500 C   0  0  0  0  0  0  0  0  0  0  0  0
   38.5290   30.6380   44.4320 C   0  0  0  0  0  0  0  0  0  0  0  0
   39.1950   29.4110   44.3010 C   0  0  0  0  0  0  0  0  0  0  0  0
   39.1190   28.5410   43.2370 C   0  0  0  0  0  0  0  0  0  0  0  0
   38.3270   28.8780   42.1900 C   0  0  0  0  0  0  0  0  0  0  0  0
   37.6530   30.0610   42.2610 C   0  0  0  0  0  0  0  0  0  0  0  0
   36.7460   32.3400   43.3010 S   0  0  0  0  0  0  0  0  0  0  0  0
   35.2940   31.8430   43.0760 O   0  0  0  0  0  0  0  0  0  0  0  0
   37.1310   33.1930   42.1310 O   0  0  0  0  0  0  0  0  0  0  0  0
   39.0416   32.9358   49.0538 H   0  0  0  0  0  0  0  0  0  0  0  0
   40.1090   34.0475   47.1712 H   0  0  0  0  0  0  0  0  0  0  0  0
   39.9103   33.0428   44.8855 H   0  0  0  0  0  0  0  0  0  0  0  0
   37.5574   30.3241   52.4810 H   0  0  0  0  0  0  0  0  0  0  0  0
   38.7825   31.5997   50.6802 H   0  0  0  0  0  0  0  0  0  0  0  0
   35.1667   28.3892   49.6110 H   0  0  0  0  0  0  0  0  0  0  0  0
   39.8462   29.1125   45.1357 H   0  0  0  0  0  0  0  0  0  0  0  0
   39.6855   27.5981   43.2365 H   0  0  0  0  0  0  0  0  0  0  0  0
   38.2314   28.2201   41.3137 H   0  0  0  0  0  0  0  0  0  0  0  0
   37.0073   30.3449   41.4169 H   0  0  0  0  0  0  0  0  0  0  0  0
   36.8781   33.0691   44.4533 H   0  0  0  0  0  0  0  0  0  0  0  0
  1  2  2  0
  1  9  1  0
  3  2  1  0
  4  3  2  0
  5  4  1  0
  5  6  2  0
  6  1  1  0
  8  7  2  0
  9  8  1  0
 10  9  2  0
 10 11  1  0
 11 12  2  0
 12  7  1  0
 13 14  2  0
 14  5  1  0
 15 14  1  0
 16 15  2  0
 17 18  2  0
 17 16  1  0
 18 13  1  0
 19 13  1  0
 20 19  2  0
 21 19  2  0
  2 22  1  0
  3 23  1  0
  4 24  1  0
  7 25  1  0
  8 26  1  0
 11 27  1  0
 15 28  1  0
 16 29  1  0
 17 30  1  0
 18 31  1  0
 19 32  1  0
M  ISO  8  22  14  23  14  24  14  25  14  26  14  27  14  28  14  29  14
M  ISO  3  30  14  31  14  32  11
M  END
>  <minimizedAffinity>  (1) 
-5.71104574

>  <minimizedRMSD>  (1) 
0.986324131

$$$$
