
     RDKit          3D

 34 36  0  0  1  0  0  0  0  0999 V2000
   38.0550   31.2340   43.9550 C   0  0  2  0  0  0  0  0  0  0  0  0
   37.5640   29.8650   43.8870 C   0  0  0  0  0  0  0  0  0  0  0  0
   37.0100   30.8750   44.9050 C   0  0  1  0  0  0  0  0  0  0  0  0
   38.5340   33.7100   41.2410 C   0  0  0  0  0  0  0  0  0  0  0  0
   37.2060   34.1250   40.9830 C   0  0  0  0  0  0  0  0  0  0  0  0
   36.1480   33.5410   41.7550 C   0  0  0  0  0  0  0  0  0  0  0  0
   36.4700   32.6150   42.6990 N   0  0  0  0  0  0  0  0  0  0  0  0
   37.7690   32.2580   42.9000 C   0  0  0  0  0  0  0  0  0  0  0  0
   38.8130   32.7740   42.2020 N   0  0  0  0  0  0  0  0  0  0  0  0
   36.3990   30.4380   47.2580 C   0  0  0  0  0  0  0  0  0  0  0  0
   35.1950   30.3720   46.9090 O   0  0  0  0  0  0  0  0  0  0  0  0
   37.4470   30.6220   46.2850 N   0  0  0  0  0  0  0  0  0  0  0  0
   35.8680   29.6620   49.6050 C   0  0  0  0  0  0  0  0  0  0  0  0
   36.6680   30.3180   48.6920 C   0  0  0  0  0  0  0  0  0  0  0  0
   37.8520   30.9460   49.0820 C   0  0  0  0  0  0  0  0  0  0  0  0
   38.2620   30.9280   50.4170 C   0  0  0  0  0  0  0  0  0  0  0  0
   37.4620   30.2700   51.3390 C   0  0  0  0  0  0  0  0  0  0  0  0
   36.2900   29.6540   50.9200 C   0  0  0  0  0  0  0  0  0  0  0  0
   34.4180   28.9170   49.0100 S   0  0  0  0  0  0  0  0  0  0  0  0
   33.3360   29.0130   50.0720 O   0  0  0  0  0  0  0  0  0  0  0  0
   34.6220   27.4750   48.6730 O   0  0  0  0  0  0  0  0  0  0  0  0
   39.0722   31.6448   44.0360 H   0  0  0  0  0  0  0  0  0  0  0  0
   36.9468   29.5384   43.0371 H   0  0  0  0  0  0  0  0  0  0  0  0
   38.0144   28.8626   43.9361 H   0  0  0  0  0  0  0  0  0  0  0  0
   36.0277   31.2914   45.1729 H   0  0  0  0  0  0  0  0  0  0  0  0
   39.3584   34.1473   40.6587 H   0  0  0  0  0  0  0  0  0  0  0  0
   36.9906   34.8769   40.2095 H   0  0  0  0  0  0  0  0  0  0  0  0
   35.1011   33.8345   41.5882 H   0  0  0  0  0  0  0  0  0  0  0  0
   38.4435   30.5787   46.5421 H   0  0  0  0  0  0  0  0  0  0  0  0
   38.4685   31.4604   48.3301 H   0  0  0  0  0  0  0  0  0  0  0  0
   39.1940   31.4223   50.7286 H   0  0  0  0  0  0  0  0  0  0  0  0
   37.7548   30.2361   52.3988 H   0  0  0  0  0  0  0  0  0  0  0  0
   35.6708   29.1372   51.6680 H   0  0  0  0  0  0  0  0  0  0  0  0
   34.0542   29.5782   47.8666 H   0  0  0  0  0  0  0  0  0  0  0  0
  1  3  1  0
  2  1  1  0
  2  3  1  0
  3 12  1  0
  4  9  2  0
  5  4  1  0
  5  6  2  0
  6  7  1  0
  7  8  2  0
  8  1  1  0
  9  8  1  0
 10 14  1  0
 11 10  2  0
 12 10  1  0
 13 18  2  0
 14 15  2  0
 14 13  1  0
 15 16  1  0
 16 17  2  0
 18 17  1  0
 19 13  1  0
 19 20  2  0
 21 19  2  0
  1 22  1  1
  2 23  1  0
  2 24  1  0
  3 25  1  1
  4 26  1  0
  5 27  1  0
  6 28  1  0
 12 29  1  0
 15 30  1  0
 16 31  1  0
 17 32  1  0
 18 33  1  0
 19 34  1  0
M  ISO  8  22  13  23  13  24  13  25  13  26  14  27  14  28  14  30  14
M  ISO  4  31  14  32  14  33  14  34  11
M  END
>  <minimizedAffinity>  (1) 
-5.42324734

>  <minimizedRMSD>  (1) 
3.89585304

$$$$
