
     RDKit          3D

 37 39  0  0  1  0  0  0  0  0999 V2000
   36.9490   30.3080   48.6880 N   0  0  0  0  0  0  0  0  0  0  0  0
   37.4180   31.4150   47.9390 C   0  0  1  0  0  0  0  0  0  0  0  0
   38.3130   32.1810   48.9060 C   0  0  0  0  0  0  0  0  0  0  0  0
   38.2540   31.3480   50.2090 C   0  0  0  0  0  0  0  0  0  0  0  0
   37.9950   29.9790   49.6200 C   0  0  0  0  0  0  0  0  0  0  0  0
   35.6840   29.6660   48.5520 C   0  0  0  0  0  0  0  0  0  0  0  0
   34.8250   30.1040   47.5280 C   0  0  0  0  0  0  0  0  0  0  0  0
   33.5910   29.4630   47.3710 C   0  0  0  0  0  0  0  0  0  0  0  0
   33.3060   28.4420   48.2360 N   0  0  0  0  0  0  0  0  0  0  0  0
   34.1570   28.0450   49.2100 C   0  0  0  0  0  0  0  0  0  0  0  0
   35.3590   28.6670   49.3670 N   0  0  0  0  0  0  0  0  0  0  0  0
   37.9160   31.1990   46.6160 C   0  0  0  0  0  0  0  0  0  0  0  0
   38.8740   30.4270   46.5220 O   0  0  0  0  0  0  0  0  0  0  0  0
   38.6030   32.4170   44.5550 C   0  0  0  0  0  0  0  0  0  0  0  0
   37.7710   31.5450   45.2110 C   0  0  0  0  0  0  0  0  0  0  0  0
   36.7840   30.9720   44.4440 C   0  0  0  0  0  0  0  0  0  0  0  0
   36.5500   31.1820   43.1050 C   0  0  0  0  0  0  0  0  0  0  0  0
   37.4010   32.0620   42.4730 C   0  0  0  0  0  0  0  0  0  0  0  0
   38.4070   32.6690   43.1780 C   0  0  0  0  0  0  0  0  0  0  0  0
   39.9210   33.2600   45.3200 S   0  0  0  0  0  0  0  0  0  0  0  0
   40.2240   34.5030   44.5380 O   0  0  0  0  0  0  0  0  0  0  0  0
   41.1780   32.4050   45.2740 O   0  0  0  0  0  0  0  0  0  0  0  0
   36.5646   32.0221   47.6028 H   0  0  0  0  0  0  0  0  0  0  0  0
   39.3431   32.2377   48.5243 H   0  0  0  0  0  0  0  0  0  0  0  0
   37.9860   33.2210   49.0527 H   0  0  0  0  0  0  0  0  0  0  0  0
   39.2043   31.3835   50.7619 H   0  0  0  0  0  0  0  0  0  0  0  0
   37.5130   31.6872   50.9478 H   0  0  0  0  0  0  0  0  0  0  0  0
   37.6535   29.2634   50.3825 H   0  0  0  0  0  0  0  0  0  0  0  0
   38.8748   29.4882   49.1782 H   0  0  0  0  0  0  0  0  0  0  0  0
   35.1167   30.9321   46.8653 H   0  0  0  0  0  0  0  0  0  0  0  0
   32.8817   29.7665   46.5870 H   0  0  0  0  0  0  0  0  0  0  0  0
   33.8774   27.2168   49.8778 H   0  0  0  0  0  0  0  0  0  0  0  0
   36.1092   30.2704   44.9563 H   0  0  0  0  0  0  0  0  0  0  0  0
   35.7318   30.6772   42.5704 H   0  0  0  0  0  0  0  0  0  0  0  0
   37.2728   32.2774   41.4019 H   0  0  0  0  0  0  0  0  0  0  0  0
   39.0784   33.3695   42.6598 H   0  0  0  0  0  0  0  0  0  0  0  0
   39.5665   33.5434   46.6127 H   0  0  0  0  0  0  0  0  0  0  0  0
  1  5  1  0
  2  1  1  0
  2  3  1  0
  3  4  1  0
  5  4  1  0
  6  1  1  0
  6 11  1  0
  7  6  2  0
  8  7  1  0
  8  9  2  0
  9 10  1  0
 10 11  2  0
 12  2  1  0
 13 12  2  0
 14 15  2  0
 14 20  1  0
 15 12  1  0
 16 15  1  0
 17 16  2  0
 18 17  1  0
 18 19  2  0
 19 14  1  0
 21 20  2  0
 22 20  2  0
  2 23  1  6
  3 24  1  0
  3 25  1  0
  4 26  1  0
  4 27  1  0
  5 28  1  0
  5 29  1  0
  7 30  1  0
  8 31  1  0
 10 32  1  0
 16 33  1  0
 17 34  1  0
 18 35  1  0
 19 36  1  0
 20 37  1  0
M  ISO  8  23  13  24  13  25  13  26  13  27  13  28  13  29  13  30  14
M  ISO  7  31  14  32  14  33  14  34  14  35  14  36  14  37  11
M  END
>  <minimizedAffinity>  (1) 
-5.63833904

>  <minimizedRMSD>  (1) 
2.19726801

$$$$
