
     RDKit          3D

 38 40  0  0  0  0  0  0  0  0999 V2000
   37.5530   31.6030   49.5130 C   0  0  0  0  0  0  0  0  0  0  0  0
   38.2390   30.9380   48.5720 C   0  0  0  0  0  0  0  0  0  0  0  0
   39.0010   31.9700   48.0650 O   0  0  0  0  0  0  0  0  0  0  0  0
   38.8620   32.2740   46.7350 C   0  0  0  0  0  0  0  0  0  0  0  0
   39.9800   32.8830   46.2400 C   0  0  0  0  0  0  0  0  0  0  0  0
   40.0090   33.2680   44.8750 C   0  0  0  0  0  0  0  0  0  0  0  0
   38.8920   32.9970   44.1370 N   0  0  0  0  0  0  0  0  0  0  0  0
   37.7860   32.3830   44.6710 C   0  0  0  0  0  0  0  0  0  0  0  0
   37.8060   32.0390   45.9610 N   0  0  0  0  0  0  0  0  0  0  0  0
   36.8390   32.6110   42.5010 C   0  0  0  0  0  0  0  0  0  0  0  0
   37.8660   33.2060   42.0230 O   0  0  0  0  0  0  0  0  0  0  0  0
   36.6710   32.1410   43.8310 N   0  0  0  0  0  0  0  0  0  0  0  0
   36.1140   31.1980   49.6780 C   0  0  0  0  0  0  0  0  0  0  0  0
   35.8710   29.5720   50.3210 S   0  0  0  0  0  0  0  0  0  0  0  0
   33.0820   28.9010   49.6960 N   0  0  0  0  0  0  0  0  0  0  0  0
   34.4190   28.8120   49.6140 C   0  0  0  0  0  0  0  0  0  0  0  0
   34.6990   27.8350   48.7050 N   0  0  0  0  0  0  0  0  0  0  0  0
   33.5300   27.3210   48.2270 C   0  0  0  0  0  0  0  0  0  0  0  0
   33.1210   26.3550   47.3300 C   0  0  0  0  0  0  0  0  0  0  0  0
   31.7960   26.1290   47.1190 N   0  0  0  0  0  0  0  0  0  0  0  0
   30.8400   26.8230   47.7650 C   0  0  0  0  0  0  0  0  0  0  0  0
   31.2100   27.7820   48.6560 N   0  0  0  0  0  0  0  0  0  0  0  0
   32.5200   28.0080   48.8650 C   0  0  0  0  0  0  0  0  0  0  0  0
   34.1410   25.6280   46.6540 N   0  0  0  0  0  0  0  0  0  0  0  0
   37.5760   32.6723   49.2560 H   0  0  0  0  0  0  0  0  0  0  0  0
   38.0438   31.3637   50.4679 H   0  0  0  0  0  0  0  0  0  0  0  0
   38.8634   30.1430   49.0058 H   0  0  0  0  0  0  0  0  0  0  0  0
   37.6209   30.4084   47.8320 H   0  0  0  0  0  0  0  0  0  0  0  0
   40.8462   33.0723   46.8911 H   0  0  0  0  0  0  0  0  0  0  0  0
   40.8876   33.7604   44.4327 H   0  0  0  0  0  0  0  0  0  0  0  0
   35.9989   32.4463   41.8103 H   0  0  0  0  0  0  0  0  0  0  0  0
   35.8159   31.6671   44.1553 H   0  0  0  0  0  0  0  0  0  0  0  0
   35.6340   31.9121   50.3633 H   0  0  0  0  0  0  0  0  0  0  0  0
   35.6742   31.2010   48.6698 H   0  0  0  0  0  0  0  0  0  0  0  0
   32.5663   29.5540   50.3031 H   0  0  0  0  0  0  0  0  0  0  0  0
   29.7761   26.6177   47.5752 H   0  0  0  0  0  0  0  0  0  0  0  0
   33.8879   24.8964   45.9746 H   0  0  0  0  0  0  0  0  0  0  0  0
   35.1322   25.8335   46.8442 H   0  0  0  0  0  0  0  0  0  0  0  0
  1 13  1  0
  2  1  1  0
  3  2  1  0
  4  3  1  0
  5  4  2  0
  6  5  1  0
  7  8  1  0
  7  6  2  0
  8  9  2  0
  9  4  1  0
 10 12  1  0
 11 10  2  0
 12  8  1  0
 13 14  1  0
 16 15  1  0
 16 14  1  0
 17 16  2  0
 18 17  1  0
 18 23  2  0
 19 18  1  0
 20 19  2  0
 20 21  1  0
 21 22  2  0
 22 23  1  0
 23 15  1  0
 24 19  1  0
  1 25  1  0
  1 26  1  0
  2 27  1  0
  2 28  1  0
  5 29  1  0
  6 30  1  0
 10 31  1  0
 12 32  1  0
 13 33  1  0
 13 34  1  0
 15 35  1  0
 21 36  1  0
 24 37  1  0
 24 38  1  0
M  ISO  8  25   8  26   8  27   8  28   8  29  14  30  14  31   6  33   8
M  ISO  3  34   8  35   9  36  14
M  END
>  <minimizedAffinity>  (1) 
-5.57569361

>  <minimizedRMSD>  (1) 
2.72042131

$$$$
