
     RDKit          3D

 44 48  0  0  0  0  0  0  0  0999 V2000
   34.1430   30.1320   48.0830 F   0  0  0  0  0  0  0  0  0  0  0  0
   34.5600   29.8500   46.8080 C   0  0  0  0  0  0  0  0  0  0  0  0
   33.7390   29.2190   45.8890 C   0  0  0  0  0  0  0  0  0  0  0  0
   34.2250   28.9830   44.6170 C   0  0  0  0  0  0  0  0  0  0  0  0
   35.5210   29.3730   44.2610 C   0  0  0  0  0  0  0  0  0  0  0  0
   36.2860   29.9970   45.2300 C   0  0  0  0  0  0  0  0  0  0  0  0
   35.8550   30.2460   46.4770 C   0  0  0  0  0  0  0  0  0  0  0  0
   32.3530   27.7820   47.2310 C   0  0  0  0  0  0  0  0  0  0  0  0
   32.4370   28.8710   46.3740 C   0  0  0  0  0  0  0  0  0  0  0  0
   31.2650   29.5360   46.0640 C   0  0  0  0  0  0  0  0  0  0  0  0
   30.0860   29.1270   46.5870 N   0  0  0  0  0  0  0  0  0  0  0  0
   30.0430   28.0710   47.4100 C   0  0  0  0  0  0  0  0  0  0  0  0
   31.1450   27.4110   47.7300 N   0  0  0  0  0  0  0  0  0  0  0  0
   28.7170   27.7920   47.8600 N   0  0  0  0  0  0  0  0  0  0  0  0
   28.0950   26.6070   48.1030 C   0  0  0  0  0  0  0  0  0  0  0  0
   26.8230   26.8550   48.5160 N   0  0  0  0  0  0  0  0  0  0  0  0
   26.6720   28.1700   48.5230 C   0  0  0  0  0  0  0  0  0  0  0  0
   25.6230   29.0020   48.8450 C   0  0  0  0  0  0  0  0  0  0  0  0
   25.7280   30.3550   48.7660 N   0  0  0  0  0  0  0  0  0  0  0  0
   26.8770   30.9370   48.3670 C   0  0  0  0  0  0  0  0  0  0  0  0
   27.9110   30.1380   48.0500 N   0  0  0  0  0  0  0  0  0  0  0  0
   27.8270   28.7960   48.1210 C   0  0  0  0  0  0  0  0  0  0  0  0
   24.3620   28.5040   49.2780 N   0  0  0  0  0  0  0  0  0  0  0  0
   38.0150   32.2430   45.3980 Br  0  0  0  0  0  0  0  0  0  0  0  0
   37.7060   31.8210   47.2300 C   0  0  0  0  0  0  0  0  0  0  0  0
   36.7190   30.8960   47.4460 C   0  0  0  0  0  0  0  0  0  0  0  0
   36.4570   30.5080   48.7720 C   0  0  0  0  0  0  0  0  0  0  0  0
   37.1630   31.0380   49.8040 C   0  0  0  0  0  0  0  0  0  0  0  0
   38.1450   31.9680   49.5170 C   0  0  0  0  0  0  0  0  0  0  0  0
   38.4340   32.3780   48.2150 C   0  0  0  0  0  0  0  0  0  0  0  0
   39.3800   33.2860   47.8550 O   0  0  0  0  0  0  0  0  0  0  0  0
   33.5853   28.4824   43.8752 H   0  0  0  0  0  0  0  0  0  0  0  0
   35.9157   29.1906   43.2506 H   0  0  0  0  0  0  0  0  0  0  0  0
   37.3071   30.3073   44.9633 H   0  0  0  0  0  0  0  0  0  0  0  0
   33.2597   27.2225   47.5046 H   0  0  0  0  0  0  0  0  0  0  0  0
   31.2913   30.4032   45.3878 H   0  0  0  0  0  0  0  0  0  0  0  0
   28.5468   25.6110   47.9848 H   0  0  0  0  0  0  0  0  0  0  0  0
   26.9657   32.0315   48.3028 H   0  0  0  0  0  0  0  0  0  0  0  0
   23.6017   29.1590   49.5098 H   0  0  0  0  0  0  0  0  0  0  0  0
   24.2098   27.4886   49.3596 H   0  0  0  0  0  0  0  0  0  0  0  0
   35.6707   29.7662   48.9758 H   0  0  0  0  0  0  0  0  0  0  0  0
   36.9588   30.7352   50.8416 H   0  0  0  0  0  0  0  0  0  0  0  0
   38.7210   32.4017   50.3477 H   0  0  0  0  0  0  0  0  0  0  0  0
   39.9383   33.7202   48.5477 H   0  0  0  0  0  0  0  0  0  0  0  0
  2  1  1  0
  3  9  1  0
  3  2  2  0
  4  3  1  0
  5  4  2  0
  5  6  1  0
  6  7  2  0
  7  2  1  0
  7 26  1  0
  8 13  2  0
  9  8  1  0
 10  9  2  0
 10 11  1  0
 11 12  2  0
 12 13  1  0
 12 14  1  0
 14 15  1  0
 14 22  1  0
 15 16  2  0
 16 17  1  0
 17 18  2  0
 18 23  1  0
 19 18  1  0
 20 19  2  0
 21 22  2  0
 21 20  1  0
 22 17  1  0
 24 25  1  0
 25 26  2  0
 25 30  1  0
 26 27  1  0
 27 28  2  0
 29 28  1  0
 30 29  2  0
 31 30  1  0
  4 32  1  0
  5 33  1  0
  6 34  1  0
  8 35  1  0
 10 36  1  0
 15 37  1  0
 20 38  1  0
 23 39  1  0
 23 40  1  0
 27 41  1  0
 28 42  1  0
 29 43  1  0
 31 44  1  0
M  END
>  <minimizedAffinity>  (1) 
-8.73782349

>  <minimizedRMSD>  (1) 
0.955177963

$$$$
