
     RDKit          3D

 47 52  0  0  0  0  0  0  0  0999 V2000
   34.0400   29.0880   49.5660 C   0  0  0  0  0  0  0  0  0  0  0  0
   36.9510   29.6150   51.7860 C   0  0  0  0  0  0  0  0  0  0  0  0
   37.7340   30.5320   51.0400 C   0  0  0  0  0  0  0  0  0  0  0  0
   37.2380   30.9520   49.7790 C   0  0  0  0  0  0  0  0  0  0  0  0
   36.0550   30.4510   49.3750 N   0  0  0  0  0  0  0  0  0  0  0  0
   35.3380   29.5750   50.1190 C   0  0  0  0  0  0  0  0  0  0  0  0
   35.7860   29.1750   51.2920 N   0  0  0  0  0  0  0  0  0  0  0  0
   37.9870   31.8730   48.9930 N   0  0  0  0  0  0  0  0  0  0  0  0
   38.5210   33.0750   49.3280 C   0  0  0  0  0  0  0  0  0  0  0  0
   39.1510   33.5820   48.2290 N   0  0  0  0  0  0  0  0  0  0  0  0
   39.0000   32.6890   47.2270 C   0  0  0  0  0  0  0  0  0  0  0  0
   39.4100   32.6470   45.9090 C   0  0  0  0  0  0  0  0  0  0  0  0
   39.1050   31.5890   45.1110 N   0  0  0  0  0  0  0  0  0  0  0  0
   38.3920   30.5440   45.5810 C   0  0  0  0  0  0  0  0  0  0  0  0
   38.0020   30.6020   46.8670 N   0  0  0  0  0  0  0  0  0  0  0  0
   38.2770   31.6230   47.6990 C   0  0  0  0  0  0  0  0  0  0  0  0
   40.1640   33.7230   45.3600 N   0  0  0  0  0  0  0  0  0  0  0  0
   34.2700   28.4360   48.2120 C   0  0  0  0  0  0  0  0  0  0  0  0
   33.1750   28.9590   47.3200 C   0  0  0  0  0  0  0  0  0  0  0  0
   31.9660   28.3400   47.0480 C   0  0  0  0  0  0  0  0  0  0  0  0
   31.2420   29.1450   46.1850 C   0  0  0  0  0  0  0  0  0  0  0  0
   32.0270   30.2220   45.9590 N   0  0  0  0  0  0  0  0  0  0  0  0
   33.1520   30.0980   46.6290 N   0  0  0  0  0  0  0  0  0  0  0  0
   30.3330   31.3640   44.5040 N   0  0  0  0  0  0  0  0  0  0  0  0
   31.5400   31.2440   45.0910 C   0  0  0  0  0  0  0  0  0  0  0  0
   32.2780   32.3240   44.7040 N   0  0  0  0  0  0  0  0  0  0  0  0
   31.5470   33.0980   43.8950 C   0  0  0  0  0  0  0  0  0  0  0  0
   31.8540   34.2770   43.2630 C   0  0  0  0  0  0  0  0  0  0  0  0
   30.9230   34.8670   42.4860 N   0  0  0  0  0  0  0  0  0  0  0  0
   29.7050   34.2790   42.3520 C   0  0  0  0  0  0  0  0  0  0  0  0
   29.3960   33.1150   42.9740 N   0  0  0  0  0  0  0  0  0  0  0  0
   30.3040   32.5040   43.7530 C   0  0  0  0  0  0  0  0  0  0  0  0
   33.6021   28.3519   50.2562 H   0  0  0  0  0  0  0  0  0  0  0  0
   33.3532   29.9391   49.4476 H   0  0  0  0  0  0  0  0  0  0  0  0
   37.2996   29.2654   52.7690 H   0  0  0  0  0  0  0  0  0  0  0  0
   38.6940   30.9053   51.4261 H   0  0  0  0  0  0  0  0  0  0  0  0
   38.4570   33.5570   50.3147 H   0  0  0  0  0  0  0  0  0  0  0  0
   38.1414   29.6845   44.9419 H   0  0  0  0  0  0  0  0  0  0  0  0
   40.4687   33.6893   44.3767 H   0  0  0  0  0  0  0  0  0  0  0  0
   40.4047   34.5350   45.9462 H   0  0  0  0  0  0  0  0  0  0  0  0
   35.2564   28.7158   47.8136 H   0  0  0  0  0  0  0  0  0  0  0  0
   34.2504   27.3383   48.2800 H   0  0  0  0  0  0  0  0  0  0  0  0
   31.6362   27.3708   47.4504 H   0  0  0  0  0  0  0  0  0  0  0  0
   30.2415   28.9498   45.7715 H   0  0  0  0  0  0  0  0  0  0  0  0
   29.5532   30.6989   44.6060 H   0  0  0  0  0  0  0  0  0  0  0  0
   32.8464   34.7346   43.3886 H   0  0  0  0  0  0  0  0  0  0  0  0
   28.9464   34.7628   41.7191 H   0  0  0  0  0  0  0  0  0  0  0  0
  1  6  1  0
  3  2  2  0
  4  3  1  0
  5  4  2  0
  5  6  1  0
  6  7  2  0
  7  2  1  0
  8  9  1  0
  8  4  1  0
 10  9  2  0
 11 16  2  0
 11 10  1  0
 12 11  1  0
 13 14  1  0
 13 12  2  0
 14 15  2  0
 15 16  1  0
 16  8  1  0
 17 12  1  0
 18  1  1  0
 19 18  1  0
 20 19  1  0
 21 20  2  0
 22 21  1  0
 22 23  1  0
 23 19  2  0
 24 25  1  0
 25 22  1  0
 26 25  2  0
 27 26  1  0
 28 27  2  0
 29 28  1  0
 30 29  2  0
 30 31  1  0
 31 32  2  0
 32 27  1  0
 32 24  1  0
  1 33  1  0
  1 34  1  0
  2 35  1  0
  3 36  1  0
  9 37  1  0
 14 38  1  0
 17 39  1  0
 17 40  1  0
 18 41  1  0
 18 42  1  0
 20 43  1  0
 21 44  1  0
 24 45  1  0
 28 46  1  0
 30 47  1  0
M  ISO  8  33   8  34   8  35  14  36  14  37  14  38  14  41   8  42   8
M  ISO  5  43  14  44  14  45   9  46  14  47  14
M  END
>  <minimizedAffinity>  (1) 
-7.8515563

>  <minimizedRMSD>  (1) 
2.5583508

$$$$
