
     RDKit          3D

 43 46  0  0  1  0  0  0  0  0999 V2000
   35.4980   29.4240   47.7930 C   0  0  0  0  0  0  0  0  0  0  0  0
   35.4330   30.0370   46.5410 C   0  0  0  0  0  0  0  0  0  0  0  0
   34.4050   29.6360   45.6800 C   0  0  0  0  0  0  0  0  0  0  0  0
   33.5370   28.6660   46.1350 N   0  0  0  0  0  0  0  0  0  0  0  0
   33.6390   28.1070   47.3420 C   0  0  0  0  0  0  0  0  0  0  0  0
   34.6210   28.4890   48.1680 N   0  0  0  0  0  0  0  0  0  0  0  0
   36.5550   29.8430   48.6680 N   0  0  0  0  0  0  0  0  0  0  0  0
   37.7280   30.5850   48.3160 C   0  0  0  0  0  0  0  0  0  0  0  0
   38.0590   31.3070   49.6150 C   0  0  2  0  0  0  0  0  0  0  0  0
   36.9150   30.9990   50.5790 C   0  0  0  0  0  0  0  0  0  0  0  0
   36.6300   29.5830   50.1030 C   0  0  0  0  0  0  0  0  0  0  0  0
   38.2280   32.7870   49.4120 C   0  0  0  0  0  0  0  0  0  0  0  0
   37.0830   33.3880   49.8970 F   0  0  0  0  0  0  0  0  0  0  0  0
   38.2440   33.0080   48.0600 F   0  0  0  0  0  0  0  0  0  0  0  0
   39.3580   33.2890   50.0010 F   0  0  0  0  0  0  0  0  0  0  0  0
   32.4850   26.8590   47.8750 S   0  0  0  0  0  0  0  0  0  0  0  0
   30.9990   27.3690   48.4900 C   0  0  0  0  0  0  0  0  0  0  0  0
   30.1490   27.1380   49.5300 C   0  0  0  0  0  0  0  0  0  0  0  0
   28.9650   27.7610   49.7300 C   0  0  0  0  0  0  0  0  0  0  0  0
   28.6500   28.7580   48.6810 C   0  0  0  0  0  0  0  0  0  0  0  0
   30.0680   28.6890   47.5460 S   0  0  0  0  0  0  0  0  0  0  0  0
   26.5240   28.0120   50.6150 Cl  0  0  0  0  0  0  0  0  0  0  0  0
   26.4680   29.3070   49.4400 C   0  0  0  0  0  0  0  0  0  0  0  0
   27.5110   29.5760   48.5810 C   0  0  0  0  0  0  0  0  0  0  0  0
   27.5270   30.5780   47.6380 C   0  0  0  0  0  0  0  0  0  0  0  0
   26.3870   31.3850   47.5490 C   0  0  0  0  0  0  0  0  0  0  0  0
   25.2980   31.1550   48.3980 C   0  0  0  0  0  0  0  0  0  0  0  0
   23.8560   32.1460   48.3150 Cl  0  0  0  0  0  0  0  0  0  0  0  0
   25.3320   30.1220   49.3430 C   0  0  0  0  0  0  0  0  0  0  0  0
   36.1613   30.8054   46.2425 H   0  0  0  0  0  0  0  0  0  0  0  0
   34.2938   30.0777   44.6787 H   0  0  0  0  0  0  0  0  0  0  0  0
   38.5465   29.9155   48.0129 H   0  0  0  0  0  0  0  0  0  0  0  0
   37.5804   31.2620   47.4617 H   0  0  0  0  0  0  0  0  0  0  0  0
   39.0218   30.9591   50.0175 H   0  0  0  0  0  0  0  0  0  0  0  0
   37.2341   31.0308   51.6312 H   0  0  0  0  0  0  0  0  0  0  0  0
   36.0655   31.6977   50.5666 H   0  0  0  0  0  0  0  0  0  0  0  0
   35.6817   29.1950   50.5032 H   0  0  0  0  0  0  0  0  0  0  0  0
   37.3612   28.8212   50.4110 H   0  0  0  0  0  0  0  0  0  0  0  0
   30.4512   26.3813   50.2690 H   0  0  0  0  0  0  0  0  0  0  0  0
   28.3044   27.5490   50.5836 H   0  0  0  0  0  0  0  0  0  0  0  0
   28.3966   30.7375   46.9836 H   0  0  0  0  0  0  0  0  0  0  0  0
   26.3467   32.2003   46.8117 H   0  0  0  0  0  0  0  0  0  0  0  0
   24.4711   29.9511   50.0060 H   0  0  0  0  0  0  0  0  0  0  0  0
  1  6  1  0
  1  7  1  0
  2  1  2  0
  3  4  2  0
  3  2  1  0
  4  5  1  0
  5 16  1  0
  5  6  2  0
  7 11  1  0
  8  7  1  0
  8  9  1  0
  9 10  1  0
 11 10  1  0
 12  9  1  0
 12 13  1  0
 12 15  1  0
 14 12  1  0
 16 17  1  0
 17 18  2  0
 18 19  1  0
 20 19  2  0
 21 17  1  0
 21 20  1  0
 23 22  1  0
 24 20  1  0
 24 23  2  0
 25 24  1  0
 26 25  2  0
 26 27  1  0
 27 29  2  0
 28 27  1  0
 29 23  1  0
  2 30  1  0
  3 31  1  0
  8 32  1  0
  8 33  1  0
  9 34  1  1
 10 35  1  0
 10 36  1  0
 11 37  1  0
 11 38  1  0
 18 39  1  0
 19 40  1  0
 25 41  1  0
 26 42  1  0
 29 43  1  0
M  ISO  8  30  14  31  14  32  13  33  13  34  13  35  13  36  13  37  13
M  ISO  6  38  13  39  14  40  14  41  14  42  14  43  14
M  END
>  <minimizedAffinity>  (1) 
-7.0638938

>  <minimizedRMSD>  (1) 
0.792119861

$$$$
