
     RDKit          3D

 47 51  0  0  1  0  0  0  0  0999 V2000
   37.7330   30.9010   50.6680 C   0  0  0  0  0  0  0  0  0  0  0  0
   38.4530   31.5510   49.6910 C   0  0  0  0  0  0  0  0  0  0  0  0
   38.1160   31.4820   48.3300 C   0  0  0  0  0  0  0  0  0  0  0  0
   37.0680   30.7680   48.0120 N   0  0  0  0  0  0  0  0  0  0  0  0
   36.3580   30.1270   48.9960 C   0  0  0  0  0  0  0  0  0  0  0  0
   36.6800   30.1890   50.2790 N   0  0  0  0  0  0  0  0  0  0  0  0
   35.1720   29.3380   48.6600 C   0  0  0  0  0  0  0  0  0  0  0  0
   34.7490   28.1090   49.1010 C   0  0  0  0  0  0  0  0  0  0  0  0
   33.5960   27.5950   48.6400 C   0  0  0  0  0  0  0  0  0  0  0  0
   32.8850   28.3630   47.7210 C   0  0  0  0  0  0  0  0  0  0  0  0
   33.9180   29.8640   47.5230 S   0  0  0  0  0  0  0  0  0  0  0  0
   30.5130   27.8540   49.5080 Cl  0  0  0  0  0  0  0  0  0  0  0  0
   30.5020   27.9220   47.7590 C   0  0  0  0  0  0  0  0  0  0  0  0
   31.6360   28.1610   47.0140 C   0  0  0  0  0  0  0  0  0  0  0  0
   31.7370   28.2330   45.6670 C   0  0  0  0  0  0  0  0  0  0  0  0
   30.5590   28.0450   44.9290 C   0  0  0  0  0  0  0  0  0  0  0  0
   29.3650   27.7970   45.6150 C   0  0  0  0  0  0  0  0  0  0  0  0
   27.8680   27.5560   44.7230 Cl  0  0  0  0  0  0  0  0  0  0  0  0
   29.3450   27.7380   47.0100 C   0  0  0  0  0  0  0  0  0  0  0  0
   39.0320   32.1350   47.4400 C   0  0  1  0  0  0  0  0  0  0  0  0
   39.1230   31.5760   46.0360 C   0  0  2  0  0  0  0  0  0  0  0  0
   40.5870   31.2140   45.7970 C   0  0  0  0  0  0  0  0  0  0  0  0
   39.8770   32.2720   45.0230 C   0  0  1  0  0  0  0  0  0  0  0  0
   39.8170   32.0070   43.5780 C   0  0  0  0  0  0  0  0  0  0  0  0
   39.1140   32.8870   42.7980 C   0  0  0  0  0  0  0  0  0  0  0  0
   39.0980   32.6290   41.4490 C   0  0  0  0  0  0  0  0  0  0  0  0
   39.7420   31.5540   40.8700 C   0  0  0  0  0  0  0  0  0  0  0  0
   40.4390   30.6930   41.6910 C   0  0  0  0  0  0  0  0  0  0  0  0
   40.4650   30.9300   43.0160 N   0  0  0  0  0  0  0  0  0  0  0  0
   39.2800   33.4160   47.5140 O   0  0  0  0  0  0  0  0  0  0  0  0
   38.0178   30.9682   51.7284 H   0  0  0  0  0  0  0  0  0  0  0  0
   39.3274   32.1483   49.9888 H   0  0  0  0  0  0  0  0  0  0  0  0
   35.3517   27.5466   49.8293 H   0  0  0  0  0  0  0  0  0  0  0  0
   33.2305   26.6125   48.9733 H   0  0  0  0  0  0  0  0  0  0  0  0
   32.6996   28.4301   45.1726 H   0  0  0  0  0  0  0  0  0  0  0  0
   30.5737   28.0917   43.8301 H   0  0  0  0  0  0  0  0  0  0  0  0
   28.3942   27.5419   47.5272 H   0  0  0  0  0  0  0  0  0  0  0  0
   39.9085   31.7839   48.0044 H   0  0  0  0  0  0  0  0  0  0  0  0
   38.1144   31.1398   45.9875 H   0  0  0  0  0  0  0  0  0  0  0  0
   41.3563   31.4842   46.5354 H   0  0  0  0  0  0  0  0  0  0  0  0
   41.1511   30.2998   45.5604 H   0  0  0  0  0  0  0  0  0  0  0  0
   39.9459   33.3536   44.8347 H   0  0  0  0  0  0  0  0  0  0  0  0
   38.5907   33.7533   43.2288 H   0  0  0  0  0  0  0  0  0  0  0  0
   38.5418   33.3163   40.7945 H   0  0  0  0  0  0  0  0  0  0  0  0
   39.7003   31.3888   39.7833 H   0  0  0  0  0  0  0  0  0  0  0  0
   40.9664   29.8247   41.2693 H   0  0  0  0  0  0  0  0  0  0  0  0
   39.3326   33.6876   48.4646 H   0  0  0  0  0  0  0  0  0  0  0  0
  2  1  2  0
  3  2  1  0
  4  3  2  0
  4  5  1  0
  5  6  2  0
  6  1  1  0
  7  5  1  0
  7  8  2  0
  9  8  1  0
 10  9  2  0
 11 10  1  0
 11  7  1  0
 13 12  1  0
 14 10  1  0
 14 13  2  0
 15 14  1  0
 16 17  1  0
 16 15  2  0
 17 19  2  0
 18 17  1  0
 19 13  1  0
 20 30  1  0
 20  3  1  0
 21 20  1  0
 22 21  1  0
 23 22  1  0
 23 21  1  0
 24 23  1  0
 25 24  2  0
 26 25  1  0
 27 26  2  0
 27 28  1  0
 28 29  2  0
 29 24  1  0
  1 31  1  0
  2 32  1  0
  8 33  1  0
  9 34  1  0
 15 35  1  0
 16 36  1  0
 19 37  1  0
 20 38  1  1
 21 39  1  6
 22 40  1  0
 22 41  1  0
 23 42  1  6
 25 43  1  0
 26 44  1  0
 27 45  1  0
 28 46  1  0
 30 47  1  0
M  ISO  8  31  14  32  14  33  14  34  14  35  14  36  14  37  14  38   8
M  ISO  8  39  13  40  13  41  13  42  13  43  14  44  14  45  14  46  14
M  ISO  1  47   3
M  END
>  <minimizedAffinity>  (1) 
-7.07743025

>  <minimizedRMSD>  (1) 
0.408545434

$$$$
