
     RDKit          3D

 41 43  0  0  1  0  0  0  0  0999 V2000
   31.9160   26.9470   48.3420 C   0  0  1  0  0  0  0  0  0  0  0  0
   32.7040   28.2240   48.2170 C   0  0  2  0  0  0  0  0  0  0  0  0
   32.7120   28.6090   46.7710 C   0  0  0  0  0  0  0  0  0  0  0  0
   32.0270   27.7340   45.9530 O   0  0  0  0  0  0  0  0  0  0  0  0
   30.6920   27.6040   46.3330 C   0  0  0  0  0  0  0  0  0  0  0  0
   30.5240   27.2210   47.7820 C   0  0  2  0  0  0  0  0  0  0  0  0
   32.4670   25.9300   47.5520 O   0  0  0  0  0  0  0  0  0  0  0  0
   34.3850   28.0390   48.8560 S   0  0  0  0  0  0  0  0  0  0  0  0
   34.6940   29.2970   50.1300 C   0  0  0  0  0  0  0  0  0  0  0  0
   36.4050   29.4340   50.6070 S   0  0  0  0  0  0  0  0  0  0  0  0
   37.2220   30.6080   49.5380 C   0  0  0  0  0  0  0  0  0  0  0  0
   37.2630   31.8950   50.0300 C   0  0  0  0  0  0  0  0  0  0  0  0
   37.8870   32.8790   49.2500 C   0  0  0  0  0  0  0  0  0  0  0  0
   38.4220   32.5100   48.0470 N   0  0  0  0  0  0  0  0  0  0  0  0
   38.3430   31.2190   47.6260 C   0  0  0  0  0  0  0  0  0  0  0  0
   37.7600   30.2870   48.3480 N   0  0  0  0  0  0  0  0  0  0  0  0
   30.0570   28.3130   48.4990 O   0  0  0  0  0  0  0  0  0  0  0  0
   28.8840   27.0160   50.9030 Cl  0  0  0  0  0  0  0  0  0  0  0  0
   28.0900   28.1020   49.7560 C   0  0  0  0  0  0  0  0  0  0  0  0
   28.7240   28.6590   48.6590 C   0  0  0  0  0  0  0  0  0  0  0  0
   27.9940   29.4910   47.8380 C   0  0  0  0  0  0  0  0  0  0  0  0
   26.6670   29.7740   48.0850 C   0  0  0  0  0  0  0  0  0  0  0  0
   26.0800   29.1960   49.1880 C   0  0  0  0  0  0  0  0  0  0  0  0
   24.3780   29.6050   49.4370 Cl  0  0  0  0  0  0  0  0  0  0  0  0
   26.7640   28.3560   50.0420 C   0  0  0  0  0  0  0  0  0  0  0  0
   31.9118   26.6334   49.3963 H   0  0  0  0  0  0  0  0  0  0  0  0
   32.2344   29.0143   48.8211 H   0  0  0  0  0  0  0  0  0  0  0  0
   32.2521   29.6037   46.6754 H   0  0  0  0  0  0  0  0  0  0  0  0
   33.7621   28.5943   46.4438 H   0  0  0  0  0  0  0  0  0  0  0  0
   30.1847   28.5653   46.1639 H   0  0  0  0  0  0  0  0  0  0  0  0
   30.2558   26.7959   45.7274 H   0  0  0  0  0  0  0  0  0  0  0  0
   29.8396   26.3633   47.8585 H   0  0  0  0  0  0  0  0  0  0  0  0
   32.8476   25.2275   48.1366 H   0  0  0  0  0  0  0  0  0  0  0  0
   34.3632   30.2717   49.7420 H   0  0  0  0  0  0  0  0  0  0  0  0
   34.1358   28.9885   51.0262 H   0  0  0  0  0  0  0  0  0  0  0  0
   36.8193   32.1427   51.0056 H   0  0  0  0  0  0  0  0  0  0  0  0
   37.9447   33.9212   49.5970 H   0  0  0  0  0  0  0  0  0  0  0  0
   38.7793   30.9466   46.6537 H   0  0  0  0  0  0  0  0  0  0  0  0
   28.4831   29.9417   46.9618 H   0  0  0  0  0  0  0  0  0  0  0  0
   26.0958   30.4403   47.4218 H   0  0  0  0  0  0  0  0  0  0  0  0
   26.2718   27.9062   50.9168 H   0  0  0  0  0  0  0  0  0  0  0  0
  2  1  1  0
  2  8  1  0
  3  2  1  0
  4  5  1  0
  4  3  1  0
  5  6  1  0
  6  1  1  0
  6 17  1  0
  7  1  1  0
  8  9  1  0
  9 10  1  0
 11 12  2  0
 11 10  1  0
 13 12  1  0
 14 13  2  0
 15 14  1  0
 15 16  2  0
 16 11  1  0
 17 20  1  0
 19 25  2  0
 19 18  1  0
 20 19  1  0
 21 22  1  0
 21 20  2  0
 22 23  2  0
 23 24  1  0
 23 25  1  0
  1 26  1  1
  2 27  1  1
  3 28  1  0
  3 29  1  0
  5 30  1  0
  5 31  1  0
  6 32  1  6
  7 33  1  0
  9 34  1  0
  9 35  1  0
 12 36  1  0
 13 37  1  0
 15 38  1  0
 21 39  1  0
 22 40  1  0
 25 41  1  0
M  ISO  8  26  13  27  13  28  13  29  13  30  13  31  13  32  13  33   3
M  ISO  8  34   8  35   8  36  14  37  14  38  14  39  14  40  14  41  14
M  END
>  <minimizedAffinity>  (1) 
-6.14815807

>  <minimizedRMSD>  (1) 
1.49785495

$$$$
