
     RDKit          3D

 43 46  0  0  1  0  0  0  0  0999 V2000
   39.7830   31.5220   41.7180 C   0  0  2  0  0  0  0  0  0  0  0  0
   39.3850   32.6140   42.7390 C   0  0  1  0  0  0  0  0  0  0  0  0
   38.1340   33.1010   42.0840 C   0  0  0  0  0  0  0  0  0  0  0  0
   38.3350   33.0550   40.7270 O   0  0  0  0  0  0  0  0  0  0  0  0
   39.4570   32.3380   40.4480 C   0  0  0  0  0  0  0  0  0  0  0  0
   38.2480   31.2530   45.8690 C   0  0  0  0  0  0  0  0  0  0  0  0
   39.5940   31.0720   46.0020 C   0  0  0  0  0  0  0  0  0  0  0  0
   40.1410   31.5730   44.8230 C   0  0  0  0  0  0  0  0  0  0  0  0
   39.1570   32.0290   44.0350 N   0  0  0  0  0  0  0  0  0  0  0  0
   38.0020   31.8340   44.6720 N   0  0  0  0  0  0  0  0  0  0  0  0
   36.4400   30.6050   49.0870 C   0  0  0  0  0  0  0  0  0  0  0  0
   37.4370   30.9720   48.2040 C   0  0  0  0  0  0  0  0  0  0  0  0
   37.2470   30.8870   46.8440 C   0  0  0  0  0  0  0  0  0  0  0  0
   36.0440   30.4310   46.4280 N   0  0  0  0  0  0  0  0  0  0  0  0
   35.0680   30.0720   47.3120 C   0  0  0  0  0  0  0  0  0  0  0  0
   35.2490   30.1540   48.6110 N   0  0  0  0  0  0  0  0  0  0  0  0
   36.8240   30.7630   50.4240 O   0  0  0  0  0  0  0  0  0  0  0  0
   36.8750   29.6920   51.3390 C   0  0  0  0  0  0  0  0  0  0  0  0
   35.6130   29.2220   51.6710 F   0  0  0  0  0  0  0  0  0  0  0  0
   37.5580   30.0950   52.4520 F   0  0  0  0  0  0  0  0  0  0  0  0
   37.6040   28.6690   50.7600 F   0  0  0  0  0  0  0  0  0  0  0  0
   38.8750   30.5220   41.8540 O   0  0  0  0  0  0  0  0  0  0  0  0
   41.5160   28.8880   41.9830 Cl  0  0  0  0  0  0  0  0  0  0  0  0
   39.9210   28.2700   42.2970 C   0  0  0  0  0  0  0  0  0  0  0  0
   38.9270   29.2130   42.1680 C   0  0  0  0  0  0  0  0  0  0  0  0
   37.6320   28.7280   42.4180 C   0  0  0  0  0  0  0  0  0  0  0  0
   37.3700   27.4180   42.7650 C   0  0  0  0  0  0  0  0  0  0  0  0
   38.4280   26.5350   42.8730 C   0  0  0  0  0  0  0  0  0  0  0  0
   38.2060   24.8580   43.3040 Cl  0  0  0  0  0  0  0  0  0  0  0  0
   39.7130   26.9650   42.6360 C   0  0  0  0  0  0  0  0  0  0  0  0
   40.7895   31.0816   41.7730 H   0  0  0  0  0  0  0  0  0  0  0  0
   40.1258   33.4024   42.9381 H   0  0  0  0  0  0  0  0  0  0  0  0
   37.2886   32.4540   42.3608 H   0  0  0  0  0  0  0  0  0  0  0  0
   37.9010   34.1264   42.4070 H   0  0  0  0  0  0  0  0  0  0  0  0
   39.2752   31.6629   39.5988 H   0  0  0  0  0  0  0  0  0  0  0  0
   40.2931   32.9982   40.1738 H   0  0  0  0  0  0  0  0  0  0  0  0
   40.1298   30.6277   46.8538 H   0  0  0  0  0  0  0  0  0  0  0  0
   41.2130   31.5916   44.5770 H   0  0  0  0  0  0  0  0  0  0  0  0
   38.3980   31.3380   48.5944 H   0  0  0  0  0  0  0  0  0  0  0  0
   34.1052   29.7046   46.9272 H   0  0  0  0  0  0  0  0  0  0  0  0
   36.7862   29.4261   42.3330 H   0  0  0  0  0  0  0  0  0  0  0  0
   36.3390   27.0831   42.9520 H   0  0  0  0  0  0  0  0  0  0  0  0
   40.5596   26.2675   42.7185 H   0  0  0  0  0  0  0  0  0  0  0  0
  1 22  1  0
  1  2  1  0
  2  9  1  0
  3  2  1  0
  4  3  1  0
  5  4  1  0
  5  1  1  0
  6  7  1  0
  6 13  1  0
  8  7  2  0
  9 10  1  0
  9  8  1  0
 10  6  2  0
 11 17  1  0
 12 11  2  0
 13 12  1  0
 14 13  2  0
 14 15  1  0
 15 16  2  0
 16 11  1  0
 17 18  1  0
 18 19  1  0
 18 20  1  0
 21 18  1  0
 22 25  1  0
 23 24  1  0
 24 30  2  0
 25 24  1  0
 25 26  2  0
 26 27  1  0
 27 28  2  0
 28 29  1  0
 30 28  1  0
  1 31  1  6
  2 32  1  1
  3 33  1  0
  3 34  1  0
  5 35  1  0
  5 36  1  0
  7 37  1  0
  8 38  1  0
 12 39  1  0
 15 40  1  0
 26 41  1  0
 27 42  1  0
 30 43  1  0
M  ISO  8  31  13  32  13  33  13  34  13  35  13  36  13  37  14  38  14
M  ISO  5  39  14  40  14  41  14  42  14  43  14
M  END
>  <minimizedAffinity>  (1) 
-6.59448957

>  <minimizedRMSD>  (1) 
0.863039196

$$$$
