
     RDKit          3D

 41 44  0  0  0  0  0  0  0  0999 V2000
   32.4700   27.0560   48.0790 O   0  0  0  0  0  0  0  0  0  0  0  0
   31.1470   27.4540   48.2760 C   0  0  0  0  0  0  0  0  0  0  0  0
   30.8300   27.7640   49.5800 C   0  0  0  0  0  0  0  0  0  0  0  0
   29.5570   28.1720   49.9120 C   0  0  0  0  0  0  0  0  0  0  0  0
   28.5900   28.2650   48.8970 C   0  0  0  0  0  0  0  0  0  0  0  0
   28.9220   27.9520   47.6010 C   0  0  0  0  0  0  0  0  0  0  0  0
   30.1880   27.5510   47.3000 C   0  0  0  0  0  0  0  0  0  0  0  0
   30.5430   30.0340   45.7820 Cl  0  0  0  0  0  0  0  0  0  0  0  0
   30.7190   28.3890   45.1900 C   0  0  0  0  0  0  0  0  0  0  0  0
   30.5430   27.2130   45.9270 C   0  0  0  0  0  0  0  0  0  0  0  0
   30.7240   26.0040   45.2900 C   0  0  0  0  0  0  0  0  0  0  0  0
   31.0700   25.9780   43.9560 C   0  0  0  0  0  0  0  0  0  0  0  0
   31.2460   27.1190   43.2190 C   0  0  0  0  0  0  0  0  0  0  0  0
   31.6840   26.9120   41.5340 Cl  0  0  0  0  0  0  0  0  0  0  0  0
   31.0690   28.3340   43.8380 C   0  0  0  0  0  0  0  0  0  0  0  0
   35.4000   28.8450   49.1500 C   0  0  0  0  0  0  0  0  0  0  0  0
   35.3350   30.0280   48.4100 C   0  0  0  0  0  0  0  0  0  0  0  0
   34.2610   30.1860   47.5410 C   0  0  0  0  0  0  0  0  0  0  0  0
   33.3380   29.1850   47.4610 N   0  0  0  0  0  0  0  0  0  0  0  0
   33.4240   28.0660   48.1780 C   0  0  0  0  0  0  0  0  0  0  0  0
   34.4670   27.8830   49.0390 N   0  0  0  0  0  0  0  0  0  0  0  0
   36.3630   30.9940   48.5840 N   0  0  0  0  0  0  0  0  0  0  0  0
   36.5220   31.6680   49.7190 C   0  0  0  0  0  0  0  0  0  0  0  0
   37.5520   32.5970   49.8130 C   0  0  0  0  0  0  0  0  0  0  0  0
   38.3310   32.7440   48.7120 C   0  0  0  0  0  0  0  0  0  0  0  0
   39.2690   33.5900   48.7980 O   0  0  0  0  0  0  0  0  0  0  0  0
   38.2020   32.0880   47.5610 N   0  0  0  0  0  0  0  0  0  0  0  0
   37.1860   31.1860   47.4980 C   0  0  0  0  0  0  0  0  0  0  0  0
   37.0490   30.5500   46.4060 O   0  0  0  0  0  0  0  0  0  0  0  0
   31.5993   27.6851   50.3623 H   0  0  0  0  0  0  0  0  0  0  0  0
   29.3021   28.4205   50.9528 H   0  0  0  0  0  0  0  0  0  0  0  0
   27.5671   28.5884   49.1399 H   0  0  0  0  0  0  0  0  0  0  0  0
   28.1649   28.0254   46.8064 H   0  0  0  0  0  0  0  0  0  0  0  0
   30.5927   25.0631   45.8445 H   0  0  0  0  0  0  0  0  0  0  0  0
   31.2101   25.0039   43.4646 H   0  0  0  0  0  0  0  0  0  0  0  0
   31.2032   29.2650   43.2677 H   0  0  0  0  0  0  0  0  0  0  0  0
   36.2398   28.6958   49.8446 H   0  0  0  0  0  0  0  0  0  0  0  0
   34.1582   31.0966   46.9326 H   0  0  0  0  0  0  0  0  0  0  0  0
   35.8486   31.4932   50.5710 H   0  0  0  0  0  0  0  0  0  0  0  0
   37.7257   33.1805   50.7292 H   0  0  0  0  0  0  0  0  0  0  0  0
   38.8343   32.2537   46.7650 H   0  0  0  0  0  0  0  0  0  0  0  0
  1 20  1  0
  1  2  1  0
  2  3  2  0
  3  4  1  0
  5  4  2  0
  6  5  1  0
  7  6  2  0
  7  2  1  0
  9  8  1  0
  9 10  2  0
 10  7  1  0
 11 10  1  0
 12 11  2  0
 13 15  2  0
 13 12  1  0
 14 13  1  0
 15  9  1  0
 17 22  1  0
 17 16  2  0
 18 17  1  0
 19 18  2  0
 19 20  1  0
 20 21  2  0
 21 16  1  0
 22 23  1  0
 23 24  2  0
 25 26  2  0
 25 24  1  0
 27 25  1  0
 28 27  1  0
 28 22  1  0
 29 28  2  0
  3 30  1  0
  4 31  1  0
  5 32  1  0
  6 33  1  0
 11 34  1  0
 12 35  1  0
 15 36  1  0
 16 37  1  0
 18 38  1  0
 23 39  1  0
 24 40  1  0
 27 41  1  0
M  ISO  8  30  14  31  14  32  14  33  14  34  14  35  14  36  14  37  14
M  ISO  4  38  14  39  14  40  14  41   9
M  END
>  <minimizedAffinity>  (1) 
-5.9170928

>  <minimizedRMSD>  (1) 
0.465705305

$$$$
