
     RDKit          3D

 36 38  0  0  0  0  0  0  0  0999 V2000
   35.3590   29.2680   50.4480 C   0  0  0  0  0  0  0  0  0  0  0  0
   36.2910   30.0950   49.7640 C   0  0  0  0  0  0  0  0  0  0  0  0
   36.1890   30.1880   48.3860 C   0  0  0  0  0  0  0  0  0  0  0  0
   35.2200   29.5030   47.7390 N   0  0  0  0  0  0  0  0  0  0  0  0
   34.3510   28.7280   48.3990 C   0  0  0  0  0  0  0  0  0  0  0  0
   34.4130   28.6090   49.7260 N   0  0  0  0  0  0  0  0  0  0  0  0
   32.6370   30.3870   46.5550 Cl  0  0  0  0  0  0  0  0  0  0  0  0
   32.4760   28.6420   46.7680 C   0  0  0  0  0  0  0  0  0  0  0  0
   33.3290   27.9910   47.6440 C   0  0  0  0  0  0  0  0  0  0  0  0
   33.2530   26.6070   47.8410 C   0  0  0  0  0  0  0  0  0  0  0  0
   32.2740   25.9360   47.1090 C   0  0  0  0  0  0  0  0  0  0  0  0
   31.4280   26.5650   46.2460 C   0  0  0  0  0  0  0  0  0  0  0  0
   30.2380   25.6070   45.3960 Cl  0  0  0  0  0  0  0  0  0  0  0  0
   31.5360   27.9340   46.0790 C   0  0  0  0  0  0  0  0  0  0  0  0
   30.6290   28.6370   45.1450 C   0  0  0  0  0  0  0  0  0  0  0  0
   29.6000   27.7800   44.7350 F   0  0  0  0  0  0  0  0  0  0  0  0
   31.2760   29.1580   44.0800 F   0  0  0  0  0  0  0  0  0  0  0  0
   30.0030   29.6840   45.8060 F   0  0  0  0  0  0  0  0  0  0  0  0
   35.9790   30.0570   45.3130 Cl  0  0  0  0  0  0  0  0  0  0  0  0
   37.2000   31.0450   46.1350 C   0  0  0  0  0  0  0  0  0  0  0  0
   37.0190   30.9600   47.4920 C   0  0  0  0  0  0  0  0  0  0  0  0
   37.8910   31.6900   48.3180 C   0  0  0  0  0  0  0  0  0  0  0  0
   38.9180   32.4850   47.7880 C   0  0  0  0  0  0  0  0  0  0  0  0
   39.0630   32.5400   46.3990 C   0  0  0  0  0  0  0  0  0  0  0  0
   40.2990   33.4730   45.5670 Cl  0  0  0  0  0  0  0  0  0  0  0  0
   38.1950   31.8140   45.5750 C   0  0  0  0  0  0  0  0  0  0  0  0
   37.3150   30.8410   50.5500 C   0  0  0  0  0  0  0  0  0  0  0  0
   38.5920   30.5780   50.1000 F   0  0  0  0  0  0  0  0  0  0  0  0
   37.0870   32.1990   50.4120 F   0  0  0  0  0  0  0  0  0  0  0  0
   37.2470   30.5440   51.8970 F   0  0  0  0  0  0  0  0  0  0  0  0
   35.4020   29.1627   51.5421 H   0  0  0  0  0  0  0  0  0  0  0  0
   33.9263   26.0797   48.5328 H   0  0  0  0  0  0  0  0  0  0  0  0
   32.1803   24.8472   47.2343 H   0  0  0  0  0  0  0  0  0  0  0  0
   37.7647   31.6364   49.4094 H   0  0  0  0  0  0  0  0  0  0  0  0
   39.5918   33.0505   48.4485 H   0  0  0  0  0  0  0  0  0  0  0  0
   38.3078   31.8579   44.4817 H   0  0  0  0  0  0  0  0  0  0  0  0
  2  1  2  0
  2 27  1  0
  3  2  1  0
  4  3  2  0
  4  5  1  0
  5  6  2  0
  6  1  1  0
  7  8  1  0
  8  9  2  0
  9 10  1  0
  9  5  1  0
 11 10  2  0
 12 11  1  0
 13 12  1  0
 14 12  2  0
 14  8  1  0
 15 18  1  0
 15 14  1  0
 16 15  1  0
 17 15  1  0
 19 20  1  0
 20 21  2  0
 21 22  1  0
 21  3  1  0
 23 22  2  0
 24 23  1  0
 25 24  1  0
 26 20  1  0
 26 24  2  0
 27 30  1  0
 28 27  1  0
 29 27  1  0
  1 31  1  0
 10 32  1  0
 11 33  1  0
 22 34  1  0
 23 35  1  0
 26 36  1  0
M  ISO  6  31  14  32  14  33  14  34  14  35  14  36  14
M  END
>  <minimizedAffinity>  (1) 
-7.40269756

>  <minimizedRMSD>  (1) 
0.209560111

$$$$
