
     RDKit          3D

 33 35  0  0  0  0  0  0  0  0999 V2000
   32.6500   27.4760   48.3630 C   0  0  0  0  0  0  0  0  0  0  0  0
   32.1630   26.2930   47.8290 C   0  0  0  0  0  0  0  0  0  0  0  0
   30.7900   26.3450   47.6840 C   0  0  0  0  0  0  0  0  0  0  0  0
   30.4840   27.5740   48.1430 N   0  0  0  0  0  0  0  0  0  0  0  0
   31.5510   28.2450   48.5410 N   0  0  0  0  0  0  0  0  0  0  0  0
   29.1510   26.9610   50.6920 Cl  0  0  0  0  0  0  0  0  0  0  0  0
   28.5760   28.0570   49.4630 C   0  0  0  0  0  0  0  0  0  0  0  0
   29.2630   28.2930   48.2850 C   0  0  0  0  0  0  0  0  0  0  0  0
   28.7610   29.1800   47.3300 C   0  0  0  0  0  0  0  0  0  0  0  0
   27.5660   29.8340   47.5560 C   0  0  0  0  0  0  0  0  0  0  0  0
   26.8720   29.6020   48.7340 C   0  0  0  0  0  0  0  0  0  0  0  0
   25.3510   30.4610   48.9760 Cl  0  0  0  0  0  0  0  0  0  0  0  0
   27.3710   28.7180   49.6860 C   0  0  0  0  0  0  0  0  0  0  0  0
   34.1060   27.7570   48.6520 C   0  0  0  0  0  0  0  0  0  0  0  0
   34.1350   28.6780   49.8310 C   0  0  0  0  0  0  0  0  0  0  0  0
   37.2690   30.0170   51.2680 C   0  0  0  0  0  0  0  0  0  0  0  0
   38.0020   30.3980   50.1350 C   0  0  0  0  0  0  0  0  0  0  0  0
   37.3950   30.1840   48.8730 C   0  0  0  0  0  0  0  0  0  0  0  0
   36.1610   29.6340   48.8200 N   0  0  0  0  0  0  0  0  0  0  0  0
   35.5040   29.2860   49.9570 C   0  0  0  0  0  0  0  0  0  0  0  0
   36.0570   29.4790   51.1480 N   0  0  0  0  0  0  0  0  0  0  0  0
   32.7864   25.4285   47.5571 H   0  0  0  0  0  0  0  0  0  0  0  0
   30.1130   25.5725   47.2904 H   0  0  0  0  0  0  0  0  0  0  0  0
   29.3175   29.3576   46.3979 H   0  0  0  0  0  0  0  0  0  0  0  0
   27.1674   30.5340   46.8070 H   0  0  0  0  0  0  0  0  0  0  0  0
   26.8121   28.5411   50.6168 H   0  0  0  0  0  0  0  0  0  0  0  0
   34.6341   26.8213   48.8876 H   0  0  0  0  0  0  0  0  0  0  0  0
   34.6043   28.2090   47.7817 H   0  0  0  0  0  0  0  0  0  0  0  0
   33.3907   29.4758   49.6917 H   0  0  0  0  0  0  0  0  0  0  0  0
   33.8990   28.1125   50.7445 H   0  0  0  0  0  0  0  0  0  0  0  0
   37.7008   30.1645   52.2689 H   0  0  0  0  0  0  0  0  0  0  0  0
   39.0040   30.8434   50.2222 H   0  0  0  0  0  0  0  0  0  0  0  0
   37.9211   30.4618   47.9478 H   0  0  0  0  0  0  0  0  0  0  0  0
  1  5  2  0
  1 14  1  0
  2  1  1  0
  3  2  2  0
  3  4  1  0
  4  8  1  0
  4  5  1  0
  7 13  2  0
  7  6  1  0
  8  7  1  0
  9 10  1  0
  9  8  2  0
 10 11  2  0
 11 12  1  0
 11 13  1  0
 14 15  1  0
 15 20  1  0
 17 16  2  0
 18 17  1  0
 19 18  2  0
 19 20  1  0
 20 21  2  0
 21 16  1  0
  2 22  1  0
  3 23  1  0
  9 24  1  0
 10 25  1  0
 13 26  1  0
 14 27  1  0
 14 28  1  0
 15 29  1  0
 15 30  1  0
 16 31  1  0
 17 32  1  0
 18 33  1  0
M  ISO  8  22  14  23  14  24  14  25  14  26  14  27   8  28   8  29   8
M  ISO  4  30   8  31  14  32  14  33  14
M  END
>  <minimizedAffinity>  (1) 
-5.97269487

>  <minimizedRMSD>  (1) 
2.57635689

$$$$
