
     RDKit          3D

 30 32  0  0  0  0  0  0  0  0999 V2000
   37.2110   31.3450   49.3030 C   0  0  0  0  0  0  0  0  0  0  0  0
   37.4140   32.6200   49.8340 C   0  0  0  0  0  0  0  0  0  0  0  0
   38.3190   33.4110   49.1620 C   0  0  0  0  0  0  0  0  0  0  0  0
   38.9560   32.9250   48.0450 N   0  0  0  0  0  0  0  0  0  0  0  0
   38.7230   31.6720   47.5670 C   0  0  0  0  0  0  0  0  0  0  0  0
   37.8290   30.8610   48.2120 N   0  0  0  0  0  0  0  0  0  0  0  0
   36.2020   30.4600   49.9930 C   0  0  0  0  0  0  0  0  0  0  0  0
   36.1840   29.0280   49.8500 C   0  0  0  0  0  0  0  0  0  0  0  0
   36.8250   29.6000   51.1020 C   0  0  0  0  0  0  0  0  0  0  0  0
   39.3810   31.1490   46.3720 C   0  0  0  0  0  0  0  0  0  0  0  0
   40.0660   33.6590   44.7620 Cl  0  0  0  0  0  0  0  0  0  0  0  0
   38.8240   32.4770   44.4050 C   0  0  0  0  0  0  0  0  0  0  0  0
   38.5310   31.3500   45.1450 C   0  0  0  0  0  0  0  0  0  0  0  0
   37.5170   30.5180   44.7250 C   0  0  0  0  0  0  0  0  0  0  0  0
   36.8000   30.7870   43.5930 C   0  0  0  0  0  0  0  0  0  0  0  0
   37.0850   31.9250   42.8340 C   0  0  0  0  0  0  0  0  0  0  0  0
   36.1390   32.2270   41.3930 Cl  0  0  0  0  0  0  0  0  0  0  0  0
   38.1030   32.7720   43.2440 C   0  0  0  0  0  0  0  0  0  0  0  0
   36.8846   32.9706   50.7322 H   0  0  0  0  0  0  0  0  0  0  0  0
   38.5318   34.4297   49.5183 H   0  0  0  0  0  0  0  0  0  0  0  0
   35.3947   31.1965   49.8670 H   0  0  0  0  0  0  0  0  0  0  0  0
   35.2296   28.4865   49.9275 H   0  0  0  0  0  0  0  0  0  0  0  0
   36.5251   28.3352   49.0666 H   0  0  0  0  0  0  0  0  0  0  0  0
   37.9160   29.5660   51.2383 H   0  0  0  0  0  0  0  0  0  0  0  0
   36.6998   29.4836   52.1886 H   0  0  0  0  0  0  0  0  0  0  0  0
   40.3391   31.6713   46.2333 H   0  0  0  0  0  0  0  0  0  0  0  0
   39.5416   30.0695   46.5092 H   0  0  0  0  0  0  0  0  0  0  0  0
   37.2794   29.6189   45.3125 H   0  0  0  0  0  0  0  0  0  0  0  0
   35.9960   30.1054   43.2784 H   0  0  0  0  0  0  0  0  0  0  0  0
   38.3424   33.6720   42.6586 H   0  0  0  0  0  0  0  0  0  0  0  0
  1  2  2  0
  1  7  1  0
  3  2  1  0
  4  3  2  0
  5  4  1  0
  5  6  2  0
  6  1  1  0
  7  9  1  0
  8  7  1  0
  8  9  1  0
 10  5  1  0
 12 11  1  0
 12 13  2  0
 13 10  1  0
 14 13  1  0
 15 14  2  0
 16 18  2  0
 16 15  1  0
 17 16  1  0
 18 12  1  0
  2 19  1  0
  3 20  1  0
  7 21  1  0
  8 22  1  0
  8 23  1  0
  9 24  1  0
  9 25  1  0
 10 26  1  0
 10 27  1  0
 14 28  1  0
 15 29  1  0
 18 30  1  0
M  ISO  8  19  14  20  14  21  13  22  13  23  13  24  13  25  13  26   8
M  ISO  4  27   8  28  14  29  14  30  14
M  END
>  <minimizedAffinity>  (1) 
-5.73426056

>  <minimizedRMSD>  (1) 
1.11308861

$$$$
