
     RDKit          3D

 47 51  0  0  1  0  0  0  0  0999 V2000
   39.5400   33.5400   43.4600 O   0  0  0  0  0  0  0  0  0  0  0  0
   36.1920   30.2330   47.0100 C   0  0  0  0  0  0  0  0  0  0  0  0
   37.0400   30.7370   47.9810 C   0  0  0  0  0  0  0  0  0  0  0  0
   38.0650   31.6230   47.6320 C   0  0  0  0  0  0  0  0  0  0  0  0
   38.1600   31.9440   46.2820 C   0  0  0  0  0  0  0  0  0  0  0  0
   39.0830   32.7820   45.6940 N   0  0  0  0  0  0  0  0  0  0  0  0
   38.8030   32.7910   44.3840 C   0  0  0  0  0  0  0  0  0  0  0  0
   37.7710   32.0130   44.1510 N   0  0  0  0  0  0  0  0  0  0  0  0
   37.3400   31.4650   45.2990 C   0  0  0  0  0  0  0  0  0  0  0  0
   36.3270   30.5850   45.6730 C   0  0  0  0  0  0  0  0  0  0  0  0
   37.3930   30.0720   51.6540 C   0  0  0  0  0  0  0  0  0  0  0  0
   37.7270   30.5340   50.3880 C   0  0  0  0  0  0  0  0  0  0  0  0
   36.8360   30.3230   49.3530 C   0  0  0  0  0  0  0  0  0  0  0  0
   35.6670   29.6660   49.6440 N   0  0  0  0  0  0  0  0  0  0  0  0
   35.3640   29.2280   50.8810 C   0  0  0  0  0  0  0  0  0  0  0  0
   36.2240   29.4330   51.8690 N   0  0  0  0  0  0  0  0  0  0  0  0
   39.6990   31.6090   42.2090 N   0  0  0  0  0  0  0  0  0  0  0  0
   39.5520   33.0650   42.1220 C   0  0  1  0  0  0  0  0  0  0  0  0
   38.2860   33.3580   41.4630 C   0  0  0  0  0  0  0  0  0  0  0  0
   38.3510   32.9050   40.1400 O   0  0  0  0  0  0  0  0  0  0  0  0
   38.6290   31.5590   40.0100 C   0  0  0  0  0  0  0  0  0  0  0  0
   39.8310   31.1560   40.8590 C   0  0  2  0  0  0  0  0  0  0  0  0
   39.1350   28.9040   43.1510 Cl  0  0  0  0  0  0  0  0  0  0  0  0
   39.7450   28.5930   41.5480 C   0  0  0  0  0  0  0  0  0  0  0  0
   39.9720   29.7050   40.7800 C   0  0  0  0  0  0  0  0  0  0  0  0
   40.4770   29.3300   39.5160 C   0  0  0  0  0  0  0  0  0  0  0  0
   40.7190   28.0240   39.0850 C   0  0  0  0  0  0  0  0  0  0  0  0
   40.4520   27.0020   39.9430 C   0  0  0  0  0  0  0  0  0  0  0  0
   40.7150   25.3300   39.5130 Cl  0  0  0  0  0  0  0  0  0  0  0  0
   39.9620   27.2930   41.1820 C   0  0  0  0  0  0  0  0  0  0  0  0
   35.3923   29.5373   47.3040 H   0  0  0  0  0  0  0  0  0  0  0  0
   38.7545   32.0407   48.3804 H   0  0  0  0  0  0  0  0  0  0  0  0
   39.8378   33.2985   46.1676 H   0  0  0  0  0  0  0  0  0  0  0  0
   35.6414   30.1733   44.9178 H   0  0  0  0  0  0  0  0  0  0  0  0
   38.0891   30.2286   52.4912 H   0  0  0  0  0  0  0  0  0  0  0  0
   38.6792   31.0561   50.2129 H   0  0  0  0  0  0  0  0  0  0  0  0
   34.4141   28.7063   51.0694 H   0  0  0  0  0  0  0  0  0  0  0  0
   40.5377   31.3640   42.7544 H   0  0  0  0  0  0  0  0  0  0  0  0
   40.3615   33.5416   41.5497 H   0  0  0  0  0  0  0  0  0  0  0  0
   37.4676   32.8452   41.9896 H   0  0  0  0  0  0  0  0  0  0  0  0
   38.0986   34.4418   41.4783 H   0  0  0  0  0  0  0  0  0  0  0  0
   37.7518   30.9792   40.3330 H   0  0  0  0  0  0  0  0  0  0  0  0
   38.8647   31.3537   38.9553 H   0  0  0  0  0  0  0  0  0  0  0  0
   40.7417   31.6360   40.4714 H   0  0  0  0  0  0  0  0  0  0  0  0
   40.7001   30.1402   38.8062 H   0  0  0  0  0  0  0  0  0  0  0  0
   41.1152   27.8264   38.0780 H   0  0  0  0  0  0  0  0  0  0  0  0
   39.7406   26.4799   41.8891 H   0  0  0  0  0  0  0  0  0  0  0  0
  1  7  1  0
  2  3  2  0
  3 13  1  0
  4  3  1  0
  5  4  2  0
  6  5  1  0
  7  6  1  0
  8  7  2  0
  8  9  1  0
  9 10  2  0
  9  5  1  0
 10  2  1  0
 11 16  2  0
 12 11  1  0
 13 14  1  0
 13 12  2  0
 14 15  2  0
 15 16  1  0
 18 17  1  0
 18  1  1  0
 19 18  1  0
 20 19  1  0
 21 20  1  0
 21 22  1  0
 22 17  1  0
 24 23  1  0
 25 22  1  0
 25 24  2  0
 26 25  1  0
 27 26  2  0
 27 28  1  0
 28 30  2  0
 29 28  1  0
 30 24  1  0
  2 31  1  0
  4 32  1  0
  6 33  1  0
 10 34  1  0
 11 35  1  0
 12 36  1  0
 15 37  1  0
 17 38  1  0
 18 39  1  6
 19 40  1  0
 19 41  1  0
 21 42  1  0
 21 43  1  0
 22 44  1  6
 26 45  1  0
 27 46  1  0
 30 47  1  0
M  ISO  8  31  14  32  14  33   9  34  14  35  14  36  14  37  14  38   5
M  ISO  8  39  13  40  13  41  13  42  13  43  13  44  13  45  14  46  14
M  ISO  1  47  14
M  END
>  <minimizedAffinity>  (1) 
-6.32661009

>  <minimizedRMSD>  (1) 
0.745234668

$$$$
