
     RDKit          3D

 44 47  0  0  0  0  0  0  0  0999 V2000
   34.4100   27.7700   49.5140 Cl  0  0  0  0  0  0  0  0  0  0  0  0
   33.7540   28.6340   48.1550 C   0  0  0  0  0  0  0  0  0  0  0  0
   34.3260   29.8310   47.7900 C   0  0  0  0  0  0  0  0  0  0  0  0
   33.8380   30.5430   46.7240 C   0  0  0  0  0  0  0  0  0  0  0  0
   32.7610   30.0810   45.9870 C   0  0  0  0  0  0  0  0  0  0  0  0
   32.1820   28.8820   46.3470 C   0  0  0  0  0  0  0  0  0  0  0  0
   30.8110   28.2110   45.4760 Cl  0  0  0  0  0  0  0  0  0  0  0  0
   32.6970   28.1980   47.4190 C   0  0  0  0  0  0  0  0  0  0  0  0
   33.6760   29.4030   43.1530 Cl  0  0  0  0  0  0  0  0  0  0  0  0
   32.5410   30.6650   43.5160 C   0  0  0  0  0  0  0  0  0  0  0  0
   32.2380   30.8370   44.8520 C   0  0  0  0  0  0  0  0  0  0  0  0
   31.3470   31.8140   45.2500 C   0  0  0  0  0  0  0  0  0  0  0  0
   30.7300   32.6490   44.3390 C   0  0  0  0  0  0  0  0  0  0  0  0
   31.0450   32.4630   42.9960 C   0  0  0  0  0  0  0  0  0  0  0  0
   30.2880   33.4990   41.8000 Cl  0  0  0  0  0  0  0  0  0  0  0  0
   31.9390   31.4860   42.5790 C   0  0  0  0  0  0  0  0  0  0  0  0
   36.6280   30.6290   50.5250 C   0  0  0  0  0  0  0  0  0  0  0  0
   37.6390   31.3520   49.8940 C   0  0  0  0  0  0  0  0  0  0  0  0
   37.5100   31.5550   48.5300 C   0  0  0  0  0  0  0  0  0  0  0  0
   36.4220   31.0440   47.8920 N   0  0  0  0  0  0  0  0  0  0  0  0
   35.4680   30.3490   48.5490 C   0  0  0  0  0  0  0  0  0  0  0  0
   35.5910   30.1560   49.8530 N   0  0  0  0  0  0  0  0  0  0  0  0
   38.5040   32.3010   47.7390 C   0  0  0  0  0  0  0  0  0  0  0  0
   39.2040   33.3830   48.2140 C   0  0  0  0  0  0  0  0  0  0  0  0
   40.0420   33.8650   47.2740 N   0  0  0  0  0  0  0  0  0  0  0  0
   39.8760   33.0850   46.1950 C   0  0  0  0  0  0  0  0  0  0  0  0
   38.9480   32.1530   46.5000 N   0  0  0  0  0  0  0  0  0  0  0  0
   40.6080   31.8470   44.2290 C   0  0  0  0  0  0  0  0  0  0  0  0
   40.2000   30.8030   44.7530 O   0  0  0  0  0  0  0  0  0  0  0  0
   40.4820   33.1050   44.9100 N   0  0  0  0  0  0  0  0  0  0  0  0
   32.0730   26.9010   47.8090 C   0  0  0  0  0  0  0  0  0  0  0  0
   33.0440   25.9010   47.8860 F   0  0  0  0  0  0  0  0  0  0  0  0
   31.2120   26.4550   46.7870 F   0  0  0  0  0  0  0  0  0  0  0  0
   31.3220   26.9920   48.9490 F   0  0  0  0  0  0  0  0  0  0  0  0
   34.3106   31.4977   46.4499 H   0  0  0  0  0  0  0  0  0  0  0  0
   31.1227   31.9303   46.3206 H   0  0  0  0  0  0  0  0  0  0  0  0
   30.0212   33.4264   44.6605 H   0  0  0  0  0  0  0  0  0  0  0  0
   32.1674   31.3653   41.5098 H   0  0  0  0  0  0  0  0  0  0  0  0
   36.6939   30.4473   51.6079 H   0  0  0  0  0  0  0  0  0  0  0  0
   38.5007   31.7438   50.4543 H   0  0  0  0  0  0  0  0  0  0  0  0
   39.0955   33.8005   49.2259 H   0  0  0  0  0  0  0  0  0  0  0  0
   40.6798   34.6685   47.3656 H   0  0  0  0  0  0  0  0  0  0  0  0
   41.0716   31.8112   43.2321 H   0  0  0  0  0  0  0  0  0  0  0  0
   40.8159   33.9823   44.4860 H   0  0  0  0  0  0  0  0  0  0  0  0
  2  1  1  0
  3  2  2  0
  3 21  1  0
  4  3  1  0
  5  6  1  0
  5  4  2  0
  6  8  2  0
  7  6  1  0
  8 31  1  0
  8  2  1  0
  9 10  1  0
 10 11  2  0
 11 12  1  0
 11  5  1  0
 13 12  2  0
 14 13  1  0
 15 14  1  0
 16 14  2  0
 16 10  1  0
 18 17  2  0
 19 18  1  0
 20 19  2  0
 20 21  1  0
 21 22  2  0
 22 17  1  0
 23 24  2  0
 23 19  1  0
 25 24  1  0
 26 27  2  0
 26 25  1  0
 27 23  1  0
 28 29  2  0
 28 30  1  0
 30 26  1  0
 31 32  1  0
 31 34  1  0
 33 31  1  0
  4 35  1  0
 12 36  1  0
 13 37  1  0
 16 38  1  0
 17 39  1  0
 18 40  1  0
 24 41  1  0
 25 42  1  0
 28 43  1  0
 30 44  1  0
M  END
>  <minimizedAffinity>  (1) 
-7.02075148

>  <minimizedRMSD>  (1) 
0.4947505

$$$$
