
     RDKit          3D

 46 49  0  0  1  0  0  0  0  0999 V2000
   35.2780   30.4160   49.9810 C   0  0  2  0  0  0  0  0  0  0  0  0
   36.1760   31.2720   49.1760 C   0  0  0  0  0  0  0  0  0  0  0  0
   37.6360   30.7840   49.1930 C   0  0  2  0  0  0  0  0  0  0  0  0
   38.2060   30.6450   50.5320 C   0  0  0  0  0  0  0  0  0  0  0  0
   37.2090   30.1190   51.5660 C   0  0  0  0  0  0  0  0  0  0  0  0
   36.0240   29.4740   50.9010 C   0  0  0  0  0  0  0  0  0  0  0  0
   37.7540   30.3490   46.2800 Cl  0  0  0  0  0  0  0  0  0  0  0  0
   38.5110   31.7310   47.0570 C   0  0  0  0  0  0  0  0  0  0  0  0
   38.3650   31.8410   48.4290 C   0  0  0  0  0  0  0  0  0  0  0  0
   38.9870   32.9640   48.9470 C   0  0  0  0  0  0  0  0  0  0  0  0
   39.6760   33.8670   48.1620 C   0  0  0  0  0  0  0  0  0  0  0  0
   39.7720   33.6770   46.7870 C   0  0  0  0  0  0  0  0  0  0  0  0
   39.1610   32.5630   46.2220 C   0  0  0  0  0  0  0  0  0  0  0  0
   41.4650   30.8600   45.5840 Cl  0  0  0  0  0  0  0  0  0  0  0  0
   40.3370   31.5650   44.4230 C   0  0  0  0  0  0  0  0  0  0  0  0
   39.2620   32.3650   44.7800 C   0  0  0  0  0  0  0  0  0  0  0  0
   38.4250   32.8780   43.8040 C   0  0  0  0  0  0  0  0  0  0  0  0
   38.7210   32.5520   42.4950 C   0  0  0  0  0  0  0  0  0  0  0  0
   39.7850   31.7600   42.1300 C   0  0  0  0  0  0  0  0  0  0  0  0
   40.0870   31.3980   40.4440 Cl  0  0  0  0  0  0  0  0  0  0  0  0
   40.5990   31.2630   43.1110 C   0  0  0  0  0  0  0  0  0  0  0  0
   34.3600   29.6060   49.1690 C   0  0  0  0  0  0  0  0  0  0  0  0
   34.3320   29.9270   47.8090 C   0  0  0  0  0  0  0  0  0  0  0  0
   33.4870   29.1740   46.9830 C   0  0  0  0  0  0  0  0  0  0  0  0
   32.7270   28.1560   47.5490 N   0  0  0  0  0  0  0  0  0  0  0  0
   32.7880   27.8860   48.8650 C   0  0  0  0  0  0  0  0  0  0  0  0
   33.5990   28.6140   49.6370 N   0  0  0  0  0  0  0  0  0  0  0  0
   34.7004   31.1392   50.5755 H   0  0  0  0  0  0  0  0  0  0  0  0
   36.1422   32.2947   49.5796 H   0  0  0  0  0  0  0  0  0  0  0  0
   35.8253   31.2336   48.1341 H   0  0  0  0  0  0  0  0  0  0  0  0
   37.7127   29.7735   48.7651 H   0  0  0  0  0  0  0  0  0  0  0  0
   39.0542   29.9466   50.4789 H   0  0  0  0  0  0  0  0  0  0  0  0
   38.5135   31.6491   50.8595 H   0  0  0  0  0  0  0  0  0  0  0  0
   37.7113   29.3760   52.2029 H   0  0  0  0  0  0  0  0  0  0  0  0
   36.8513   30.9676   52.1676 H   0  0  0  0  0  0  0  0  0  0  0  0
   35.3317   29.1240   51.6809 H   0  0  0  0  0  0  0  0  0  0  0  0
   36.4026   28.6442   50.2862 H   0  0  0  0  0  0  0  0  0  0  0  0
   38.9299   33.1447   50.0306 H   0  0  0  0  0  0  0  0  0  0  0  0
   40.1524   34.7428   48.6269 H   0  0  0  0  0  0  0  0  0  0  0  0
   40.3207   34.3943   46.1590 H   0  0  0  0  0  0  0  0  0  0  0  0
   37.5651   33.5149   44.0589 H   0  0  0  0  0  0  0  0  0  0  0  0
   38.0705   32.9472   41.7009 H   0  0  0  0  0  0  0  0  0  0  0  0
   41.4569   30.6261   42.8495 H   0  0  0  0  0  0  0  0  0  0  0  0
   34.9504   30.7406   47.4022 H   0  0  0  0  0  0  0  0  0  0  0  0
   33.4258   29.3845   45.9051 H   0  0  0  0  0  0  0  0  0  0  0  0
   32.1797   27.0785   49.2986 H   0  0  0  0  0  0  0  0  0  0  0  0
  1  6  1  0
  2  3  1  0
  2  1  1  0
  3  4  1  0
  4  5  1  0
  6  5  1  0
  7  8  1  0
  8  9  2  0
  9 10  1  0
  9  3  1  0
 11 10  2  0
 12 11  1  0
 13 12  2  0
 13  8  1  0
 15 16  2  0
 15 14  1  0
 16 13  1  0
 17 16  1  0
 18 17  2  0
 19 18  1  0
 19 21  2  0
 20 19  1  0
 21 15  1  0
 22 27  1  0
 22  1  1  0
 23 22  2  0
 24 25  2  0
 24 23  1  0
 25 26  1  0
 26 27  2  0
  1 28  1  1
  2 29  1  0
  2 30  1  0
  3 31  1  6
  4 32  1  0
  4 33  1  0
  5 34  1  0
  5 35  1  0
  6 36  1  0
  6 37  1  0
 10 38  1  0
 11 39  1  0
 12 40  1  0
 17 41  1  0
 18 42  1  0
 21 43  1  0
 23 44  1  0
 24 45  1  0
 26 46  1  0
M  ISO  8  28  13  29  13  30  13  31  13  32  13  33  13  34  13  35  13
M  ISO  8  36  13  37  13  38  14  39  14  40  14  41  14  42  14  43  14
M  ISO  3  44  14  45  14  46  14
M  END
>  <minimizedAffinity>  (1) 
-7.75507641

>  <minimizedRMSD>  (1) 
0.98034966

$$$$
