
     RDKit          3D

 32 34  0  0  1  0  0  0  0  0999 V2000
   37.2480   29.6330   51.2130 C   0  0  0  0  0  0  0  0  0  0  0  0
   37.9560   30.2470   50.1610 C   0  0  0  0  0  0  0  0  0  0  0  0
   37.2570   30.4470   48.9620 C   0  0  0  0  0  0  0  0  0  0  0  0
   35.9830   30.0370   48.9300 N   0  0  0  0  0  0  0  0  0  0  0  0
   35.3110   29.4530   49.9370 C   0  0  0  0  0  0  0  0  0  0  0  0
   35.9640   29.2530   51.0910 N   0  0  0  0  0  0  0  0  0  0  0  0
   37.8600   31.0460   47.8430 N   0  0  0  0  0  0  0  0  0  0  0  0
   38.9110   32.0680   47.9210 C   0  0  0  0  0  0  0  0  0  0  0  0
   39.1700   32.4830   46.4970 C   0  0  0  0  0  0  0  0  0  0  0  0
   37.8610   32.1530   45.8500 C   0  0  0  0  0  0  0  0  0  0  0  0
   37.6050   30.7960   46.4850 C   0  0  2  0  0  0  0  0  0  0  0  0
   37.2790   29.3030   43.9300 Cl  0  0  0  0  0  0  0  0  0  0  0  0
   35.9360   29.6380   45.0350 C   0  0  0  0  0  0  0  0  0  0  0  0
   36.2390   30.3330   46.2140 C   0  0  0  0  0  0  0  0  0  0  0  0
   35.1190   30.5310   46.9850 C   0  0  0  0  0  0  0  0  0  0  0  0
   33.8540   30.1070   46.6570 C   0  0  0  0  0  0  0  0  0  0  0  0
   33.6370   29.4290   45.4800 C   0  0  0  0  0  0  0  0  0  0  0  0
   32.0220   28.9170   45.1150 Cl  0  0  0  0  0  0  0  0  0  0  0  0
   34.6940   29.1840   44.6440 C   0  0  0  0  0  0  0  0  0  0  0  0
   37.7642   29.4582   52.1685 H   0  0  0  0  0  0  0  0  0  0  0  0
   39.0060   30.5545   50.2747 H   0  0  0  0  0  0  0  0  0  0  0  0
   34.2604   29.1493   49.8184 H   0  0  0  0  0  0  0  0  0  0  0  0
   38.5690   32.9274   48.5164 H   0  0  0  0  0  0  0  0  0  0  0  0
   39.8199   31.6845   48.4076 H   0  0  0  0  0  0  0  0  0  0  0  0
   39.3944   33.5575   46.4256 H   0  0  0  0  0  0  0  0  0  0  0  0
   40.0371   31.9882   46.0352 H   0  0  0  0  0  0  0  0  0  0  0  0
   37.9495   32.0843   44.7557 H   0  0  0  0  0  0  0  0  0  0  0  0
   37.0644   32.8973   45.9967 H   0  0  0  0  0  0  0  0  0  0  0  0
   38.2312   29.9816   46.0918 H   0  0  0  0  0  0  0  0  0  0  0  0
   35.2446   31.0693   47.9360 H   0  0  0  0  0  0  0  0  0  0  0  0
   33.0133   30.3100   47.3367 H   0  0  0  0  0  0  0  0  0  0  0  0
   34.5571   28.6446   43.6951 H   0  0  0  0  0  0  0  0  0  0  0  0
  2  1  2  0
  3  2  1  0
  4  3  2  0
  4  5  1  0
  5  6  2  0
  6  1  1  0
  7  8  1  0
  7  3  1  0
  9  8  1  0
 10 11  1  0
 10  9  1  0
 11  7  1  0
 12 13  1  0
 13 14  2  0
 14 11  1  0
 14 15  1  0
 16 15  2  0
 17 16  1  0
 18 17  1  0
 19 13  1  0
 19 17  2  0
  1 20  1  0
  2 21  1  0
  5 22  1  0
  8 23  1  0
  8 24  1  0
  9 25  1  0
  9 26  1  0
 10 27  1  0
 10 28  1  0
 11 29  1  6
 15 30  1  0
 16 31  1  0
 19 32  1  0
M  ISO  8  20  14  21  14  22  14  23  13  24  13  25  13  26  13  27  13
M  ISO  5  28  13  29  13  30  14  31  14  32  14
M  END
>  <minimizedAffinity>  (1) 
-4.96799278

>  <minimizedRMSD>  (1) 
1.35373497

$$$$
