
     RDKit          3D

 44 47  0  0  0  0  0  0  0  0999 V2000
   28.3360   28.6960   44.1560 C   0  0  0  0  0  0  0  0  0  0  0  0
   27.2470   28.0230   43.6340 C   0  0  0  0  0  0  0  0  0  0  0  0
   27.0390   27.8080   42.2750 C   0  0  0  0  0  0  0  0  0  0  0  0
   27.9990   28.3080   41.3700 C   0  0  0  0  0  0  0  0  0  0  0  0
   29.0750   28.9750   41.9150 C   0  0  0  0  0  0  0  0  0  0  0  0
   29.2680   29.1800   43.2480 C   0  0  0  0  0  0  0  0  0  0  0  0
   28.9410   27.7490   46.3020 C   0  0  0  0  0  0  0  0  0  0  0  0
   28.3820   28.8240   45.5910 C   0  0  0  0  0  0  0  0  0  0  0  0
   27.9190   29.9260   46.3200 C   0  0  0  0  0  0  0  0  0  0  0  0
   28.0270   29.9110   47.6740 N   0  0  0  0  0  0  0  0  0  0  0  0
   28.5740   28.8540   48.3410 C   0  0  0  0  0  0  0  0  0  0  0  0
   29.0280   27.7750   47.6490 N   0  0  0  0  0  0  0  0  0  0  0  0
   27.3010   31.1310   45.7030 C   0  0  0  0  0  0  0  0  0  0  0  0
   26.6960   31.9140   46.7060 F   0  0  0  0  0  0  0  0  0  0  0  0
   28.1260   31.9170   44.9860 F   0  0  0  0  0  0  0  0  0  0  0  0
   26.2240   30.7460   44.8960 F   0  0  0  0  0  0  0  0  0  0  0  0
   30.6480   30.0290   43.9230 S   0  0  0  0  0  0  0  0  0  0  0  0
   32.3790   31.0790   46.2850 Cl  0  0  0  0  0  0  0  0  0  0  0  0
   32.6280   29.4700   45.6410 C   0  0  0  0  0  0  0  0  0  0  0  0
   31.8970   28.9560   44.5760 C   0  0  0  0  0  0  0  0  0  0  0  0
   32.1460   27.7000   44.1050 C   0  0  0  0  0  0  0  0  0  0  0  0
   33.1350   26.9460   44.7060 C   0  0  0  0  0  0  0  0  0  0  0  0
   33.8750   27.4510   45.7760 C   0  0  0  0  0  0  0  0  0  0  0  0
   33.6280   28.7300   46.2600 C   0  0  0  0  0  0  0  0  0  0  0  0
   32.7630   28.1220   49.1170 Cl  0  0  0  0  0  0  0  0  0  0  0  0
   34.1490   29.0860   48.7340 C   0  0  0  0  0  0  0  0  0  0  0  0
   34.4080   29.2690   47.3890 C   0  0  0  0  0  0  0  0  0  0  0  0
   35.5000   30.0290   46.9520 C   0  0  0  0  0  0  0  0  0  0  0  0
   36.3210   30.5960   47.9020 C   0  0  0  0  0  0  0  0  0  0  0  0
   36.0930   30.4350   49.2540 C   0  0  0  0  0  0  0  0  0  0  0  0
   37.1440   31.1630   50.4530 Cl  0  0  0  0  0  0  0  0  0  0  0  0
   35.0040   29.6770   49.6430 C   0  0  0  0  0  0  0  0  0  0  0  0
   26.4972   27.6326   44.3378 H   0  0  0  0  0  0  0  0  0  0  0  0
   26.1523   27.2643   41.9169 H   0  0  0  0  0  0  0  0  0  0  0  0
   27.8939   28.1722   40.2835 H   0  0  0  0  0  0  0  0  0  0  0  0
   29.8332   29.3707   41.2232 H   0  0  0  0  0  0  0  0  0  0  0  0
   29.3138   26.8721   45.7524 H   0  0  0  0  0  0  0  0  0  0  0  0
   28.6478   28.8746   49.4383 H   0  0  0  0  0  0  0  0  0  0  0  0
   31.5689   27.2946   43.2608 H   0  0  0  0  0  0  0  0  0  0  0  0
   33.3426   25.9314   44.3353 H   0  0  0  0  0  0  0  0  0  0  0  0
   34.6584   26.8330   46.2390 H   0  0  0  0  0  0  0  0  0  0  0  0
   35.6970   30.1695   45.8789 H   0  0  0  0  0  0  0  0  0  0  0  0
   37.1835   31.1946   47.5736 H   0  0  0  0  0  0  0  0  0  0  0  0
   34.8115   29.5396   50.7173 H   0  0  0  0  0  0  0  0  0  0  0  0
  1  8  1  0
  2  1  2  0
  3  2  1  0
  4  5  1  0
  4  3  2  0
  5  6  2  0
  6 17  1  0
  6  1  1  0
  7 12  2  0
  8  7  1  0
  8  9  2  0
  9 10  1  0
 10 11  2  0
 12 11  1  0
 13  9  1  0
 13 14  1  0
 15 13  1  0
 16 13  1  0
 17 20  1  0
 19 24  2  0
 19 18  1  0
 20 19  1  0
 21 20  2  0
 21 22  1  0
 22 23  2  0
 23 24  1  0
 24 27  1  0
 26 25  1  0
 26 32  2  0
 27 26  1  0
 28 27  2  0
 28 29  1  0
 29 30  2  0
 30 32  1  0
 30 31  1  0
  2 33  1  0
  3 34  1  0
  4 35  1  0
  5 36  1  0
  7 37  1  0
 11 38  1  0
 21 39  1  0
 22 40  1  0
 23 41  1  0
 28 42  1  0
 29 43  1  0
 32 44  1  0
M  ISO  8  33  14  34  14  35  14  36  14  37  14  38  14  39  14  40  14
M  ISO  4  41  14  42  14  43  14  44  14
M  END
>  <minimizedAffinity>  (1) 
-5.35809994

>  <minimizedRMSD>  (1) 
6.0656786

$$$$
