
     RDKit          3D

 47 51  0  0  0  0  0  0  0  0999 V2000
   39.2140   31.9310   44.9350 C   0  0  0  0  0  0  0  0  0  0  0  0
   38.1440   32.5730   45.0760 O   0  0  0  0  0  0  0  0  0  0  0  0
   39.9230   31.6580   46.1480 N   0  0  0  0  0  0  0  0  0  0  0  0
   39.0810   32.2240   42.5650 C   0  0  0  0  0  0  0  0  0  0  0  0
   39.6490   31.5250   43.6210 C   0  0  0  0  0  0  0  0  0  0  0  0
   40.5600   30.5190   43.4370 C   0  0  0  0  0  0  0  0  0  0  0  0
   40.9400   30.1740   42.1500 C   0  0  0  0  0  0  0  0  0  0  0  0
   41.7950   29.2480   41.6840 N   0  0  0  0  0  0  0  0  0  0  0  0
   41.7760   29.3510   40.3420 C   0  0  0  0  0  0  0  0  0  0  0  0
   40.9260   30.3210   39.9870 N   0  0  0  0  0  0  0  0  0  0  0  0
   40.3790   30.8630   41.1010 C   0  0  0  0  0  0  0  0  0  0  0  0
   39.4630   31.8760   41.2730 C   0  0  0  0  0  0  0  0  0  0  0  0
   36.7530   33.2290   41.6160 Cl  0  0  0  0  0  0  0  0  0  0  0  0
   37.6650   33.2710   40.1320 C   0  0  0  0  0  0  0  0  0  0  0  0
   38.8720   32.6040   40.1560 C   0  0  0  0  0  0  0  0  0  0  0  0
   39.6600   32.5940   39.0020 C   0  0  0  0  0  0  0  0  0  0  0  0
   39.1820   33.2610   37.8840 C   0  0  0  0  0  0  0  0  0  0  0  0
   37.9890   33.9320   37.8270 C   0  0  0  0  0  0  0  0  0  0  0  0
   37.4350   34.7580   36.3850 Cl  0  0  0  0  0  0  0  0  0  0  0  0
   37.2420   33.9170   38.9900 C   0  0  0  0  0  0  0  0  0  0  0  0
   38.0950   30.1670   47.4890 F   0  0  0  0  0  0  0  0  0  0  0  0
   38.3640   31.3950   47.9930 C   0  0  0  0  0  0  0  0  0  0  0  0
   37.7260   31.8280   49.1230 C   0  0  0  0  0  0  0  0  0  0  0  0
   38.0480   33.0760   49.5690 C   0  0  0  0  0  0  0  0  0  0  0  0
   38.9600   33.8880   48.9470 C   0  0  0  0  0  0  0  0  0  0  0  0
   39.5910   33.4230   47.8040 C   0  0  0  0  0  0  0  0  0  0  0  0
   39.2940   32.1750   47.3240 C   0  0  0  0  0  0  0  0  0  0  0  0
   36.0990   29.3530   51.4640 C   0  0  0  0  0  0  0  0  0  0  0  0
   37.0520   30.2050   50.8830 C   0  0  0  0  0  0  0  0  0  0  0  0
   36.7570   30.9300   49.7570 C   0  0  0  0  0  0  0  0  0  0  0  0
   35.5080   30.7890   49.2340 N   0  0  0  0  0  0  0  0  0  0  0  0
   34.5900   29.9700   49.7910 C   0  0  0  0  0  0  0  0  0  0  0  0
   34.8940   29.2700   50.8880 N   0  0  0  0  0  0  0  0  0  0  0  0
   40.8097   31.1344   46.1720 H   0  0  0  0  0  0  0  0  0  0  0  0
   38.3517   33.0279   42.7438 H   0  0  0  0  0  0  0  0  0  0  0  0
   40.9858   29.9901   44.3024 H   0  0  0  0  0  0  0  0  0  0  0  0
   42.3548   28.5890   42.2436 H   0  0  0  0  0  0  0  0  0  0  0  0
   42.3660   28.7351   39.6473 H   0  0  0  0  0  0  0  0  0  0  0  0
   40.6288   32.0735   38.9810 H   0  0  0  0  0  0  0  0  0  0  0  0
   39.8056   33.2505   36.9779 H   0  0  0  0  0  0  0  0  0  0  0  0
   36.2743   34.4398   39.0048 H   0  0  0  0  0  0  0  0  0  0  0  0
   37.5496   33.4503   50.4754 H   0  0  0  0  0  0  0  0  0  0  0  0
   39.1864   34.8876   49.3464 H   0  0  0  0  0  0  0  0  0  0  0  0
   40.3274   34.0537   47.2844 H   0  0  0  0  0  0  0  0  0  0  0  0
   36.3361   28.7706   52.3666 H   0  0  0  0  0  0  0  0  0  0  0  0
   38.0498   30.2922   51.3377 H   0  0  0  0  0  0  0  0  0  0  0  0
   33.5904   29.8789   49.3410 H   0  0  0  0  0  0  0  0  0  0  0  0
  1  2  2  0
  1  3  1  0
  3 27  1  0
  4  5  2  0
  5  1  1  0
  6  5  1  0
  7  6  2  0
  8  7  1  0
  9  8  1  0
 10  9  2  0
 10 11  1  0
 11 12  2  0
 11  7  1  0
 12  4  1  0
 14 15  2  0
 14 13  1  0
 15 12  1  0
 16 15  1  0
 17 16  2  0
 18 17  1  0
 18 20  2  0
 19 18  1  0
 20 14  1  0
 21 22  1  0
 22 23  2  0
 23 24  1  0
 23 30  1  0
 25 24  2  0
 26 25  1  0
 27 26  2  0
 27 22  1  0
 29 28  2  0
 30 29  1  0
 31 30  2  0
 31 32  1  0
 32 33  2  0
 33 28  1  0
  3 34  1  0
  4 35  1  0
  6 36  1  0
  8 37  1  0
  9 38  1  0
 16 39  1  0
 17 40  1  0
 20 41  1  0
 24 42  1  0
 25 43  1  0
 26 44  1  0
 28 45  1  0
 29 46  1  0
 32 47  1  0
M  END
>  <minimizedAffinity>  (1) 
-7.5800662

>  <minimizedRMSD>  (1) 
0.178813428

$$$$
