
     RDKit          3D

 27 29  0  0  1  0  0  0  0  0999 V2000
   35.8950   30.6750   49.0550 C   0  0  1  0  0  0  0  0  0  0  0  0
   35.6150   29.4480   48.3210 C   0  0  1  0  0  0  0  0  0  0  0  0
   36.2720   29.3340   49.6660 C   0  0  0  0  0  0  0  0  0  0  0  0
   34.6390   30.0280   45.5990 Cl  0  0  0  0  0  0  0  0  0  0  0  0
   33.7270   29.1580   46.8270 C   0  0  0  0  0  0  0  0  0  0  0  0
   34.2680   28.9330   48.0760 C   0  0  0  0  0  0  0  0  0  0  0  0
   33.5350   28.2480   49.0250 C   0  0  0  0  0  0  0  0  0  0  0  0
   32.2480   27.7730   48.7510 C   0  0  0  0  0  0  0  0  0  0  0  0
   31.7640   28.0330   47.4760 C   0  0  0  0  0  0  0  0  0  0  0  0
   30.1420   27.4570   47.0650 Cl  0  0  0  0  0  0  0  0  0  0  0  0
   32.4750   28.7200   46.4930 C   0  0  0  0  0  0  0  0  0  0  0  0
   37.0990   31.5230   48.7290 C   0  0  0  0  0  0  0  0  0  0  0  0
   37.4420   32.5420   49.6330 C   0  0  0  0  0  0  0  0  0  0  0  0
   38.5410   33.3100   49.2910 C   0  0  0  0  0  0  0  0  0  0  0  0
   39.2150   33.0610   48.1440 N   0  0  0  0  0  0  0  0  0  0  0  0
   38.8590   32.0600   47.2800 C   0  0  0  0  0  0  0  0  0  0  0  0
   37.7810   31.2860   47.5900 N   0  0  0  0  0  0  0  0  0  0  0  0
   35.2588   31.5404   49.2921 H   0  0  0  0  0  0  0  0  0  0  0  0
   35.8553   29.1060   47.3035 H   0  0  0  0  0  0  0  0  0  0  0  0
   37.3279   29.0362   49.7460 H   0  0  0  0  0  0  0  0  0  0  0  0
   36.0610   28.8060   50.6077 H   0  0  0  0  0  0  0  0  0  0  0  0
   33.9729   28.0719   50.0186 H   0  0  0  0  0  0  0  0  0  0  0  0
   31.6557   27.2269   49.5000 H   0  0  0  0  0  0  0  0  0  0  0  0
   32.0489   28.9014   45.4952 H   0  0  0  0  0  0  0  0  0  0  0  0
   36.8715   32.7187   50.5568 H   0  0  0  0  0  0  0  0  0  0  0  0
   38.8678   34.1253   49.9532 H   0  0  0  0  0  0  0  0  0  0  0  0
   39.4303   31.8846   46.3565 H   0  0  0  0  0  0  0  0  0  0  0  0
  1  3  1  0
  2  1  1  0
  2  3  1  0
  4  5  1  0
  5  6  2  0
  6  2  1  0
  6  7  1  0
  8  7  2  0
  9  8  1  0
 10  9  1  0
 11  5  1  0
 11  9  2  0
 12  1  1  0
 12 13  2  0
 14 13  1  0
 15 14  2  0
 16 17  2  0
 16 15  1  0
 17 12  1  0
  1 18  1  1
  2 19  1  6
  3 20  1  0
  3 21  1  0
  7 22  1  0
  8 23  1  0
 11 24  1  0
 13 25  1  0
 14 26  1  0
 16 27  1  0
M  ISO  8  18  13  19  13  20  13  21  13  22  14  23  14  24  14  25  14
M  ISO  2  26  14  27  14
M  END
>  <minimizedAffinity>  (1) 
-5.42596483

>  <minimizedRMSD>  (1) 
2.09862804

$$$$
