
     RDKit          3D

 28 29  0  0  1  0  0  0  0  0999 V2000
   38.4210   31.8750   49.1850 C   0  0  0  0  0  0  0  0  0  0  0  0
   38.8900   32.2090   47.8860 C   0  0  0  0  0  0  0  0  0  0  0  0
   38.1540   31.7780   46.7860 C   0  0  0  0  0  0  0  0  0  0  0  0
   37.0270   31.0600   47.0150 N   0  0  0  0  0  0  0  0  0  0  0  0
   36.6030   30.7560   48.2590 C   0  0  0  0  0  0  0  0  0  0  0  0
   37.2980   31.1630   49.3290 N   0  0  0  0  0  0  0  0  0  0  0  0
   35.3950   29.9890   48.4320 N   0  0  0  0  0  0  0  0  0  0  0  0
   35.3860   28.8890   49.4010 C   0  0  2  0  0  0  0  0  0  0  0  0
   34.4490   27.7800   49.0180 C   0  0  0  0  0  0  0  0  0  0  0  0
   34.2260   27.8550   47.5260 C   0  0  0  0  0  0  0  0  0  0  0  0
   33.4010   29.1120   47.2870 C   0  0  0  0  0  0  0  0  0  0  0  0
   34.2230   30.3130   47.6570 C   0  0  0  0  0  0  0  0  0  0  0  0
   35.2580   29.3410   50.8160 C   0  0  0  0  0  0  0  0  0  0  0  0
   38.9819   32.2022   50.0728 H   0  0  0  0  0  0  0  0  0  0  0  0
   39.8121   32.7938   47.7529 H   0  0  0  0  0  0  0  0  0  0  0  0
   38.4772   32.0130   45.7612 H   0  0  0  0  0  0  0  0  0  0  0  0
   36.3891   28.4401   49.3540 H   0  0  0  0  0  0  0  0  0  0  0  0
   34.8925   26.8084   49.2812 H   0  0  0  0  0  0  0  0  0  0  0  0
   33.4939   27.8832   49.5538 H   0  0  0  0  0  0  0  0  0  0  0  0
   35.1889   27.9240   46.9987 H   0  0  0  0  0  0  0  0  0  0  0  0
   33.7116   26.9583   47.1502 H   0  0  0  0  0  0  0  0  0  0  0  0
   33.1180   29.1713   46.2257 H   0  0  0  0  0  0  0  0  0  0  0  0
   32.4895   29.0813   47.9021 H   0  0  0  0  0  0  0  0  0  0  0  0
   34.5444   30.8138   46.7319 H   0  0  0  0  0  0  0  0  0  0  0  0
   33.5895   30.9597   48.2819 H   0  0  0  0  0  0  0  0  0  0  0  0
   35.4947   28.5051   51.4908 H   0  0  0  0  0  0  0  0  0  0  0  0
   35.9566   30.1704   51.0006 H   0  0  0  0  0  0  0  0  0  0  0  0
   34.2283   29.6810   51.0006 H   0  0  0  0  0  0  0  0  0  0  0  0
  1  6  2  0
  2  1  1  0
  3  4  1  0
  3  2  2  0
  4  5  2  0
  5  7  1  0
  5  6  1  0
  7  8  1  0
  8 13  1  0
  9  8  1  0
 10  9  1  0
 11 10  1  0
 11 12  1  0
 12  7  1  0
  1 14  1  0
  2 15  1  0
  3 16  1  0
  8 17  1  1
  9 18  1  0
  9 19  1  0
 10 20  1  0
 10 21  1  0
 11 22  1  0
 11 23  1  0
 12 24  1  0
 12 25  1  0
 13 26  1  0
 13 27  1  0
 13 28  1  0
M  ISO  8  14  14  15  14  16  14  17  13  18  13  19  13  20  13  21  13
M  ISO  7  22  13  23  13  24  13  25  13  26   8  27   8  28   8
M  END
>  <minimizedAffinity>  (1) 
-4.74142647

>  <minimizedRMSD>  (1) 
1.44854832

$$$$
