
     RDKit          3D

 28 29  0  0  0  0  0  0  0  0999 V2000
   33.7080   28.6050   48.7070 C   0  0  0  0  0  0  0  0  0  0  0  0
   32.7950   27.4530   48.3540 C   0  0  0  0  0  0  0  0  0  0  0  0
   31.3680   27.8560   48.3550 C   0  0  0  0  0  0  0  0  0  0  0  0
   30.6740   27.7290   49.5520 C   0  0  0  0  0  0  0  0  0  0  0  0
   29.3460   28.0780   49.6410 C   0  0  0  0  0  0  0  0  0  0  0  0
   28.6930   28.5470   48.5820 N   0  0  0  0  0  0  0  0  0  0  0  0
   29.3880   28.6660   47.4130 C   0  0  0  0  0  0  0  0  0  0  0  0
   30.6760   28.3350   47.2980 N   0  0  0  0  0  0  0  0  0  0  0  0
   34.6080   28.2090   49.7320 O   0  0  0  0  0  0  0  0  0  0  0  0
   37.2340   30.1890   51.2460 C   0  0  0  0  0  0  0  0  0  0  0  0
   37.9020   30.6380   50.0930 C   0  0  0  0  0  0  0  0  0  0  0  0
   37.3990   30.2260   48.8740 C   0  0  0  0  0  0  0  0  0  0  0  0
   36.2970   29.4180   48.8880 N   0  0  0  0  0  0  0  0  0  0  0  0
   35.6860   29.0090   49.9950 C   0  0  0  0  0  0  0  0  0  0  0  0
   36.1670   29.4030   51.2060 N   0  0  0  0  0  0  0  0  0  0  0  0
   38.0790   30.6820   47.6480 C   0  0  0  0  0  0  0  0  0  0  0  0
   33.1045   29.4546   49.0591 H   0  0  0  0  0  0  0  0  0  0  0  0
   34.2804   28.9011   47.8155 H   0  0  0  0  0  0  0  0  0  0  0  0
   32.9375   26.6482   49.0902 H   0  0  0  0  0  0  0  0  0  0  0  0
   33.0520   27.1137   47.3397 H   0  0  0  0  0  0  0  0  0  0  0  0
   31.1939   27.3438   50.4416 H   0  0  0  0  0  0  0  0  0  0  0  0
   28.8182   27.9677   50.5998 H   0  0  0  0  0  0  0  0  0  0  0  0
   28.8633   29.0518   46.5265 H   0  0  0  0  0  0  0  0  0  0  0  0
   37.6150   30.5050   52.2283 H   0  0  0  0  0  0  0  0  0  0  0  0
   38.7864   31.2888   50.1587 H   0  0  0  0  0  0  0  0  0  0  0  0
   38.9644   31.2758   47.9190 H   0  0  0  0  0  0  0  0  0  0  0  0
   38.3902   29.8093   47.0551 H   0  0  0  0  0  0  0  0  0  0  0  0
   37.3897   31.3012   47.0551 H   0  0  0  0  0  0  0  0  0  0  0  0
  1  9  1  0
  2  3  1  0
  2  1  1  0
  3  4  2  0
  4  5  1  0
  6  5  2  0
  7  6  1  0
  8  7  2  0
  8  3  1  0
  9 14  1  0
 11 10  2  0
 12 13  2  0
 12 11  1  0
 13 14  1  0
 14 15  2  0
 15 10  1  0
 16 12  1  0
  1 17  1  0
  1 18  1  0
  2 19  1  0
  2 20  1  0
  4 21  1  0
  5 22  1  0
  7 23  1  0
 10 24  1  0
 11 25  1  0
 16 26  1  0
 16 27  1  0
 16 28  1  0
M  ISO  8  17   8  18   8  19   8  20   8  21  14  22  14  23  14  24  14
M  ISO  4  25  14  26   8  27   8  28   8
M  END
>  <minimizedAffinity>  (1) 
-4.77578306

>  <minimizedRMSD>  (1) 
0.0350632444

$$$$
