
     RDKit          3D

 20 21  0  0  0  0  0  0  0  0999 V2000
   39.4830   34.1770   49.0080 C   0  0  0  0  0  0  0  0  0  0  0  0
   39.9150   33.9300   47.6650 C   0  0  0  0  0  0  0  0  0  0  0  0
   39.4790   32.7500   47.0230 C   0  0  0  0  0  0  0  0  0  0  0  0
   38.6700   31.9140   47.7220 N   0  0  0  0  0  0  0  0  0  0  0  0
   38.2780   32.1720   48.9890 C   0  0  0  0  0  0  0  0  0  0  0  0
   38.6850   33.2850   49.6040 N   0  0  0  0  0  0  0  0  0  0  0  0
   37.4050   31.2250   49.6800 C   0  0  0  0  0  0  0  0  0  0  0  0
   37.7480   30.5090   50.8170 C   0  0  0  0  0  0  0  0  0  0  0  0
   36.6660   29.7350   51.1560 C   0  0  0  0  0  0  0  0  0  0  0  0
   35.6810   29.9810   50.2320 N   0  0  0  0  0  0  0  0  0  0  0  0
   36.1620   30.8750   49.3680 N   0  0  0  0  0  0  0  0  0  0  0  0
   34.3440   29.4270   50.1270 C   0  0  0  0  0  0  0  0  0  0  0  0
   39.8023   35.0852   49.5401 H   0  0  0  0  0  0  0  0  0  0  0  0
   40.5716   34.6433   47.1453 H   0  0  0  0  0  0  0  0  0  0  0  0
   39.7845   32.5167   45.9923 H   0  0  0  0  0  0  0  0  0  0  0  0
   38.7097   30.5531   51.3491 H   0  0  0  0  0  0  0  0  0  0  0  0
   36.6004   29.0451   52.0103 H   0  0  0  0  0  0  0  0  0  0  0  0
   33.9368   29.2583   51.1348 H   0  0  0  0  0  0  0  0  0  0  0  0
   33.6970   30.1311   49.5833 H   0  0  0  0  0  0  0  0  0  0  0  0
   34.3846   28.4716   49.5833 H   0  0  0  0  0  0  0  0  0  0  0  0
  1  6  2  0
  2  1  1  0
  3  2  2  0
  3  4  1  0
  4  5  2  0
  5  6  1  0
  5  7  1  0
  7  8  1  0
  8  9  2  0
 10  9  1  0
 11  7  2  0
 11 10  1  0
 12 10  1  0
  1 13  1  0
  2 14  1  0
  3 15  1  0
  8 16  1  0
  9 17  1  0
 12 18  1  0
 12 19  1  0
 12 20  1  0
M  ISO  8  13  14  14  14  15  14  16  14  17  14  18   8  19   8  20   8
M  END
>  <minimizedAffinity>  (1) 
-4.32120657

>  <minimizedRMSD>  (1) 
1.94429696

$$$$
