
     RDKit          3D

 21 21  0  0  0  0  0  0  0  0999 V2000
   37.3620   30.2360   51.3870 C   0  0  0  0  0  0  0  0  0  0  0  0
   38.0100   30.7530   50.2700 C   0  0  0  0  0  0  0  0  0  0  0  0
   37.5680   30.4250   48.9930 C   0  0  0  0  0  0  0  0  0  0  0  0
   36.4980   29.5970   48.8660 N   0  0  0  0  0  0  0  0  0  0  0  0
   35.8910   29.1130   49.9770 C   0  0  0  0  0  0  0  0  0  0  0  0
   36.3010   29.4160   51.2170 N   0  0  0  0  0  0  0  0  0  0  0  0
   38.2440   30.9620   47.8480 C   0  0  0  0  0  0  0  0  0  0  0  0
   38.8000   32.1460   47.8590 C   0  0  0  0  0  0  0  0  0  0  0  0
   39.4890   32.6170   46.6030 C   0  0  0  0  0  0  0  0  0  0  0  0
   38.9570   31.5710   45.2110 S   0  0  0  0  0  0  0  0  0  0  0  0
   37.6510   32.3600   44.2550 C   0  0  0  0  0  0  0  0  0  0  0  0
   37.7096   30.4920   52.3988 H   0  0  0  0  0  0  0  0  0  0  0  0
   38.8735   31.4224   50.3971 H   0  0  0  0  0  0  0  0  0  0  0  0
   35.0262   28.4439   49.8563 H   0  0  0  0  0  0  0  0  0  0  0  0
   38.2967   30.3583   46.9300 H   0  0  0  0  0  0  0  0  0  0  0  0
   38.7660   32.7793   48.7578 H   0  0  0  0  0  0  0  0  0  0  0  0
   39.2172   33.6640   46.4031 H   0  0  0  0  0  0  0  0  0  0  0  0
   40.5797   32.5459   46.7271 H   0  0  0  0  0  0  0  0  0  0  0  0
   36.9137   32.8054   44.9392 H   0  0  0  0  0  0  0  0  0  0  0  0
   38.0851   33.1471   43.6209 H   0  0  0  0  0  0  0  0  0  0  0  0
   37.1563   31.6096   43.6209 H   0  0  0  0  0  0  0  0  0  0  0  0
  2  1  2  0
  3  2  1  0
  4  3  2  0
  4  5  1  0
  5  6  2  0
  6  1  1  0
  7  8  2  0
  7  3  1  0
  9  8  1  0
 10  9  1  0
 11 10  1  0
  1 12  1  0
  2 13  1  0
  5 14  1  0
  7 15  1  0
  8 16  1  0
  9 17  1  0
  9 18  1  0
 11 19  1  0
 11 20  1  0
 11 21  1  0
M  ISO  8  12  14  13  14  14  14  17   8  18   8  19   8  20   8  21   8
M  END
>  <minimizedAffinity>  (1) 
-4.02286148

>  <minimizedRMSD>  (1) 
0.598687172

$$$$
