
     RDKit          3D

 14 14  0  0  0  0  0  0  0  0999 V2000
   37.2610   30.1930   51.2000 C   0  0  0  0  0  0  0  0  0  0  0  0
   37.3610   31.0250   50.0470 C   0  0  0  0  0  0  0  0  0  0  0  0
   36.3090   31.0100   49.1480 C   0  0  0  0  0  0  0  0  0  0  0  0
   35.2470   30.2210   49.3920 N   0  0  0  0  0  0  0  0  0  0  0  0
   35.1820   29.4410   50.4980 C   0  0  0  0  0  0  0  0  0  0  0  0
   36.1830   29.4210   51.4060 N   0  0  0  0  0  0  0  0  0  0  0  0
   38.5260   31.7540   49.9810 O   0  0  0  0  0  0  0  0  0  0  0  0
   38.5770   32.9830   49.3190 C   0  0  0  0  0  0  0  0  0  0  0  0
   38.0811   30.1836   51.9330 H   0  0  0  0  0  0  0  0  0  0  0  0
   36.3408   31.6361   48.2441 H   0  0  0  0  0  0  0  0  0  0  0  0
   34.2954   28.8104   50.6604 H   0  0  0  0  0  0  0  0  0  0  0  0
   38.6108   33.7967   50.0585 H   0  0  0  0  0  0  0  0  0  0  0  0
   39.4776   33.0228   48.6886 H   0  0  0  0  0  0  0  0  0  0  0  0
   37.6828   33.0973   48.6886 H   0  0  0  0  0  0  0  0  0  0  0  0
  1  6  2  0
  2  1  1  0
  3  4  1  0
  3  2  2  0
  4  5  2  0
  5  6  1  0
  7  2  1  0
  8  7  1  0
  1  9  1  0
  3 10  1  0
  5 11  1  0
  8 12  1  0
  8 13  1  0
  8 14  1  0
M  ISO  6   9  14  10  14  11  14  12   8  13   8  14   8
M  END
>  <minimizedAffinity>  (1) 
-3.1094079

>  <minimizedRMSD>  (1) 
1.11650836

$$$$
