
     RDKit          3D

 19 19  0  0  0  0  0  0  0  0999 V2000
   37.1590   30.2970   51.2930 C   0  0  0  0  0  0  0  0  0  0  0  0
   37.7060   30.5950   50.0210 C   0  0  0  0  0  0  0  0  0  0  0  0
   37.1340   29.9720   48.9160 C   0  0  0  0  0  0  0  0  0  0  0  0
   36.0840   29.1160   49.1150 N   0  0  0  0  0  0  0  0  0  0  0  0
   35.6060   28.8690   50.3430 C   0  0  0  0  0  0  0  0  0  0  0  0
   36.1240   29.4460   51.4430 N   0  0  0  0  0  0  0  0  0  0  0  0
   38.7620   31.4760   49.9680 O   0  0  0  0  0  0  0  0  0  0  0  0
   37.3570   33.5290   49.2210 O   0  0  0  0  0  0  0  0  0  0  0  0
   38.7730   32.9860   49.2020 P   0  0  1  0  0  0  0  0  0  0  0  0
   39.7230   34.0020   50.2050 O   0  0  0  0  0  0  0  0  0  0  0  0
   39.3090   32.9920   47.6370 O   0  0  0  0  0  0  0  0  0  0  0  0
   38.4060   32.3400   46.7960 C   0  0  0  0  0  0  0  0  0  0  0  0
   37.5914   30.7740   52.1849 H   0  0  0  0  0  0  0  0  0  0  0  0
   37.5177   30.1633   47.9030 H   0  0  0  0  0  0  0  0  0  0  0  0
   34.7626   28.1718   50.4552 H   0  0  0  0  0  0  0  0  0  0  0  0
   39.5330   33.7988   51.1551 H   0  0  0  0  0  0  0  0  0  0  0  0
   37.6621   31.8029   47.4027 H   0  0  0  0  0  0  0  0  0  0  0  0
   37.8963   33.0798   46.1612 H   0  0  0  0  0  0  0  0  0  0  0  0
   38.9479   31.6235   46.1612 H   0  0  0  0  0  0  0  0  0  0  0  0
  1  6  2  0
  2  1  1  0
  3  4  1  0
  3  2  2  0
  4  5  2  0
  5  6  1  0
  7  2  1  0
  9  8  2  0
  9  7  1  0
  9 10  1  0
 11  9  1  0
 12 11  1  0
  1 13  1  0
  3 14  1  0
  5 15  1  0
 10 16  1  0
 12 17  1  0
 12 18  1  0
 12 19  1  0
M  ISO  7  13  14  14  14  15  14  16   3  17   8  18   8  19   8
M  END
>  <minimizedAffinity>  (1) 
-3.71601772

>  <minimizedRMSD>  (1) 
0.422977686

$$$$
