
     RDKit          3D

 14 14  0  0  0  0  0  0  0  0999 V2000
   38.2560   32.9190   49.3640 C   0  0  0  0  0  0  0  0  0  0  0  0
   38.8570   32.7380   48.1140 C   0  0  0  0  0  0  0  0  0  0  0  0
   38.3490   31.7740   47.2310 C   0  0  0  0  0  0  0  0  0  0  0  0
   37.2680   31.0540   47.6630 N   0  0  0  0  0  0  0  0  0  0  0  0
   36.7020   31.2420   48.8710 C   0  0  0  0  0  0  0  0  0  0  0  0
   37.1970   32.1790   49.7280 N   0  0  0  0  0  0  0  0  0  0  0  0
   35.6300   30.4080   49.0930 O   0  0  0  0  0  0  0  0  0  0  0  0
   34.6950   30.2100   48.0450 C   0  0  0  0  0  0  0  0  0  0  0  0
   38.6553   33.6754   50.0557 H   0  0  0  0  0  0  0  0  0  0  0  0
   39.7246   33.3493   47.8247 H   0  0  0  0  0  0  0  0  0  0  0  0
   38.7970   31.6050   46.2407 H   0  0  0  0  0  0  0  0  0  0  0  0
   33.7036   30.0001   48.4729 H   0  0  0  0  0  0  0  0  0  0  0  0
   34.6421   31.1168   47.4247 H   0  0  0  0  0  0  0  0  0  0  0  0
   35.0142   29.3595   47.4247 H   0  0  0  0  0  0  0  0  0  0  0  0
  1  6  2  0
  2  1  1  0
  3  4  1  0
  3  2  2  0
  4  5  2  0
  5  7  1  0
  5  6  1  0
  8  7  1  0
  1  9  1  0
  2 10  1  0
  3 11  1  0
  8 12  1  0
  8 13  1  0
  8 14  1  0
M  ISO  6   9  14  10  14  11  14  12   8  13   8  14   8
M  END
>  <minimizedAffinity>  (1) 
-2.93713689

>  <minimizedRMSD>  (1) 
2.90441275

$$$$
