
     RDKit          3D

 27 28  0  0  0  0  0  0  0  0999 V2000
   35.2030   28.5790   50.0480 C   0  0  0  0  0  0  0  0  0  0  0  0
   36.2570   29.5220   49.8500 C   0  0  0  0  0  0  0  0  0  0  0  0
   36.1160   30.4300   48.8000 C   0  0  0  0  0  0  0  0  0  0  0  0
   34.9850   30.3680   48.0250 N   0  0  0  0  0  0  0  0  0  0  0  0
   34.0140   29.4410   48.2670 C   0  0  0  0  0  0  0  0  0  0  0  0
   34.1110   28.5540   49.2640 N   0  0  0  0  0  0  0  0  0  0  0  0
   32.9400   29.5690   47.3370 N   0  0  0  0  0  0  0  0  0  0  0  0
   37.1570   31.4080   48.5550 C   0  0  0  0  0  0  0  0  0  0  0  0
   37.1940   32.3950   49.5420 C   0  0  0  0  0  0  0  0  0  0  0  0
   38.1370   33.4130   49.4580 C   0  0  0  0  0  0  0  0  0  0  0  0
   39.0290   33.4350   48.3930 C   0  0  0  0  0  0  0  0  0  0  0  0
   38.9590   32.4450   47.4420 C   0  0  0  0  0  0  0  0  0  0  0  0
   38.0450   31.4730   47.5380 N   0  0  0  0  0  0  0  0  0  0  0  0
   39.8930   32.4280   46.2840 C   0  0  0  0  0  0  0  0  0  0  0  0
   37.4330   29.4970   50.7500 C   0  0  0  0  0  0  0  0  0  0  0  0
   38.5950   29.8490   50.0820 F   0  0  0  0  0  0  0  0  0  0  0  0
   37.2230   30.3980   51.7550 F   0  0  0  0  0  0  0  0  0  0  0  0
   37.6370   28.2590   51.3320 F   0  0  0  0  0  0  0  0  0  0  0  0
   35.2872   27.8502   50.8676 H   0  0  0  0  0  0  0  0  0  0  0  0
   32.1304   28.9348   47.3947 H   0  0  0  0  0  0  0  0  0  0  0  0
   32.9741   30.2956   46.6078 H   0  0  0  0  0  0  0  0  0  0  0  0
   36.4820   32.3672   50.3801 H   0  0  0  0  0  0  0  0  0  0  0  0
   38.1767   34.1959   50.2296 H   0  0  0  0  0  0  0  0  0  0  0  0
   39.7810   34.2338   48.3120 H   0  0  0  0  0  0  0  0  0  0  0  0
   40.9302   32.4091   46.6498 H   0  0  0  0  0  0  0  0  0  0  0  0
   39.7033   31.5332   45.6730 H   0  0  0  0  0  0  0  0  0  0  0  0
   39.7360   33.3292   45.6730 H   0  0  0  0  0  0  0  0  0  0  0  0
  2  1  2  0
  2 15  1  0
  3  2  1  0
  4  5  1  0
  4  3  2  0
  5  6  2  0
  6  1  1  0
  7  5  1  0
  8  3  1  0
  8  9  2  0
 10  9  1  0
 11 10  2  0
 12 13  2  0
 12 11  1  0
 13  8  1  0
 14 12  1  0
 15 18  1  0
 15 17  1  0
 16 15  1  0
  1 19  1  0
  7 20  1  0
  7 21  1  0
  9 22  1  0
 10 23  1  0
 11 24  1  0
 14 25  1  0
 14 26  1  0
 14 27  1  0
M  ISO  7  19  14  22  14  23  14  24  14  25   8  26   8  27   8
M  END
>  <minimizedAffinity>  (1) 
-6.44436312

>  <minimizedRMSD>  (1) 
0.16059792

$$$$
