
     RDKit          3D

 45 48  0  0  1  0  0  0  0  0999 V2000
   34.3760   29.4400   48.3080 C   0  0  0  0  0  0  0  0  0  0  0  0
   35.7100   29.9710   48.6370 C   0  0  0  0  0  0  0  0  0  0  0  0
   36.5320   29.3700   49.6000 C   0  0  0  0  0  0  0  0  0  0  0  0
   37.6850   30.1010   49.6620 C   0  0  0  0  0  0  0  0  0  0  0  0
   37.5730   31.1030   48.7790 N   0  0  0  0  0  0  0  0  0  0  0  0
   36.4000   30.9930   48.1970 N   0  0  0  0  0  0  0  0  0  0  0  0
   38.4500   32.1550   48.4200 C   0  0  0  0  0  0  0  0  0  0  0  0
   38.6560   33.1250   49.3650 C   0  0  0  0  0  0  0  0  0  0  0  0
   39.4860   34.2340   49.1860 C   0  0  0  0  0  0  0  0  0  0  0  0
   40.1250   34.3160   47.9510 C   0  0  0  0  0  0  0  0  0  0  0  0
   39.9310   33.3550   46.9920 C   0  0  0  0  0  0  0  0  0  0  0  0
   39.1030   32.2700   47.1970 C   0  0  0  0  0  0  0  0  0  0  0  0
   34.2980   28.8120   46.9660 C   0  0  0  0  0  0  0  0  0  0  0  0
   34.0160   29.6640   45.8450 C   0  0  0  0  0  0  0  0  0  0  0  0
   32.7730   30.1960   45.6600 C   0  0  0  0  0  0  0  0  0  0  0  0
   32.5000   31.0350   44.5570 C   0  0  0  0  0  0  0  0  0  0  0  0
   33.5550   31.2690   43.7000 N   0  0  0  0  0  0  0  0  0  0  0  0
   34.7690   30.7220   43.9200 C   0  0  0  0  0  0  0  0  0  0  0  0
   34.9750   29.9290   44.9890 N   0  0  0  0  0  0  0  0  0  0  0  0
   36.3550   32.4280   43.0080 C   0  0  2  0  0  0  0  0  0  0  0  0
   35.8940   30.9960   42.9710 C   0  0  1  0  0  0  0  0  0  0  0  0
   37.1060   30.2380   43.4380 C   0  0  0  0  0  0  0  0  0  0  0  0
   38.1560   31.1630   43.4750 O   0  0  0  0  0  0  0  0  0  0  0  0
   37.5450   32.3440   43.9250 C   0  0  0  0  0  0  0  0  0  0  0  0
   35.4040   33.3280   43.4250 O   0  0  0  0  0  0  0  0  0  0  0  0
   34.1076   28.6844   49.0611 H   0  0  0  0  0  0  0  0  0  0  0  0
   33.6824   30.2937   48.3041 H   0  0  0  0  0  0  0  0  0  0  0  0
   36.2935   28.4762   50.1952 H   0  0  0  0  0  0  0  0  0  0  0  0
   38.5467   29.9033   50.3165 H   0  0  0  0  0  0  0  0  0  0  0  0
   38.1336   33.0239   50.3278 H   0  0  0  0  0  0  0  0  0  0  0  0
   39.6260   34.9934   49.9694 H   0  0  0  0  0  0  0  0  0  0  0  0
   40.7946   35.1634   47.7420 H   0  0  0  0  0  0  0  0  0  0  0  0
   40.4522   33.4521   46.0282 H   0  0  0  0  0  0  0  0  0  0  0  0
   38.9626   31.5133   46.4111 H   0  0  0  0  0  0  0  0  0  0  0  0
   35.2661   28.3263   46.7740 H   0  0  0  0  0  0  0  0  0  0  0  0
   33.4323   28.1359   47.0257 H   0  0  0  0  0  0  0  0  0  0  0  0
   31.9728   29.9683   46.3796 H   0  0  0  0  0  0  0  0  0  0  0  0
   31.5057   31.4753   44.3914 H   0  0  0  0  0  0  0  0  0  0  0  0
   36.5884   32.8245   42.0088 H   0  0  0  0  0  0  0  0  0  0  0  0
   35.5221   30.7234   41.9723 H   0  0  0  0  0  0  0  0  0  0  0  0
   36.9311   29.8196   44.4402 H   0  0  0  0  0  0  0  0  0  0  0  0
   37.3361   29.3977   42.7664 H   0  0  0  0  0  0  0  0  0  0  0  0
   38.2091   33.2125   43.8036 H   0  0  0  0  0  0  0  0  0  0  0  0
   37.2899   32.3398   44.9950 H   0  0  0  0  0  0  0  0  0  0  0  0
   35.3813   33.3494   44.4145 H   0  0  0  0  0  0  0  0  0  0  0  0
  1  2  1  0
  2  3  1  0
  3  4  2  0
  5  4  1  0
  6  2  2  0
  6  5  1  0
  7  5  1  0
  7  8  2  0
  9  8  1  0
 10  9  2  0
 11 12  2  0
 11 10  1  0
 12  7  1  0
 13  1  1  0
 14 13  1  0
 15 14  2  0
 16 15  1  0
 17 18  1  0
 17 16  2  0
 18 19  2  0
 19 14  1  0
 20 25  1  0
 20 24  1  0
 21 20  1  0
 21 22  1  0
 21 18  1  0
 22 23  1  0
 23 24  1  0
  1 26  1  0
  1 27  1  0
  3 28  1  0
  4 29  1  0
  8 30  1  0
  9 31  1  0
 10 32  1  0
 11 33  1  0
 12 34  1  0
 13 35  1  0
 13 36  1  0
 15 37  1  0
 16 38  1  0
 20 39  1  6
 21 40  1  6
 22 41  1  0
 22 42  1  0
 24 43  1  0
 24 44  1  0
 25 45  1  0
M  ISO  8  26   8  27   8  28  14  29  14  30  14  31  14  32  14  33  14
M  ISO  8  34  14  35   8  36   8  37  14  38  14  39  13  40  13  41  13
M  ISO  4  42  13  43  13  44  13  45   3
M  END
>  <minimizedAffinity>  (1) 
-6.15495539

>  <minimizedRMSD>  (1) 
0.573141694

$$$$
