
     RDKit          3D

 33 34  0  0  1  0  0  0  0  0999 V2000
   38.9600   32.4080   46.4850 C   0  0  0  0  0  0  0  0  0  0  0  0
   40.0170   33.1130   45.9430 C   0  0  0  0  0  0  0  0  0  0  0  0
   40.0510   33.3900   44.5630 C   0  0  0  0  0  0  0  0  0  0  0  0
   38.9960   32.9240   43.8280 N   0  0  0  0  0  0  0  0  0  0  0  0
   37.9700   32.2320   44.3970 C   0  0  0  0  0  0  0  0  0  0  0  0
   37.9550   31.9830   45.6870 N   0  0  0  0  0  0  0  0  0  0  0  0
   36.3090   32.9080   42.6510 C   0  0  1  0  0  0  0  0  0  0  0  0
   36.8910   31.7850   43.4900 C   0  0  1  0  0  0  0  0  0  0  0  0
   37.3340   30.8400   42.4190 C   0  0  0  0  0  0  0  0  0  0  0  0
   36.5150   31.0130   41.3180 O   0  0  0  0  0  0  0  0  0  0  0  0
   35.6780   32.0950   41.5430 C   0  0  0  0  0  0  0  0  0  0  0  0
   35.3260   33.5970   43.3460 O   0  0  0  0  0  0  0  0  0  0  0  0
   39.0880   32.2270   47.8460 O   0  0  0  0  0  0  0  0  0  0  0  0
   37.9240   32.2580   48.5910 C   0  0  0  0  0  0  0  0  0  0  0  0
   37.9470   30.9920   49.0640 C   0  0  0  0  0  0  0  0  0  0  0  0
   38.1980   30.8220   50.5260 C   0  0  0  0  0  0  0  0  0  0  0  0
   37.0390   29.6970   51.3060 S   0  0  0  0  0  0  0  0  0  0  0  0
   40.8350   33.4592   46.5918 H   0  0  0  0  0  0  0  0  0  0  0  0
   40.8787   33.9492   44.1024 H   0  0  0  0  0  0  0  0  0  0  0  0
   37.0355   33.6719   42.3368 H   0  0  0  0  0  0  0  0  0  0  0  0
   36.1881   31.3362   44.2073 H   0  0  0  0  0  0  0  0  0  0  0  0
   38.3772   31.0537   42.1432 H   0  0  0  0  0  0  0  0  0  0  0  0
   37.2686   29.8028   42.7794 H   0  0  0  0  0  0  0  0  0  0  0  0
   35.5894   32.7023   40.6301 H   0  0  0  0  0  0  0  0  0  0  0  0
   34.6672   31.7626   41.8219 H   0  0  0  0  0  0  0  0  0  0  0  0
   35.4751   33.4925   44.3191 H   0  0  0  0  0  0  0  0  0  0  0  0
   37.9707   33.0022   49.3997 H   0  0  0  0  0  0  0  0  0  0  0  0
   37.0153   32.5428   48.0404 H   0  0  0  0  0  0  0  0  0  0  0  0
   36.9720   30.5353   48.8388 H   0  0  0  0  0  0  0  0  0  0  0  0
   38.8058   30.5160   48.5682 H   0  0  0  0  0  0  0  0  0  0  0  0
   39.2160   30.4288   50.6641 H   0  0  0  0  0  0  0  0  0  0  0  0
   38.0722   31.8068   50.9996 H   0  0  0  0  0  0  0  0  0  0  0  0
   37.1470   29.8018   52.6677 H   0  0  0  0  0  0  0  0  0  0  0  0
  1 13  1  0
  2  1  2  0
  3  2  1  0
  4  5  1  0
  4  3  2  0
  5  6  2  0
  6  1  1  0
  7 12  1  0
  7  8  1  0
  8  5  1  0
  9  8  1  0
 10 11  1  0
 10  9  1  0
 11  7  1  0
 13 14  1  0
 14 15  1  0
 15 16  1  0
 16 17  1  0
  2 18  1  0
  3 19  1  0
  7 20  1  6
  8 21  1  1
  9 22  1  0
  9 23  1  0
 11 24  1  0
 11 25  1  0
 12 26  1  0
 14 27  1  0
 14 28  1  0
 15 29  1  0
 15 30  1  0
 16 31  1  0
 16 32  1  0
 17 33  1  0
M  ISO  8  18  14  19  14  20  13  21  13  22  13  23  13  24  13  25  13
M  ISO  8  26   3  27   8  28   8  29   8  30   8  31   8  32   8  33  11
M  END
>  <minimizedAffinity>  (1) 
-4.60009003

>  <minimizedRMSD>  (1) 
1.01970589

$$$$
