
     RDKit          3D

 29 31  0  0  1  0  0  0  0  0999 V2000
   36.8360   29.9310   48.8940 C   0  0  0  0  0  0  0  0  0  0  0  0
   37.2280   30.5790   47.7190 C   0  0  0  0  0  0  0  0  0  0  0  0
   36.2720   30.5300   46.6820 C   0  0  0  0  0  0  0  0  0  0  0  0
   35.0780   29.8880   46.8680 N   0  0  0  0  0  0  0  0  0  0  0  0
   34.7560   29.2760   48.0400 C   0  0  0  0  0  0  0  0  0  0  0  0
   35.6410   29.3000   49.0500 N   0  0  0  0  0  0  0  0  0  0  0  0
   37.7910   30.0650   50.0540 C   0  0  0  0  0  0  0  0  0  0  0  0
   37.3170   30.3360   51.3860 C   0  0  0  0  0  0  0  0  0  0  0  0
   37.6190   28.9000   51.0440 C   0  0  0  0  0  0  0  0  0  0  0  0
   38.6990   31.8090   46.0920 C   0  0  2  0  0  0  0  0  0  0  0  0
   38.4790   31.2750   47.4940 C   0  0  1  0  0  0  0  0  0  0  0  0
   38.4560   32.6500   48.1940 C   0  0  0  0  0  0  0  0  0  0  0  0
   39.5950   33.2920   47.6890 O   0  0  0  0  0  0  0  0  0  0  0  0
   39.7930   32.8160   46.4050 C   0  0  0  0  0  0  0  0  0  0  0  0
   37.5840   32.4510   45.6110 O   0  0  0  0  0  0  0  0  0  0  0  0
   36.4883   31.0115   45.7169 H   0  0  0  0  0  0  0  0  0  0  0  0
   33.7866   28.7698   48.1583 H   0  0  0  0  0  0  0  0  0  0  0  0
   38.5829   30.5500   49.4644 H   0  0  0  0  0  0  0  0  0  0  0  0
   37.9664   30.8725   52.0934 H   0  0  0  0  0  0  0  0  0  0  0  0
   36.4326   30.8520   51.7880 H   0  0  0  0  0  0  0  0  0  0  0  0
   36.8044   28.1720   50.9156 H   0  0  0  0  0  0  0  0  0  0  0  0
   38.2528   28.0986   51.4516 H   0  0  0  0  0  0  0  0  0  0  0  0
   38.9302   31.0498   45.3303 H   0  0  0  0  0  0  0  0  0  0  0  0
   39.2093   30.5149   47.8085 H   0  0  0  0  0  0  0  0  0  0  0  0
   37.5434   33.2074   47.9362 H   0  0  0  0  0  0  0  0  0  0  0  0
   38.4582   32.5728   49.2913 H   0  0  0  0  0  0  0  0  0  0  0  0
   40.7768   32.3286   46.3372 H   0  0  0  0  0  0  0  0  0  0  0  0
   39.7589   33.6468   45.6848 H   0  0  0  0  0  0  0  0  0  0  0  0
   37.0329   32.7683   46.3697 H   0  0  0  0  0  0  0  0  0  0  0  0
  1  6  1  0
  1  7  1  0
  2  1  2  0
  3  4  2  0
  3  2  1  0
  4  5  1  0
  5  6  2  0
  7  9  1  0
  7  8  1  0
  9  8  1  0
 10 15  1  0
 10 14  1  0
 10 11  1  0
 11  2  1  0
 11 12  1  0
 13 12  1  0
 14 13  1  0
  3 16  1  0
  5 17  1  0
  7 18  1  0
  8 19  1  0
  8 20  1  0
  9 21  1  0
  9 22  1  0
 10 23  1  6
 11 24  1  1
 12 25  1  0
 12 26  1  0
 14 27  1  0
 14 28  1  0
 15 29  1  0
M  ISO  8  16  14  17  14  18  13  19  13  20  13  21  13  22  13  23  13
M  ISO  6  24  13  25  13  26  13  27  13  28  13  29   3
M  END
>  <minimizedAffinity>  (1) 
-5.34912491

>  <minimizedRMSD>  (1) 
4.25478077

$$$$
