
     RDKit          3D

 45 49  0  0  1  0  0  0  0  0999 V2000
   37.4890   31.0950   49.6180 C   0  0  0  0  0  0  0  0  0  0  0  0
   37.7100   30.6820   50.8960 C   0  0  0  0  0  0  0  0  0  0  0  0
   36.8830   29.7360   51.4420 C   0  0  0  0  0  0  0  0  0  0  0  0
   35.8570   29.2210   50.7120 N   0  0  0  0  0  0  0  0  0  0  0  0
   35.6710   29.6470   49.4670 C   0  0  0  0  0  0  0  0  0  0  0  0
   36.4670   30.5760   48.9050 N   0  0  0  0  0  0  0  0  0  0  0  0
   34.5700   29.0970   48.6790 C   0  0  0  0  0  0  0  0  0  0  0  0
   34.5550   29.1820   47.3160 C   0  0  0  0  0  0  0  0  0  0  0  0
   33.5950   28.7150   46.4490 C   0  0  0  0  0  0  0  0  0  0  0  0
   32.5220   28.0820   47.0810 C   0  0  0  0  0  0  0  0  0  0  0  0
   31.5350   27.5930   46.2950 N   0  0  0  0  0  0  0  0  0  0  0  0
   30.4520   26.9640   46.8020 C   0  0  0  0  0  0  0  0  0  0  0  0
   30.3520   26.8140   48.1800 C   0  0  0  0  0  0  0  0  0  0  0  0
   31.3620   27.3140   48.9790 C   0  0  0  0  0  0  0  0  0  0  0  0
   32.4770   27.9620   48.4570 C   0  0  0  0  0  0  0  0  0  0  0  0
   33.4820   28.4600   49.2550 C   0  0  0  0  0  0  0  0  0  0  0  0
   39.5120   34.1080   49.0240 C   0  0  0  0  0  0  0  0  0  0  0  0
   39.9090   33.9550   47.6900 C   0  0  0  0  0  0  0  0  0  0  0  0
   39.4670   32.7940   46.9980 C   0  0  0  0  0  0  0  0  0  0  0  0
   38.6890   31.9200   47.6890 N   0  0  0  0  0  0  0  0  0  0  0  0
   38.3310   32.1020   48.9670 C   0  0  0  0  0  0  0  0  0  0  0  0
   38.7440   33.2020   49.6380 N   0  0  0  0  0  0  0  0  0  0  0  0
   38.8700   32.1090   44.6550 C   0  0  2  0  0  0  0  0  0  0  0  0
   39.8780   32.6290   45.6040 C   0  0  2  0  0  0  0  0  0  0  0  0
   41.0200   31.6580   45.4320 C   0  0  0  0  0  0  0  0  0  0  0  0
   40.9270   31.0800   44.1950 O   0  0  0  0  0  0  0  0  0  0  0  0
   39.7620   31.4990   43.5740 C   0  0  0  0  0  0  0  0  0  0  0  0
   38.0810   33.0580   44.0300 O   0  0  0  0  0  0  0  0  0  0  0  0
   38.5408   31.1018   51.4821 H   0  0  0  0  0  0  0  0  0  0  0  0
   37.0490   29.3919   52.4735 H   0  0  0  0  0  0  0  0  0  0  0  0
   35.4171   29.6861   46.8548 H   0  0  0  0  0  0  0  0  0  0  0  0
   33.6656   28.8295   45.3573 H   0  0  0  0  0  0  0  0  0  0  0  0
   29.6650   26.5783   46.1372 H   0  0  0  0  0  0  0  0  0  0  0  0
   29.4843   26.3063   48.6265 H   0  0  0  0  0  0  0  0  0  0  0  0
   31.2816   27.1952   50.0696 H   0  0  0  0  0  0  0  0  0  0  0  0
   33.4218   28.3526   50.3481 H   0  0  0  0  0  0  0  0  0  0  0  0
   39.8407   34.9973   49.5817 H   0  0  0  0  0  0  0  0  0  0  0  0
   40.5409   34.7068   47.1945 H   0  0  0  0  0  0  0  0  0  0  0  0
   38.1598   31.4563   45.1838 H   0  0  0  0  0  0  0  0  0  0  0  0
   40.1220   33.6757   45.3699 H   0  0  0  0  0  0  0  0  0  0  0  0
   41.9767   32.1939   45.5183 H   0  0  0  0  0  0  0  0  0  0  0  0
   40.9708   30.8826   46.2107 H   0  0  0  0  0  0  0  0  0  0  0  0
   39.9935   32.2523   42.8066 H   0  0  0  0  0  0  0  0  0  0  0  0
   39.2570   30.6559   43.0799 H   0  0  0  0  0  0  0  0  0  0  0  0
   37.6232   33.6086   44.7136 H   0  0  0  0  0  0  0  0  0  0  0  0
  1  2  2  0
  2  3  1  0
  4  3  2  0
  5  4  1  0
  6  5  2  0
  6  1  1  0
  7 16  1  0
  7  5  1  0
  8  7  2  0
  9 10  2  0
  9  8  1  0
 10 15  1  0
 11 12  2  0
 11 10  1  0
 12 13  1  0
 13 14  2  0
 15 14  1  0
 15 16  2  0
 17 22  2  0
 18 17  1  0
 19 20  1  0
 19 18  2  0
 20 21  2  0
 21  1  1  0
 21 22  1  0
 23 28  1  0
 23 24  1  0
 24 19  1  0
 25 24  1  0
 26 25  1  0
 27 26  1  0
 27 23  1  0
  2 29  1  0
  3 30  1  0
  8 31  1  0
  9 32  1  0
 12 33  1  0
 13 34  1  0
 14 35  1  0
 16 36  1  0
 17 37  1  0
 18 38  1  0
 23 39  1  1
 24 40  1  6
 25 41  1  0
 25 42  1  0
 27 43  1  0
 27 44  1  0
 28 45  1  0
M  END
>  <minimizedAffinity>  (1) 
-7.91147661

>  <minimizedRMSD>  (1) 
0.139232457

$$$$
