
     RDKit          3D

 39 42  0  0  1  0  0  0  0  0999 V2000
   38.4590   30.8540   46.6120 Br  0  0  0  0  0  0  0  0  0  0  0  0
   36.6040   30.4770   46.3330 C   0  0  0  0  0  0  0  0  0  0  0  0
   35.7820   30.2370   47.4130 C   0  0  0  0  0  0  0  0  0  0  0  0
   34.4330   29.9740   47.1590 C   0  0  0  0  0  0  0  0  0  0  0  0
   33.9720   29.9630   45.8590 C   0  0  0  0  0  0  0  0  0  0  0  0
   34.8060   30.2070   44.7690 C   0  0  0  0  0  0  0  0  0  0  0  0
   36.1250   30.4630   45.0310 C   0  0  0  0  0  0  0  0  0  0  0  0
   37.1920   31.4800   50.6850 C   0  0  0  0  0  0  0  0  0  0  0  0
   36.6270   31.4520   49.4060 C   0  0  0  0  0  0  0  0  0  0  0  0
   36.3750   30.2730   48.7420 C   0  0  0  0  0  0  0  0  0  0  0  0
   36.7130   29.1260   49.4090 N   0  0  0  0  0  0  0  0  0  0  0  0
   37.2590   29.1450   50.6420 C   0  0  0  0  0  0  0  0  0  0  0  0
   37.5000   30.3000   51.2820 N   0  0  0  0  0  0  0  0  0  0  0  0
   37.0560   30.7280   43.9280 C   0  0  0  0  0  0  0  0  0  0  0  0
   37.2660   31.9360   43.3220 C   0  0  0  0  0  0  0  0  0  0  0  0
   38.1870   31.8210   42.3550 N   0  0  0  0  0  0  0  0  0  0  0  0
   38.5690   30.5190   42.3440 C   0  0  0  0  0  0  0  0  0  0  0  0
   37.8920   29.8430   43.2920 N   0  0  0  0  0  0  0  0  0  0  0  0
   40.6190   29.0930   42.2340 C   0  0  1  0  0  0  0  0  0  0  0  0
   39.5710   29.8710   41.4560 C   0  0  2  0  0  0  0  0  0  0  0  0
   40.4660   30.8870   40.7850 C   0  0  0  0  0  0  0  0  0  0  0  0
   41.6400   30.2330   40.4550 O   0  0  0  0  0  0  0  0  0  0  0  0
   41.6990   29.0340   41.1460 C   0  0  0  0  0  0  0  0  0  0  0  0
   41.1240   29.7920   43.3190 O   0  0  0  0  0  0  0  0  0  0  0  0
   33.7421   29.7767   47.9919 H   0  0  0  0  0  0  0  0  0  0  0  0
   32.9077   29.7541   45.6758 H   0  0  0  0  0  0  0  0  0  0  0  0
   34.4196   30.1943   43.7392 H   0  0  0  0  0  0  0  0  0  0  0  0
   37.3824   32.4356   51.1954 H   0  0  0  0  0  0  0  0  0  0  0  0
   36.3757   32.4035   48.9145 H   0  0  0  0  0  0  0  0  0  0  0  0
   37.5122   28.1940   51.1335 H   0  0  0  0  0  0  0  0  0  0  0  0
   36.7515   32.8704   43.5904 H   0  0  0  0  0  0  0  0  0  0  0  0
   38.5355   32.5718   41.7420 H   0  0  0  0  0  0  0  0  0  0  0  0
   40.2525   28.1466   42.6582 H   0  0  0  0  0  0  0  0  0  0  0  0
   38.9517   29.2643   40.7790 H   0  0  0  0  0  0  0  0  0  0  0  0
   39.9820   31.2764   39.8772 H   0  0  0  0  0  0  0  0  0  0  0  0
   40.6641   31.7387   41.4523 H   0  0  0  0  0  0  0  0  0  0  0  0
   41.5028   28.1940   40.4634 H   0  0  0  0  0  0  0  0  0  0  0  0
   42.6950   28.8828   41.5877 H   0  0  0  0  0  0  0  0  0  0  0  0
   40.8163   29.3661   44.1581 H   0  0  0  0  0  0  0  0  0  0  0  0
  2  1  1  0
  2  3  2  0
  3 10  1  0
  4  3  1  0
  5  4  2  0
  6  7  2  0
  6  5  1  0
  7  2  1  0
  8 13  2  0
  9  8  1  0
 10  9  2  0
 10 11  1  0
 11 12  2  0
 12 13  1  0
 14  7  1  0
 15 14  2  0
 16 15  1  0
 17 16  1  0
 17 18  2  0
 18 14  1  0
 19 24  1  0
 20 19  1  0
 20 17  1  0
 21 20  1  0
 22 21  1  0
 22 23  1  0
 23 19  1  0
  4 25  1  0
  5 26  1  0
  6 27  1  0
  8 28  1  0
  9 29  1  0
 12 30  1  0
 15 31  1  0
 16 32  1  0
 19 33  1  1
 20 34  1  6
 21 35  1  0
 21 36  1  0
 23 37  1  0
 23 38  1  0
 24 39  1  0
M  ISO  8  25  14  26  14  27  14  28  14  29  14  30  14  31  14  32   9
M  ISO  7  33  13  34  13  35  13  36  13  37  13  38  13  39   3
M  END
>  <minimizedAffinity>  (1) 
-5.80635166

>  <minimizedRMSD>  (1) 
3.45078778

$$$$
