
     RDKit          3D

 32 34  0  0  1  0  0  0  0  0999 V2000
   35.8080   29.0630   49.2650 C   0  0  0  0  0  0  0  0  0  0  0  0
   35.6830   30.2430   48.4790 C   0  0  0  0  0  0  0  0  0  0  0  0
   34.5820   30.3500   47.6440 C   0  0  0  0  0  0  0  0  0  0  0  0
   33.6790   29.3350   47.6120 N   0  0  0  0  0  0  0  0  0  0  0  0
   33.8100   28.2330   48.3550 C   0  0  0  0  0  0  0  0  0  0  0  0
   34.8650   28.0920   49.1780 N   0  0  0  0  0  0  0  0  0  0  0  0
   36.7000   31.2310   48.6080 N   0  0  0  0  0  0  0  0  0  0  0  0
   36.8160   32.0000   49.7040 C   0  0  0  0  0  0  0  0  0  0  0  0
   37.8220   32.9570   49.7980 C   0  0  0  0  0  0  0  0  0  0  0  0
   38.6370   33.0050   48.6720 C   0  0  0  0  0  0  0  0  0  0  0  0
   39.5740   33.8720   48.7180 O   0  0  0  0  0  0  0  0  0  0  0  0
   38.5560   32.2610   47.5660 N   0  0  0  0  0  0  0  0  0  0  0  0
   37.5500   31.3530   47.5560 C   0  0  0  0  0  0  0  0  0  0  0  0
   37.4500   30.6340   46.5160 O   0  0  0  0  0  0  0  0  0  0  0  0
   32.4860   26.7980   46.8230 C   0  0  2  0  0  0  0  0  0  0  0  0
   32.7740   27.1730   48.2560 C   0  0  2  0  0  0  0  0  0  0  0  0
   31.4260   27.5830   48.7470 C   0  0  0  0  0  0  0  0  0  0  0  0
   30.6410   27.9570   47.6750 O   0  0  0  0  0  0  0  0  0  0  0  0
   31.2320   27.5660   46.5030 C   0  0  0  0  0  0  0  0  0  0  0  0
   32.2090   25.4440   46.6690 O   0  0  0  0  0  0  0  0  0  0  0  0
   36.6668   28.9389   49.9410 H   0  0  0  0  0  0  0  0  0  0  0  0
   34.4413   31.2427   47.0169 H   0  0  0  0  0  0  0  0  0  0  0  0
   36.1080   31.8716   50.5360 H   0  0  0  0  0  0  0  0  0  0  0  0
   37.9586   33.6089   50.6734 H   0  0  0  0  0  0  0  0  0  0  0  0
   39.2104   32.3694   46.7780 H   0  0  0  0  0  0  0  0  0  0  0  0
   33.3505   27.0187   46.1797 H   0  0  0  0  0  0  0  0  0  0  0  0
   33.2080   26.3639   48.8618 H   0  0  0  0  0  0  0  0  0  0  0  0
   30.9538   26.7386   49.2705 H   0  0  0  0  0  0  0  0  0  0  0  0
   31.5299   28.4313   49.4395 H   0  0  0  0  0  0  0  0  0  0  0  0
   31.4848   28.4526   45.9030 H   0  0  0  0  0  0  0  0  0  0  0  0
   30.5408   26.9299   45.9307 H   0  0  0  0  0  0  0  0  0  0  0  0
   32.1225   25.0214   47.5601 H   0  0  0  0  0  0  0  0  0  0  0  0
  2  7  1  0
  2  1  2  0
  3  2  1  0
  4  3  2  0
  4  5  1  0
  5  6  2  0
  6  1  1  0
  7  8  1  0
  8  9  2  0
 10 11  2  0
 10  9  1  0
 12 10  1  0
 13 12  1  0
 13  7  1  0
 14 13  2  0
 15 20  1  0
 15 16  1  0
 16  5  1  0
 16 17  1  0
 18 17  1  0
 19 15  1  0
 19 18  1  0
  1 21  1  0
  3 22  1  0
  8 23  1  0
  9 24  1  0
 12 25  1  0
 15 26  1  6
 16 27  1  1
 17 28  1  0
 17 29  1  0
 19 30  1  0
 19 31  1  0
 20 32  1  0
M  ISO  8  21  14  22  14  23  14  24  14  25   9  26  13  27  13  28  13
M  ISO  4  29  13  30  13  31  13  32   3
M  END
>  <minimizedAffinity>  (1) 
-5.41992426

>  <minimizedRMSD>  (1) 
1.27508509

$$$$
