
     RDKit          3D

 43 47  0  0  1  0  0  0  0  0999 V2000
   33.0120   30.1370   46.3590 C   0  0  1  0  0  0  0  0  0  0  0  0
   33.5190   28.6720   46.4950 C   0  0  0  0  0  0  0  0  0  0  0  0
   34.1330   29.6310   45.5420 C   0  0  2  0  0  0  0  0  0  0  0  0
   29.6190   29.8660   45.1710 C   0  0  0  0  0  0  0  0  0  0  0  0
   29.9890   31.0720   44.5980 C   0  0  0  0  0  0  0  0  0  0  0  0
   31.3190   31.3460   44.9630 C   0  0  0  0  0  0  0  0  0  0  0  0
   31.7110   30.3140   45.7350 N   0  0  0  0  0  0  0  0  0  0  0  0
   30.6990   29.4740   45.8350 N   0  0  0  0  0  0  0  0  0  0  0  0
   27.6020   29.3240   43.7830 C   0  0  0  0  0  0  0  0  0  0  0  0
   28.3200   29.2720   45.0090 C   0  0  0  0  0  0  0  0  0  0  0  0
   27.7220   28.6160   46.0810 C   0  0  0  0  0  0  0  0  0  0  0  0
   26.4870   28.0630   45.8960 N   0  0  0  0  0  0  0  0  0  0  0  0
   25.8420   28.1370   44.7090 C   0  0  0  0  0  0  0  0  0  0  0  0
   26.4030   28.7720   43.6440 N   0  0  0  0  0  0  0  0  0  0  0  0
   35.5100   30.1410   45.8240 C   0  0  0  0  0  0  0  0  0  0  0  0
   36.4310   30.5230   44.8340 C   0  0  0  0  0  0  0  0  0  0  0  0
   37.5670   30.9300   45.4230 N   0  0  0  0  0  0  0  0  0  0  0  0
   37.3810   30.8110   46.7620 C   0  0  0  0  0  0  0  0  0  0  0  0
   36.1480   30.3390   47.0040 N   0  0  0  0  0  0  0  0  0  0  0  0
   38.3210   32.6150   48.1850 C   0  0  1  0  0  0  0  0  0  0  0  0
   38.2900   31.1130   47.8810 C   0  0  1  0  0  0  0  0  0  0  0  0
   37.8320   30.5620   49.1900 C   0  0  0  0  0  0  0  0  0  0  0  0
   37.9550   31.5490   50.1560 O   0  0  0  0  0  0  0  0  0  0  0  0
   38.7830   32.5340   49.6380 C   0  0  0  0  0  0  0  0  0  0  0  0
   39.2320   33.2850   47.3860 O   0  0  0  0  0  0  0  0  0  0  0  0
   32.8707   31.0013   47.0246 H   0  0  0  0  0  0  0  0  0  0  0  0
   34.0670   28.3552   47.3946 H   0  0  0  0  0  0  0  0  0  0  0  0
   33.0677   27.6712   46.4267 H   0  0  0  0  0  0  0  0  0  0  0  0
   34.3299   29.6013   44.4602 H   0  0  0  0  0  0  0  0  0  0  0  0
   29.3511   31.7068   43.9655 H   0  0  0  0  0  0  0  0  0  0  0  0
   31.9171   32.2237   44.6767 H   0  0  0  0  0  0  0  0  0  0  0  0
   28.0546   29.8381   42.9222 H   0  0  0  0  0  0  0  0  0  0  0  0
   28.2315   28.5447   47.0533 H   0  0  0  0  0  0  0  0  0  0  0  0
   24.8486   27.6767   44.6031 H   0  0  0  0  0  0  0  0  0  0  0  0
   36.2502   30.4934   43.7494 H   0  0  0  0  0  0  0  0  0  0  0  0
   38.4169   31.2678   44.9492 H   0  0  0  0  0  0  0  0  0  0  0  0
   37.3833   33.1626   48.0092 H   0  0  0  0  0  0  0  0  0  0  0  0
   39.2461   30.6839   47.5469 H   0  0  0  0  0  0  0  0  0  0  0  0
   36.7802   30.2494   49.1122 H   0  0  0  0  0  0  0  0  0  0  0  0
   38.4448   29.6908   49.4646 H   0  0  0  0  0  0  0  0  0  0  0  0
   39.8411   32.2405   49.7040 H   0  0  0  0  0  0  0  0  0  0  0  0
   38.7183   33.4917   50.1752 H   0  0  0  0  0  0  0  0  0  0  0  0
   39.8830   33.7638   47.9579 H   0  0  0  0  0  0  0  0  0  0  0  0
  1  2  1  0
  3 15  1  0
  3  1  1  0
  3  2  1  0
  4  8  2  0
  5  6  2  0
  5  4  1  0
  6  7  1  0
  7  8  1  0
  7  1  1  0
  9 10  2  0
 10  4  1  0
 10 11  1  0
 12 11  2  0
 13 12  1  0
 14  9  1  0
 14 13  2  0
 15 19  1  0
 16 17  1  0
 16 15  2  0
 17 18  1  0
 18 19  2  0
 20 25  1  0
 20 24  1  0
 21 18  1  0
 21 20  1  0
 21 22  1  0
 22 23  1  0
 24 23  1  0
  1 26  1  1
  2 27  1  0
  2 28  1  0
  3 29  1  6
  5 30  1  0
  6 31  1  0
  9 32  1  0
 11 33  1  0
 13 34  1  0
 16 35  1  0
 17 36  1  0
 20 37  1  1
 21 38  1  6
 22 39  1  0
 22 40  1  0
 24 41  1  0
 24 42  1  0
 25 43  1  0
M  ISO  8  26  13  27  13  28  13  29  13  30  14  31  14  32  14  33  14
M  ISO  8  34  14  35  14  36   9  37  13  38  13  39  13  40  13  41  13
M  ISO  2  42  13  43   3
M  END
>  <minimizedAffinity>  (1) 
-5.152215

>  <minimizedRMSD>  (1) 
4.7223568

$$$$
