
     RDKit          3D

 45 48  0  0  1  0  0  0  0  0999 V2000
   36.6210   31.1740   50.0690 C   0  0  0  0  0  0  0  0  0  0  0  0
   35.5340   30.3240   49.8430 C   0  0  0  0  0  0  0  0  0  0  0  0
   35.3320   29.2140   50.6380 C   0  0  0  0  0  0  0  0  0  0  0  0
   36.2290   28.9910   51.6370 N   0  0  0  0  0  0  0  0  0  0  0  0
   37.2800   29.8260   51.8450 C   0  0  0  0  0  0  0  0  0  0  0  0
   37.4560   30.8910   51.0670 N   0  0  0  0  0  0  0  0  0  0  0  0
   34.2320   29.3750   48.0160 C   0  0  0  0  0  0  0  0  0  0  0  0
   34.7180   28.1880   47.8720 O   0  0  0  0  0  0  0  0  0  0  0  0
   34.5680   30.4830   48.8380 N   0  0  0  0  0  0  0  0  0  0  0  0
   32.9740   30.5950   45.0290 C   0  0  2  0  0  0  0  0  0  0  0  0
   32.8400   30.8240   46.5230 C   0  0  0  0  0  0  0  0  0  0  0  0
   33.0880   29.4470   47.0560 C   0  0  1  0  0  0  0  0  0  0  0  0
   33.3170   28.6070   45.9900 O   0  0  0  0  0  0  0  0  0  0  0  0
   32.5320   29.1480   44.9450 C   0  0  0  0  0  0  0  0  0  0  0  0
   34.3200   30.6680   44.7050 O   0  0  0  0  0  0  0  0  0  0  0  0
   36.6550   32.2060   49.1930 O   0  0  0  0  0  0  0  0  0  0  0  0
   38.1940   32.1480   47.2550 C   0  0  0  0  0  0  0  0  0  0  0  0
   37.7880   32.6140   48.4910 C   0  0  0  0  0  0  0  0  0  0  0  0
   38.5210   33.5780   49.1600 C   0  0  0  0  0  0  0  0  0  0  0  0
   39.6820   34.0790   48.5730 C   0  0  0  0  0  0  0  0  0  0  0  0
   40.0870   33.6140   47.3390 C   0  0  0  0  0  0  0  0  0  0  0  0
   39.3270   32.6550   46.7130 C   0  0  0  0  0  0  0  0  0  0  0  0
   39.7720   32.1640   45.3890 C   0  0  0  0  0  0  0  0  0  0  0  0
   40.6220   31.1420   45.0760 C   0  0  0  0  0  0  0  0  0  0  0  0
   40.7190   31.0780   43.6870 C   0  0  0  0  0  0  0  0  0  0  0  0
   39.9050   32.0890   43.2410 C   0  0  0  0  0  0  0  0  0  0  0  0
   39.3570   32.7140   44.2600 O   0  0  0  0  0  0  0  0  0  0  0  0
   36.7180   30.3690   46.1250 N   0  0  0  0  0  0  0  0  0  0  0  0
   37.3810   31.1520   46.6310 C   0  0  0  0  0  0  0  0  0  0  0  0
   34.4810   28.5373   50.4710 H   0  0  0  0  0  0  0  0  0  0  0  0
   37.9890   29.6208   52.6606 H   0  0  0  0  0  0  0  0  0  0  0  0
   34.1075   31.3936   48.6980 H   0  0  0  0  0  0  0  0  0  0  0  0
   32.4241   31.2942   44.3818 H   0  0  0  0  0  0  0  0  0  0  0  0
   33.5915   31.5388   46.8895 H   0  0  0  0  0  0  0  0  0  0  0  0
   31.8756   31.2571   46.8270 H   0  0  0  0  0  0  0  0  0  0  0  0
   32.1967   29.1430   47.6244 H   0  0  0  0  0  0  0  0  0  0  0  0
   31.4552   29.0352   45.1392 H   0  0  0  0  0  0  0  0  0  0  0  0
   32.6659   28.6723   43.9623 H   0  0  0  0  0  0  0  0  0  0  0  0
   34.8582   30.6972   45.5354 H   0  0  0  0  0  0  0  0  0  0  0  0
   38.1916   33.9448   50.1434 H   0  0  0  0  0  0  0  0  0  0  0  0
   40.2751   34.8451   49.0938 H   0  0  0  0  0  0  0  0  0  0  0  0
   41.0003   34.0031   46.8653 H   0  0  0  0  0  0  0  0  0  0  0  0
   41.1382   30.4861   45.7925 H   0  0  0  0  0  0  0  0  0  0  0  0
   41.3137   30.3757   43.0844 H   0  0  0  0  0  0  0  0  0  0  0  0
   39.7354   32.3403   42.1836 H   0  0  0  0  0  0  0  0  0  0  0  0
  1  6  2  0
  2  1  1  0
  2  3  2  0
  3  4  1  0
  4  5  2  0
  6  5  1  0
  7  9  1  0
  8  7  2  0
  9  2  1  0
 10 15  1  0
 10 11  1  0
 11 12  1  0
 12  7  1  0
 13 12  1  0
 14 10  1  0
 14 13  1  0
 16  1  1  0
 17 18  2  0
 18 19  1  0
 18 16  1  0
 20 19  2  0
 21 20  1  0
 22 17  1  0
 22 21  2  0
 23 22  1  0
 24 23  2  0
 25 24  1  0
 26 25  2  0
 26 27  1  0
 27 23  1  0
 28 29  3  0
 29 17  1  0
  3 30  1  0
  5 31  1  0
  9 32  1  0
 10 33  1  6
 11 34  1  0
 11 35  1  0
 12 36  1  1
 14 37  1  0
 14 38  1  0
 15 39  1  0
 19 40  1  0
 20 41  1  0
 21 42  1  0
 24 43  1  0
 25 44  1  0
 26 45  1  0
M  ISO  8  30  14  31  14  33  13  34  13  35  13  36  13  37  13  38  13
M  ISO  7  39   3  40  14  41  14  42  14  43  14  44  14  45  14
M  END
>  <minimizedAffinity>  (1) 
-5.94966507

>  <minimizedRMSD>  (1) 
0.889061213

$$$$
