
     RDKit          3D

 50 53  0  0  1  0  0  0  0  0999 V2000
   36.6610   30.3200   49.8490 S   0  0  0  0  0  0  0  0  0  0  0  0
   39.0700   32.8650   47.8500 C   0  0  0  0  0  0  0  0  0  0  0  0
   39.3630   32.1200   46.6940 C   0  0  0  0  0  0  0  0  0  0  0  0
   38.7970   30.8750   46.6000 C   0  0  0  0  0  0  0  0  0  0  0  0
   37.9970   30.4470   47.6240 N   0  0  0  0  0  0  0  0  0  0  0  0
   37.7520   31.1640   48.6720 C   0  0  0  0  0  0  0  0  0  0  0  0
   38.2780   32.4200   48.8450 N   0  0  0  0  0  0  0  0  0  0  0  0
   40.1710   32.6820   45.7720 O   0  0  0  0  0  0  0  0  0  0  0  0
   40.1240   32.2150   44.4590 C   0  0  0  0  0  0  0  0  0  0  0  0
   40.6580   31.0300   43.9670 C   0  0  0  0  0  0  0  0  0  0  0  0
   40.5140   30.7450   42.6600 C   0  0  0  0  0  0  0  0  0  0  0  0
   39.8490   31.6240   41.8500 C   0  0  0  0  0  0  0  0  0  0  0  0
   39.3210   32.8060   42.3640 C   0  0  0  0  0  0  0  0  0  0  0  0
   39.4740   33.0780   43.6810 N   0  0  0  0  0  0  0  0  0  0  0  0
   38.5860   33.7570   41.4450 C   0  0  0  0  0  0  0  0  0  0  0  0
   34.9770   30.8690   49.3830 C   0  0  0  0  0  0  0  0  0  0  0  0
   33.4530   28.7260   50.1930 F   0  0  0  0  0  0  0  0  0  0  0  0
   33.7370   28.8690   48.8630 C   0  0  0  0  0  0  0  0  0  0  0  0
   34.4900   29.9070   48.3350 C   0  0  0  0  0  0  0  0  0  0  0  0
   34.7440   30.0070   47.0070 C   0  0  0  0  0  0  0  0  0  0  0  0
   34.2380   29.0420   46.1210 C   0  0  0  0  0  0  0  0  0  0  0  0
   33.4890   28.0040   46.6230 C   0  0  0  0  0  0  0  0  0  0  0  0
   33.2400   27.9200   47.9920 C   0  0  0  0  0  0  0  0  0  0  0  0
   32.4870   26.8630   48.4250 O   0  0  0  0  0  0  0  0  0  0  0  0
   30.1510   27.4470   48.8370 C   0  0  2  0  0  0  0  0  0  0  0  0
   31.1900   26.5280   48.2870 C   0  0  1  0  0  0  0  0  0  0  0  0
   30.7050   26.4170   46.8350 C   0  0  0  0  0  0  0  0  0  0  0  0
   29.9850   27.5590   46.5840 O   0  0  0  0  0  0  0  0  0  0  0  0
   30.0430   28.4140   47.6500 C   0  0  0  0  0  0  0  0  0  0  0  0
   30.5050   28.2110   49.9140 O   0  0  0  0  0  0  0  0  0  0  0  0
   39.5123   33.8675   47.9475 H   0  0  0  0  0  0  0  0  0  0  0  0
   38.9814   30.2364   45.7236 H   0  0  0  0  0  0  0  0  0  0  0  0
   41.1896   30.3365   44.6351 H   0  0  0  0  0  0  0  0  0  0  0  0
   40.9274   29.8133   42.2465 H   0  0  0  0  0  0  0  0  0  0  0  0
   39.7299   31.3949   40.7807 H   0  0  0  0  0  0  0  0  0  0  0  0
   38.0227   34.4859   42.0462 H   0  0  0  0  0  0  0  0  0  0  0  0
   39.3111   34.2875   40.8104 H   0  0  0  0  0  0  0  0  0  0  0  0
   37.8898   33.1890   40.8104 H   0  0  0  0  0  0  0  0  0  0  0  0
   34.3129   30.8444   50.2596 H   0  0  0  0  0  0  0  0  0  0  0  0
   34.9857   31.9012   49.0027 H   0  0  0  0  0  0  0  0  0  0  0  0
   35.3463   30.8438   46.6236 H   0  0  0  0  0  0  0  0  0  0  0  0
   34.4379   29.1155   45.0418 H   0  0  0  0  0  0  0  0  0  0  0  0
   33.0857   27.2388   45.9434 H   0  0  0  0  0  0  0  0  0  0  0  0
   29.2758   26.8802   49.1873 H   0  0  0  0  0  0  0  0  0  0  0  0
   31.2485   25.5859   48.8517 H   0  0  0  0  0  0  0  0  0  0  0  0
   31.5632   26.3489   46.1503 H   0  0  0  0  0  0  0  0  0  0  0  0
   30.0929   25.5156   46.6843 H   0  0  0  0  0  0  0  0  0  0  0  0
   30.9244   29.0692   47.5881 H   0  0  0  0  0  0  0  0  0  0  0  0
   29.1836   29.0975   47.7146 H   0  0  0  0  0  0  0  0  0  0  0  0
   30.2813   27.7282   50.7489 H   0  0  0  0  0  0  0  0  0  0  0  0
  2  7  2  0
  3  2  1  0
  4  3  2  0
  4  5  1  0
  5  6  2  0
  6  7  1  0
  6  1  1  0
  8  3  1  0
  9  8  1  0
 10  9  2  0
 11 10  1  0
 12 13  1  0
 12 11  2  0
 13 14  2  0
 14  9  1  0
 15 13  1  0
 16  1  1  0
 18 17  1  0
 19 18  2  0
 19 16  1  0
 20 19  1  0
 21 22  1  0
 21 20  2  0
 22 23  2  0
 23 24  1  0
 23 18  1  0
 25 30  1  0
 26 24  1  0
 26 25  1  0
 27 26  1  0
 28 27  1  0
 28 29  1  0
 29 25  1  0
  2 31  1  0
  4 32  1  0
 10 33  1  0
 11 34  1  0
 12 35  1  0
 15 36  1  0
 15 37  1  0
 15 38  1  0
 16 39  1  0
 16 40  1  0
 20 41  1  0
 21 42  1  0
 22 43  1  0
 25 44  1  1
 26 45  1  1
 27 46  1  0
 27 47  1  0
 29 48  1  0
 29 49  1  0
 30 50  1  0
M  ISO  8  31  14  32  14  33  14  34  14  35  14  36   8  37   8  38   8
M  ISO  8  39   8  40   8  41  14  42  14  43  14  44  13  45  13  46  13
M  ISO  4  47  13  48  13  49  13  50   3
M  END
>  <minimizedAffinity>  (1) 
-6.34974909

>  <minimizedRMSD>  (1) 
2.15580034

$$$$
