
     RDKit          3D

 48 50  0  0  1  0  0  0  0  0999 V2000
   27.9050   28.2860   48.7040 C   0  0  0  0  0  0  0  0  0  0  0  0
   29.2050   27.9820   49.1340 C   0  0  0  0  0  0  0  0  0  0  0  0
   29.4430   27.4590   50.3750 C   0  0  0  0  0  0  0  0  0  0  0  0
   28.3870   27.2240   51.2240 C   0  0  0  0  0  0  0  0  0  0  0  0
   27.1270   27.5160   50.8180 C   0  0  0  0  0  0  0  0  0  0  0  0
   26.8400   28.0410   49.5850 C   0  0  0  0  0  0  0  0  0  0  0  0
   27.5320   28.9420   47.1380 S   0  0  0  0  0  0  0  0  0  0  0  0
   28.7650   29.4030   46.4390 O   0  0  0  0  0  0  0  0  0  0  0  0
   26.8070   27.8740   46.3210 O   0  0  0  0  0  0  0  0  0  0  0  0
   26.8790   31.3990   46.2650 C   0  0  2  0  0  0  0  0  0  0  0  0
   26.4100   30.2950   47.2400 C   0  0  2  0  0  0  0  0  0  0  0  0
   26.5210   31.0800   48.5230 C   0  0  0  0  0  0  0  0  0  0  0  0
   26.2100   32.4030   48.2530 O   0  0  0  0  0  0  0  0  0  0  0  0
   26.1650   32.5700   46.8860 C   0  0  0  0  0  0  0  0  0  0  0  0
   26.4380   31.1200   44.9770 O   0  0  0  0  0  0  0  0  0  0  0  0
   30.1460   28.2710   48.1770 O   0  0  0  0  0  0  0  0  0  0  0  0
   31.6060   26.0590   48.3000 O   0  0  0  0  0  0  0  0  0  0  0  0
   31.6740   27.5590   47.9900 P   0  0  1  0  0  0  0  0  0  0  0  0
   32.2870   27.8580   46.4430 O   0  0  0  0  0  0  0  0  0  0  0  0
   32.7810   28.1710   49.1410 O   0  0  0  0  0  0  0  0  0  0  0  0
   34.0500   27.6530   48.8360 C   0  0  0  0  0  0  0  0  0  0  0  0
   35.1980   29.7540   49.4230 C   0  0  0  0  0  0  0  0  0  0  0  0
   35.0520   28.7250   48.6330 C   0  0  0  0  0  0  0  0  0  0  0  0
   37.5470   32.5580   49.6070 C   0  0  0  0  0  0  0  0  0  0  0  0
   38.1790   32.4940   48.3560 C   0  0  0  0  0  0  0  0  0  0  0  0
   37.7830   31.4840   47.4660 C   0  0  0  0  0  0  0  0  0  0  0  0
   36.7970   30.6460   47.9240 N   0  0  0  0  0  0  0  0  0  0  0  0
   36.2240   30.7320   49.1080 C   0  0  0  0  0  0  0  0  0  0  0  0
   36.6090   31.6950   49.9390 N   0  0  0  0  0  0  0  0  0  0  0  0
   30.4709   27.2282   50.6915 H   0  0  0  0  0  0  0  0  0  0  0  0
   28.5633   26.8024   52.2246 H   0  0  0  0  0  0  0  0  0  0  0  0
   26.2952   27.3223   51.5113 H   0  0  0  0  0  0  0  0  0  0  0  0
   25.8031   28.2644   49.2936 H   0  0  0  0  0  0  0  0  0  0  0  0
   27.9644   31.5350   46.1496 H   0  0  0  0  0  0  0  0  0  0  0  0
   25.4209   29.8403   47.0820 H   0  0  0  0  0  0  0  0  0  0  0  0
   25.8182   30.6773   49.2672 H   0  0  0  0  0  0  0  0  0  0  0  0
   27.5422   31.0056   48.9251 H   0  0  0  0  0  0  0  0  0  0  0  0
   26.6665   33.5079   46.6052 H   0  0  0  0  0  0  0  0  0  0  0  0
   25.1236   32.6201   46.5352 H   0  0  0  0  0  0  0  0  0  0  0  0
   25.6022   30.5912   45.0216 H   0  0  0  0  0  0  0  0  0  0  0  0
   33.1743   28.2908   46.5176 H   0  0  0  0  0  0  0  0  0  0  0  0
   34.3802   27.0105   49.6655 H   0  0  0  0  0  0  0  0  0  0  0  0
   33.9682   27.0821   47.8993 H   0  0  0  0  0  0  0  0  0  0  0  0
   34.5573   29.8775   50.3086 H   0  0  0  0  0  0  0  0  0  0  0  0
   35.7164   28.6490   47.7596 H   0  0  0  0  0  0  0  0  0  0  0  0
   37.8395   33.3413   50.3218 H   0  0  0  0  0  0  0  0  0  0  0  0
   38.9627   33.2151   48.0807 H   0  0  0  0  0  0  0  0  0  0  0  0
   38.2325   31.3714   46.4684 H   0  0  0  0  0  0  0  0  0  0  0  0
  1  2  1  0
  1  6  2  0
  2  3  2  0
  3  4  1  0
  5  4  2  0
  6  5  1  0
  7  1  1  0
  8  7  2  0
  9  7  2  0
 10 15  1  0
 10 14  1  0
 10 11  1  0
 11  7  1  0
 11 12  1  0
 13 12  1  0
 14 13  1  0
 16  2  1  0
 18 16  1  0
 18 17  2  0
 18 20  1  0
 19 18  1  0
 21 20  1  0
 23 21  1  0
 23 22  2  0
 24 29  2  0
 25 24  1  0
 26 27  1  0
 26 25  2  0
 27 28  2  0
 28 22  1  0
 28 29  1  0
  3 30  1  0
  4 31  1  0
  5 32  1  0
  6 33  1  0
 10 34  1  6
 11 35  1  6
 12 36  1  0
 12 37  1  0
 14 38  1  0
 14 39  1  0
 15 40  1  0
 19 41  1  0
 21 42  1  0
 21 43  1  0
 22 44  1  0
 23 45  1  0
 24 46  1  0
 25 47  1  0
 26 48  1  0
M  ISO  8  30  14  31  14  32  14  33  14  34  13  35  13  36  13  37  13
M  ISO  8  38  13  39  13  40   3  41   3  42   8  43   8  46  14  47  14
M  ISO  1  48  14
M  END
>  <minimizedAffinity>  (1) 
-6.64890909

>  <minimizedRMSD>  (1) 
1.97722423

$$$$
