
     RDKit          3D

 36 38  0  0  1  0  0  0  0  0999 V2000
   37.1600   31.5700   48.4500 N   0  0  0  0  0  0  0  0  0  0  0  0
   37.3070   32.4660   49.4260 C   0  0  0  0  0  0  0  0  0  0  0  0
   38.3450   33.4010   49.3340 C   0  0  0  0  0  0  0  0  0  0  0  0
   39.1250   33.2960   48.2220 C   0  0  0  0  0  0  0  0  0  0  0  0
   40.0490   34.1680   48.1960 O   0  0  0  0  0  0  0  0  0  0  0  0
   39.0130   32.4150   47.2210 N   0  0  0  0  0  0  0  0  0  0  0  0
   37.9910   31.5340   47.3620 C   0  0  0  0  0  0  0  0  0  0  0  0
   37.8610   30.6860   46.4270 O   0  0  0  0  0  0  0  0  0  0  0  0
   35.8610   29.9360   49.6990 C   0  0  0  0  0  0  0  0  0  0  0  0
   36.1320   30.5700   48.4670 C   0  0  0  0  0  0  0  0  0  0  0  0
   35.3920   30.1910   47.3410 C   0  0  0  0  0  0  0  0  0  0  0  0
   34.4490   29.2310   47.4910 N   0  0  0  0  0  0  0  0  0  0  0  0
   34.1980   28.6380   48.6480 C   0  0  0  0  0  0  0  0  0  0  0  0
   34.8970   28.9890   49.7410 N   0  0  0  0  0  0  0  0  0  0  0  0
   37.5130   29.5350   51.6770 C   0  0  0  0  0  0  0  0  0  0  0  0
   37.9550   28.4210   51.3160 O   0  0  0  0  0  0  0  0  0  0  0  0
   36.5360   30.2480   50.8990 N   0  0  0  0  0  0  0  0  0  0  0  0
   40.2450   30.9900   45.6190 C   0  0  1  0  0  0  0  0  0  0  0  0
   39.8900   32.3880   46.0860 C   0  0  1  0  0  0  0  0  0  0  0  0
   39.3000   32.9690   44.8440 C   0  0  0  0  0  0  0  0  0  0  0  0
   40.1720   32.4750   43.8440 O   0  0  0  0  0  0  0  0  0  0  0  0
   40.1980   31.1000   44.0920 C   0  0  0  0  0  0  0  0  0  0  0  0
   41.5650   30.7040   45.9640 O   0  0  0  0  0  0  0  0  0  0  0  0
   36.6246   32.4707   50.2887 H   0  0  0  0  0  0  0  0  0  0  0  0
   38.5185   34.1662   50.1050 H   0  0  0  0  0  0  0  0  0  0  0  0
   35.5714   30.6597   46.3621 H   0  0  0  0  0  0  0  0  0  0  0  0
   33.4212   27.8619   48.7143 H   0  0  0  0  0  0  0  0  0  0  0  0
   37.8812   29.9800   52.6132 H   0  0  0  0  0  0  0  0  0  0  0  0
   36.2789   31.1639   51.2939 H   0  0  0  0  0  0  0  0  0  0  0  0
   39.5824   30.2238   46.0478 H   0  0  0  0  0  0  0  0  0  0  0  0
   40.7471   32.9585   46.4732 H   0  0  0  0  0  0  0  0  0  0  0  0
   38.2705   32.6146   44.6871 H   0  0  0  0  0  0  0  0  0  0  0  0
   39.2221   34.0661   44.8616 H   0  0  0  0  0  0  0  0  0  0  0  0
   39.2941   30.6154   43.6943 H   0  0  0  0  0  0  0  0  0  0  0  0
   41.0520   30.6026   43.6090 H   0  0  0  0  0  0  0  0  0  0  0  0
   41.6517   30.6852   46.9500 H   0  0  0  0  0  0  0  0  0  0  0  0
  1 10  1  0
  1  2  1  0
  3  2  2  0
  4  3  1  0
  5  4  2  0
  6  7  1  0
  6  4  1  0
  7  1  1  0
  8  7  2  0
  9 14  2  0
  9 17  1  0
 10  9  1  0
 11 12  1  0
 11 10  2  0
 12 13  2  0
 13 14  1  0
 16 15  2  0
 17 15  1  0
 18 23  1  0
 18 19  1  0
 19  6  1  0
 20 19  1  0
 21 22  1  0
 21 20  1  0
 22 18  1  0
  2 24  1  0
  3 25  1  0
 11 26  1  0
 13 27  1  0
 15 28  1  0
 17 29  1  0
 18 30  1  1
 19 31  1  1
 20 32  1  0
 20 33  1  0
 22 34  1  0
 22 35  1  0
 23 36  1  0
M  ISO  8  24  14  25  14  26  14  27  14  28   6  30  13  31  13  32  13
M  ISO  4  33  13  34  13  35  13  36   3
M  END
>  <minimizedAffinity>  (1) 
-6.78624105

>  <minimizedRMSD>  (1) 
1.15970266

$$$$
