
     RDKit          3D

 28 29  0  0  1  0  0  0  0  0999 V2000
   39.1960   32.5800   48.0240 O   0  0  0  0  0  0  0  0  0  0  0  0
   38.6250   31.6240   47.0380 P   0  0  2  0  0  0  0  0  0  0  0  0
   37.5050   32.4290   46.0380 O   0  0  0  0  0  0  0  0  0  0  0  0
   37.9150   30.2500   47.7160 O   0  0  0  0  0  0  0  0  0  0  0  0
   37.3230   30.1980   51.3720 C   0  0  0  0  0  0  0  0  0  0  0  0
   38.0050   30.4940   50.1770 C   0  0  0  0  0  0  0  0  0  0  0  0
   37.4490   30.0830   48.9720 C   0  0  0  0  0  0  0  0  0  0  0  0
   36.2560   29.4070   49.0260 N   0  0  0  0  0  0  0  0  0  0  0  0
   35.6360   29.1450   50.1810 C   0  0  0  0  0  0  0  0  0  0  0  0
   36.1670   29.5380   51.3440 N   0  0  0  0  0  0  0  0  0  0  0  0
   39.8940   31.1420   46.0140 O   0  0  0  0  0  0  0  0  0  0  0  0
   40.3320   31.5900   43.6850 C   0  0  1  0  0  0  0  0  0  0  0  0
   39.3710   31.1060   44.7190 C   0  0  1  0  0  0  0  0  0  0  0  0
   39.0210   29.7130   44.2850 C   0  0  0  0  0  0  0  0  0  0  0  0
   39.7500   29.3870   43.1680 O   0  0  0  0  0  0  0  0  0  0  0  0
   40.7770   30.2920   43.0340 C   0  0  0  0  0  0  0  0  0  0  0  0
   39.6610   32.3220   42.7080 O   0  0  0  0  0  0  0  0  0  0  0  0
   36.8432   32.9047   46.6000 H   0  0  0  0  0  0  0  0  0  0  0  0
   37.7481   30.5142   52.3360 H   0  0  0  0  0  0  0  0  0  0  0  0
   38.9597   31.0401   50.1967 H   0  0  0  0  0  0  0  0  0  0  0  0
   34.6800   28.6010   50.1749 H   0  0  0  0  0  0  0  0  0  0  0  0
   41.1318   32.2177   44.1048 H   0  0  0  0  0  0  0  0  0  0  0  0
   38.4868   31.7574   44.7812 H   0  0  0  0  0  0  0  0  0  0  0  0
   39.2548   29.0065   45.0950 H   0  0  0  0  0  0  0  0  0  0  0  0
   37.9473   29.6595   44.0518 H   0  0  0  0  0  0  0  0  0  0  0  0
   41.6799   29.9117   43.5341 H   0  0  0  0  0  0  0  0  0  0  0  0
   41.0140   30.4534   41.9720 H   0  0  0  0  0  0  0  0  0  0  0  0
   39.0597   32.9780   43.1419 H   0  0  0  0  0  0  0  0  0  0  0  0
  2  4  1  0
  2  1  2  0
  3  2  1  0
  4  7  1  0
  6  5  2  0
  7  8  2  0
  7  6  1  0
  8  9  1  0
  9 10  2  0
 10  5  1  0
 11  2  1  0
 12 17  1  0
 12 13  1  0
 13 11  1  0
 14 13  1  0
 15 14  1  0
 16 15  1  0
 16 12  1  0
  3 18  1  0
  5 19  1  0
  6 20  1  0
  9 21  1  0
 12 22  1  1
 13 23  1  1
 14 24  1  0
 14 25  1  0
 16 26  1  0
 16 27  1  0
 17 28  1  0
M  ISO  8  18   3  19  14  20  14  21  14  22  13  23  13  24  13  25  13
M  ISO  3  26  13  27  13  28   3
M  END
>  <minimizedAffinity>  (1) 
-5.09948921

>  <minimizedRMSD>  (1) 
2.23752499

$$$$
