
     RDKit          3D

 33 35  0  0  0  0  0  0  0  0999 V2000
   34.8650   28.6920   48.5000 C   0  0  0  0  0  0  0  0  0  0  0  0
   35.7110   28.6540   49.5750 C   0  0  0  0  0  0  0  0  0  0  0  0
   36.7960   29.4870   49.7360 C   0  0  0  0  0  0  0  0  0  0  0  0
   37.0830   30.4240   48.7850 C   0  0  0  0  0  0  0  0  0  0  0  0
   36.2150   30.4590   47.6870 C   0  0  0  0  0  0  0  0  0  0  0  0
   35.1620   29.6220   47.5710 N   0  0  0  0  0  0  0  0  0  0  0  0
   33.7400   26.5970   47.6620 C   0  0  0  0  0  0  0  0  0  0  0  0
   33.7330   27.8070   48.3530 C   0  0  0  0  0  0  0  0  0  0  0  0
   32.5260   28.1870   48.9480 C   0  0  0  0  0  0  0  0  0  0  0  0
   31.4450   27.3520   48.8140 N   0  0  0  0  0  0  0  0  0  0  0  0
   31.5070   26.2010   48.1400 C   0  0  0  0  0  0  0  0  0  0  0  0
   32.6550   25.8190   47.5610 N   0  0  0  0  0  0  0  0  0  0  0  0
   38.1170   31.3480   48.7590 O   0  0  0  0  0  0  0  0  0  0  0  0
   38.0530   32.6380   48.2380 C   0  0  0  0  0  0  0  0  0  0  0  0
   39.3520   32.9890   47.5330 C   0  0  0  0  0  0  0  0  0  0  0  0
   39.9410   34.1390   48.3240 C   0  0  0  0  0  0  0  0  0  0  0  0
   39.3910   33.8560   49.7100 C   0  0  0  0  0  0  0  0  0  0  0  0
   37.9320   33.6300   49.3850 C   0  0  0  0  0  0  0  0  0  0  0  0
   35.5117   27.9105   50.3609 H   0  0  0  0  0  0  0  0  0  0  0  0
   37.4308   29.3976   50.6299 H   0  0  0  0  0  0  0  0  0  0  0  0
   36.3975   31.1950   46.8901 H   0  0  0  0  0  0  0  0  0  0  0  0
   34.6730   26.2683   47.1809 H   0  0  0  0  0  0  0  0  0  0  0  0
   32.4450   29.1300   49.5085 H   0  0  0  0  0  0  0  0  0  0  0  0
   30.6138   25.5641   48.0593 H   0  0  0  0  0  0  0  0  0  0  0  0
   37.1982   32.6829   47.5471 H   0  0  0  0  0  0  0  0  0  0  0  0
   40.0369   32.1283   47.5372 H   0  0  0  0  0  0  0  0  0  0  0  0
   39.1857   33.2596   46.4799 H   0  0  0  0  0  0  0  0  0  0  0  0
   41.0407   34.1138   48.3138 H   0  0  0  0  0  0  0  0  0  0  0  0
   39.6856   35.1344   47.9316 H   0  0  0  0  0  0  0  0  0  0  0  0
   39.8514   32.9616   50.1551 H   0  0  0  0  0  0  0  0  0  0  0  0
   39.5791   34.6487   50.4491 H   0  0  0  0  0  0  0  0  0  0  0  0
   37.4381   34.5600   49.0670 H   0  0  0  0  0  0  0  0  0  0  0  0
   37.3231   33.2795   50.2314 H   0  0  0  0  0  0  0  0  0  0  0  0
  1  2  2  0
  2  3  1  0
  4  3  2  0
  5  4  1  0
  6  5  2  0
  6  1  1  0
  7  8  2  0
  8  1  1  0
  8  9  1  0
 10  9  2  0
 11 10  1  0
 12  7  1  0
 12 11  2  0
 13  4  1  0
 14 13  1  0
 14 18  1  0
 15 14  1  0
 15 16  1  0
 16 17  1  0
 18 17  1  0
  2 19  1  0
  3 20  1  0
  5 21  1  0
  7 22  1  0
  9 23  1  0
 11 24  1  0
 14 25  1  0
 15 26  1  0
 15 27  1  0
 16 28  1  0
 16 29  1  0
 17 30  1  0
 17 31  1  0
 18 32  1  0
 18 33  1  0
M  ISO  8  19  14  20  14  21  14  22  14  23  14  24  14  25  13  26  13
M  ISO  7  27  13  28  13  29  13  30  13  31  13  32  13  33  13
M  END
>  <minimizedAffinity>  (1) 
-5.19890022

>  <minimizedRMSD>  (1) 
4.1804533

$$$$
