
     RDKit          3D

 40 42  0  0  0  0  0  0  0  0999 V2000
   38.2230   31.9140   47.3950 C   0  0  0  0  0  0  0  0  0  0  0  0
   38.8090   32.7550   48.2960 C   0  0  0  0  0  0  0  0  0  0  0  0
   38.3890   32.8360   49.6190 C   0  0  0  0  0  0  0  0  0  0  0  0
   37.2890   31.9870   50.0330 C   0  0  0  0  0  0  0  0  0  0  0  0
   36.7520   31.1760   49.0880 C   0  0  0  0  0  0  0  0  0  0  0  0
   37.1600   31.1030   47.8110 C   0  0  0  0  0  0  0  0  0  0  0  0
   40.0270   31.2500   45.8810 C   0  0  0  0  0  0  0  0  0  0  0  0
   38.7890   31.9230   46.0620 C   0  0  0  0  0  0  0  0  0  0  0  0
   38.2760   32.4970   44.9270 C   0  0  0  0  0  0  0  0  0  0  0  0
   38.9300   32.4030   43.7560 N   0  0  0  0  0  0  0  0  0  0  0  0
   40.0750   31.7770   43.6040 C   0  0  0  0  0  0  0  0  0  0  0  0
   40.6140   31.2050   44.6680 N   0  0  0  0  0  0  0  0  0  0  0  0
   35.1400   30.0690   47.1910 C   0  0  0  0  0  0  0  0  0  0  0  0
   34.6450   30.6240   48.2510 O   0  0  0  0  0  0  0  0  0  0  0  0
   36.5470   30.2750   46.9070 N   0  0  0  0  0  0  0  0  0  0  0  0
   34.3270   29.3120   46.3900 O   0  0  0  0  0  0  0  0  0  0  0  0
   32.9380   29.3460   46.4160 C   0  0  0  0  0  0  0  0  0  0  0  0
   32.2600   30.4040   46.0230 O   0  0  0  0  0  0  0  0  0  0  0  0
   32.1080   28.1950   46.8630 C   0  0  0  0  0  0  0  0  0  0  0  0
   32.3350   27.8840   48.3290 C   0  0  0  0  0  0  0  0  0  0  0  0
   31.0360   27.2740   48.8120 C   0  0  0  0  0  0  0  0  0  0  0  0
   30.1080   27.2840   47.5980 C   0  0  0  0  0  0  0  0  0  0  0  0
   30.6400   28.5320   46.8810 C   0  0  0  0  0  0  0  0  0  0  0  0
   39.6428   33.3910   47.9639 H   0  0  0  0  0  0  0  0  0  0  0  0
   38.8754   33.5218   50.3284 H   0  0  0  0  0  0  0  0  0  0  0  0
   36.9080   32.0001   51.0648 H   0  0  0  0  0  0  0  0  0  0  0  0
   35.9170   30.5274   49.3914 H   0  0  0  0  0  0  0  0  0  0  0  0
   40.5114   30.7608   46.7389 H   0  0  0  0  0  0  0  0  0  0  0  0
   37.3203   33.0395   44.9751 H   0  0  0  0  0  0  0  0  0  0  0  0
   40.5699   31.7300   42.6228 H   0  0  0  0  0  0  0  0  0  0  0  0
   37.0350   29.8439   46.1089 H   0  0  0  0  0  0  0  0  0  0  0  0
   32.3807   27.3857   46.1697 H   0  0  0  0  0  0  0  0  0  0  0  0
   33.1638   27.1706   48.4480 H   0  0  0  0  0  0  0  0  0  0  0  0
   32.6050   28.7829   48.9026 H   0  0  0  0  0  0  0  0  0  0  0  0
   31.2009   26.2443   49.1621 H   0  0  0  0  0  0  0  0  0  0  0  0
   30.6101   27.8341   49.6576 H   0  0  0  0  0  0  0  0  0  0  0  0
   30.2246   26.3780   46.9852 H   0  0  0  0  0  0  0  0  0  0  0  0
   29.0331   27.3011   47.8311 H   0  0  0  0  0  0  0  0  0  0  0  0
   30.4361   29.4513   47.4497 H   0  0  0  0  0  0  0  0  0  0  0  0
   30.1922   28.7358   45.8971 H   0  0  0  0  0  0  0  0  0  0  0  0
  1  6  1  0
  1  2  2  0
  2  3  1  0
  3  4  2  0
  5  4  1  0
  6  5  2  0
  7  8  2  0
  8  1  1  0
  9  8  1  0
 10  9  2  0
 11 10  1  0
 11 12  2  0
 12  7  1  0
 13 14  2  0
 15 13  1  0
 15  6  1  0
 16 17  1  0
 16 13  1  0
 17 19  1  0
 18 17  2  0
 19 23  1  0
 19 20  1  0
 20 21  1  0
 22 21  1  0
 23 22  1  0
  2 24  1  0
  3 25  1  0
  4 26  1  0
  5 27  1  0
  7 28  1  0
  9 29  1  0
 11 30  1  0
 15 31  1  0
 19 32  1  0
 20 33  1  0
 20 34  1  0
 21 35  1  0
 21 36  1  0
 22 37  1  0
 22 38  1  0
 23 39  1  0
 23 40  1  0
M  ISO  8  24  14  25  14  26  14  27  14  28  14  29  14  30  14  32  13
M  ISO  8  33  13  34  13  35  13  36  13  37  13  38  13  39  13  40  13
M  END
>  <minimizedAffinity>  (1) 
-5.94959211

>  <minimizedRMSD>  (1) 
1.41016591

$$$$
