
     RDKit          3D

 35 37  0  0  0  0  0  0  0  0999 V2000
   37.6740   31.7400   47.6240 C   0  0  0  0  0  0  0  0  0  0  0  0
   37.9240   32.4130   48.8040 C   0  0  0  0  0  0  0  0  0  0  0  0
   38.9440   33.3430   48.8520 C   0  0  0  0  0  0  0  0  0  0  0  0
   39.6580   33.5400   47.6910 C   0  0  0  0  0  0  0  0  0  0  0  0
   39.3920   32.8620   46.5320 C   0  0  0  0  0  0  0  0  0  0  0  0
   38.3900   31.9540   46.5020 N   0  0  0  0  0  0  0  0  0  0  0  0
   36.5880   30.7770   47.6460 C   0  0  0  0  0  0  0  0  0  0  0  0
   36.0740   30.3690   46.5860 O   0  0  0  0  0  0  0  0  0  0  0  0
   36.8890   29.6260   49.7900 C   0  0  0  0  0  0  0  0  0  0  0  0
   36.0380   30.2370   48.8720 C   0  0  0  0  0  0  0  0  0  0  0  0
   34.7000   30.2790   49.2160 C   0  0  0  0  0  0  0  0  0  0  0  0
   34.2520   29.7520   50.3840 N   0  0  0  0  0  0  0  0  0  0  0  0
   35.1380   29.1630   51.2490 C   0  0  0  0  0  0  0  0  0  0  0  0
   36.4340   29.1000   50.9590 N   0  0  0  0  0  0  0  0  0  0  0  0
   40.3350   33.1320   45.0240 S   0  0  0  0  0  0  0  0  0  0  0  0
   40.2220   31.7720   43.8680 C   0  0  0  0  0  0  0  0  0  0  0  0
   40.0260   30.4940   44.6870 C   0  0  0  0  0  0  0  0  0  0  0  0
   39.1660   29.5750   43.8610 C   0  0  0  0  0  0  0  0  0  0  0  0
   38.9760   30.3080   42.5380 C   0  0  0  0  0  0  0  0  0  0  0  0
   38.9660   31.7610   43.0370 C   0  0  0  0  0  0  0  0  0  0  0  0
   37.3159   32.2100   49.6979 H   0  0  0  0  0  0  0  0  0  0  0  0
   39.1748   33.8991   49.7726 H   0  0  0  0  0  0  0  0  0  0  0  0
   40.4774   34.2739   47.6952 H   0  0  0  0  0  0  0  0  0  0  0  0
   37.9635   29.5670   49.5623 H   0  0  0  0  0  0  0  0  0  0  0  0
   33.9823   30.7499   48.5281 H   0  0  0  0  0  0  0  0  0  0  0  0
   34.7719   28.7372   52.1949 H   0  0  0  0  0  0  0  0  0  0  0  0
   41.1204   31.8539   43.2386 H   0  0  0  0  0  0  0  0  0  0  0  0
   40.9984   30.0216   44.8901 H   0  0  0  0  0  0  0  0  0  0  0  0
   39.5516   30.7145   45.6546 H   0  0  0  0  0  0  0  0  0  0  0  0
   39.6707   28.6108   43.7012 H   0  0  0  0  0  0  0  0  0  0  0  0
   38.2083   29.3479   44.3522 H   0  0  0  0  0  0  0  0  0  0  0  0
   38.0266   30.0363   42.0534 H   0  0  0  0  0  0  0  0  0  0  0  0
   39.7342   30.0863   41.7725 H   0  0  0  0  0  0  0  0  0  0  0  0
   39.0234   32.4772   42.2041 H   0  0  0  0  0  0  0  0  0  0  0  0
   38.0545   32.0544   43.5784 H   0  0  0  0  0  0  0  0  0  0  0  0
  1  7  1  0
  1  2  2  0
  2  3  1  0
  4  3  2  0
  5  4  1  0
  6  5  2  0
  6  1  1  0
  7 10  1  0
  8  7  2  0
  9 14  2  0
 10 11  2  0
 10  9  1  0
 11 12  1  0
 12 13  2  0
 14 13  1  0
 15  5  1  0
 16 17  1  0
 16 15  1  0
 18 17  1  0
 19 20  1  0
 19 18  1  0
 20 16  1  0
  2 21  1  0
  3 22  1  0
  4 23  1  0
  9 24  1  0
 11 25  1  0
 13 26  1  0
 16 27  1  0
 17 28  1  0
 17 29  1  0
 18 30  1  0
 18 31  1  0
 19 32  1  0
 19 33  1  0
 20 34  1  0
 20 35  1  0
M  ISO  8  21  14  22  14  23  14  24  14  25  14  26  14  27  13  28  13
M  ISO  7  29  13  30  13  31  13  32  13  33  13  34  13  35  13
M  END
>  <minimizedAffinity>  (1) 
-5.24619246

>  <minimizedRMSD>  (1) 
2.27772403

$$$$
