
     RDKit          3D

 50 55  0  0  1  0  0  0  0  0999 V2000
   31.6280   27.9030   48.7790 C   0  0  1  0  0  0  0  0  0  0  0  0
   32.0620   26.7530   47.7990 C   0  0  0  0  0  0  0  0  0  0  0  0
   31.9440   28.1890   47.3810 C   0  0  2  0  0  0  0  0  0  0  0  0
   28.1410   28.4910   49.4270 C   0  0  0  0  0  0  0  0  0  0  0  0
   28.3670   27.3840   50.2450 C   0  0  0  0  0  0  0  0  0  0  0  0
   29.7220   27.0150   50.1070 C   0  0  0  0  0  0  0  0  0  0  0  0
   30.2530   27.8850   49.2360 N   0  0  0  0  0  0  0  0  0  0  0  0
   29.3100   28.7210   48.8660 N   0  0  0  0  0  0  0  0  0  0  0  0
   25.6430   28.4990   49.6770 C   0  0  0  0  0  0  0  0  0  0  0  0
   26.8660   29.1330   49.3200 C   0  0  0  0  0  0  0  0  0  0  0  0
   26.7740   30.4300   48.8520 C   0  0  0  0  0  0  0  0  0  0  0  0
   25.5500   31.0180   48.7600 N   0  0  0  0  0  0  0  0  0  0  0  0
   24.4210   30.3790   49.1090 C   0  0  0  0  0  0  0  0  0  0  0  0
   24.4570   29.0940   49.5780 N   0  0  0  0  0  0  0  0  0  0  0  0
   33.1940   28.9560   47.0400 C   0  0  0  0  0  0  0  0  0  0  0  0
   33.5210   29.4230   45.7810 C   0  0  0  0  0  0  0  0  0  0  0  0
   34.7130   30.0730   45.8840 N   0  0  0  0  0  0  0  0  0  0  0  0
   35.1270   30.0180   47.1730 C   0  0  0  0  0  0  0  0  0  0  0  0
   34.1980   29.3370   47.8730 N   0  0  0  0  0  0  0  0  0  0  0  0
   36.3830   30.6060   47.7270 C   0  0  0  0  0  0  0  0  0  0  0  0
   36.4730   30.9660   49.0930 C   0  0  0  0  0  0  0  0  0  0  0  0
   38.1770   31.6210   49.2290 S   0  0  0  0  0  0  0  0  0  0  0  0
   38.4720   31.2900   47.3920 C   0  0  0  0  0  0  0  0  0  0  0  0
   37.4850   30.8510   47.0650 N   0  0  0  0  0  0  0  0  0  0  0  0
   39.7670   31.5780   46.6200 C   0  0  0  0  0  0  0  0  0  0  0  0
   39.7730   30.7450   45.3570 C   0  0  0  0  0  0  0  0  0  0  0  0
   40.5160   31.5750   44.3630 C   0  0  0  0  0  0  0  0  0  0  0  0
   40.4930   33.0090   44.8650 C   0  0  0  0  0  0  0  0  0  0  0  0
   39.7250   32.9990   46.1720 C   0  0  0  0  0  0  0  0  0  0  0  0
   31.9739   28.3184   49.7370 H   0  0  0  0  0  0  0  0  0  0  0  0
   33.0497   26.2788   47.8966 H   0  0  0  0  0  0  0  0  0  0  0  0
   31.6461   25.7902   47.4672 H   0  0  0  0  0  0  0  0  0  0  0  0
   31.3929   28.7010   46.5784 H   0  0  0  0  0  0  0  0  0  0  0  0
   27.6219   26.8872   50.8837 H   0  0  0  0  0  0  0  0  0  0  0  0
   30.2371   26.1838   50.6108 H   0  0  0  0  0  0  0  0  0  0  0  0
   25.6800   27.4661   50.0534 H   0  0  0  0  0  0  0  0  0  0  0  0
   27.6794   30.9807   48.5573 H   0  0  0  0  0  0  0  0  0  0  0  0
   23.4544   30.8958   49.0165 H   0  0  0  0  0  0  0  0  0  0  0  0
   32.9273   29.2934   44.8641 H   0  0  0  0  0  0  0  0  0  0  0  0
   35.2164   30.5305   45.1106 H   0  0  0  0  0  0  0  0  0  0  0  0
   35.7083   30.8748   49.8784 H   0  0  0  0  0  0  0  0  0  0  0  0
   40.6387   31.3619   47.2552 H   0  0  0  0  0  0  0  0  0  0  0  0
   40.2876   29.7875   45.5256 H   0  0  0  0  0  0  0  0  0  0  0  0
   38.7572   30.4956   45.0165 H   0  0  0  0  0  0  0  0  0  0  0  0
   40.0269   31.5124   43.3797 H   0  0  0  0  0  0  0  0  0  0  0  0
   41.5504   31.2175   44.2525 H   0  0  0  0  0  0  0  0  0  0  0  0
   41.5190   33.3695   45.0306 H   0  0  0  0  0  0  0  0  0  0  0  0
   40.0189   33.6780   44.1318 H   0  0  0  0  0  0  0  0  0  0  0  0
   40.2083   33.6541   46.9117 H   0  0  0  0  0  0  0  0  0  0  0  0
   38.6961   33.3699   46.0549 H   0  0  0  0  0  0  0  0  0  0  0  0
  1  7  1  0
  2  1  1  0
  3  2  1  0
  3  1  1  0
  4  5  1  0
  6  5  2  0
  7  6  1  0
  8  7  1  0
  8  4  2  0
 10  4  1  0
 10  9  2  0
 11 10  1  0
 12 11  2  0
 12 13  1  0
 13 14  2  0
 14  9  1  0
 15  3  1  0
 15 19  1  0
 16 17  1  0
 16 15  2  0
 17 18  1  0
 18 20  1  0
 18 19  2  0
 20 21  2  0
 21 22  1  0
 23 22  1  0
 24 23  2  0
 24 20  1  0
 25 23  1  0
 26 25  1  0
 27 28  1  0
 27 26  1  0
 28 29  1  0
 29 25  1  0
  1 30  1  1
  2 31  1  0
  2 32  1  0
  3 33  1  6
  5 34  1  0
  6 35  1  0
  9 36  1  0
 11 37  1  0
 13 38  1  0
 16 39  1  0
 17 40  1  0
 21 41  1  0
 25 42  1  0
 26 43  1  0
 26 44  1  0
 27 45  1  0
 27 46  1  0
 28 47  1  0
 28 48  1  0
 29 49  1  0
 29 50  1  0
M  ISO  8  30  13  31  13  32  13  33  13  34  14  35  14  36  14  37  14
M  ISO  8  38  14  39  14  40   9  41  14  42  13  43  13  44  13  45  13
M  ISO  5  46  13  47  13  48  13  49  13  50  13
M  END
>  <minimizedAffinity>  (1) 
-7.34012222

>  <minimizedRMSD>  (1) 
2.04070401

$$$$
