
     RDKit          3D

 41 43  0  0  1  0  0  0  0  0999 V2000
   36.5080   30.9890   48.3540 N   0  0  0  0  0  0  0  0  0  0  0  0
   36.2200   31.6260   49.6190 C   0  0  0  0  0  0  0  0  0  0  0  0
   37.2180   32.6980   49.9150 C   0  0  0  0  0  0  0  0  0  0  0  0
   38.5850   32.0170   49.8090 C   0  0  0  0  0  0  0  0  0  0  0  0
   38.8540   31.7680   48.3670 C   0  0  0  0  0  0  0  0  0  0  0  0
   37.5490   31.5900   47.6330 C   0  0  1  0  0  0  0  0  0  0  0  0
   37.7290   31.0640   46.2450 C   0  0  0  0  0  0  0  0  0  0  0  0
   39.0850   30.4060   46.0540 C   0  0  0  0  0  0  0  0  0  0  0  0
   39.4860   30.7640   44.6170 C   0  0  0  0  0  0  0  0  0  0  0  0
   39.1200   32.2480   44.6380 C   0  0  0  0  0  0  0  0  0  0  0  0
   37.7430   32.2070   45.2510 C   0  0  0  0  0  0  0  0  0  0  0  0
   36.4050   29.5730   48.4090 C   0  0  0  0  0  0  0  0  0  0  0  0
   35.0320   29.1160   48.1820 C   0  0  0  0  0  0  0  0  0  0  0  0
   34.4060   29.4820   47.0010 C   0  0  0  0  0  0  0  0  0  0  0  0
   33.1070   29.0740   46.7200 C   0  0  0  0  0  0  0  0  0  0  0  0
   32.4790   28.3070   47.6470 N   0  0  0  0  0  0  0  0  0  0  0  0
   33.0820   27.9500   48.7940 C   0  0  0  0  0  0  0  0  0  0  0  0
   34.3250   28.3550   49.0320 N   0  0  0  0  0  0  0  0  0  0  0  0
   35.2149   32.0710   49.5777 H   0  0  0  0  0  0  0  0  0  0  0  0
   36.2718   30.8679   50.4144 H   0  0  0  0  0  0  0  0  0  0  0  0
   37.1360   33.5139   49.1818 H   0  0  0  0  0  0  0  0  0  0  0  0
   37.0580   33.1448   50.9073 H   0  0  0  0  0  0  0  0  0  0  0  0
   39.3634   32.6715   50.2280 H   0  0  0  0  0  0  0  0  0  0  0  0
   38.5898   31.0716   50.3713 H   0  0  0  0  0  0  0  0  0  0  0  0
   39.3988   32.6244   47.9429 H   0  0  0  0  0  0  0  0  0  0  0  0
   39.4606   30.8566   48.2604 H   0  0  0  0  0  0  0  0  0  0  0  0
   37.1719   32.6172   47.5200 H   0  0  0  0  0  0  0  0  0  0  0  0
   36.9039   30.3531   46.0904 H   0  0  0  0  0  0  0  0  0  0  0  0
   39.8158   30.8054   46.7727 H   0  0  0  0  0  0  0  0  0  0  0  0
   39.0500   29.3192   46.2203 H   0  0  0  0  0  0  0  0  0  0  0  0
   38.9010   30.2041   43.8725 H   0  0  0  0  0  0  0  0  0  0  0  0
   40.5258   30.5340   44.3416 H   0  0  0  0  0  0  0  0  0  0  0  0
   39.8198   32.8261   45.2593 H   0  0  0  0  0  0  0  0  0  0  0  0
   39.1587   32.7344   43.6521 H   0  0  0  0  0  0  0  0  0  0  0  0
   37.5309   33.1561   45.7650 H   0  0  0  0  0  0  0  0  0  0  0  0
   36.9752   32.0608   44.4770 H   0  0  0  0  0  0  0  0  0  0  0  0
   37.0566   29.1388   47.6365 H   0  0  0  0  0  0  0  0  0  0  0  0
   36.7107   29.2478   49.4144 H   0  0  0  0  0  0  0  0  0  0  0  0
   34.9461   30.1059   46.2736 H   0  0  0  0  0  0  0  0  0  0  0  0
   32.6077   29.3616   45.7830 H   0  0  0  0  0  0  0  0  0  0  0  0
   32.5510   27.3278   49.5295 H   0  0  0  0  0  0  0  0  0  0  0  0
  1 12  1  0
  1  2  1  0
  2  3  1  0
  4  3  1  0
  5  4  1  0
  6  1  1  0
  6  5  1  0
  7  6  1  0
  8  7  1  0
  9 10  1  0
  9  8  1  0
 10 11  1  0
 11  7  1  0
 13 12  1  0
 13 18  1  0
 14 13  2  0
 15 14  1  0
 15 16  2  0
 16 17  1  0
 17 18  2  0
  2 19  1  0
  2 20  1  0
  3 21  1  0
  3 22  1  0
  4 23  1  0
  4 24  1  0
  5 25  1  0
  5 26  1  0
  6 27  1  6
  7 28  1  0
  8 29  1  0
  8 30  1  0
  9 31  1  0
  9 32  1  0
 10 33  1  0
 10 34  1  0
 11 35  1  0
 11 36  1  0
 12 37  1  0
 12 38  1  0
 14 39  1  0
 15 40  1  0
 17 41  1  0
M  ISO  8  19  13  20  13  21  13  22  13  23  13  24  13  25  13  26  13
M  ISO  8  27  13  28  13  29  13  30  13  31  13  32  13  33  13  34  13
M  ISO  7  35  13  36  13  37   8  38   8  39  14  40  14  41  14
M  END
>  <minimizedAffinity>  (1) 
-4.72529554

>  <minimizedRMSD>  (1) 
1.92578948

$$$$
