
     RDKit          3D

 46 50  0  0  0  0  0  0  0  0999 V2000
   38.7060   31.5260   47.3430 C   0  0  0  0  0  0  0  0  0  0  0  0
   39.3010   32.7680   47.3010 C   0  0  0  0  0  0  0  0  0  0  0  0
   40.0620   33.2000   46.2380 C   0  0  0  0  0  0  0  0  0  0  0  0
   40.2560   32.3800   45.1610 C   0  0  0  0  0  0  0  0  0  0  0  0
   39.6470   31.1420   45.2340 C   0  0  0  0  0  0  0  0  0  0  0  0
   38.9120   30.7340   46.2670 N   0  0  0  0  0  0  0  0  0  0  0  0
   39.0180   29.1260   43.8780 C   0  0  0  0  0  0  0  0  0  0  0  0
   39.8150   30.2300   44.1230 C   0  0  0  0  0  0  0  0  0  0  0  0
   40.8060   30.3750   43.1770 C   0  0  0  0  0  0  0  0  0  0  0  0
   41.0310   29.5530   42.0910 C   0  0  0  0  0  0  0  0  0  0  0  0
   41.9310   29.5530   41.0970 N   0  0  0  0  0  0  0  0  0  0  0  0
   41.6820   28.5040   40.3020 C   0  0  0  0  0  0  0  0  0  0  0  0
   40.5890   27.8000   40.7940 C   0  0  0  0  0  0  0  0  0  0  0  0
   40.1970   28.4790   41.9190 C   0  0  0  0  0  0  0  0  0  0  0  0
   39.1870   28.2650   42.8150 C   0  0  0  0  0  0  0  0  0  0  0  0
   37.4580   30.6550   50.7900 C   0  0  0  0  0  0  0  0  0  0  0  0
   38.3150   31.1310   49.7910 C   0  0  0  0  0  0  0  0  0  0  0  0
   37.8990   31.0610   48.4630 C   0  0  0  0  0  0  0  0  0  0  0  0
   36.6940   30.5380   48.2250 N   0  0  0  0  0  0  0  0  0  0  0  0
   35.8590   30.0750   49.1850 C   0  0  0  0  0  0  0  0  0  0  0  0
   36.2490   30.1380   50.4560 N   0  0  0  0  0  0  0  0  0  0  0  0
   34.5310   29.5030   48.8680 C   0  0  0  0  0  0  0  0  0  0  0  0
   34.1550   29.5920   47.4180 C   0  0  0  0  0  0  0  0  0  0  0  0
   32.9670   28.6740   47.3160 C   0  0  0  0  0  0  0  0  0  0  0  0
   33.0690   27.7210   48.5040 C   0  0  0  0  0  0  0  0  0  0  0  0
   34.4440   28.0150   49.1090 C   0  0  0  0  0  0  0  0  0  0  0  0
   39.1616   33.4457   48.1562 H   0  0  0  0  0  0  0  0  0  0  0  0
   40.5132   34.2031   46.2551 H   0  0  0  0  0  0  0  0  0  0  0  0
   40.8580   32.6862   44.2927 H   0  0  0  0  0  0  0  0  0  0  0  0
   38.1946   28.9217   44.5782 H   0  0  0  0  0  0  0  0  0  0  0  0
   41.4858   31.2311   43.2992 H   0  0  0  0  0  0  0  0  0  0  0  0
   42.6853   30.2422   40.9669 H   0  0  0  0  0  0  0  0  0  0  0  0
   42.2537   28.2406   39.3999 H   0  0  0  0  0  0  0  0  0  0  0  0
   40.1352   26.8917   40.3710 H   0  0  0  0  0  0  0  0  0  0  0  0
   38.5103   27.4071   42.6879 H   0  0  0  0  0  0  0  0  0  0  0  0
   37.7646   30.7001   51.8454 H   0  0  0  0  0  0  0  0  0  0  0  0
   39.2978   31.5522   50.0492 H   0  0  0  0  0  0  0  0  0  0  0  0
   33.8797   30.1000   49.5233 H   0  0  0  0  0  0  0  0  0  0  0  0
   33.8829   30.6218   47.1432 H   0  0  0  0  0  0  0  0  0  0  0  0
   34.9758   29.3134   46.7408 H   0  0  0  0  0  0  0  0  0  0  0  0
   32.0322   29.2514   47.3682 H   0  0  0  0  0  0  0  0  0  0  0  0
   32.9601   28.1283   46.3609 H   0  0  0  0  0  0  0  0  0  0  0  0
   32.2712   27.9219   49.2341 H   0  0  0  0  0  0  0  0  0  0  0  0
   32.9571   26.6675   48.2080 H   0  0  0  0  0  0  0  0  0  0  0  0
   35.2439   27.4704   48.5859 H   0  0  0  0  0  0  0  0  0  0  0  0
   34.5597   27.7108   50.1597 H   0  0  0  0  0  0  0  0  0  0  0  0
  1 18  1  0
  2  1  2  0
  3  2  1  0
  4  5  1  0
  4  3  2  0
  5  6  2  0
  6  1  1  0
  7  8  2  0
  8  5  1  0
  9  8  1  0
 10  9  2  0
 11 10  1  0
 12 13  2  0
 12 11  1  0
 13 14  1  0
 14 10  1  0
 14 15  2  0
 15  7  1  0
 17 16  2  0
 18 17  1  0
 19 18  2  0
 19 20  1  0
 20 21  2  0
 21 16  1  0
 22 26  1  0
 22 20  1  0
 23 22  1  0
 24 23  1  0
 24 25  1  0
 25 26  1  0
  2 27  1  0
  3 28  1  0
  4 29  1  0
  7 30  1  0
  9 31  1  0
 11 32  1  0
 12 33  1  0
 13 34  1  0
 15 35  1  0
 16 36  1  0
 17 37  1  0
 22 38  1  0
 23 39  1  0
 23 40  1  0
 24 41  1  0
 24 42  1  0
 25 43  1  0
 25 44  1  0
 26 45  1  0
 26 46  1  0
M  END
>  <minimizedAffinity>  (1) 
-7.72310448

>  <minimizedRMSD>  (1) 
1.20295036

$$$$
