
     RDKit          3D

 23 24  0  0  0  0  0  0  0  0999 V2000
   37.2420   30.7780   46.6160 C   0  0  0  0  0  0  0  0  0  0  0  0
   38.0250   31.0730   47.7600 C   0  0  0  0  0  0  0  0  0  0  0  0
   39.0270   32.0550   47.6240 C   0  0  0  0  0  0  0  0  0  0  0  0
   39.1890   32.6620   46.4110 N   0  0  0  0  0  0  0  0  0  0  0  0
   38.4140   32.3430   45.3500 C   0  0  0  0  0  0  0  0  0  0  0  0
   37.4500   31.4070   45.4570 N   0  0  0  0  0  0  0  0  0  0  0  0
   37.7150   30.3290   48.9750 C   0  0  0  0  0  0  0  0  0  0  0  0
   36.2180   30.1610   49.2330 C   0  0  0  0  0  0  0  0  0  0  0  0
   36.3170   29.3880   50.5570 C   0  0  0  0  0  0  0  0  0  0  0  0
   37.3540   30.1900   51.3070 C   0  0  0  0  0  0  0  0  0  0  0  0
   38.1240   30.9780   50.2600 C   0  0  0  0  0  0  0  0  0  0  0  0
   36.4497   30.0180   46.6843 H   0  0  0  0  0  0  0  0  0  0  0  0
   39.6656   32.3271   48.4774 H   0  0  0  0  0  0  0  0  0  0  0  0
   38.5720   32.8532   44.3884 H   0  0  0  0  0  0  0  0  0  0  0  0
   38.2643   29.4008   48.7589 H   0  0  0  0  0  0  0  0  0  0  0  0
   35.7043   31.1265   49.3512 H   0  0  0  0  0  0  0  0  0  0  0  0
   35.6407   29.6762   48.4320 H   0  0  0  0  0  0  0  0  0  0  0  0
   35.3544   29.3807   51.0894 H   0  0  0  0  0  0  0  0  0  0  0  0
   36.5782   28.3265   50.4343 H   0  0  0  0  0  0  0  0  0  0  0  0
   36.8660   30.8747   52.0162 H   0  0  0  0  0  0  0  0  0  0  0  0
   38.0224   29.5362   51.8865 H   0  0  0  0  0  0  0  0  0  0  0  0
   39.2089   30.8897   50.4187 H   0  0  0  0  0  0  0  0  0  0  0  0
   37.9084   32.0563   50.2866 H   0  0  0  0  0  0  0  0  0  0  0  0
  1  2  2  0
  2  7  1  0
  3  2  1  0
  4  3  2  0
  5  6  2  0
  5  4  1  0
  6  1  1  0
  7  8  1  0
  7 11  1  0
  8  9  1  0
  9 10  1  0
 11 10  1  0
  1 12  1  0
  3 13  1  0
  5 14  1  0
  7 15  1  0
  8 16  1  0
  8 17  1  0
  9 18  1  0
  9 19  1  0
 10 20  1  0
 10 21  1  0
 11 22  1  0
 11 23  1  0
M  ISO  8  12  14  13  14  14  14  15  13  16  13  17  13  18  13  19  13
M  ISO  4  20  13  21  13  22  13  23  13
M  END
>  <minimizedAffinity>  (1) 
-4.90474653

>  <minimizedRMSD>  (1) 
4.47834206

$$$$
