
     RDKit          3D

 38 40  0  0  0  0  0  0  0  0999 V2000
   33.7380   28.6040   48.7180 C   0  0  0  0  0  0  0  0  0  0  0  0
   32.8250   27.4860   48.3250 C   0  0  0  0  0  0  0  0  0  0  0  0
   31.3870   27.8710   48.3440 C   0  0  0  0  0  0  0  0  0  0  0  0
   30.7070   27.7350   49.5270 C   0  0  0  0  0  0  0  0  0  0  0  0
   29.3720   28.0610   49.6610 C   0  0  0  0  0  0  0  0  0  0  0  0
   28.7240   28.5270   48.5910 N   0  0  0  0  0  0  0  0  0  0  0  0
   29.3930   28.6610   47.4310 C   0  0  0  0  0  0  0  0  0  0  0  0
   30.6950   28.3480   47.2780 N   0  0  0  0  0  0  0  0  0  0  0  0
   34.6590   28.1560   49.7170 O   0  0  0  0  0  0  0  0  0  0  0  0
   37.1840   30.1760   51.3700 C   0  0  0  0  0  0  0  0  0  0  0  0
   37.8820   30.6530   50.2470 C   0  0  0  0  0  0  0  0  0  0  0  0
   37.4490   30.2560   48.9860 C   0  0  0  0  0  0  0  0  0  0  0  0
   36.3640   29.4220   48.9370 N   0  0  0  0  0  0  0  0  0  0  0  0
   35.7190   28.9830   50.0140 C   0  0  0  0  0  0  0  0  0  0  0  0
   36.1280   29.3600   51.2550 N   0  0  0  0  0  0  0  0  0  0  0  0
   38.1330   30.7190   47.7620 C   0  0  0  0  0  0  0  0  0  0  0  0
   37.1770   30.9680   46.6210 C   0  0  0  0  0  0  0  0  0  0  0  0
   38.0760   31.7050   45.6220 C   0  0  0  0  0  0  0  0  0  0  0  0
   39.0670   32.4670   46.4610 C   0  0  0  0  0  0  0  0  0  0  0  0
   38.8180   32.0430   47.8930 C   0  0  0  0  0  0  0  0  0  0  0  0
   33.1420   29.4369   49.1194 H   0  0  0  0  0  0  0  0  0  0  0  0
   34.2997   28.9391   47.8336 H   0  0  0  0  0  0  0  0  0  0  0  0
   32.9729   26.6508   49.0254 H   0  0  0  0  0  0  0  0  0  0  0  0
   33.0756   27.2064   47.2911 H   0  0  0  0  0  0  0  0  0  0  0  0
   31.2470   27.3506   50.4049 H   0  0  0  0  0  0  0  0  0  0  0  0
   28.8557   27.9398   50.6247 H   0  0  0  0  0  0  0  0  0  0  0  0
   28.8463   29.0479   46.5584 H   0  0  0  0  0  0  0  0  0  0  0  0
   37.5149   30.4820   52.3734 H   0  0  0  0  0  0  0  0  0  0  0  0
   38.7474   31.3222   50.3622 H   0  0  0  0  0  0  0  0  0  0  0  0
   38.8444   29.8993   47.5833 H   0  0  0  0  0  0  0  0  0  0  0  0
   36.7990   30.0244   46.2007 H   0  0  0  0  0  0  0  0  0  0  0  0
   36.2738   31.5267   46.9074 H   0  0  0  0  0  0  0  0  0  0  0  0
   37.4814   32.3960   45.0065 H   0  0  0  0  0  0  0  0  0  0  0  0
   38.5749   31.0096   44.9309 H   0  0  0  0  0  0  0  0  0  0  0  0
   40.0949   32.2146   46.1613 H   0  0  0  0  0  0  0  0  0  0  0  0
   38.9475   33.5534   46.3368 H   0  0  0  0  0  0  0  0  0  0  0  0
   38.1722   32.7685   48.4094 H   0  0  0  0  0  0  0  0  0  0  0  0
   39.7430   31.9854   48.4855 H   0  0  0  0  0  0  0  0  0  0  0  0
  1  9  1  0
  2  3  1  0
  2  1  1  0
  3  4  2  0
  4  5  1  0
  6  5  2  0
  7  6  1  0
  8  7  2  0
  8  3  1  0
  9 14  1  0
 11 10  2  0
 12 11  1  0
 13 12  2  0
 13 14  1  0
 14 15  2  0
 15 10  1  0
 16 20  1  0
 16 12  1  0
 17 16  1  0
 18 19  1  0
 18 17  1  0
 19 20  1  0
  1 21  1  0
  1 22  1  0
  2 23  1  0
  2 24  1  0
  4 25  1  0
  5 26  1  0
  7 27  1  0
 10 28  1  0
 11 29  1  0
 16 30  1  0
 17 31  1  0
 17 32  1  0
 18 33  1  0
 18 34  1  0
 19 35  1  0
 19 36  1  0
 20 37  1  0
 20 38  1  0
M  ISO  8  21   8  22   8  23   8  24   8  25  14  26  14  27  14  28  14
M  ISO  8  29  14  30  13  31  13  32  13  33  13  34  13  35  13  36  13
M  ISO  2  37  13  38  13
M  END
>  <minimizedAffinity>  (1) 
-5.82141304

>  <minimizedRMSD>  (1) 
0.097887896

$$$$
