
     RDKit          3D

 31 33  0  0  0  0  0  0  0  0999 V2000
   36.0300   30.1410   47.3310 C   0  0  0  0  0  0  0  0  0  0  0  0
   35.0330   29.9130   46.3950 C   0  0  0  0  0  0  0  0  0  0  0  0
   35.1890   30.1840   45.0410 C   0  0  0  0  0  0  0  0  0  0  0  0
   36.3580   30.6880   44.6170 N   0  0  0  0  0  0  0  0  0  0  0  0
   37.3230   30.9090   45.5220 C   0  0  0  0  0  0  0  0  0  0  0  0
   37.1870   30.6510   46.8390 N   0  0  0  0  0  0  0  0  0  0  0  0
   36.5720   29.5070   51.0160 C   0  0  0  0  0  0  0  0  0  0  0  0
   36.8990   29.7920   49.6730 C   0  0  0  0  0  0  0  0  0  0  0  0
   35.8700   29.8570   48.7500 C   0  0  0  0  0  0  0  0  0  0  0  0
   34.6180   29.6440   49.1990 N   0  0  0  0  0  0  0  0  0  0  0  0
   34.3090   29.3710   50.4850 C   0  0  0  0  0  0  0  0  0  0  0  0
   35.2930   29.3040   51.3880 N   0  0  0  0  0  0  0  0  0  0  0  0
   38.5990   31.4620   45.0500 C   0  0  0  0  0  0  0  0  0  0  0  0
   39.7170   31.2310   46.0730 C   0  0  0  0  0  0  0  0  0  0  0  0
   40.9040   31.7360   45.2450 C   0  0  0  0  0  0  0  0  0  0  0  0
   40.5940   31.2570   43.8240 C   0  0  0  0  0  0  0  0  0  0  0  0
   39.1700   30.7510   43.8450 C   0  0  0  0  0  0  0  0  0  0  0  0
   34.0743   29.4985   46.7400 H   0  0  0  0  0  0  0  0  0  0  0  0
   34.3712   29.9894   44.3316 H   0  0  0  0  0  0  0  0  0  0  0  0
   37.3718   29.4498   51.7690 H   0  0  0  0  0  0  0  0  0  0  0  0
   37.9429   29.9579   49.3684 H   0  0  0  0  0  0  0  0  0  0  0  0
   33.2636   29.2062   50.7851 H   0  0  0  0  0  0  0  0  0  0  0  0
   38.3478   32.5138   44.8483 H   0  0  0  0  0  0  0  0  0  0  0  0
   39.5691   31.8244   46.9873 H   0  0  0  0  0  0  0  0  0  0  0  0
   39.8072   30.2025   46.4526 H   0  0  0  0  0  0  0  0  0  0  0  0
   40.9683   32.8335   45.2825 H   0  0  0  0  0  0  0  0  0  0  0  0
   41.8694   31.3623   45.6169 H   0  0  0  0  0  0  0  0  0  0  0  0
   41.2812   30.4474   43.5371 H   0  0  0  0  0  0  0  0  0  0  0  0
   40.7174   32.0701   43.0935 H   0  0  0  0  0  0  0  0  0  0  0  0
   38.6337   31.0295   42.9259 H   0  0  0  0  0  0  0  0  0  0  0  0
   39.0905   29.6552   43.8989 H   0  0  0  0  0  0  0  0  0  0  0  0
  1  9  1  0
  2  1  2  0
  3  2  1  0
  4  3  2  0
  4  5  1  0
  5  6  2  0
  6  1  1  0
  7 12  2  0
  8  7  1  0
  9 10  1  0
  9  8  2  0
 10 11  2  0
 11 12  1  0
 13  5  1  0
 13 14  1  0
 15 14  1  0
 16 17  1  0
 16 15  1  0
 17 13  1  0
  2 18  1  0
  3 19  1  0
  7 20  1  0
  8 21  1  0
 11 22  1  0
 13 23  1  0
 14 24  1  0
 14 25  1  0
 15 26  1  0
 15 27  1  0
 16 28  1  0
 16 29  1  0
 17 30  1  0
 17 31  1  0
M  ISO  8  18  14  19  14  20  14  21  14  22  14  23  13  24  13  25  13
M  ISO  6  26  13  27  13  28  13  29  13  30  13  31  13
M  END
>  <minimizedAffinity>  (1) 
-4.8696928

>  <minimizedRMSD>  (1) 
2.94418955

$$$$
