
     RDKit          3D

 45 49  0  0  0  0  0  0  0  0999 V2000
   35.5160   29.6250   49.7460 C   0  0  0  0  0  0  0  0  0  0  0  0
   36.5420   29.3220   50.6400 C   0  0  0  0  0  0  0  0  0  0  0  0
   37.6780   29.8430   50.0250 C   0  0  0  0  0  0  0  0  0  0  0  0
   37.3080   30.4160   48.8350 C   0  0  0  0  0  0  0  0  0  0  0  0
   35.9990   30.2680   48.6950 O   0  0  0  0  0  0  0  0  0  0  0  0
   38.5980   32.3820   48.1060 C   0  0  0  0  0  0  0  0  0  0  0  0
   38.1760   31.0770   47.8720 C   0  0  0  0  0  0  0  0  0  0  0  0
   38.5760   30.4010   46.7280 C   0  0  0  0  0  0  0  0  0  0  0  0
   39.4010   31.0140   45.8020 C   0  0  0  0  0  0  0  0  0  0  0  0
   39.9450   30.6270   44.6270 N   0  0  0  0  0  0  0  0  0  0  0  0
   40.6580   31.6450   44.1720 N   0  0  0  0  0  0  0  0  0  0  0  0
   40.5820   32.6780   45.0350 C   0  0  0  0  0  0  0  0  0  0  0  0
   39.7750   32.2990   46.0980 C   0  0  0  0  0  0  0  0  0  0  0  0
   39.4290   33.0340   47.1970 C   0  0  0  0  0  0  0  0  0  0  0  0
   34.1260   29.2730   49.9640 C   0  0  0  0  0  0  0  0  0  0  0  0
   33.5060   29.8380   50.8810 O   0  0  0  0  0  0  0  0  0  0  0  0
   31.5480   27.2100   48.4190 C   0  0  0  0  0  0  0  0  0  0  0  0
   32.2520   26.4230   47.5320 C   0  0  0  0  0  0  0  0  0  0  0  0
   33.6180   26.5750   47.4400 C   0  0  0  0  0  0  0  0  0  0  0  0
   34.2090   27.5000   48.2300 N   0  0  0  0  0  0  0  0  0  0  0  0
   33.5050   28.2630   49.0950 C   0  0  0  0  0  0  0  0  0  0  0  0
   32.1700   28.1130   49.1860 N   0  0  0  0  0  0  0  0  0  0  0  0
   34.3770   25.7580   46.5120 C   0  0  0  0  0  0  0  0  0  0  0  0
   34.2280   24.2590   46.7960 C   0  0  0  0  0  0  0  0  0  0  0  0
   34.7580   23.6270   45.5270 C   0  0  0  0  0  0  0  0  0  0  0  0
   34.8350   24.7130   44.4780 C   0  0  0  0  0  0  0  0  0  0  0  0
   33.9660   25.8020   45.0780 C   0  0  0  0  0  0  0  0  0  0  0  0
   36.4711   28.7958   51.6034 H   0  0  0  0  0  0  0  0  0  0  0  0
   38.7012   29.8018   50.4267 H   0  0  0  0  0  0  0  0  0  0  0  0
   38.2724   32.9043   49.0177 H   0  0  0  0  0  0  0  0  0  0  0  0
   38.2344   29.3696   46.5561 H   0  0  0  0  0  0  0  0  0  0  0  0
   39.8268   29.7111   44.1709 H   0  0  0  0  0  0  0  0  0  0  0  0
   41.0753   33.6540   44.9166 H   0  0  0  0  0  0  0  0  0  0  0  0
   39.7807   34.0646   47.3526 H   0  0  0  0  0  0  0  0  0  0  0  0
   30.4570   27.0935   48.4973 H   0  0  0  0  0  0  0  0  0  0  0  0
   31.7299   25.6840   46.9065 H   0  0  0  0  0  0  0  0  0  0  0  0
   35.3778   26.1884   46.6639 H   0  0  0  0  0  0  0  0  0  0  0  0
   34.8266   23.9590   47.6688 H   0  0  0  0  0  0  0  0  0  0  0  0
   33.1969   23.9600   47.0355 H   0  0  0  0  0  0  0  0  0  0  0  0
   35.7583   23.2060   45.7062 H   0  0  0  0  0  0  0  0  0  0  0  0
   34.0980   22.8123   45.1943 H   0  0  0  0  0  0  0  0  0  0  0  0
   34.4317   24.3664   43.5151 H   0  0  0  0  0  0  0  0  0  0  0  0
   35.8616   25.0400   44.2562 H   0  0  0  0  0  0  0  0  0  0  0  0
   34.1830   26.7821   44.6282 H   0  0  0  0  0  0  0  0  0  0  0  0
   32.8880   25.6539   44.9167 H   0  0  0  0  0  0  0  0  0  0  0  0
  1 15  1  0
  1  2  2  0
  3  2  1  0
  4  3  2  0
  5  4  1  0
  5  1  1  0
  7  6  2  0
  7  4  1  0
  8  7  1  0
  9 13  1  0
  9  8  2  0
 10  9  1  0
 11 10  1  0
 11 12  2  0
 12 13  1  0
 13 14  2  0
 14  6  1  0
 15 16  2  0
 17 22  2  0
 18 17  1  0
 19 18  2  0
 19 20  1  0
 20 21  2  0
 21 22  1  0
 21 15  1  0
 23 24  1  0
 23 19  1  0
 25 24  1  0
 26 27  1  0
 26 25  1  0
 27 23  1  0
  2 28  1  0
  3 29  1  0
  6 30  1  0
  8 31  1  0
 10 32  1  0
 12 33  1  0
 14 34  1  0
 17 35  1  0
 18 36  1  0
 23 37  1  0
 24 38  1  0
 24 39  1  0
 25 40  1  0
 25 41  1  0
 26 42  1  0
 26 43  1  0
 27 44  1  0
 27 45  1  0
M  ISO  8  28  14  29  14  30  14  31  14  32   9  33  14  34  14  35  14
M  ISO  8  36  14  37  13  38  13  39  13  40  13  41  13  42  13  43  13
M  ISO  2  44  13  45  13
M  END
>  <minimizedAffinity>  (1) 
-6.80696964

>  <minimizedRMSD>  (1) 
0.387925148

$$$$
