
     RDKit          3D

 50 54  0  0  1  0  0  0  0  0999 V2000
   39.0480   32.1330   47.4280 C   0  0  1  0  0  0  0  0  0  0  0  0
   37.7530   30.8480   50.6380 C   0  0  0  0  0  0  0  0  0  0  0  0
   38.4720   31.5050   49.6690 C   0  0  0  0  0  0  0  0  0  0  0  0
   38.1210   31.4760   48.3110 C   0  0  0  0  0  0  0  0  0  0  0  0
   37.0600   30.7900   47.9900 N   0  0  0  0  0  0  0  0  0  0  0  0
   36.3460   30.1370   48.9600 C   0  0  0  0  0  0  0  0  0  0  0  0
   36.6820   30.1630   50.2440 N   0  0  0  0  0  0  0  0  0  0  0  0
   35.1360   29.3940   48.6160 C   0  0  0  0  0  0  0  0  0  0  0  0
   34.6090   28.2310   49.1360 C   0  0  0  0  0  0  0  0  0  0  0  0
   33.4510   27.7450   48.6680 C   0  0  0  0  0  0  0  0  0  0  0  0
   32.8440   28.4850   47.6490 C   0  0  0  0  0  0  0  0  0  0  0  0
   33.9850   29.9040   47.3780 S   0  0  0  0  0  0  0  0  0  0  0  0
   31.5980   28.3120   46.8720 C   0  0  0  0  0  0  0  0  0  0  0  0
   31.1950   29.5380   46.0940 C   0  0  0  0  0  0  0  0  0  0  0  0
   29.7240   29.2820   45.8350 C   0  0  0  0  0  0  0  0  0  0  0  0
   29.2350   28.7640   47.1510 C   0  0  0  0  0  0  0  0  0  0  0  0
   30.4020   28.0080   47.7430 C   0  0  0  0  0  0  0  0  0  0  0  0
   39.1330   31.5790   46.0180 C   0  0  2  0  0  0  0  0  0  0  0  0
   40.5990   31.2280   45.7750 C   0  0  0  0  0  0  0  0  0  0  0  0
   39.8810   32.2810   45.0040 C   0  0  1  0  0  0  0  0  0  0  0  0
   39.8160   32.0140   43.5610 C   0  0  0  0  0  0  0  0  0  0  0  0
   39.1100   32.8940   42.7800 C   0  0  0  0  0  0  0  0  0  0  0  0
   39.0920   32.6340   41.4290 C   0  0  0  0  0  0  0  0  0  0  0  0
   39.7270   31.5720   40.8530 C   0  0  0  0  0  0  0  0  0  0  0  0
   40.4340   30.6960   41.6740 C   0  0  0  0  0  0  0  0  0  0  0  0
   40.4620   30.9360   42.9960 N   0  0  0  0  0  0  0  0  0  0  0  0
   39.2950   33.4070   47.5010 O   0  0  0  0  0  0  0  0  0  0  0  0
   39.9222   31.7850   47.9978 H   0  0  0  0  0  0  0  0  0  0  0  0
   38.0504   30.8865   51.6963 H   0  0  0  0  0  0  0  0  0  0  0  0
   39.3609   32.0783   49.9709 H   0  0  0  0  0  0  0  0  0  0  0  0
   35.1414   27.6996   49.9386 H   0  0  0  0  0  0  0  0  0  0  0  0
   33.0051   26.8198   49.0619 H   0  0  0  0  0  0  0  0  0  0  0  0
   31.8461   27.4765   46.2009 H   0  0  0  0  0  0  0  0  0  0  0  0
   31.3425   30.4530   46.6865 H   0  0  0  0  0  0  0  0  0  0  0  0
   31.7844   29.6941   45.1785 H   0  0  0  0  0  0  0  0  0  0  0  0
   29.2040   30.2109   45.5579 H   0  0  0  0  0  0  0  0  0  0  0  0
   29.5455   28.5860   45.0021 H   0  0  0  0  0  0  0  0  0  0  0  0
   28.9427   29.5966   47.8078 H   0  0  0  0  0  0  0  0  0  0  0  0
   28.3488   28.1229   47.0347 H   0  0  0  0  0  0  0  0  0  0  0  0
   30.1952   26.9276   47.7405 H   0  0  0  0  0  0  0  0  0  0  0  0
   30.5829   28.3094   48.7853 H   0  0  0  0  0  0  0  0  0  0  0  0
   38.1260   31.1388   45.9705 H   0  0  0  0  0  0  0  0  0  0  0  0
   41.3680   31.5029   46.5120 H   0  0  0  0  0  0  0  0  0  0  0  0
   41.1689   30.3180   45.5361 H   0  0  0  0  0  0  0  0  0  0  0  0
   39.9446   33.3630   44.8166 H   0  0  0  0  0  0  0  0  0  0  0  0
   38.5867   33.7604   43.2107 H   0  0  0  0  0  0  0  0  0  0  0  0
   38.5341   33.3212   40.7759 H   0  0  0  0  0  0  0  0  0  0  0  0
   39.6816   31.4114   39.7657 H   0  0  0  0  0  0  0  0  0  0  0  0
   40.9578   29.8269   41.2494 H   0  0  0  0  0  0  0  0  0  0  0  0
   39.3477   33.6790   48.4514 H   0  0  0  0  0  0  0  0  0  0  0  0
  1 27  1  0
  1  4  1  0
  3  2  2  0
  4  3  1  0
  5  4  2  0
  5  6  1  0
  6  7  2  0
  7  2  1  0
  8  6  1  0
  8  9  2  0
 10  9  1  0
 11 10  2  0
 12 11  1  0
 12  8  1  0
 13 11  1  0
 13 17  1  0
 14 13  1  0
 15 14  1  0
 15 16  1  0
 16 17  1  0
 18  1  1  0
 19 18  1  0
 20 19  1  0
 20 18  1  0
 21 20  1  0
 22 21  2  0
 23 22  1  0
 24 23  2  0
 24 25  1  0
 25 26  2  0
 26 21  1  0
  1 28  1  1
  2 29  1  0
  3 30  1  0
  9 31  1  0
 10 32  1  0
 13 33  1  0
 14 34  1  0
 14 35  1  0
 15 36  1  0
 15 37  1  0
 16 38  1  0
 16 39  1  0
 17 40  1  0
 17 41  1  0
 18 42  1  6
 19 43  1  0
 19 44  1  0
 20 45  1  6
 22 46  1  0
 23 47  1  0
 24 48  1  0
 25 49  1  0
 27 50  1  0
M  ISO  8  28   8  29  14  30  14  31  14  32  14  33  13  34  13  35  13
M  ISO  8  36  13  37  13  38  13  39  13  40  13  41  13  42  13  43  13
M  ISO  7  44  13  45  13  46  14  47  14  48  14  49  14  50   3
M  END
>  <minimizedAffinity>  (1) 
-6.8226738

>  <minimizedRMSD>  (1) 
0.458663613

$$$$
