
     RDKit          3D

 39 41  0  0  1  0  0  0  0  0999 V2000
   35.8080   29.5600   48.8440 N   0  0  0  0  0  0  0  0  0  0  0  0
   36.4530   28.7990   49.8940 C   0  0  0  0  0  0  0  0  0  0  0  0
   36.9510   29.5300   51.0600 C   0  0  0  0  0  0  0  0  0  0  0  0
   37.2960   30.9470   50.9110 C   0  0  0  0  0  0  0  0  0  0  0  0
   36.6350   31.6280   49.7380 C   0  0  0  0  0  0  0  0  0  0  0  0
   36.6410   30.6880   48.5280 C   0  0  1  0  0  0  0  0  0  0  0  0
   34.5540   29.2220   48.2420 C   0  0  0  0  0  0  0  0  0  0  0  0
   34.0560   29.8170   47.0870 C   0  0  0  0  0  0  0  0  0  0  0  0
   32.8290   29.4050   46.5990 C   0  0  0  0  0  0  0  0  0  0  0  0
   32.1660   28.4280   47.2820 N   0  0  0  0  0  0  0  0  0  0  0  0
   32.6810   27.8750   48.4010 C   0  0  0  0  0  0  0  0  0  0  0  0
   33.8690   28.2760   48.8700 N   0  0  0  0  0  0  0  0  0  0  0  0
   37.9850   30.2990   48.3750 O   0  0  0  0  0  0  0  0  0  0  0  0
   38.4350   30.8470   47.1970 C   0  0  0  0  0  0  0  0  0  0  0  0
   37.3140   31.1860   46.2280 C   0  0  0  0  0  0  0  0  0  0  0  0
   38.0510   32.0540   45.2120 C   0  0  0  0  0  0  0  0  0  0  0  0
   39.2500   32.6150   45.9080 C   0  0  0  0  0  0  0  0  0  0  0  0
   39.0820   32.1870   47.3550 C   0  0  0  0  0  0  0  0  0  0  0  0
   35.7248   28.0590   50.2573 H   0  0  0  0  0  0  0  0  0  0  0  0
   37.3555   28.3847   49.4210 H   0  0  0  0  0  0  0  0  0  0  0  0
   36.1751   29.4662   51.8371 H   0  0  0  0  0  0  0  0  0  0  0  0
   37.9117   29.0449   51.2875 H   0  0  0  0  0  0  0  0  0  0  0  0
   36.9949   31.4730   51.8289 H   0  0  0  0  0  0  0  0  0  0  0  0
   38.3801   30.9894   50.7293 H   0  0  0  0  0  0  0  0  0  0  0  0
   35.5971   31.8818   49.9993 H   0  0  0  0  0  0  0  0  0  0  0  0
   37.1873   32.5464   49.4900 H   0  0  0  0  0  0  0  0  0  0  0  0
   36.2600   31.1472   47.6039 H   0  0  0  0  0  0  0  0  0  0  0  0
   34.6284   30.6017   46.5707 H   0  0  0  0  0  0  0  0  0  0  0  0
   32.4015   29.8511   45.6890 H   0  0  0  0  0  0  0  0  0  0  0  0
   32.1209   27.0902   48.9305 H   0  0  0  0  0  0  0  0  0  0  0  0
   39.1225   30.0643   46.8438 H   0  0  0  0  0  0  0  0  0  0  0  0
   36.8992   30.2814   45.7594 H   0  0  0  0  0  0  0  0  0  0  0  0
   36.4470   31.6760   46.6951 H   0  0  0  0  0  0  0  0  0  0  0  0
   37.3981   32.8693   44.8668 H   0  0  0  0  0  0  0  0  0  0  0  0
   38.3469   31.4644   44.3318 H   0  0  0  0  0  0  0  0  0  0  0  0
   40.1760   32.1992   45.4842 H   0  0  0  0  0  0  0  0  0  0  0  0
   39.3244   33.7071   45.8000 H   0  0  0  0  0  0  0  0  0  0  0  0
   38.4340   32.8834   47.9073 H   0  0  0  0  0  0  0  0  0  0  0  0
   40.0205   32.1669   47.9284 H   0  0  0  0  0  0  0  0  0  0  0  0
  1  2  1  0
  2  3  1  0
  4  3  1  0
  5  4  1  0
  6  1  1  0
  6  5  1  0
  7  1  1  0
  7 12  1  0
  8  7  2  0
  9  8  1  0
  9 10  2  0
 10 11  1  0
 11 12  2  0
 13  6  1  0
 14 18  1  0
 14 13  1  0
 15 14  1  0
 16 17  1  0
 16 15  1  0
 17 18  1  0
  2 19  1  0
  2 20  1  0
  3 21  1  0
  3 22  1  0
  4 23  1  0
  4 24  1  0
  5 25  1  0
  5 26  1  0
  6 27  1  6
  8 28  1  0
  9 29  1  0
 11 30  1  0
 14 31  1  0
 15 32  1  0
 15 33  1  0
 16 34  1  0
 16 35  1  0
 17 36  1  0
 17 37  1  0
 18 38  1  0
 18 39  1  0
M  ISO  8  19  13  20  13  21  13  22  13  23  13  24  13  25  13  26  13
M  ISO  8  27  13  28  14  29  14  30  14  31  13  32  13  33  13  34  13
M  ISO  5  35  13  36  13  37  13  38  13  39  13
M  END
>  <minimizedAffinity>  (1) 
-5.58176708

>  <minimizedRMSD>  (1) 
0.379323959

$$$$
