
     RDKit          3D

 47 50  0  0  1  0  0  0  0  0999 V2000
   36.8180   30.7010   48.5860 N   0  0  0  0  0  0  0  0  0  0  0  0
   37.4020   30.5050   49.9010 C   0  0  0  0  0  0  0  0  0  0  0  0
   38.5530   31.4080   50.1930 C   0  0  0  0  0  0  0  0  0  0  0  0
   38.3660   32.7580   49.5320 C   0  0  0  0  0  0  0  0  0  0  0  0
   38.3990   32.5120   48.0510 C   0  0  0  0  0  0  0  0  0  0  0  0
   37.3320   31.5700   47.5820 C   0  0  1  0  0  0  0  0  0  0  0  0
   35.4460   28.7030   48.9160 C   0  0  0  0  0  0  0  0  0  0  0  0
   35.6450   29.9500   48.3130 C   0  0  0  0  0  0  0  0  0  0  0  0
   34.6700   30.4110   47.4470 C   0  0  0  0  0  0  0  0  0  0  0  0
   33.5680   29.6400   47.2210 N   0  0  0  0  0  0  0  0  0  0  0  0
   33.3960   28.4520   47.8070 C   0  0  0  0  0  0  0  0  0  0  0  0
   34.3440   27.9860   48.6590 N   0  0  0  0  0  0  0  0  0  0  0  0
   32.2140   27.6640   47.5500 C   0  0  0  0  0  0  0  0  0  0  0  0
   32.2900   26.3210   47.3500 C   0  0  0  0  0  0  0  0  0  0  0  0
   31.2270   25.4930   47.1040 C   0  0  0  0  0  0  0  0  0  0  0  0
   30.0120   26.1510   47.0720 C   0  0  0  0  0  0  0  0  0  0  0  0
   29.8620   27.5330   47.2690 C   0  0  0  0  0  0  0  0  0  0  0  0
   31.0080   28.2470   47.5070 N   0  0  0  0  0  0  0  0  0  0  0  0
   37.7830   30.7110   46.4300 C   0  0  0  0  0  0  0  0  0  0  0  0
   37.2110   31.0840   45.1030 C   0  0  0  0  0  0  0  0  0  0  0  0
   37.9460   30.0850   44.2070 C   0  0  0  0  0  0  0  0  0  0  0  0
   39.3240   29.9880   44.8100 C   0  0  0  0  0  0  0  0  0  0  0  0
   39.2570   30.7910   46.1220 C   0  0  0  0  0  0  0  0  0  0  0  0
   36.6222   30.6830   50.6561 H   0  0  0  0  0  0  0  0  0  0  0  0
   37.7894   29.4758   49.9277 H   0  0  0  0  0  0  0  0  0  0  0  0
   38.6329   31.5484   51.2811 H   0  0  0  0  0  0  0  0  0  0  0  0
   39.4692   30.9473   49.7952 H   0  0  0  0  0  0  0  0  0  0  0  0
   37.3993   33.1941   49.8239 H   0  0  0  0  0  0  0  0  0  0  0  0
   39.1523   33.4641   49.8370 H   0  0  0  0  0  0  0  0  0  0  0  0
   38.2669   33.4741   47.5344 H   0  0  0  0  0  0  0  0  0  0  0  0
   39.3686   32.0467   47.8198 H   0  0  0  0  0  0  0  0  0  0  0  0
   36.5280   32.2524   47.2690 H   0  0  0  0  0  0  0  0  0  0  0  0
   36.2030   28.3070   49.6089 H   0  0  0  0  0  0  0  0  0  0  0  0
   34.7818   31.3849   46.9480 H   0  0  0  0  0  0  0  0  0  0  0  0
   33.2886   25.8613   47.3891 H   0  0  0  0  0  0  0  0  0  0  0  0
   31.3303   24.4092   46.9471 H   0  0  0  0  0  0  0  0  0  0  0  0
   29.1072   25.5555   46.8805 H   0  0  0  0  0  0  0  0  0  0  0  0
   28.8754   28.0182   47.2342 H   0  0  0  0  0  0  0  0  0  0  0  0
   37.4517   29.7293   46.7993 H   0  0  0  0  0  0  0  0  0  0  0  0
   36.1215   30.9357   45.0718 H   0  0  0  0  0  0  0  0  0  0  0  0
   37.3400   32.1399   44.8230 H   0  0  0  0  0  0  0  0  0  0  0  0
   37.9985   30.4548   43.1723 H   0  0  0  0  0  0  0  0  0  0  0  0
   37.4384   29.1103   44.1595 H   0  0  0  0  0  0  0  0  0  0  0  0
   39.5810   28.9382   45.0146 H   0  0  0  0  0  0  0  0  0  0  0  0
   40.0950   30.3803   44.1306 H   0  0  0  0  0  0  0  0  0  0  0  0
   39.8615   30.3238   46.9134 H   0  0  0  0  0  0  0  0  0  0  0  0
   39.6511   31.8154   46.0486 H   0  0  0  0  0  0  0  0  0  0  0  0
  1  2  1  0
  2  3  1  0
  4  3  1  0
  5  4  1  0
  6  5  1  0
  6  1  1  0
  8  1  1  0
  8  7  2  0
  9  8  1  0
 10  9  2  0
 10 11  1  0
 11 12  2  0
 12  7  1  0
 13 11  1  0
 14 13  2  0
 15 14  1  0
 16 15  2  0
 16 17  1  0
 17 18  2  0
 18 13  1  0
 19  6  1  0
 20 19  1  0
 21 22  1  0
 21 20  1  0
 22 23  1  0
 23 19  1  0
  2 24  1  0
  2 25  1  0
  3 26  1  0
  3 27  1  0
  4 28  1  0
  4 29  1  0
  5 30  1  0
  5 31  1  0
  6 32  1  6
  7 33  1  0
  9 34  1  0
 14 35  1  0
 15 36  1  0
 16 37  1  0
 17 38  1  0
 19 39  1  0
 20 40  1  0
 20 41  1  0
 21 42  1  0
 21 43  1  0
 22 44  1  0
 22 45  1  0
 23 46  1  0
 23 47  1  0
M  ISO  8  24  13  25  13  26  13  27  13  28  13  29  13  30  13  31  13
M  ISO  8  32  13  33  14  34  14  35  14  36  14  37  14  38  14  39  13
M  ISO  8  40  13  41  13  42  13  43  13  44  13  45  13  46  13  47  13
M  END
>  <minimizedAffinity>  (1) 
-5.83473969

>  <minimizedRMSD>  (1) 
1.03387833

$$$$
