
     RDKit          3D

 33 35  0  0  1  0  0  0  0  0999 V2000
   36.6720   31.0860   50.1000 C   0  0  1  0  0  0  0  0  0  0  0  0
   36.5400   29.6470   50.0720 C   0  0  1  0  0  0  0  0  0  0  0  0
   37.3470   30.2620   51.1960 C   0  0  0  0  0  0  0  0  0  0  0  0
   37.6850   31.8050   49.2320 C   0  0  0  0  0  0  0  0  0  0  0  0
   38.0810   33.0700   49.6740 C   0  0  0  0  0  0  0  0  0  0  0  0
   38.9960   33.7180   48.8450 C   0  0  0  0  0  0  0  0  0  0  0  0
   39.4490   33.1270   47.6970 N   0  0  0  0  0  0  0  0  0  0  0  0
   39.0260   31.8850   47.3150 C   0  0  0  0  0  0  0  0  0  0  0  0
   38.1240   31.2200   48.1090 N   0  0  0  0  0  0  0  0  0  0  0  0
   35.1860   29.0570   50.3380 C   0  0  0  0  0  0  0  0  0  0  0  0
   34.5700   28.3860   49.1430 C   0  0  0  0  0  0  0  0  0  0  0  0
   34.8260   29.1150   47.8420 C   0  0  0  0  0  0  0  0  0  0  0  0
   33.9430   28.2990   46.8910 C   0  0  0  0  0  0  0  0  0  0  0  0
   32.7290   27.9820   47.7040 C   0  0  0  0  0  0  0  0  0  0  0  0
   33.0900   28.2590   49.1710 C   0  0  0  0  0  0  0  0  0  0  0  0
   35.9126   31.8764   50.0068 H   0  0  0  0  0  0  0  0  0  0  0  0
   36.7575   28.8577   49.3373 H   0  0  0  0  0  0  0  0  0  0  0  0
   38.4416   30.1556   51.2212 H   0  0  0  0  0  0  0  0  0  0  0  0
   37.3314   30.2342   52.2955 H   0  0  0  0  0  0  0  0  0  0  0  0
   37.7007   33.5195   50.6032 H   0  0  0  0  0  0  0  0  0  0  0  0
   39.3593   34.7197   49.1181 H   0  0  0  0  0  0  0  0  0  0  0  0
   39.4012   31.4262   46.3883 H   0  0  0  0  0  0  0  0  0  0  0  0
   35.2843   28.3120   51.1414 H   0  0  0  0  0  0  0  0  0  0  0  0
   34.5228   29.8900   50.6142 H   0  0  0  0  0  0  0  0  0  0  0  0
   35.0572   27.4012   49.1963 H   0  0  0  0  0  0  0  0  0  0  0  0
   34.5047   30.1657   47.8944 H   0  0  0  0  0  0  0  0  0  0  0  0
   35.8846   29.1751   47.5490 H   0  0  0  0  0  0  0  0  0  0  0  0
   34.4546   27.3772   46.5772 H   0  0  0  0  0  0  0  0  0  0  0  0
   33.7019   28.8438   45.9663 H   0  0  0  0  0  0  0  0  0  0  0  0
   31.8888   28.6207   47.3941 H   0  0  0  0  0  0  0  0  0  0  0  0
   32.4241   26.9343   47.5645 H   0  0  0  0  0  0  0  0  0  0  0  0
   32.7786   27.4251   49.8173 H   0  0  0  0  0  0  0  0  0  0  0  0
   32.5899   29.1514   49.5753 H   0  0  0  0  0  0  0  0  0  0  0  0
  1  3  1  0
  2  1  1  0
  2 10  1  0
  2  3  1  0
  4  5  2  0
  4  1  1  0
  6  5  1  0
  7  6  2  0
  8  7  1  0
  8  9  2  0
  9  4  1  0
 11 15  1  0
 11 10  1  0
 12 11  1  0
 13 14  1  0
 13 12  1  0
 14 15  1  0
  1 16  1  1
  2 17  1  6
  3 18  1  0
  3 19  1  0
  5 20  1  0
  6 21  1  0
  8 22  1  0
 10 23  1  0
 10 24  1  0
 11 25  1  0
 12 26  1  0
 12 27  1  0
 13 28  1  0
 13 29  1  0
 14 30  1  0
 14 31  1  0
 15 32  1  0
 15 33  1  0
M  ISO  8  16  13  17  13  18  13  19  13  20  14  21  14  22  14  23   8
M  ISO  8  24   8  25  13  26  13  27  13  28  13  29  13  30  13  31  13
M  ISO  2  32  13  33  13
M  END
>  <minimizedAffinity>  (1) 
-5.47934675

>  <minimizedRMSD>  (1) 
1.82197642

$$$$
