
     RDKit          3D

 47 50  0  0  0  0  0  0  0  0999 V2000
   35.3030   29.7940   48.6290 C   0  0  0  0  0  0  0  0  0  0  0  0
   34.7400   29.6590   49.8480 C   0  0  0  0  0  0  0  0  0  0  0  0
   33.7410   28.7930   50.0640 C   0  0  0  0  0  0  0  0  0  0  0  0
   33.2910   28.0390   49.0250 N   0  0  0  0  0  0  0  0  0  0  0  0
   33.8530   28.1810   47.8290 C   0  0  0  0  0  0  0  0  0  0  0  0
   34.8520   29.0450   47.6080 N   0  0  0  0  0  0  0  0  0  0  0  0
   31.9600   26.9810   46.8210 C   0  0  0  0  0  0  0  0  0  0  0  0
   33.3140   27.3100   46.8040 C   0  0  0  0  0  0  0  0  0  0  0  0
   34.2190   26.8330   45.8750 C   0  0  0  0  0  0  0  0  0  0  0  0
   33.7740   25.9740   44.8930 C   0  0  0  0  0  0  0  0  0  0  0  0
   32.4510   25.5910   44.8320 C   0  0  0  0  0  0  0  0  0  0  0  0
   31.6410   26.1120   45.7860 C   0  0  0  0  0  0  0  0  0  0  0  0
   30.8400   27.5530   47.9120 S   0  0  0  0  0  0  0  0  0  0  0  0
   29.6920   26.5570   47.5370 O   0  0  0  0  0  0  0  0  0  0  0  0
   30.4450   28.9360   47.4620 O   0  0  0  0  0  0  0  0  0  0  0  0
   30.2080   27.6410   49.3760 C   0  0  0  0  0  0  0  0  0  0  0  0
   29.6400   26.5580   50.0810 F   0  0  0  0  0  0  0  0  0  0  0  0
   28.8800   28.2740   49.3070 F   0  0  0  0  0  0  0  0  0  0  0  0
   30.5600   28.6810   50.2830 F   0  0  0  0  0  0  0  0  0  0  0  0
   37.8080   32.4500   48.9720 C   0  0  0  0  0  0  0  0  0  0  0  0
   38.4720   32.4050   47.7300 C   0  0  0  0  0  0  0  0  0  0  0  0
   38.0390   31.4610   46.8050 C   0  0  0  0  0  0  0  0  0  0  0  0
   37.0080   30.6470   47.1570 N   0  0  0  0  0  0  0  0  0  0  0  0
   36.3890   30.7190   48.3690 C   0  0  0  0  0  0  0  0  0  0  0  0
   36.7990   31.6230   49.2630 N   0  0  0  0  0  0  0  0  0  0  0  0
   38.6930   31.3650   45.4910 C   0  0  0  0  0  0  0  0  0  0  0  0
   40.1460   31.0340   45.6000 C   0  0  0  0  0  0  0  0  0  0  0  0
   40.8900   32.3290   45.3510 C   0  0  0  0  0  0  0  0  0  0  0  0
   39.8730   33.4050   45.1130 C   0  0  0  0  0  0  0  0  0  0  0  0
   38.6260   32.6770   44.7260 C   0  0  0  0  0  0  0  0  0  0  0  0
   35.1094   30.2734   50.6823 H   0  0  0  0  0  0  0  0  0  0  0  0
   33.2926   28.6934   51.0635 H   0  0  0  0  0  0  0  0  0  0  0  0
   35.2762   27.1336   45.9184 H   0  0  0  0  0  0  0  0  0  0  0  0
   34.4848   25.5885   44.1472 H   0  0  0  0  0  0  0  0  0  0  0  0
   32.0761   24.9055   44.0577 H   0  0  0  0  0  0  0  0  0  0  0  0
   30.5863   25.8041   45.7329 H   0  0  0  0  0  0  0  0  0  0  0  0
   38.1291   33.1865   49.7233 H   0  0  0  0  0  0  0  0  0  0  0  0
   39.3013   33.0904   47.5008 H   0  0  0  0  0  0  0  0  0  0  0  0
   38.1465   30.5665   44.9678 H   0  0  0  0  0  0  0  0  0  0  0  0
   40.3757   30.6485   46.6043 H   0  0  0  0  0  0  0  0  0  0  0  0
   40.4371   30.2573   44.8775 H   0  0  0  0  0  0  0  0  0  0  0  0
   41.5040   32.5821   46.2279 H   0  0  0  0  0  0  0  0  0  0  0  0
   41.5536   32.2288   44.4795 H   0  0  0  0  0  0  0  0  0  0  0  0
   39.7098   33.9926   46.0285 H   0  0  0  0  0  0  0  0  0  0  0  0
   40.1954   34.1152   44.3374 H   0  0  0  0  0  0  0  0  0  0  0  0
   37.7347   33.2515   45.0183 H   0  0  0  0  0  0  0  0  0  0  0  0
   38.5542   32.5224   43.6393 H   0  0  0  0  0  0  0  0  0  0  0  0
  1  2  2  0
  2  3  1  0
  4  3  2  0
  5  4  1  0
  6  5  2  0
  6  1  1  0
  7 13  1  0
  8  7  2  0
  8  5  1  0
  9  8  1  0
 10  9  2  0
 11 10  1  0
 11 12  2  0
 12  7  1  0
 13 16  1  0
 14 13  2  0
 15 13  2  0
 16 17  1  0
 16 19  1  0
 18 16  1  0
 20 25  2  0
 21 20  1  0
 22 23  1  0
 22 21  2  0
 23 24  2  0
 24  1  1  0
 24 25  1  0
 26 27  1  0
 26 22  1  0
 28 27  1  0
 29 28  1  0
 30 29  1  0
 30 26  1  0
  2 31  1  0
  3 32  1  0
  9 33  1  0
 10 34  1  0
 11 35  1  0
 12 36  1  0
 20 37  1  0
 21 38  1  0
 26 39  1  0
 27 40  1  0
 27 41  1  0
 28 42  1  0
 28 43  1  0
 29 44  1  0
 29 45  1  0
 30 46  1  0
 30 47  1  0
M  ISO  8  31  14  32  14  33  14  34  14  35  14  36  14  37  14  38  14
M  ISO  8  39  13  40  13  41  13  42  13  43  13  44  13  45  13  46  13
M  ISO  1  47  13
M  END
>  <minimizedAffinity>  (1) 
-6.61295748

>  <minimizedRMSD>  (1) 
1.58922291

$$$$
