
     RDKit          3D

 30 32  0  0  0  0  0  0  0  0999 V2000
   35.9410   30.0710   47.8850 C   0  0  0  0  0  0  0  0  0  0  0  0
   34.8240   29.1560   47.8330 C   0  0  0  0  0  0  0  0  0  0  0  0
   34.5620   30.5560   48.2690 C   0  0  0  0  0  0  0  0  0  0  0  0
   38.1140   32.0840   45.6750 C   0  0  0  0  0  0  0  0  0  0  0  0
   37.6850   31.7470   44.3900 C   0  0  0  0  0  0  0  0  0  0  0  0
   36.6390   30.8230   44.2820 C   0  0  0  0  0  0  0  0  0  0  0  0
   36.1100   30.3120   45.4180 N   0  0  0  0  0  0  0  0  0  0  0  0
   36.5520   30.6580   46.6660 C   0  0  0  0  0  0  0  0  0  0  0  0
   37.5460   31.5380   46.7870 N   0  0  0  0  0  0  0  0  0  0  0  0
   36.9870   30.0220   48.9870 C   0  0  0  0  0  0  0  0  0  0  0  0
   36.8870   28.8820   49.9150 C   0  0  0  0  0  0  0  0  0  0  0  0
   37.0470   29.4210   51.3300 C   0  0  0  0  0  0  0  0  0  0  0  0
   37.4030   30.8800   51.2090 C   0  0  0  0  0  0  0  0  0  0  0  0
   36.9990   31.2930   49.8100 C   0  0  0  0  0  0  0  0  0  0  0  0
   34.4486   28.8099   46.8587 H   0  0  0  0  0  0  0  0  0  0  0  0
   34.6229   28.1671   48.2707 H   0  0  0  0  0  0  0  0  0  0  0  0
   34.3219   30.7761   49.3197 H   0  0  0  0  0  0  0  0  0  0  0  0
   33.8934   31.3711   47.9552 H   0  0  0  0  0  0  0  0  0  0  0  0
   38.9323   32.8096   45.7931 H   0  0  0  0  0  0  0  0  0  0  0  0
   38.1506   32.1901   43.4974 H   0  0  0  0  0  0  0  0  0  0  0  0
   36.2559   30.5193   43.2966 H   0  0  0  0  0  0  0  0  0  0  0  0
   37.9246   29.8993   48.4249 H   0  0  0  0  0  0  0  0  0  0  0  0
   35.9057   28.3967   49.8078 H   0  0  0  0  0  0  0  0  0  0  0  0
   37.6667   28.1376   49.6960 H   0  0  0  0  0  0  0  0  0  0  0  0
   36.1049   29.3071   51.8862 H   0  0  0  0  0  0  0  0  0  0  0  0
   37.8290   28.8703   51.8733 H   0  0  0  0  0  0  0  0  0  0  0  0
   36.8527   31.4710   51.9560 H   0  0  0  0  0  0  0  0  0  0  0  0
   38.4755   31.0491   51.3853 H   0  0  0  0  0  0  0  0  0  0  0  0
   37.7258   32.0085   49.3978 H   0  0  0  0  0  0  0  0  0  0  0  0
   36.0160   31.7866   49.8036 H   0  0  0  0  0  0  0  0  0  0  0  0
  1  3  1  0
  1 10  1  0
  2  1  1  0
  2  3  1  0
  4  9  2  0
  5  4  1  0
  6  5  2  0
  6  7  1  0
  7  8  2  0
  8  9  1  0
  8  1  1  0
 10 14  1  0
 10 11  1  0
 11 12  1  0
 13 12  1  0
 14 13  1  0
  2 15  1  0
  2 16  1  0
  3 17  1  0
  3 18  1  0
  4 19  1  0
  5 20  1  0
  6 21  1  0
 10 22  1  0
 11 23  1  0
 11 24  1  0
 12 25  1  0
 12 26  1  0
 13 27  1  0
 13 28  1  0
 14 29  1  0
 14 30  1  0
M  ISO  8  15  13  16  13  17  13  18  13  19  14  20  14  21  14  22  13
M  ISO  8  23  13  24  13  25  13  26  13  27  13  28  13  29  13  30  13
M  END
>  <minimizedAffinity>  (1) 
-4.62854719

>  <minimizedRMSD>  (1) 
3.35682702

$$$$
