
     RDKit          3D

 30 32  0  0  0  0  0  0  0  0999 V2000
   37.2580   31.3520   49.1450 C   0  0  0  0  0  0  0  0  0  0  0  0
   37.4050   32.6390   49.6990 C   0  0  0  0  0  0  0  0  0  0  0  0
   38.3670   33.4330   49.0980 C   0  0  0  0  0  0  0  0  0  0  0  0
   39.0970   32.9770   48.0550 N   0  0  0  0  0  0  0  0  0  0  0  0
   38.9270   31.7290   47.5460 C   0  0  0  0  0  0  0  0  0  0  0  0
   37.9920   30.9090   48.1040 N   0  0  0  0  0  0  0  0  0  0  0  0
   36.2050   30.4550   49.7490 C   0  0  0  0  0  0  0  0  0  0  0  0
   36.2400   29.0090   49.5460 C   0  0  0  0  0  0  0  0  0  0  0  0
   36.7580   29.5600   50.8480 C   0  0  0  0  0  0  0  0  0  0  0  0
   39.7070   31.1910   46.4020 C   0  0  0  0  0  0  0  0  0  0  0  0
   40.3820   32.2730   45.6010 C   0  0  0  0  0  0  0  0  0  0  0  0
   40.2730   31.9190   44.1600 C   0  0  0  0  0  0  0  0  0  0  0  0
   39.5660   30.5860   44.1070 C   0  0  0  0  0  0  0  0  0  0  0  0
   38.8670   30.4180   45.4410 C   0  0  0  0  0  0  0  0  0  0  0  0
   36.7990   32.9880   50.5481 H   0  0  0  0  0  0  0  0  0  0  0  0
   38.5403   34.4517   49.4752 H   0  0  0  0  0  0  0  0  0  0  0  0
   35.3965   31.1882   49.6125 H   0  0  0  0  0  0  0  0  0  0  0  0
   35.3002   28.4376   49.5312 H   0  0  0  0  0  0  0  0  0  0  0  0
   36.6592   28.3527   48.7691 H   0  0  0  0  0  0  0  0  0  0  0  0
   37.8359   29.5493   51.0670 H   0  0  0  0  0  0  0  0  0  0  0  0
   36.5485   29.3965   51.9154 H   0  0  0  0  0  0  0  0  0  0  0  0
   40.4528   30.5352   46.8750 H   0  0  0  0  0  0  0  0  0  0  0  0
   39.8869   33.2377   45.7862 H   0  0  0  0  0  0  0  0  0  0  0  0
   41.4391   32.3594   45.8928 H   0  0  0  0  0  0  0  0  0  0  0  0
   39.6900   32.6816   43.6229 H   0  0  0  0  0  0  0  0  0  0  0  0
   41.2631   31.8672   43.6836 H   0  0  0  0  0  0  0  0  0  0  0  0
   38.8308   30.5777   43.2888 H   0  0  0  0  0  0  0  0  0  0  0  0
   40.2755   29.7658   43.9229 H   0  0  0  0  0  0  0  0  0  0  0  0
   37.8467   30.8271   45.3998 H   0  0  0  0  0  0  0  0  0  0  0  0
   38.7649   29.3616   45.7300 H   0  0  0  0  0  0  0  0  0  0  0  0
  1  2  2  0
  1  7  1  0
  3  2  1  0
  4  3  2  0
  5  4  1  0
  5  6  2  0
  6  1  1  0
  7  9  1  0
  8  7  1  0
  8  9  1  0
 10  5  1  0
 11 10  1  0
 12 11  1  0
 13 12  1  0
 13 14  1  0
 14 10  1  0
  2 15  1  0
  3 16  1  0
  7 17  1  0
  8 18  1  0
  8 19  1  0
  9 20  1  0
  9 21  1  0
 10 22  1  0
 11 23  1  0
 11 24  1  0
 12 25  1  0
 12 26  1  0
 13 27  1  0
 13 28  1  0
 14 29  1  0
 14 30  1  0
M  ISO  8  15  14  16  14  17  13  18  13  19  13  20  13  21  13  22  13
M  ISO  8  23  13  24  13  25  13  26  13  27  13  28  13  29  13  30  13
M  END
>  <minimizedAffinity>  (1) 
-5.55521345

>  <minimizedRMSD>  (1) 
0.984463692

$$$$
