
     RDKit          3D

 49 52  0  0  1  0  0  0  0  0999 V2000
   37.0490   30.6490   46.3440 C   0  0  1  0  0  0  0  0  0  0  0  0
   35.4960   30.7000   46.2440 C   0  0  0  0  0  0  0  0  0  0  0  0
   35.1440   29.5130   45.3410 C   0  0  0  0  0  0  0  0  0  0  0  0
   35.5800   29.9080   43.9670 C   0  0  0  0  0  0  0  0  0  0  0  0
   37.0670   30.1020   43.9670 C   0  0  0  0  0  0  0  0  0  0  0  0
   37.5160   31.1200   45.0010 C   0  0  2  0  0  0  0  0  0  0  0  0
   37.1390   31.3040   48.7690 C   0  0  0  0  0  0  0  0  0  0  0  0
   37.7070   32.0720   49.7770 C   0  0  0  0  0  0  0  0  0  0  0  0
   38.6890   33.0260   49.4730 C   0  0  0  0  0  0  0  0  0  0  0  0
   39.0580   33.1650   48.1470 C   0  0  0  0  0  0  0  0  0  0  0  0
   38.5040   32.4140   47.1470 C   0  0  0  0  0  0  0  0  0  0  0  0
   37.5230   31.4620   47.4690 C   0  0  0  0  0  0  0  0  0  0  0  0
   35.2070   28.2070   49.7430 C   0  0  0  0  0  0  0  0  0  0  0  0
   36.2920   29.0000   49.3000 C   0  0  0  0  0  0  0  0  0  0  0  0
   36.1110   30.3760   49.2010 C   0  0  0  0  0  0  0  0  0  0  0  0
   34.8980   30.8500   49.5410 N   0  0  0  0  0  0  0  0  0  0  0  0
   33.8700   30.0930   49.9610 C   0  0  0  0  0  0  0  0  0  0  0  0
   34.0280   28.7810   50.0600 N   0  0  0  0  0  0  0  0  0  0  0  0
   38.9980   31.3440   44.9160 C   0  0  0  0  0  0  0  0  0  0  0  0
   39.7790   30.1540   44.5070 C   0  0  0  0  0  0  0  0  0  0  0  0
   40.0990   30.2870   43.0570 C   0  0  0  0  0  0  0  0  0  0  0  0
   39.9780   31.7260   42.7060 C   0  0  0  0  0  0  0  0  0  0  0  0
   39.3670   32.3910   43.9010 C   0  0  0  0  0  0  0  0  0  0  0  0
   37.4514   29.6481   46.5592 H   0  0  0  0  0  0  0  0  0  0  0  0
   35.0362   30.5860   47.2368 H   0  0  0  0  0  0  0  0  0  0  0  0
   35.1283   31.6578   45.8471 H   0  0  0  0  0  0  0  0  0  0  0  0
   35.6794   28.6097   45.6686 H   0  0  0  0  0  0  0  0  0  0  0  0
   34.0693   29.2810   45.3753 H   0  0  0  0  0  0  0  0  0  0  0  0
   35.0850   30.8469   43.6780 H   0  0  0  0  0  0  0  0  0  0  0  0
   35.3065   29.1214   43.2483 H   0  0  0  0  0  0  0  0  0  0  0  0
   37.5494   29.1382   44.1869 H   0  0  0  0  0  0  0  0  0  0  0  0
   37.3569   30.4796   42.9753 H   0  0  0  0  0  0  0  0  0  0  0  0
   37.0675   32.1066   44.8129 H   0  0  0  0  0  0  0  0  0  0  0  0
   37.3850   31.9313   50.8194 H   0  0  0  0  0  0  0  0  0  0  0  0
   39.1490   33.6413   50.2602 H   0  0  0  0  0  0  0  0  0  0  0  0
   39.8264   33.9079   47.8869 H   0  0  0  0  0  0  0  0  0  0  0  0
   38.8229   32.5540   46.1036 H   0  0  0  0  0  0  0  0  0  0  0  0
   35.3255   27.1168   49.8294 H   0  0  0  0  0  0  0  0  0  0  0  0
   37.2564   28.5392   49.0399 H   0  0  0  0  0  0  0  0  0  0  0  0
   32.9072   30.5578   50.2200 H   0  0  0  0  0  0  0  0  0  0  0  0
   39.2451   31.6397   45.9463 H   0  0  0  0  0  0  0  0  0  0  0  0
   40.7096   30.0999   45.0909 H   0  0  0  0  0  0  0  0  0  0  0  0
   39.1991   29.2368   44.6871 H   0  0  0  0  0  0  0  0  0  0  0  0
   41.1242   29.9379   42.8645 H   0  0  0  0  0  0  0  0  0  0  0  0
   39.4114   29.6797   42.4500 H   0  0  0  0  0  0  0  0  0  0  0  0
   40.9697   32.1531   42.4960 H   0  0  0  0  0  0  0  0  0  0  0  0
   39.3636   31.8713   41.8052 H   0  0  0  0  0  0  0  0  0  0  0  0
   40.0910   33.0918   44.3421 H   0  0  0  0  0  0  0  0  0  0  0  0
   38.4659   32.9431   43.5958 H   0  0  0  0  0  0  0  0  0  0  0  0
  1 12  1  0
  2  1  1  0
  3  2  1  0
  4  5  1  0
  4  3  1  0
  5  6  1  0
  6  1  1  0
  7 15  1  0
  7  8  2  0
  9  8  1  0
 10  9  2  0
 11 12  2  0
 11 10  1  0
 12  7  1  0
 13 18  2  0
 14 13  1  0
 15 14  2  0
 15 16  1  0
 16 17  2  0
 17 18  1  0
 19  6  1  0
 20 19  1  0
 21 20  1  0
 22 21  1  0
 22 23  1  0
 23 19  1  0
  1 24  1  1
  2 25  1  0
  2 26  1  0
  3 27  1  0
  3 28  1  0
  4 29  1  0
  4 30  1  0
  5 31  1  0
  5 32  1  0
  6 33  1  6
  8 34  1  0
  9 35  1  0
 10 36  1  0
 11 37  1  0
 13 38  1  0
 14 39  1  0
 17 40  1  0
 19 41  1  0
 20 42  1  0
 20 43  1  0
 21 44  1  0
 21 45  1  0
 22 46  1  0
 22 47  1  0
 23 48  1  0
 23 49  1  0
M  ISO  8  24  13  25  13  26  13  27  13  28  13  29  13  30  13  31  13
M  ISO  8  32  13  33  13  34  14  35  14  36  14  37  14  38  14  39  14
M  ISO  8  40  14  41  13  42  13  43  13  44  13  45  13  46  13  47  13
M  ISO  2  48  13  49  13
M  END
>  <minimizedAffinity>  (1) 
-5.60822058

>  <minimizedRMSD>  (1) 
2.27701163

$$$$
