
     RDKit          3D

 28 29  0  0  0  0  0  0  0  0999 V2000
   36.9550   29.2360   50.6310 C   0  0  0  0  0  0  0  0  0  0  0  0
   37.7320   30.4930   50.8380 C   0  0  0  0  0  0  0  0  0  0  0  0
   38.1090   31.1890   49.6190 C   0  0  0  0  0  0  0  0  0  0  0  0
   38.5340   32.5010   49.6060 C   0  0  0  0  0  0  0  0  0  0  0  0
   38.8770   33.0880   48.3790 C   0  0  0  0  0  0  0  0  0  0  0  0
   38.7670   32.3110   47.2500 N   0  0  0  0  0  0  0  0  0  0  0  0
   38.3450   31.0230   47.3010 C   0  0  0  0  0  0  0  0  0  0  0  0
   38.0180   30.4780   48.5070 N   0  0  0  0  0  0  0  0  0  0  0  0
   35.7120   29.3860   51.2560 O   0  0  0  0  0  0  0  0  0  0  0  0
   34.6980   30.5980   49.1910 O   0  0  0  0  0  0  0  0  0  0  0  0
   34.4590   29.4100   50.1360 P   0  0  2  0  0  0  0  0  0  0  0  0
   32.9800   29.7070   50.8640 O   0  0  0  0  0  0  0  0  0  0  0  0
   34.3660   27.9740   49.2810 O   0  0  0  0  0  0  0  0  0  0  0  0
   33.4540   27.8680   48.2100 C   0  0  0  0  0  0  0  0  0  0  0  0
   33.7920   27.8780   46.8180 C   0  0  0  0  0  0  0  0  0  0  0  0
   32.1600   27.7070   46.0750 S   0  0  0  0  0  0  0  0  0  0  0  0
   31.2770   27.6490   47.7800 C   0  0  0  0  0  0  0  0  0  0  0  0
   32.2460   27.7590   48.7340 N   0  0  0  0  0  0  0  0  0  0  0  0
   36.8123   29.0587   49.5548 H   0  0  0  0  0  0  0  0  0  0  0  0
   37.4957   28.3787   51.0584 H   0  0  0  0  0  0  0  0  0  0  0  0
   37.1206   31.1761   51.4460 H   0  0  0  0  0  0  0  0  0  0  0  0
   38.6720   30.1969   51.3266 H   0  0  0  0  0  0  0  0  0  0  0  0
   38.6028   33.0767   50.5408 H   0  0  0  0  0  0  0  0  0  0  0  0
   39.2212   34.1312   48.3222 H   0  0  0  0  0  0  0  0  0  0  0  0
   38.2676   30.4256   46.3806 H   0  0  0  0  0  0  0  0  0  0  0  0
   33.0864   29.6856   51.8480 H   0  0  0  0  0  0  0  0  0  0  0  0
   34.7767   27.9659   46.3357 H   0  0  0  0  0  0  0  0  0  0  0  0
   30.1957   27.5466   47.9540 H   0  0  0  0  0  0  0  0  0  0  0  0
  1  2  1  0
  1  9  1  0
  3  2  1  0
  4  3  2  0
  5  4  1  0
  6  7  1  0
  6  5  2  0
  7  8  2  0
  8  3  1  0
 11 10  2  0
 11 12  1  0
 11  9  1  0
 13 11  1  0
 14 18  1  0
 14 13  1  0
 15 14  2  0
 16 15  1  0
 16 17  1  0
 17 18  2  0
  1 19  1  0
  1 20  1  0
  2 21  1  0
  2 22  1  0
  4 23  1  0
  5 24  1  0
  7 25  1  0
 12 26  1  0
 15 27  1  0
 17 28  1  0
M  ISO  8  19   8  20   8  21   8  22   8  23  14  24  14  25  14  26   3
M  ISO  2  27  14  28  14
M  END
>  <minimizedAffinity>  (1) 
-5.0653367

>  <minimizedRMSD>  (1) 
0.128119394

$$$$
