
     RDKit          3D

 35 37  0  0  1  0  0  0  0  0999 V2000
   34.6970   28.5780   50.0510 O   0  0  0  0  0  0  0  0  0  0  0  0
   34.4650   28.9550   48.8960 C   0  0  0  0  0  0  0  0  0  0  0  0
   35.1910   30.0530   48.2940 C   0  0  2  0  0  0  0  0  0  0  0  0
   34.6690   29.9860   46.8230 C   0  0  0  0  0  0  0  0  0  0  0  0
   33.3250   29.3470   46.9640 C   0  0  0  0  0  0  0  0  0  0  0  0
   33.4750   28.3700   48.0250 N   0  0  0  0  0  0  0  0  0  0  0  0
   32.7820   27.1140   48.1470 C   0  0  0  0  0  0  0  0  0  0  0  0
   31.2910   27.2910   48.2790 C   0  0  0  0  0  0  0  0  0  0  0  0
   30.7440   27.8660   49.5090 C   0  0  0  0  0  0  0  0  0  0  0  0
   28.9680   27.8390   49.1230 S   0  0  0  0  0  0  0  0  0  0  0  0
   29.2400   27.0740   47.4050 C   0  0  0  0  0  0  0  0  0  0  0  0
   30.5700   26.8910   47.2240 N   0  0  0  0  0  0  0  0  0  0  0  0
   36.5990   29.8510   48.2100 O   0  0  0  0  0  0  0  0  0  0  0  0
   37.4190   30.9740   48.2820 C   0  0  0  0  0  0  0  0  0  0  0  0
   37.5780   31.5500   49.5290 C   0  0  0  0  0  0  0  0  0  0  0  0
   38.3890   32.6690   49.6330 C   0  0  0  0  0  0  0  0  0  0  0  0
   38.9900   33.1520   48.5090 N   0  0  0  0  0  0  0  0  0  0  0  0
   38.8230   32.5810   47.3070 C   0  0  0  0  0  0  0  0  0  0  0  0
   38.0470   31.5100   47.2140 N   0  0  0  0  0  0  0  0  0  0  0  0
   40.3340   32.1800   45.5250 C   0  0  0  0  0  0  0  0  0  0  0  0
   40.5830   30.9870   45.8700 O   0  0  0  0  0  0  0  0  0  0  0  0
   39.4650   33.1160   46.1530 N   0  0  0  0  0  0  0  0  0  0  0  0
   35.0413   30.9793   48.8681 H   0  0  0  0  0  0  0  0  0  0  0  0
   35.3333   29.3725   46.1967 H   0  0  0  0  0  0  0  0  0  0  0  0
   34.6283   30.9711   46.3353 H   0  0  0  0  0  0  0  0  0  0  0  0
   32.5681   30.0976   47.2356 H   0  0  0  0  0  0  0  0  0  0  0  0
   32.9907   28.8835   46.0241 H   0  0  0  0  0  0  0  0  0  0  0  0
   32.9880   26.5085   47.2521 H   0  0  0  0  0  0  0  0  0  0  0  0
   33.1432   26.6189   49.0605 H   0  0  0  0  0  0  0  0  0  0  0  0
   31.2626   28.2163   50.4136 H   0  0  0  0  0  0  0  0  0  0  0  0
   28.4514   26.8225   46.6805 H   0  0  0  0  0  0  0  0  0  0  0  0
   37.0750   31.1319   50.4134 H   0  0  0  0  0  0  0  0  0  0  0  0
   38.5449   33.1588   50.6055 H   0  0  0  0  0  0  0  0  0  0  0  0
   40.8559   32.5383   44.6254 H   0  0  0  0  0  0  0  0  0  0  0  0
   39.3163   34.0759   45.8104 H   0  0  0  0  0  0  0  0  0  0  0  0
  2  1  2  0
  3  2  1  0
  4  5  1  0
  4  3  1  0
  5  6  1  0
  6  7  1  0
  6  2  1  0
  7  8  1  0
  8  9  2  0
 10  9  1  0
 11 10  1  0
 12 11  2  0
 12  8  1  0
 13 14  1  0
 13  3  1  0
 14 15  2  0
 15 16  1  0
 17 16  2  0
 18 17  1  0
 19 18  2  0
 19 14  1  0
 20 21  2  0
 20 22  1  0
 22 18  1  0
  3 23  1  1
  4 24  1  0
  4 25  1  0
  5 26  1  0
  5 27  1  0
  7 28  1  0
  7 29  1  0
  9 30  1  0
 11 31  1  0
 15 32  1  0
 16 33  1  0
 20 34  1  0
 22 35  1  0
M  ISO  8  23  13  24  13  25  13  26  13  27  13  28   8  29   8  30  14
M  ISO  4  31  14  32  14  33  14  34   6
M  END
>  <minimizedAffinity>  (1) 
-5.70541763

>  <minimizedRMSD>  (1) 
3.00881171

$$$$
