
     RDKit          3D

 44 47  0  0  0  0  0  0  0  0999 V2000
   38.7110   32.8680   48.3550 C   0  0  0  0  0  0  0  0  0  0  0  0
   39.0310   32.1970   47.1740 C   0  0  0  0  0  0  0  0  0  0  0  0
   38.5520   30.9230   47.0200 C   0  0  0  0  0  0  0  0  0  0  0  0
   37.7990   30.3910   48.0210 N   0  0  0  0  0  0  0  0  0  0  0  0
   37.5160   31.0440   49.1130 C   0  0  0  0  0  0  0  0  0  0  0  0
   37.9670   32.3250   49.3270 N   0  0  0  0  0  0  0  0  0  0  0  0
   39.7920   32.8470   46.2630 O   0  0  0  0  0  0  0  0  0  0  0  0
   39.9520   32.3000   44.9940 C   0  0  0  0  0  0  0  0  0  0  0  0
   40.6640   31.1650   44.6370 C   0  0  0  0  0  0  0  0  0  0  0  0
   40.6990   30.7990   43.3430 C   0  0  0  0  0  0  0  0  0  0  0  0
   40.0340   31.5530   42.4170 C   0  0  0  0  0  0  0  0  0  0  0  0
   39.3180   32.6990   42.7910 C   0  0  0  0  0  0  0  0  0  0  0  0
   39.3050   33.0350   44.0950 N   0  0  0  0  0  0  0  0  0  0  0  0
   38.5930   33.5080   41.7360 C   0  0  0  0  0  0  0  0  0  0  0  0
   36.4940   30.0800   50.2610 S   0  0  0  0  0  0  0  0  0  0  0  0
   34.7870   30.5050   49.8070 C   0  0  0  0  0  0  0  0  0  0  0  0
   34.3930   27.7770   49.8590 F   0  0  0  0  0  0  0  0  0  0  0  0
   34.3170   28.4370   48.6590 C   0  0  0  0  0  0  0  0  0  0  0  0
   34.4970   29.8100   48.5130 C   0  0  0  0  0  0  0  0  0  0  0  0
   34.4070   30.4000   47.2880 C   0  0  0  0  0  0  0  0  0  0  0  0
   34.1300   29.6520   46.1440 C   0  0  0  0  0  0  0  0  0  0  0  0
   33.9480   28.2770   46.2760 C   0  0  0  0  0  0  0  0  0  0  0  0
   34.0430   27.6940   47.5250 C   0  0  0  0  0  0  0  0  0  0  0  0
   33.8510   26.3310   47.5820 O   0  0  0  0  0  0  0  0  0  0  0  0
   32.7910   25.7760   46.8350 C   0  0  0  0  0  0  0  0  0  0  0  0
   31.5140   25.9910   47.3980 C   0  0  0  0  0  0  0  0  0  0  0  0
   30.3900   25.1640   46.2130 S   0  0  0  0  0  0  0  0  0  0  0  0
   31.8760   24.6570   45.1320 C   0  0  0  0  0  0  0  0  0  0  0  0
   32.7390   25.0900   45.7090 N   0  0  0  0  0  0  0  0  0  0  0  0
   39.0880   33.8920   48.4941 H   0  0  0  0  0  0  0  0  0  0  0  0
   38.7705   30.3445   46.1102 H   0  0  0  0  0  0  0  0  0  0  0  0
   41.1917   30.5734   45.3996 H   0  0  0  0  0  0  0  0  0  0  0  0
   41.2567   29.9028   43.0335 H   0  0  0  0  0  0  0  0  0  0  0  0
   40.0611   31.2551   41.3584 H   0  0  0  0  0  0  0  0  0  0  0  0
   37.9352   34.2420   42.2245 H   0  0  0  0  0  0  0  0  0  0  0  0
   39.3274   34.0343   41.1086 H   0  0  0  0  0  0  0  0  0  0  0  0
   37.9897   32.8354   41.1086 H   0  0  0  0  0  0  0  0  0  0  0  0
   34.0911   30.1604   50.5861 H   0  0  0  0  0  0  0  0  0  0  0  0
   34.6651   31.5936   49.7060 H   0  0  0  0  0  0  0  0  0  0  0  0
   34.5556   31.4863   47.1998 H   0  0  0  0  0  0  0  0  0  0  0  0
   34.0568   30.1368   45.1593 H   0  0  0  0  0  0  0  0  0  0  0  0
   33.7302   27.6598   45.3919 H   0  0  0  0  0  0  0  0  0  0  0  0
   31.2569   26.5258   48.3242 H   0  0  0  0  0  0  0  0  0  0  0  0
   31.8867   24.0892   44.1899 H   0  0  0  0  0  0  0  0  0  0  0  0
  1  6  2  0
  2  1  1  0
  3  2  2  0
  3  4  1  0
  4  5  2  0
  5  6  1  0
  5 15  1  0
  7  2  1  0
  8  7  1  0
  9  8  2  0
 10  9  1  0
 11 12  1  0
 11 10  2  0
 12 13  2  0
 13  8  1  0
 14 12  1  0
 16 15  1  0
 18 17  1  0
 19 18  2  0
 19 16  1  0
 20 19  1  0
 21 22  1  0
 21 20  2  0
 22 23  2  0
 23 24  1  0
 23 18  1  0
 25 26  2  0
 25 24  1  0
 27 26  1  0
 28 29  2  0
 28 27  1  0
 29 25  1  0
  1 30  1  0
  3 31  1  0
  9 32  1  0
 10 33  1  0
 11 34  1  0
 14 35  1  0
 14 36  1  0
 14 37  1  0
 16 38  1  0
 16 39  1  0
 20 40  1  0
 21 41  1  0
 22 42  1  0
 26 43  1  0
 28 44  1  0
M  ISO  8  30  14  31  14  32  14  33  14  34  14  35   8  36   8  37   8
M  ISO  7  38   8  39   8  40  14  41  14  42  14  43  14  44  14
M  END
>  <minimizedAffinity>  (1) 
-5.88857603

>  <minimizedRMSD>  (1) 
1.37023985

$$$$
