
     RDKit          3D

 34 36  0  0  1  0  0  0  0  0999 V2000
   37.1720   30.5000   49.2020 C   0  0  0  0  0  0  0  0  0  0  0  0
   37.2080   31.6900   49.9600 C   0  0  0  0  0  0  0  0  0  0  0  0
   37.8020   32.8080   49.3700 C   0  0  0  0  0  0  0  0  0  0  0  0
   38.3070   32.6810   48.1060 N   0  0  0  0  0  0  0  0  0  0  0  0
   38.2480   31.5230   47.4240 C   0  0  0  0  0  0  0  0  0  0  0  0
   37.6830   30.4300   47.9650 N   0  0  0  0  0  0  0  0  0  0  0  0
   38.8080   31.5000   46.1040 N   0  0  0  0  0  0  0  0  0  0  0  0
   40.1970   31.1250   45.9420 C   0  0  0  0  0  0  0  0  0  0  0  0
   40.7610   32.1620   44.9660 C   0  0  0  0  0  0  0  0  0  0  0  0
   40.1140   31.8210   43.6510 C   0  0  0  0  0  0  0  0  0  0  0  0
   38.6620   32.1390   43.7250 C   0  0  0  0  0  0  0  0  0  0  0  0
   37.9730   31.8450   45.0190 C   0  0  1  0  0  0  0  0  0  0  0  0
   36.9200   30.8040   44.8640 C   0  0  0  0  0  0  0  0  0  0  0  0
   36.9790   29.7000   43.8830 C   0  0  0  0  0  0  0  0  0  0  0  0
   35.4120   28.8230   44.2380 S   0  0  0  0  0  0  0  0  0  0  0  0
   34.9440   30.0160   45.5820 C   0  0  0  0  0  0  0  0  0  0  0  0
   35.8510   30.8090   45.6190 N   0  0  0  0  0  0  0  0  0  0  0  0
   36.5380   29.2870   49.8180 C   0  0  0  0  0  0  0  0  0  0  0  0
   35.7100   29.6950   50.8750 F   0  0  0  0  0  0  0  0  0  0  0  0
   35.8880   28.6010   48.8570 F   0  0  0  0  0  0  0  0  0  0  0  0
   37.5550   28.5430   50.4040 F   0  0  0  0  0  0  0  0  0  0  0  0
   36.7853   31.7352   50.9745 H   0  0  0  0  0  0  0  0  0  0  0  0
   37.8619   33.7655   49.9082 H   0  0  0  0  0  0  0  0  0  0  0  0
   40.7267   31.1686   46.9051 H   0  0  0  0  0  0  0  0  0  0  0  0
   40.3127   30.0954   45.5724 H   0  0  0  0  0  0  0  0  0  0  0  0
   40.4917   33.1810   45.2807 H   0  0  0  0  0  0  0  0  0  0  0  0
   41.8595   32.1381   44.9140 H   0  0  0  0  0  0  0  0  0  0  0  0
   40.2460   30.7490   43.4427 H   0  0  0  0  0  0  0  0  0  0  0  0
   40.5809   32.4070   42.8456 H   0  0  0  0  0  0  0  0  0  0  0  0
   38.5460   33.2140   43.5229 H   0  0  0  0  0  0  0  0  0  0  0  0
   38.1843   31.4773   42.9875 H   0  0  0  0  0  0  0  0  0  0  0  0
   37.5250   32.8151   45.2802 H   0  0  0  0  0  0  0  0  0  0  0  0
   37.7557   29.4678   43.1395 H   0  0  0  0  0  0  0  0  0  0  0  0
   34.0387   30.0020   46.2066 H   0  0  0  0  0  0  0  0  0  0  0  0
  1 18  1  0
  1  2  2  0
  3  2  1  0
  4  3  2  0
  5  6  2  0
  5  4  1  0
  6  1  1  0
  7  5  1  0
  8  7  1  0
  9  8  1  0
 10 11  1  0
 10  9  1  0
 11 12  1  0
 12  7  1  0
 13 12  1  0
 13 17  1  0
 14 15  1  0
 14 13  2  0
 15 16  1  0
 16 17  2  0
 18 21  1  0
 18 19  1  0
 20 18  1  0
  2 22  1  0
  3 23  1  0
  8 24  1  0
  8 25  1  0
  9 26  1  0
  9 27  1  0
 10 28  1  0
 10 29  1  0
 11 30  1  0
 11 31  1  0
 12 32  1  1
 14 33  1  0
 16 34  1  0
M  ISO  8  22  14  23  14  24  13  25  13  26  13  27  13  28  13  29  13
M  ISO  5  30  13  31  13  32  13  33  14  34  14
M  END
>  <minimizedAffinity>  (1) 
-6.0243969

>  <minimizedRMSD>  (1) 
1.01647401

$$$$
