
     RDKit          3D

 26 28  0  0  0  0  0  0  0  0999 V2000
   38.0810   30.6850   47.2080 F   0  0  0  0  0  0  0  0  0  0  0  0
   38.5410   31.8340   47.7820 C   0  0  0  0  0  0  0  0  0  0  0  0
   38.2030   32.1160   49.0690 C   0  0  0  0  0  0  0  0  0  0  0  0
   38.7060   33.2860   49.5680 C   0  0  0  0  0  0  0  0  0  0  0  0
   39.5020   34.1400   48.8440 C   0  0  0  0  0  0  0  0  0  0  0  0
   39.8150   33.8130   47.5510 C   0  0  0  0  0  0  0  0  0  0  0  0
   39.3330   32.6370   46.9880 C   0  0  0  0  0  0  0  0  0  0  0  0
   36.9790   29.5730   51.5880 C   0  0  0  0  0  0  0  0  0  0  0  0
   37.8060   30.4720   50.9060 C   0  0  0  0  0  0  0  0  0  0  0  0
   37.3580   31.1770   49.7910 C   0  0  0  0  0  0  0  0  0  0  0  0
   36.0770   30.9380   49.4140 N   0  0  0  0  0  0  0  0  0  0  0  0
   35.2940   30.0680   50.0830 C   0  0  0  0  0  0  0  0  0  0  0  0
   35.7300   29.3980   51.1460 N   0  0  0  0  0  0  0  0  0  0  0  0
   39.6520   32.2560   45.5980 C   0  0  0  0  0  0  0  0  0  0  0  0
   39.0010   32.9150   44.5170 C   0  0  0  0  0  0  0  0  0  0  0  0
   39.7550   32.0700   43.0480 S   0  0  0  0  0  0  0  0  0  0  0  0
   40.8010   30.9910   44.1570 C   0  0  0  0  0  0  0  0  0  0  0  0
   40.5130   31.3300   45.2220 N   0  0  0  0  0  0  0  0  0  0  0  0
   38.4598   33.5578   50.6051 H   0  0  0  0  0  0  0  0  0  0  0  0
   39.8811   35.0693   49.2942 H   0  0  0  0  0  0  0  0  0  0  0  0
   40.4509   34.4844   46.9553 H   0  0  0  0  0  0  0  0  0  0  0  0
   37.3478   29.0236   52.4667 H   0  0  0  0  0  0  0  0  0  0  0  0
   38.8363   30.6262   51.2592 H   0  0  0  0  0  0  0  0  0  0  0  0
   34.2617   29.9072   49.7387 H   0  0  0  0  0  0  0  0  0  0  0  0
   38.2477   33.7160   44.5455 H   0  0  0  0  0  0  0  0  0  0  0  0
   41.5226   30.2143   43.8638 H   0  0  0  0  0  0  0  0  0  0  0  0
  1  2  1  0
  2  3  2  0
  3  4  1  0
  3 10  1  0
  5  4  2  0
  6  5  1  0
  7  6  2  0
  7  2  1  0
  9  8  2  0
 10  9  1  0
 11 10  2  0
 11 12  1  0
 12 13  2  0
 13  8  1  0
 14  7  1  0
 15 14  2  0
 16 17  1  0
 16 15  1  0
 17 18  2  0
 18 14  1  0
  4 19  1  0
  5 20  1  0
  6 21  1  0
  8 22  1  0
  9 23  1  0
 12 24  1  0
 15 25  1  0
 17 26  1  0
M  ISO  8  19  14  20  14  21  14  22  14  23  14  24  14  25  14  26  14
M  END
>  <minimizedAffinity>  (1) 
-6.42380428

>  <minimizedRMSD>  (1) 
0.361489147

$$$$
