
     RDKit          3D

 28 30  0  0  1  0  0  0  0  0999 V2000
   39.1400   32.6770   46.4640 C   0  0  0  0  0  0  0  0  0  0  0  0
   40.1510   31.8240   46.0040 C   0  0  0  0  0  0  0  0  0  0  0  0
   39.7940   30.5120   45.6680 C   0  0  0  0  0  0  0  0  0  0  0  0
   38.4950   30.1190   45.7970 N   0  0  0  0  0  0  0  0  0  0  0  0
   37.5510   30.9760   46.2450 C   0  0  0  0  0  0  0  0  0  0  0  0
   37.8560   32.2440   46.5790 N   0  0  0  0  0  0  0  0  0  0  0  0
   36.2030   30.5160   46.3630 N   0  0  0  0  0  0  0  0  0  0  0  0
   35.4220   30.0120   45.2440 C   0  0  0  0  0  0  0  0  0  0  0  0
   34.2430   29.3410   45.8640 C   0  0  0  0  0  0  0  0  0  0  0  0
   34.4910   29.3390   47.3550 C   0  0  0  0  0  0  0  0  0  0  0  0
   35.4120   30.4760   47.5880 C   0  0  1  0  0  0  0  0  0  0  0  0
   36.2790   30.3360   48.7850 C   0  0  0  0  0  0  0  0  0  0  0  0
   36.6060   31.4680   49.5930 C   0  0  0  0  0  0  0  0  0  0  0  0
   37.6730   30.7630   50.9040 S   0  0  0  0  0  0  0  0  0  0  0  0
   37.4960   29.0360   50.1280 C   0  0  0  0  0  0  0  0  0  0  0  0
   36.8340   29.2290   49.2420 N   0  0  0  0  0  0  0  0  0  0  0  0
   39.3884   33.7134   46.7365 H   0  0  0  0  0  0  0  0  0  0  0  0
   41.1901   32.1725   45.9098 H   0  0  0  0  0  0  0  0  0  0  0  0
   40.5544   29.8056   45.3036 H   0  0  0  0  0  0  0  0  0  0  0  0
   36.0103   29.2927   44.6553 H   0  0  0  0  0  0  0  0  0  0  0  0
   35.1236   30.8155   44.5546 H   0  0  0  0  0  0  0  0  0  0  0  0
   33.3227   29.8970   45.6318 H   0  0  0  0  0  0  0  0  0  0  0  0
   34.1166   28.3185   45.4785 H   0  0  0  0  0  0  0  0  0  0  0  0
   33.5492   29.4845   47.9045 H   0  0  0  0  0  0  0  0  0  0  0  0
   34.9130   28.3850   47.7040 H   0  0  0  0  0  0  0  0  0  0  0  0
   34.8533   31.3997   47.7992 H   0  0  0  0  0  0  0  0  0  0  0  0
   36.2918   32.5137   49.4595 H   0  0  0  0  0  0  0  0  0  0  0  0
   37.9335   28.0843   50.4638 H   0  0  0  0  0  0  0  0  0  0  0  0
  1  6  2  0
  2  1  1  0
  3  4  1  0
  3  2  2  0
  4  5  2  0
  5  7  1  0
  5  6  1  0
  7 11  1  0
  8  9  1  0
  8  7  1  0
  9 10  1  0
 10 11  1  0
 11 12  1  0
 12 16  1  0
 12 13  2  0
 13 14  1  0
 15 14  1  0
 16 15  2  0
  1 17  1  0
  2 18  1  0
  3 19  1  0
  8 20  1  0
  8 21  1  0
  9 22  1  0
  9 23  1  0
 10 24  1  0
 10 25  1  0
 11 26  1  1
 13 27  1  0
 15 28  1  0
M  ISO  8  17  14  18  14  19  14  20  13  21  13  22  13  23  13  24  13
M  ISO  4  25  13  26  13  27  14  28  14
M  END
>  <minimizedAffinity>  (1) 
-4.1022439

>  <minimizedRMSD>  (1) 
2.73751783

$$$$
