
     RDKit          3D

 30 32  0  0  0  0  0  0  0  0999 V2000
   36.9450   31.2070   48.5170 C   0  0  0  0  0  0  0  0  0  0  0  0
   37.1700   32.1760   49.4760 C   0  0  0  0  0  0  0  0  0  0  0  0
   38.1010   33.1740   49.2660 C   0  0  0  0  0  0  0  0  0  0  0  0
   38.8100   33.1920   48.0740 C   0  0  0  0  0  0  0  0  0  0  0  0
   38.5780   32.2210   47.1250 C   0  0  0  0  0  0  0  0  0  0  0  0
   37.6600   31.2830   47.3950 N   0  0  0  0  0  0  0  0  0  0  0  0
   35.1310   28.4980   50.3800 C   0  0  0  0  0  0  0  0  0  0  0  0
   36.1440   29.4420   50.0140 C   0  0  0  0  0  0  0  0  0  0  0  0
   35.9320   30.2410   48.9010 C   0  0  0  0  0  0  0  0  0  0  0  0
   34.7690   30.0930   48.2040 N   0  0  0  0  0  0  0  0  0  0  0  0
   33.8290   29.1870   48.5790 C   0  0  0  0  0  0  0  0  0  0  0  0
   34.0020   28.3930   49.6560 N   0  0  0  0  0  0  0  0  0  0  0  0
   32.7060   29.2190   47.7020 N   0  0  0  0  0  0  0  0  0  0  0  0
   37.3770   29.5030   50.8570 C   0  0  0  0  0  0  0  0  0  0  0  0
   38.4940   29.7840   50.0890 F   0  0  0  0  0  0  0  0  0  0  0  0
   37.2080   30.5220   51.7690 F   0  0  0  0  0  0  0  0  0  0  0  0
   37.6110   28.3430   51.5540 F   0  0  0  0  0  0  0  0  0  0  0  0
   39.2800   32.1640   45.8310 C   0  0  0  0  0  0  0  0  0  0  0  0
   38.7730   32.8020   44.6510 C   0  0  0  0  0  0  0  0  0  0  0  0
   40.0920   32.3040   43.3900 S   0  0  0  0  0  0  0  0  0  0  0  0
   41.0460   31.3450   44.7160 C   0  0  0  0  0  0  0  0  0  0  0  0
   40.3940   31.4950   45.6990 N   0  0  0  0  0  0  0  0  0  0  0  0
   36.6012   32.1521   50.4172 H   0  0  0  0  0  0  0  0  0  0  0  0
   38.2777   33.9430   50.0324 H   0  0  0  0  0  0  0  0  0  0  0  0
   39.5552   33.9792   47.8871 H   0  0  0  0  0  0  0  0  0  0  0  0
   35.2772   27.8540   51.2597 H   0  0  0  0  0  0  0  0  0  0  0  0
   31.9100   28.5850   47.8612 H   0  0  0  0  0  0  0  0  0  0  0  0
   32.6904   29.8761   46.9090 H   0  0  0  0  0  0  0  0  0  0  0  0
   37.8677   33.4121   44.5164 H   0  0  0  0  0  0  0  0  0  0  0  0
   41.9838   30.7812   44.6031 H   0  0  0  0  0  0  0  0  0  0  0  0
  1  9  1  0
  1  2  2  0
  3  2  1  0
  4  3  2  0
  5  6  2  0
  5  4  1  0
  6  1  1  0
  8  7  2  0
  8 14  1  0
  9  8  1  0
 10 11  1  0
 10  9  2  0
 11 12  2  0
 12  7  1  0
 13 11  1  0
 14 17  1  0
 14 16  1  0
 15 14  1  0
 18  5  1  0
 19 18  2  0
 20 19  1  0
 20 21  1  0
 21 22  2  0
 22 18  1  0
  2 23  1  0
  3 24  1  0
  4 25  1  0
  7 26  1  0
 13 27  1  0
 13 28  1  0
 19 29  1  0
 21 30  1  0
M  ISO  6  23  14  24  14  25  14  26  14  29  14  30  14
M  END
>  <minimizedAffinity>  (1) 
-6.67379808

>  <minimizedRMSD>  (1) 
0.810870111

$$$$
