
     RDKit          3D

 30 32  0  0  0  0  0  0  0  0999 V2000
   36.4940   31.2150   48.6960 N   0  0  0  0  0  0  0  0  0  0  0  0
   36.7350   32.0620   49.6910 C   0  0  0  0  0  0  0  0  0  0  0  0
   37.7930   32.9670   49.5870 C   0  0  0  0  0  0  0  0  0  0  0  0
   38.5030   32.8910   48.4310 C   0  0  0  0  0  0  0  0  0  0  0  0
   39.4620   33.7190   48.3480 O   0  0  0  0  0  0  0  0  0  0  0  0
   38.2950   32.0610   47.4150 N   0  0  0  0  0  0  0  0  0  0  0  0
   37.2580   31.2010   47.5600 C   0  0  0  0  0  0  0  0  0  0  0  0
   37.0440   30.3970   46.5950 O   0  0  0  0  0  0  0  0  0  0  0  0
   35.2620   29.5130   49.9150 C   0  0  0  0  0  0  0  0  0  0  0  0
   35.4290   30.2520   48.7290 C   0  0  0  0  0  0  0  0  0  0  0  0
   34.5670   30.0130   47.6530 C   0  0  0  0  0  0  0  0  0  0  0  0
   33.6030   29.0710   47.8100 N   0  0  0  0  0  0  0  0  0  0  0  0
   33.4480   28.3770   48.9260 C   0  0  0  0  0  0  0  0  0  0  0  0
   34.2690   28.5970   49.9670 N   0  0  0  0  0  0  0  0  0  0  0  0
   37.3800   29.2020   51.4020 C   0  0  0  0  0  0  0  0  0  0  0  0
   38.0700   28.5380   50.5990 O   0  0  0  0  0  0  0  0  0  0  0  0
   36.0670   29.6820   51.0620 N   0  0  0  0  0  0  0  0  0  0  0  0
   39.1010   32.0500   46.2200 C   0  0  0  0  0  0  0  0  0  0  0  0
   38.7790   32.7730   45.0240 C   0  0  0  0  0  0  0  0  0  0  0  0
   40.1260   32.3500   43.9600 S   0  0  0  0  0  0  0  0  0  0  0  0
   40.9580   31.2420   45.2750 C   0  0  0  0  0  0  0  0  0  0  0  0
   40.2090   31.3310   46.2040 N   0  0  0  0  0  0  0  0  0  0  0  0
   36.1042   32.0502   50.5921 H   0  0  0  0  0  0  0  0  0  0  0  0
   38.0339   33.6881   50.3820 H   0  0  0  0  0  0  0  0  0  0  0  0
   34.6676   30.5708   46.7102 H   0  0  0  0  0  0  0  0  0  0  0  0
   32.6505   27.6232   49.0013 H   0  0  0  0  0  0  0  0  0  0  0  0
   37.7887   29.4261   52.3984 H   0  0  0  0  0  0  0  0  0  0  0  0
   35.6313   30.2591   51.7956 H   0  0  0  0  0  0  0  0  0  0  0  0
   37.9156   33.4236   44.8209 H   0  0  0  0  0  0  0  0  0  0  0  0
   41.8920   30.6662   45.1976 H   0  0  0  0  0  0  0  0  0  0  0  0
  1 10  1  0
  1  2  1  0
  3  2  2  0
  4  3  1  0
  5  4  2  0
  6  7  1  0
  6  4  1  0
  7  1  1  0
  8  7  2  0
  9 14  2  0
  9 17  1  0
 10  9  1  0
 11 12  1  0
 11 10  2  0
 12 13  2  0
 13 14  1  0
 16 15  2  0
 17 15  1  0
 18  6  1  0
 19 18  2  0
 20 19  1  0
 20 21  1  0
 21 22  2  0
 22 18  1  0
  2 23  1  0
  3 24  1  0
 11 25  1  0
 13 26  1  0
 15 27  1  0
 17 28  1  0
 19 29  1  0
 21 30  1  0
M  ISO  7  23  14  24  14  25  14  26  14  27   6  29  14  30  14
M  END
>  <minimizedAffinity>  (1) 
-5.90641165

>  <minimizedRMSD>  (1) 
1.18854153

$$$$
