
     RDKit          3D

 35 38  0  0  1  0  0  0  0  0999 V2000
   38.4920   31.5100   45.3670 C   0  0  1  0  0  0  0  0  0  0  0  0
   38.8500   32.4740   46.4120 C   0  0  2  0  0  0  0  0  0  0  0  0
   40.3220   32.8080   46.0680 C   0  0  0  0  0  0  0  0  0  0  0  0
   40.8000   31.5850   45.6930 O   0  0  0  0  0  0  0  0  0  0  0  0
   39.8340   30.8740   45.0180 C   0  0  0  0  0  0  0  0  0  0  0  0
   37.5880   32.3840   48.6860 C   0  0  1  0  0  0  0  0  0  0  0  0
   38.8050   33.1330   48.8530 C   0  0  0  0  0  0  0  0  0  0  0  0
   38.7930   31.9720   47.8380 C   0  0  2  0  0  0  0  0  0  0  0  0
   35.5720   29.7030   50.3490 C   0  0  0  0  0  0  0  0  0  0  0  0
   35.9490   30.6800   49.4350 C   0  0  0  0  0  0  0  0  0  0  0  0
   37.1570   31.3280   49.6220 C   0  0  0  0  0  0  0  0  0  0  0  0
   37.9210   30.9660   50.7110 N   0  0  0  0  0  0  0  0  0  0  0  0
   37.5390   30.0140   51.5900 C   0  0  0  0  0  0  0  0  0  0  0  0
   36.3430   29.3680   51.4110 N   0  0  0  0  0  0  0  0  0  0  0  0
   37.5950   30.5200   45.7640 O   0  0  0  0  0  0  0  0  0  0  0  0
   36.2830   30.4370   45.2570 C   0  0  0  0  0  0  0  0  0  0  0  0
   35.9890   30.8400   43.9520 C   0  0  0  0  0  0  0  0  0  0  0  0
   34.1810   30.5270   43.8170 S   0  0  0  0  0  0  0  0  0  0  0  0
   34.1360   29.8870   45.6060 C   0  0  0  0  0  0  0  0  0  0  0  0
   35.2640   29.9850   45.9630 N   0  0  0  0  0  0  0  0  0  0  0  0
   37.9746   32.0161   44.5386 H   0  0  0  0  0  0  0  0  0  0  0  0
   38.1305   33.3060   46.4038 H   0  0  0  0  0  0  0  0  0  0  0  0
   40.3870   33.5343   45.2444 H   0  0  0  0  0  0  0  0  0  0  0  0
   40.8804   33.2730   46.8938 H   0  0  0  0  0  0  0  0  0  0  0  0
   39.8478   29.8210   45.3358 H   0  0  0  0  0  0  0  0  0  0  0  0
   40.0119   30.8996   43.9328 H   0  0  0  0  0  0  0  0  0  0  0  0
   36.5583   32.7405   48.5354 H   0  0  0  0  0  0  0  0  0  0  0  0
   38.8602   34.1711   48.4935 H   0  0  0  0  0  0  0  0  0  0  0  0
   39.4353   33.3916   49.7166 H   0  0  0  0  0  0  0  0  0  0  0  0
   39.3138   31.0218   47.6486 H   0  0  0  0  0  0  0  0  0  0  0  0
   34.6133   29.1834   50.2047 H   0  0  0  0  0  0  0  0  0  0  0  0
   35.3015   30.9323   48.5823 H   0  0  0  0  0  0  0  0  0  0  0  0
   38.1835   29.7587   52.4441 H   0  0  0  0  0  0  0  0  0  0  0  0
   36.6719   31.2455   43.1909 H   0  0  0  0  0  0  0  0  0  0  0  0
   33.2713   29.5147   46.1748 H   0  0  0  0  0  0  0  0  0  0  0  0
  1 15  1  0
  1  2  1  0
  2  8  1  0
  3  2  1  0
  4  3  1  0
  5  1  1  0
  5  4  1  0
  6  7  1  0
  6 11  1  0
  8  6  1  0
  8  7  1  0
  9 14  2  0
 10 11  2  0
 10  9  1  0
 11 12  1  0
 12 13  2  0
 14 13  1  0
 16 15  1  0
 16 20  1  0
 17 16  2  0
 18 17  1  0
 18 19  1  0
 19 20  2  0
  1 21  1  6
  2 22  1  1
  3 23  1  0
  3 24  1  0
  5 25  1  0
  5 26  1  0
  6 27  1  6
  7 28  1  0
  7 29  1  0
  8 30  1  1
  9 31  1  0
 10 32  1  0
 13 33  1  0
 17 34  1  0
 19 35  1  0
M  ISO  8  21  13  22  13  23  13  24  13  25  13  26  13  27  13  28  13
M  ISO  7  29  13  30  13  31  14  32  14  33  14  34  14  35  14
M  END
>  <minimizedAffinity>  (1) 
-5.39904881

>  <minimizedRMSD>  (1) 
0.90648526

$$$$
