
     RDKit          3D

 45 49  0  0  1  0  0  0  0  0999 V2000
   37.5480   32.1100   48.3410 C   0  0  1  0  0  0  0  0  0  0  0  0
   38.9320   32.6430   48.4510 C   0  0  0  0  0  0  0  0  0  0  0  0
   38.7710   31.6120   47.4480 C   0  0  2  0  0  0  0  0  0  0  0  0
   38.8540   32.1790   46.0600 C   0  0  0  0  0  0  0  0  0  0  0  0
   39.9270   33.0820   45.9780 C   0  0  0  0  0  0  0  0  0  0  0  0
   40.2580   33.6440   44.7710 C   0  0  0  0  0  0  0  0  0  0  0  0
   39.5470   33.3360   43.6020 C   0  0  0  0  0  0  0  0  0  0  0  0
   38.4940   32.4400   43.7230 C   0  0  0  0  0  0  0  0  0  0  0  0
   37.7120   32.0630   42.6660 C   0  0  0  0  0  0  0  0  0  0  0  0
   36.6610   31.1870   42.7720 C   0  0  0  0  0  0  0  0  0  0  0  0
   36.3690   30.6500   44.0080 C   0  0  0  0  0  0  0  0  0  0  0  0
   37.1520   31.0250   45.0800 C   0  0  0  0  0  0  0  0  0  0  0  0
   38.2010   31.9110   44.9280 C   0  0  0  0  0  0  0  0  0  0  0  0
   37.2530   30.1080   51.5230 C   0  0  0  0  0  0  0  0  0  0  0  0
   37.6590   31.1170   50.5940 C   0  0  0  0  0  0  0  0  0  0  0  0
   37.1370   31.0850   49.3330 C   0  0  0  0  0  0  0  0  0  0  0  0
   36.2480   30.0660   49.0590 N   0  0  0  0  0  0  0  0  0  0  0  0
   35.8790   29.1320   49.9390 C   0  0  0  0  0  0  0  0  0  0  0  0
   36.3750   29.1380   51.1850 N   0  0  0  0  0  0  0  0  0  0  0  0
   34.8930   28.0910   49.4850 C   0  0  0  0  0  0  0  0  0  0  0  0
   33.5990   28.8310   49.1100 C   0  0  0  0  0  0  0  0  0  0  0  0
   33.1800   28.4760   47.7210 C   0  0  0  0  0  0  0  0  0  0  0  0
   31.8410   28.0020   47.4180 C   0  0  0  0  0  0  0  0  0  0  0  0
   31.9650   27.7560   45.6300 S   0  0  0  0  0  0  0  0  0  0  0  0
   33.7920   28.3280   45.5750 C   0  0  0  0  0  0  0  0  0  0  0  0
   34.0910   28.6160   46.7830 N   0  0  0  0  0  0  0  0  0  0  0  0
   36.5530   32.5613   48.2135 H   0  0  0  0  0  0  0  0  0  0  0  0
   39.1333   33.6749   48.1275 H   0  0  0  0  0  0  0  0  0  0  0  0
   39.6208   32.7494   49.3020 H   0  0  0  0  0  0  0  0  0  0  0  0
   39.1944   30.6236   47.2162 H   0  0  0  0  0  0  0  0  0  0  0  0
   40.5012   33.3382   46.8806 H   0  0  0  0  0  0  0  0  0  0  0  0
   41.0989   34.3512   44.7190 H   0  0  0  0  0  0  0  0  0  0  0  0
   39.8119   33.7843   42.6331 H   0  0  0  0  0  0  0  0  0  0  0  0
   37.9382   32.4855   41.6759 H   0  0  0  0  0  0  0  0  0  0  0  0
   36.0633   30.9185   41.8884 H   0  0  0  0  0  0  0  0  0  0  0  0
   35.5359   29.9431   44.1355 H   0  0  0  0  0  0  0  0  0  0  0  0
   36.9368   30.6102   46.0758 H   0  0  0  0  0  0  0  0  0  0  0  0
   37.6674   30.1221   52.5419 H   0  0  0  0  0  0  0  0  0  0  0  0
   38.3741   31.8993   50.8883 H   0  0  0  0  0  0  0  0  0  0  0  0
   35.2875   27.5530   48.6104 H   0  0  0  0  0  0  0  0  0  0  0  0
   34.7072   27.3533   50.2795 H   0  0  0  0  0  0  0  0  0  0  0  0
   32.8021   28.5465   49.8128 H   0  0  0  0  0  0  0  0  0  0  0  0
   33.7798   29.9148   49.1621 H   0  0  0  0  0  0  0  0  0  0  0  0
   30.9864   27.8377   48.0908 H   0  0  0  0  0  0  0  0  0  0  0  0
   34.4444   28.3943   44.6919 H   0  0  0  0  0  0  0  0  0  0  0  0
  1  2  1  0
  1 16  1  0
  3  1  1  0
  3  2  1  0
  4  3  1  0
  5  4  2  0
  6  5  1  0
  7  8  1  0
  7  6  2  0
  8 13  2  0
  9 10  2  0
  9  8  1  0
 10 11  1  0
 11 12  2  0
 13 12  1  0
 13  4  1  0
 15 14  2  0
 16 15  1  0
 17 16  2  0
 17 18  1  0
 18 19  2  0
 19 14  1  0
 20 18  1  0
 21 20  1  0
 22 21  1  0
 23 22  2  0
 24 23  1  0
 25 24  1  0
 25 26  2  0
 26 22  1  0
  1 27  1  6
  2 28  1  0
  2 29  1  0
  3 30  1  6
  5 31  1  0
  6 32  1  0
  7 33  1  0
  9 34  1  0
 10 35  1  0
 11 36  1  0
 12 37  1  0
 14 38  1  0
 15 39  1  0
 20 40  1  0
 20 41  1  0
 21 42  1  0
 21 43  1  0
 23 44  1  0
 25 45  1  0
M  ISO  8  27  13  28  13  29  13  30  13  31  14  32  14  33  14  34  14
M  ISO  8  35  14  36  14  37  14  38  14  39  14  40   8  41   8  42   8
M  ISO  3  43   8  44  14  45  14
M  END
>  <minimizedAffinity>  (1) 
-6.40397167

>  <minimizedRMSD>  (1) 
4.79245377

$$$$
