
     RDKit          3D

 39 42  0  0  1  0  0  0  0  0999 V2000
   35.1180   29.4480   47.9210 C   0  0  0  0  0  0  0  0  0  0  0  0
   34.8970   30.1800   46.7450 C   0  0  0  0  0  0  0  0  0  0  0  0
   33.7370   29.8850   46.0240 C   0  0  0  0  0  0  0  0  0  0  0  0
   32.9060   28.9100   46.5150 N   0  0  0  0  0  0  0  0  0  0  0  0
   33.1590   28.2400   47.6410 C   0  0  0  0  0  0  0  0  0  0  0  0
   34.2730   28.5050   48.3560 N   0  0  0  0  0  0  0  0  0  0  0  0
   36.3090   29.7510   48.6600 N   0  0  0  0  0  0  0  0  0  0  0  0
   37.4430   30.4990   48.2140 C   0  0  0  0  0  0  0  0  0  0  0  0
   37.9830   31.0940   49.5130 C   0  0  2  0  0  0  0  0  0  0  0  0
   36.9920   30.6990   50.6010 C   0  0  0  0  0  0  0  0  0  0  0  0
   36.5880   29.3450   50.0350 C   0  0  0  0  0  0  0  0  0  0  0  0
   38.1660   32.5900   49.4240 C   0  0  0  0  0  0  0  0  0  0  0  0
   37.0230   33.1640   49.9380 F   0  0  0  0  0  0  0  0  0  0  0  0
   38.2000   32.9150   48.0830 F   0  0  0  0  0  0  0  0  0  0  0  0
   39.2930   33.0320   50.0620 F   0  0  0  0  0  0  0  0  0  0  0  0
   32.0350   26.9930   48.2110 S   0  0  0  0  0  0  0  0  0  0  0  0
   30.5870   27.4740   48.9110 C   0  0  0  0  0  0  0  0  0  0  0  0
   29.8630   27.3740   50.0620 C   0  0  0  0  0  0  0  0  0  0  0  0
   28.6450   27.9250   50.2850 C   0  0  0  0  0  0  0  0  0  0  0  0
   28.1430   28.6850   49.1140 C   0  0  0  0  0  0  0  0  0  0  0  0
   29.4470   28.5240   47.8560 S   0  0  0  0  0  0  0  0  0  0  0  0
   26.8710   29.3800   49.0640 C   0  0  0  0  0  0  0  0  0  0  0  0
   26.7420   30.7280   48.6500 C   0  0  0  0  0  0  0  0  0  0  0  0
   24.8710   30.9540   48.8320 S   0  0  0  0  0  0  0  0  0  0  0  0
   24.6780   29.1670   49.4300 C   0  0  0  0  0  0  0  0  0  0  0  0
   25.7780   28.6990   49.4300 N   0  0  0  0  0  0  0  0  0  0  0  0
   35.6045   30.9510   46.4059 H   0  0  0  0  0  0  0  0  0  0  0  0
   33.4976   30.4178   45.0919 H   0  0  0  0  0  0  0  0  0  0  0  0
   38.1877   29.8445   47.7375 H   0  0  0  0  0  0  0  0  0  0  0  0
   37.1961   31.2566   47.4557 H   0  0  0  0  0  0  0  0  0  0  0  0
   38.9875   30.7047   49.7353 H   0  0  0  0  0  0  0  0  0  0  0  0
   37.4692   30.6127   51.5883 H   0  0  0  0  0  0  0  0  0  0  0  0
   36.1726   31.4083   50.7894 H   0  0  0  0  0  0  0  0  0  0  0  0
   35.6966   28.9377   50.5345 H   0  0  0  0  0  0  0  0  0  0  0  0
   37.3300   28.5413   50.1514 H   0  0  0  0  0  0  0  0  0  0  0  0
   30.3076   26.7937   50.8839 H   0  0  0  0  0  0  0  0  0  0  0  0
   28.0904   27.8203   51.2292 H   0  0  0  0  0  0  0  0  0  0  0  0
   27.5105   31.4412   48.3172 H   0  0  0  0  0  0  0  0  0  0  0  0
   23.7440   28.6627   49.7185 H   0  0  0  0  0  0  0  0  0  0  0  0
  1  6  1  0
  1  7  1  0
  2  1  2  0
  3  4  2  0
  3  2  1  0
  4  5  1  0
  5 16  1  0
  5  6  2  0
  7 11  1  0
  8  7  1  0
  8  9  1  0
  9 10  1  0
 11 10  1  0
 12  9  1  0
 12 13  1  0
 12 15  1  0
 14 12  1  0
 16 17  1  0
 17 18  2  0
 18 19  1  0
 20 19  2  0
 21 17  1  0
 21 20  1  0
 22 20  1  0
 22 26  1  0
 23 24  1  0
 23 22  2  0
 24 25  1  0
 25 26  2  0
  2 27  1  0
  3 28  1  0
  8 29  1  0
  8 30  1  0
  9 31  1  1
 10 32  1  0
 10 33  1  0
 11 34  1  0
 11 35  1  0
 18 36  1  0
 19 37  1  0
 23 38  1  0
 25 39  1  0
M  ISO  8  27  14  28  14  29  13  30  13  31  13  32  13  33  13  34  13
M  ISO  5  35  13  36  14  37  14  38  14  39  14
M  END
>  <minimizedAffinity>  (1) 
-7.26542139

>  <minimizedRMSD>  (1) 
0.476073533

$$$$
