
     RDKit          3D

 37 41  0  0  1  0  0  0  0  0999 V2000
   32.1480   28.3520   47.1070 C   0  0  1  0  0  0  0  0  0  0  0  0
   32.9310   27.1950   46.3960 C   0  0  0  0  0  0  0  0  0  0  0  0
   33.0030   28.6040   45.9310 C   0  0  2  0  0  0  0  0  0  0  0  0
   28.5690   28.6660   47.4240 C   0  0  0  0  0  0  0  0  0  0  0  0
   28.6540   28.0350   46.1940 C   0  0  0  0  0  0  0  0  0  0  0  0
   30.0150   27.8280   45.9010 C   0  0  0  0  0  0  0  0  0  0  0  0
   30.7010   28.3320   46.9480 N   0  0  0  0  0  0  0  0  0  0  0  0
   29.8290   28.8030   47.8000 N   0  0  0  0  0  0  0  0  0  0  0  0
   26.4030   28.0630   48.5350 C   0  0  0  0  0  0  0  0  0  0  0  0
   27.3250   29.0310   48.0370 C   0  0  0  0  0  0  0  0  0  0  0  0
   26.9680   30.3490   48.1700 C   0  0  0  0  0  0  0  0  0  0  0  0
   25.7790   30.6650   48.7570 N   0  0  0  0  0  0  0  0  0  0  0  0
   24.9370   29.7150   49.2140 C   0  0  0  0  0  0  0  0  0  0  0  0
   25.2460   28.3930   49.1050 N   0  0  0  0  0  0  0  0  0  0  0  0
   34.2710   29.3820   46.0960 C   0  0  0  0  0  0  0  0  0  0  0  0
   35.0250   29.9210   45.0660 C   0  0  0  0  0  0  0  0  0  0  0  0
   36.0980   30.5450   45.6190 N   0  0  0  0  0  0  0  0  0  0  0  0
   36.0320   30.4070   46.9730 C   0  0  0  0  0  0  0  0  0  0  0  0
   34.9230   29.7030   47.2330 N   0  0  0  0  0  0  0  0  0  0  0  0
   37.0050   30.9370   47.9580 C   0  0  0  0  0  0  0  0  0  0  0  0
   37.0590   30.4240   49.2690 C   0  0  0  0  0  0  0  0  0  0  0  0
   38.3980   31.4030   50.0510 S   0  0  0  0  0  0  0  0  0  0  0  0
   38.6620   32.3610   48.4320 C   0  0  0  0  0  0  0  0  0  0  0  0
   37.8870   31.8950   47.7500 N   0  0  0  0  0  0  0  0  0  0  0  0
   32.0849   28.7835   48.1168 H   0  0  0  0  0  0  0  0  0  0  0  0
   33.7969   26.7262   46.8863 H   0  0  0  0  0  0  0  0  0  0  0  0
   32.6724   26.2256   45.9451 H   0  0  0  0  0  0  0  0  0  0  0  0
   32.8278   29.0829   44.9563 H   0  0  0  0  0  0  0  0  0  0  0  0
   27.8053   27.7459   45.5568 H   0  0  0  0  0  0  0  0  0  0  0  0
   30.4340   27.3524   45.0020 H   0  0  0  0  0  0  0  0  0  0  0  0
   26.6593   26.9971   48.4440 H   0  0  0  0  0  0  0  0  0  0  0  0
   27.6355   31.1439   47.8061 H   0  0  0  0  0  0  0  0  0  0  0  0
   23.9868   30.0126   49.6816 H   0  0  0  0  0  0  0  0  0  0  0  0
   34.7958   29.8555   43.9921 H   0  0  0  0  0  0  0  0  0  0  0  0
   36.8380   31.0399   45.1009 H   0  0  0  0  0  0  0  0  0  0  0  0
   36.4456   29.6278   49.7160 H   0  0  0  0  0  0  0  0  0  0  0  0
   39.3827   33.1627   48.2130 H   0  0  0  0  0  0  0  0  0  0  0  0
  2  1  1  0
  3 15  1  0
  3  2  1  0
  3  1  1  0
  4  8  2  0
  4 10  1  0
  5  4  1  0
  6  5  2  0
  6  7  1  0
  7  1  1  0
  7  8  1  0
  9 14  2  0
 10 11  2  0
 10  9  1  0
 11 12  1  0
 12 13  2  0
 14 13  1  0
 15 19  1  0
 16 17  1  0
 16 15  2  0
 17 18  1  0
 18 19  2  0
 18 20  1  0
 20 21  2  0
 21 22  1  0
 23 22  1  0
 24 20  1  0
 24 23  2  0
  1 25  1  1
  2 26  1  0
  2 27  1  0
  3 28  1  6
  5 29  1  0
  6 30  1  0
  9 31  1  0
 11 32  1  0
 13 33  1  0
 16 34  1  0
 17 35  1  0
 21 36  1  0
 23 37  1  0
M  ISO  8  25  13  26  13  27  13  28  13  29  14  30  14  31  14  32  14
M  ISO  5  33  14  34  14  35   9  36  14  37  14
M  END
>  <minimizedAffinity>  (1) 
-5.41554737

>  <minimizedRMSD>  (1) 
5.46115541

$$$$
