
     RDKit          3D

 40 43  0  0  0  0  0  0  0  0999 V2000
   38.7330   31.3740   45.2000 C   0  0  0  0  0  0  0  0  0  0  0  0
   39.9210   32.0650   45.3240 C   0  0  0  0  0  0  0  0  0  0  0  0
   40.2380   32.8760   46.4230 C   0  0  0  0  0  0  0  0  0  0  0  0
   39.2830   32.9890   47.4590 C   0  0  0  0  0  0  0  0  0  0  0  0
   38.1180   32.2960   47.3080 C   0  0  0  0  0  0  0  0  0  0  0  0
   37.8130   31.5060   46.2420 C   0  0  0  0  0  0  0  0  0  0  0  0
   39.0140   29.2790   44.0260 C   0  0  0  0  0  0  0  0  0  0  0  0
   38.5600   30.6050   43.9940 C   0  0  0  0  0  0  0  0  0  0  0  0
   37.9800   31.0850   42.8130 C   0  0  0  0  0  0  0  0  0  0  0  0
   37.8850   30.2420   41.7480 N   0  0  0  0  0  0  0  0  0  0  0  0
   38.3350   28.9540   41.8000 C   0  0  0  0  0  0  0  0  0  0  0  0
   38.8980   28.4800   42.9410 N   0  0  0  0  0  0  0  0  0  0  0  0
   37.4560   32.4630   42.6330 C   0  0  0  0  0  0  0  0  0  0  0  0
   36.9120   32.5940   41.3390 F   0  0  0  0  0  0  0  0  0  0  0  0
   36.5280   32.8620   43.5270 F   0  0  0  0  0  0  0  0  0  0  0  0
   38.5180   33.3660   42.6340 F   0  0  0  0  0  0  0  0  0  0  0  0
   36.3260   30.6110   46.0930 S   0  0  0  0  0  0  0  0  0  0  0  0
   33.6820   28.9780   46.0170 Cl  0  0  0  0  0  0  0  0  0  0  0  0
   34.6400   29.0670   47.4810 C   0  0  0  0  0  0  0  0  0  0  0  0
   35.8180   29.7810   47.5710 C   0  0  0  0  0  0  0  0  0  0  0  0
   36.5280   29.8220   48.7380 C   0  0  0  0  0  0  0  0  0  0  0  0
   36.0370   29.1230   49.8330 C   0  0  0  0  0  0  0  0  0  0  0  0
   34.8470   28.4010   49.7450 C   0  0  0  0  0  0  0  0  0  0  0  0
   34.1290   28.3610   48.5670 C   0  0  0  0  0  0  0  0  0  0  0  0
   32.8610   27.5950   48.4650 C   0  0  0  0  0  0  0  0  0  0  0  0
   31.6850   28.0940   49.0180 C   0  0  0  0  0  0  0  0  0  0  0  0
   30.4610   26.7920   48.6190 S   0  0  0  0  0  0  0  0  0  0  0  0
   31.7980   25.7650   47.7420 C   0  0  0  0  0  0  0  0  0  0  0  0
   32.7090   26.4200   47.8710 N   0  0  0  0  0  0  0  0  0  0  0  0
   40.6610   31.9745   44.5151 H   0  0  0  0  0  0  0  0  0  0  0  0
   41.1995   33.4075   46.4773 H   0  0  0  0  0  0  0  0  0  0  0  0
   39.4712   33.6087   48.3481 H   0  0  0  0  0  0  0  0  0  0  0  0
   37.3681   32.3819   48.1081 H   0  0  0  0  0  0  0  0  0  0  0  0
   39.4704   28.8834   44.9453 H   0  0  0  0  0  0  0  0  0  0  0  0
   38.2416   28.3016   40.9193 H   0  0  0  0  0  0  0  0  0  0  0  0
   37.4648   30.3942   48.8082 H   0  0  0  0  0  0  0  0  0  0  0  0
   36.5937   29.1390   50.7816 H   0  0  0  0  0  0  0  0  0  0  0  0
   34.4759   27.8564   50.6258 H   0  0  0  0  0  0  0  0  0  0  0  0
   31.5294   29.0379   49.5609 H   0  0  0  0  0  0  0  0  0  0  0  0
   31.7083   24.7899   47.2409 H   0  0  0  0  0  0  0  0  0  0  0  0
  1  2  2  0
  1  6  1  0
  2  3  1  0
  3  4  2  0
  5  4  1  0
  6  5  2  0
  8  7  2  0
  8  1  1  0
  9  8  1  0
 10 11  1  0
 10  9  2  0
 11 12  2  0
 12  7  1  0
 13 16  1  0
 13  9  1  0
 13 15  1  0
 14 13  1  0
 17  6  1  0
 17 20  1  0
 18 19  1  0
 19 20  2  0
 19 24  1  0
 20 21  1  0
 21 22  2  0
 23 22  1  0
 24 23  2  0
 25 24  1  0
 25 26  2  0
 27 26  1  0
 28 29  2  0
 28 27  1  0
 29 25  1  0
  2 30  1  0
  3 31  1  0
  4 32  1  0
  5 33  1  0
  7 34  1  0
 11 35  1  0
 21 36  1  0
 22 37  1  0
 23 38  1  0
 26 39  1  0
 28 40  1  0
M  ISO  8  30  14  31  14  32  14  33  14  34  14  35  14  36  14  37  14
M  ISO  3  38  14  39  14  40  14
M  END
>  <minimizedAffinity>  (1) 
-5.74336529

>  <minimizedRMSD>  (1) 
6.53564692

$$$$
