
     RDKit          3D

 28 30  0  0  0  0  0  0  0  0999 V2000
   36.0030   29.0620   49.2750 C   0  0  0  0  0  0  0  0  0  0  0  0
   35.9510   30.2360   48.5210 C   0  0  0  0  0  0  0  0  0  0  0  0
   34.8470   30.4310   47.6920 C   0  0  0  0  0  0  0  0  0  0  0  0
   33.8760   29.4760   47.6570 N   0  0  0  0  0  0  0  0  0  0  0  0
   33.9700   28.3490   48.4080 C   0  0  0  0  0  0  0  0  0  0  0  0
   35.0140   28.1350   49.2100 N   0  0  0  0  0  0  0  0  0  0  0  0
   32.9000   27.3900   48.3070 N   0  0  0  0  0  0  0  0  0  0  0  0
   31.5230   27.6700   48.6390 C   0  0  0  0  0  0  0  0  0  0  0  0
   30.7680   26.4840   48.1330 C   0  0  0  0  0  0  0  0  0  0  0  0
   31.7370   25.6650   47.3110 C   0  0  0  0  0  0  0  0  0  0  0  0
   33.0820   26.0110   47.8510 C   0  0  0  0  0  0  0  0  0  0  0  0
   37.0240   31.2420   48.5930 C   0  0  0  0  0  0  0  0  0  0  0  0
   37.1440   32.1070   49.7070 C   0  0  0  0  0  0  0  0  0  0  0  0
   38.6050   33.1270   49.2900 S   0  0  0  0  0  0  0  0  0  0  0  0
   38.8140   32.1950   47.6470 C   0  0  0  0  0  0  0  0  0  0  0  0
   37.9630   31.4550   47.6740 N   0  0  0  0  0  0  0  0  0  0  0  0
   36.8642   28.8847   49.9360 H   0  0  0  0  0  0  0  0  0  0  0  0
   34.7616   31.3393   47.0775 H   0  0  0  0  0  0  0  0  0  0  0  0
   31.3988   27.7748   49.7269 H   0  0  0  0  0  0  0  0  0  0  0  0
   31.1688   28.6121   48.1951 H   0  0  0  0  0  0  0  0  0  0  0  0
   30.3899   25.8881   48.9767 H   0  0  0  0  0  0  0  0  0  0  0  0
   29.9039   26.7960   47.5279 H   0  0  0  0  0  0  0  0  0  0  0  0
   31.6659   25.9339   46.2467 H   0  0  0  0  0  0  0  0  0  0  0  0
   31.5284   24.5869   47.3760 H   0  0  0  0  0  0  0  0  0  0  0  0
   33.3563   25.3498   48.6862 H   0  0  0  0  0  0  0  0  0  0  0  0
   33.8908   25.8978   47.1141 H   0  0  0  0  0  0  0  0  0  0  0  0
   36.5119   32.1546   50.6060 H   0  0  0  0  0  0  0  0  0  0  0  0
   39.5743   32.3406   46.8655 H   0  0  0  0  0  0  0  0  0  0  0  0
  2 12  1  0
  2  1  2  0
  3  2  1  0
  4  3  2  0
  4  5  1  0
  5  6  2  0
  6  1  1  0
  7  5  1  0
  7  8  1  0
  9  8  1  0
 10 11  1  0
 10  9  1  0
 11  7  1  0
 12 13  2  0
 14 13  1  0
 15 16  2  0
 15 14  1  0
 16 12  1  0
  1 17  1  0
  3 18  1  0
  8 19  1  0
  8 20  1  0
  9 21  1  0
  9 22  1  0
 10 23  1  0
 10 24  1  0
 11 25  1  0
 11 26  1  0
 13 27  1  0
 15 28  1  0
M  ISO  8  17  14  18  14  19  13  20  13  21  13  22  13  23  13  24  13
M  ISO  4  25  13  26  13  27  14  28  14
M  END
>  <minimizedAffinity>  (1) 
-4.78275204

>  <minimizedRMSD>  (1) 
4.32366705

$$$$
