
     RDKit          3D

 37 40  0  0  0  0  0  0  0  0999 V2000
   36.4020   30.8920   45.7100 Cl  0  0  0  0  0  0  0  0  0  0  0  0
   36.6860   30.7770   47.4230 C   0  0  0  0  0  0  0  0  0  0  0  0
   37.9450   31.1140   47.8810 C   0  0  0  0  0  0  0  0  0  0  0  0
   38.1810   31.0260   49.2380 C   0  0  0  0  0  0  0  0  0  0  0  0
   37.1800   30.6130   50.0850 C   0  0  0  0  0  0  0  0  0  0  0  0
   35.9260   30.2870   49.5580 C   0  0  0  0  0  0  0  0  0  0  0  0
   35.6300   30.3540   48.2220 C   0  0  0  0  0  0  0  0  0  0  0  0
   40.2190   33.3210   46.0820 C   0  0  0  0  0  0  0  0  0  0  0  0
   40.9220   32.4530   45.2100 C   0  0  0  0  0  0  0  0  0  0  0  0
   40.5910   31.0990   45.2620 C   0  0  0  0  0  0  0  0  0  0  0  0
   39.6250   30.6890   46.1340 N   0  0  0  0  0  0  0  0  0  0  0  0
   38.9890   31.5510   46.9370 C   0  0  0  0  0  0  0  0  0  0  0  0
   39.2890   32.8430   46.9030 N   0  0  0  0  0  0  0  0  0  0  0  0
   34.0640   29.9500   47.5290 S   0  0  0  0  0  0  0  0  0  0  0  0
   33.8970   29.1970   44.4860 Cl  0  0  0  0  0  0  0  0  0  0  0  0
   33.8800   27.9620   45.7440 C   0  0  0  0  0  0  0  0  0  0  0  0
   33.9490   28.2110   47.1080 C   0  0  0  0  0  0  0  0  0  0  0  0
   33.9240   27.1480   47.9710 C   0  0  0  0  0  0  0  0  0  0  0  0
   33.8320   25.8650   47.5400 C   0  0  0  0  0  0  0  0  0  0  0  0
   33.7620   25.5800   46.1810 C   0  0  0  0  0  0  0  0  0  0  0  0
   33.7870   26.6470   45.2900 C   0  0  0  0  0  0  0  0  0  0  0  0
   33.7120   26.3350   43.8340 C   0  0  0  0  0  0  0  0  0  0  0  0
   32.5070   26.1670   43.1910 C   0  0  0  0  0  0  0  0  0  0  0  0
   33.0210   25.8110   41.4560 S   0  0  0  0  0  0  0  0  0  0  0  0
   34.8420   25.9590   41.9320 C   0  0  0  0  0  0  0  0  0  0  0  0
   34.7650   26.1980   43.0610 N   0  0  0  0  0  0  0  0  0  0  0  0
   39.1704   31.2864   49.6420 H   0  0  0  0  0  0  0  0  0  0  0  0
   37.3635   30.5396   51.1671 H   0  0  0  0  0  0  0  0  0  0  0  0
   35.1373   29.9602   50.2516 H   0  0  0  0  0  0  0  0  0  0  0  0
   40.4443   34.3977   46.0796 H   0  0  0  0  0  0  0  0  0  0  0  0
   41.6940   32.8300   44.5230 H   0  0  0  0  0  0  0  0  0  0  0  0
   41.1004   30.3736   44.6106 H   0  0  0  0  0  0  0  0  0  0  0  0
   33.9805   27.3414   49.0524 H   0  0  0  0  0  0  0  0  0  0  0  0
   33.8126   25.0437   48.2715 H   0  0  0  0  0  0  0  0  0  0  0  0
   33.6891   24.5428   45.8220 H   0  0  0  0  0  0  0  0  0  0  0  0
   31.4909   26.2295   43.6078 H   0  0  0  0  0  0  0  0  0  0  0  0
   35.7376   25.8476   41.3031 H   0  0  0  0  0  0  0  0  0  0  0  0
  1  2  1  0
  2  3  2  0
  2  7  1  0
  3  4  1  0
  4  5  2  0
  6  5  1  0
  7  6  2  0
  8 13  2  0
  9 10  2  0
  9  8  1  0
 10 11  1  0
 11 12  2  0
 12  3  1  0
 13 12  1  0
 14  7  1  0
 15 16  1  0
 16 17  2  0
 17 14  1  0
 17 18  1  0
 19 18  2  0
 20 19  1  0
 21 16  1  0
 21 20  2  0
 22 21  1  0
 23 22  2  0
 24 25  1  0
 24 23  1  0
 25 26  2  0
 26 22  1  0
  4 27  1  0
  5 28  1  0
  6 29  1  0
  8 30  1  0
  9 31  1  0
 10 32  1  0
 18 33  1  0
 19 34  1  0
 20 35  1  0
 23 36  1  0
 25 37  1  0
M  ISO  8  27  14  28  14  29  14  30  14  31  14  32  14  33  14  34  14
M  ISO  3  35  14  36  14  37  14
M  END
>  <minimizedAffinity>  (1) 
-5.63928747

>  <minimizedRMSD>  (1) 
0.222272307

$$$$
