
     RDKit          3D

 38 41  0  0  0  0  0  0  0  0999 V2000
   37.3380   31.1450   47.1160 N   0  0  0  0  0  0  0  0  0  0  0  0
   36.7000   30.9110   45.9360 C   0  0  0  0  0  0  0  0  0  0  0  0
   37.1420   31.4350   44.7430 C   0  0  0  0  0  0  0  0  0  0  0  0
   38.3000   32.2380   44.7770 C   0  0  0  0  0  0  0  0  0  0  0  0
   38.7520   32.7440   43.7210 O   0  0  0  0  0  0  0  0  0  0  0  0
   38.9460   32.4740   45.9700 N   0  0  0  0  0  0  0  0  0  0  0  0
   38.4160   31.9110   47.0450 C   0  0  0  0  0  0  0  0  0  0  0  0
   39.0350   32.1520   48.1070 O   0  0  0  0  0  0  0  0  0  0  0  0
   37.2670   29.4160   50.3970 C   0  0  0  0  0  0  0  0  0  0  0  0
   37.7450   29.9560   49.1880 C   0  0  0  0  0  0  0  0  0  0  0  0
   36.8780   30.6070   48.3130 C   0  0  0  0  0  0  0  0  0  0  0  0
   35.5790   30.6970   48.6650 N   0  0  0  0  0  0  0  0  0  0  0  0
   35.0960   30.1810   49.8280 C   0  0  0  0  0  0  0  0  0  0  0  0
   35.9530   29.5450   50.6830 N   0  0  0  0  0  0  0  0  0  0  0  0
   36.5080   31.2210   43.4630 C   0  0  0  0  0  0  0  0  0  0  0  0
   36.7720   30.1690   42.6370 C   0  0  0  0  0  0  0  0  0  0  0  0
   36.2050   29.9160   41.4160 C   0  0  0  0  0  0  0  0  0  0  0  0
   35.2580   30.8270   40.9650 C   0  0  0  0  0  0  0  0  0  0  0  0
   34.9800   31.9170   41.8120 C   0  0  0  0  0  0  0  0  0  0  0  0
   35.6010   32.0470   42.9730 N   0  0  0  0  0  0  0  0  0  0  0  0
   33.9730   32.9070   41.3600 C   0  0  0  0  0  0  0  0  0  0  0  0
   33.5080   33.8980   42.2560 C   0  0  0  0  0  0  0  0  0  0  0  0
   32.2990   34.8610   41.2430 S   0  0  0  0  0  0  0  0  0  0  0  0
   32.6410   33.7360   39.7590 C   0  0  0  0  0  0  0  0  0  0  0  0
   33.4010   33.0280   40.1820 N   0  0  0  0  0  0  0  0  0  0  0  0
   40.1270   33.2940   45.9950 C   0  0  0  0  0  0  0  0  0  0  0  0
   40.0630   34.2680   45.0630 F   0  0  0  0  0  0  0  0  0  0  0  0
   41.2950   32.5810   45.7230 F   0  0  0  0  0  0  0  0  0  0  0  0
   40.2300   33.8960   47.2470 F   0  0  0  0  0  0  0  0  0  0  0  0
   35.7988   30.2803   45.9365 H   0  0  0  0  0  0  0  0  0  0  0  0
   37.9469   28.9015   51.0920 H   0  0  0  0  0  0  0  0  0  0  0  0
   38.8108   29.8633   48.9323 H   0  0  0  0  0  0  0  0  0  0  0  0
   34.0287   30.2744   50.0773 H   0  0  0  0  0  0  0  0  0  0  0  0
   37.5215   29.4450   42.9892 H   0  0  0  0  0  0  0  0  0  0  0  0
   36.4859   29.0342   40.8214 H   0  0  0  0  0  0  0  0  0  0  0  0
   34.7516   30.7032   39.9964 H   0  0  0  0  0  0  0  0  0  0  0  0
   33.7971   34.0574   43.3053 H   0  0  0  0  0  0  0  0  0  0  0  0
   32.2083   33.7683   38.7482 H   0  0  0  0  0  0  0  0  0  0  0  0
  1 11  1  0
  2  1  1  0
  3  4  1  0
  3  2  2  0
  4  6  1  0
  5  4  2  0
  6 26  1  0
  6  7  1  0
  7  1  1  0
  7  8  2  0
  9 14  2  0
 10  9  1  0
 11 12  1  0
 11 10  2  0
 12 13  2  0
 13 14  1  0
 15  3  1  0
 16 15  2  0
 17 16  1  0
 18 17  2  0
 18 19  1  0
 19 20  2  0
 20 15  1  0
 21 19  1  0
 21 22  2  0
 23 22  1  0
 24 25  2  0
 24 23  1  0
 25 21  1  0
 26 29  1  0
 27 26  1  0
 28 26  1  0
  2 30  1  0
  9 31  1  0
 10 32  1  0
 13 33  1  0
 16 34  1  0
 17 35  1  0
 18 36  1  0
 22 37  1  0
 24 38  1  0
M  ISO  8  30  14  31  14  32  14  33  14  34  14  35  14  36  14  37  14
M  ISO  1  38  14
M  END
>  <minimizedAffinity>  (1) 
-6.33242369

>  <minimizedRMSD>  (1) 
0.439585775

$$$$
