
     RDKit          3D

 30 32  0  0  0  0  0  0  0  0999 V2000
   38.4320   30.4330   47.3070 F   0  0  0  0  0  0  0  0  0  0  0  0
   38.7300   31.6640   47.7990 C   0  0  0  0  0  0  0  0  0  0  0  0
   38.1900   32.0650   48.9900 C   0  0  0  0  0  0  0  0  0  0  0  0
   38.5320   33.3190   49.4290 C   0  0  0  0  0  0  0  0  0  0  0  0
   39.3760   34.1520   48.7280 C   0  0  0  0  0  0  0  0  0  0  0  0
   39.9050   33.7240   47.5350 C   0  0  0  0  0  0  0  0  0  0  0  0
   39.5810   32.4580   47.0540 C   0  0  0  0  0  0  0  0  0  0  0  0
   36.8010   29.5790   51.4790 C   0  0  0  0  0  0  0  0  0  0  0  0
   37.6760   30.4560   50.8310 C   0  0  0  0  0  0  0  0  0  0  0  0
   37.3060   31.1460   49.6900 C   0  0  0  0  0  0  0  0  0  0  0  0
   36.0340   30.9140   49.2410 N   0  0  0  0  0  0  0  0  0  0  0  0
   35.1990   30.0690   49.8720 C   0  0  0  0  0  0  0  0  0  0  0  0
   35.5760   29.4210   50.9620 N   0  0  0  0  0  0  0  0  0  0  0  0
   39.2350   32.1710   44.7050 C   0  0  0  0  0  0  0  0  0  0  0  0
   38.1320   32.7240   44.9800 O   0  0  0  0  0  0  0  0  0  0  0  0
   40.1100   31.9660   45.8100 N   0  0  0  0  0  0  0  0  0  0  0  0
   39.5450   31.7850   43.3370 C   0  0  0  0  0  0  0  0  0  0  0  0
   40.4170   30.6940   43.1020 C   0  0  0  0  0  0  0  0  0  0  0  0
   40.5030   30.5890   41.2130 S   0  0  0  0  0  0  0  0  0  0  0  0
   39.3330   32.0540   41.1280 C   0  0  0  0  0  0  0  0  0  0  0  0
   39.1310   32.3050   42.2060 N   0  0  0  0  0  0  0  0  0  0  0  0
   38.1140   33.6748   50.3823 H   0  0  0  0  0  0  0  0  0  0  0  0
   39.6237   35.1496   49.1197 H   0  0  0  0  0  0  0  0  0  0  0  0
   40.5804   34.3772   46.9630 H   0  0  0  0  0  0  0  0  0  0  0  0
   37.1091   29.0361   52.3847 H   0  0  0  0  0  0  0  0  0  0  0  0
   38.6869   30.6016   51.2396 H   0  0  0  0  0  0  0  0  0  0  0  0
   34.1850   29.9141   49.4747 H   0  0  0  0  0  0  0  0  0  0  0  0
   41.0301   31.5107   45.7267 H   0  0  0  0  0  0  0  0  0  0  0  0
   40.9245   30.0578   43.8420 H   0  0  0  0  0  0  0  0  0  0  0  0
   38.9363   32.5523   40.2312 H   0  0  0  0  0  0  0  0  0  0  0  0
  1  2  1  0
  2  3  2  0
  3  4  1  0
  3 10  1  0
  5  4  2  0
  6  5  1  0
  7  6  2  0
  7  2  1  0
  9  8  2  0
 10  9  1  0
 11 10  2  0
 11 12  1  0
 12 13  2  0
 13  8  1  0
 14 15  2  0
 14 16  1  0
 16  7  1  0
 17 14  1  0
 18 17  2  0
 19 18  1  0
 20 19  1  0
 20 21  2  0
 21 17  1  0
  4 22  1  0
  5 23  1  0
  6 24  1  0
  8 25  1  0
  9 26  1  0
 12 27  1  0
 16 28  1  0
 18 29  1  0
 20 30  1  0
M  ISO  8  22  14  23  14  24  14  25  14  26  14  27  14  29  14  30  14
M  END
>  <minimizedAffinity>  (1) 
-6.45422649

>  <minimizedRMSD>  (1) 
0.144687414

$$$$
