
     RDKit          3D

 36 38  0  0  1  0  0  0  0  0999 V2000
   36.4750   30.7620   49.0340 C   0  0  2  0  0  0  0  0  0  0  0  0
   37.4770   31.5680   49.8060 C   0  0  0  0  0  0  0  0  0  0  0  0
   38.2980   30.7270   50.7610 C   0  0  0  0  0  0  0  0  0  0  0  0
   37.3810   29.9780   51.7290 C   0  0  0  0  0  0  0  0  0  0  0  0
   36.1080   29.4780   51.1020 C   0  0  0  0  0  0  0  0  0  0  0  0
   36.3290   29.3830   49.5800 C   0  0  1  0  0  0  0  0  0  0  0  0
   36.8510   30.6730   47.5990 C   0  0  0  0  0  0  0  0  0  0  0  0
   38.2200   30.8510   47.3170 C   0  0  0  0  0  0  0  0  0  0  0  0
   38.5990   30.7680   45.9720 C   0  0  0  0  0  0  0  0  0  0  0  0
   37.6310   30.5210   45.0240 N   0  0  0  0  0  0  0  0  0  0  0  0
   36.3130   30.3550   45.3530 C   0  0  0  0  0  0  0  0  0  0  0  0
   35.9440   30.4350   46.6480 N   0  0  0  0  0  0  0  0  0  0  0  0
   33.9970   28.4410   49.1240 C   0  0  0  0  0  0  0  0  0  0  0  0
   33.2390   29.1260   49.9110 O   0  0  0  0  0  0  0  0  0  0  0  0
   35.3900   28.5740   48.8920 N   0  0  0  0  0  0  0  0  0  0  0  0
   33.2500   27.3800   48.3850 C   0  0  0  0  0  0  0  0  0  0  0  0
   31.7840   27.5190   48.4900 C   0  0  0  0  0  0  0  0  0  0  0  0
   31.2360   26.0350   47.4560 S   0  0  0  0  0  0  0  0  0  0  0  0
   32.9880   25.5360   47.0980 C   0  0  0  0  0  0  0  0  0  0  0  0
   33.8180   26.4020   47.7000 N   0  0  0  0  0  0  0  0  0  0  0  0
   35.5127   31.2856   49.1328 H   0  0  0  0  0  0  0  0  0  0  0  0
   38.1582   32.0568   49.0939 H   0  0  0  0  0  0  0  0  0  0  0  0
   36.9191   32.3012   50.4070 H   0  0  0  0  0  0  0  0  0  0  0  0
   38.8912   30.0001   50.1868 H   0  0  0  0  0  0  0  0  0  0  0  0
   38.9649   31.3859   51.3363 H   0  0  0  0  0  0  0  0  0  0  0  0
   37.9320   29.1142   52.1293 H   0  0  0  0  0  0  0  0  0  0  0  0
   37.0906   30.6944   52.5116 H   0  0  0  0  0  0  0  0  0  0  0  0
   35.8586   28.4854   51.5052 H   0  0  0  0  0  0  0  0  0  0  0  0
   35.2783   30.1651   51.3244 H   0  0  0  0  0  0  0  0  0  0  0  0
   37.2644   28.8329   49.4002 H   0  0  0  0  0  0  0  0  0  0  0  0
   38.9536   31.0453   48.1133 H   0  0  0  0  0  0  0  0  0  0  0  0
   39.6509   30.8977   45.6776 H   0  0  0  0  0  0  0  0  0  0  0  0
   35.5642   30.1589   44.5715 H   0  0  0  0  0  0  0  0  0  0  0  0
   35.7700   28.0070   48.1206 H   0  0  0  0  0  0  0  0  0  0  0  0
   31.1819   28.2721   49.0195 H   0  0  0  0  0  0  0  0  0  0  0  0
   33.2956   24.6715   46.4914 H   0  0  0  0  0  0  0  0  0  0  0  0
  1  6  1  0
  1  2  1  0
  2  3  1  0
  3  4  1  0
  5  4  1  0
  6  5  1  0
  7  1  1  0
  8  7  2  0
  9  8  1  0
 10 11  1  0
 10  9  2  0
 11 12  2  0
 12  7  1  0
 13 14  2  0
 15 13  1  0
 15  6  1  0
 16 17  2  0
 16 13  1  0
 18 17  1  0
 19 18  1  0
 19 20  2  0
 20 16  1  0
  1 21  1  6
  2 22  1  0
  2 23  1  0
  3 24  1  0
  3 25  1  0
  4 26  1  0
  4 27  1  0
  5 28  1  0
  5 29  1  0
  6 30  1  1
  8 31  1  0
  9 32  1  0
 11 33  1  0
 15 34  1  0
 17 35  1  0
 19 36  1  0
M  ISO  8  21  13  22  13  23  13  24  13  25  13  26  13  27  13  28  13
M  ISO  7  29  13  30  13  31  14  32  14  33  14  35  14  36  14
M  END
>  <minimizedAffinity>  (1) 
-5.75492859

>  <minimizedRMSD>  (1) 
0.56428355

$$$$
