
     RDKit          3D

 51 55  0  0  0  0  0  0  0  0999 V2000
   33.2560   27.9880   47.4650 C   0  0  0  0  0  0  0  0  0  0  0  0
   31.7970   28.0520   47.7480 C   0  0  0  0  0  0  0  0  0  0  0  0
   31.3340   27.4600   48.9110 C   0  0  0  0  0  0  0  0  0  0  0  0
   30.0000   27.4740   49.2450 C   0  0  0  0  0  0  0  0  0  0  0  0
   29.1270   28.0710   48.4340 N   0  0  0  0  0  0  0  0  0  0  0  0
   29.5920   28.6520   47.2900 C   0  0  0  0  0  0  0  0  0  0  0  0
   30.8920   28.6470   46.9490 N   0  0  0  0  0  0  0  0  0  0  0  0
   28.5970   29.3130   46.3990 C   0  0  0  0  0  0  0  0  0  0  0  0
   28.6630   27.1940   44.9840 C   0  0  0  0  0  0  0  0  0  0  0  0
   28.0010   28.3210   45.4630 C   0  0  0  0  0  0  0  0  0  0  0  0
   26.6910   28.5330   45.0350 C   0  0  0  0  0  0  0  0  0  0  0  0
   26.0450   27.6800   44.1730 C   0  0  0  0  0  0  0  0  0  0  0  0
   24.8320   27.6460   43.6220 N   0  0  0  0  0  0  0  0  0  0  0  0
   24.6770   26.5800   42.8270 C   0  0  0  0  0  0  0  0  0  0  0  0
   25.8520   25.8900   42.8700 N   0  0  0  0  0  0  0  0  0  0  0  0
   26.7010   26.5470   43.6870 C   0  0  0  0  0  0  0  0  0  0  0  0
   27.9970   26.3620   44.1270 C   0  0  0  0  0  0  0  0  0  0  0  0
   34.0330   29.0370   48.2090 C   0  0  0  0  0  0  0  0  0  0  0  0
   34.7500   28.4630   49.2920 O   0  0  0  0  0  0  0  0  0  0  0  0
   37.1120   30.0010   51.5490 C   0  0  0  0  0  0  0  0  0  0  0  0
   37.8950   30.7190   50.6210 C   0  0  0  0  0  0  0  0  0  0  0  0
   37.5690   30.6340   49.2810 C   0  0  0  0  0  0  0  0  0  0  0  0
   36.4940   29.8440   48.9730 N   0  0  0  0  0  0  0  0  0  0  0  0
   35.7590   29.1690   49.8580 C   0  0  0  0  0  0  0  0  0  0  0  0
   36.0800   29.2550   51.1590 N   0  0  0  0  0  0  0  0  0  0  0  0
   38.7880   33.2540   49.2840 F   0  0  0  0  0  0  0  0  0  0  0  0
   38.8320   32.5110   48.1780 C   0  0  0  0  0  0  0  0  0  0  0  0
   38.2600   31.2990   48.1990 C   0  0  0  0  0  0  0  0  0  0  0  0
   38.3630   30.6070   46.9930 C   0  0  0  0  0  0  0  0  0  0  0  0
   38.9890   31.1160   45.8920 C   0  0  0  0  0  0  0  0  0  0  0  0
   39.5590   32.3700   45.9270 C   0  0  0  0  0  0  0  0  0  0  0  0
   39.4710   33.0650   47.0960 C   0  0  0  0  0  0  0  0  0  0  0  0
   33.6295   26.9965   47.7605 H   0  0  0  0  0  0  0  0  0  0  0  0
   33.3960   28.1687   46.3890 H   0  0  0  0  0  0  0  0  0  0  0  0
   32.0506   26.9665   49.5841 H   0  0  0  0  0  0  0  0  0  0  0  0
   29.6562   26.9962   50.1743 H   0  0  0  0  0  0  0  0  0  0  0  0
   27.7995   29.7573   47.0126 H   0  0  0  0  0  0  0  0  0  0  0  0
   29.1042   30.0953   45.8152 H   0  0  0  0  0  0  0  0  0  0  0  0
   29.6979   26.9777   45.2878 H   0  0  0  0  0  0  0  0  0  0  0  0
   26.1528   29.4192   45.4024 H   0  0  0  0  0  0  0  0  0  0  0  0
   24.1024   28.3539   43.7877 H   0  0  0  0  0  0  0  0  0  0  0  0
   23.7780   26.3132   42.2520 H   0  0  0  0  0  0  0  0  0  0  0  0
   28.5356   25.4762   43.7594 H   0  0  0  0  0  0  0  0  0  0  0  0
   34.7441   29.5153   47.5194 H   0  0  0  0  0  0  0  0  0  0  0  0
   33.3272   29.7798   48.6089 H   0  0  0  0  0  0  0  0  0  0  0  0
   37.3595   30.0586   52.6193 H   0  0  0  0  0  0  0  0  0  0  0  0
   38.7448   31.3319   50.9561 H   0  0  0  0  0  0  0  0  0  0  0  0
   37.9186   29.6030   46.9256 H   0  0  0  0  0  0  0  0  0  0  0  0
   39.0389   30.5200   44.9688 H   0  0  0  0  0  0  0  0  0  0  0  0
   40.0648   32.7932   45.0466 H   0  0  0  0  0  0  0  0  0  0  0  0
   39.9119   34.0699   47.1729 H   0  0  0  0  0  0  0  0  0  0  0  0
  1  2  1  0
  1 18  1  0
  2  3  2  0
  3  4  1  0
  5  4  2  0
  6  5  1  0
  7  6  2  0
  7  2  1  0
  8  6  1  0
  9 10  2  0
 10  8  1  0
 11 10  1  0
 12 11  2  0
 13 12  1  0
 14 15  2  0
 14 13  1  0
 15 16  1  0
 16 17  2  0
 16 12  1  0
 17  9  1  0
 18 19  1  0
 19 24  1  0
 21 20  2  0
 22 21  1  0
 23 22  2  0
 23 24  1  0
 24 25  2  0
 25 20  1  0
 27 28  2  0
 27 26  1  0
 28 22  1  0
 29 28  1  0
 30 31  1  0
 30 29  2  0
 31 32  2  0
 32 27  1  0
  1 33  1  0
  1 34  1  0
  3 35  1  0
  4 36  1  0
  8 37  1  0
  8 38  1  0
  9 39  1  0
 11 40  1  0
 13 41  1  0
 14 42  1  0
 17 43  1  0
 18 44  1  0
 18 45  1  0
 20 46  1  0
 21 47  1  0
 29 48  1  0
 30 49  1  0
 31 50  1  0
 32 51  1  0
M  ISO  8  33   8  34   8  35  14  36  14  37   8  38   8  39  14  40  14
M  ISO  8  41   9  42  14  43  14  44   8  45   8  46  14  47  14  48  14
M  ISO  3  49  14  50  14  51  14
M  END
>  <minimizedAffinity>  (1) 
-7.06295776

>  <minimizedRMSD>  (1) 
0.87801826

$$$$
