
     RDKit          3D

 47 50  0  0  0  0  0  0  0  0999 V2000
   34.3220   29.6580   49.8940 C   0  0  0  0  0  0  0  0  0  0  0  0
   35.3930   30.6120   49.5100 C   0  0  0  0  0  0  0  0  0  0  0  0
   38.2610   31.8080   48.9250 Br  0  0  0  0  0  0  0  0  0  0  0  0
   37.0230   31.0700   47.6540 C   0  0  0  0  0  0  0  0  0  0  0  0
   37.3480   31.0230   46.3250 C   0  0  0  0  0  0  0  0  0  0  0  0
   36.4230   30.4950   45.4580 C   0  0  0  0  0  0  0  0  0  0  0  0
   35.1910   30.0170   45.8800 C   0  0  0  0  0  0  0  0  0  0  0  0
   34.9010   30.0850   47.2500 C   0  0  0  0  0  0  0  0  0  0  0  0
   35.8200   30.6100   48.1150 C   0  0  0  0  0  0  0  0  0  0  0  0
   39.8050   33.2740   44.8420 C   0  0  0  0  0  0  0  0  0  0  0  0
   41.0210   32.5170   44.8850 C   0  0  0  0  0  0  0  0  0  0  0  0
   40.9510   31.2600   45.4220 C   0  0  0  0  0  0  0  0  0  0  0  0
   39.7550   30.7690   45.8930 N   0  0  0  0  0  0  0  0  0  0  0  0
   38.6360   31.5190   45.8320 C   0  0  0  0  0  0  0  0  0  0  0  0
   38.6790   32.7550   45.3090 N   0  0  0  0  0  0  0  0  0  0  0  0
   34.8090   28.3340   49.7600 N   0  0  0  0  0  0  0  0  0  0  0  0
   34.0700   27.4420   48.9450 C   0  0  0  0  0  0  0  0  0  0  0  0
   32.6600   27.9250   48.8670 C   0  0  0  0  0  0  0  0  0  0  0  0
   32.7360   25.9410   47.2500 C   0  0  0  0  0  0  0  0  0  0  0  0
   31.9910   26.9150   47.9240 C   0  0  0  0  0  0  0  0  0  0  0  0
   30.6050   26.9640   47.7310 C   0  0  0  0  0  0  0  0  0  0  0  0
   29.9740   26.0710   46.8900 C   0  0  0  0  0  0  0  0  0  0  0  0
   28.6910   25.9300   46.5580 N   0  0  0  0  0  0  0  0  0  0  0  0
   28.5940   24.8860   45.6850 C   0  0  0  0  0  0  0  0  0  0  0  0
   29.8430   24.3810   45.4810 N   0  0  0  0  0  0  0  0  0  0  0  0
   30.7170   25.1140   46.2290 C   0  0  0  0  0  0  0  0  0  0  0  0
   32.0830   25.0590   46.4160 C   0  0  0  0  0  0  0  0  0  0  0  0
   34.0261   29.8375   50.9381 H   0  0  0  0  0  0  0  0  0  0  0  0
   33.4488   29.7991   49.2401 H   0  0  0  0  0  0  0  0  0  0  0  0
   35.0334   31.6248   49.7444 H   0  0  0  0  0  0  0  0  0  0  0  0
   36.2778   30.2878   50.0774 H   0  0  0  0  0  0  0  0  0  0  0  0
   36.6687   30.4493   44.3868 H   0  0  0  0  0  0  0  0  0  0  0  0
   34.4671   29.5993   45.1649 H   0  0  0  0  0  0  0  0  0  0  0  0
   33.9359   29.7166   47.6280 H   0  0  0  0  0  0  0  0  0  0  0  0
   39.8065   34.2897   44.4197 H   0  0  0  0  0  0  0  0  0  0  0  0
   41.9676   32.9275   44.5038 H   0  0  0  0  0  0  0  0  0  0  0  0
   41.8567   30.6382   45.4774 H   0  0  0  0  0  0  0  0  0  0  0  0
   35.7596   28.3937   49.3680 H   0  0  0  0  0  0  0  0  0  0  0  0
   34.5079   27.4125   47.9363 H   0  0  0  0  0  0  0  0  0  0  0  0
   34.0972   26.4299   49.3751 H   0  0  0  0  0  0  0  0  0  0  0  0
   32.1841   27.9129   49.8587 H   0  0  0  0  0  0  0  0  0  0  0  0
   32.5801   28.9630   48.5119 H   0  0  0  0  0  0  0  0  0  0  0  0
   33.8261   25.8801   47.3837 H   0  0  0  0  0  0  0  0  0  0  0  0
   30.0109   27.7254   48.2575 H   0  0  0  0  0  0  0  0  0  0  0  0
   27.9099   26.5077   46.9003 H   0  0  0  0  0  0  0  0  0  0  0  0
   27.6663   24.5154   45.2246 H   0  0  0  0  0  0  0  0  0  0  0  0
   32.6659   24.2915   45.8858 H   0  0  0  0  0  0  0  0  0  0  0  0
  2  1  1  0
  4  9  2  0
  4  3  1  0
  5  4  1  0
  6  7  1  0
  6  5  2  0
  7  8  2  0
  8  9  1  0
  9  2  1  0
 10 11  2  0
 10 15  1  0
 11 12  1  0
 12 13  2  0
 14 13  1  0
 14  5  1  0
 15 14  2  0
 16  1  1  0
 17 16  1  0
 18 17  1  0
 19 20  2  0
 20 18  1  0
 21 20  1  0
 22 21  2  0
 23 22  1  0
 24 23  1  0
 25 24  2  0
 25 26  1  0
 26 27  2  0
 26 22  1  0
 27 19  1  0
  1 28  1  0
  1 29  1  0
  2 30  1  0
  2 31  1  0
  6 32  1  0
  7 33  1  0
  8 34  1  0
 10 35  1  0
 11 36  1  0
 12 37  1  0
 16 38  1  0
 17 39  1  0
 17 40  1  0
 18 41  1  0
 18 42  1  0
 19 43  1  0
 21 44  1  0
 23 45  1  0
 24 46  1  0
 27 47  1  0
M  ISO  8  28   8  29   8  30   8  31   8  32  14  33  14  34  14  35  14
M  ISO  8  36  14  37  14  38   5  39   8  40   8  41   8  42   8  43  14
M  ISO  4  44  14  45   9  46  14  47  14
M  END
>  <minimizedAffinity>  (1) 
-5.66527891

>  <minimizedRMSD>  (1) 
0.747727513

$$$$
