
     RDKit          3D

 36 39  0  0  0  0  0  0  0  0999 V2000
   32.9000   27.7550   47.9640 C   0  0  0  0  0  0  0  0  0  0  0  0
   32.1590   26.5850   47.9940 C   0  0  0  0  0  0  0  0  0  0  0  0
   30.8460   26.8290   47.6860 C   0  0  0  0  0  0  0  0  0  0  0  0
   30.8130   28.1570   47.4720 N   0  0  0  0  0  0  0  0  0  0  0  0
   32.0190   28.7060   47.6340 N   0  0  0  0  0  0  0  0  0  0  0  0
   28.5370   28.9530   47.8920 C   0  0  0  0  0  0  0  0  0  0  0  0
   29.6530   28.9150   47.1150 C   0  0  0  0  0  0  0  0  0  0  0  0
   29.6590   29.6440   45.9260 C   0  0  0  0  0  0  0  0  0  0  0  0
   28.6220   30.3990   45.4790 C   0  0  0  0  0  0  0  0  0  0  0  0
   28.4320   31.1670   44.3750 N   0  0  0  0  0  0  0  0  0  0  0  0
   27.1900   31.6830   44.4690 C   0  0  0  0  0  0  0  0  0  0  0  0
   26.6160   31.2400   45.6220 N   0  0  0  0  0  0  0  0  0  0  0  0
   27.4830   30.4450   46.2620 C   0  0  0  0  0  0  0  0  0  0  0  0
   27.4600   29.7230   47.4520 C   0  0  0  0  0  0  0  0  0  0  0  0
   34.3660   27.9200   48.2400 C   0  0  0  0  0  0  0  0  0  0  0  0
   34.4630   28.3530   49.6770 C   0  0  0  0  0  0  0  0  0  0  0  0
   37.2730   30.1510   51.2650 C   0  0  0  0  0  0  0  0  0  0  0  0
   38.0090   30.6160   50.1700 C   0  0  0  0  0  0  0  0  0  0  0  0
   37.5210   30.2990   48.8790 C   0  0  0  0  0  0  0  0  0  0  0  0
   36.3800   29.5710   48.7780 N   0  0  0  0  0  0  0  0  0  0  0  0
   35.7100   29.1490   49.8710 C   0  0  0  0  0  0  0  0  0  0  0  0
   36.1660   29.4440   51.0940 N   0  0  0  0  0  0  0  0  0  0  0  0
   32.5695   25.5928   48.2330 H   0  0  0  0  0  0  0  0  0  0  0  0
   30.0159   26.1096   47.6276 H   0  0  0  0  0  0  0  0  0  0  0  0
   28.4854   28.3939   48.8379 H   0  0  0  0  0  0  0  0  0  0  0  0
   30.5673   29.6048   45.3067 H   0  0  0  0  0  0  0  0  0  0  0  0
   29.1067   31.3248   43.6129 H   0  0  0  0  0  0  0  0  0  0  0  0
   26.7176   32.3522   43.7348 H   0  0  0  0  0  0  0  0  0  0  0  0
   26.5527   29.7613   48.0727 H   0  0  0  0  0  0  0  0  0  0  0  0
   34.8942   26.9668   48.0901 H   0  0  0  0  0  0  0  0  0  0  0  0
   34.8267   28.6541   47.5626 H   0  0  0  0  0  0  0  0  0  0  0  0
   33.5897   28.9704   49.9341 H   0  0  0  0  0  0  0  0  0  0  0  0
   34.4879   27.4662   50.3274 H   0  0  0  0  0  0  0  0  0  0  0  0
   37.6192   30.3761   52.2845 H   0  0  0  0  0  0  0  0  0  0  0  0
   38.9289   31.2036   50.3062 H   0  0  0  0  0  0  0  0  0  0  0  0
   38.0549   30.6353   47.9780 H   0  0  0  0  0  0  0  0  0  0  0  0
  1  2  1  0
  1 15  1  0
  3  2  2  0
  4  5  1  0
  4  3  1  0
  5  1  2  0
  7  4  1  0
  7  6  2  0
  8  7  1  0
  9  8  2  0
  9 13  1  0
 10 11  1  0
 10  9  1  0
 11 12  2  0
 12 13  1  0
 13 14  2  0
 14  6  1  0
 15 16  1  0
 16 21  1  0
 18 17  2  0
 19 18  1  0
 20 19  2  0
 20 21  1  0
 21 22  2  0
 22 17  1  0
  2 23  1  0
  3 24  1  0
  6 25  1  0
  8 26  1  0
 10 27  1  0
 11 28  1  0
 14 29  1  0
 15 30  1  0
 15 31  1  0
 16 32  1  0
 16 33  1  0
 17 34  1  0
 18 35  1  0
 19 36  1  0
M  ISO  8  23  14  24  14  25  14  26  14  27   9  28  14  29  14  30   8
M  ISO  6  31   8  32   8  33   8  34  14  35  14  36  14
M  END
>  <minimizedAffinity>  (1) 
-5.3493681

>  <minimizedRMSD>  (1) 
1.27134848

$$$$
