
     RDKit          3D

 35 37  0  0  0  0  0  0  0  0999 V2000
   34.7360   30.5420   49.1630 O   0  0  0  0  0  0  0  0  0  0  0  0
   34.4800   29.4250   50.1590 P   0  0  2  0  0  0  0  0  0  0  0  0
   33.0340   29.8050   50.9310 O   0  0  0  0  0  0  0  0  0  0  0  0
   35.7710   29.4080   51.2670 O   0  0  0  0  0  0  0  0  0  0  0  0
   36.9990   29.2630   50.6110 C   0  0  0  0  0  0  0  0  0  0  0  0
   37.7780   30.5200   50.8150 C   0  0  0  0  0  0  0  0  0  0  0  0
   38.1480   31.2310   49.5910 C   0  0  0  0  0  0  0  0  0  0  0  0
   38.5660   32.5470   49.5880 C   0  0  0  0  0  0  0  0  0  0  0  0
   38.8960   33.1280   48.3460 C   0  0  0  0  0  0  0  0  0  0  0  0
   38.7850   32.3630   47.2160 N   0  0  0  0  0  0  0  0  0  0  0  0
   38.3660   31.0630   47.2760 C   0  0  0  0  0  0  0  0  0  0  0  0
   38.0490   30.5080   48.4720 N   0  0  0  0  0  0  0  0  0  0  0  0
   34.3250   27.9460   49.4000 O   0  0  0  0  0  0  0  0  0  0  0  0
   33.8930   27.2110   47.0590 C   0  0  0  0  0  0  0  0  0  0  0  0
   33.5440   27.6110   48.3240 C   0  0  0  0  0  0  0  0  0  0  0  0
   32.1840   27.7150   48.6410 C   0  0  0  0  0  0  0  0  0  0  0  0
   31.2010   27.4190   47.6920 C   0  0  0  0  0  0  0  0  0  0  0  0
   29.8550   27.4180   47.6760 N   0  0  0  0  0  0  0  0  0  0  0  0
   29.4370   27.0320   46.4410 C   0  0  0  0  0  0  0  0  0  0  0  0
   30.5290   26.7840   45.6670 N   0  0  0  0  0  0  0  0  0  0  0  0
   31.6060   27.0210   46.4320 C   0  0  0  0  0  0  0  0  0  0  0  0
   32.9480   26.9150   46.1100 C   0  0  0  0  0  0  0  0  0  0  0  0
   33.1646   29.7707   51.9117 H   0  0  0  0  0  0  0  0  0  0  0  0
   36.8317   29.0969   49.5366 H   0  0  0  0  0  0  0  0  0  0  0  0
   37.5499   28.4005   51.0142 H   0  0  0  0  0  0  0  0  0  0  0  0
   37.1720   31.1991   51.4327 H   0  0  0  0  0  0  0  0  0  0  0  0
   38.7234   30.2187   51.2898 H   0  0  0  0  0  0  0  0  0  0  0  0
   38.6391   33.1226   50.5225 H   0  0  0  0  0  0  0  0  0  0  0  0
   39.2351   34.1727   48.2865 H   0  0  0  0  0  0  0  0  0  0  0  0
   38.2861   30.4675   46.3546 H   0  0  0  0  0  0  0  0  0  0  0  0
   34.9584   27.1254   46.7990 H   0  0  0  0  0  0  0  0  0  0  0  0
   31.8851   28.0339   49.6504 H   0  0  0  0  0  0  0  0  0  0  0  0
   29.2441   27.6678   48.4667 H   0  0  0  0  0  0  0  0  0  0  0  0
   28.3892   26.9360   46.1203 H   0  0  0  0  0  0  0  0  0  0  0  0
   33.2537   26.5964   45.1025 H   0  0  0  0  0  0  0  0  0  0  0  0
  2  1  2  0
  2  3  1  0
  2  4  1  0
  5  6  1  0
  5  4  1  0
  7  6  1  0
  8  7  2  0
  9  8  1  0
 10 11  1  0
 10  9  2  0
 11 12  2  0
 12  7  1  0
 13  2  1  0
 14 15  2  0
 15 16  1  0
 15 13  1  0
 17 16  2  0
 18 17  1  0
 19 18  1  0
 20 21  1  0
 20 19  2  0
 21 17  1  0
 22 21  2  0
 22 14  1  0
  3 23  1  0
  5 24  1  0
  5 25  1  0
  6 26  1  0
  6 27  1  0
  8 28  1  0
  9 29  1  0
 11 30  1  0
 14 31  1  0
 16 32  1  0
 18 33  1  0
 19 34  1  0
 22 35  1  0
M  ISO  8  23   3  24   8  25   8  26   8  27   8  28  14  29  14  30  14
M  ISO  5  31  14  32  14  33   9  34  14  35  14
M  END
>  <minimizedAffinity>  (1) 
-5.54463911

>  <minimizedRMSD>  (1) 
1.80859649

$$$$
