
     RDKit          3D

 40 44  0  0  0  0  0  0  0  0999 V2000
   38.8420   30.9300   45.8210 C   0  0  0  0  0  0  0  0  0  0  0  0
   39.9860   31.6520   46.0600 C   0  0  0  0  0  0  0  0  0  0  0  0
   40.8410   31.6040   44.9600 C   0  0  0  0  0  0  0  0  0  0  0  0
   40.1620   30.8400   44.0900 N   0  0  0  0  0  0  0  0  0  0  0  0
   39.0000   30.4430   44.5810 N   0  0  0  0  0  0  0  0  0  0  0  0
   37.7250   30.7500   46.7270 C   0  0  0  0  0  0  0  0  0  0  0  0
   37.9400   30.9450   48.1150 C   0  0  0  0  0  0  0  0  0  0  0  0
   36.8500   30.7660   48.9640 C   0  0  0  0  0  0  0  0  0  0  0  0
   35.6510   30.4190   48.4190 N   0  0  0  0  0  0  0  0  0  0  0  0
   35.4680   30.2380   47.0860 C   0  0  0  0  0  0  0  0  0  0  0  0
   36.5160   30.4080   46.2520 N   0  0  0  0  0  0  0  0  0  0  0  0
   37.0410   30.9620   50.4260 C   0  0  0  0  0  0  0  0  0  0  0  0
   36.5580   32.2220   50.6990 F   0  0  0  0  0  0  0  0  0  0  0  0
   36.3480   30.0370   51.1860 F   0  0  0  0  0  0  0  0  0  0  0  0
   38.3920   30.9450   50.7690 F   0  0  0  0  0  0  0  0  0  0  0  0
   40.5650   30.4370   42.7360 C   0  0  0  0  0  0  0  0  0  0  0  0
   40.2280   31.1900   41.6000 C   0  0  0  0  0  0  0  0  0  0  0  0
   40.6200   30.7740   40.3860 C   0  0  0  0  0  0  0  0  0  0  0  0
   41.3740   29.5690   40.2760 C   0  0  0  0  0  0  0  0  0  0  0  0
   41.5000   29.0420   42.0450 S   0  0  0  0  0  0  0  0  0  0  0  0
   41.4990   27.6270   38.8540 C   0  0  0  0  0  0  0  0  0  0  0  0
   41.9200   28.8860   39.1630 C   0  0  0  0  0  0  0  0  0  0  0  0
   42.8780   29.5470   38.4260 C   0  0  0  0  0  0  0  0  0  0  0  0
   43.4330   28.8950   37.3200 C   0  0  0  0  0  0  0  0  0  0  0  0
   44.3640   29.2280   36.4020 N   0  0  0  0  0  0  0  0  0  0  0  0
   44.5350   28.2160   35.5320 C   0  0  0  0  0  0  0  0  0  0  0  0
   43.6920   27.2170   35.9070 N   0  0  0  0  0  0  0  0  0  0  0  0
   43.0090   27.6170   37.0040 C   0  0  0  0  0  0  0  0  0  0  0  0
   42.0540   26.9820   37.7550 C   0  0  0  0  0  0  0  0  0  0  0  0
   40.1986   32.1945   46.9930 H   0  0  0  0  0  0  0  0  0  0  0  0
   41.8272   32.0752   44.8358 H   0  0  0  0  0  0  0  0  0  0  0  0
   38.9288   31.2266   48.5061 H   0  0  0  0  0  0  0  0  0  0  0  0
   34.4805   29.9570   46.6913 H   0  0  0  0  0  0  0  0  0  0  0  0
   39.6451   32.1170   41.7047 H   0  0  0  0  0  0  0  0  0  0  0  0
   40.3631   31.3548   39.4879 H   0  0  0  0  0  0  0  0  0  0  0  0
   40.7318   27.1290   39.4650 H   0  0  0  0  0  0  0  0  0  0  0  0
   43.1986   30.5628   38.7006 H   0  0  0  0  0  0  0  0  0  0  0  0
   44.8694   30.1249   36.3717 H   0  0  0  0  0  0  0  0  0  0  0  0
   45.2272   28.1998   34.6773 H   0  0  0  0  0  0  0  0  0  0  0  0
   41.7281   25.9657   37.4888 H   0  0  0  0  0  0  0  0  0  0  0  0
  1  2  1  0
  1  6  1  0
  3  2  2  0
  4  5  1  0
  4  3  1  0
  5  1  2  0
  6  7  2  0
  7  8  1  0
  8 12  1  0
  9  8  2  0
 10  9  1  0
 11  6  1  0
 11 10  2  0
 12 13  1  0
 12 15  1  0
 12 14  1  0
 16  4  1  0
 17 16  2  0
 18 17  1  0
 19 18  2  0
 19 20  1  0
 20 16  1  0
 21 22  2  0
 22 19  1  0
 23 22  1  0
 24 23  2  0
 25 24  1  0
 26 27  2  0
 26 25  1  0
 27 28  1  0
 28 24  1  0
 28 29  2  0
 29 21  1  0
  2 30  1  0
  3 31  1  0
  7 32  1  0
 10 33  1  0
 17 34  1  0
 18 35  1  0
 21 36  1  0
 23 37  1  0
 25 38  1  0
 26 39  1  0
 29 40  1  0
M  ISO  8  30  14  31  14  32  14  33  14  34  14  35  14  36  14  37  14
M  ISO  3  38   9  39  14  40  14
M  END
>  <minimizedAffinity>  (1) 
-6.49976778

>  <minimizedRMSD>  (1) 
0.241795272

$$$$
