
     RDKit          3D

 47 51  0  0  0  0  0  0  0  0999 V2000
   36.9210   30.8250   49.3010 C   0  0  0  0  0  0  0  0  0  0  0  0
   37.0220   30.5310   50.6640 C   0  0  0  0  0  0  0  0  0  0  0  0
   36.1480   29.6440   51.2650 C   0  0  0  0  0  0  0  0  0  0  0  0
   35.1870   29.0780   50.4460 C   0  0  0  0  0  0  0  0  0  0  0  0
   35.0710   29.3570   49.0900 C   0  0  0  0  0  0  0  0  0  0  0  0
   35.9620   30.2390   48.5650 N   0  0  0  0  0  0  0  0  0  0  0  0
   34.0580   28.7230   48.3580 N   0  0  0  0  0  0  0  0  0  0  0  0
   32.9930   28.0680   49.0690 C   0  0  0  0  0  0  0  0  0  0  0  0
   32.1150   27.3840   48.0500 C   0  0  0  0  0  0  0  0  0  0  0  0
   31.5830   28.4000   47.0560 C   0  0  0  0  0  0  0  0  0  0  0  0
   32.6880   29.2020   46.4440 C   0  0  0  0  0  0  0  0  0  0  0  0
   34.0170   28.6860   46.9120 C   0  0  0  0  0  0  0  0  0  0  0  0
   39.2250   33.6250   48.8690 C   0  0  0  0  0  0  0  0  0  0  0  0
   39.6190   33.5000   47.5190 C   0  0  0  0  0  0  0  0  0  0  0  0
   39.0840   32.4590   46.7950 C   0  0  0  0  0  0  0  0  0  0  0  0
   38.2120   31.6210   47.4250 N   0  0  0  0  0  0  0  0  0  0  0  0
   37.8520   31.7590   48.7080 C   0  0  0  0  0  0  0  0  0  0  0  0
   38.3610   32.7600   49.4170 N   0  0  0  0  0  0  0  0  0  0  0  0
   39.1930   33.1350   44.3970 C   0  0  0  0  0  0  0  0  0  0  0  0
   39.4110   32.2230   45.3960 C   0  0  0  0  0  0  0  0  0  0  0  0
   39.9760   31.0250   45.0100 C   0  0  0  0  0  0  0  0  0  0  0  0
   40.3210   30.7050   43.7130 C   0  0  0  0  0  0  0  0  0  0  0  0
   40.8760   29.5900   43.1690 N   0  0  0  0  0  0  0  0  0  0  0  0
   40.9760   29.8650   41.8550 C   0  0  0  0  0  0  0  0  0  0  0  0
   40.5120   31.0880   41.5620 N   0  0  0  0  0  0  0  0  0  0  0  0
   40.0910   31.6460   42.7110 C   0  0  0  0  0  0  0  0  0  0  0  0
   39.5350   32.8290   43.0860 C   0  0  0  0  0  0  0  0  0  0  0  0
   37.8071   31.0116   51.2662 H   0  0  0  0  0  0  0  0  0  0  0  0
   36.2131   29.4015   52.3360 H   0  0  0  0  0  0  0  0  0  0  0  0
   34.4757   28.3680   50.8932 H   0  0  0  0  0  0  0  0  0  0  0  0
   33.4087   27.3245   49.7649 H   0  0  0  0  0  0  0  0  0  0  0  0
   32.4115   28.7983   49.6509 H   0  0  0  0  0  0  0  0  0  0  0  0
   32.7029   26.6240   47.5144 H   0  0  0  0  0  0  0  0  0  0  0  0
   31.2687   26.9067   48.5656 H   0  0  0  0  0  0  0  0  0  0  0  0
   31.0425   27.8697   46.2581 H   0  0  0  0  0  0  0  0  0  0  0  0
   30.9141   29.0889   47.5926 H   0  0  0  0  0  0  0  0  0  0  0  0
   32.5812   30.2556   46.7414 H   0  0  0  0  0  0  0  0  0  0  0  0
   32.6327   29.1159   45.3488 H   0  0  0  0  0  0  0  0  0  0  0  0
   34.1524   27.6506   46.5662 H   0  0  0  0  0  0  0  0  0  0  0  0
   34.8226   29.3134   46.5027 H   0  0  0  0  0  0  0  0  0  0  0  0
   39.6331   34.4440   49.4794 H   0  0  0  0  0  0  0  0  0  0  0  0
   40.3268   34.2079   47.0631 H   0  0  0  0  0  0  0  0  0  0  0  0
   38.7461   34.1118   44.6338 H   0  0  0  0  0  0  0  0  0  0  0  0
   40.1645   30.2729   45.7903 H   0  0  0  0  0  0  0  0  0  0  0  0
   41.1576   28.7263   43.6544 H   0  0  0  0  0  0  0  0  0  0  0  0
   41.3893   29.1689   41.1103 H   0  0  0  0  0  0  0  0  0  0  0  0
   39.3459   33.5844   42.3091 H   0  0  0  0  0  0  0  0  0  0  0  0
  1  2  2  0
  2  3  1  0
  4  3  2  0
  5  4  1  0
  6  5  2  0
  6  1  1  0
  7  8  1  0
  7  5  1  0
  9  8  1  0
 10  9  1  0
 11 12  1  0
 11 10  1  0
 12  7  1  0
 13 18  2  0
 14 13  1  0
 15 16  1  0
 15 14  2  0
 16 17  2  0
 17  1  1  0
 17 18  1  0
 19 20  2  0
 20 15  1  0
 21 20  1  0
 22 21  2  0
 23 22  1  0
 24 23  1  0
 25 24  2  0
 25 26  1  0
 26 27  2  0
 26 22  1  0
 27 19  1  0
  2 28  1  0
  3 29  1  0
  4 30  1  0
  8 31  1  0
  8 32  1  0
  9 33  1  0
  9 34  1  0
 10 35  1  0
 10 36  1  0
 11 37  1  0
 11 38  1  0
 12 39  1  0
 12 40  1  0
 13 41  1  0
 14 42  1  0
 19 43  1  0
 21 44  1  0
 23 45  1  0
 24 46  1  0
 27 47  1  0
M  ISO  8  28  14  29  14  30  14  31  13  32  13  33  13  34  13  35  13
M  ISO  8  36  13  37  13  38  13  39  13  40  13  41  14  42  14  43  14
M  ISO  4  44  14  45   9  46  14  47  14
M  END
>  <minimizedAffinity>  (1) 
-7.98018408

>  <minimizedRMSD>  (1) 
1.80771935

$$$$
