
     RDKit          3D

 23 25  0  0  0  0  0  0  0  0999 V2000
   37.0580   30.7120   46.7730 C   0  0  0  0  0  0  0  0  0  0  0  0
   37.6980   31.1390   47.9170 C   0  0  0  0  0  0  0  0  0  0  0  0
   38.7160   32.0640   47.8370 C   0  0  0  0  0  0  0  0  0  0  0  0
   39.0600   32.5380   46.5750 C   0  0  0  0  0  0  0  0  0  0  0  0
   40.0240   33.4490   46.2530 N   0  0  0  0  0  0  0  0  0  0  0  0
   39.9940   33.5960   44.9140 C   0  0  0  0  0  0  0  0  0  0  0  0
   39.0440   32.8110   44.3830 N   0  0  0  0  0  0  0  0  0  0  0  0
   38.4430   32.1380   45.3950 C   0  0  0  0  0  0  0  0  0  0  0  0
   37.4200   31.2020   45.5130 C   0  0  0  0  0  0  0  0  0  0  0  0
   37.3880   30.1590   51.5440 C   0  0  0  0  0  0  0  0  0  0  0  0
   37.9110   30.7530   50.3890 C   0  0  0  0  0  0  0  0  0  0  0  0
   37.2480   30.5680   49.1800 C   0  0  0  0  0  0  0  0  0  0  0  0
   36.1200   29.8160   49.1730 N   0  0  0  0  0  0  0  0  0  0  0  0
   35.6290   29.2470   50.3100 C   0  0  0  0  0  0  0  0  0  0  0  0
   36.2580   29.4180   51.4790 N   0  0  0  0  0  0  0  0  0  0  0  0
   36.2477   29.9723   46.8520 H   0  0  0  0  0  0  0  0  0  0  0  0
   39.2383   32.4153   48.7391 H   0  0  0  0  0  0  0  0  0  0  0  0
   40.6544   33.9321   46.9088 H   0  0  0  0  0  0  0  0  0  0  0  0
   40.6531   34.2632   44.3391 H   0  0  0  0  0  0  0  0  0  0  0  0
   36.8948   30.8466   44.6142 H   0  0  0  0  0  0  0  0  0  0  0  0
   37.8983   30.2955   52.5088 H   0  0  0  0  0  0  0  0  0  0  0  0
   38.8301   31.3555   50.4367 H   0  0  0  0  0  0  0  0  0  0  0  0
   34.7103   28.6436   50.2666 H   0  0  0  0  0  0  0  0  0  0  0  0
  1  2  2  0
  2 12  1  0
  3  2  1  0
  4  3  2  0
  5  4  1  0
  6  5  1  0
  7  6  2  0
  7  8  1  0
  8  9  2  0
  8  4  1  0
  9  1  1  0
 11 10  2  0
 12 11  1  0
 13 12  2  0
 13 14  1  0
 14 15  2  0
 15 10  1  0
  1 16  1  0
  3 17  1  0
  5 18  1  0
  6 19  1  0
  9 20  1  0
 10 21  1  0
 11 22  1  0
 14 23  1  0
M  ISO  8  16  14  17  14  18   9  19  14  20  14  21  14  22  14  23  14
M  END
>  <minimizedAffinity>  (1) 
-5.97709084

>  <minimizedRMSD>  (1) 
1.17999256

$$$$
