
     RDKit          3D

 50 55  0  0  0  0  0  0  0  0999 V2000
   39.0660   32.2500   42.5980 C   0  0  0  0  0  0  0  0  0  0  0  0
   39.6230   31.5650   43.6480 C   0  0  0  0  0  0  0  0  0  0  0  0
   40.5480   30.5490   43.4610 C   0  0  0  0  0  0  0  0  0  0  0  0
   40.9280   30.2100   42.1710 C   0  0  0  0  0  0  0  0  0  0  0  0
   41.7800   29.2920   41.6950 N   0  0  0  0  0  0  0  0  0  0  0  0
   41.7700   29.3880   40.3670 C   0  0  0  0  0  0  0  0  0  0  0  0
   40.9130   30.3640   40.0040 N   0  0  0  0  0  0  0  0  0  0  0  0
   40.3600   30.9060   41.1280 C   0  0  0  0  0  0  0  0  0  0  0  0
   39.4420   31.9160   41.2900 C   0  0  0  0  0  0  0  0  0  0  0  0
   39.4330   32.7010   38.8970 C   0  0  0  0  0  0  0  0  0  0  0  0
   38.8530   32.6420   40.1690 C   0  0  0  0  0  0  0  0  0  0  0  0
   37.6450   33.3150   40.3680 C   0  0  0  0  0  0  0  0  0  0  0  0
   37.0320   34.0220   39.3530 C   0  0  0  0  0  0  0  0  0  0  0  0
   35.9090   34.7410   39.2540 N   0  0  0  0  0  0  0  0  0  0  0  0
   35.7910   35.2230   37.9970 C   0  0  0  0  0  0  0  0  0  0  0  0
   36.8530   34.8160   37.2510 N   0  0  0  0  0  0  0  0  0  0  0  0
   37.6010   34.0830   38.0950 C   0  0  0  0  0  0  0  0  0  0  0  0
   38.8110   33.4090   37.8910 C   0  0  0  0  0  0  0  0  0  0  0  0
   39.2020   31.9470   44.9750 C   0  0  0  0  0  0  0  0  0  0  0  0
   38.1170   32.5870   45.1180 O   0  0  0  0  0  0  0  0  0  0  0  0
   39.9140   31.6650   46.1750 N   0  0  0  0  0  0  0  0  0  0  0  0
   38.0800   30.1750   47.5020 F   0  0  0  0  0  0  0  0  0  0  0  0
   38.3580   31.4180   48.0120 C   0  0  0  0  0  0  0  0  0  0  0  0
   37.7040   31.8310   49.1450 C   0  0  0  0  0  0  0  0  0  0  0  0
   38.0350   33.0840   49.5940 C   0  0  0  0  0  0  0  0  0  0  0  0
   38.9480   33.8910   48.9810 C   0  0  0  0  0  0  0  0  0  0  0  0
   39.5810   33.4320   47.8410 C   0  0  0  0  0  0  0  0  0  0  0  0
   39.2820   32.1830   47.3530 C   0  0  0  0  0  0  0  0  0  0  0  0
   36.0900   29.3330   51.4710 C   0  0  0  0  0  0  0  0  0  0  0  0
   37.0270   30.1980   50.8840 C   0  0  0  0  0  0  0  0  0  0  0  0
   36.7400   30.9330   49.7610 C   0  0  0  0  0  0  0  0  0  0  0  0
   35.4930   30.7790   49.2450 N   0  0  0  0  0  0  0  0  0  0  0  0
   34.5880   29.9520   49.8020 C   0  0  0  0  0  0  0  0  0  0  0  0
   34.8810   29.2480   50.8870 N   0  0  0  0  0  0  0  0  0  0  0  0
   38.3341   33.0507   42.7803 H   0  0  0  0  0  0  0  0  0  0  0  0
   40.9750   30.0186   44.3249 H   0  0  0  0  0  0  0  0  0  0  0  0
   42.3401   28.6327   42.2540 H   0  0  0  0  0  0  0  0  0  0  0  0
   42.3647   28.7709   39.6774 H   0  0  0  0  0  0  0  0  0  0  0  0
   40.3835   32.1834   38.7002 H   0  0  0  0  0  0  0  0  0  0  0  0
   37.1698   33.2807   41.3595 H   0  0  0  0  0  0  0  0  0  0  0  0
   35.2374   34.9026   40.0180 H   0  0  0  0  0  0  0  0  0  0  0  0
   34.9628   35.8487   37.6329 H   0  0  0  0  0  0  0  0  0  0  0  0
   39.2801   33.4455   36.8967 H   0  0  0  0  0  0  0  0  0  0  0  0
   40.7992   31.1388   46.1950 H   0  0  0  0  0  0  0  0  0  0  0  0
   37.5360   33.4593   50.4996 H   0  0  0  0  0  0  0  0  0  0  0  0
   39.1762   34.8879   49.3860 H   0  0  0  0  0  0  0  0  0  0  0  0
   40.3205   34.0637   47.3271 H   0  0  0  0  0  0  0  0  0  0  0  0
   36.3341   28.7492   52.3708 H   0  0  0  0  0  0  0  0  0  0  0  0
   38.0242   30.2897   51.3391 H   0  0  0  0  0  0  0  0  0  0  0  0
   33.5896   29.8589   49.3498 H   0  0  0  0  0  0  0  0  0  0  0  0
  1  2  2  0
  2 19  1  0
  3  2  1  0
  4  3  2  0
  5  4  1  0
  6  5  1  0
  7  6  2  0
  7  8  1  0
  8  9  2  0
  8  4  1  0
  9  1  1  0
 10 11  2  0
 11 12  1  0
 11  9  1  0
 13 12  2  0
 14 13  1  0
 15 14  1  0
 16 15  2  0
 16 17  1  0
 17 13  1  0
 18 17  2  0
 18 10  1  0
 19 20  2  0
 19 21  1  0
 21 28  1  0
 22 23  1  0
 23 24  2  0
 24 25  1  0
 24 31  1  0
 26 25  2  0
 27 26  1  0
 28 27  2  0
 28 23  1  0
 30 29  2  0
 31 30  1  0
 32 31  2  0
 32 33  1  0
 33 34  2  0
 34 29  1  0
  1 35  1  0
  3 36  1  0
  5 37  1  0
  6 38  1  0
 10 39  1  0
 12 40  1  0
 14 41  1  0
 15 42  1  0
 18 43  1  0
 21 44  1  0
 25 45  1  0
 26 46  1  0
 27 47  1  0
 29 48  1  0
 30 49  1  0
 33 50  1  0
M  END
>  <minimizedAffinity>  (1) 
-7.78456974

>  <minimizedRMSD>  (1) 
0.485500246

$$$$
