
     RDKit          3D

 45 49  0  0  0  0  0  0  0  0999 V2000
   37.0140   32.5310   43.5010 Cl  0  0  0  0  0  0  0  0  0  0  0  0
   38.5190   31.6640   43.6300 C   0  0  0  0  0  0  0  0  0  0  0  0
   39.4110   32.1600   44.5790 C   0  0  0  0  0  0  0  0  0  0  0  0
   40.6160   31.4840   44.6970 C   0  0  0  0  0  0  0  0  0  0  0  0
   40.9570   30.3800   43.9440 C   0  0  0  0  0  0  0  0  0  0  0  0
   40.0540   29.9070   43.0100 C   0  0  0  0  0  0  0  0  0  0  0  0
   38.8350   30.5670   42.8690 C   0  0  0  0  0  0  0  0  0  0  0  0
   36.9720   29.0980   42.3070 C   0  0  0  0  0  0  0  0  0  0  0  0
   37.8710   30.0820   41.8890 C   0  0  0  0  0  0  0  0  0  0  0  0
   37.7650   30.5090   40.5810 C   0  0  0  0  0  0  0  0  0  0  0  0
   36.8330   30.0120   39.7070 C   0  0  0  0  0  0  0  0  0  0  0  0
   36.5960   30.3130   38.4170 N   0  0  0  0  0  0  0  0  0  0  0  0
   35.5670   29.5400   38.0100 C   0  0  0  0  0  0  0  0  0  0  0  0
   35.1730   28.7670   39.0480 N   0  0  0  0  0  0  0  0  0  0  0  0
   35.9410   29.0310   40.1310 C   0  0  0  0  0  0  0  0  0  0  0  0
   36.0290   28.5900   41.4360 C   0  0  0  0  0  0  0  0  0  0  0  0
   39.2410   33.2340   45.4050 O   0  0  0  0  0  0  0  0  0  0  0  0
   38.3350   32.2350   47.4120 C   0  0  0  0  0  0  0  0  0  0  0  0
   38.1650   32.1120   48.7890 C   0  0  0  0  0  0  0  0  0  0  0  0
   38.8650   33.0300   49.5520 C   0  0  0  0  0  0  0  0  0  0  0  0
   39.6730   33.9960   48.9540 C   0  0  0  0  0  0  0  0  0  0  0  0
   39.7970   34.0630   47.5750 C   0  0  0  0  0  0  0  0  0  0  0  0
   39.1130   33.1620   46.7950 C   0  0  0  0  0  0  0  0  0  0  0  0
   35.9350   31.2160   49.3240 C   0  0  0  0  0  0  0  0  0  0  0  0
   37.3280   31.1100   49.3880 C   0  0  0  0  0  0  0  0  0  0  0  0
   37.8660   29.9950   50.0540 C   0  0  0  0  0  0  0  0  0  0  0  0
   37.0050   29.0840   50.5980 N   0  0  0  0  0  0  0  0  0  0  0  0
   35.6570   29.2340   50.5080 C   0  0  0  0  0  0  0  0  0  0  0  0
   35.1260   30.3020   49.8700 N   0  0  0  0  0  0  0  0  0  0  0  0
   37.6560   31.3360   46.5540 O   0  0  0  0  0  0  0  0  0  0  0  0
   41.3439   31.8504   45.4358 H   0  0  0  0  0  0  0  0  0  0  0  0
   41.9293   29.8850   44.0839 H   0  0  0  0  0  0  0  0  0  0  0  0
   40.2926   29.0290   42.3918 H   0  0  0  0  0  0  0  0  0  0  0  0
   37.0159   28.7241   43.3406 H   0  0  0  0  0  0  0  0  0  0  0  0
   38.4598   31.2832   40.2235 H   0  0  0  0  0  0  0  0  0  0  0  0
   37.1046   31.0039   37.8469 H   0  0  0  0  0  0  0  0  0  0  0  0
   35.1233   29.5388   37.0034 H   0  0  0  0  0  0  0  0  0  0  0  0
   35.3319   27.8162   41.7900 H   0  0  0  0  0  0  0  0  0  0  0  0
   38.7826   32.9970   50.6484 H   0  0  0  0  0  0  0  0  0  0  0  0
   40.2187   34.7137   49.5841 H   0  0  0  0  0  0  0  0  0  0  0  0
   40.4357   34.8287   47.1104 H   0  0  0  0  0  0  0  0  0  0  0  0
   35.4903   32.0795   48.8076 H   0  0  0  0  0  0  0  0  0  0  0  0
   38.9545   29.8591   50.1353 H   0  0  0  0  0  0  0  0  0  0  0  0
   34.9929   28.4811   50.9575 H   0  0  0  0  0  0  0  0  0  0  0  0
   37.7659   31.4097   45.5729 H   0  0  0  0  0  0  0  0  0  0  0  0
  1  2  1  0
  2  3  2  0
  3  4  1  0
  3 17  1  0
  5  4  2  0
  6  5  1  0
  7  6  2  0
  7  2  1  0
  9  8  2  0
  9  7  1  0
 10  9  1  0
 11 15  1  0
 11 10  2  0
 12 11  1  0
 13 12  1  0
 13 14  2  0
 14 15  1  0
 15 16  2  0
 16  8  1  0
 17 23  1  0
 18 19  2  0
 19 25  1  0
 19 20  1  0
 21 20  2  0
 22 21  1  0
 23 18  1  0
 23 22  2  0
 24 25  2  0
 24 29  1  0
 25 26  1  0
 26 27  2  0
 28 27  1  0
 29 28  2  0
 30 18  1  0
  4 31  1  0
  5 32  1  0
  6 33  1  0
  8 34  1  0
 10 35  1  0
 12 36  1  0
 13 37  1  0
 16 38  1  0
 20 39  1  0
 21 40  1  0
 22 41  1  0
 24 42  1  0
 26 43  1  0
 28 44  1  0
 30 45  1  0
M  ISO  8  31  14  32  14  33  14  34  14  35  14  36   9  37  14  38  14
M  ISO  7  39  14  40  14  41  14  42  14  43  14  44  14  45   3
M  END
>  <minimizedAffinity>  (1) 
-5.42723751

>  <minimizedRMSD>  (1) 
0.184847787

$$$$
