
     RDKit          3D

 38 40  0  0  1  0  0  0  0  0999 V2000
   35.2200   30.2390   49.9510 C   0  0  2  0  0  0  0  0  0  0  0  0
   36.0610   31.2540   49.2940 C   0  0  0  0  0  0  0  0  0  0  0  0
   37.5060   30.7820   49.1660 C   0  0  2  0  0  0  0  0  0  0  0  0
   38.1150   30.5750   50.5140 C   0  0  0  0  0  0  0  0  0  0  0  0
   37.1870   29.8200   51.4500 C   0  0  0  0  0  0  0  0  0  0  0  0
   36.0020   29.2340   50.7410 C   0  0  0  0  0  0  0  0  0  0  0  0
   34.3300   29.5060   49.0470 C   0  0  0  0  0  0  0  0  0  0  0  0
   34.2390   29.9990   47.7250 C   0  0  0  0  0  0  0  0  0  0  0  0
   33.3600   29.3290   46.8450 C   0  0  0  0  0  0  0  0  0  0  0  0
   32.6490   28.2430   47.3170 N   0  0  0  0  0  0  0  0  0  0  0  0
   32.7780   27.8180   48.5910 C   0  0  0  0  0  0  0  0  0  0  0  0
   33.6010   28.4370   49.4330 N   0  0  0  0  0  0  0  0  0  0  0  0
   38.8540   32.7830   48.3320 C   0  0  0  0  0  0  0  0  0  0  0  0
   38.3230   31.5050   48.2230 C   0  0  0  0  0  0  0  0  0  0  0  0
   38.7050   30.9400   46.9940 C   0  0  0  0  0  0  0  0  0  0  0  0
   39.4770   31.5000   46.0110 C   0  0  0  0  0  0  0  0  0  0  0  0
   39.9390   32.7740   46.2510 C   0  0  0  0  0  0  0  0  0  0  0  0
   39.6280   33.4280   47.4220 C   0  0  0  0  0  0  0  0  0  0  0  0
   38.5790   33.4980   49.4880 O   0  0  0  0  0  0  0  0  0  0  0  0
   40.1150   34.7070   47.6180 O   0  0  0  0  0  0  0  0  0  0  0  0
   34.6055   30.8489   50.6295 H   0  0  0  0  0  0  0  0  0  0  0  0
   35.6600   31.4554   48.2897 H   0  0  0  0  0  0  0  0  0  0  0  0
   36.0479   32.1655   49.9097 H   0  0  0  0  0  0  0  0  0  0  0  0
   37.4663   29.7967   48.6786 H   0  0  0  0  0  0  0  0  0  0  0  0
   39.0461   30.0008   50.3983 H   0  0  0  0  0  0  0  0  0  0  0  0
   38.3086   31.5644   50.9540 H   0  0  0  0  0  0  0  0  0  0  0  0
   37.7525   29.0042   51.9239 H   0  0  0  0  0  0  0  0  0  0  0  0
   36.8086   30.5374   52.1931 H   0  0  0  0  0  0  0  0  0  0  0  0
   35.3344   28.7854   51.4913 H   0  0  0  0  0  0  0  0  0  0  0  0
   36.3873   28.4909   50.0273 H   0  0  0  0  0  0  0  0  0  0  0  0
   34.8279   30.8677   47.3955 H   0  0  0  0  0  0  0  0  0  0  0  0
   33.2441   29.6657   45.8042 H   0  0  0  0  0  0  0  0  0  0  0  0
   32.1966   26.9507   48.9370 H   0  0  0  0  0  0  0  0  0  0  0  0
   38.3384   29.9217   46.7972 H   0  0  0  0  0  0  0  0  0  0  0  0
   39.7145   30.9616   45.0816 H   0  0  0  0  0  0  0  0  0  0  0  0
   40.5644   33.2759   45.4980 H   0  0  0  0  0  0  0  0  0  0  0  0
   38.9402   34.4127   49.6020 H   0  0  0  0  0  0  0  0  0  0  0  0
   39.9031   35.1948   48.4530 H   0  0  0  0  0  0  0  0  0  0  0  0
  1  6  1  0
  2  1  1  0
  3  2  1  0
  3  4  1  0
  4  5  1  0
  6  5  1  0
  7 12  1  0
  7  1  1  0
  8  7  2  0
  9 10  2  0
  9  8  1  0
 10 11  1  0
 11 12  2  0
 13 19  1  0
 14 13  2  0
 14  3  1  0
 15 14  1  0
 16 17  1  0
 16 15  2  0
 17 18  2  0
 18 20  1  0
 18 13  1  0
  1 21  1  1
  2 22  1  0
  2 23  1  0
  3 24  1  6
  4 25  1  0
  4 26  1  0
  5 27  1  0
  5 28  1  0
  6 29  1  0
  6 30  1  0
  8 31  1  0
  9 32  1  0
 11 33  1  0
 15 34  1  0
 16 35  1  0
 17 36  1  0
 19 37  1  0
 20 38  1  0
M  ISO  8  21  13  22  13  23  13  24  13  25  13  26  13  27  13  28  13
M  ISO  8  29  13  30  13  31  14  32  14  33  14  34  14  35  14  36  14
M  ISO  2  37   3  38   3
M  END
>  <minimizedAffinity>  (1) 
-7.34669638

>  <minimizedRMSD>  (1) 
0.721455693

$$$$
