
     RDKit          3D

 44 47  0  0  0  0  0  0  0  0999 V2000
   37.3940   31.2410   47.0480 N   0  0  0  0  0  0  0  0  0  0  0  0
   36.6840   31.0560   45.9040 C   0  0  0  0  0  0  0  0  0  0  0  0
   37.0880   31.5970   44.6870 C   0  0  0  0  0  0  0  0  0  0  0  0
   38.2680   32.3510   44.6750 C   0  0  0  0  0  0  0  0  0  0  0  0
   38.6730   32.8570   43.6070 O   0  0  0  0  0  0  0  0  0  0  0  0
   38.9820   32.5340   45.8360 N   0  0  0  0  0  0  0  0  0  0  0  0
   38.4910   31.9660   46.9310 C   0  0  0  0  0  0  0  0  0  0  0  0
   39.1730   32.1590   47.9650 O   0  0  0  0  0  0  0  0  0  0  0  0
   37.4510   29.5580   50.3520 C   0  0  0  0  0  0  0  0  0  0  0  0
   37.8710   30.1060   49.1360 C   0  0  0  0  0  0  0  0  0  0  0  0
   36.9800   30.6950   48.2580 C   0  0  0  0  0  0  0  0  0  0  0  0
   35.6930   30.7120   48.6350 N   0  0  0  0  0  0  0  0  0  0  0  0
   35.2440   30.1900   49.8090 C   0  0  0  0  0  0  0  0  0  0  0  0
   36.1530   29.6100   50.6640 N   0  0  0  0  0  0  0  0  0  0  0  0
   36.3610   31.4260   43.4390 C   0  0  0  0  0  0  0  0  0  0  0  0
   36.5110   30.3450   42.6190 C   0  0  0  0  0  0  0  0  0  0  0  0
   35.8340   30.1600   41.4310 C   0  0  0  0  0  0  0  0  0  0  0  0
   34.9240   31.1530   41.0380 C   0  0  0  0  0  0  0  0  0  0  0  0
   34.8010   32.2300   41.8950 C   0  0  0  0  0  0  0  0  0  0  0  0
   35.4930   32.3320   43.0230 N   0  0  0  0  0  0  0  0  0  0  0  0
   32.9360   33.7620   42.4660 C   0  0  0  0  0  0  0  0  0  0  0  0
   33.8770   33.3080   41.5610 C   0  0  0  0  0  0  0  0  0  0  0  0
   33.8330   33.9740   40.3550 C   0  0  0  0  0  0  0  0  0  0  0  0
   32.9400   34.9880   40.0830 C   0  0  0  0  0  0  0  0  0  0  0  0
   32.0300   35.3860   41.0410 C   0  0  0  0  0  0  0  0  0  0  0  0
   32.0150   34.7650   42.2730 C   0  0  0  0  0  0  0  0  0  0  0  0
   32.9090   33.1390   43.7280 O   0  0  0  0  0  0  0  0  0  0  0  0
   31.1230   35.1220   43.2750 O   0  0  0  0  0  0  0  0  0  0  0  0
   40.1940   33.3110   45.8120 C   0  0  0  0  0  0  0  0  0  0  0  0
   40.1520   34.2420   44.8310 F   0  0  0  0  0  0  0  0  0  0  0  0
   41.3270   32.5510   45.5810 F   0  0  0  0  0  0  0  0  0  0  0  0
   40.3160   33.9770   47.0370 F   0  0  0  0  0  0  0  0  0  0  0  0
   35.7605   30.4596   45.9411 H   0  0  0  0  0  0  0  0  0  0  0  0
   38.1748   29.0935   51.0379 H   0  0  0  0  0  0  0  0  0  0  0  0
   38.9379   30.0675   48.8711 H   0  0  0  0  0  0  0  0  0  0  0  0
   34.1760   30.2309   50.0692 H   0  0  0  0  0  0  0  0  0  0  0  0
   37.2229   29.5652   42.9275 H   0  0  0  0  0  0  0  0  0  0  0  0
   36.0019   29.2652   40.8136 H   0  0  0  0  0  0  0  0  0  0  0  0
   34.3446   31.0788   40.1059 H   0  0  0  0  0  0  0  0  0  0  0  0
   34.5463   33.6816   39.5704 H   0  0  0  0  0  0  0  0  0  0  0  0
   32.9527   35.4812   39.0999 H   0  0  0  0  0  0  0  0  0  0  0  0
   31.3185   36.1961   40.8230 H   0  0  0  0  0  0  0  0  0  0  0  0
   32.2526   33.4298   44.4096 H   0  0  0  0  0  0  0  0  0  0  0  0
   31.1434   34.6524   44.1463 H   0  0  0  0  0  0  0  0  0  0  0  0
  1 11  1  0
  2  1  1  0
  3  2  2  0
  4  3  1  0
  4  6  1  0
  5  4  2  0
  6  7  1  0
  7  1  1  0
  7  8  2  0
  9 14  2  0
 10  9  1  0
 11 12  1  0
 11 10  2  0
 12 13  2  0
 13 14  1  0
 15  3  1  0
 16 15  2  0
 17 16  1  0
 18 17  2  0
 18 19  1  0
 19 20  2  0
 20 15  1  0
 21 27  1  0
 22 19  1  0
 22 21  2  0
 23 22  1  0
 24 23  2  0
 24 25  1  0
 25 26  2  0
 26 21  1  0
 26 28  1  0
 29  6  1  0
 29 32  1  0
 30 29  1  0
 31 29  1  0
  2 33  1  0
  9 34  1  0
 10 35  1  0
 13 36  1  0
 16 37  1  0
 17 38  1  0
 18 39  1  0
 23 40  1  0
 24 41  1  0
 25 42  1  0
 27 43  1  0
 28 44  1  0
M  ISO  8  33  14  34  14  35  14  36  14  37  14  38  14  39  14  40  14
M  ISO  4  41  14  42  14  43   3  44   3
M  END
>  <minimizedAffinity>  (1) 
-7.27720022

>  <minimizedRMSD>  (1) 
1.53742588

$$$$
