
     RDKit          3D

 50 54  0  0  0  0  0  0  0  0999 V2000
   39.7750   31.9200   46.4230 O   0  0  0  0  0  0  0  0  0  0  0  0
   39.9820   31.4440   43.9760 C   0  0  0  0  0  0  0  0  0  0  0  0
   39.3500   31.8920   45.1210 C   0  0  0  0  0  0  0  0  0  0  0  0
   38.0670   32.4150   45.0060 C   0  0  0  0  0  0  0  0  0  0  0  0
   37.4150   32.4940   43.7730 C   0  0  0  0  0  0  0  0  0  0  0  0
   36.2250   32.9270   43.3440 N   0  0  0  0  0  0  0  0  0  0  0  0
   36.1150   32.7630   42.0180 C   0  0  0  0  0  0  0  0  0  0  0  0
   37.2860   32.2010   41.5880 N   0  0  0  0  0  0  0  0  0  0  0  0
   38.0890   32.0320   42.6520 C   0  0  0  0  0  0  0  0  0  0  0  0
   39.3600   31.5130   42.7540 C   0  0  0  0  0  0  0  0  0  0  0  0
   41.0850   30.0220   41.5750 C   0  0  0  0  0  0  0  0  0  0  0  0
   40.1230   31.0100   41.6170 C   0  0  0  0  0  0  0  0  0  0  0  0
   39.7740   31.6740   40.4380 C   0  0  0  0  0  0  0  0  0  0  0  0
   40.3640   31.3710   39.2300 C   0  0  0  0  0  0  0  0  0  0  0  0
   41.3240   30.3770   39.2170 C   0  0  0  0  0  0  0  0  0  0  0  0
   41.6820   29.7110   40.3710 C   0  0  0  0  0  0  0  0  0  0  0  0
   41.3300   29.4520   42.8180 O   0  0  0  0  0  0  0  0  0  0  0  0
   42.6360   28.7050   40.4350 O   0  0  0  0  0  0  0  0  0  0  0  0
   38.0740   31.4050   48.0680 C   0  0  0  0  0  0  0  0  0  0  0  0
   37.2950   31.6430   49.1860 C   0  0  0  0  0  0  0  0  0  0  0  0
   37.5680   32.8680   49.7990 C   0  0  0  0  0  0  0  0  0  0  0  0
   38.5370   33.7520   49.3170 C   0  0  0  0  0  0  0  0  0  0  0  0
   39.2740   33.4020   48.1640 C   0  0  0  0  0  0  0  0  0  0  0  0
   39.0210   32.1910   47.5360 C   0  0  0  0  0  0  0  0  0  0  0  0
   35.0830   30.6130   49.0190 C   0  0  0  0  0  0  0  0  0  0  0  0
   36.3050   30.7460   49.6850 C   0  0  0  0  0  0  0  0  0  0  0  0
   36.5090   29.9810   50.8370 C   0  0  0  0  0  0  0  0  0  0  0  0
   35.5050   29.1530   51.2360 N   0  0  0  0  0  0  0  0  0  0  0  0
   34.3340   29.0520   50.5630 C   0  0  0  0  0  0  0  0  0  0  0  0
   34.1250   29.7770   49.4630 N   0  0  0  0  0  0  0  0  0  0  0  0
   37.7860   30.0850   51.5800 C   0  0  0  0  0  0  0  0  0  0  0  0
   37.8770   30.1900   47.3720 O   0  0  0  0  0  0  0  0  0  0  0  0
   40.9973   31.0264   44.0450 H   0  0  0  0  0  0  0  0  0  0  0  0
   37.5522   32.7757   45.9087 H   0  0  0  0  0  0  0  0  0  0  0  0
   35.4947   33.3303   43.9480 H   0  0  0  0  0  0  0  0  0  0  0  0
   35.2487   33.0294   41.3947 H   0  0  0  0  0  0  0  0  0  0  0  0
   39.0064   32.4610   40.4752 H   0  0  0  0  0  0  0  0  0  0  0  0
   40.0809   31.9015   38.3089 H   0  0  0  0  0  0  0  0  0  0  0  0
   41.8124   30.1116   38.2678 H   0  0  0  0  0  0  0  0  0  0  0  0
   42.0025   28.7310   42.9081 H   0  0  0  0  0  0  0  0  0  0  0  0
   42.8408   28.2714   41.3011 H   0  0  0  0  0  0  0  0  0  0  0  0
   36.9975   33.1480   50.6969 H   0  0  0  0  0  0  0  0  0  0  0  0
   38.7233   34.7077   49.8287 H   0  0  0  0  0  0  0  0  0  0  0  0
   40.0414   34.0832   47.7677 H   0  0  0  0  0  0  0  0  0  0  0  0
   34.8996   31.2054   48.1105 H   0  0  0  0  0  0  0  0  0  0  0  0
   33.5516   28.3689   50.9252 H   0  0  0  0  0  0  0  0  0  0  0  0
   37.5836   30.0685   52.6611 H   0  0  0  0  0  0  0  0  0  0  0  0
   38.4343   29.2367   51.3154 H   0  0  0  0  0  0  0  0  0  0  0  0
   38.2885   31.0270   51.3154 H   0  0  0  0  0  0  0  0  0  0  0  0
   38.4173   29.9871   46.5676 H   0  0  0  0  0  0  0  0  0  0  0  0
  1 24  1  0
  2  3  2  0
  3  1  1  0
  4  3  1  0
  5  4  2  0
  6  5  1  0
  7  6  1  0
  8  7  2  0
  8  9  1  0
  9 10  2  0
  9  5  1  0
 10  2  1  0
 11 12  2  0
 11 17  1  0
 12 10  1  0
 13 12  1  0
 14 13  2  0
 15 14  1  0
 15 16  2  0
 16 18  1  0
 16 11  1  0
 19 20  2  0
 20 26  1  0
 20 21  1  0
 22 21  2  0
 23 22  1  0
 24 19  1  0
 24 23  2  0
 25 30  2  0
 25 26  1  0
 26 27  2  0
 27 28  1  0
 27 31  1  0
 29 28  2  0
 30 29  1  0
 32 19  1  0
  2 33  1  0
  4 34  1  0
  6 35  1  0
  7 36  1  0
 13 37  1  0
 14 38  1  0
 15 39  1  0
 17 40  1  0
 18 41  1  0
 21 42  1  0
 22 43  1  0
 23 44  1  0
 25 45  1  0
 29 46  1  0
 31 47  1  0
 31 48  1  0
 31 49  1  0
 32 50  1  0
M  ISO  8  33  14  34  14  35   9  36  14  37  14  38  14  39  14  40   3
M  ISO  8  41   3  42  14  43  14  44  14  45  14  46  14  47   8  48   8
M  ISO  2  49   8  50   3
M  END
>  <minimizedAffinity>  (1) 
-8.34288979

>  <minimizedRMSD>  (1) 
1.29112685

$$$$
