
     RDKit          3D

 22 23  0  0  0  0  0  0  0  0999 V2000
   38.8810   31.8840   47.7680 C   0  0  0  0  0  0  0  0  0  0  0  0
   38.3540   32.1200   49.0210 C   0  0  0  0  0  0  0  0  0  0  0  0
   38.6790   33.3660   49.5580 C   0  0  0  0  0  0  0  0  0  0  0  0
   39.4730   34.2840   48.8630 C   0  0  0  0  0  0  0  0  0  0  0  0
   39.9580   33.9530   47.6020 C   0  0  0  0  0  0  0  0  0  0  0  0
   39.6550   32.7270   47.0430 C   0  0  0  0  0  0  0  0  0  0  0  0
   36.1980   30.9960   49.3710 C   0  0  0  0  0  0  0  0  0  0  0  0
   37.5400   31.1850   49.7380 C   0  0  0  0  0  0  0  0  0  0  0  0
   38.0310   30.4370   50.8140 C   0  0  0  0  0  0  0  0  0  0  0  0
   37.1790   29.5690   51.4370 N   0  0  0  0  0  0  0  0  0  0  0  0
   35.8910   29.4180   51.0470 C   0  0  0  0  0  0  0  0  0  0  0  0
   35.3980   30.1330   50.0110 N   0  0  0  0  0  0  0  0  0  0  0  0
   38.6070   30.6520   47.1450 O   0  0  0  0  0  0  0  0  0  0  0  0
   40.1550   32.4310   45.7840 O   0  0  0  0  0  0  0  0  0  0  0  0
   38.3003   33.6338   50.5555 H   0  0  0  0  0  0  0  0  0  0  0  0
   39.7121   35.2602   49.3101 H   0  0  0  0  0  0  0  0  0  0  0  0
   40.5839   34.6689   47.0491 H   0  0  0  0  0  0  0  0  0  0  0  0
   35.7900   31.5759   48.5300 H   0  0  0  0  0  0  0  0  0  0  0  0
   39.0733   30.5447   51.1488 H   0  0  0  0  0  0  0  0  0  0  0  0
   35.2403   28.7074   51.5778 H   0  0  0  0  0  0  0  0  0  0  0  0
   38.9740   30.4595   46.2459 H   0  0  0  0  0  0  0  0  0  0  0  0
   39.9512   31.5585   45.3630 H   0  0  0  0  0  0  0  0  0  0  0  0
  1  2  2  0
  2  3  1  0
  2  8  1  0
  4  3  2  0
  5  4  1  0
  6  5  2  0
  6  1  1  0
  7  8  2  0
  7 12  1  0
  8  9  1  0
  9 10  2  0
 11 10  1  0
 12 11  2  0
 13  1  1  0
 14  6  1  0
  3 15  1  0
  4 16  1  0
  5 17  1  0
  7 18  1  0
  9 19  1  0
 11 20  1  0
 13 21  1  0
 14 22  1  0
M  ISO  8  15  14  16  14  17  14  18  14  19  14  20  14  21   3  22   3
M  END
>  <minimizedAffinity>  (1) 
-5.40091276

>  <minimizedRMSD>  (1) 
2.84294152

$$$$
