
     RDKit          3D

 48 51  0  0  1  0  0  0  0  0999 V2000
   37.2790   29.2700   50.5580 C   0  0  0  0  0  0  0  0  0  0  0  0
   37.4280   30.6500   50.8350 C   0  0  0  0  0  0  0  0  0  0  0  0
   36.6710   31.5310   50.0740 C   0  0  0  0  0  0  0  0  0  0  0  0
   35.8430   31.0220   49.1210 N   0  0  0  0  0  0  0  0  0  0  0  0
   35.7320   29.7160   48.8940 C   0  0  0  0  0  0  0  0  0  0  0  0
   36.4490   28.8400   49.6100 N   0  0  0  0  0  0  0  0  0  0  0  0
   34.8510   29.2470   47.8880 N   0  0  0  0  0  0  0  0  0  0  0  0
   34.2280   27.9390   47.9730 C   0  0  0  0  0  0  0  0  0  0  0  0
   32.7460   28.0590   47.8210 C   0  0  0  0  0  0  0  0  0  0  0  0
   32.2720   29.2640   47.3470 N   0  0  0  0  0  0  0  0  0  0  0  0
   33.0930   30.1320   46.5420 C   0  0  0  0  0  0  0  0  0  0  0  0
   34.5280   30.0520   46.7270 C   0  0  2  0  0  0  0  0  0  0  0  0
   35.2550   29.4790   45.6010 N   0  0  0  0  0  0  0  0  0  0  0  0
   36.3720   30.3410   45.2060 C   0  0  0  0  0  0  0  0  0  0  0  0
   36.4760   30.2660   43.6930 C   0  0  0  0  0  0  0  0  0  0  0  0
   35.5190   29.1900   43.3480 C   0  0  0  0  0  0  0  0  0  0  0  0
   34.4510   29.2940   44.4550 C   0  0  1  0  0  0  0  0  0  0  0  0
   32.4340   27.9570   43.8180 C   0  0  0  0  0  0  0  0  0  0  0  0
   33.7400   28.0310   44.2920 C   0  0  0  0  0  0  0  0  0  0  0  0
   34.2700   26.7910   44.5570 C   0  0  0  0  0  0  0  0  0  0  0  0
   33.6240   25.5850   44.3890 C   0  0  0  0  0  0  0  0  0  0  0  0
   32.3290   25.5830   43.9160 C   0  0  0  0  0  0  0  0  0  0  0  0
   31.7270   26.7890   43.6270 C   0  0  0  0  0  0  0  0  0  0  0  0
   31.7280   29.1030   43.4930 O   0  0  0  0  0  0  0  0  0  0  0  0
   30.4400   26.7450   43.1580 O   0  0  0  0  0  0  0  0  0  0  0  0
   37.8607   28.5381   51.1376 H   0  0  0  0  0  0  0  0  0  0  0  0
   38.1126   31.0085   51.6178 H   0  0  0  0  0  0  0  0  0  0  0  0
   36.7390   32.6166   50.2378 H   0  0  0  0  0  0  0  0  0  0  0  0
   34.6238   27.2959   47.1731 H   0  0  0  0  0  0  0  0  0  0  0  0
   34.4522   27.4993   48.9560 H   0  0  0  0  0  0  0  0  0  0  0  0
   32.4166   27.2732   47.1252 H   0  0  0  0  0  0  0  0  0  0  0  0
   32.3404   27.9667   48.8393 H   0  0  0  0  0  0  0  0  0  0  0  0
   31.4385   29.0464   46.7823 H   0  0  0  0  0  0  0  0  0  0  0  0
   32.7896   31.1670   46.7579 H   0  0  0  0  0  0  0  0  0  0  0  0
   32.9235   29.7999   45.5071 H   0  0  0  0  0  0  0  0  0  0  0  0
   34.8430   31.0995   46.8431 H   0  0  0  0  0  0  0  0  0  0  0  0
   36.1793   31.3773   45.5207 H   0  0  0  0  0  0  0  0  0  0  0  0
   37.3084   30.0131   45.6809 H   0  0  0  0  0  0  0  0  0  0  0  0
   36.1837   31.2194   43.2286 H   0  0  0  0  0  0  0  0  0  0  0  0
   37.4980   30.0686   43.3373 H   0  0  0  0  0  0  0  0  0  0  0  0
   35.0756   29.3607   42.3559 H   0  0  0  0  0  0  0  0  0  0  0  0
   35.9893   28.1969   43.2966 H   0  0  0  0  0  0  0  0  0  0  0  0
   33.6871   30.0853   44.4730 H   0  0  0  0  0  0  0  0  0  0  0  0
   35.3017   26.7580   44.9371 H   0  0  0  0  0  0  0  0  0  0  0  0
   34.1333   24.6398   44.6284 H   0  0  0  0  0  0  0  0  0  0  0  0
   31.7864   24.6370   43.7720 H   0  0  0  0  0  0  0  0  0  0  0  0
   30.7994   29.0337   43.1569 H   0  0  0  0  0  0  0  0  0  0  0  0
   29.9849   25.8735   43.0420 H   0  0  0  0  0  0  0  0  0  0  0  0
  1  2  2  0
  3  2  1  0
  4  3  2  0
  5  4  1  0
  5  6  2  0
  6  1  1  0
  7  8  1  0
  7  5  1  0
  9  8  1  0
 10  9  1  0
 11 12  1  0
 11 10  1  0
 12  7  1  0
 13 14  1  0
 13 12  1  0
 15 14  1  0
 16 15  1  0
 16 17  1  0
 17 13  1  0
 18 19  2  0
 19 17  1  0
 19 20  1  0
 21 20  2  0
 22 21  1  0
 23 18  1  0
 23 22  2  0
 24 18  1  0
 25 23  1  0
  1 26  1  0
  2 27  1  0
  3 28  1  0
  8 29  1  0
  8 30  1  0
  9 31  1  0
  9 32  1  0
 10 33  1  0
 11 34  1  0
 11 35  1  0
 12 36  1  1
 14 37  1  0
 14 38  1  0
 15 39  1  0
 15 40  1  0
 16 41  1  0
 16 42  1  0
 17 43  1  6
 20 44  1  0
 21 45  1  0
 22 46  1  0
 24 47  1  0
 25 48  1  0
M  ISO  8  26  14  27  14  28  14  29  13  30  13  31  13  32  13  33   5
M  ISO  8  34  13  35  13  36  13  37  13  38  13  39  13  40  13  41  13
M  ISO  7  42  13  43  13  44  14  45  14  46  14  47   3  48   3
M  END
>  <minimizedAffinity>  (1) 
-4.79789066

>  <minimizedRMSD>  (1) 
0.857101083

$$$$
