
     RDKit          3D

 34 36  0  0  0  0  0  0  0  0999 V2000
   38.2930   31.7330   47.7160 C   0  0  0  0  0  0  0  0  0  0  0  0
   37.2980   31.5170   48.6400 C   0  0  0  0  0  0  0  0  0  0  0  0
   37.2270   32.4960   49.6450 C   0  0  0  0  0  0  0  0  0  0  0  0
   38.1030   33.5850   49.6790 C   0  0  0  0  0  0  0  0  0  0  0  0
   39.0790   33.7060   48.6870 C   0  0  0  0  0  0  0  0  0  0  0  0
   39.1740   32.7520   47.6800 C   0  0  0  0  0  0  0  0  0  0  0  0
   35.3760   30.3640   47.6610 C   0  0  0  0  0  0  0  0  0  0  0  0
   36.3990   30.4130   48.6170 C   0  0  0  0  0  0  0  0  0  0  0  0
   36.4810   29.3500   49.5170 C   0  0  0  0  0  0  0  0  0  0  0  0
   35.5660   28.3440   49.4040 N   0  0  0  0  0  0  0  0  0  0  0  0
   34.5990   28.3420   48.4650 C   0  0  0  0  0  0  0  0  0  0  0  0
   34.4950   29.3650   47.5760 N   0  0  0  0  0  0  0  0  0  0  0  0
   38.4420   30.8070   46.6720 O   0  0  0  0  0  0  0  0  0  0  0  0
   40.1570   32.9310   46.7320 O   0  0  0  0  0  0  0  0  0  0  0  0
   40.7370   31.3220   44.9420 C   0  0  0  0  0  0  0  0  0  0  0  0
   40.1290   32.4580   45.4500 C   0  0  0  0  0  0  0  0  0  0  0  0
   39.3830   33.2470   44.5690 C   0  0  0  0  0  0  0  0  0  0  0  0
   39.2440   32.9220   43.2290 C   0  0  0  0  0  0  0  0  0  0  0  0
   39.8500   31.7890   42.7250 C   0  0  0  0  0  0  0  0  0  0  0  0
   40.5800   31.0270   43.6110 C   0  0  0  0  0  0  0  0  0  0  0  0
   41.4590   30.5810   45.8470 O   0  0  0  0  0  0  0  0  0  0  0  0
   41.2090   29.8680   43.1250 O   0  0  0  0  0  0  0  0  0  0  0  0
   36.4599   32.4030   50.4279 H   0  0  0  0  0  0  0  0  0  0  0  0
   38.0246   34.3376   50.4774 H   0  0  0  0  0  0  0  0  0  0  0  0
   39.7742   34.5583   48.7026 H   0  0  0  0  0  0  0  0  0  0  0  0
   35.2946   31.1928   46.9424 H   0  0  0  0  0  0  0  0  0  0  0  0
   37.2594   29.3237   50.2938 H   0  0  0  0  0  0  0  0  0  0  0  0
   33.8873   27.5046   48.4177 H   0  0  0  0  0  0  0  0  0  0  0  0
   39.1499   30.9370   45.9923 H   0  0  0  0  0  0  0  0  0  0  0  0
   38.8913   34.1537   44.9514 H   0  0  0  0  0  0  0  0  0  0  0  0
   38.6498   33.5680   42.5660 H   0  0  0  0  0  0  0  0  0  0  0  0
   39.7547   31.5076   41.6659 H   0  0  0  0  0  0  0  0  0  0  0  0
   41.9209   29.7556   45.5545 H   0  0  0  0  0  0  0  0  0  0  0  0
   41.7406   29.2997   43.7370 H   0  0  0  0  0  0  0  0  0  0  0  0
  1  2  2  0
  2  3  1  0
  3  4  2  0
  5  4  1  0
  6  1  1  0
  6  5  2  0
  7  8  2  0
  8  2  1  0
  8  9  1  0
 10  9  2  0
 11 10  1  0
 12  7  1  0
 12 11  2  0
 13  1  1  0
 14  6  1  0
 15 16  2  0
 15 21  1  0
 16 14  1  0
 17 16  1  0
 18 17  2  0
 19 18  1  0
 19 20  2  0
 20 15  1  0
 22 20  1  0
  3 23  1  0
  4 24  1  0
  5 25  1  0
  7 26  1  0
  9 27  1  0
 11 28  1  0
 13 29  1  0
 17 30  1  0
 18 31  1  0
 19 32  1  0
 21 33  1  0
 22 34  1  0
M  ISO  8  23  14  24  14  25  14  26  14  27  14  28  14  29   3  30  14
M  ISO  4  31  14  32  14  33   3  34   3
M  END
>  <minimizedAffinity>  (1) 
-7.16541529

>  <minimizedRMSD>  (1) 
2.38668919

$$$$
