
     RDKit          3D

 47 51  0  0  1  0  0  0  0  0999 V2000
   38.6760   31.4710   43.7840 C   0  0  0  0  0  0  0  0  0  0  0  0
   39.7640   30.6550   43.6420 C   0  0  0  0  0  0  0  0  0  0  0  0
   40.4480   30.6950   42.4350 C   0  0  0  0  0  0  0  0  0  0  0  0
   39.9780   31.5610   41.4590 C   0  0  0  0  0  0  0  0  0  0  0  0
   38.8780   32.3870   41.6000 C   0  0  0  0  0  0  0  0  0  0  0  0
   38.2590   32.3030   42.7890 N   0  0  0  0  0  0  0  0  0  0  0  0
   37.9300   31.4860   45.0620 C   0  0  0  0  0  0  0  0  0  0  0  0
   36.9640   30.7500   45.2780 O   0  0  0  0  0  0  0  0  0  0  0  0
   38.4060   32.4310   46.0650 N   0  0  0  0  0  0  0  0  0  0  0  0
   38.5400   31.4030   48.3270 C   0  0  2  0  0  0  0  0  0  0  0  0
   38.8420   32.8490   48.4980 C   0  0  0  0  0  0  0  0  0  0  0  0
   37.8900   32.2790   47.4090 C   0  0  1  0  0  0  0  0  0  0  0  0
   35.9850   29.1820   49.8360 C   0  0  0  0  0  0  0  0  0  0  0  0
   36.2830   29.3060   51.2300 C   0  0  0  0  0  0  0  0  0  0  0  0
   37.3590   30.1640   51.6260 C   0  0  0  0  0  0  0  0  0  0  0  0
   38.0710   30.8380   50.6630 N   0  0  0  0  0  0  0  0  0  0  0  0
   37.7270   30.6680   49.3580 C   0  0  0  0  0  0  0  0  0  0  0  0
   36.7020   29.8570   48.9080 N   0  0  0  0  0  0  0  0  0  0  0  0
   38.4730   33.2490   40.5140 C   0  0  0  0  0  0  0  0  0  0  0  0
   37.9660   34.3590   40.8030 O   0  0  0  0  0  0  0  0  0  0  0  0
   38.6040   32.9410   39.1130 C   0  0  0  0  0  0  0  0  0  0  0  0
   37.7750   31.9600   38.5810 C   0  0  0  0  0  0  0  0  0  0  0  0
   37.7550   31.5340   37.2650 C   0  0  0  0  0  0  0  0  0  0  0  0
   38.6390   32.1320   36.3920 C   0  0  0  0  0  0  0  0  0  0  0  0
   38.6300   31.7290   35.1100 N   0  0  0  0  0  0  0  0  0  0  0  0
   39.4970   32.3140   34.2390 C   0  0  0  0  0  0  0  0  0  0  0  0
   40.3840   33.3130   34.6500 C   0  0  0  0  0  0  0  0  0  0  0  0
   40.3690   33.7120   35.9920 C   0  0  0  0  0  0  0  0  0  0  0  0
   39.4760   33.1090   36.8860 C   0  0  0  0  0  0  0  0  0  0  0  0
   39.4890   33.5280   38.2000 C   0  0  0  0  0  0  0  0  0  0  0  0
   40.0861   29.9896   44.4565 H   0  0  0  0  0  0  0  0  0  0  0  0
   41.3308   30.0628   42.2589 H   0  0  0  0  0  0  0  0  0  0  0  0
   40.5201   31.5932   40.5024 H   0  0  0  0  0  0  0  0  0  0  0  0
   39.0793   33.1735   45.8279 H   0  0  0  0  0  0  0  0  0  0  0  0
   39.1797   30.5171   48.2010 H   0  0  0  0  0  0  0  0  0  0  0  0
   38.4416   33.4082   49.3565 H   0  0  0  0  0  0  0  0  0  0  0  0
   39.7411   33.4822   48.5247 H   0  0  0  0  0  0  0  0  0  0  0  0
   36.8389   32.3844   47.1021 H   0  0  0  0  0  0  0  0  0  0  0  0
   35.1609   28.5283   49.5140 H   0  0  0  0  0  0  0  0  0  0  0  0
   35.6984   28.7544   51.9810 H   0  0  0  0  0  0  0  0  0  0  0  0
   37.6129   30.2823   52.6897 H   0  0  0  0  0  0  0  0  0  0  0  0
   37.0682   31.4769   39.2717 H   0  0  0  0  0  0  0  0  0  0  0  0
   37.0614   30.7494   36.9284 H   0  0  0  0  0  0  0  0  0  0  0  0
   39.4997   31.9930   33.1869 H   0  0  0  0  0  0  0  0  0  0  0  0
   41.0792   33.7760   33.9342 H   0  0  0  0  0  0  0  0  0  0  0  0
   41.0561   34.4962   36.3426 H   0  0  0  0  0  0  0  0  0  0  0  0
   40.1860   34.3137   38.5269 H   0  0  0  0  0  0  0  0  0  0  0  0
  1  7  1  0
  2  1  2  0
  3  2  1  0
  4  5  1  0
  4  3  2  0
  5  6  2  0
  6  1  1  0
  7  8  2  0
  7  9  1  0
  9 12  1  0
 10 11  1  0
 10 17  1  0
 12 10  1  0
 12 11  1  0
 13 14  2  0
 14 15  1  0
 16 15  2  0
 17 16  1  0
 18 17  2  0
 18 13  1  0
 19 20  2  0
 19  5  1  0
 21 19  1  0
 22 21  2  0
 23 22  1  0
 24 29  1  0
 24 23  2  0
 25 24  1  0
 26 27  1  0
 26 25  2  0
 27 28  2  0
 28 29  1  0
 29 30  2  0
 30 21  1  0
  2 31  1  0
  3 32  1  0
  4 33  1  0
  9 34  1  0
 10 35  1  6
 11 36  1  0
 11 37  1  0
 12 38  1  6
 13 39  1  0
 14 40  1  0
 15 41  1  0
 22 42  1  0
 23 43  1  0
 26 44  1  0
 27 45  1  0
 28 46  1  0
 30 47  1  0
M  ISO  8  31  14  32  14  33  14  35  13  36  13  37  13  38  13  39  14
M  ISO  8  40  14  41  14  42  14  43  14  44  14  45  14  46  14  47  14
M  END
>  <minimizedAffinity>  (1) 
-5.44057608

>  <minimizedRMSD>  (1) 
1.65365374

$$$$
