
     RDKit          3D

 34 37  0  0  0  0  0  0  0  0999 V2000
   38.4560   31.3360   47.9920 C   0  0  0  0  0  0  0  0  0  0  0  0
   38.8820   32.6280   48.0420 C   0  0  0  0  0  0  0  0  0  0  0  0
   39.5520   33.2880   47.0490 C   0  0  0  0  0  0  0  0  0  0  0  0
   39.8280   32.6070   45.8960 C   0  0  0  0  0  0  0  0  0  0  0  0
   39.3980   31.2970   45.8400 C   0  0  0  0  0  0  0  0  0  0  0  0
   38.7440   30.6920   46.8420 N   0  0  0  0  0  0  0  0  0  0  0  0
   39.6460   30.4870   44.6500 C   0  0  0  0  0  0  0  0  0  0  0  0
   40.5630   30.9250   43.7030 C   0  0  0  0  0  0  0  0  0  0  0  0
   40.8800   30.2470   42.5410 C   0  0  0  0  0  0  0  0  0  0  0  0
   40.2590   29.0590   42.2870 C   0  0  0  0  0  0  0  0  0  0  0  0
   40.5070   28.3320   41.1820 N   0  0  0  0  0  0  0  0  0  0  0  0
   39.8740   27.1510   40.9480 C   0  0  0  0  0  0  0  0  0  0  0  0
   38.9490   26.6340   41.8290 C   0  0  0  0  0  0  0  0  0  0  0  0
   38.6920   27.3770   42.9640 C   0  0  0  0  0  0  0  0  0  0  0  0
   39.3390   28.5850   43.2010 C   0  0  0  0  0  0  0  0  0  0  0  0
   39.0470   29.2880   44.3490 C   0  0  0  0  0  0  0  0  0  0  0  0
   37.2620   30.2010   51.3840 C   0  0  0  0  0  0  0  0  0  0  0  0
   38.0220   30.9120   50.4350 C   0  0  0  0  0  0  0  0  0  0  0  0
   37.7460   30.6730   49.0790 C   0  0  0  0  0  0  0  0  0  0  0  0
   36.7790   29.7900   48.7740 N   0  0  0  0  0  0  0  0  0  0  0  0
   36.0580   29.1160   49.6940 C   0  0  0  0  0  0  0  0  0  0  0  0
   36.3040   29.3290   50.9920 N   0  0  0  0  0  0  0  0  0  0  0  0
   38.6684   33.1910   48.9626 H   0  0  0  0  0  0  0  0  0  0  0  0
   39.8600   34.3365   47.1744 H   0  0  0  0  0  0  0  0  0  0  0  0
   40.3637   33.0778   45.0585 H   0  0  0  0  0  0  0  0  0  0  0  0
   41.0739   31.8807   43.8915 H   0  0  0  0  0  0  0  0  0  0  0  0
   41.6178   30.6568   41.8355 H   0  0  0  0  0  0  0  0  0  0  0  0
   40.1071   26.5927   40.0293 H   0  0  0  0  0  0  0  0  0  0  0  0
   38.4409   25.6774   41.6376 H   0  0  0  0  0  0  0  0  0  0  0  0
   37.9600   27.0056   43.6963 H   0  0  0  0  0  0  0  0  0  0  0  0
   38.3073   28.8743   45.0502 H   0  0  0  0  0  0  0  0  0  0  0  0
   37.4493   30.3563   52.4568 H   0  0  0  0  0  0  0  0  0  0  0  0
   38.8002   31.6256   50.7435 H   0  0  0  0  0  0  0  0  0  0  0  0
   35.2806   28.4030   49.3821 H   0  0  0  0  0  0  0  0  0  0  0  0
  1  2  2  0
  1 19  1  0
  3  2  1  0
  4  3  2  0
  5  4  1  0
  5  6  2  0
  6  1  1  0
  7  5  1  0
  8  7  2  0
  9  8  1  0
 10  9  2  0
 10 15  1  0
 11 10  1  0
 12 11  2  0
 12 13  1  0
 13 14  2  0
 14 15  1  0
 15 16  2  0
 16  7  1  0
 18 17  2  0
 19 18  1  0
 20 19  2  0
 20 21  1  0
 21 22  2  0
 22 17  1  0
  2 23  1  0
  3 24  1  0
  4 25  1  0
  8 26  1  0
  9 27  1  0
 12 28  1  0
 13 29  1  0
 14 30  1  0
 16 31  1  0
 17 32  1  0
 18 33  1  0
 21 34  1  0
M  ISO  8  23  14  24  14  25  14  26  14  27  14  28  14  29  14  30  14
M  ISO  4  31  14  32  14  33  14  34  14
M  END
>  <minimizedAffinity>  (1) 
-6.63755703

>  <minimizedRMSD>  (1) 
0.638668954

$$$$
