
     RDKit          3D

 48 53  0  0  0  0  0  0  0  0999 V2000
   37.2430   30.9060   49.7430 C   0  0  0  0  0  0  0  0  0  0  0  0
   37.4650   30.5730   51.0610 C   0  0  0  0  0  0  0  0  0  0  0  0
   36.6580   29.6550   51.6570 C   0  0  0  0  0  0  0  0  0  0  0  0
   35.6480   29.0780   50.9540 N   0  0  0  0  0  0  0  0  0  0  0  0
   35.4600   29.4190   49.6880 C   0  0  0  0  0  0  0  0  0  0  0  0
   36.2420   30.3290   49.0570 N   0  0  0  0  0  0  0  0  0  0  0  0
   34.3770   28.8040   48.9240 C   0  0  0  0  0  0  0  0  0  0  0  0
   34.5140   28.4980   47.5990 C   0  0  0  0  0  0  0  0  0  0  0  0
   33.5860   27.9220   46.7620 C   0  0  0  0  0  0  0  0  0  0  0  0
   32.3740   27.6340   47.3820 C   0  0  0  0  0  0  0  0  0  0  0  0
   31.4130   27.0650   46.6160 N   0  0  0  0  0  0  0  0  0  0  0  0
   30.1970   26.7420   47.1130 C   0  0  0  0  0  0  0  0  0  0  0  0
   29.9290   27.0050   48.4600 C   0  0  0  0  0  0  0  0  0  0  0  0
   30.9180   27.5860   49.2360 C   0  0  0  0  0  0  0  0  0  0  0  0
   32.1600   27.9140   48.7170 C   0  0  0  0  0  0  0  0  0  0  0  0
   33.1470   28.4960   49.4960 C   0  0  0  0  0  0  0  0  0  0  0  0
   39.2940   33.8680   48.9930 C   0  0  0  0  0  0  0  0  0  0  0  0
   39.6540   33.6540   47.6620 C   0  0  0  0  0  0  0  0  0  0  0  0
   39.1850   32.4840   47.0300 C   0  0  0  0  0  0  0  0  0  0  0  0
   38.4130   31.6570   47.7800 N   0  0  0  0  0  0  0  0  0  0  0  0
   38.0840   31.8880   49.0560 C   0  0  0  0  0  0  0  0  0  0  0  0
   38.5270   32.9960   49.6620 N   0  0  0  0  0  0  0  0  0  0  0  0
   39.4980   32.1630   45.6520 C   0  0  0  0  0  0  0  0  0  0  0  0
   40.5320   31.3440   45.2610 C   0  0  0  0  0  0  0  0  0  0  0  0
   40.7630   31.0880   43.9130 C   0  0  0  0  0  0  0  0  0  0  0  0
   39.9870   31.6290   42.9250 C   0  0  0  0  0  0  0  0  0  0  0  0
   40.1390   31.4360   41.6070 N   0  0  0  0  0  0  0  0  0  0  0  0
   39.3130   32.0200   40.6960 C   0  0  0  0  0  0  0  0  0  0  0  0
   38.2640   32.8500   41.0540 C   0  0  0  0  0  0  0  0  0  0  0  0
   38.0930   33.0600   42.4060 C   0  0  0  0  0  0  0  0  0  0  0  0
   38.9410   32.4580   43.3140 C   0  0  0  0  0  0  0  0  0  0  0  0
   38.7200   32.7060   44.6530 C   0  0  0  0  0  0  0  0  0  0  0  0
   38.2844   31.0435   51.6241 H   0  0  0  0  0  0  0  0  0  0  0  0
   36.8228   29.3792   52.7090 H   0  0  0  0  0  0  0  0  0  0  0  0
   35.4861   28.7423   47.1458 H   0  0  0  0  0  0  0  0  0  0  0  0
   33.7839   27.7090   45.7011 H   0  0  0  0  0  0  0  0  0  0  0  0
   29.4332   26.2810   46.4695 H   0  0  0  0  0  0  0  0  0  0  0  0
   28.9503   26.7549   48.8954 H   0  0  0  0  0  0  0  0  0  0  0  0
   30.7113   27.7933   50.2963 H   0  0  0  0  0  0  0  0  0  0  0  0
   32.9595   28.7127   50.5580 H   0  0  0  0  0  0  0  0  0  0  0  0
   39.6483   34.7744   49.5057 H   0  0  0  0  0  0  0  0  0  0  0  0
   40.2844   34.3760   47.1222 H   0  0  0  0  0  0  0  0  0  0  0  0
   41.1824   30.8871   46.0214 H   0  0  0  0  0  0  0  0  0  0  0  0
   41.5975   30.4285   43.6325 H   0  0  0  0  0  0  0  0  0  0  0  0
   39.4867   31.8238   39.6277 H   0  0  0  0  0  0  0  0  0  0  0  0
   37.6062   33.3142   40.3044 H   0  0  0  0  0  0  0  0  0  0  0  0
   37.2790   33.7087   42.7619 H   0  0  0  0  0  0  0  0  0  0  0  0
   37.8864   33.3659   44.9353 H   0  0  0  0  0  0  0  0  0  0  0  0
  1  2  2  0
  2  3  1  0
  4  3  2  0
  5  4  1  0
  6  5  2  0
  6  1  1  0
  7 16  1  0
  7  5  1  0
  8  7  2  0
  9 10  2  0
  9  8  1  0
 10 15  1  0
 11 12  2  0
 11 10  1  0
 12 13  1  0
 13 14  2  0
 15 14  1  0
 15 16  2  0
 17 22  2  0
 18 17  1  0
 19 18  2  0
 19 20  1  0
 20 21  2  0
 21 22  1  0
 21  1  1  0
 23 19  1  0
 24 23  2  0
 25 24  1  0
 26 31  1  0
 26 25  2  0
 27 26  1  0
 28 29  1  0
 28 27  2  0
 29 30  2  0
 30 31  1  0
 31 32  2  0
 32 23  1  0
  2 33  1  0
  3 34  1  0
  8 35  1  0
  9 36  1  0
 12 37  1  0
 13 38  1  0
 14 39  1  0
 16 40  1  0
 17 41  1  0
 18 42  1  0
 24 43  1  0
 25 44  1  0
 28 45  1  0
 29 46  1  0
 30 47  1  0
 32 48  1  0
M  ISO  8  33  14  34  14  35  14  36  14  37  14  38  14  39  14  40  14
M  ISO  8  41  14  42  14  43  14  44  14  45  14  46  14  47  14  48  14
M  END
>  <minimizedAffinity>  (1) 
-8.21805

>  <minimizedRMSD>  (1) 
0.622031093

$$$$
