
     RDKit          3D

 47 52  0  0  0  0  0  0  0  0999 V2000
   37.1390   29.5450   50.2260 C   0  0  0  0  0  0  0  0  0  0  0  0
   37.7760   28.9070   51.1040 O   0  0  0  0  0  0  0  0  0  0  0  0
   37.6940   30.6510   49.4890 C   0  0  0  0  0  0  0  0  0  0  0  0
   37.7360   31.8860   50.1320 C   0  0  0  0  0  0  0  0  0  0  0  0
   38.2680   32.9780   49.4470 C   0  0  0  0  0  0  0  0  0  0  0  0
   38.7180   32.7650   48.1770 N   0  0  0  0  0  0  0  0  0  0  0  0
   38.6680   31.5740   47.5820 C   0  0  0  0  0  0  0  0  0  0  0  0
   38.1570   30.5240   48.2390 N   0  0  0  0  0  0  0  0  0  0  0  0
   39.1610   31.3890   46.2230 C   0  0  0  0  0  0  0  0  0  0  0  0
   39.9320   32.3430   45.6100 C   0  0  0  0  0  0  0  0  0  0  0  0
   40.4370   32.2510   44.3330 C   0  0  0  0  0  0  0  0  0  0  0  0
   40.1400   31.1070   43.6240 C   0  0  0  0  0  0  0  0  0  0  0  0
   40.6440   31.0370   42.3790 N   0  0  0  0  0  0  0  0  0  0  0  0
   40.4090   29.9630   41.6120 C   0  0  0  0  0  0  0  0  0  0  0  0
   39.6380   28.9350   42.1360 C   0  0  0  0  0  0  0  0  0  0  0  0
   39.1180   29.0020   43.4180 C   0  0  0  0  0  0  0  0  0  0  0  0
   39.3580   30.1060   44.2090 C   0  0  0  0  0  0  0  0  0  0  0  0
   38.8710   30.2490   45.5020 C   0  0  0  0  0  0  0  0  0  0  0  0
   35.7740   29.1560   49.9340 C   0  0  0  0  0  0  0  0  0  0  0  0
   34.7160   29.6640   50.6040 C   0  0  0  0  0  0  0  0  0  0  0  0
   33.5590   29.0790   50.0730 C   0  0  0  0  0  0  0  0  0  0  0  0
   34.0080   28.2200   49.0750 C   0  0  0  0  0  0  0  0  0  0  0  0
   35.3110   28.3160   49.0490 O   0  0  0  0  0  0  0  0  0  0  0  0
   33.5520   26.4590   47.3710 C   0  0  0  0  0  0  0  0  0  0  0  0
   33.1080   27.4010   48.2600 C   0  0  0  0  0  0  0  0  0  0  0  0
   31.7570   27.6480   48.4510 C   0  0  0  0  0  0  0  0  0  0  0  0
   30.8590   26.9030   47.7060 C   0  0  0  0  0  0  0  0  0  0  0  0
   29.5140   26.9180   47.6750 N   0  0  0  0  0  0  0  0  0  0  0  0
   29.1250   26.0010   46.7820 N   0  0  0  0  0  0  0  0  0  0  0  0
   30.2240   25.4110   46.2540 C   0  0  0  0  0  0  0  0  0  0  0  0
   31.3460   25.9610   46.8190 C   0  0  0  0  0  0  0  0  0  0  0  0
   32.6860   25.7140   46.6260 C   0  0  0  0  0  0  0  0  0  0  0  0
   37.3574   31.9976   51.1587 H   0  0  0  0  0  0  0  0  0  0  0  0
   38.3227   33.9730   49.9129 H   0  0  0  0  0  0  0  0  0  0  0  0
   40.1649   33.2524   46.1834 H   0  0  0  0  0  0  0  0  0  0  0  0
   41.0499   33.0541   43.8979 H   0  0  0  0  0  0  0  0  0  0  0  0
   40.8172   29.8982   40.5926 H   0  0  0  0  0  0  0  0  0  0  0  0
   39.4353   28.0470   41.5193 H   0  0  0  0  0  0  0  0  0  0  0  0
   38.5110   28.1711   43.8069 H   0  0  0  0  0  0  0  0  0  0  0  0
   38.2555   29.4551   45.9501 H   0  0  0  0  0  0  0  0  0  0  0  0
   34.7560   30.4025   51.4182 H   0  0  0  0  0  0  0  0  0  0  0  0
   32.5182   29.2601   50.3796 H   0  0  0  0  0  0  0  0  0  0  0  0
   34.6341   26.2991   47.2548 H   0  0  0  0  0  0  0  0  0  0  0  0
   31.4117   28.4076   49.1678 H   0  0  0  0  0  0  0  0  0  0  0  0
   28.8976   27.5237   48.2354 H   0  0  0  0  0  0  0  0  0  0  0  0
   30.2175   24.6168   45.4929 H   0  0  0  0  0  0  0  0  0  0  0  0
   33.0392   24.9572   45.9101 H   0  0  0  0  0  0  0  0  0  0  0  0
  1  2  2  0
  3  4  2  0
  3  1  1  0
  5  4  1  0
  6  5  2  0
  7  6  1  0
  7  8  2  0
  8  3  1  0
  9  7  1  0
 10  9  2  0
 11 10  1  0
 12 17  1  0
 12 11  2  0
 13 12  1  0
 14 15  1  0
 14 13  2  0
 15 16  2  0
 16 17  1  0
 17 18  2  0
 18  9  1  0
 19  1  1  0
 19 20  2  0
 21 20  1  0
 22 21  2  0
 23 22  1  0
 23 19  1  0
 24 25  2  0
 25 26  1  0
 25 22  1  0
 27 26  2  0
 28 27  1  0
 29 28  1  0
 30 29  2  0
 30 31  1  0
 31 27  1  0
 32 31  2  0
 32 24  1  0
  4 33  1  0
  5 34  1  0
 10 35  1  0
 11 36  1  0
 14 37  1  0
 15 38  1  0
 16 39  1  0
 18 40  1  0
 20 41  1  0
 21 42  1  0
 24 43  1  0
 26 44  1  0
 28 45  1  0
 30 46  1  0
 32 47  1  0
M  END
>  <minimizedAffinity>  (1) 
-7.94666004

>  <minimizedRMSD>  (1) 
0.783924401

$$$$
