
     RDKit          3D

 53 57  0  0  0  0  0  0  0  0999 V2000
   34.8490   30.6480   49.8440 C   0  0  0  0  0  0  0  0  0  0  0  0
   34.5370   27.9220   50.0290 F   0  0  0  0  0  0  0  0  0  0  0  0
   34.4280   28.5120   48.8050 C   0  0  0  0  0  0  0  0  0  0  0  0
   34.5660   29.8830   48.5880 C   0  0  0  0  0  0  0  0  0  0  0  0
   34.4480   30.4260   47.3410 C   0  0  0  0  0  0  0  0  0  0  0  0
   34.1820   29.6150   46.2350 C   0  0  0  0  0  0  0  0  0  0  0  0
   34.0400   28.2440   46.4280 C   0  0  0  0  0  0  0  0  0  0  0  0
   34.1640   27.7160   47.6990 C   0  0  0  0  0  0  0  0  0  0  0  0
   34.0120   26.3500   47.8290 O   0  0  0  0  0  0  0  0  0  0  0  0
   32.8860   25.7570   47.2810 C   0  0  0  0  0  0  0  0  0  0  0  0
   33.1690   24.4980   46.7720 C   0  0  0  0  0  0  0  0  0  0  0  0
   32.1930   23.7190   46.1760 C   0  0  0  0  0  0  0  0  0  0  0  0
   30.9030   24.2030   46.0840 C   0  0  0  0  0  0  0  0  0  0  0  0
   29.9090   23.4880   45.5120 N   0  0  0  0  0  0  0  0  0  0  0  0
   28.6680   24.0380   45.4630 C   0  0  0  0  0  0  0  0  0  0  0  0
   28.3080   25.2970   45.9530 C   0  0  0  0  0  0  0  0  0  0  0  0
   29.3560   25.9880   46.5270 C   0  0  0  0  0  0  0  0  0  0  0  0
   30.6240   25.4550   46.5900 C   0  0  0  0  0  0  0  0  0  0  0  0
   31.5940   26.2350   47.1850 C   0  0  0  0  0  0  0  0  0  0  0  0
   36.5550   30.2580   50.3220 S   0  0  0  0  0  0  0  0  0  0  0  0
   38.7730   32.9730   48.3430 C   0  0  0  0  0  0  0  0  0  0  0  0
   39.1000   32.2700   47.1870 C   0  0  0  0  0  0  0  0  0  0  0  0
   38.6190   30.9860   47.0710 C   0  0  0  0  0  0  0  0  0  0  0  0
   37.8610   30.4900   48.0850 N   0  0  0  0  0  0  0  0  0  0  0  0
   37.5750   31.1790   49.1540 C   0  0  0  0  0  0  0  0  0  0  0  0
   38.0230   32.4690   49.3370 N   0  0  0  0  0  0  0  0  0  0  0  0
   39.8660   32.8900   46.2550 O   0  0  0  0  0  0  0  0  0  0  0  0
   39.9980   32.3180   44.9880 C   0  0  0  0  0  0  0  0  0  0  0  0
   40.6750   31.1660   44.6390 C   0  0  0  0  0  0  0  0  0  0  0  0
   40.6830   30.7790   43.3440 C   0  0  0  0  0  0  0  0  0  0  0  0
   40.0290   31.5290   42.4220 C   0  0  0  0  0  0  0  0  0  0  0  0
   39.3470   32.6960   42.7860 C   0  0  0  0  0  0  0  0  0  0  0  0
   39.3570   33.0550   44.0880 N   0  0  0  0  0  0  0  0  0  0  0  0
   38.6230   33.5190   41.7400 C   0  0  0  0  0  0  0  0  0  0  0  0
   34.1534   30.3413   50.6391 H   0  0  0  0  0  0  0  0  0  0  0  0
   34.7209   31.7289   49.6852 H   0  0  0  0  0  0  0  0  0  0  0  0
   34.5634   31.5116   47.2059 H   0  0  0  0  0  0  0  0  0  0  0  0
   34.0865   30.0520   45.2301 H   0  0  0  0  0  0  0  0  0  0  0  0
   33.8302   27.5842   45.5733 H   0  0  0  0  0  0  0  0  0  0  0  0
   34.1954   24.1090   46.8440 H   0  0  0  0  0  0  0  0  0  0  0  0
   32.4423   22.7238   45.7793 H   0  0  0  0  0  0  0  0  0  0  0  0
   27.8736   23.4380   44.9950 H   0  0  0  0  0  0  0  0  0  0  0  0
   27.2862   25.6989   45.8873 H   0  0  0  0  0  0  0  0  0  0  0  0
   29.1737   26.9893   46.9444 H   0  0  0  0  0  0  0  0  0  0  0  0
   31.3402   27.2298   47.5798 H   0  0  0  0  0  0  0  0  0  0  0  0
   39.1506   34.0007   48.4487 H   0  0  0  0  0  0  0  0  0  0  0  0
   38.8416   30.3774   46.1822 H   0  0  0  0  0  0  0  0  0  0  0  0
   41.1993   30.5729   45.4027 H   0  0  0  0  0  0  0  0  0  0  0  0
   41.2145   29.8650   43.0407 H   0  0  0  0  0  0  0  0  0  0  0  0
   40.0347   31.2140   41.3681 H   0  0  0  0  0  0  0  0  0  0  0  0
   37.9749   34.2557   42.2372 H   0  0  0  0  0  0  0  0  0  0  0  0
   39.3586   34.0426   41.1117 H   0  0  0  0  0  0  0  0  0  0  0  0
   38.0099   32.8562   41.1117 H   0  0  0  0  0  0  0  0  0  0  0  0
  1 20  1  0
  3  2  1  0
  4  3  2  0
  4  1  1  0
  5  4  1  0
  6  7  1  0
  6  5  2  0
  7  8  2  0
  8  9  1  0
  8  3  1  0
 10  9  1  0
 11 10  2  0
 12 11  1  0
 13 12  2  0
 13 18  1  0
 14 13  1  0
 15 14  2  0
 15 16  1  0
 16 17  2  0
 17 18  1  0
 18 19  2  0
 19 10  1  0
 21 26  2  0
 22 21  1  0
 23 22  2  0
 23 24  1  0
 24 25  2  0
 25 26  1  0
 25 20  1  0
 27 22  1  0
 28 27  1  0
 29 28  2  0
 30 29  1  0
 31 32  1  0
 31 30  2  0
 32 33  2  0
 33 28  1  0
 34 32  1  0
  1 35  1  0
  1 36  1  0
  5 37  1  0
  6 38  1  0
  7 39  1  0
 11 40  1  0
 12 41  1  0
 15 42  1  0
 16 43  1  0
 17 44  1  0
 19 45  1  0
 21 46  1  0
 23 47  1  0
 29 48  1  0
 30 49  1  0
 31 50  1  0
 34 51  1  0
 34 52  1  0
 34 53  1  0
M  ISO  8  35   8  36   8  37  14  38  14  39  14  40  14  41  14  42  14
M  ISO  8  43  14  44  14  45  14  46  14  47  14  48  14  49  14  50  14
M  ISO  3  51   8  52   8  53   8
M  END
>  <minimizedAffinity>  (1) 
-6.59185457

>  <minimizedRMSD>  (1) 
1.7434113

$$$$
