
     RDKit          3D

 35 38  0  0  0  0  0  0  0  0999 V2000
   38.0270   33.3740   49.5270 Cl  0  0  0  0  0  0  0  0  0  0  0  0
   38.4780   32.5000   48.0770 C   0  0  0  0  0  0  0  0  0  0  0  0
   38.0770   31.1930   47.8840 C   0  0  0  0  0  0  0  0  0  0  0  0
   38.4680   30.5690   46.7270 C   0  0  0  0  0  0  0  0  0  0  0  0
   39.2390   31.2080   45.7680 C   0  0  0  0  0  0  0  0  0  0  0  0
   39.6210   32.5230   46.0010 C   0  0  0  0  0  0  0  0  0  0  0  0
   40.5890   33.2780   44.7620 Cl  0  0  0  0  0  0  0  0  0  0  0  0
   39.2520   33.1820   47.1440 C   0  0  0  0  0  0  0  0  0  0  0  0
   39.5670   30.4040   44.5950 C   0  0  0  0  0  0  0  0  0  0  0  0
   40.5870   30.7990   43.7480 C   0  0  0  0  0  0  0  0  0  0  0  0
   40.9150   30.0540   42.6350 C   0  0  0  0  0  0  0  0  0  0  0  0
   40.2560   28.8940   42.3060 C   0  0  0  0  0  0  0  0  0  0  0  0
   40.5730   28.1680   41.2210 N   0  0  0  0  0  0  0  0  0  0  0  0
   39.8920   27.0390   40.9500 C   0  0  0  0  0  0  0  0  0  0  0  0
   38.8640   26.5650   41.7290 C   0  0  0  0  0  0  0  0  0  0  0  0
   38.5420   27.3160   42.8420 C   0  0  0  0  0  0  0  0  0  0  0  0
   39.2280   28.4880   43.1500 C   0  0  0  0  0  0  0  0  0  0  0  0
   38.8970   29.2430   44.2770 C   0  0  0  0  0  0  0  0  0  0  0  0
   37.0340   29.3890   51.0530 C   0  0  0  0  0  0  0  0  0  0  0  0
   37.8190   29.9720   50.0510 C   0  0  0  0  0  0  0  0  0  0  0  0
   37.2630   30.5790   48.9420 C   0  0  0  0  0  0  0  0  0  0  0  0
   35.8990   30.5840   48.8690 N   0  0  0  0  0  0  0  0  0  0  0  0
   35.1560   30.0190   49.8420 C   0  0  0  0  0  0  0  0  0  0  0  0
   35.7020   29.4370   50.9060 N   0  0  0  0  0  0  0  0  0  0  0  0
   38.1598   29.5273   46.5542 H   0  0  0  0  0  0  0  0  0  0  0  0
   39.5598   34.2234   47.3193 H   0  0  0  0  0  0  0  0  0  0  0  0
   41.1450   31.7216   43.9658 H   0  0  0  0  0  0  0  0  0  0  0  0
   41.7336   30.4008   41.9872 H   0  0  0  0  0  0  0  0  0  0  0  0
   40.1739   26.4641   40.0556 H   0  0  0  0  0  0  0  0  0  0  0  0
   38.3270   25.6380   41.4795 H   0  0  0  0  0  0  0  0  0  0  0  0
   37.7261   26.9813   43.4995 H   0  0  0  0  0  0  0  0  0  0  0  0
   38.0792   28.9015   44.9286 H   0  0  0  0  0  0  0  0  0  0  0  0
   37.4935   28.9087   51.9295 H   0  0  0  0  0  0  0  0  0  0  0  0
   38.9142   29.9458   50.1502 H   0  0  0  0  0  0  0  0  0  0  0  0
   34.0598   30.0402   49.7527 H   0  0  0  0  0  0  0  0  0  0  0  0
  2  1  1  0
  3  2  2  0
  3 21  1  0
  4  3  1  0
  5  6  1  0
  5  4  2  0
  6  8  2  0
  7  6  1  0
  8  2  1  0
  9  5  1  0
 10  9  2  0
 11 10  1  0
 12 11  2  0
 12 17  1  0
 13 12  1  0
 14 13  2  0
 14 15  1  0
 15 16  2  0
 16 17  1  0
 17 18  2  0
 18  9  1  0
 20 19  2  0
 21 20  1  0
 22 21  2  0
 22 23  1  0
 23 24  2  0
 24 19  1  0
  4 25  1  0
  8 26  1  0
 10 27  1  0
 11 28  1  0
 14 29  1  0
 15 30  1  0
 16 31  1  0
 18 32  1  0
 19 33  1  0
 20 34  1  0
 23 35  1  0
M  ISO  8  25  14  26  14  27  14  28  14  29  14  30  14  31  14  32  14
M  ISO  3  33  14  34  14  35  14
M  END
>  <minimizedAffinity>  (1) 
-7.40677977

>  <minimizedRMSD>  (1) 
0.688320994

$$$$
