
     RDKit          3D

 21 22  0  0  0  0  0  0  0  0999 V2000
   37.4730   30.2820   50.7680 C   0  0  0  0  0  0  0  0  0  0  0  0
   38.3560   31.2350   50.2600 C   0  0  0  0  0  0  0  0  0  0  0  0
   38.1270   31.7420   48.9690 C   0  0  0  0  0  0  0  0  0  0  0  0
   37.0510   31.2750   48.2770 N   0  0  0  0  0  0  0  0  0  0  0  0
   36.2100   30.3440   48.7990 C   0  0  0  0  0  0  0  0  0  0  0  0
   36.4300   29.8650   50.0260 N   0  0  0  0  0  0  0  0  0  0  0  0
   35.0840   29.8520   48.0790 N   0  0  0  0  0  0  0  0  0  0  0  0
   34.9890   29.9190   46.7420 C   0  0  0  0  0  0  0  0  0  0  0  0
   33.8410   29.4060   46.1390 C   0  0  0  0  0  0  0  0  0  0  0  0
   32.8540   28.8570   46.9040 C   0  0  0  0  0  0  0  0  0  0  0  0
   31.8190   28.3940   46.3790 O   0  0  0  0  0  0  0  0  0  0  0  0
   33.0030   28.8160   48.2480 N   0  0  0  0  0  0  0  0  0  0  0  0
   34.1180   29.3130   48.8520 C   0  0  0  0  0  0  0  0  0  0  0  0
   34.1460   29.2200   50.1040 O   0  0  0  0  0  0  0  0  0  0  0  0
   37.8160   29.8720   52.0410 O   0  0  0  0  0  0  0  0  0  0  0  0
   39.2126   31.5821   50.8565 H   0  0  0  0  0  0  0  0  0  0  0  0
   38.7981   32.4949   48.5300 H   0  0  0  0  0  0  0  0  0  0  0  0
   35.7934   30.3657   46.1392 H   0  0  0  0  0  0  0  0  0  0  0  0
   33.7312   29.4441   45.0452 H   0  0  0  0  0  0  0  0  0  0  0  0
   32.2584   28.4007   48.8260 H   0  0  0  0  0  0  0  0  0  0  0  0
   37.2640   29.1964   52.5090 H   0  0  0  0  0  0  0  0  0  0  0  0
  1 15  1  0
  2  1  2  0
  3  2  1  0
  4  5  1  0
  4  3  2  0
  5  6  2  0
  6  1  1  0
  7  5  1  0
  7 13  1  0
  8  7  1  0
  9  8  2  0
  9 10  1  0
 10 12  1  0
 11 10  2  0
 12 13  1  0
 13 14  2  0
  2 16  1  0
  3 17  1  0
  8 18  1  0
  9 19  1  0
 12 20  1  0
 15 21  1  0
M  ISO  6  16  14  17  14  18  14  19  14  20   9  21   3
M  END
>  <minimizedAffinity>  (1) 
-5.29890347

>  <minimizedRMSD>  (1) 
1.8629607

$$$$
