
     RDKit          3D

 30 32  0  0  0  0  0  0  0  0999 V2000
   35.8520   28.9440   49.3760 C   0  0  0  0  0  0  0  0  0  0  0  0
   35.9390   30.0870   48.5350 C   0  0  0  0  0  0  0  0  0  0  0  0
   35.1780   30.0890   47.3700 C   0  0  0  0  0  0  0  0  0  0  0  0
   34.3850   29.0030   47.0840 N   0  0  0  0  0  0  0  0  0  0  0  0
   34.3340   27.9240   47.9250 C   0  0  0  0  0  0  0  0  0  0  0  0
   35.0700   27.9000   49.0700 N   0  0  0  0  0  0  0  0  0  0  0  0
   31.4480   28.1570   49.1340 Br  0  0  0  0  0  0  0  0  0  0  0  0
   32.1930   26.7240   48.1010 C   0  0  0  0  0  0  0  0  0  0  0  0
   33.4950   26.7640   47.6310 C   0  0  0  0  0  0  0  0  0  0  0  0
   33.9520   25.6990   46.9000 C   0  0  0  0  0  0  0  0  0  0  0  0
   33.1850   24.5920   46.6080 C   0  0  0  0  0  0  0  0  0  0  0  0
   31.8830   24.5710   47.0870 C   0  0  0  0  0  0  0  0  0  0  0  0
   31.3940   25.6370   47.8310 C   0  0  0  0  0  0  0  0  0  0  0  0
   36.7690   31.1950   48.8590 N   0  0  0  0  0  0  0  0  0  0  0  0
   36.5590   32.1260   49.8080 C   0  0  0  0  0  0  0  0  0  0  0  0
   37.4910   33.1350   49.9730 C   0  0  0  0  0  0  0  0  0  0  0  0
   38.6240   33.1970   49.1810 C   0  0  0  0  0  0  0  0  0  0  0  0
   39.4720   34.1280   49.3410 O   0  0  0  0  0  0  0  0  0  0  0  0
   38.7850   32.2380   48.2460 N   0  0  0  0  0  0  0  0  0  0  0  0
   37.8840   31.2550   48.0810 C   0  0  0  0  0  0  0  0  0  0  0  0
   38.1730   30.4260   47.1600 O   0  0  0  0  0  0  0  0  0  0  0  0
   36.4429   28.9160   50.3034 H   0  0  0  0  0  0  0  0  0  0  0  0
   35.2106   30.9497   46.6857 H   0  0  0  0  0  0  0  0  0  0  0  0
   34.9862   25.7293   46.5264 H   0  0  0  0  0  0  0  0  0  0  0  0
   33.5896   23.7567   46.0176 H   0  0  0  0  0  0  0  0  0  0  0  0
   31.2356   23.7069   46.8767 H   0  0  0  0  0  0  0  0  0  0  0  0
   30.3606   25.6120   48.2070 H   0  0  0  0  0  0  0  0  0  0  0  0
   35.6610   32.0853   50.4420 H   0  0  0  0  0  0  0  0  0  0  0  0
   37.3288   33.9003   50.7463 H   0  0  0  0  0  0  0  0  0  0  0  0
   39.6199   32.2599   47.6432 H   0  0  0  0  0  0  0  0  0  0  0  0
  2 14  1  0
  2  1  2  0
  3  2  1  0
  4  3  2  0
  4  5  1  0
  5  6  2  0
  6  1  1  0
  8  7  1  0
  9  5  1  0
  9  8  2  0
 10  9  1  0
 11 10  2  0
 11 12  1  0
 12 13  2  0
 13  8  1  0
 14 15  1  0
 15 16  2  0
 17 18  2  0
 17 16  1  0
 19 17  1  0
 20 19  1  0
 20 14  1  0
 21 20  2  0
  1 22  1  0
  3 23  1  0
 10 24  1  0
 11 25  1  0
 12 26  1  0
 13 27  1  0
 15 28  1  0
 16 29  1  0
 19 30  1  0
M  ISO  8  22  14  23  14  24  14  25  14  26  14  27  14  28  14  29  14
M  ISO  1  30   9
M  END
>  <minimizedAffinity>  (1) 
-5.17639875

>  <minimizedRMSD>  (1) 
4.62340212

$$$$
