
     RDKit          3D

 37 39  0  0  0  0  0  0  0  0999 V2000
   37.3180   30.0170   51.6780 C   0  0  0  0  0  0  0  0  0  0  0  0
   38.0650   30.7360   50.7080 C   0  0  0  0  0  0  0  0  0  0  0  0
   37.5220   30.8310   49.3890 C   0  0  0  0  0  0  0  0  0  0  0  0
   36.3270   30.2220   49.1650 N   0  0  0  0  0  0  0  0  0  0  0  0
   35.6650   29.5580   50.1140 C   0  0  0  0  0  0  0  0  0  0  0  0
   36.1640   29.4600   51.3600 N   0  0  0  0  0  0  0  0  0  0  0  0
   38.2360   31.5430   48.3840 N   0  0  0  0  0  0  0  0  0  0  0  0
   38.5720   30.7460   47.3440 C   0  0  0  0  0  0  0  0  0  0  0  0
   39.2800   31.3140   46.2790 C   0  0  0  0  0  0  0  0  0  0  0  0
   39.6010   32.6420   46.3320 C   0  0  0  0  0  0  0  0  0  0  0  0
   40.2280   33.2420   45.4380 O   0  0  0  0  0  0  0  0  0  0  0  0
   39.2460   33.4050   47.3910 N   0  0  0  0  0  0  0  0  0  0  0  0
   38.5650   32.8490   48.4100 C   0  0  0  0  0  0  0  0  0  0  0  0
   38.1510   33.3860   49.4690 O   0  0  0  0  0  0  0  0  0  0  0  0
   34.4090   28.9670   49.7180 C   0  0  0  0  0  0  0  0  0  0  0  0
   34.4030   28.0740   48.7870 C   0  0  0  0  0  0  0  0  0  0  0  0
   33.2510   27.3480   48.2320 C   0  0  0  0  0  0  0  0  0  0  0  0
   33.6480   26.3870   47.1560 C   0  0  0  0  0  0  0  0  0  0  0  0
   33.8830   25.0440   47.3150 C   0  0  0  0  0  0  0  0  0  0  0  0
   34.2440   24.2530   46.2450 C   0  0  0  0  0  0  0  0  0  0  0  0
   34.3830   24.7920   44.9600 C   0  0  0  0  0  0  0  0  0  0  0  0
   34.1530   26.1250   44.7800 C   0  0  0  0  0  0  0  0  0  0  0  0
   33.7920   26.9040   45.8660 C   0  0  0  0  0  0  0  0  0  0  0  0
   37.7042   29.9232   52.7037 H   0  0  0  0  0  0  0  0  0  0  0  0
   39.0277   31.2035   50.9625 H   0  0  0  0  0  0  0  0  0  0  0  0
   38.2964   29.6811   47.3357 H   0  0  0  0  0  0  0  0  0  0  0  0
   39.5735   30.7021   45.4133 H   0  0  0  0  0  0  0  0  0  0  0  0
   39.4950   34.4041   47.4173 H   0  0  0  0  0  0  0  0  0  0  0  0
   33.4705   29.2736   50.2031 H   0  0  0  0  0  0  0  0  0  0  0  0
   35.3828   27.8243   48.3539 H   0  0  0  0  0  0  0  0  0  0  0  0
   32.7619   26.7883   49.0429 H   0  0  0  0  0  0  0  0  0  0  0  0
   32.5704   28.0885   47.7865 H   0  0  0  0  0  0  0  0  0  0  0  0
   33.7816   24.5914   48.3124 H   0  0  0  0  0  0  0  0  0  0  0  0
   34.4260   23.1798   46.4035 H   0  0  0  0  0  0  0  0  0  0  0  0
   34.6719   24.1533   44.1123 H   0  0  0  0  0  0  0  0  0  0  0  0
   34.2535   26.5761   43.7818 H   0  0  0  0  0  0  0  0  0  0  0  0
   33.6106   27.9771   45.7063 H   0  0  0  0  0  0  0  0  0  0  0  0
  2  1  2  0
  3  2  1  0
  4  3  2  0
  4  5  1  0
  5  6  2  0
  6  1  1  0
  7 13  1  0
  7  3  1  0
  8  7  1  0
  9 10  1  0
  9  8  2  0
 10 12  1  0
 11 10  2  0
 12 13  1  0
 13 14  2  0
 15  5  1  0
 16 15  2  0
 17 16  1  0
 18 19  2  0
 18 17  1  0
 20 19  1  0
 21 20  2  0
 22 21  1  0
 22 23  2  0
 23 18  1  0
  1 24  1  0
  2 25  1  0
  8 26  1  0
  9 27  1  0
 12 28  1  0
 15 29  1  0
 16 30  1  0
 17 31  1  0
 17 32  1  0
 19 33  1  0
 20 34  1  0
 21 35  1  0
 22 36  1  0
 23 37  1  0
M  ISO  8  24  14  25  14  26  14  27  14  28   9  31   8  32   8  33  14
M  ISO  4  34  14  35  14  36  14  37  14
M  END
>  <minimizedAffinity>  (1) 
-7.25097561

>  <minimizedRMSD>  (1) 
0.838852465

$$$$
