
     RDKit          3D

 42 45  0  0  1  0  0  0  0  0999 V2000
   38.1610   32.3830   46.5610 O   0  0  0  0  0  0  0  0  0  0  0  0
   38.9180   32.4820   47.6820 C   0  0  2  0  0  0  0  0  0  0  0  0
   38.0490   32.7680   48.9520 C   0  0  2  0  0  0  0  0  0  0  0  0
   39.0120   33.4650   49.7870 C   0  0  0  0  0  0  0  0  0  0  0  0
   39.8190   34.2430   48.9670 O   0  0  0  0  0  0  0  0  0  0  0  0
   39.6270   33.8640   47.6800 C   0  0  0  0  0  0  0  0  0  0  0  0
   37.3750   29.6330   50.9170 C   0  0  0  0  0  0  0  0  0  0  0  0
   38.0520   30.8030   50.4670 C   0  0  0  0  0  0  0  0  0  0  0  0
   37.4140   31.5800   49.4550 C   0  0  0  0  0  0  0  0  0  0  0  0
   36.1910   31.1740   48.9610 N   0  0  0  0  0  0  0  0  0  0  0  0
   35.6040   30.0630   49.4230 C   0  0  0  0  0  0  0  0  0  0  0  0
   36.1670   29.2920   50.3840 N   0  0  0  0  0  0  0  0  0  0  0  0
   40.4030   32.3280   44.4440 Cl  0  0  0  0  0  0  0  0  0  0  0  0
   38.9560   31.3560   44.4060 C   0  0  0  0  0  0  0  0  0  0  0  0
   38.1020   31.5750   45.4810 C   0  0  0  0  0  0  0  0  0  0  0  0
   36.9430   30.8150   45.4600 C   0  0  0  0  0  0  0  0  0  0  0  0
   36.6620   29.9140   44.4480 C   0  0  0  0  0  0  0  0  0  0  0  0
   37.5450   29.7470   43.4200 C   0  0  0  0  0  0  0  0  0  0  0  0
   38.7010   30.4740   43.3980 C   0  0  0  0  0  0  0  0  0  0  0  0
   39.6780   30.3630   42.3650 N   0  0  0  0  0  0  0  0  0  0  0  0
   40.5560   29.3550   42.5560 C   0  0  0  0  0  0  0  0  0  0  0  0
   41.5550   29.1340   41.6310 C   0  0  0  0  0  0  0  0  0  0  0  0
   41.7020   29.9140   40.4930 C   0  0  0  0  0  0  0  0  0  0  0  0
   42.6010   29.7420   39.6270 O   0  0  0  0  0  0  0  0  0  0  0  0
   40.7790   30.9020   40.3800 N   0  0  0  0  0  0  0  0  0  0  0  0
   39.8000   31.1260   41.2760 C   0  0  0  0  0  0  0  0  0  0  0  0
   38.9600   32.0350   41.1600 O   0  0  0  0  0  0  0  0  0  0  0  0
   39.5221   31.5628   47.6971 H   0  0  0  0  0  0  0  0  0  0  0  0
   37.1465   33.3830   48.8204 H   0  0  0  0  0  0  0  0  0  0  0  0
   38.4837   34.1077   50.5066 H   0  0  0  0  0  0  0  0  0  0  0  0
   39.6246   32.7407   50.3439 H   0  0  0  0  0  0  0  0  0  0  0  0
   40.5966   33.7844   47.1666 H   0  0  0  0  0  0  0  0  0  0  0  0
   39.0102   34.6069   47.1530 H   0  0  0  0  0  0  0  0  0  0  0  0
   37.8280   29.0029   51.6966 H   0  0  0  0  0  0  0  0  0  0  0  0
   39.0274   31.0954   50.8831 H   0  0  0  0  0  0  0  0  0  0  0  0
   34.6299   29.7657   49.0074 H   0  0  0  0  0  0  0  0  0  0  0  0
   36.2186   30.9326   46.2794 H   0  0  0  0  0  0  0  0  0  0  0  0
   35.7283   29.3330   44.4717 H   0  0  0  0  0  0  0  0  0  0  0  0
   37.3265   29.0309   42.6141 H   0  0  0  0  0  0  0  0  0  0  0  0
   40.4749   28.7129   43.4454 H   0  0  0  0  0  0  0  0  0  0  0  0
   42.2616   28.3085   41.8019 H   0  0  0  0  0  0  0  0  0  0  0  0
   40.8308   31.5192   39.5570 H   0  0  0  0  0  0  0  0  0  0  0  0
  1  2  1  0
  2  3  1  0
  3  9  1  0
  3  4  1  0
  5  4  1  0
  6  2  1  0
  6  5  1  0
  8  7  2  0
  9  8  1  0
 10 11  1  0
 10  9  2  0
 11 12  2  0
 12  7  1  0
 14 13  1  0
 14 15  2  0
 15  1  1  0
 16 15  1  0
 17 16  2  0
 18 17  1  0
 19 18  2  0
 19 14  1  0
 20 21  1  0
 20 19  1  0
 22 21  2  0
 23 22  1  0
 24 23  2  0
 25 23  1  0
 25 26  1  0
 26 20  1  0
 27 26  2  0
  2 28  1  1
  3 29  1  6
  4 30  1  0
  4 31  1  0
  6 32  1  0
  6 33  1  0
  7 34  1  0
  8 35  1  0
 11 36  1  0
 16 37  1  0
 17 38  1  0
 18 39  1  0
 21 40  1  0
 22 41  1  0
 25 42  1  0
M  ISO  8  28  13  29  13  30  13  31  13  32  13  33  13  34  14  35  14
M  ISO  7  36  14  37  14  38  14  39  14  40  14  41  14  42   9
M  END
>  <minimizedAffinity>  (1) 
-6.47039747

>  <minimizedRMSD>  (1) 
1.3473897

$$$$
