
     RDKit          3D

 39 41  0  0  0  0  0  0  0  0999 V2000
   33.9870   28.2720   46.0460 C   0  0  0  0  0  0  0  0  0  0  0  0
   34.3160   28.1330   47.3560 C   0  0  0  0  0  0  0  0  0  0  0  0
   33.7880   27.0780   48.0930 C   0  0  0  0  0  0  0  0  0  0  0  0
   32.9250   26.1510   47.5370 C   0  0  0  0  0  0  0  0  0  0  0  0
   32.5710   26.2650   46.2250 C   0  0  0  0  0  0  0  0  0  0  0  0
   33.1090   27.3140   45.5280 C   0  0  0  0  0  0  0  0  0  0  0  0
   36.3010   31.1610   47.9930 C   0  0  0  0  0  0  0  0  0  0  0  0
   35.4730   30.2300   47.3850 C   0  0  0  0  0  0  0  0  0  0  0  0
   35.1600   29.0690   48.0200 C   0  0  0  0  0  0  0  0  0  0  0  0
   35.6870   28.8760   49.2610 N   0  0  0  0  0  0  0  0  0  0  0  0
   36.4840   29.7720   49.8530 C   0  0  0  0  0  0  0  0  0  0  0  0
   36.7860   30.9080   49.2140 N   0  0  0  0  0  0  0  0  0  0  0  0
   36.9310   29.4650   51.2360 C   0  0  0  0  0  0  0  0  0  0  0  0
   37.4050   30.5850   51.8900 F   0  0  0  0  0  0  0  0  0  0  0  0
   35.7750   29.1130   52.0300 F   0  0  0  0  0  0  0  0  0  0  0  0
   37.7340   28.4370   51.3920 F   0  0  0  0  0  0  0  0  0  0  0  0
   34.6130   29.5100   45.0230 S   0  0  0  0  0  0  0  0  0  0  0  0
   33.8700   30.7810   45.2140 O   0  0  0  0  0  0  0  0  0  0  0  0
   33.9170   29.0950   43.7440 O   0  0  0  0  0  0  0  0  0  0  0  0
   36.0490   29.5160   44.1410 C   0  0  0  0  0  0  0  0  0  0  0  0
   37.0280   30.5110   44.3870 N   0  0  0  0  0  0  0  0  0  0  0  0
   38.1410   30.3740   45.1480 C   0  0  0  0  0  0  0  0  0  0  0  0
   39.0680   31.3750   45.3570 C   0  0  0  0  0  0  0  0  0  0  0  0
   38.8270   32.5910   44.7410 C   0  0  0  0  0  0  0  0  0  0  0  0
   39.6700   33.4870   44.9380 O   0  0  0  0  0  0  0  0  0  0  0  0
   37.7170   32.7480   43.9740 N   0  0  0  0  0  0  0  0  0  0  0  0
   36.8730   31.7390   43.8200 C   0  0  0  0  0  0  0  0  0  0  0  0
   35.8580   31.9760   43.0830 O   0  0  0  0  0  0  0  0  0  0  0  0
   34.0659   26.9777   49.1526 H   0  0  0  0  0  0  0  0  0  0  0  0
   32.5271   25.3279   48.1487 H   0  0  0  0  0  0  0  0  0  0  0  0
   31.8857   25.5482   45.7490 H   0  0  0  0  0  0  0  0  0  0  0  0
   32.8263   27.4117   44.4694 H   0  0  0  0  0  0  0  0  0  0  0  0
   36.5566   32.0981   47.4768 H   0  0  0  0  0  0  0  0  0  0  0  0
   35.0668   30.4317   46.3829 H   0  0  0  0  0  0  0  0  0  0  0  0
   35.7698   29.6007   43.0804 H   0  0  0  0  0  0  0  0  0  0  0  0
   36.5458   28.5882   44.4608 H   0  0  0  0  0  0  0  0  0  0  0  0
   38.3171   29.4014   45.6307 H   0  0  0  0  0  0  0  0  0  0  0  0
   39.9573   31.2139   45.9841 H   0  0  0  0  0  0  0  0  0  0  0  0
   37.5320   33.6503   43.5129 H   0  0  0  0  0  0  0  0  0  0  0  0
  1  2  1  0
  2  9  1  0
  2  3  2  0
  4  3  1  0
  5  4  2  0
  6  1  2  0
  6  5  1  0
  7 12  2  0
  8  7  1  0
  8  9  2  0
  9 10  1  0
 10 11  2  0
 11 13  1  0
 12 11  1  0
 13 16  1  0
 13 14  1  0
 13 15  1  0
 17 18  2  0
 17  1  1  0
 19 17  2  0
 20 21  1  0
 20 17  1  0
 21 22  1  0
 22 23  2  0
 24 25  2  0
 24 23  1  0
 26 24  1  0
 27 26  1  0
 27 21  1  0
 28 27  2  0
  3 29  1  0
  4 30  1  0
  5 31  1  0
  6 32  1  0
  7 33  1  0
  8 34  1  0
 20 35  1  0
 20 36  1  0
 22 37  1  0
 23 38  1  0
 26 39  1  0
M  ISO  8  29  14  30  14  31  14  32  14  33  14  34  14  35   8  36   8
M  ISO  3  37  14  38  14  39   9
M  END
>  <minimizedAffinity>  (1) 
-5.69505978

>  <minimizedRMSD>  (1) 
4.83249331

$$$$
