
     RDKit          3D

 21 22  0  0  0  0  0  0  0  0999 V2000
   34.0130   29.1050   49.6950 S   0  0  0  0  0  0  0  0  0  0  0  0
   33.8790   26.4350   46.7970 N   0  0  0  0  0  0  0  0  0  0  0  0
   33.9650   27.0880   47.9880 C   0  0  0  0  0  0  0  0  0  0  0  0
   33.8730   28.4730   48.0290 C   0  0  0  0  0  0  0  0  0  0  0  0
   33.6940   29.1930   46.8620 C   0  0  0  0  0  0  0  0  0  0  0  0
   33.6270   30.4420   47.0400 O   0  0  0  0  0  0  0  0  0  0  0  0
   33.6130   28.5200   45.6980 N   0  0  0  0  0  0  0  0  0  0  0  0
   33.7030   27.1910   45.6790 C   0  0  0  0  0  0  0  0  0  0  0  0
   33.6230   26.5900   44.5640 O   0  0  0  0  0  0  0  0  0  0  0  0
   37.4460   30.0470   51.4530 C   0  0  0  0  0  0  0  0  0  0  0  0
   38.0880   30.8870   50.5470 C   0  0  0  0  0  0  0  0  0  0  0  0
   37.4450   31.1830   49.3400 C   0  0  0  0  0  0  0  0  0  0  0  0
   36.2090   30.6310   49.1060 N   0  0  0  0  0  0  0  0  0  0  0  0
   35.6180   29.8160   50.0150 C   0  0  0  0  0  0  0  0  0  0  0  0
   36.2320   29.5270   51.1790 N   0  0  0  0  0  0  0  0  0  0  0  0
   33.9446   25.4085   46.7438 H   0  0  0  0  0  0  0  0  0  0  0  0
   34.1074   26.5186   48.9183 H   0  0  0  0  0  0  0  0  0  0  0  0
   33.4806   29.0364   44.8167 H   0  0  0  0  0  0  0  0  0  0  0  0
   37.9365   29.8037   52.4071 H   0  0  0  0  0  0  0  0  0  0  0  0
   39.0782   31.3084   50.7749 H   0  0  0  0  0  0  0  0  0  0  0  0
   37.9177   31.8417   48.5966 H   0  0  0  0  0  0  0  0  0  0  0  0
  1 14  1  0
  2  3  1  0
  3  4  2  0
  4  1  1  0
  5  6  2  0
  5  4  1  0
  7  5  1  0
  8  7  1  0
  8  2  1  0
  9  8  2  0
 11 10  2  0
 12 11  1  0
 13 12  2  0
 13 14  1  0
 14 15  2  0
 15 10  1  0
  2 16  1  0
  3 17  1  0
  7 18  1  0
 10 19  1  0
 11 20  1  0
 12 21  1  0
M  ISO  6  16   9  17  14  18   9  19  14  20  14  21  14
M  END
>  <minimizedAffinity>  (1) 
-3.90465569

>  <minimizedRMSD>  (1) 
3.30497193

$$$$
