
     RDKit          3D

 34 36  0  0  1  0  0  0  0  0999 V2000
   32.4170   27.3920   48.7220 C   0  0  2  0  0  0  0  0  0  0  0  0
   33.8280   27.4510   48.1570 C   0  0  1  0  0  0  0  0  0  0  0  0
   33.8460   26.7420   46.9930 O   0  0  0  0  0  0  0  0  0  0  0  0
   32.5570   26.4080   46.6460 C   0  0  0  0  0  0  0  0  0  0  0  0
   31.6350   27.3690   47.4160 C   0  0  1  0  0  0  0  0  0  0  0  0
   32.1340   28.5210   49.4850 O   0  0  0  0  0  0  0  0  0  0  0  0
   34.1490   29.2110   47.7570 S   0  0  0  0  0  0  0  0  0  0  0  0
   36.5630   29.5890   50.8800 C   0  0  0  0  0  0  0  0  0  0  0  0
   37.3090   30.7420   50.6190 C   0  0  0  0  0  0  0  0  0  0  0  0
   37.0520   31.4340   49.4160 C   0  0  0  0  0  0  0  0  0  0  0  0
   36.1010   30.9440   48.5900 N   0  0  0  0  0  0  0  0  0  0  0  0
   35.3970   29.8280   48.8720 C   0  0  0  0  0  0  0  0  0  0  0  0
   35.6210   29.1510   50.0070 N   0  0  0  0  0  0  0  0  0  0  0  0
   30.3870   26.8160   47.5440 O   0  0  0  0  0  0  0  0  0  0  0  0
   28.0550   27.8610   44.8900 N   0  0  0  0  0  0  0  0  0  0  0  0
   29.2380   27.4990   45.4080 C   0  0  0  0  0  0  0  0  0  0  0  0
   29.3190   27.2080   46.7520 C   0  0  0  0  0  0  0  0  0  0  0  0
   28.1680   27.2980   47.5370 C   0  0  0  0  0  0  0  0  0  0  0  0
   28.0530   27.0700   48.7740 O   0  0  0  0  0  0  0  0  0  0  0  0
   26.9730   27.6660   46.9920 N   0  0  0  0  0  0  0  0  0  0  0  0
   26.9360   27.9460   45.6570 C   0  0  0  0  0  0  0  0  0  0  0  0
   25.8750   28.2920   45.0830 O   0  0  0  0  0  0  0  0  0  0  0  0
   32.2060   26.5555   49.4044 H   0  0  0  0  0  0  0  0  0  0  0  0
   34.5709   27.0480   48.8611 H   0  0  0  0  0  0  0  0  0  0  0  0
   32.4117   26.5285   45.5623 H   0  0  0  0  0  0  0  0  0  0  0  0
   32.3366   25.3596   46.8955 H   0  0  0  0  0  0  0  0  0  0  0  0
   31.4371   28.3576   46.9761 H   0  0  0  0  0  0  0  0  0  0  0  0
   32.1913   28.2923   50.4465 H   0  0  0  0  0  0  0  0  0  0  0  0
   36.7426   29.0274   51.8086 H   0  0  0  0  0  0  0  0  0  0  0  0
   38.0711   31.0982   51.3277 H   0  0  0  0  0  0  0  0  0  0  0  0
   37.6099   32.3463   49.1580 H   0  0  0  0  0  0  0  0  0  0  0  0
   27.9928   28.0802   43.8855 H   0  0  0  0  0  0  0  0  0  0  0  0
   30.1309   27.4354   44.7687 H   0  0  0  0  0  0  0  0  0  0  0  0
   26.1236   27.7306   47.5710 H   0  0  0  0  0  0  0  0  0  0  0  0
  1  6  1  0
  2  1  1  0
  3  2  1  0
  4  3  1  0
  4  5  1  0
  5 14  1  0
  5  1  1  0
  7  2  1  0
  7 12  1  0
  9  8  2  0
 10  9  1  0
 11 12  1  0
 11 10  2  0
 12 13  2  0
 13  8  1  0
 15 16  1  0
 15 21  1  0
 16 17  2  0
 17 18  1  0
 17 14  1  0
 18 19  2  0
 20 18  1  0
 21 20  1  0
 22 21  2  0
  1 23  1  1
  2 24  1  1
  4 25  1  0
  4 26  1  0
  5 27  1  6
  6 28  1  0
  8 29  1  0
  9 30  1  0
 10 31  1  0
 15 32  1  0
 16 33  1  0
 20 34  1  0
M  ISO  8  23  13  24  13  25  13  26  13  27  13  28   3  29  14  30  14
M  ISO  4  31  14  32   9  33  14  34   9
M  END
>  <minimizedAffinity>  (1) 
-4.76865768

>  <minimizedRMSD>  (1) 
3.25923657

$$$$
