
     RDKit          3D

 31 33  0  0  0  0  0  0  0  0999 V2000
   36.4280   30.9790   45.7700 Cl  0  0  0  0  0  0  0  0  0  0  0  0
   36.7750   30.8840   47.4790 C   0  0  0  0  0  0  0  0  0  0  0  0
   38.0500   31.1890   47.8690 C   0  0  0  0  0  0  0  0  0  0  0  0
   38.3510   31.1180   49.2320 C   0  0  0  0  0  0  0  0  0  0  0  0
   37.3740   30.7510   50.1250 C   0  0  0  0  0  0  0  0  0  0  0  0
   36.1050   30.4580   49.6520 C   0  0  0  0  0  0  0  0  0  0  0  0
   35.7460   30.5080   48.3260 C   0  0  0  0  0  0  0  0  0  0  0  0
   40.2840   33.3080   45.8950 C   0  0  0  0  0  0  0  0  0  0  0  0
   40.9600   32.4080   45.0580 C   0  0  0  0  0  0  0  0  0  0  0  0
   40.6260   31.0650   45.1930 C   0  0  0  0  0  0  0  0  0  0  0  0
   39.6830   30.6900   46.1090 N   0  0  0  0  0  0  0  0  0  0  0  0
   39.0660   31.5760   46.8820 C   0  0  0  0  0  0  0  0  0  0  0  0
   39.3720   32.8830   46.7680 N   0  0  0  0  0  0  0  0  0  0  0  0
   34.1290   30.1410   47.7070 S   0  0  0  0  0  0  0  0  0  0  0  0
   33.9640   26.8540   45.3330 N   0  0  0  0  0  0  0  0  0  0  0  0
   34.0340   28.1620   45.6430 C   0  0  0  0  0  0  0  0  0  0  0  0
   34.0420   28.4910   47.0000 C   0  0  0  0  0  0  0  0  0  0  0  0
   33.9780   27.4740   47.9560 C   0  0  0  0  0  0  0  0  0  0  0  0
   33.9800   27.6800   49.1930 O   0  0  0  0  0  0  0  0  0  0  0  0
   33.9090   26.1800   47.5860 N   0  0  0  0  0  0  0  0  0  0  0  0
   33.9030   25.8990   46.2710 C   0  0  0  0  0  0  0  0  0  0  0  0
   33.8410   24.7330   45.8440 O   0  0  0  0  0  0  0  0  0  0  0  0
   39.3647   31.3547   49.5876 H   0  0  0  0  0  0  0  0  0  0  0  0
   37.5959   30.6905   51.2007 H   0  0  0  0  0  0  0  0  0  0  0  0
   35.3366   30.1671   50.3835 H   0  0  0  0  0  0  0  0  0  0  0  0
   40.5107   34.3824   45.8294 H   0  0  0  0  0  0  0  0  0  0  0  0
   41.7147   32.7468   44.3330 H   0  0  0  0  0  0  0  0  0  0  0  0
   41.1184   30.3076   44.5655 H   0  0  0  0  0  0  0  0  0  0  0  0
   33.9571   26.5777   44.3408 H   0  0  0  0  0  0  0  0  0  0  0  0
   34.0827   28.9362   44.8631 H   0  0  0  0  0  0  0  0  0  0  0  0
   33.8623   25.4289   48.2892 H   0  0  0  0  0  0  0  0  0  0  0  0
  1  2  1  0
  2  3  2  0
  2  7  1  0
  3  4  1  0
  4  5  2  0
  6  5  1  0
  7  6  2  0
  8 13  2  0
  9 10  2  0
  9  8  1  0
 10 11  1  0
 11 12  2  0
 12  3  1  0
 13 12  1  0
 14  7  1  0
 15 16  1  0
 15 21  1  0
 16 17  2  0
 17 14  1  0
 17 18  1  0
 18 19  2  0
 20 18  1  0
 21 20  1  0
 22 21  2  0
  4 23  1  0
  5 24  1  0
  6 25  1  0
  8 26  1  0
  9 27  1  0
 10 28  1  0
 15 29  1  0
 16 30  1  0
 20 31  1  0
M  ISO  8  23  14  24  14  25  14  26  14  27  14  28  14  29   9  30  14
M  ISO  1  31   9
M  END
>  <minimizedAffinity>  (1) 
-5.57530451

>  <minimizedRMSD>  (1) 
1.25923753

$$$$
