
     RDKit          3D

 47 50  0  0  1  0  0  0  0  0999 V2000
   39.6490   32.2510   43.8320 C   0  0  0  0  0  0  0  0  0  0  0  0
   40.0100   28.9560   42.5560 C   0  0  1  0  0  0  0  0  0  0  0  0
   40.4830   30.3990   42.3970 C   0  0  0  0  0  0  0  0  0  0  0  0
   40.3440   30.9030   43.8180 C   0  0  2  0  0  0  0  0  0  0  0  0
   39.6780   29.9690   44.5450 O   0  0  0  0  0  0  0  0  0  0  0  0
   38.9820   29.1400   43.6660 C   0  0  0  0  0  0  0  0  0  0  0  0
   39.4240   28.4930   41.4030 O   0  0  0  0  0  0  0  0  0  0  0  0
   38.6780   24.8880   41.1090 N   0  0  0  0  0  0  0  0  0  0  0  0
   38.5010   26.1330   41.5720 C   0  0  0  0  0  0  0  0  0  0  0  0
   39.3330   27.1400   41.1370 C   0  0  0  0  0  0  0  0  0  0  0  0
   40.3360   26.7990   40.2180 C   0  0  0  0  0  0  0  0  0  0  0  0
   41.2080   27.5690   39.6890 O   0  0  0  0  0  0  0  0  0  0  0  0
   40.4740   25.5130   39.7780 N   0  0  0  0  0  0  0  0  0  0  0  0
   39.6390   24.5590   40.2290 C   0  0  0  0  0  0  0  0  0  0  0  0
   39.7570   23.3680   39.8300 O   0  0  0  0  0  0  0  0  0  0  0  0
   40.4340   33.2560   45.1110 S   0  0  0  0  0  0  0  0  0  0  0  0
   37.7350   31.7920   47.6410 C   0  0  0  0  0  0  0  0  0  0  0  0
   37.9690   32.5040   48.8330 C   0  0  0  0  0  0  0  0  0  0  0  0
   38.9510   33.4520   48.9120 C   0  0  0  0  0  0  0  0  0  0  0  0
   39.6940   33.6680   47.7630 C   0  0  0  0  0  0  0  0  0  0  0  0
   39.4570   32.9730   46.6190 C   0  0  0  0  0  0  0  0  0  0  0  0
   38.4770   32.0250   46.5370 N   0  0  0  0  0  0  0  0  0  0  0  0
   36.6840   30.8140   47.6460 C   0  0  0  0  0  0  0  0  0  0  0  0
   36.1920   30.4050   46.5970 O   0  0  0  0  0  0  0  0  0  0  0  0
   37.0290   29.6450   49.7910 C   0  0  0  0  0  0  0  0  0  0  0  0
   36.1390   30.2480   48.8910 C   0  0  0  0  0  0  0  0  0  0  0  0
   34.7760   30.2930   49.2060 C   0  0  0  0  0  0  0  0  0  0  0  0
   34.3520   29.7450   50.3820 N   0  0  0  0  0  0  0  0  0  0  0  0
   35.2340   29.1690   51.2300 C   0  0  0  0  0  0  0  0  0  0  0  0
   36.5420   29.1210   50.9400 N   0  0  0  0  0  0  0  0  0  0  0  0
   38.5810   32.1201   44.0605 H   0  0  0  0  0  0  0  0  0  0  0  0
   39.7335   32.7397   42.8502 H   0  0  0  0  0  0  0  0  0  0  0  0
   40.8034   28.2253   42.7717 H   0  0  0  0  0  0  0  0  0  0  0  0
   41.5260   30.4470   42.0509 H   0  0  0  0  0  0  0  0  0  0  0  0
   39.9228   30.9817   41.6509 H   0  0  0  0  0  0  0  0  0  0  0  0
   41.3338   31.0553   44.2731 H   0  0  0  0  0  0  0  0  0  0  0  0
   38.0681   29.6251   43.2927 H   0  0  0  0  0  0  0  0  0  0  0  0
   38.6297   28.1999   44.1154 H   0  0  0  0  0  0  0  0  0  0  0  0
   38.0464   24.1466   41.4441 H   0  0  0  0  0  0  0  0  0  0  0  0
   37.6985   26.3484   42.2928 H   0  0  0  0  0  0  0  0  0  0  0  0
   41.2148   25.2745   39.1033 H   0  0  0  0  0  0  0  0  0  0  0  0
   37.3499   32.2935   49.7175 H   0  0  0  0  0  0  0  0  0  0  0  0
   39.1410   34.0134   49.8387 H   0  0  0  0  0  0  0  0  0  0  0  0
   40.4959   34.4208   47.7767 H   0  0  0  0  0  0  0  0  0  0  0  0
   38.1050   29.5985   49.5671 H   0  0  0  0  0  0  0  0  0  0  0  0
   34.0583   30.7623   48.5171 H   0  0  0  0  0  0  0  0  0  0  0  0
   34.8724   28.7329   52.1729 H   0  0  0  0  0  0  0  0  0  0  0  0
  1 16  1  0
  2  6  1  0
  3  2  1  0
  3  4  1  0
  4  1  1  0
  4  5  1  0
  6  5  1  0
  7  2  1  0
  8  9  1  0
 10  7  1  0
 10  9  2  0
 11 10  1  0
 12 11  2  0
 13 11  1  0
 13 14  1  0
 14  8  1  0
 15 14  2  0
 16 21  1  0
 17 23  1  0
 17 18  2  0
 18 19  1  0
 20 19  2  0
 21 20  1  0
 22 21  2  0
 22 17  1  0
 23 26  1  0
 24 23  2  0
 25 30  2  0
 26 27  2  0
 26 25  1  0
 27 28  1  0
 28 29  2  0
 30 29  1  0
  1 31  1  0
  1 32  1  0
  2 33  1  1
  3 34  1  0
  3 35  1  0
  4 36  1  1
  6 37  1  0
  6 38  1  0
  8 39  1  0
  9 40  1  0
 13 41  1  0
 18 42  1  0
 19 43  1  0
 20 44  1  0
 25 45  1  0
 27 46  1  0
 29 47  1  0
M  ISO  8  31   8  32   8  33  13  34  13  35  13  36  13  37  13  38  13
M  ISO  8  39   9  40  14  41   9  42  14  43  14  44  14  45  14  46  14
M  ISO  1  47  14
M  END
>  <minimizedAffinity>  (1) 
-5.78429508

>  <minimizedRMSD>  (1) 
1.61842501

$$$$
