
     RDKit          3D

 39 41  0  0  1  0  0  0  0  0999 V2000
   34.4140   28.9670   50.0100 O   0  0  0  0  0  0  0  0  0  0  0  0
   34.2610   29.2280   48.8040 C   0  0  0  0  0  0  0  0  0  0  0  0
   35.0700   30.2200   48.1340 C   0  0  2  0  0  0  0  0  0  0  0  0
   34.6430   29.9910   46.6460 C   0  0  0  0  0  0  0  0  0  0  0  0
   33.2510   29.4550   46.7780 C   0  0  0  0  0  0  0  0  0  0  0  0
   33.2880   28.5920   47.9460 N   0  0  0  0  0  0  0  0  0  0  0  0
   32.5230   27.3930   48.1570 C   0  0  0  0  0  0  0  0  0  0  0  0
   31.1260   27.5840   48.3360 N   0  0  0  0  0  0  0  0  0  0  0  0
   30.7490   27.8540   49.6140 C   0  0  0  0  0  0  0  0  0  0  0  0
   29.4220   28.0620   49.9500 C   0  0  0  0  0  0  0  0  0  0  0  0
   28.4310   27.9990   48.9750 C   0  0  0  0  0  0  0  0  0  0  0  0
   27.2290   28.1840   49.2640 O   0  0  0  0  0  0  0  0  0  0  0  0
   28.8560   27.7260   47.7200 N   0  0  0  0  0  0  0  0  0  0  0  0
   30.1550   27.5310   47.4390 C   0  0  0  0  0  0  0  0  0  0  0  0
   30.5030   27.2830   46.2620 O   0  0  0  0  0  0  0  0  0  0  0  0
   36.4700   29.9460   48.1650 O   0  0  0  0  0  0  0  0  0  0  0  0
   37.3360   31.0350   48.2630 C   0  0  0  0  0  0  0  0  0  0  0  0
   37.5110   31.5810   49.5220 C   0  0  0  0  0  0  0  0  0  0  0  0
   38.3660   32.6650   49.6510 C   0  0  0  0  0  0  0  0  0  0  0  0
   38.9930   33.1430   48.5410 N   0  0  0  0  0  0  0  0  0  0  0  0
   38.8130   32.6020   47.3270 C   0  0  0  0  0  0  0  0  0  0  0  0
   37.9950   31.5680   47.2110 N   0  0  0  0  0  0  0  0  0  0  0  0
   40.3200   32.1710   45.5490 C   0  0  0  0  0  0  0  0  0  0  0  0
   40.5190   30.9610   45.8760 O   0  0  0  0  0  0  0  0  0  0  0  0
   39.4830   33.1300   46.1870 N   0  0  0  0  0  0  0  0  0  0  0  0
   34.9263   31.2130   48.5849 H   0  0  0  0  0  0  0  0  0  0  0  0
   35.3028   29.2624   46.1523 H   0  0  0  0  0  0  0  0  0  0  0  0
   34.7023   30.9013   46.0313 H   0  0  0  0  0  0  0  0  0  0  0  0
   32.5335   30.2755   46.9264 H   0  0  0  0  0  0  0  0  0  0  0  0
   32.9298   28.9143   45.8755 H   0  0  0  0  0  0  0  0  0  0  0  0
   32.6670   26.7406   47.2832 H   0  0  0  0  0  0  0  0  0  0  0  0
   32.8924   26.9599   49.0982 H   0  0  0  0  0  0  0  0  0  0  0  0
   31.5166   27.9085   50.4000 H   0  0  0  0  0  0  0  0  0  0  0  0
   29.1495   28.2783   50.9935 H   0  0  0  0  0  0  0  0  0  0  0  0
   28.1645   27.6660   46.9590 H   0  0  0  0  0  0  0  0  0  0  0  0
   36.9868   31.1670   50.3959 H   0  0  0  0  0  0  0  0  0  0  0  0
   38.5348   33.1307   50.6332 H   0  0  0  0  0  0  0  0  0  0  0  0
   40.8631   32.5236   44.6598 H   0  0  0  0  0  0  0  0  0  0  0  0
   39.3740   34.1004   45.8594 H   0  0  0  0  0  0  0  0  0  0  0  0
  2  1  2  0
  3 16  1  0
  3  2  1  0
  4  5  1  0
  4  3  1  0
  5  6  1  0
  6  7  1  0
  6  2  1  0
  7  8  1  0
  8  9  1  0
  9 10  2  0
 11 12  2  0
 11 10  1  0
 13 11  1  0
 14 13  1  0
 14  8  1  0
 15 14  2  0
 16 17  1  0
 17 18  2  0
 18 19  1  0
 20 19  2  0
 21 20  1  0
 22 21  2  0
 22 17  1  0
 23 24  2  0
 23 25  1  0
 25 21  1  0
  3 26  1  1
  4 27  1  0
  4 28  1  0
  5 29  1  0
  5 30  1  0
  7 31  1  0
  7 32  1  0
  9 33  1  0
 10 34  1  0
 13 35  1  0
 18 36  1  0
 19 37  1  0
 23 38  1  0
 25 39  1  0
M  ISO  8  26  13  27  13  28  13  29  13  30  13  31   8  32   8  33  14
M  ISO  5  34  14  35   9  36  14  37  14  38   6
M  END
>  <minimizedAffinity>  (1) 
-6.41125774

>  <minimizedRMSD>  (1) 
1.65236807

$$$$
