
     RDKit          3D

 38 41  0  0  1  0  0  0  0  0999 V2000
   35.6590   29.1100   49.6860 C   0  0  0  0  0  0  0  0  0  0  0  0
   34.6820   29.5290   50.5670 C   0  0  0  0  0  0  0  0  0  0  0  0
   33.4480   29.0930   50.0640 C   0  0  0  0  0  0  0  0  0  0  0  0
   33.7570   28.4300   48.8970 C   0  0  0  0  0  0  0  0  0  0  0  0
   35.0590   28.4650   48.7150 O   0  0  0  0  0  0  0  0  0  0  0  0
   37.0680   29.3940   49.9020 C   0  0  0  0  0  0  0  0  0  0  0  0
   37.7000   28.7220   50.7280 O   0  0  0  0  0  0  0  0  0  0  0  0
   37.6460   30.4560   49.1290 C   0  0  0  0  0  0  0  0  0  0  0  0
   37.9780   31.6190   49.8040 C   0  0  0  0  0  0  0  0  0  0  0  0
   38.5410   32.6740   49.0780 C   0  0  0  0  0  0  0  0  0  0  0  0
   38.7360   32.4960   47.7270 N   0  0  0  0  0  0  0  0  0  0  0  0
   38.4050   31.3590   47.1090 C   0  0  0  0  0  0  0  0  0  0  0  0
   37.8630   30.3420   47.7980 N   0  0  0  0  0  0  0  0  0  0  0  0
   32.7960   27.7850   48.0030 C   0  0  0  0  0  0  0  0  0  0  0  0
   32.6350   26.5220   48.0960 O   0  0  0  0  0  0  0  0  0  0  0  0
   32.0270   28.5910   46.9970 C   0  0  1  0  0  0  0  0  0  0  0  0
   31.3030   27.6240   45.9790 C   0  0  0  0  0  0  0  0  0  0  0  0
   30.5680   28.5000   46.9150 C   0  0  1  0  0  0  0  0  0  0  0  0
   27.9410   27.0650   45.9550 Br  0  0  0  0  0  0  0  0  0  0  0  0
   28.6000   27.2880   47.7250 C   0  0  0  0  0  0  0  0  0  0  0  0
   29.7770   27.9400   48.0400 C   0  0  0  0  0  0  0  0  0  0  0  0
   30.1740   28.0520   49.3580 C   0  0  0  0  0  0  0  0  0  0  0  0
   29.4290   27.5290   50.3910 C   0  0  0  0  0  0  0  0  0  0  0  0
   28.2530   26.8770   50.0680 C   0  0  0  0  0  0  0  0  0  0  0  0
   27.8340   26.7510   48.7610 C   0  0  0  0  0  0  0  0  0  0  0  0
   34.8423   30.1000   51.4934 H   0  0  0  0  0  0  0  0  0  0  0  0
   32.4519   29.2467   50.5046 H   0  0  0  0  0  0  0  0  0  0  0  0
   37.8030   31.7110   50.8861 H   0  0  0  0  0  0  0  0  0  0  0  0
   38.8193   33.6168   49.5716 H   0  0  0  0  0  0  0  0  0  0  0  0
   38.5777   31.2551   46.0276 H   0  0  0  0  0  0  0  0  0  0  0  0
   32.7024   29.4590   47.0186 H   0  0  0  0  0  0  0  0  0  0  0  0
   31.3232   26.5351   46.1333 H   0  0  0  0  0  0  0  0  0  0  0  0
   31.3189   27.4591   44.8915 H   0  0  0  0  0  0  0  0  0  0  0  0
   29.7756   29.2484   46.7664 H   0  0  0  0  0  0  0  0  0  0  0  0
   31.1137   28.5748   49.5895 H   0  0  0  0  0  0  0  0  0  0  0  0
   29.7576   27.6263   51.4363 H   0  0  0  0  0  0  0  0  0  0  0  0
   27.6376   26.4489   50.8730 H   0  0  0  0  0  0  0  0  0  0  0  0
   26.8943   26.2263   48.5339 H   0  0  0  0  0  0  0  0  0  0  0  0
  1  6  1  0
  1  2  2  0
  3  2  1  0
  4  3  2  0
  5  4  1  0
  5  1  1  0
  6  7  2  0
  8  9  2  0
  8  6  1  0
 10  9  1  0
 11 10  2  0
 12 11  1  0
 12 13  2  0
 13  8  1  0
 14 15  2  0
 14  4  1  0
 16 14  1  0
 17 18  1  0
 17 16  1  0
 18 16  1  0
 18 21  1  0
 19 20  1  0
 20 21  2  0
 20 25  1  0
 21 22  1  0
 22 23  2  0
 24 23  1  0
 25 24  2  0
  2 26  1  0
  3 27  1  0
  9 28  1  0
 10 29  1  0
 12 30  1  0
 16 31  1  6
 17 32  1  0
 17 33  1  0
 18 34  1  6
 22 35  1  0
 23 36  1  0
 24 37  1  0
 25 38  1  0
M  ISO  8  26  14  27  14  28  14  29  14  30  14  31  13  32  13  33  13
M  ISO  5  34  13  35  14  36  14  37  14  38  14
M  END
>  <minimizedAffinity>  (1) 
-6.11761808

>  <minimizedRMSD>  (1) 
2.41305447

$$$$
