
     RDKit          3D

 33 35  0  0  0  0  0  0  0  0999 V2000
   37.4960   31.9970   48.1160 Cl  0  0  0  0  0  0  0  0  0  0  0  0
   36.6510   31.0690   46.9080 C   0  0  0  0  0  0  0  0  0  0  0  0
   37.2340   30.8770   45.6640 C   0  0  0  0  0  0  0  0  0  0  0  0
   36.6040   30.1540   44.6760 C   0  0  0  0  0  0  0  0  0  0  0  0
   35.3640   29.5970   44.9000 C   0  0  0  0  0  0  0  0  0  0  0  0
   34.7540   29.7670   46.1180 C   0  0  0  0  0  0  0  0  0  0  0  0
   33.1770   29.1250   46.5320 Cl  0  0  0  0  0  0  0  0  0  0  0  0
   35.4150   30.4980   47.0930 C   0  0  0  0  0  0  0  0  0  0  0  0
   39.8850   33.1980   44.6570 C   0  0  0  0  0  0  0  0  0  0  0  0
   41.0550   32.4840   44.9280 C   0  0  0  0  0  0  0  0  0  0  0  0
   40.9110   31.1920   45.4610 C   0  0  0  0  0  0  0  0  0  0  0  0
   39.6530   30.7010   45.6880 N   0  0  0  0  0  0  0  0  0  0  0  0
   38.5440   31.4490   45.4020 C   0  0  0  0  0  0  0  0  0  0  0  0
   38.6820   32.6770   44.8950 N   0  0  0  0  0  0  0  0  0  0  0  0
   34.7820   30.7000   48.4470 C   0  0  0  0  0  0  0  0  0  0  0  0
   34.4900   27.7160   49.0310 Br  0  0  0  0  0  0  0  0  0  0  0  0
   35.6790   28.9640   49.8820 C   0  0  0  0  0  0  0  0  0  0  0  0
   35.7260   30.2960   49.5210 C   0  0  0  0  0  0  0  0  0  0  0  0
   36.6070   31.1780   50.1580 C   0  0  0  0  0  0  0  0  0  0  0  0
   37.4300   30.6860   51.1610 C   0  0  0  0  0  0  0  0  0  0  0  0
   37.4110   29.3500   51.5530 C   0  0  0  0  0  0  0  0  0  0  0  0
   36.5200   28.4930   50.8970 C   0  0  0  0  0  0  0  0  0  0  0  0
   37.0944   30.0201   43.7005 H   0  0  0  0  0  0  0  0  0  0  0  0
   34.8656   29.0194   44.1075 H   0  0  0  0  0  0  0  0  0  0  0  0
   39.9586   34.2124   44.2380 H   0  0  0  0  0  0  0  0  0  0  0  0
   42.0477   32.9155   44.7322 H   0  0  0  0  0  0  0  0  0  0  0  0
   41.7971   30.5829   45.6929 H   0  0  0  0  0  0  0  0  0  0  0  0
   34.5225   31.7616   48.5719 H   0  0  0  0  0  0  0  0  0  0  0  0
   33.8753   30.0809   48.5149 H   0  0  0  0  0  0  0  0  0  0  0  0
   36.6460   32.2388   49.8695 H   0  0  0  0  0  0  0  0  0  0  0  0
   38.1225   31.3764   51.6647 H   0  0  0  0  0  0  0  0  0  0  0  0
   38.0730   28.9811   52.3503 H   0  0  0  0  0  0  0  0  0  0  0  0
   36.4799   27.4318   51.1838 H   0  0  0  0  0  0  0  0  0  0  0  0
  2  8  2  0
  2  1  1  0
  3  2  1  0
  4  5  1  0
  4  3  2  0
  5  6  2  0
  6  7  1  0
  6  8  1  0
  8 15  1  0
  9 14  2  0
  9 10  1  0
 10 11  2  0
 11 12  1  0
 13  3  1  0
 13 12  2  0
 14 13  1  0
 15 18  1  0
 16 17  1  0
 17 22  2  0
 18 17  1  0
 18 19  2  0
 19 20  1  0
 20 21  2  0
 22 21  1  0
  4 23  1  0
  5 24  1  0
  9 25  1  0
 10 26  1  0
 11 27  1  0
 15 28  1  0
 15 29  1  0
 19 30  1  0
 20 31  1  0
 21 32  1  0
 22 33  1  0
M  ISO  8  23  14  24  14  25  14  26  14  27  14  28   8  29   8  30  14
M  ISO  3  31  14  32  14  33  14
M  END
>  <minimizedAffinity>  (1) 
-5.74569559

>  <minimizedRMSD>  (1) 
2.52856493

$$$$
