
     RDKit          3D

 41 44  0  0  0  0  0  0  0  0999 V2000
   31.8650   27.3520   47.5460 O   0  0  0  0  0  0  0  0  0  0  0  0
   30.6340   27.7570   48.0560 C   0  0  0  0  0  0  0  0  0  0  0  0
   30.5290   27.6330   49.4240 C   0  0  0  0  0  0  0  0  0  0  0  0
   29.3750   27.9930   50.0750 C   0  0  0  0  0  0  0  0  0  0  0  0
   28.2990   28.4910   49.3240 C   0  0  0  0  0  0  0  0  0  0  0  0
   28.4200   28.6100   47.9430 C   0  0  0  0  0  0  0  0  0  0  0  0
   29.5800   28.2430   47.3250 C   0  0  0  0  0  0  0  0  0  0  0  0
   28.5980   25.6260   46.1740 Br  0  0  0  0  0  0  0  0  0  0  0  0
   29.2820   27.1700   45.2780 C   0  0  0  0  0  0  0  0  0  0  0  0
   29.7250   28.3580   45.8760 C   0  0  0  0  0  0  0  0  0  0  0  0
   30.1870   29.3640   45.0540 C   0  0  0  0  0  0  0  0  0  0  0  0
   30.2080   29.2050   43.7090 C   0  0  0  0  0  0  0  0  0  0  0  0
   29.7800   28.0510   43.0890 C   0  0  0  0  0  0  0  0  0  0  0  0
   29.3130   27.0280   43.8860 C   0  0  0  0  0  0  0  0  0  0  0  0
   34.9600   28.7400   48.7490 C   0  0  0  0  0  0  0  0  0  0  0  0
   35.0290   29.9770   48.1040 C   0  0  0  0  0  0  0  0  0  0  0  0
   33.9740   30.3080   47.2480 C   0  0  0  0  0  0  0  0  0  0  0  0
   32.9600   29.4200   47.0960 N   0  0  0  0  0  0  0  0  0  0  0  0
   32.9200   28.2450   47.7240 C   0  0  0  0  0  0  0  0  0  0  0  0
   33.9320   27.8920   48.5640 N   0  0  0  0  0  0  0  0  0  0  0  0
   36.1440   30.8120   48.3440 N   0  0  0  0  0  0  0  0  0  0  0  0
   36.3790   31.3640   49.5280 C   0  0  0  0  0  0  0  0  0  0  0  0
   37.4920   32.1770   49.7050 C   0  0  0  0  0  0  0  0  0  0  0  0
   38.2750   32.3400   48.5920 C   0  0  0  0  0  0  0  0  0  0  0  0
   39.3010   33.0810   48.7290 O   0  0  0  0  0  0  0  0  0  0  0  0
   38.0800   31.8090   47.3850 N   0  0  0  0  0  0  0  0  0  0  0  0
   36.9730   31.0180   47.2650 C   0  0  0  0  0  0  0  0  0  0  0  0
   36.7670   30.5000   46.1200 O   0  0  0  0  0  0  0  0  0  0  0  0
   31.3794   27.2411   50.0013 H   0  0  0  0  0  0  0  0  0  0  0  0
   29.2951   27.8927   51.1675 H   0  0  0  0  0  0  0  0  0  0  0  0
   27.3649   28.7857   49.8246 H   0  0  0  0  0  0  0  0  0  0  0  0
   27.5803   29.0001   47.3491 H   0  0  0  0  0  0  0  0  0  0  0  0
   30.5426   30.3066   45.4956 H   0  0  0  0  0  0  0  0  0  0  0  0
   30.5820   30.0309   43.0860 H   0  0  0  0  0  0  0  0  0  0  0  0
   29.8101   27.9497   41.9941 H   0  0  0  0  0  0  0  0  0  0  0  0
   28.9621   26.0931   43.4246 H   0  0  0  0  0  0  0  0  0  0  0  0
   35.7730   28.4496   49.4307 H   0  0  0  0  0  0  0  0  0  0  0  0
   33.9666   31.2673   46.7098 H   0  0  0  0  0  0  0  0  0  0  0  0
   35.6936   31.1781   50.3680 H   0  0  0  0  0  0  0  0  0  0  0  0
   37.7273   32.6546   50.6676 H   0  0  0  0  0  0  0  0  0  0  0  0
   38.7201   31.9832   46.5971 H   0  0  0  0  0  0  0  0  0  0  0  0
  1 19  1  0
  1  2  1  0
  2  3  2  0
  3  4  1  0
  5  4  2  0
  6  5  1  0
  7  6  2  0
  7  2  1  0
  9 10  2  0
  9  8  1  0
 10  7  1  0
 11 10  1  0
 12 11  2  0
 13 12  1  0
 13 14  2  0
 14  9  1  0
 16 21  1  0
 16 15  2  0
 17 16  1  0
 18 17  2  0
 18 19  1  0
 19 20  2  0
 20 15  1  0
 21 22  1  0
 22 23  2  0
 24 25  2  0
 24 23  1  0
 26 24  1  0
 27 26  1  0
 27 21  1  0
 28 27  2  0
  3 29  1  0
  4 30  1  0
  5 31  1  0
  6 32  1  0
 11 33  1  0
 12 34  1  0
 13 35  1  0
 14 36  1  0
 15 37  1  0
 17 38  1  0
 22 39  1  0
 23 40  1  0
 26 41  1  0
M  ISO  8  29  14  30  14  31  14  32  14  33  14  34  14  35  14  36  14
M  ISO  5  37  14  38  14  39  14  40  14  41   9
M  END
>  <minimizedAffinity>  (1) 
-5.920012

>  <minimizedRMSD>  (1) 
1.09980953

$$$$
