
     RDKit          3D

 39 41  0  0  1  0  0  0  0  0999 V2000
   33.2780   27.2710   45.8210 C   0  0  1  0  0  0  0  0  0  0  0  0
   33.9090   27.4300   47.2200 C   0  0  2  0  0  0  0  0  0  0  0  0
   33.7000   26.2220   47.8060 O   0  0  0  0  0  0  0  0  0  0  0  0
   34.0780   25.3070   46.8350 C   0  0  0  0  0  0  0  0  0  0  0  0
   33.6960   25.8610   45.4760 C   0  0  2  0  0  0  0  0  0  0  0  0
   31.9160   27.4790   45.8780 O   0  0  0  0  0  0  0  0  0  0  0  0
   33.2440   28.5000   47.7750 O   0  0  0  0  0  0  0  0  0  0  0  0
   35.3360   29.7830   46.7930 O   0  0  0  0  0  0  0  0  0  0  0  0
   34.0610   29.9620   47.6130 P   0  0  1  0  0  0  0  0  0  0  0  0
   33.1230   31.0580   46.7260 O   0  0  0  0  0  0  0  0  0  0  0  0
   34.3440   30.5510   49.1880 O   0  0  0  0  0  0  0  0  0  0  0  0
   35.5910   30.4570   49.7900 C   0  0  0  0  0  0  0  0  0  0  0  0
   35.9760   29.4480   50.7020 C   0  0  0  0  0  0  0  0  0  0  0  0
   37.2620   29.4880   51.2210 C   0  0  0  0  0  0  0  0  0  0  0  0
   38.0930   30.4960   50.8320 N   0  0  0  0  0  0  0  0  0  0  0  0
   37.6950   31.4490   49.9550 C   0  0  0  0  0  0  0  0  0  0  0  0
   36.4380   31.4320   49.4310 N   0  0  0  0  0  0  0  0  0  0  0  0
   34.7530   25.8610   44.6360 O   0  0  0  0  0  0  0  0  0  0  0  0
   36.8900   23.4830   45.0970 Br  0  0  0  0  0  0  0  0  0  0  0  0
   36.1210   24.1070   43.4950 C   0  0  0  0  0  0  0  0  0  0  0  0
   35.2350   25.1430   43.6140 C   0  0  0  0  0  0  0  0  0  0  0  0
   34.6690   25.5980   42.4140 C   0  0  0  0  0  0  0  0  0  0  0  0
   34.9920   25.0270   41.1760 C   0  0  0  0  0  0  0  0  0  0  0  0
   35.8970   23.9870   41.1570 C   0  0  0  0  0  0  0  0  0  0  0  0
   36.4790   23.5050   42.3100 C   0  0  0  0  0  0  0  0  0  0  0  0
   33.5990   27.9933   45.0560 H   0  0  0  0  0  0  0  0  0  0  0  0
   34.9840   27.6508   47.2943 H   0  0  0  0  0  0  0  0  0  0  0  0
   35.1656   25.1481   46.8784 H   0  0  0  0  0  0  0  0  0  0  0  0
   33.5713   24.3457   47.0058 H   0  0  0  0  0  0  0  0  0  0  0  0
   32.9183   25.2782   44.9606 H   0  0  0  0  0  0  0  0  0  0  0  0
   31.6282   27.5230   46.8242 H   0  0  0  0  0  0  0  0  0  0  0  0
   32.6223   31.6430   47.3483 H   0  0  0  0  0  0  0  0  0  0  0  0
   35.2745   28.6521   50.9925 H   0  0  0  0  0  0  0  0  0  0  0  0
   37.6041   28.7217   51.9321 H   0  0  0  0  0  0  0  0  0  0  0  0
   38.3951   32.2456   49.6629 H   0  0  0  0  0  0  0  0  0  0  0  0
   33.9491   26.4291   42.4459 H   0  0  0  0  0  0  0  0  0  0  0  0
   34.5366   25.3978   40.2459 H   0  0  0  0  0  0  0  0  0  0  0  0
   36.1625   23.5282   40.1931 H   0  0  0  0  0  0  0  0  0  0  0  0
   37.1994   22.6741   42.2841 H   0  0  0  0  0  0  0  0  0  0  0  0
  1  6  1  0
  1  2  1  0
  2  7  1  0
  2  3  1  0
  4  3  1  0
  5  1  1  0
  5  4  1  0
  9  8  2  0
  9  7  1  0
  9 11  1  0
 10  9  1  0
 11 12  1  0
 12 13  2  0
 13 14  1  0
 15 14  2  0
 16 15  1  0
 17 12  1  0
 17 16  2  0
 18  5  1  0
 20 21  2  0
 20 19  1  0
 21 18  1  0
 22 21  1  0
 23 22  2  0
 24 23  1  0
 24 25  2  0
 25 20  1  0
  1 26  1  6
  2 27  1  6
  4 28  1  0
  4 29  1  0
  5 30  1  6
  6 31  1  0
 10 32  1  0
 13 33  1  0
 14 34  1  0
 16 35  1  0
 22 36  1  0
 23 37  1  0
 24 38  1  0
 25 39  1  0
M  ISO  8  26  13  27  13  28  13  29  13  30  13  31   3  32   3  33  14
M  ISO  6  34  14  35  14  36  14  37  14  38  14  39  14
M  END
>  <minimizedAffinity>  (1) 
-4.20110464

>  <minimizedRMSD>  (1) 
0.892021716

$$$$
