
     RDKit          3D

 31 33  0  0  0  0  0  0  0  0999 V2000
   35.9520   29.5430   49.8460 C   0  0  0  0  0  0  0  0  0  0  0  0
   34.8750   29.4860   50.6760 C   0  0  0  0  0  0  0  0  0  0  0  0
   33.8500   28.8340   49.9710 C   0  0  0  0  0  0  0  0  0  0  0  0
   34.3950   28.5320   48.7280 C   0  0  0  0  0  0  0  0  0  0  0  0
   35.6220   28.9730   48.7210 O   0  0  0  0  0  0  0  0  0  0  0  0
   37.2090   30.1580   50.2480 C   0  0  0  0  0  0  0  0  0  0  0  0
   37.6520   29.9140   51.3820 O   0  0  0  0  0  0  0  0  0  0  0  0
   37.8570   31.0180   49.2900 C   0  0  0  0  0  0  0  0  0  0  0  0
   38.1230   32.3240   49.6730 C   0  0  0  0  0  0  0  0  0  0  0  0
   38.7430   33.2050   48.8100 C   0  0  0  0  0  0  0  0  0  0  0  0
   39.0690   32.7190   47.5850 N   0  0  0  0  0  0  0  0  0  0  0  0
   38.8150   31.4490   47.1980 C   0  0  0  0  0  0  0  0  0  0  0  0
   38.2080   30.6150   48.0670 N   0  0  0  0  0  0  0  0  0  0  0  0
   33.6830   27.8410   47.6450 C   0  0  0  0  0  0  0  0  0  0  0  0
   34.0640   26.6950   47.2800 O   0  0  0  0  0  0  0  0  0  0  0  0
   30.8200   26.8030   48.4230 Br  0  0  0  0  0  0  0  0  0  0  0  0
   31.2090   28.2410   47.2300 C   0  0  0  0  0  0  0  0  0  0  0  0
   32.5410   28.5320   47.0280 C   0  0  0  0  0  0  0  0  0  0  0  0
   32.9250   29.5710   46.1700 C   0  0  0  0  0  0  0  0  0  0  0  0
   31.8590   30.2440   45.5700 C   0  0  0  0  0  0  0  0  0  0  0  0
   30.5130   29.9950   45.7340 C   0  0  0  0  0  0  0  0  0  0  0  0
   30.2180   28.9580   46.5950 C   0  0  0  0  0  0  0  0  0  0  0  0
   34.8181   29.8761   51.7029 H   0  0  0  0  0  0  0  0  0  0  0  0
   32.8333   28.6101   50.3263 H   0  0  0  0  0  0  0  0  0  0  0  0
   37.8357   32.6628   50.6793 H   0  0  0  0  0  0  0  0  0  0  0  0
   38.9610   34.2438   49.0989 H   0  0  0  0  0  0  0  0  0  0  0  0
   39.0980   31.1022   46.1932 H   0  0  0  0  0  0  0  0  0  0  0  0
   33.9769   29.8341   45.9849 H   0  0  0  0  0  0  0  0  0  0  0  0
   32.1231   31.0665   44.8890 H   0  0  0  0  0  0  0  0  0  0  0  0
   29.7351   30.5775   45.2187 H   0  0  0  0  0  0  0  0  0  0  0  0
   29.1654   28.6970   46.7792 H   0  0  0  0  0  0  0  0  0  0  0  0
  1  6  1  0
  1  2  2  0
  3  2  1  0
  4  3  2  0
  5  4  1  0
  5  1  1  0
  6  7  2  0
  8  9  2  0
  8  6  1  0
 10  9  1  0
 11 10  2  0
 12 11  1  0
 12 13  2  0
 13  8  1  0
 14  4  1  0
 15 14  2  0
 17 16  1  0
 18 17  2  0
 18 14  1  0
 19 18  1  0
 20 21  1  0
 20 19  2  0
 21 22  2  0
 22 17  1  0
  2 23  1  0
  3 24  1  0
  9 25  1  0
 10 26  1  0
 12 27  1  0
 19 28  1  0
 20 29  1  0
 21 30  1  0
 22 31  1  0
M  ISO  8  23  14  24  14  25  14  26  14  27  14  28  14  29  14  30  14
M  ISO  1  31  14
M  END
>  <minimizedAffinity>  (1) 
-5.67139673

>  <minimizedRMSD>  (1) 
3.40427971

$$$$
