
     RDKit          3D

 27 28  0  0  0  0  0  0  0  0999 V2000
   34.9420   29.5100   48.3350 C   0  0  0  0  0  0  0  0  0  0  0  0
   34.5770   28.2310   48.6730 C   0  0  0  0  0  0  0  0  0  0  0  0
   33.4700   27.7780   47.9870 C   0  0  0  0  0  0  0  0  0  0  0  0
   32.7910   28.5230   47.0540 C   0  0  0  0  0  0  0  0  0  0  0  0
   33.2250   29.8010   46.7720 C   0  0  0  0  0  0  0  0  0  0  0  0
   34.3010   30.2690   47.4270 N   0  0  0  0  0  0  0  0  0  0  0  0
   37.5860   30.2190   50.7920 C   0  0  0  0  0  0  0  0  0  0  0  0
   38.3050   31.2540   50.1810 C   0  0  0  0  0  0  0  0  0  0  0  0
   37.8630   31.6970   48.9190 C   0  0  0  0  0  0  0  0  0  0  0  0
   36.7840   31.1000   48.3850 N   0  0  0  0  0  0  0  0  0  0  0  0
   36.1060   30.1040   48.9920 C   0  0  0  0  0  0  0  0  0  0  0  0
   36.5270   29.6790   50.2000 N   0  0  0  0  0  0  0  0  0  0  0  0
   37.9690   29.7170   52.0660 N   0  0  0  0  0  0  0  0  0  0  0  0
   32.4920   30.6100   45.7640 C   0  0  0  0  0  0  0  0  0  0  0  0
   31.0610   30.0690   45.7540 C   0  0  0  0  0  0  0  0  0  0  0  0
   35.1148   27.6265   49.4182 H   0  0  0  0  0  0  0  0  0  0  0  0
   33.1096   26.7606   48.1993 H   0  0  0  0  0  0  0  0  0  0  0  0
   31.9131   28.1059   46.5389 H   0  0  0  0  0  0  0  0  0  0  0  0
   39.1823   31.7042   50.6685 H   0  0  0  0  0  0  0  0  0  0  0  0
   38.3848   32.5063   48.3873 H   0  0  0  0  0  0  0  0  0  0  0  0
   37.4303   28.9554   52.5027 H   0  0  0  0  0  0  0  0  0  0  0  0
   38.7852   30.1149   52.5522 H   0  0  0  0  0  0  0  0  0  0  0  0
   32.4976   31.6726   46.0484 H   0  0  0  0  0  0  0  0  0  0  0  0
   32.9586   30.5375   44.7705 H   0  0  0  0  0  0  0  0  0  0  0  0
   30.7117   29.9369   46.7887 H   0  0  0  0  0  0  0  0  0  0  0  0
   30.4036   30.7806   45.2331 H   0  0  0  0  0  0  0  0  0  0  0  0
   31.0388   29.1004   45.2331 H   0  0  0  0  0  0  0  0  0  0  0  0
  1  2  2  0
  1 11  1  0
  3  2  1  0
  4  3  2  0
  5  4  1  0
  5  6  2  0
  6  1  1  0
  7 13  1  0
  8  7  2  0
  9  8  1  0
 10  9  2  0
 10 11  1  0
 11 12  2  0
 12  7  1  0
 14  5  1  0
 15 14  1  0
  2 16  1  0
  3 17  1  0
  4 18  1  0
  8 19  1  0
  9 20  1  0
 13 21  1  0
 13 22  1  0
 14 23  1  0
 14 24  1  0
 15 25  1  0
 15 26  1  0
 15 27  1  0
M  ISO  8  16  14  17  14  18  14  19  14  20  14  23   8  24   8  25   8
M  ISO  2  26   8  27   8
M  END
>  <minimizedAffinity>  (1) 
-4.94157982

>  <minimizedRMSD>  (1) 
0.443906933

$$$$
