
     RDKit          3D

 43 46  0  0  1  0  0  0  0  0999 V2000
   36.1490   30.1910   46.9790 C   0  0  0  0  0  0  0  0  0  0  0  0
   37.0100   30.7380   47.9280 C   0  0  0  0  0  0  0  0  0  0  0  0
   38.0080   31.6250   47.5580 C   0  0  0  0  0  0  0  0  0  0  0  0
   38.1030   31.9340   46.2060 C   0  0  0  0  0  0  0  0  0  0  0  0
   38.9940   32.7740   45.6050 N   0  0  0  0  0  0  0  0  0  0  0  0
   38.7020   32.7580   44.2930 C   0  0  0  0  0  0  0  0  0  0  0  0
   37.6850   31.9570   44.0620 N   0  0  0  0  0  0  0  0  0  0  0  0
   37.2710   31.4160   45.2340 C   0  0  0  0  0  0  0  0  0  0  0  0
   36.2690   30.5210   45.6340 C   0  0  0  0  0  0  0  0  0  0  0  0
   37.4230   30.1040   51.6020 C   0  0  0  0  0  0  0  0  0  0  0  0
   37.7180   30.5480   50.3250 C   0  0  0  0  0  0  0  0  0  0  0  0
   36.8060   30.3230   49.3000 C   0  0  0  0  0  0  0  0  0  0  0  0
   35.6510   29.6650   49.6170 N   0  0  0  0  0  0  0  0  0  0  0  0
   35.3720   29.2360   50.8640 C   0  0  0  0  0  0  0  0  0  0  0  0
   36.2530   29.4560   51.8380 N   0  0  0  0  0  0  0  0  0  0  0  0
   39.4330   33.5220   43.3700 O   0  0  0  0  0  0  0  0  0  0  0  0
   39.8900   31.5960   42.2340 N   0  0  0  0  0  0  0  0  0  0  0  0
   39.4920   33.0070   42.0480 C   0  0  1  0  0  0  0  0  0  0  0  0
   38.1950   33.0380   41.3800 C   0  0  0  0  0  0  0  0  0  0  0  0
   38.3430   32.5010   40.0890 O   0  0  0  0  0  0  0  0  0  0  0  0
   38.8750   31.2470   40.0370 C   0  0  0  0  0  0  0  0  0  0  0  0
   40.0950   31.0770   40.9010 C   0  0  2  0  0  0  0  0  0  0  0  0
   40.3770   29.5870   41.0670 C   0  0  0  0  0  0  0  0  0  0  0  0
   41.4900   29.3150   42.0240 C   0  0  0  0  0  0  0  0  0  0  0  0
   35.3644   29.4892   47.2981 H   0  0  0  0  0  0  0  0  0  0  0  0
   38.6926   32.0638   48.2988 H   0  0  0  0  0  0  0  0  0  0  0  0
   39.7415   33.3131   46.0649 H   0  0  0  0  0  0  0  0  0  0  0  0
   35.5849   30.0844   44.8914 H   0  0  0  0  0  0  0  0  0  0  0  0
   38.1341   30.2754   52.4236 H   0  0  0  0  0  0  0  0  0  0  0  0
   38.6633   31.0730   50.1231 H   0  0  0  0  0  0  0  0  0  0  0  0
   34.4286   28.7109   51.0744 H   0  0  0  0  0  0  0  0  0  0  0  0
   40.7601   31.5361   42.7819 H   0  0  0  0  0  0  0  0  0  0  0  0
   40.1786   33.5999   41.4258 H   0  0  0  0  0  0  0  0  0  0  0  0
   37.4700   32.4384   41.9500 H   0  0  0  0  0  0  0  0  0  0  0  0
   37.8292   34.0735   41.3169 H   0  0  0  0  0  0  0  0  0  0  0  0
   38.1100   30.5300   40.3697 H   0  0  0  0  0  0  0  0  0  0  0  0
   39.1875   31.0707   38.9972 H   0  0  0  0  0  0  0  0  0  0  0  0
   40.9181   31.6179   40.4111 H   0  0  0  0  0  0  0  0  0  0  0  0
   39.4656   29.0954   41.4381 H   0  0  0  0  0  0  0  0  0  0  0  0
   40.6795   29.1944   40.0850 H   0  0  0  0  0  0  0  0  0  0  0  0
   41.1175   29.4060   43.0550 H   0  0  0  0  0  0  0  0  0  0  0  0
   41.8731   28.2968   41.8611 H   0  0  0  0  0  0  0  0  0  0  0  0
   42.2995   30.0417   41.8611 H   0  0  0  0  0  0  0  0  0  0  0  0
  1  2  2  0
  2 12  1  0
  3  2  1  0
  4  3  2  0
  5  4  1  0
  6  5  1  0
  7  6  2  0
  7  8  1  0
  8  9  2  0
  8  4  1  0
  9  1  1  0
 10 15  2  0
 11 10  1  0
 12 13  1  0
 12 11  2  0
 13 14  2  0
 14 15  1  0
 16  6  1  0
 18 17  1  0
 18 16  1  0
 19 18  1  0
 20 19  1  0
 21 20  1  0
 21 22  1  0
 22 23  1  0
 22 17  1  0
 23 24  1  0
  1 25  1  0
  3 26  1  0
  5 27  1  0
  9 28  1  0
 10 29  1  0
 11 30  1  0
 14 31  1  0
 17 32  1  0
 18 33  1  6
 19 34  1  0
 19 35  1  0
 21 36  1  0
 21 37  1  0
 22 38  1  6
 23 39  1  0
 23 40  1  0
 24 41  1  0
 24 42  1  0
 24 43  1  0
M  ISO  8  25  14  26  14  27   9  28  14  29  14  30  14  31  14  32   5
M  ISO  8  33  13  34  13  35  13  36  13  37  13  38  13  39   8  40   8
M  ISO  3  41   8  42   8  43   8
M  END
>  <minimizedAffinity>  (1) 
-5.75709248

>  <minimizedRMSD>  (1) 
0.775417328

$$$$
