
     RDKit          3D

 28 29  0  0  1  0  0  0  0  0999 V2000
   38.1280   33.3960   49.3670 C   0  0  0  0  0  0  0  0  0  0  0  0
   39.1100   33.2190   48.3710 C   0  0  0  0  0  0  0  0  0  0  0  0
   39.0160   32.0870   47.5600 C   0  0  0  0  0  0  0  0  0  0  0  0
   37.9890   31.2100   47.7620 N   0  0  0  0  0  0  0  0  0  0  0  0
   37.0740   31.4090   48.7170 C   0  0  0  0  0  0  0  0  0  0  0  0
   37.1380   32.4950   49.5180 N   0  0  0  0  0  0  0  0  0  0  0  0
   36.0210   30.4470   48.8740 N   0  0  0  0  0  0  0  0  0  0  0  0
   35.0670   30.1510   47.8070 C   0  0  0  0  0  0  0  0  0  0  0  0
   34.2850   29.0030   48.3180 C   0  0  0  0  0  0  0  0  0  0  0  0
   35.0200   28.4900   49.5230 C   0  0  0  0  0  0  0  0  0  0  0  0
   35.7690   29.6680   50.0670 C   0  0  1  0  0  0  0  0  0  0  0  0
   37.1000   29.2080   50.6250 C   0  0  0  0  0  0  0  0  0  0  0  0
   37.4360   29.8470   51.9500 C   0  0  0  0  0  0  0  0  0  0  0  0
   38.1705   34.2761   50.0255 H   0  0  0  0  0  0  0  0  0  0  0  0
   39.9226   33.9483   48.2376 H   0  0  0  0  0  0  0  0  0  0  0  0
   39.7586   31.9039   46.7694 H   0  0  0  0  0  0  0  0  0  0  0  0
   35.5926   29.8814   46.8791 H   0  0  0  0  0  0  0  0  0  0  0  0
   34.4313   31.0148   47.5624 H   0  0  0  0  0  0  0  0  0  0  0  0
   33.2727   29.3280   48.6001 H   0  0  0  0  0  0  0  0  0  0  0  0
   34.1804   28.2202   47.5523 H   0  0  0  0  0  0  0  0  0  0  0  0
   34.3108   28.1065   50.2713 H   0  0  0  0  0  0  0  0  0  0  0  0
   35.6952   27.6604   49.2664 H   0  0  0  0  0  0  0  0  0  0  0  0
   35.2316   30.2040   50.8632 H   0  0  0  0  0  0  0  0  0  0  0  0
   37.0650   28.1170   50.7608 H   0  0  0  0  0  0  0  0  0  0  0  0
   37.8787   29.5077   49.9082 H   0  0  0  0  0  0  0  0  0  0  0  0
   37.0938   29.1962   52.7682 H   0  0  0  0  0  0  0  0  0  0  0  0
   38.5245   29.9873   52.0239 H   0  0  0  0  0  0  0  0  0  0  0  0
   36.9346   30.8233   52.0239 H   0  0  0  0  0  0  0  0  0  0  0  0
  1  6  2  0
  2  1  1  0
  3  4  1  0
  3  2  2  0
  4  5  2  0
  5  7  1  0
  5  6  1  0
  7 11  1  0
  8  9  1  0
  8  7  1  0
  9 10  1  0
 10 11  1  0
 11 12  1  0
 12 13  1  0
  1 14  1  0
  2 15  1  0
  3 16  1  0
  8 17  1  0
  8 18  1  0
  9 19  1  0
  9 20  1  0
 10 21  1  0
 10 22  1  0
 11 23  1  1
 12 24  1  0
 12 25  1  0
 13 26  1  0
 13 27  1  0
 13 28  1  0
M  ISO  8  14  14  15  14  16  14  17  13  18  13  19  13  20  13  21  13
M  ISO  7  22  13  23  13  24   8  25   8  26   8  27   8  28   8
M  END
>  <minimizedAffinity>  (1) 
-5.2752924

>  <minimizedRMSD>  (1) 
0.470190763

$$$$
