
     RDKit          3D

 45 47  0  0  0  0  0  0  0  0999 V2000
   38.1510   28.2390   51.2800 C   0  0  0  0  0  0  0  0  0  0  0  0
   37.1290   29.3280   51.5360 C   0  0  0  0  0  0  0  0  0  0  0  0
   37.4630   30.5330   51.0080 C   0  0  0  0  0  0  0  0  0  0  0  0
   37.5120   30.1660   49.6840 O   0  0  0  0  0  0  0  0  0  0  0  0
   38.1000   31.0270   48.7960 C   0  0  0  0  0  0  0  0  0  0  0  0
   38.3720   32.2580   49.3490 C   0  0  0  0  0  0  0  0  0  0  0  0
   38.9790   33.2450   48.5460 C   0  0  0  0  0  0  0  0  0  0  0  0
   39.2600   32.9080   47.2510 N   0  0  0  0  0  0  0  0  0  0  0  0
   38.9770   31.6770   46.7350 C   0  0  0  0  0  0  0  0  0  0  0  0
   38.4000   30.7620   47.5270 N   0  0  0  0  0  0  0  0  0  0  0  0
   39.8670   32.5530   44.6960 C   0  0  0  0  0  0  0  0  0  0  0  0
   40.0710   33.6960   45.1910 O   0  0  0  0  0  0  0  0  0  0  0  0
   39.3180   31.4460   45.3740 N   0  0  0  0  0  0  0  0  0  0  0  0
   38.6310   27.3230   52.7330 S   0  0  0  0  0  0  0  0  0  0  0  0
   40.4770   25.2660   53.3960 C   0  0  0  0  0  0  0  0  0  0  0  0
   39.8070   26.0530   52.4450 C   0  0  0  0  0  0  0  0  0  0  0  0
   40.1170   25.7920   51.1140 C   0  0  0  0  0  0  0  0  0  0  0  0
   41.0150   24.8320   50.7400 C   0  0  0  0  0  0  0  0  0  0  0  0
   41.4920   24.3770   49.5820 N   0  0  0  0  0  0  0  0  0  0  0  0
   42.4030   23.3720   49.7670 C   0  0  0  0  0  0  0  0  0  0  0  0
   42.4920   23.1940   51.1340 C   0  0  0  0  0  0  0  0  0  0  0  0
   41.6350   24.0960   51.7220 C   0  0  0  0  0  0  0  0  0  0  0  0
   41.3790   24.3000   53.0440 C   0  0  0  0  0  0  0  0  0  0  0  0
   42.0560   23.4990   54.0820 C   0  0  0  0  0  0  0  0  0  0  0  0
   42.3230   24.3630   55.3030 C   0  0  0  0  0  0  0  0  0  0  0  0
   37.7256   27.5320   50.5525 H   0  0  0  0  0  0  0  0  0  0  0  0
   39.0580   28.7401   50.9109 H   0  0  0  0  0  0  0  0  0  0  0  0
   36.1702   29.0124   51.0988 H   0  0  0  0  0  0  0  0  0  0  0  0
   37.0732   29.4625   52.6263 H   0  0  0  0  0  0  0  0  0  0  0  0
   36.6948   31.2968   51.1987 H   0  0  0  0  0  0  0  0  0  0  0  0
   38.3762   30.9955   51.4107 H   0  0  0  0  0  0  0  0  0  0  0  0
   38.1201   32.4678   50.3990 H   0  0  0  0  0  0  0  0  0  0  0  0
   39.2162   34.2427   48.9439 H   0  0  0  0  0  0  0  0  0  0  0  0
   40.1423   32.4078   43.6410 H   0  0  0  0  0  0  0  0  0  0  0  0
   39.1741   30.5346   44.9162 H   0  0  0  0  0  0  0  0  0  0  0  0
   40.2686   25.4327   54.4631 H   0  0  0  0  0  0  0  0  0  0  0  0
   39.6190   26.3824   50.3308 H   0  0  0  0  0  0  0  0  0  0  0  0
   41.2095   24.7377   48.6595 H   0  0  0  0  0  0  0  0  0  0  0  0
   42.9506   22.8205   48.9885 H   0  0  0  0  0  0  0  0  0  0  0  0
   43.1300   22.4658   51.6561 H   0  0  0  0  0  0  0  0  0  0  0  0
   41.4144   22.6521   54.3667 H   0  0  0  0  0  0  0  0  0  0  0  0
   43.0109   23.1226   53.6864 H   0  0  0  0  0  0  0  0  0  0  0  0
   42.1414   23.7752   56.2149 H   0  0  0  0  0  0  0  0  0  0  0  0
   43.3686   24.7044   55.2890 H   0  0  0  0  0  0  0  0  0  0  0  0
   41.6524   25.2348   55.2890 H   0  0  0  0  0  0  0  0  0  0  0  0
  1  2  1  0
  1 14  1  0
  3  2  1  0
  4  3  1  0
  5  6  2  0
  5  4  1  0
  7  6  1  0
  8  7  2  0
  9  8  1  0
  9 10  2  0
 10  5  1  0
 11 12  2  0
 11 13  1  0
 13  9  1  0
 16 14  1  0
 16 15  2  0
 17 16  1  0
 18 17  2  0
 18 22  1  0
 19 20  1  0
 19 18  1  0
 20 21  2  0
 21 22  1  0
 22 23  2  0
 23 15  1  0
 23 24  1  0
 24 25  1  0
  1 26  1  0
  1 27  1  0
  2 28  1  0
  2 29  1  0
  3 30  1  0
  3 31  1  0
  6 32  1  0
  7 33  1  0
 11 34  1  0
 13 35  1  0
 15 36  1  0
 17 37  1  0
 19 38  1  0
 20 39  1  0
 21 40  1  0
 24 41  1  0
 24 42  1  0
 25 43  1  0
 25 44  1  0
 25 45  1  0
M  ISO  8  26   8  27   8  28   8  29   8  30   8  31   8  32  14  33  14
M  ISO  8  34   6  36  14  37  14  38   9  39  14  40  14  41   8  42   8
M  ISO  3  43   8  44   8  45   8
M  END
>  <minimizedAffinity>  (1) 
-4.21652985

>  <minimizedRMSD>  (1) 
0.304052114

$$$$
