
     RDKit          3D

 23 24  0  0  0  0  0  0  0  0999 V2000
   36.0990   30.0420   49.5620 C   0  0  0  0  0  0  0  0  0  0  0  0
   35.2040   29.3920   48.6370 C   0  0  0  0  0  0  0  0  0  0  0  0
   34.6400   30.4170   49.5590 C   0  0  0  0  0  0  0  0  0  0  0  0
   37.9820   33.2090   49.3180 C   0  0  0  0  0  0  0  0  0  0  0  0
   38.9030   32.9670   48.2980 C   0  0  0  0  0  0  0  0  0  0  0  0
   38.8740   31.6990   47.7040 C   0  0  0  0  0  0  0  0  0  0  0  0
   37.9590   30.7890   48.1510 N   0  0  0  0  0  0  0  0  0  0  0  0
   37.0870   31.0690   49.1420 C   0  0  0  0  0  0  0  0  0  0  0  0
   37.1010   32.2690   49.7180 N   0  0  0  0  0  0  0  0  0  0  0  0
   36.5710   29.2230   50.7730 C   0  0  0  0  0  0  0  0  0  0  0  0
   37.3980   30.0450   51.7210 C   0  0  0  0  0  0  0  0  0  0  0  0
   34.9489   28.3315   48.7796 H   0  0  0  0  0  0  0  0  0  0  0  0
   35.1960   29.2547   47.5456 H   0  0  0  0  0  0  0  0  0  0  0  0
   34.3175   31.3954   49.1734 H   0  0  0  0  0  0  0  0  0  0  0  0
   33.8301   30.4536   50.3025 H   0  0  0  0  0  0  0  0  0  0  0  0
   37.9742   34.1932   49.8093 H   0  0  0  0  0  0  0  0  0  0  0  0
   39.6191   33.7370   47.9752 H   0  0  0  0  0  0  0  0  0  0  0  0
   39.5732   31.4416   46.8948 H   0  0  0  0  0  0  0  0  0  0  0  0
   35.6895   28.8421   51.3094 H   0  0  0  0  0  0  0  0  0  0  0  0
   37.1981   28.3988   50.4021 H   0  0  0  0  0  0  0  0  0  0  0  0
   37.1358   29.7844   52.7570 H   0  0  0  0  0  0  0  0  0  0  0  0
   38.4649   29.8392   51.5500 H   0  0  0  0  0  0  0  0  0  0  0  0
   37.1986   31.1132   51.5500 H   0  0  0  0  0  0  0  0  0  0  0  0
  1 10  1  0
  2  3  1  0
  2  1  1  0
  3  1  1  0
  4  9  2  0
  5  4  1  0
  6  7  1  0
  6  5  2  0
  7  8  2  0
  8  1  1  0
  8  9  1  0
 10 11  1  0
  2 12  1  0
  2 13  1  0
  3 14  1  0
  3 15  1  0
  4 16  1  0
  5 17  1  0
  6 18  1  0
 10 19  1  0
 10 20  1  0
 11 21  1  0
 11 22  1  0
 11 23  1  0
M  ISO  8  12  13  13  13  14  13  15  13  16  14  17  14  18  14  19   8
M  ISO  4  20   8  21   8  22   8  23   8
M  END
>  <minimizedAffinity>  (1) 
-4.71653843

>  <minimizedRMSD>  (1) 
1.55739295

$$$$
