
     RDKit          3D

 19 19  0  0  0  0  0  0  0  0999 V2000
   38.2690   31.3210   50.1630 C   0  0  0  0  0  0  0  0  0  0  0  0
   38.4260   31.4390   48.7810 C   0  0  0  0  0  0  0  0  0  0  0  0
   37.4600   30.8490   47.9460 C   0  0  0  0  0  0  0  0  0  0  0  0
   36.4300   30.1960   48.5470 N   0  0  0  0  0  0  0  0  0  0  0  0
   36.3100   30.1020   49.8710 C   0  0  0  0  0  0  0  0  0  0  0  0
   37.2300   30.6640   50.6760 N   0  0  0  0  0  0  0  0  0  0  0  0
   35.1510   29.3660   50.4330 C   0  0  0  0  0  0  0  0  0  0  0  0
   35.2620   29.1160   51.7850 F   0  0  0  0  0  0  0  0  0  0  0  0
   33.9750   30.0730   50.2600 F   0  0  0  0  0  0  0  0  0  0  0  0
   34.9390   28.1490   49.8140 F   0  0  0  0  0  0  0  0  0  0  0  0
   37.4580   30.8700   46.4790 C   0  0  0  0  0  0  0  0  0  0  0  0
   38.8060   30.6150   45.8670 C   0  0  0  0  0  0  0  0  0  0  0  0
   39.0113   31.7755   50.8357 H   0  0  0  0  0  0  0  0  0  0  0  0
   39.2840   31.9800   48.3554 H   0  0  0  0  0  0  0  0  0  0  0  0
   36.7630   30.0957   46.1221 H   0  0  0  0  0  0  0  0  0  0  0  0
   37.1538   31.8820   46.1736 H   0  0  0  0  0  0  0  0  0  0  0  0
   39.5502   30.4742   46.6647 H   0  0  0  0  0  0  0  0  0  0  0  0
   38.7605   29.7095   45.2441 H   0  0  0  0  0  0  0  0  0  0  0  0
   39.0944   31.4745   45.2441 H   0  0  0  0  0  0  0  0  0  0  0  0
  1  6  2  0
  2  1  1  0
  3  4  1  0
  3  2  2  0
  4  5  2  0
  5  7  1  0
  5  6  1  0
  7  8  1  0
  9  7  1  0
 10  7  1  0
 11  3  1  0
 12 11  1  0
  1 13  1  0
  2 14  1  0
 11 15  1  0
 11 16  1  0
 12 17  1  0
 12 18  1  0
 12 19  1  0
M  ISO  7  13  14  14  14  15   8  16   8  17   8  18   8  19   8
M  END
>  <minimizedAffinity>  (1) 
-4.59561777

>  <minimizedRMSD>  (1) 
0.632923126

$$$$
