
     RDKit          3D

 30 31  0  0  1  0  0  0  0  0999 V2000
   37.5920   31.0980   47.8490 N   0  0  0  0  0  0  0  0  0  0  0  0
   37.1390   30.8100   46.4940 C   0  0  0  0  0  0  0  0  0  0  0  0
   38.0880   31.2910   45.4580 C   0  0  0  0  0  0  0  0  0  0  0  0
   39.4110   31.4040   45.9900 N   0  0  0  0  0  0  0  0  0  0  0  0
   39.3640   32.5250   46.9260 C   0  0  0  0  0  0  0  0  0  0  0  0
   38.7010   31.9930   48.1680 C   0  0  1  0  0  0  0  0  0  0  0  0
   37.6400   29.8790   50.0100 C   0  0  0  0  0  0  0  0  0  0  0  0
   36.9410   30.4910   48.9610 C   0  0  0  0  0  0  0  0  0  0  0  0
   35.5360   30.5000   49.0230 C   0  0  0  0  0  0  0  0  0  0  0  0
   34.9390   29.9030   50.1150 N   0  0  0  0  0  0  0  0  0  0  0  0
   35.6770   29.3290   51.0950 C   0  0  0  0  0  0  0  0  0  0  0  0
   37.0180   29.3060   51.0610 N   0  0  0  0  0  0  0  0  0  0  0  0
   38.2250   33.0790   49.0880 C   0  0  0  0  0  0  0  0  0  0  0  0
   39.3310   34.0550   49.4310 C   0  0  0  0  0  0  0  0  0  0  0  0
   37.0220   29.7216   46.3859 H   0  0  0  0  0  0  0  0  0  0  0  0
   36.1862   31.3386   46.3428 H   0  0  0  0  0  0  0  0  0  0  0  0
   37.7591   32.2772   45.0985 H   0  0  0  0  0  0  0  0  0  0  0  0
   38.1027   30.5656   44.6312 H   0  0  0  0  0  0  0  0  0  0  0  0
   39.6768   30.5377   46.4797 H   0  0  0  0  0  0  0  0  0  0  0  0
   40.3810   32.8761   47.1549 H   0  0  0  0  0  0  0  0  0  0  0  0
   38.8133   33.3801   46.5071 H   0  0  0  0  0  0  0  0  0  0  0  0
   39.4805   31.4240   48.6958 H   0  0  0  0  0  0  0  0  0  0  0  0
   38.7394   29.8653   49.9751 H   0  0  0  0  0  0  0  0  0  0  0  0
   34.9340   30.9664   48.2292 H   0  0  0  0  0  0  0  0  0  0  0  0
   35.1592   28.8659   51.9479 H   0  0  0  0  0  0  0  0  0  0  0  0
   37.4068   33.6269   48.5977 H   0  0  0  0  0  0  0  0  0  0  0  0
   37.8841   32.6087   50.0221 H   0  0  0  0  0  0  0  0  0  0  0  0
   39.4227   34.1359   50.5242 H   0  0  0  0  0  0  0  0  0  0  0  0
   40.2811   33.6956   49.0090 H   0  0  0  0  0  0  0  0  0  0  0  0
   39.0926   35.0424   49.0090 H   0  0  0  0  0  0  0  0  0  0  0  0
  1  6  1  0
  1  8  1  0
  2  1  1  0
  3  4  1  0
  3  2  1  0
  4  5  1  0
  5  6  1  0
  6 13  1  0
  7 12  2  0
  8  9  2  0
  8  7  1  0
  9 10  1  0
 10 11  2  0
 12 11  1  0
 13 14  1  0
  2 15  1  0
  2 16  1  0
  3 17  1  0
  3 18  1  0
  4 19  1  0
  5 20  1  0
  5 21  1  0
  6 22  1  1
  7 23  1  0
  9 24  1  0
 11 25  1  0
 13 26  1  0
 13 27  1  0
 14 28  1  0
 14 29  1  0
 14 30  1  0
M  ISO  8  15  13  16  13  17  13  18  13  19   5  20  13  21  13  22  13
M  ISO  8  23  14  24  14  25  14  26   8  27   8  28   8  29   8  30   8
M  END
>  <minimizedAffinity>  (1) 
-4.82733393

>  <minimizedRMSD>  (1) 
0.759366572

$$$$
