
     RDKit          3D

 40 42  0  0  1  0  0  0  0  0999 V2000
   36.1330   29.1400   49.3190 C   0  0  0  0  0  0  0  0  0  0  0  0
   36.2560   30.2260   48.4660 C   0  0  0  0  0  0  0  0  0  0  0  0
   35.2760   30.3760   47.5020 C   0  0  0  0  0  0  0  0  0  0  0  0
   34.2560   29.4740   47.4320 N   0  0  0  0  0  0  0  0  0  0  0  0
   34.1740   28.4310   48.2820 C   0  0  0  0  0  0  0  0  0  0  0  0
   35.1140   28.2750   49.2180 N   0  0  0  0  0  0  0  0  0  0  0  0
   37.3460   31.1290   48.5830 N   0  0  0  0  0  0  0  0  0  0  0  0
   37.8460   31.3440   49.9410 C   0  0  0  0  0  0  0  0  0  0  0  0
   39.0070   32.2890   49.9630 C   0  0  0  0  0  0  0  0  0  0  0  0
   38.7350   33.4450   48.9950 C   0  0  0  0  0  0  0  0  0  0  0  0
   38.8400   32.8200   47.6220 C   0  0  0  0  0  0  0  0  0  0  0  0
   37.8630   31.7290   47.3920 C   0  0  1  0  0  0  0  0  0  0  0  0
   38.6210   30.6270   46.6370 C   0  0  0  0  0  0  0  0  0  0  0  0
   39.8750   31.1200   45.9970 C   0  0  0  0  0  0  0  0  0  0  0  0
   33.0770   27.4890   48.1790 C   0  0  0  0  0  0  0  0  0  0  0  0
   33.2550   26.2790   47.5400 C   0  0  0  0  0  0  0  0  0  0  0  0
   32.2500   25.3520   47.4160 C   0  0  0  0  0  0  0  0  0  0  0  0
   31.0540   25.7030   47.9660 C   0  0  0  0  0  0  0  0  0  0  0  0
   30.8230   26.9340   48.6310 C   0  0  0  0  0  0  0  0  0  0  0  0
   31.8800   27.8080   48.7140 N   0  0  0  0  0  0  0  0  0  0  0  0
   36.8921   28.9840   50.0997 H   0  0  0  0  0  0  0  0  0  0  0  0
   35.3191   31.2182   46.7957 H   0  0  0  0  0  0  0  0  0  0  0  0
   37.0357   31.7612   50.5569 H   0  0  0  0  0  0  0  0  0  0  0  0
   38.1857   30.3758   50.3375 H   0  0  0  0  0  0  0  0  0  0  0  0
   39.1397   32.6849   50.9807 H   0  0  0  0  0  0  0  0  0  0  0  0
   39.9208   31.7585   49.6571 H   0  0  0  0  0  0  0  0  0  0  0  0
   37.7294   33.8602   49.1576 H   0  0  0  0  0  0  0  0  0  0  0  0
   39.4391   34.2792   49.1304 H   0  0  0  0  0  0  0  0  0  0  0  0
   38.6703   33.6037   46.8689 H   0  0  0  0  0  0  0  0  0  0  0  0
   39.8438   32.3768   47.5444 H   0  0  0  0  0  0  0  0  0  0  0  0
   37.0068   32.1631   46.8549 H   0  0  0  0  0  0  0  0  0  0  0  0
   38.8801   29.8287   47.3480 H   0  0  0  0  0  0  0  0  0  0  0  0
   37.9620   30.2625   45.8352 H   0  0  0  0  0  0  0  0  0  0  0  0
   40.5973   31.4040   46.7765 H   0  0  0  0  0  0  0  0  0  0  0  0
   40.3048   30.3239   45.3713 H   0  0  0  0  0  0  0  0  0  0  0  0
   39.6476   31.9957   45.3713 H   0  0  0  0  0  0  0  0  0  0  0  0
   34.2419   26.0479   47.1127 H   0  0  0  0  0  0  0  0  0  0  0  0
   32.4005   24.3890   46.9060 H   0  0  0  0  0  0  0  0  0  0  0  0
   30.2194   24.9905   47.8898 H   0  0  0  0  0  0  0  0  0  0  0  0
   29.8407   27.1785   49.0615 H   0  0  0  0  0  0  0  0  0  0  0  0
  2  7  1  0
  2  1  2  0
  3  2  1  0
  4  3  2  0
  4  5  1  0
  5  6  2  0
  6  1  1  0
  7  8  1  0
  8  9  1  0
 10  9  1  0
 11 10  1  0
 12 11  1  0
 12  7  1  0
 13 12  1  0
 14 13  1  0
 15  5  1  0
 15 20  1  0
 16 15  2  0
 17 16  1  0
 17 18  2  0
 18 19  1  0
 19 20  2  0
  1 21  1  0
  3 22  1  0
  8 23  1  0
  8 24  1  0
  9 25  1  0
  9 26  1  0
 10 27  1  0
 10 28  1  0
 11 29  1  0
 11 30  1  0
 12 31  1  6
 13 32  1  0
 13 33  1  0
 14 34  1  0
 14 35  1  0
 14 36  1  0
 16 37  1  0
 17 38  1  0
 18 39  1  0
 19 40  1  0
M  ISO  8  21  14  22  14  23  13  24  13  25  13  26  13  27  13  28  13
M  ISO  8  29  13  30  13  31  13  32   8  33   8  34   8  35   8  36   8
M  ISO  4  37  14  38  14  39  14  40  14
M  END
>  <minimizedAffinity>  (1) 
-5.50831509

>  <minimizedRMSD>  (1) 
1.11816001

$$$$
