
     RDKit          3D

 28 29  0  0  0  0  0  0  0  0999 V2000
   38.0300   31.4210   47.6270 C   0  0  0  0  0  0  0  0  0  0  0  0
   37.1220   31.3600   48.6490 C   0  0  0  0  0  0  0  0  0  0  0  0
   37.2310   32.4030   49.5840 C   0  0  0  0  0  0  0  0  0  0  0  0
   38.1940   33.4020   49.4520 C   0  0  0  0  0  0  0  0  0  0  0  0
   39.0760   33.3740   48.3700 C   0  0  0  0  0  0  0  0  0  0  0  0
   38.9850   32.3650   47.4500 C   0  0  0  0  0  0  0  0  0  0  0  0
   34.9670   30.3820   48.0100 C   0  0  0  0  0  0  0  0  0  0  0  0
   36.1330   30.3380   48.7950 C   0  0  0  0  0  0  0  0  0  0  0  0
   36.2490   29.2840   49.6880 C   0  0  0  0  0  0  0  0  0  0  0  0
   35.2510   28.3590   49.7630 N   0  0  0  0  0  0  0  0  0  0  0  0
   34.1390   28.4470   48.9780 C   0  0  0  0  0  0  0  0  0  0  0  0
   34.0010   29.4730   48.0940 N   0  0  0  0  0  0  0  0  0  0  0  0
   37.4440   29.1420   50.5450 C   0  0  0  0  0  0  0  0  0  0  0  0
   37.2070   29.7330   51.9380 C   0  0  0  0  0  0  0  0  0  0  0  0
   37.9860   30.4060   46.6380 O   0  0  0  0  0  0  0  0  0  0  0  0
   39.8770   32.3590   46.3820 O   0  0  0  0  0  0  0  0  0  0  0  0
   36.5405   32.4319   50.4398 H   0  0  0  0  0  0  0  0  0  0  0  0
   38.2588   34.2088   50.1969 H   0  0  0  0  0  0  0  0  0  0  0  0
   39.8393   34.1581   48.2578 H   0  0  0  0  0  0  0  0  0  0  0  0
   34.8489   31.2076   47.2927 H   0  0  0  0  0  0  0  0  0  0  0  0
   33.3498   27.6851   49.0597 H   0  0  0  0  0  0  0  0  0  0  0  0
   37.6869   28.0739   50.6461 H   0  0  0  0  0  0  0  0  0  0  0  0
   38.2743   29.6886   50.0741 H   0  0  0  0  0  0  0  0  0  0  0  0
   37.5013   28.9990   52.7026 H   0  0  0  0  0  0  0  0  0  0  0  0
   37.8083   30.6465   52.0559 H   0  0  0  0  0  0  0  0  0  0  0  0
   36.1411   29.9779   52.0559 H   0  0  0  0  0  0  0  0  0  0  0  0
   38.6286   30.4203   45.8851 H   0  0  0  0  0  0  0  0  0  0  0  0
   40.5565   33.0744   46.3005 H   0  0  0  0  0  0  0  0  0  0  0  0
  1  2  2  0
  2  8  1  0
  2  3  1  0
  4  3  2  0
  5  4  1  0
  6  1  1  0
  6  5  2  0
  7 12  2  0
  7  8  1  0
  8  9  2  0
  9 10  1  0
  9 13  1  0
 11 10  2  0
 12 11  1  0
 13 14  1  0
 15  1  1  0
 16  6  1  0
  3 17  1  0
  4 18  1  0
  5 19  1  0
  7 20  1  0
 11 21  1  0
 13 22  1  0
 13 23  1  0
 14 24  1  0
 14 25  1  0
 14 26  1  0
 15 27  1  0
 16 28  1  0
M  ISO  8  17  14  18  14  19  14  20  14  21  14  22   8  23   8  24   8
M  ISO  4  25   8  26   8  27   3  28   3
M  END
>  <minimizedAffinity>  (1) 
-6.00408363

>  <minimizedRMSD>  (1) 
2.03475094

$$$$
