
     RDKit          3D

 25 26  0  0  0  0  0  0  0  0999 V2000
   37.4580   32.6980   49.9830 C   0  0  0  0  0  0  0  0  0  0  0  0
   38.4120   33.0620   49.0370 C   0  0  0  0  0  0  0  0  0  0  0  0
   38.4390   32.3570   47.8390 C   0  0  0  0  0  0  0  0  0  0  0  0
   37.5300   31.3540   47.6630 N   0  0  0  0  0  0  0  0  0  0  0  0
   36.6210   31.0270   48.5980 C   0  0  0  0  0  0  0  0  0  0  0  0
   36.5840   31.7010   49.7640 N   0  0  0  0  0  0  0  0  0  0  0  0
   35.6710   29.9450   48.3610 C   0  0  0  0  0  0  0  0  0  0  0  0
   35.4330   29.0080   49.3330 C   0  0  0  0  0  0  0  0  0  0  0  0
   34.5410   27.9740   49.1370 C   0  0  0  0  0  0  0  0  0  0  0  0
   33.9090   27.9460   47.9110 C   0  0  0  0  0  0  0  0  0  0  0  0
   34.1250   28.8770   46.9010 C   0  0  0  0  0  0  0  0  0  0  0  0
   35.0220   29.8660   47.1760 N   0  0  0  0  0  0  0  0  0  0  0  0
   39.3910   34.1430   49.2250 C   0  0  0  0  0  0  0  0  0  0  0  0
   40.2050   34.4070   47.9750 C   0  0  0  0  0  0  0  0  0  0  0  0
   37.4184   33.2425   50.9380 H   0  0  0  0  0  0  0  0  0  0  0  0
   39.1718   32.6005   47.0556 H   0  0  0  0  0  0  0  0  0  0  0  0
   35.9661   29.0824   50.2923 H   0  0  0  0  0  0  0  0  0  0  0  0
   34.3455   27.2176   49.9114 H   0  0  0  0  0  0  0  0  0  0  0  0
   33.1891   27.1364   47.7205 H   0  0  0  0  0  0  0  0  0  0  0  0
   33.6019   28.8188   45.9351 H   0  0  0  0  0  0  0  0  0  0  0  0
   38.8535   35.0632   49.4977 H   0  0  0  0  0  0  0  0  0  0  0  0
   40.0860   33.8325   50.0191 H   0  0  0  0  0  0  0  0  0  0  0  0
   41.2160   34.7349   48.2583 H   0  0  0  0  0  0  0  0  0  0  0  0
   40.2721   33.4846   47.3795 H   0  0  0  0  0  0  0  0  0  0  0  0
   39.7179   35.1932   47.3795 H   0  0  0  0  0  0  0  0  0  0  0  0
  2 13  1  0
  2  1  2  0
  3  2  1  0
  4  3  2  0
  4  5  1  0
  5  6  2  0
  6  1  1  0
  7  5  1  0
  7  8  2  0
  9  8  1  0
 10  9  2  0
 11 12  2  0
 11 10  1  0
 12  7  1  0
 14 13  1  0
  1 15  1  0
  3 16  1  0
  8 17  1  0
  9 18  1  0
 10 19  1  0
 11 20  1  0
 13 21  1  0
 13 22  1  0
 14 23  1  0
 14 24  1  0
 14 25  1  0
M  ISO  8  15  14  16  14  17  14  18  14  19  14  20  14  21   8  22   8
M  ISO  3  23   8  24   8  25   8
M  END
>  <minimizedAffinity>  (1) 
-5.03089094

>  <minimizedRMSD>  (1) 
0.828540087

$$$$
