
     RDKit          3D

 43 45  0  0  1  0  0  0  0  0999 V2000
   39.3200   32.1010   45.7480 O   0  0  0  0  0  0  0  0  0  0  0  0
   39.7950   31.8340   44.7240 C   0  0  1  0  0  0  0  0  0  0  0  0
   38.5560   30.8960   44.2350 C   0  0  0  0  0  0  0  0  0  0  0  0
   39.3240   29.7360   43.9640 C   0  0  0  0  0  0  0  0  0  0  0  0
   40.2100   29.9810   42.7420 C   0  0  0  0  0  0  0  0  0  0  0  0
   40.0950   31.4020   42.3280 C   0  0  0  0  0  0  0  0  0  0  0  0
   40.1520   32.3550   43.4980 C   0  0  1  0  0  0  0  0  0  0  0  0
   39.3250   33.5640   43.0310 C   0  0  0  0  0  0  0  0  0  0  0  0
   38.8450   33.4320   41.6410 C   0  0  0  0  0  0  0  0  0  0  0  0
   37.6390   29.9700   47.0240 Cl  0  0  0  0  0  0  0  0  0  0  0  0
   38.1800   31.4330   47.7460 C   0  0  0  0  0  0  0  0  0  0  0  0
   37.8320   31.7050   49.0260 C   0  0  0  0  0  0  0  0  0  0  0  0
   38.3500   32.8860   49.5620 C   0  0  0  0  0  0  0  0  0  0  0  0
   39.1690   33.6940   48.7850 C   0  0  0  0  0  0  0  0  0  0  0  0
   39.4920   33.3900   47.5050 C   0  0  0  0  0  0  0  0  0  0  0  0
   38.9790   32.2640   47.0210 C   0  0  0  0  0  0  0  0  0  0  0  0
   37.3520   30.2360   50.9720 C   0  0  0  0  0  0  0  0  0  0  0  0
   36.9170   30.8880   49.8230 C   0  0  0  0  0  0  0  0  0  0  0  0
   35.5710   30.7390   49.4530 C   0  0  0  0  0  0  0  0  0  0  0  0
   34.7630   29.9760   50.2160 N   0  0  0  0  0  0  0  0  0  0  0  0
   35.2170   29.3620   51.3160 C   0  0  0  0  0  0  0  0  0  0  0  0
   36.5020   29.4850   51.7010 N   0  0  0  0  0  0  0  0  0  0  0  0
   40.8371   31.7972   45.0743 H   0  0  0  0  0  0  0  0  0  0  0  0
   37.8112   30.7334   45.0279 H   0  0  0  0  0  0  0  0  0  0  0  0
   37.9364   31.2830   43.4126 H   0  0  0  0  0  0  0  0  0  0  0  0
   39.9561   29.5040   44.8338 H   0  0  0  0  0  0  0  0  0  0  0  0
   38.6498   28.8905   43.7627 H   0  0  0  0  0  0  0  0  0  0  0  0
   41.2564   29.7561   42.9960 H   0  0  0  0  0  0  0  0  0  0  0  0
   39.8865   29.3299   41.9165 H   0  0  0  0  0  0  0  0  0  0  0  0
   40.9220   31.6369   41.6418 H   0  0  0  0  0  0  0  0  0  0  0  0
   39.1161   31.5291   41.8427 H   0  0  0  0  0  0  0  0  0  0  0  0
   41.1902   32.6318   43.7338 H   0  0  0  0  0  0  0  0  0  0  0  0
   38.4538   33.6701   43.6942 H   0  0  0  0  0  0  0  0  0  0  0  0
   39.9807   34.4463   43.0704 H   0  0  0  0  0  0  0  0  0  0  0  0
   37.7844   33.1403   41.6455 H   0  0  0  0  0  0  0  0  0  0  0  0
   38.9584   34.3947   41.1210 H   0  0  0  0  0  0  0  0  0  0  0  0
   39.4347   32.6627   41.1210 H   0  0  0  0  0  0  0  0  0  0  0  0
   38.1100   33.1749   50.5959 H   0  0  0  0  0  0  0  0  0  0  0  0
   39.5716   34.6177   49.2262 H   0  0  0  0  0  0  0  0  0  0  0  0
   40.1425   34.0390   46.9003 H   0  0  0  0  0  0  0  0  0  0  0  0
   38.4007   30.3341   51.2893 H   0  0  0  0  0  0  0  0  0  0  0  0
   35.1812   31.2377   48.5534 H   0  0  0  0  0  0  0  0  0  0  0  0
   34.5293   28.7471   51.9151 H   0  0  0  0  0  0  0  0  0  0  0  0
  1 16  1  0
  2  1  1  0
  3  2  1  0
  4  3  1  0
  5  4  1  0
  6  5  1  0
  6  7  1  0
  7  2  1  0
  8  7  1  0
  9  8  1  0
 10 11  1  0
 11 12  2  0
 12 13  1  0
 12 18  1  0
 14 13  2  0
 15 14  1  0
 16 15  2  0
 16 11  1  0
 17 22  2  0
 18 17  1  0
 19 18  2  0
 19 20  1  0
 20 21  2  0
 21 22  1  0
  2 23  1  1
  3 24  1  0
  3 25  1  0
  4 26  1  0
  4 27  1  0
  5 28  1  0
  5 29  1  0
  6 30  1  0
  6 31  1  0
  7 32  1  1
  8 33  1  0
  8 34  1  0
  9 35  1  0
  9 36  1  0
  9 37  1  0
 13 38  1  0
 14 39  1  0
 15 40  1  0
 17 41  1  0
 19 42  1  0
 21 43  1  0
M  ISO  8  23  13  24  13  25  13  26  13  27  13  28  13  29  13  30  13
M  ISO  8  31  13  32  13  33   8  34   8  35   8  36   8  37   8  38  14
M  ISO  5  39  14  40  14  41  14  42  14  43  14
M  END
>  <minimizedAffinity>  (1) 
-5.60621023

>  <minimizedRMSD>  (1) 
0.894006431

$$$$
