
     RDKit          3D

 23 24  0  0  1  0  0  0  0  0999 V2000
   36.1900   30.6170   49.9200 C   0  0  1  0  0  0  0  0  0  0  0  0
   35.9470   29.2060   49.6410 C   0  0  1  0  0  0  0  0  0  0  0  0
   36.7850   29.5620   50.8400 C   0  0  0  0  0  0  0  0  0  0  0  0
   37.2500   31.3810   49.1590 C   0  0  0  0  0  0  0  0  0  0  0  0
   37.5840   32.6610   49.6380 C   0  0  0  0  0  0  0  0  0  0  0  0
   38.5460   33.3410   48.9130 C   0  0  0  0  0  0  0  0  0  0  0  0
   39.1030   32.7790   47.8180 N   0  0  0  0  0  0  0  0  0  0  0  0
   38.7610   31.5420   47.3780 C   0  0  0  0  0  0  0  0  0  0  0  0
   37.8200   30.8390   48.0650 N   0  0  0  0  0  0  0  0  0  0  0  0
   34.6150   28.5470   49.7900 C   0  0  0  0  0  0  0  0  0  0  0  0
   34.3060   27.8100   48.4820 C   0  0  0  0  0  0  0  0  0  0  0  0
   35.5036   31.4740   49.9865 H   0  0  0  0  0  0  0  0  0  0  0  0
   36.0855   28.5795   48.7475 H   0  0  0  0  0  0  0  0  0  0  0  0
   37.8680   29.3696   50.8389 H   0  0  0  0  0  0  0  0  0  0  0  0
   36.7567   29.3450   51.9180 H   0  0  0  0  0  0  0  0  0  0  0  0
   37.1105   33.0933   50.5318 H   0  0  0  0  0  0  0  0  0  0  0  0
   38.8597   34.3464   49.2303 H   0  0  0  0  0  0  0  0  0  0  0  0
   39.2357   31.1151   46.4822 H   0  0  0  0  0  0  0  0  0  0  0  0
   34.6433   27.8312   50.6248 H   0  0  0  0  0  0  0  0  0  0  0  0
   33.8378   29.2964   50.0008 H   0  0  0  0  0  0  0  0  0  0  0  0
   33.8899   26.8175   48.7098 H   0  0  0  0  0  0  0  0  0  0  0  0
   33.5749   28.3891   47.8988 H   0  0  0  0  0  0  0  0  0  0  0  0
   35.2315   27.6945   47.8988 H   0  0  0  0  0  0  0  0  0  0  0  0
  1  3  1  0
  2 10  1  0
  2  1  1  0
  2  3  1  0
  4  5  2  0
  4  1  1  0
  6  5  1  0
  7  6  2  0
  8  7  1  0
  8  9  2  0
  9  4  1  0
 11 10  1  0
  1 12  1  1
  2 13  1  6
  3 14  1  0
  3 15  1  0
  5 16  1  0
  6 17  1  0
  8 18  1  0
 10 19  1  0
 10 20  1  0
 11 21  1  0
 11 22  1  0
 11 23  1  0
M  ISO  8  12  13  13  13  14  13  15  13  16  14  17  14  18  14  19   8
M  ISO  4  20   8  21   8  22   8  23   8
M  END
>  <minimizedAffinity>  (1) 
-4.71310091

>  <minimizedRMSD>  (1) 
0.549258947

$$$$
