
     RDKit          3D

 32 33  0  0  1  0  0  0  0  0999 V2000
   35.5630   30.7130   48.3810 C   0  0  2  0  0  0  0  0  0  0  0  0
   36.5800   30.7830   47.2580 C   0  0  0  0  0  0  0  0  0  0  0  0
   37.9770   30.5410   47.7660 C   0  0  0  0  0  0  0  0  0  0  0  0
   38.3330   31.5650   48.8210 C   0  0  0  0  0  0  0  0  0  0  0  0
   37.2470   31.7800   49.8440 C   0  0  0  0  0  0  0  0  0  0  0  0
   36.1620   30.7200   49.7370 C   0  0  2  0  0  0  0  0  0  0  0  0
   34.6830   29.5640   48.1990 C   0  0  0  0  0  0  0  0  0  0  0  0
   34.6730   28.8420   47.0010 C   0  0  0  0  0  0  0  0  0  0  0  0
   33.8450   27.7390   46.8730 C   0  0  0  0  0  0  0  0  0  0  0  0
   33.0670   27.4080   47.9390 N   0  0  0  0  0  0  0  0  0  0  0  0
   33.0780   28.1170   49.1050 C   0  0  0  0  0  0  0  0  0  0  0  0
   33.8870   29.1550   49.1660 N   0  0  0  0  0  0  0  0  0  0  0  0
   36.5270   29.4800   50.4410 C   0  0  0  0  0  0  0  0  0  0  0  0
   37.2350   29.7840   51.7950 C   0  0  0  0  0  0  0  0  0  0  0  0
   34.9712   31.6382   48.3188 H   0  0  0  0  0  0  0  0  0  0  0  0
   36.5349   31.7802   46.7960 H   0  0  0  0  0  0  0  0  0  0  0  0
   36.3386   30.0010   46.5230 H   0  0  0  0  0  0  0  0  0  0  0  0
   38.0354   29.5333   48.2032 H   0  0  0  0  0  0  0  0  0  0  0  0
   38.6842   30.6278   46.9279 H   0  0  0  0  0  0  0  0  0  0  0  0
   39.2400   31.2258   49.3428 H   0  0  0  0  0  0  0  0  0  0  0  0
   38.4823   32.5237   48.3027 H   0  0  0  0  0  0  0  0  0  0  0  0
   37.6901   31.7375   50.8499 H   0  0  0  0  0  0  0  0  0  0  0  0
   36.7886   32.7626   49.6590 H   0  0  0  0  0  0  0  0  0  0  0  0
   35.2650   30.9615   50.3261 H   0  0  0  0  0  0  0  0  0  0  0  0
   35.3191   29.1485   46.1652 H   0  0  0  0  0  0  0  0  0  0  0  0
   33.8174   27.1519   45.9432 H   0  0  0  0  0  0  0  0  0  0  0  0
   32.4402   27.8346   49.9555 H   0  0  0  0  0  0  0  0  0  0  0  0
   35.6147   28.8975   50.6368 H   0  0  0  0  0  0  0  0  0  0  0  0
   37.2228   28.9125   49.8056 H   0  0  0  0  0  0  0  0  0  0  0  0
   36.5734   29.4999   52.6266 H   0  0  0  0  0  0  0  0  0  0  0  0
   38.1701   29.2081   51.8572 H   0  0  0  0  0  0  0  0  0  0  0  0
   37.4614   30.8586   51.8572 H   0  0  0  0  0  0  0  0  0  0  0  0
  1  6  1  0
  2  3  1  0
  2  1  1  0
  3  4  1  0
  4  5  1  0
  6  5  1  0
  6 13  1  0
  7  1  1  0
  7 12  1  0
  8  7  2  0
  9  8  1  0
  9 10  2  0
 10 11  1  0
 11 12  2  0
 13 14  1  0
  1 15  1  1
  2 16  1  0
  2 17  1  0
  3 18  1  0
  3 19  1  0
  4 20  1  0
  4 21  1  0
  5 22  1  0
  5 23  1  0
  6 24  1  1
  8 25  1  0
  9 26  1  0
 11 27  1  0
 13 28  1  0
 13 29  1  0
 14 30  1  0
 14 31  1  0
 14 32  1  0
M  ISO  8  15  13  16  13  17  13  18  13  19  13  20  13  21  13  22  13
M  ISO  8  23  13  24  13  25  14  26  14  27  14  28   8  29   8  30   8
M  ISO  2  31   8  32   8
M  END
>  <minimizedAffinity>  (1) 
-4.94030333

>  <minimizedRMSD>  (1) 
1.73094487

$$$$
