
     RDKit          3D

 38 40  0  0  0  0  0  0  0  0999 V2000
   35.0830   29.6190   47.5570 C   0  0  0  0  0  0  0  0  0  0  0  0
   35.2400   30.0450   46.2520 C   0  0  0  0  0  0  0  0  0  0  0  0
   34.2090   29.8960   45.3410 C   0  0  0  0  0  0  0  0  0  0  0  0
   33.0560   29.3250   45.7830 N   0  0  0  0  0  0  0  0  0  0  0  0
   32.9220   28.9130   47.0730 C   0  0  0  0  0  0  0  0  0  0  0  0
   33.9280   29.0540   47.9700 N   0  0  0  0  0  0  0  0  0  0  0  0
   36.1110   29.7460   48.5410 N   0  0  0  0  0  0  0  0  0  0  0  0
   36.1740   28.8860   49.7200 C   0  0  0  0  0  0  0  0  0  0  0  0
   36.4690   29.5980   50.9930 C   0  0  0  0  0  0  0  0  0  0  0  0
   37.2020   30.8060   50.9310 N   0  0  0  0  0  0  0  0  0  0  0  0
   36.9430   31.6000   49.7360 C   0  0  0  0  0  0  0  0  0  0  0  0
   37.1880   30.6640   48.5560 C   0  0  0  0  0  0  0  0  0  0  0  0
   31.6680   28.3040   47.5010 C   0  0  0  0  0  0  0  0  0  0  0  0
   31.6430   27.4170   48.5420 C   0  0  0  0  0  0  0  0  0  0  0  0
   30.4710   26.8140   48.9830 C   0  0  0  0  0  0  0  0  0  0  0  0
   29.3320   27.1590   48.3160 N   0  0  0  0  0  0  0  0  0  0  0  0
   29.3740   28.0400   47.2890 C   0  0  0  0  0  0  0  0  0  0  0  0
   30.5310   28.6040   46.8880 N   0  0  0  0  0  0  0  0  0  0  0  0
   28.1410   28.4000   46.5790 C   0  0  0  0  0  0  0  0  0  0  0  0
   26.9580   27.8220   47.3220 C   0  0  0  0  0  0  0  0  0  0  0  0
   36.1882   30.5044   45.9360 H   0  0  0  0  0  0  0  0  0  0  0  0
   34.3178   30.2271   44.2977 H   0  0  0  0  0  0  0  0  0  0  0  0
   35.2033   28.3798   49.8273 H   0  0  0  0  0  0  0  0  0  0  0  0
   37.0087   28.1894   49.5526 H   0  0  0  0  0  0  0  0  0  0  0  0
   35.5043   29.8265   51.4695 H   0  0  0  0  0  0  0  0  0  0  0  0
   37.1267   28.9092   51.5433 H   0  0  0  0  0  0  0  0  0  0  0  0
   36.9595   31.3740   51.7553 H   0  0  0  0  0  0  0  0  0  0  0  0
   35.9030   31.9582   49.7317 H   0  0  0  0  0  0  0  0  0  0  0  0
   37.5908   32.4879   49.6907 H   0  0  0  0  0  0  0  0  0  0  0  0
   38.1408   30.1299   48.6860 H   0  0  0  0  0  0  0  0  0  0  0  0
   37.2474   31.2230   47.6105 H   0  0  0  0  0  0  0  0  0  0  0  0
   32.5873   27.1714   49.0499 H   0  0  0  0  0  0  0  0  0  0  0  0
   30.4623   26.1007   49.8204 H   0  0  0  0  0  0  0  0  0  0  0  0
   28.0483   29.4951   46.5331 H   0  0  0  0  0  0  0  0  0  0  0  0
   28.1702   27.9968   45.5560 H   0  0  0  0  0  0  0  0  0  0  0  0
   27.1290   27.9056   48.4054 H   0  0  0  0  0  0  0  0  0  0  0  0
   26.0478   28.3769   47.0506 H   0  0  0  0  0  0  0  0  0  0  0  0
   26.8364   26.7630   47.0506 H   0  0  0  0  0  0  0  0  0  0  0  0
  1  6  1  0
  1  7  1  0
  2  1  2  0
  3  4  2  0
  3  2  1  0
  4  5  1  0
  5 13  1  0
  5  6  2  0
  7 12  1  0
  7  8  1  0
  8  9  1  0
 10  9  1  0
 11 10  1  0
 12 11  1  0
 13 14  2  0
 14 15  1  0
 16 15  2  0
 17 16  1  0
 18 17  2  0
 18 13  1  0
 19 17  1  0
 19 20  1  0
  2 21  1  0
  3 22  1  0
  8 23  1  0
  8 24  1  0
  9 25  1  0
  9 26  1  0
 10 27  1  0
 11 28  1  0
 11 29  1  0
 12 30  1  0
 12 31  1  0
 14 32  1  0
 15 33  1  0
 19 34  1  0
 19 35  1  0
 20 36  1  0
 20 37  1  0
 20 38  1  0
M  ISO  8  21  14  22  14  23  13  24  13  25  13  26  13  27   5  28  13
M  ISO  8  29  13  30  13  31  13  32  14  33  14  34   8  35   8  36   8
M  ISO  2  37   8  38   8
M  END
>  <minimizedAffinity>  (1) 
-4.74916172

>  <minimizedRMSD>  (1) 
0.370811909

$$$$
