
     RDKit          3D

 31 32  0  0  0  0  0  0  0  0999 V2000
   33.7770   28.6260   48.7180 C   0  0  0  0  0  0  0  0  0  0  0  0
   32.8710   27.4740   48.3650 C   0  0  0  0  0  0  0  0  0  0  0  0
   31.4500   27.8780   48.2880 C   0  0  0  0  0  0  0  0  0  0  0  0
   30.6870   27.7220   49.4310 C   0  0  0  0  0  0  0  0  0  0  0  0
   29.3560   28.0690   49.4600 C   0  0  0  0  0  0  0  0  0  0  0  0
   28.7620   28.5700   48.3690 N   0  0  0  0  0  0  0  0  0  0  0  0
   29.5230   28.7210   47.2490 C   0  0  0  0  0  0  0  0  0  0  0  0
   30.8210   28.3900   47.2000 N   0  0  0  0  0  0  0  0  0  0  0  0
   34.6710   28.2330   49.7520 O   0  0  0  0  0  0  0  0  0  0  0  0
   37.2910   30.1940   51.3130 C   0  0  0  0  0  0  0  0  0  0  0  0
   37.9580   30.6660   50.1590 C   0  0  0  0  0  0  0  0  0  0  0  0
   37.4580   30.2750   48.9230 C   0  0  0  0  0  0  0  0  0  0  0  0
   36.3610   29.4650   48.8920 N   0  0  0  0  0  0  0  0  0  0  0  0
   35.7520   29.0360   50.0150 C   0  0  0  0  0  0  0  0  0  0  0  0
   36.2310   29.4100   51.2110 N   0  0  0  0  0  0  0  0  0  0  0  0
   38.1020   30.7290   47.6410 C   0  0  0  0  0  0  0  0  0  0  0  0
   38.7750   32.0690   47.7880 C   0  0  0  0  0  0  0  0  0  0  0  0
   33.1701   29.4762   49.0628 H   0  0  0  0  0  0  0  0  0  0  0  0
   34.3546   28.9209   47.8295 H   0  0  0  0  0  0  0  0  0  0  0  0
   33.1770   27.0701   47.3886 H   0  0  0  0  0  0  0  0  0  0  0  0
   32.9627   26.7191   49.1598 H   0  0  0  0  0  0  0  0  0  0  0  0
   31.1551   27.3111   50.3377 H   0  0  0  0  0  0  0  0  0  0  0  0
   28.7760   27.9342   50.3849 H   0  0  0  0  0  0  0  0  0  0  0  0
   29.0512   29.1329   46.3447 H   0  0  0  0  0  0  0  0  0  0  0  0
   37.6587   30.4828   52.3087 H   0  0  0  0  0  0  0  0  0  0  0  0
   38.8401   31.3186   50.2369 H   0  0  0  0  0  0  0  0  0  0  0  0
   37.3283   30.8042   46.8627 H   0  0  0  0  0  0  0  0  0  0  0  0
   38.8716   29.9916   47.3690 H   0  0  0  0  0  0  0  0  0  0  0  0
   38.8934   32.3047   48.8559 H   0  0  0  0  0  0  0  0  0  0  0  0
   39.7641   32.0372   47.3077 H   0  0  0  0  0  0  0  0  0  0  0  0
   38.1589   32.8434   47.3077 H   0  0  0  0  0  0  0  0  0  0  0  0
  1  9  1  0
  2  1  1  0
  3  2  1  0
  3  4  2  0
  4  5  1  0
  6  5  2  0
  7  6  1  0
  8  7  2  0
  8  3  1  0
  9 14  1  0
 11 10  2  0
 12 11  1  0
 13 12  2  0
 13 14  1  0
 14 15  2  0
 15 10  1  0
 16 17  1  0
 16 12  1  0
  1 18  1  0
  1 19  1  0
  2 20  1  0
  2 21  1  0
  4 22  1  0
  5 23  1  0
  7 24  1  0
 10 25  1  0
 11 26  1  0
 16 27  1  0
 16 28  1  0
 17 29  1  0
 17 30  1  0
 17 31  1  0
M  ISO  8  18   8  19   8  20   8  21   8  22  14  23  14  24  14  25  14
M  ISO  6  26  14  27   8  28   8  29   8  30   8  31   8
M  END
>  <minimizedAffinity>  (1) 
-4.98013783

>  <minimizedRMSD>  (1) 
0.276130199

$$$$
