
     RDKit          3D

 38 41  0  0  0  0  0  0  0  0999 V2000
   36.4340   30.4820   46.1850 C   0  0  0  0  0  0  0  0  0  0  0  0
   37.0340   30.8600   47.3350 C   0  0  0  0  0  0  0  0  0  0  0  0
   36.4000   30.6620   48.5570 C   0  0  0  0  0  0  0  0  0  0  0  0
   35.1430   30.0700   48.5570 C   0  0  0  0  0  0  0  0  0  0  0  0
   34.5280   29.6800   47.3560 C   0  0  0  0  0  0  0  0  0  0  0  0
   35.2050   29.9060   46.2150 N   0  0  0  0  0  0  0  0  0  0  0  0
   37.1130   30.6910   44.8520 C   0  0  0  0  0  0  0  0  0  0  0  0
   36.8070   29.7490   43.7500 C   0  0  0  0  0  0  0  0  0  0  0  0
   36.2460   31.1360   43.7050 C   0  0  0  0  0  0  0  0  0  0  0  0
   39.7370   33.2810   45.0760 C   0  0  0  0  0  0  0  0  0  0  0  0
   40.8980   32.5210   45.2900 C   0  0  0  0  0  0  0  0  0  0  0  0
   40.7640   31.1220   45.3560 C   0  0  0  0  0  0  0  0  0  0  0  0
   39.5330   30.5810   45.2100 N   0  0  0  0  0  0  0  0  0  0  0  0
   38.4240   31.3480   45.0020 C   0  0  0  0  0  0  0  0  0  0  0  0
   38.5270   32.6830   44.9370 N   0  0  0  0  0  0  0  0  0  0  0  0
   33.2070   29.0540   47.3100 C   0  0  0  0  0  0  0  0  0  0  0  0
   32.2290   29.1400   46.3550 N   0  0  0  0  0  0  0  0  0  0  0  0
   31.1850   28.3640   46.7890 C   0  0  0  0  0  0  0  0  0  0  0  0
   31.5190   27.8210   47.9770 N   0  0  0  0  0  0  0  0  0  0  0  0
   32.7420   28.2370   48.2950 N   0  0  0  0  0  0  0  0  0  0  0  0
   30.7970   26.9330   48.8660 C   0  0  0  0  0  0  0  0  0  0  0  0
   29.9890   27.8000   49.8070 C   0  0  0  0  0  0  0  0  0  0  0  0
   38.0295   31.3270   47.3047 H   0  0  0  0  0  0  0  0  0  0  0  0
   36.8809   30.9660   49.4984 H   0  0  0  0  0  0  0  0  0  0  0  0
   34.6219   29.9043   49.5115 H   0  0  0  0  0  0  0  0  0  0  0  0
   37.5984   29.4548   43.0449 H   0  0  0  0  0  0  0  0  0  0  0  0
   36.3768   28.7382   43.6933 H   0  0  0  0  0  0  0  0  0  0  0  0
   36.6283   31.8630   42.9733 H   0  0  0  0  0  0  0  0  0  0  0  0
   35.2404   31.5708   43.6067 H   0  0  0  0  0  0  0  0  0  0  0  0
   39.8094   34.3772   45.0202 H   0  0  0  0  0  0  0  0  0  0  0  0
   41.8801   33.0035   45.4024 H   0  0  0  0  0  0  0  0  0  0  0  0
   41.6424   30.4813   45.5229 H   0  0  0  0  0  0  0  0  0  0  0  0
   30.2345   28.2103   46.2571 H   0  0  0  0  0  0  0  0  0  0  0  0
   30.1273   26.2815   48.2854 H   0  0  0  0  0  0  0  0  0  0  0  0
   31.4931   26.2921   49.4270 H   0  0  0  0  0  0  0  0  0  0  0  0
   30.2329   27.5383   50.8472 H   0  0  0  0  0  0  0  0  0  0  0  0
   30.2304   28.8583   49.6289 H   0  0  0  0  0  0  0  0  0  0  0  0
   28.9163   27.6336   49.6289 H   0  0  0  0  0  0  0  0  0  0  0  0
  1  6  1  0
  1  2  2  0
  2  3  1  0
  4  3  2  0
  5  4  1  0
  6  5  2  0
  7 14  1  0
  7  1  1  0
  8  7  1  0
  9  8  1  0
  9  7  1  0
 10 11  2  0
 11 12  1  0
 13 12  2  0
 14 13  1  0
 15 14  2  0
 15 10  1  0
 16  5  1  0
 16 20  2  0
 17 18  2  0
 17 16  1  0
 18 19  1  0
 19 20  1  0
 19 21  1  0
 21 22  1  0
  2 23  1  0
  3 24  1  0
  4 25  1  0
  8 26  1  0
  8 27  1  0
  9 28  1  0
  9 29  1  0
 10 30  1  0
 11 31  1  0
 12 32  1  0
 18 33  1  0
 21 34  1  0
 21 35  1  0
 22 36  1  0
 22 37  1  0
 22 38  1  0
M  ISO  8  23  14  24  14  25  14  26  13  27  13  28  13  29  13  30  14
M  ISO  8  31  14  32  14  33  14  34   8  35   8  36   8  37   8  38   8
M  END
>  <minimizedAffinity>  (1) 
-5.36653042

>  <minimizedRMSD>  (1) 
0.297037393

$$$$
