
     RDKit          3D

 23 23  0  0  0  0  0  0  0  0999 V2000
   37.6570   30.5200   47.7540 C   0  0  0  0  0  0  0  0  0  0  0  0
   37.0450   29.4040   51.2970 C   0  0  0  0  0  0  0  0  0  0  0  0
   37.7380   29.8020   50.1570 C   0  0  0  0  0  0  0  0  0  0  0  0
   37.0280   30.0960   49.0210 C   0  0  0  0  0  0  0  0  0  0  0  0
   35.6670   29.9870   49.0560 N   0  0  0  0  0  0  0  0  0  0  0  0
   35.0080   29.5980   50.1770 C   0  0  0  0  0  0  0  0  0  0  0  0
   35.7050   29.3040   51.3040 N   0  0  0  0  0  0  0  0  0  0  0  0
   38.7530   31.5410   48.0060 C   0  0  0  0  0  0  0  0  0  0  0  0
   38.1200   32.9340   48.9390 S   0  0  0  0  0  0  0  0  0  0  0  0
   39.3830   34.1410   49.3270 C   0  0  0  0  0  0  0  0  0  0  0  0
   40.2250   34.5510   48.1400 C   0  0  0  0  0  0  0  0  0  0  0  0
   36.8908   30.9677   47.1040 H   0  0  0  0  0  0  0  0  0  0  0  0
   38.1036   29.6379   47.2718 H   0  0  0  0  0  0  0  0  0  0  0  0
   37.6068   29.1661   52.2123 H   0  0  0  0  0  0  0  0  0  0  0  0
   38.8352   29.8793   50.1672 H   0  0  0  0  0  0  0  0  0  0  0  0
   33.9107   29.5211   50.1722 H   0  0  0  0  0  0  0  0  0  0  0  0
   39.5657   31.0652   48.5744 H   0  0  0  0  0  0  0  0  0  0  0  0
   39.1264   31.9049   47.0374 H   0  0  0  0  0  0  0  0  0  0  0  0
   38.8916   35.0390   49.7296 H   0  0  0  0  0  0  0  0  0  0  0  0
   40.0624   33.6697   50.0524 H   0  0  0  0  0  0  0  0  0  0  0  0
   41.1612   35.0069   48.4945 H   0  0  0  0  0  0  0  0  0  0  0  0
   40.4564   33.6647   47.5309 H   0  0  0  0  0  0  0  0  0  0  0  0
   39.6700   35.2797   47.5309 H   0  0  0  0  0  0  0  0  0  0  0  0
  1  8  1  0
  1  4  1  0
  2  7  2  0
  3  2  1  0
  4  5  1  0
  4  3  2  0
  5  6  2  0
  6  7  1  0
  8  9  1  0
  9 10  1  0
 11 10  1  0
  1 12  1  0
  1 13  1  0
  2 14  1  0
  3 15  1  0
  6 16  1  0
  8 17  1  0
  8 18  1  0
 10 19  1  0
 10 20  1  0
 11 21  1  0
 11 22  1  0
 11 23  1  0
M  ISO  8  12   8  13   8  14  14  15  14  16  14  17   8  18   8  19   8
M  ISO  4  20   8  21   8  22   8  23   8
M  END
>  <minimizedAffinity>  (1) 
-3.60082507

>  <minimizedRMSD>  (1) 
0.45132032

$$$$
