
     RDKit          3D

 29 30  0  0  0  0  0  0  0  0999 V2000
   34.4500   28.4170   48.0250 C   0  0  0  0  0  0  0  0  0  0  0  0
   32.9590   28.2900   47.8630 C   0  0  0  0  0  0  0  0  0  0  0  0
   32.1120   27.5980   48.6830 C   0  0  0  0  0  0  0  0  0  0  0  0
   30.8120   27.6950   48.2370 C   0  0  0  0  0  0  0  0  0  0  0  0
   30.9070   28.4720   47.1170 N   0  0  0  0  0  0  0  0  0  0  0  0
   32.1800   28.8140   46.9120 N   0  0  0  0  0  0  0  0  0  0  0  0
   29.8110   28.8820   46.2570 C   0  0  0  0  0  0  0  0  0  0  0  0
   28.6070   29.3240   47.0610 C   0  0  0  0  0  0  0  0  0  0  0  0
   34.7320   28.2990   49.4930 C   0  0  0  0  0  0  0  0  0  0  0  0
   37.2710   30.1760   51.4160 C   0  0  0  0  0  0  0  0  0  0  0  0
   38.0860   30.7200   50.4150 C   0  0  0  0  0  0  0  0  0  0  0  0
   37.7410   30.4260   49.0730 C   0  0  0  0  0  0  0  0  0  0  0  0
   36.6570   29.6460   48.8230 N   0  0  0  0  0  0  0  0  0  0  0  0
   35.9090   29.1500   49.8470 C   0  0  0  0  0  0  0  0  0  0  0  0
   36.2220   29.4180   51.1100 N   0  0  0  0  0  0  0  0  0  0  0  0
   34.7909   29.3934   47.6501 H   0  0  0  0  0  0  0  0  0  0  0  0
   34.9791   27.6389   47.4552 H   0  0  0  0  0  0  0  0  0  0  0  0
   32.4257   27.0396   49.5773 H   0  0  0  0  0  0  0  0  0  0  0  0
   29.9083   27.2505   48.6794 H   0  0  0  0  0  0  0  0  0  0  0  0
   29.5221   28.0343   45.6183 H   0  0  0  0  0  0  0  0  0  0  0  0
   30.1505   29.7338   45.6495 H   0  0  0  0  0  0  0  0  0  0  0  0
   28.8325   29.2412   48.1345 H   0  0  0  0  0  0  0  0  0  0  0  0
   28.3663   30.3691   46.8164 H   0  0  0  0  0  0  0  0  0  0  0  0
   27.7473   28.6829   46.8164 H   0  0  0  0  0  0  0  0  0  0  0  0
   33.8530   28.6345   50.0629 H   0  0  0  0  0  0  0  0  0  0  0  0
   34.9521   27.2499   49.7398 H   0  0  0  0  0  0  0  0  0  0  0  0
   37.5024   30.3790   52.4721 H   0  0  0  0  0  0  0  0  0  0  0  0
   38.9554   31.3477   50.6602 H   0  0  0  0  0  0  0  0  0  0  0  0
   38.3434   30.8244   48.2433 H   0  0  0  0  0  0  0  0  0  0  0  0
  1  9  1  0
  2  1  1  0
  2  3  1  0
  4  3  2  0
  5  4  1  0
  6  5  1  0
  6  2  2  0
  7  8  1  0
  7  5  1  0
  9 14  1  0
 11 10  2  0
 12 11  1  0
 13 12  2  0
 13 14  1  0
 14 15  2  0
 15 10  1  0
  1 16  1  0
  1 17  1  0
  3 18  1  0
  4 19  1  0
  7 20  1  0
  7 21  1  0
  8 22  1  0
  8 23  1  0
  8 24  1  0
  9 25  1  0
  9 26  1  0
 10 27  1  0
 11 28  1  0
 12 29  1  0
M  ISO  8  16   8  17   8  18  14  19  14  20   8  21   8  22   8  23   8
M  ISO  6  24   8  25   8  26   8  27  14  28  14  29  14
M  END
>  <minimizedAffinity>  (1) 
-4.37238693

>  <minimizedRMSD>  (1) 
0.337391108

$$$$
