
     RDKit          3D

 26 27  0  0  0  0  0  0  0  0999 V2000
   37.4530   29.4960   50.6290 C   0  0  0  0  0  0  0  0  0  0  0  0
   38.0860   30.7510   50.5270 C   0  0  0  0  0  0  0  0  0  0  0  0
   37.6650   31.6250   49.4900 C   0  0  0  0  0  0  0  0  0  0  0  0
   36.6790   31.1940   48.6590 N   0  0  0  0  0  0  0  0  0  0  0  0
   36.1090   29.9900   48.7970 C   0  0  0  0  0  0  0  0  0  0  0  0
   36.4840   29.1330   49.7730 N   0  0  0  0  0  0  0  0  0  0  0  0
   35.0700   29.5220   47.9300 N   0  0  0  0  0  0  0  0  0  0  0  0
   34.9690   30.0590   46.7040 C   0  0  0  0  0  0  0  0  0  0  0  0
   33.9390   29.5490   45.9340 C   0  0  0  0  0  0  0  0  0  0  0  0
   33.0660   28.5740   46.3470 C   0  0  0  0  0  0  0  0  0  0  0  0
   32.1460   28.1400   45.6190 O   0  0  0  0  0  0  0  0  0  0  0  0
   33.2160   28.0650   47.6040 N   0  0  0  0  0  0  0  0  0  0  0  0
   34.2170   28.5600   48.3520 C   0  0  0  0  0  0  0  0  0  0  0  0
   34.3950   28.1200   49.5230 O   0  0  0  0  0  0  0  0  0  0  0  0
   32.3620   27.0410   48.1460 C   0  0  0  0  0  0  0  0  0  0  0  0
   31.1160   27.6010   48.7890 C   0  0  0  0  0  0  0  0  0  0  0  0
   37.7584   28.8007   51.4248 H   0  0  0  0  0  0  0  0  0  0  0  0
   38.8810   31.0442   51.2284 H   0  0  0  0  0  0  0  0  0  0  0  0
   38.1215   32.6178   49.3632 H   0  0  0  0  0  0  0  0  0  0  0  0
   35.6507   30.8420   46.3406 H   0  0  0  0  0  0  0  0  0  0  0  0
   33.8107   29.9535   44.9192 H   0  0  0  0  0  0  0  0  0  0  0  0
   32.0639   26.3641   47.3318 H   0  0  0  0  0  0  0  0  0  0  0  0
   32.9301   26.5135   48.9264 H   0  0  0  0  0  0  0  0  0  0  0  0
   31.2163   27.5559   49.8835 H   0  0  0  0  0  0  0  0  0  0  0  0
   30.9802   28.6467   48.4760 H   0  0  0  0  0  0  0  0  0  0  0  0
   30.2438   27.0083   48.4760 H   0  0  0  0  0  0  0  0  0  0  0  0
  2  1  2  0
  3  2  1  0
  4  5  1  0
  4  3  2  0
  5  6  2  0
  6  1  1  0
  7 13  1  0
  7  5  1  0
  8  7  1  0
  9 10  1  0
  9  8  2  0
 10 12  1  0
 11 10  2  0
 12 15  1  0
 12 13  1  0
 13 14  2  0
 15 16  1  0
  1 17  1  0
  2 18  1  0
  3 19  1  0
  8 20  1  0
  9 21  1  0
 15 22  1  0
 15 23  1  0
 16 24  1  0
 16 25  1  0
 16 26  1  0
M  ISO  8  17  14  18  14  19  14  20  14  21  14  22   8  23   8  24   8
M  ISO  2  25   8  26   8
M  END
>  <minimizedAffinity>  (1) 
-4.69762373

>  <minimizedRMSD>  (1) 
1.6252712

$$$$
