
     RDKit          3D

 43 45  0  0  1  0  0  0  0  0999 V2000
   37.7750   31.7480   47.6440 C   0  0  0  0  0  0  0  0  0  0  0  0
   37.9390   32.5360   48.7970 C   0  0  0  0  0  0  0  0  0  0  0  0
   38.9320   33.4730   48.8860 C   0  0  0  0  0  0  0  0  0  0  0  0
   39.7510   33.5950   47.7830 C   0  0  0  0  0  0  0  0  0  0  0  0
   39.5760   32.8240   46.6770 C   0  0  0  0  0  0  0  0  0  0  0  0
   38.5940   31.8960   46.5870 N   0  0  0  0  0  0  0  0  0  0  0  0
   36.7030   30.7880   47.6430 C   0  0  0  0  0  0  0  0  0  0  0  0
   36.2140   30.3930   46.5910 O   0  0  0  0  0  0  0  0  0  0  0  0
   37.0250   29.6310   49.8010 C   0  0  0  0  0  0  0  0  0  0  0  0
   36.1410   30.2310   48.8860 C   0  0  0  0  0  0  0  0  0  0  0  0
   34.7820   30.2760   49.1850 C   0  0  0  0  0  0  0  0  0  0  0  0
   34.3400   29.7370   50.3600 N   0  0  0  0  0  0  0  0  0  0  0  0
   35.2120   29.1640   51.2260 C   0  0  0  0  0  0  0  0  0  0  0  0
   36.5230   29.1140   50.9500 N   0  0  0  0  0  0  0  0  0  0  0  0
   40.6640   32.9910   45.2240 S   0  0  0  0  0  0  0  0  0  0  0  0
   39.5550   32.9580   43.7870 C   0  0  0  0  0  0  0  0  0  0  0  0
   38.8570   29.8350   42.2620 C   0  0  1  0  0  0  0  0  0  0  0  0
   38.8200   31.3290   42.0540 C   0  0  0  0  0  0  0  0  0  0  0  0
   39.9530   31.7900   42.9150 C   0  0  2  0  0  0  0  0  0  0  0  0
   40.3990   30.7250   43.6460 O   0  0  0  0  0  0  0  0  0  0  0  0
   39.3840   29.7820   43.6880 C   0  0  0  0  0  0  0  0  0  0  0  0
   37.6080   29.2780   42.1490 O   0  0  0  0  0  0  0  0  0  0  0  0
   36.9570   29.0160   43.3050 C   0  0  0  0  0  0  0  0  0  0  0  0
   35.4840   29.1640   43.3100 C   0  0  0  0  0  0  0  0  0  0  0  0
   37.2539   32.3960   49.6461 H   0  0  0  0  0  0  0  0  0  0  0  0
   39.0691   34.0926   49.7845 H   0  0  0  0  0  0  0  0  0  0  0  0
   40.5656   34.3341   47.7986 H   0  0  0  0  0  0  0  0  0  0  0  0
   38.1032   29.5820   49.5886 H   0  0  0  0  0  0  0  0  0  0  0  0
   34.0728   30.7399   48.4837 H   0  0  0  0  0  0  0  0  0  0  0  0
   34.8388   28.7345   52.1674 H   0  0  0  0  0  0  0  0  0  0  0  0
   38.5143   32.8361   44.1217 H   0  0  0  0  0  0  0  0  0  0  0  0
   39.6331   33.8992   43.2231 H   0  0  0  0  0  0  0  0  0  0  0  0
   39.4572   29.2744   41.5302 H   0  0  0  0  0  0  0  0  0  0  0  0
   38.9878   31.5901   40.9987 H   0  0  0  0  0  0  0  0  0  0  0  0
   37.8536   31.7888   42.3083 H   0  0  0  0  0  0  0  0  0  0  0  0
   40.7725   32.1611   42.2820 H   0  0  0  0  0  0  0  0  0  0  0  0
   38.6062   30.0617   44.4139 H   0  0  0  0  0  0  0  0  0  0  0  0
   39.7153   28.7823   44.0055 H   0  0  0  0  0  0  0  0  0  0  0  0
   37.1844   27.9761   43.5825 H   0  0  0  0  0  0  0  0  0  0  0  0
   37.3173   29.7810   44.0085 H   0  0  0  0  0  0  0  0  0  0  0  0
   35.1227   29.2003   44.3483 H   0  0  0  0  0  0  0  0  0  0  0  0
   35.2072   30.0945   42.7927 H   0  0  0  0  0  0  0  0  0  0  0  0
   35.0276   28.3072   42.7927 H   0  0  0  0  0  0  0  0  0  0  0  0
  1  2  2  0
  2  3  1  0
  4  3  2  0
  5  4  1  0
  6  5  2  0
  6  1  1  0
  7  1  1  0
  7 10  1  0
  8  7  2  0
  9 14  2  0
 10 11  2  0
 10  9  1  0
 11 12  1  0
 12 13  2  0
 14 13  1  0
 15  5  1  0
 16 15  1  0
 17 21  1  0
 18 17  1  0
 18 19  1  0
 19 20  1  0
 19 16  1  0
 20 21  1  0
 22 17  1  0
 22 23  1  0
 23 24  1  0
  2 25  1  0
  3 26  1  0
  4 27  1  0
  9 28  1  0
 11 29  1  0
 13 30  1  0
 16 31  1  0
 16 32  1  0
 17 33  1  6
 18 34  1  0
 18 35  1  0
 19 36  1  6
 21 37  1  0
 21 38  1  0
 23 39  1  0
 23 40  1  0
 24 41  1  0
 24 42  1  0
 24 43  1  0
M  ISO  8  25  14  26  14  27  14  28  14  29  14  30  14  31   8  32   8
M  ISO  8  33  13  34  13  35  13  36  13  37  13  38  13  39   8  40   8
M  ISO  3  41   8  42   8  43   8
M  END
>  <minimizedAffinity>  (1) 
-5.03571892

>  <minimizedRMSD>  (1) 
0.947954595

$$$$
