
     RDKit          3D

 38 39  0  0  1  0  0  0  0  0999 V2000
   37.0860   30.9350   49.0510 C   0  0  0  0  0  0  0  0  0  0  0  0
   36.8140   31.8670   50.0540 C   0  0  0  0  0  0  0  0  0  0  0  0
   37.4090   33.1190   50.0670 C   0  0  0  0  0  0  0  0  0  0  0  0
   38.3070   33.4660   49.0560 C   0  0  0  0  0  0  0  0  0  0  0  0
   38.5640   32.5430   48.0840 C   0  0  0  0  0  0  0  0  0  0  0  0
   37.9520   31.2980   48.0980 C   0  0  0  0  0  0  0  0  0  0  0  0
   36.4910   29.6160   49.0520 C   0  0  2  0  0  0  0  0  0  0  0  0
   33.6180   29.9620   46.8540 C   0  0  0  0  0  0  0  0  0  0  0  0
   32.8790   28.8180   47.0870 C   0  0  0  0  0  0  0  0  0  0  0  0
   33.3270   27.9380   48.0540 C   0  0  0  0  0  0  0  0  0  0  0  0
   34.4840   28.2270   48.7430 N   0  0  0  0  0  0  0  0  0  0  0  0
   35.1460   29.3330   48.4740 C   0  0  0  0  0  0  0  0  0  0  0  0
   34.7220   30.2080   47.5330 N   0  0  0  0  0  0  0  0  0  0  0  0
   36.9590   28.8640   49.9850 O   0  0  0  0  0  0  0  0  0  0  0  0
   38.3390   30.4120   47.0250 C   0  0  0  0  0  0  0  0  0  0  0  0
   38.7820   30.8290   45.8340 C   0  0  0  0  0  0  0  0  0  0  0  0
   39.2420   30.0130   44.6870 C   0  0  0  0  0  0  0  0  0  0  0  0
   40.4020   30.9600   43.6980 S   0  0  0  0  0  0  0  0  0  0  0  0
   40.6100   30.3390   42.0270 C   0  0  0  0  0  0  0  0  0  0  0  0
   41.5260   29.1530   42.0160 C   0  0  0  0  0  0  0  0  0  0  0  0
   36.1089   31.6009   50.8552 H   0  0  0  0  0  0  0  0  0  0  0  0
   37.1750   33.8346   50.8690 H   0  0  0  0  0  0  0  0  0  0  0  0
   38.7925   34.4530   49.0432 H   0  0  0  0  0  0  0  0  0  0  0  0
   39.2682   32.7904   47.2760 H   0  0  0  0  0  0  0  0  0  0  0  0
   36.8538   29.2243   48.0902 H   0  0  0  0  0  0  0  0  0  0  0  0
   33.2806   30.6786   46.0907 H   0  0  0  0  0  0  0  0  0  0  0  0
   31.9597   28.6133   46.5187 H   0  0  0  0  0  0  0  0  0  0  0  0
   32.7658   27.0171   48.2709 H   0  0  0  0  0  0  0  0  0  0  0  0
   36.7214   29.2458   50.8670 H   0  0  0  0  0  0  0  0  0  0  0  0
   38.2649   29.3282   47.1979 H   0  0  0  0  0  0  0  0  0  0  0  0
   38.8080   31.9189   45.6875 H   0  0  0  0  0  0  0  0  0  0  0  0
   39.7364   29.1039   45.0599 H   0  0  0  0  0  0  0  0  0  0  0  0
   38.3768   29.7351   44.0672 H   0  0  0  0  0  0  0  0  0  0  0  0
   39.6293   30.0422   41.6268 H   0  0  0  0  0  0  0  0  0  0  0  0
   41.0498   31.1329   41.4055 H   0  0  0  0  0  0  0  0  0  0  0  0
   41.7548   28.8568   43.0504 H   0  0  0  0  0  0  0  0  0  0  0  0
   41.0370   28.3168   41.4948 H   0  0  0  0  0  0  0  0  0  0  0  0
   42.4586   29.4148   41.4948 H   0  0  0  0  0  0  0  0  0  0  0  0
  1  7  1  0
  1  2  2  0
  2  3  1  0
  4  3  2  0
  5  6  2  0
  5  4  1  0
  6  1  1  0
  7 14  1  0
  8  9  2  0
  8 13  1  0
  9 10  1  0
 10 11  2  0
 12 11  1  0
 12  7  1  0
 13 12  2  0
 15  6  1  0
 16 15  2  0
 17 16  1  0
 18 17  1  0
 19 18  1  0
 20 19  1  0
  2 21  1  0
  3 22  1  0
  4 23  1  0
  5 24  1  0
  7 25  1  6
  8 26  1  0
  9 27  1  0
 10 28  1  0
 14 29  1  0
 15 30  1  0
 16 31  1  0
 17 32  1  0
 17 33  1  0
 19 34  1  0
 19 35  1  0
 20 36  1  0
 20 37  1  0
 20 38  1  0
M  ISO  8  21  14  22  14  23  14  24  14  25   8  26  14  27  14  28  14
M  ISO  8  29   3  32   8  33   8  34   8  35   8  36   8  37   8  38   8
M  END
>  <minimizedAffinity>  (1) 
-5.4833107

>  <minimizedRMSD>  (1) 
0.474900544

$$$$
