
     RDKit          3D

 26 27  0  0  0  0  0  0  0  0999 V2000
   37.6890   31.0880   47.8300 C   0  0  0  0  0  0  0  0  0  0  0  0
   38.7400   31.9670   47.6900 C   0  0  0  0  0  0  0  0  0  0  0  0
   39.0950   32.4910   46.4540 C   0  0  0  0  0  0  0  0  0  0  0  0
   38.4180   32.1590   45.3190 C   0  0  0  0  0  0  0  0  0  0  0  0
   37.3750   31.2790   45.5050 C   0  0  0  0  0  0  0  0  0  0  0  0
   37.0260   30.7680   46.7000 N   0  0  0  0  0  0  0  0  0  0  0  0
   37.9440   30.8260   50.3260 C   0  0  0  0  0  0  0  0  0  0  0  0
   37.2960   30.5240   49.1060 C   0  0  0  0  0  0  0  0  0  0  0  0
   36.2360   29.6450   49.1530 C   0  0  0  0  0  0  0  0  0  0  0  0
   35.8540   29.1070   50.3450 N   0  0  0  0  0  0  0  0  0  0  0  0
   36.5040   29.4240   51.4930 C   0  0  0  0  0  0  0  0  0  0  0  0
   37.5370   30.2750   51.4810 N   0  0  0  0  0  0  0  0  0  0  0  0
   38.6880   32.6220   44.0420 O   0  0  0  0  0  0  0  0  0  0  0  0
   39.9760   32.5330   43.4890 C   0  0  0  0  0  0  0  0  0  0  0  0
   40.2350   31.0860   43.1430 C   0  0  0  0  0  0  0  0  0  0  0  0
   39.3136   32.2619   48.5811 H   0  0  0  0  0  0  0  0  0  0  0  0
   39.9419   33.1900   46.3897 H   0  0  0  0  0  0  0  0  0  0  0  0
   36.7918   30.9754   44.6231 H   0  0  0  0  0  0  0  0  0  0  0  0
   38.7948   31.5232   50.3290 H   0  0  0  0  0  0  0  0  0  0  0  0
   35.6995   29.3783   48.2305 H   0  0  0  0  0  0  0  0  0  0  0  0
   36.1785   28.9768   52.4438 H   0  0  0  0  0  0  0  0  0  0  0  0
   40.0361   33.1507   42.5808 H   0  0  0  0  0  0  0  0  0  0  0  0
   40.7266   32.8950   44.2071 H   0  0  0  0  0  0  0  0  0  0  0  0
   40.3397   30.5008   44.0685 H   0  0  0  0  0  0  0  0  0  0  0  0
   39.3929   30.6934   42.5542 H   0  0  0  0  0  0  0  0  0  0  0  0
   41.1610   31.0099   42.5542 H   0  0  0  0  0  0  0  0  0  0  0  0
  1  8  1  0
  2  1  2  0
  3  2  1  0
  4  5  1  0
  4  3  2  0
  5  6  2  0
  6  1  1  0
  7 12  2  0
  8  9  2  0
  8  7  1  0
  9 10  1  0
 10 11  2  0
 12 11  1  0
 13  4  1  0
 14 13  1  0
 15 14  1  0
  2 16  1  0
  3 17  1  0
  5 18  1  0
  7 19  1  0
  9 20  1  0
 11 21  1  0
 14 22  1  0
 14 23  1  0
 15 24  1  0
 15 25  1  0
 15 26  1  0
M  ISO  8  16  14  17  14  18  14  19  14  20  14  21  14  22   8  23   8
M  ISO  3  24   8  25   8  26   8
M  END
>  <minimizedAffinity>  (1) 
-4.63439226

>  <minimizedRMSD>  (1) 
2.83824563

$$$$
