
     RDKit          3D

 24 25  0  0  1  0  0  0  0  0999 V2000
   36.7830   30.9400   50.6560 C   0  0  1  0  0  0  0  0  0  0  0  0
   36.1080   29.6620   50.7580 C   0  0  2  0  0  0  0  0  0  0  0  0
   37.4440   29.8190   51.4630 C   0  0  0  0  0  0  0  0  0  0  0  0
   37.5770   31.3030   49.4250 C   0  0  0  0  0  0  0  0  0  0  0  0
   38.1810   32.5600   49.4380 C   0  0  0  0  0  0  0  0  0  0  0  0
   38.8920   32.8890   48.2760 C   0  0  0  0  0  0  0  0  0  0  0  0
   38.9620   32.0060   47.2190 N   0  0  0  0  0  0  0  0  0  0  0  0
   38.3450   30.7890   47.2720 C   0  0  0  0  0  0  0  0  0  0  0  0
   37.6470   30.4420   48.3910 N   0  0  0  0  0  0  0  0  0  0  0  0
   36.1310   28.7890   49.6700 O   0  0  0  0  0  0  0  0  0  0  0  0
   34.8990   28.2840   49.3140 C   0  0  0  0  0  0  0  0  0  0  0  0
   34.4070   28.8360   47.9890 C   0  0  0  0  0  0  0  0  0  0  0  0
   36.4162   31.9642   50.8188 H   0  0  0  0  0  0  0  0  0  0  0  0
   35.0823   29.3911   51.0487 H   0  0  0  0  0  0  0  0  0  0  0  0
   38.3408   29.3094   51.0809 H   0  0  0  0  0  0  0  0  0  0  0  0
   37.8237   29.6924   52.4876 H   0  0  0  0  0  0  0  0  0  0  0  0
   38.1049   33.2429   50.2970 H   0  0  0  0  0  0  0  0  0  0  0  0
   39.3998   33.8623   48.2063 H   0  0  0  0  0  0  0  0  0  0  0  0
   38.4103   30.0955   46.4207 H   0  0  0  0  0  0  0  0  0  0  0  0
   34.9759   27.1896   49.2338 H   0  0  0  0  0  0  0  0  0  0  0  0
   34.1781   28.5824   50.0894 H   0  0  0  0  0  0  0  0  0  0  0  0
   33.6855   29.6454   48.1742 H   0  0  0  0  0  0  0  0  0  0  0  0
   35.2599   29.2290   47.4161 H   0  0  0  0  0  0  0  0  0  0  0  0
   33.9189   28.0338   47.4161 H   0  0  0  0  0  0  0  0  0  0  0  0
  1  2  1  0
  1  3  1  0
  2  3  1  0
  4  5  2  0
  4  1  1  0
  6  5  1  0
  7  8  1  0
  7  6  2  0
  8  9  2  0
  9  4  1  0
 10  2  1  0
 11 10  1  0
 12 11  1  0
  1 13  1  1
  2 14  1  1
  3 15  1  0
  3 16  1  0
  5 17  1  0
  6 18  1  0
  8 19  1  0
 11 20  1  0
 11 21  1  0
 12 22  1  0
 12 23  1  0
 12 24  1  0
M  ISO  8  13  13  14  13  15  13  16  13  17  14  18  14  19  14  20   8
M  ISO  4  21   8  22   8  23   8  24   8
M  END
>  <minimizedAffinity>  (1) 
-4.46823597

>  <minimizedRMSD>  (1) 
0.525203586

$$$$
