
     RDKit          3D

 31 32  0  0  0  0  0  0  0  0999 V2000
   38.0030   31.3610   47.6500 C   0  0  0  0  0  0  0  0  0  0  0  0
   37.0740   31.3100   48.6710 C   0  0  0  0  0  0  0  0  0  0  0  0
   37.1970   32.3480   49.5920 C   0  0  0  0  0  0  0  0  0  0  0  0
   38.1770   33.3340   49.4710 C   0  0  0  0  0  0  0  0  0  0  0  0
   39.0740   33.2930   48.3950 C   0  0  0  0  0  0  0  0  0  0  0  0
   38.9640   32.2800   47.4830 C   0  0  0  0  0  0  0  0  0  0  0  0
   34.9290   30.3380   47.9900 C   0  0  0  0  0  0  0  0  0  0  0  0
   36.0690   30.2990   48.7940 C   0  0  0  0  0  0  0  0  0  0  0  0
   36.1860   29.2460   49.7130 C   0  0  0  0  0  0  0  0  0  0  0  0
   35.1890   28.3310   49.7640 N   0  0  0  0  0  0  0  0  0  0  0  0
   34.0930   28.4010   48.9640 C   0  0  0  0  0  0  0  0  0  0  0  0
   33.9670   29.4070   48.0780 N   0  0  0  0  0  0  0  0  0  0  0  0
   37.3640   29.1480   50.5900 C   0  0  0  0  0  0  0  0  0  0  0  0
   37.9610   30.3440   46.6570 O   0  0  0  0  0  0  0  0  0  0  0  0
   39.8730   32.2670   46.4190 O   0  0  0  0  0  0  0  0  0  0  0  0
   40.1320   33.3740   45.6170 C   0  0  0  0  0  0  0  0  0  0  0  0
   39.6800   33.0510   44.1890 C   0  0  0  0  0  0  0  0  0  0  0  0
   36.4995   32.3917   50.4415 H   0  0  0  0  0  0  0  0  0  0  0  0
   38.2452   34.1397   50.2168 H   0  0  0  0  0  0  0  0  0  0  0  0
   39.8528   34.0621   48.2860 H   0  0  0  0  0  0  0  0  0  0  0  0
   34.8159   31.1558   47.2630 H   0  0  0  0  0  0  0  0  0  0  0  0
   33.3075   27.6347   49.0403 H   0  0  0  0  0  0  0  0  0  0  0  0
   37.0416   29.1748   51.6414 H   0  0  0  0  0  0  0  0  0  0  0  0
   37.8909   28.2029   50.3920 H   0  0  0  0  0  0  0  0  0  0  0  0
   38.0398   29.9930   50.3920 H   0  0  0  0  0  0  0  0  0  0  0  0
   38.6131   30.3522   45.9121 H   0  0  0  0  0  0  0  0  0  0  0  0
   39.5764   34.2450   45.9948 H   0  0  0  0  0  0  0  0  0  0  0  0
   41.2068   33.6079   45.6302 H   0  0  0  0  0  0  0  0  0  0  0  0
   38.7855   32.4118   44.2233 H   0  0  0  0  0  0  0  0  0  0  0  0
   39.4428   33.9854   43.6593 H   0  0  0  0  0  0  0  0  0  0  0  0
   40.4872   32.5239   43.6593 H   0  0  0  0  0  0  0  0  0  0  0  0
  1  2  2  0
  2  8  1  0
  2  3  1  0
  4  3  2  0
  5  4  1  0
  6  1  1  0
  6  5  2  0
  7 12  2  0
  7  8  1  0
  8  9  2  0
  9 10  1  0
  9 13  1  0
 11 10  2  0
 12 11  1  0
 14  1  1  0
 15  6  1  0
 16 15  1  0
 17 16  1  0
  3 18  1  0
  4 19  1  0
  5 20  1  0
  7 21  1  0
 11 22  1  0
 13 23  1  0
 13 24  1  0
 13 25  1  0
 14 26  1  0
 16 27  1  0
 16 28  1  0
 17 29  1  0
 17 30  1  0
 17 31  1  0
M  ISO  8  18  14  19  14  20  14  21  14  22  14  23   8  24   8  25   8
M  ISO  6  26   3  27   8  28   8  29   8  30   8  31   8
M  END
>  <minimizedAffinity>  (1) 
-5.87008381

>  <minimizedRMSD>  (1) 
0.556847572

$$$$
