
     RDKit          3D

 30 31  0  0  1  0  0  0  0  0999 V2000
   32.3350   28.3660   47.4140 C   0  0  2  0  0  0  0  0  0  0  0  0
   33.5380   28.3850   48.3300 C   0  0  1  0  0  0  0  0  0  0  0  0
   34.0890   27.1200   48.3330 O   0  0  0  0  0  0  0  0  0  0  0  0
   33.4920   26.3710   47.3490 C   0  0  0  0  0  0  0  0  0  0  0  0
   32.8080   27.3710   46.3990 C   0  0  1  0  0  0  0  0  0  0  0  0
   32.1260   29.6200   46.8470 O   0  0  0  0  0  0  0  0  0  0  0  0
   34.7670   29.5150   47.5830 S   0  0  0  0  0  0  0  0  0  0  0  0
   37.3130   29.3120   50.6130 C   0  0  0  0  0  0  0  0  0  0  0  0
   37.8140   30.6020   50.7600 C   0  0  0  0  0  0  0  0  0  0  0  0
   37.3430   31.5800   49.8780 C   0  0  0  0  0  0  0  0  0  0  0  0
   36.4290   31.2310   48.9330 N   0  0  0  0  0  0  0  0  0  0  0  0
   35.9670   29.9610   48.8280 C   0  0  0  0  0  0  0  0  0  0  0  0
   36.3990   28.9960   49.6570 N   0  0  0  0  0  0  0  0  0  0  0  0
   31.8380   26.7240   45.6960 O   0  0  0  0  0  0  0  0  0  0  0  0
   31.7110   27.0270   44.3580 C   0  0  0  0  0  0  0  0  0  0  0  0
   30.4470   27.8690   44.1410 C   0  0  0  0  0  0  0  0  0  0  0  0
   31.3760   28.1174   47.8921 H   0  0  0  0  0  0  0  0  0  0  0  0
   33.2608   28.6982   49.3474 H   0  0  0  0  0  0  0  0  0  0  0  0
   34.2476   25.7850   46.8052 H   0  0  0  0  0  0  0  0  0  0  0  0
   32.7660   25.6612   47.7722 H   0  0  0  0  0  0  0  0  0  0  0  0
   33.4047   27.8416   45.6037 H   0  0  0  0  0  0  0  0  0  0  0  0
   32.0140   30.2923   47.5650 H   0  0  0  0  0  0  0  0  0  0  0  0
   37.6677   28.5226   51.2920 H   0  0  0  0  0  0  0  0  0  0  0  0
   38.5517   30.8431   51.5395 H   0  0  0  0  0  0  0  0  0  0  0  0
   37.7063   32.6159   49.9475 H   0  0  0  0  0  0  0  0  0  0  0  0
   32.5919   27.5960   44.0259 H   0  0  0  0  0  0  0  0  0  0  0  0
   31.6350   26.0959   43.7772 H   0  0  0  0  0  0  0  0  0  0  0  0
   30.0228   28.1516   45.1158 H   0  0  0  0  0  0  0  0  0  0  0  0
   30.7039   28.7771   43.5758 H   0  0  0  0  0  0  0  0  0  0  0  0
   29.7080   27.2821   43.5758 H   0  0  0  0  0  0  0  0  0  0  0  0
  1  2  1  0
  2  3  1  0
  4  3  1  0
  5  4  1  0
  5  1  1  0
  6  1  1  0
  7  2  1  0
  7 12  1  0
  8  9  2  0
 10  9  1  0
 11 10  2  0
 12 11  1  0
 12 13  2  0
 13  8  1  0
 14  5  1  0
 15 14  1  0
 16 15  1  0
  1 17  1  1
  2 18  1  1
  4 19  1  0
  4 20  1  0
  5 21  1  6
  6 22  1  0
  8 23  1  0
  9 24  1  0
 10 25  1  0
 15 26  1  0
 15 27  1  0
 16 28  1  0
 16 29  1  0
 16 30  1  0
M  ISO  8  17  13  18  13  19  13  20  13  21  13  22   3  23  14  24  14
M  ISO  6  25  14  26   8  27   8  28   8  29   8  30   8
M  END
>  <minimizedAffinity>  (1) 
-3.65179539

>  <minimizedRMSD>  (1) 
0.282215506

$$$$
