
     RDKit          3D

 30 31  0  0  0  0  0  0  0  0999 V2000
   34.6750   29.9590   47.3630 C   0  0  0  0  0  0  0  0  0  0  0  0
   35.9660   30.3840   46.9190 C   0  0  0  0  0  0  0  0  0  0  0  0
   36.1610   30.4210   45.5650 C   0  0  0  0  0  0  0  0  0  0  0  0
   35.1110   30.0540   44.7620 N   0  0  0  0  0  0  0  0  0  0  0  0
   33.9210   29.6650   45.1950 C   0  0  0  0  0  0  0  0  0  0  0  0
   33.7190   29.6220   46.5270 N   0  0  0  0  0  0  0  0  0  0  0  0
   32.9640   29.3600   44.2160 N   0  0  0  0  0  0  0  0  0  0  0  0
   36.8130   30.7310   48.0500 C   0  0  0  0  0  0  0  0  0  0  0  0
   37.0390   29.7870   49.0630 C   0  0  0  0  0  0  0  0  0  0  0  0
   37.7730   29.9720   50.1840 C   0  0  0  0  0  0  0  0  0  0  0  0
   38.3740   31.1620   50.4050 C   0  0  0  0  0  0  0  0  0  0  0  0
   38.1630   32.0730   49.4380 C   0  0  0  0  0  0  0  0  0  0  0  0
   37.4390   31.8350   48.3690 N   0  0  0  0  0  0  0  0  0  0  0  0
   38.7940   33.4650   49.5730 C   0  0  0  0  0  0  0  0  0  0  0  0
   39.4810   33.8380   48.2780 C   0  0  0  0  0  0  0  0  0  0  0  0
   37.4630   30.8440   45.0360 C   0  0  0  0  0  0  0  0  0  0  0  0
   38.4160   30.1610   45.6740 F   0  0  0  0  0  0  0  0  0  0  0  0
   37.6070   30.6460   43.6730 F   0  0  0  0  0  0  0  0  0  0  0  0
   37.6740   32.2260   45.2550 F   0  0  0  0  0  0  0  0  0  0  0  0
   34.4749   29.9125   48.4436 H   0  0  0  0  0  0  0  0  0  0  0  0
   32.0215   29.0523   44.4953 H   0  0  0  0  0  0  0  0  0  0  0  0
   33.2037   29.4437   43.2178 H   0  0  0  0  0  0  0  0  0  0  0  0
   36.5734   28.7990   48.9328 H   0  0  0  0  0  0  0  0  0  0  0  0
   37.8804   29.1560   50.9138 H   0  0  0  0  0  0  0  0  0  0  0  0
   38.9827   31.3678   51.2978 H   0  0  0  0  0  0  0  0  0  0  0  0
   38.0093   34.2026   49.7968 H   0  0  0  0  0  0  0  0  0  0  0  0
   39.5322   33.4541   50.3884 H   0  0  0  0  0  0  0  0  0  0  0  0
   40.4278   34.3521   48.5001 H   0  0  0  0  0  0  0  0  0  0  0  0
   39.6859   32.9273   47.6961 H   0  0  0  0  0  0  0  0  0  0  0  0
   38.8288   34.5059   47.6961 H   0  0  0  0  0  0  0  0  0  0  0  0
  2  1  2  0
  2  8  1  0
  3  2  1  0
  4  5  1  0
  4  3  2  0
  5  6  2  0
  6  1  1  0
  7  5  1  0
  8 13  1  0
  8  9  2  0
  9 10  1  0
 10 11  2  0
 12 14  1  0
 12 11  1  0
 13 12  2  0
 15 14  1  0
 16 19  1  0
 16  3  1  0
 16 17  1  0
 18 16  1  0
  1 20  1  0
  7 21  1  0
  7 22  1  0
  9 23  1  0
 10 24  1  0
 11 25  1  0
 14 26  1  0
 14 27  1  0
 15 28  1  0
 15 29  1  0
 15 30  1  0
M  ISO  8  20  14  23  14  24  14  25  14  26   8  27   8  28   8  29   8
M  ISO  1  30   8
M  END
>  <minimizedAffinity>  (1) 
-5.32225275

>  <minimizedRMSD>  (1) 
1.35039806

$$$$
