
     RDKit          3D

 25 26  0  0  1  0  0  0  0  0999 V2000
   38.2020   32.3860   48.3840 C   0  0  0  0  0  0  0  0  0  0  0  0
   38.5510   33.3610   49.3250 C   0  0  0  0  0  0  0  0  0  0  0  0
   39.5400   34.2300   48.9390 C   0  0  0  0  0  0  0  0  0  0  0  0
   40.1140   34.1110   47.7090 N   0  0  0  0  0  0  0  0  0  0  0  0
   39.7540   33.1620   46.8270 C   0  0  0  0  0  0  0  0  0  0  0  0
   38.7690   32.2770   47.1790 N   0  0  0  0  0  0  0  0  0  0  0  0
   40.3340   33.0410   45.5460 N   0  0  0  0  0  0  0  0  0  0  0  0
   37.0910   31.4270   48.7620 C   0  0  1  0  0  0  0  0  0  0  0  0
   36.9700   30.1350   48.1430 C   0  0  0  0  0  0  0  0  0  0  0  0
   37.6190   30.1940   49.5050 C   0  0  2  0  0  0  0  0  0  0  0  0
   36.7510   29.7350   50.6280 C   0  0  0  0  0  0  0  0  0  0  0  0
   37.4060   29.9120   51.9870 C   0  0  0  0  0  0  0  0  0  0  0  0
   38.0645   33.4264   50.3094 H   0  0  0  0  0  0  0  0  0  0  0  0
   39.8703   35.0247   49.6241 H   0  0  0  0  0  0  0  0  0  0  0  0
   41.0766   33.6919   45.2533 H   0  0  0  0  0  0  0  0  0  0  0  0
   40.0146   32.3018   44.9038 H   0  0  0  0  0  0  0  0  0  0  0  0
   36.3492   32.2261   48.9079 H   0  0  0  0  0  0  0  0  0  0  0  0
   35.9762   29.6761   48.0350 H   0  0  0  0  0  0  0  0  0  0  0  0
   37.2771   29.7246   47.1697 H   0  0  0  0  0  0  0  0  0  0  0  0
   38.5720   29.8726   49.9504 H   0  0  0  0  0  0  0  0  0  0  0  0
   35.8165   30.3149   50.6098 H   0  0  0  0  0  0  0  0  0  0  0  0
   36.5662   28.6599   50.4864 H   0  0  0  0  0  0  0  0  0  0  0  0
   36.6684   29.7127   52.7783 H   0  0  0  0  0  0  0  0  0  0  0  0
   38.2463   29.2087   52.0834 H   0  0  0  0  0  0  0  0  0  0  0  0
   37.7777   30.9428   52.0834 H   0  0  0  0  0  0  0  0  0  0  0  0
  1  8  1  0
  1  2  2  0
  3  2  1  0
  4  3  2  0
  5  6  2  0
  5  4  1  0
  6  1  1  0
  7  5  1  0
  8 10  1  0
  9  8  1  0
  9 10  1  0
 10 11  1  0
 11 12  1  0
  2 13  1  0
  3 14  1  0
  7 15  1  0
  7 16  1  0
  8 17  1  1
  9 18  1  0
  9 19  1  0
 10 20  1  6
 11 21  1  0
 11 22  1  0
 12 23  1  0
 12 24  1  0
 12 25  1  0
M  ISO  8  13  14  14  14  17  13  18  13  19  13  20  13  21   8  22   8
M  ISO  3  23   8  24   8  25   8
M  END
>  <minimizedAffinity>  (1) 
-4.77094507

>  <minimizedRMSD>  (1) 
1.90774107

$$$$
