
     RDKit          3D

 34 36  0  0  0  0  0  0  0  0999 V2000
   35.6170   29.5780   49.4580 C   0  0  0  0  0  0  0  0  0  0  0  0
   35.6520   29.9960   48.1250 C   0  0  0  0  0  0  0  0  0  0  0  0
   34.6730   29.4410   47.3410 C   0  0  0  0  0  0  0  0  0  0  0  0
   33.7560   28.5670   47.8240 N   0  0  0  0  0  0  0  0  0  0  0  0
   33.7510   28.1850   49.1170 C   0  0  0  0  0  0  0  0  0  0  0  0
   34.6830   28.6920   49.9310 N   0  0  0  0  0  0  0  0  0  0  0  0
   36.6220   30.2270   50.3940 C   0  0  0  0  0  0  0  0  0  0  0  0
   36.7960   29.7810   51.7250 C   0  0  0  0  0  0  0  0  0  0  0  0
   37.7440   29.1750   50.7160 C   0  0  0  0  0  0  0  0  0  0  0  0
   36.6420   30.8980   47.5820 C   0  0  0  0  0  0  0  0  0  0  0  0
   38.0520   30.4800   47.4930 C   0  0  0  0  0  0  0  0  0  0  0  0
   39.3290   32.4130   46.9410 C   0  0  0  0  0  0  0  0  0  0  0  0
   38.9080   31.1490   46.5040 C   0  0  0  0  0  0  0  0  0  0  0  0
   39.4020   30.8230   45.2630 C   0  0  0  0  0  0  0  0  0  0  0  0
   40.2180   31.5940   44.4740 C   0  0  0  0  0  0  0  0  0  0  0  0
   40.6130   32.8310   44.9310 C   0  0  0  0  0  0  0  0  0  0  0  0
   40.1610   33.2310   46.1690 C   0  0  0  0  0  0  0  0  0  0  0  0
   38.7240   33.5120   49.2310 N   0  0  0  0  0  0  0  0  0  0  0  0
   38.9840   33.0170   48.2190 C   0  0  0  0  0  0  0  0  0  0  0  0
   34.6301   29.7163   46.2769 H   0  0  0  0  0  0  0  0  0  0  0  0
   32.9997   27.4747   49.4926 H   0  0  0  0  0  0  0  0  0  0  0  0
   36.4949   31.2500   50.0102 H   0  0  0  0  0  0  0  0  0  0  0  0
   37.1894   30.4803   52.4775 H   0  0  0  0  0  0  0  0  0  0  0  0
   36.1082   29.3421   52.4628 H   0  0  0  0  0  0  0  0  0  0  0  0
   37.6401   28.1255   50.4034 H   0  0  0  0  0  0  0  0  0  0  0  0
   38.8321   29.0868   50.5807 H   0  0  0  0  0  0  0  0  0  0  0  0
   36.3193   31.1450   46.5598 H   0  0  0  0  0  0  0  0  0  0  0  0
   36.6676   31.7160   48.3170 H   0  0  0  0  0  0  0  0  0  0  0  0
   38.5049   30.6439   48.4819 H   0  0  0  0  0  0  0  0  0  0  0  0
   38.0080   29.4339   47.1558 H   0  0  0  0  0  0  0  0  0  0  0  0
   39.1127   29.8411   44.8604 H   0  0  0  0  0  0  0  0  0  0  0  0
   40.5514   31.2292   43.4913 H   0  0  0  0  0  0  0  0  0  0  0  0
   41.2672   33.4779   44.3281 H   0  0  0  0  0  0  0  0  0  0  0  0
   40.4606   34.2149   46.5592 H   0  0  0  0  0  0  0  0  0  0  0  0
  1  6  1  0
  1  7  1  0
  2  1  2  0
  3  4  2  0
  3  2  1  0
  4  5  1  0
  5  6  2  0
  7  9  1  0
  7  8  1  0
  9  8  1  0
 10  2  1  0
 11 10  1  0
 12 19  1  0
 13 12  2  0
 13 11  1  0
 14 13  1  0
 15 16  1  0
 15 14  2  0
 16 17  2  0
 17 12  1  0
 19 18  3  0
  3 20  1  0
  5 21  1  0
  7 22  1  0
  8 23  1  0
  8 24  1  0
  9 25  1  0
  9 26  1  0
 10 27  1  0
 10 28  1  0
 11 29  1  0
 11 30  1  0
 14 31  1  0
 15 32  1  0
 16 33  1  0
 17 34  1  0
M  ISO  8  20  14  21  14  22  13  23  13  24  13  25  13  26  13  27   8
M  ISO  7  28   8  29   8  30   8  31  14  32  14  33  14  34  14
M  END
>  <minimizedAffinity>  (1) 
-6.17943859

>  <minimizedRMSD>  (1) 
4.28838253

$$$$
