
     RDKit          3D

 48 53  0  0  1  0  0  0  0  0999 V2000
   31.0280   27.4610   49.2620 C   0  0  1  0  0  0  0  0  0  0  0  0
   31.2990   26.3190   48.2100 C   0  0  0  0  0  0  0  0  0  0  0  0
   31.5010   27.7750   47.9140 C   0  0  2  0  0  0  0  0  0  0  0  0
   27.6360   28.6070   49.6110 C   0  0  0  0  0  0  0  0  0  0  0  0
   27.6570   27.5840   50.5590 C   0  0  0  0  0  0  0  0  0  0  0  0
   28.9490   27.0120   50.5520 C   0  0  0  0  0  0  0  0  0  0  0  0
   29.6450   27.6890   49.6280 N   0  0  0  0  0  0  0  0  0  0  0  0
   28.8510   28.5980   49.1100 N   0  0  0  0  0  0  0  0  0  0  0  0
   25.1480   28.9210   49.5180 C   0  0  0  0  0  0  0  0  0  0  0  0
   26.4770   29.4080   49.3460 C   0  0  0  0  0  0  0  0  0  0  0  0
   26.6110   30.7060   48.9070 C   0  0  0  0  0  0  0  0  0  0  0  0
   25.4860   31.4390   48.6650 N   0  0  0  0  0  0  0  0  0  0  0  0
   24.2550   30.9430   48.8380 C   0  0  0  0  0  0  0  0  0  0  0  0
   24.0730   29.6660   49.2710 N   0  0  0  0  0  0  0  0  0  0  0  0
   32.9000   28.2890   47.7170 C   0  0  0  0  0  0  0  0  0  0  0  0
   33.5510   28.3860   46.5000 C   0  0  0  0  0  0  0  0  0  0  0  0
   34.7820   28.9090   46.7340 N   0  0  0  0  0  0  0  0  0  0  0  0
   34.9140   29.1400   48.0610 C   0  0  0  0  0  0  0  0  0  0  0  0
   33.7640   28.7600   48.6560 N   0  0  0  0  0  0  0  0  0  0  0  0
   36.1050   29.7150   48.7500 C   0  0  0  0  0  0  0  0  0  0  0  0
   36.5810   29.1580   49.9620 C   0  0  0  0  0  0  0  0  0  0  0  0
   38.0170   30.2220   50.3590 S   0  0  0  0  0  0  0  0  0  0  0  0
   37.7220   31.2450   48.8000 C   0  0  0  0  0  0  0  0  0  0  0  0
   36.8090   30.7410   48.3440 N   0  0  0  0  0  0  0  0  0  0  0  0
   39.2400   32.4020   47.2570 C   0  0  0  0  0  0  0  0  0  0  0  0
   38.6070   32.3900   48.4630 C   0  0  0  0  0  0  0  0  0  0  0  0
   38.7870   33.4250   49.3570 C   0  0  0  0  0  0  0  0  0  0  0  0
   39.6010   34.5080   49.0860 C   0  0  0  0  0  0  0  0  0  0  0  0
   40.2380   34.5120   47.8600 C   0  0  0  0  0  0  0  0  0  0  0  0
   40.0510   33.4710   46.9750 C   0  0  0  0  0  0  0  0  0  0  0  0
   38.8420   30.4120   45.6360 N   0  0  0  0  0  0  0  0  0  0  0  0
   39.0150   31.3100   46.3790 C   0  0  0  0  0  0  0  0  0  0  0  0
   31.3749   27.7272   50.2713 H   0  0  0  0  0  0  0  0  0  0  0  0
   32.1623   25.6470   48.3246 H   0  0  0  0  0  0  0  0  0  0  0  0
   30.7267   25.4887   47.7705 H   0  0  0  0  0  0  0  0  0  0  0  0
   31.1251   28.4464   47.1279 H   0  0  0  0  0  0  0  0  0  0  0  0
   26.8165   27.2769   51.1988 H   0  0  0  0  0  0  0  0  0  0  0  0
   29.3096   26.1815   51.1767 H   0  0  0  0  0  0  0  0  0  0  0  0
   25.0054   27.8883   49.8689 H   0  0  0  0  0  0  0  0  0  0  0  0
   27.6081   31.1446   48.7540 H   0  0  0  0  0  0  0  0  0  0  0  0
   23.3799   31.5753   48.6276 H   0  0  0  0  0  0  0  0  0  0  0  0
   33.1450   28.0927   45.5207 H   0  0  0  0  0  0  0  0  0  0  0  0
   35.4982   29.0989   46.0186 H   0  0  0  0  0  0  0  0  0  0  0  0
   36.1861   28.2994   50.5249 H   0  0  0  0  0  0  0  0  0  0  0  0
   38.2622   33.3866   50.3230 H   0  0  0  0  0  0  0  0  0  0  0  0
   39.7351   35.3256   49.8096 H   0  0  0  0  0  0  0  0  0  0  0  0
   40.8975   35.3495   47.5885 H   0  0  0  0  0  0  0  0  0  0  0  0
   40.5720   33.4993   46.0066 H   0  0  0  0  0  0  0  0  0  0  0  0
  1  7  1  0
  2  1  1  0
  3  2  1  0
  3  1  1  0
  4  5  1  0
  6  5  2  0
  7  6  1  0
  8  4  2  0
  8  7  1  0
 10  9  2  0
 10  4  1  0
 11 10  1  0
 12 13  1  0
 12 11  2  0
 13 14  2  0
 14  9  1  0
 15  3  1  0
 15 19  1  0
 16 17  1  0
 16 15  2  0
 17 18  1  0
 18 19  2  0
 18 20  1  0
 20 21  2  0
 21 22  1  0
 23 22  1  0
 24 20  1  0
 24 23  2  0
 25 26  2  0
 26 23  1  0
 26 27  1  0
 28 27  2  0
 29 28  1  0
 30 25  1  0
 30 29  2  0
 31 32  3  0
 32 25  1  0
  1 33  1  1
  2 34  1  0
  2 35  1  0
  3 36  1  6
  5 37  1  0
  6 38  1  0
  9 39  1  0
 11 40  1  0
 13 41  1  0
 16 42  1  0
 17 43  1  0
 21 44  1  0
 27 45  1  0
 28 46  1  0
 29 47  1  0
 30 48  1  0
M  ISO  8  33  13  34  13  35  13  36  13  37  14  38  14  39  14  40  14
M  ISO  8  41  14  42  14  43   9  44  14  45  14  46  14  47  14  48  14
M  END
>  <minimizedAffinity>  (1) 
-7.5891037

>  <minimizedRMSD>  (1) 
2.28330421

$$$$
