
     RDKit          3D

 38 40  0  0  0  0  0  0  0  0999 V2000
   37.5700   30.3020   51.2040 C   0  0  0  0  0  0  0  0  0  0  0  0
   38.2140   30.8160   50.0590 C   0  0  0  0  0  0  0  0  0  0  0  0
   37.6540   30.5830   48.7660 C   0  0  0  0  0  0  0  0  0  0  0  0
   36.5090   29.8620   48.7360 N   0  0  0  0  0  0  0  0  0  0  0  0
   35.9280   29.3910   49.8490 C   0  0  0  0  0  0  0  0  0  0  0  0
   36.4360   29.5990   51.0690 N   0  0  0  0  0  0  0  0  0  0  0  0
   38.9840   32.3690   47.6230 C   0  0  0  0  0  0  0  0  0  0  0  0
   38.4210   31.1350   47.6690 C   0  0  0  0  0  0  0  0  0  0  0  0
   38.6210   30.4040   46.5180 C   0  0  0  0  0  0  0  0  0  0  0  0
   39.3190   30.8610   45.4320 C   0  0  0  0  0  0  0  0  0  0  0  0
   39.8770   32.1190   45.4240 C   0  0  0  0  0  0  0  0  0  0  0  0
   39.7010   32.8860   46.5520 C   0  0  0  0  0  0  0  0  0  0  0  0
   38.7400   33.9830   49.6050 N   0  0  0  0  0  0  0  0  0  0  0  0
   38.8410   33.2520   48.7190 C   0  0  0  0  0  0  0  0  0  0  0  0
   34.7020   28.6450   49.6650 C   0  0  0  0  0  0  0  0  0  0  0  0
   34.4790   28.0570   48.5390 C   0  0  0  0  0  0  0  0  0  0  0  0
   33.3330   27.2510   48.1200 C   0  0  0  0  0  0  0  0  0  0  0  0
   33.6760   26.2130   47.0960 C   0  0  0  0  0  0  0  0  0  0  0  0
   33.8330   24.8760   47.3430 C   0  0  0  0  0  0  0  0  0  0  0  0
   34.1510   24.0190   46.3190 C   0  0  0  0  0  0  0  0  0  0  0  0
   34.3220   24.4770   45.0080 C   0  0  0  0  0  0  0  0  0  0  0  0
   34.1660   25.8190   44.7500 C   0  0  0  0  0  0  0  0  0  0  0  0
   33.8450   26.6880   45.7820 C   0  0  0  0  0  0  0  0  0  0  0  0
   37.9960   30.4770   52.2029 H   0  0  0  0  0  0  0  0  0  0  0  0
   39.1441   31.3942   50.1617 H   0  0  0  0  0  0  0  0  0  0  0  0
   38.1939   29.3915   46.4686 H   0  0  0  0  0  0  0  0  0  0  0  0
   39.4356   30.2119   44.5516 H   0  0  0  0  0  0  0  0  0  0  0  0
   40.4380   32.4939   44.5553 H   0  0  0  0  0  0  0  0  0  0  0  0
   40.1244   33.8999   46.6053 H   0  0  0  0  0  0  0  0  0  0  0  0
   33.9655   28.5798   50.4795 H   0  0  0  0  0  0  0  0  0  0  0  0
   35.2674   28.1800   47.7818 H   0  0  0  0  0  0  0  0  0  0  0  0
   32.9212   26.7443   49.0053 H   0  0  0  0  0  0  0  0  0  0  0  0
   32.6075   27.9358   47.6566 H   0  0  0  0  0  0  0  0  0  0  0  0
   33.7041   24.4875   48.3640 H   0  0  0  0  0  0  0  0  0  0  0  0
   34.2743   22.9473   46.5341 H   0  0  0  0  0  0  0  0  0  0  0  0
   34.5765   23.7768   44.1987 H   0  0  0  0  0  0  0  0  0  0  0  0
   34.2956   26.2022   43.7271 H   0  0  0  0  0  0  0  0  0  0  0  0
   33.7211   27.7605   45.5712 H   0  0  0  0  0  0  0  0  0  0  0  0
  2  1  2  0
  3  2  1  0
  4  3  2  0
  4  5  1  0
  5  6  2  0
  6  1  1  0
  7  8  2  0
  7 14  1  0
  8  3  1  0
  9  8  1  0
 10  9  2  0
 11 10  1  0
 11 12  2  0
 12  7  1  0
 14 13  3  0
 15  5  1  0
 16 15  2  0
 17 16  1  0
 18 19  2  0
 18 17  1  0
 20 19  1  0
 21 20  2  0
 22 21  1  0
 22 23  2  0
 23 18  1  0
  1 24  1  0
  2 25  1  0
  9 26  1  0
 10 27  1  0
 11 28  1  0
 12 29  1  0
 15 30  1  0
 16 31  1  0
 17 32  1  0
 17 33  1  0
 19 34  1  0
 20 35  1  0
 21 36  1  0
 22 37  1  0
 23 38  1  0
M  ISO  8  24  14  25  14  26  14  27  14  28  14  29  14  32   8  33   8
M  ISO  5  34  14  35  14  36  14  37  14  38  14
M  END
>  <minimizedAffinity>  (1) 
-6.5213356

>  <minimizedRMSD>  (1) 
0.829380989

$$$$
