
     RDKit          3D

 23 24  0  0  0  0  0  0  0  0999 V2000
   38.1790   33.5250   49.2450 C   0  0  0  0  0  0  0  0  0  0  0  0
   39.1590   33.4140   48.2320 C   0  0  0  0  0  0  0  0  0  0  0  0
   39.1280   32.2170   47.5010 C   0  0  0  0  0  0  0  0  0  0  0  0
   38.1950   31.2640   47.7910 N   0  0  0  0  0  0  0  0  0  0  0  0
   37.2890   31.4340   48.7710 C   0  0  0  0  0  0  0  0  0  0  0  0
   37.2650   32.5630   49.5120 N   0  0  0  0  0  0  0  0  0  0  0  0
   35.6040   29.7460   48.0310 C   0  0  0  0  0  0  0  0  0  0  0  0
   36.3330   30.3590   49.0070 C   0  0  0  0  0  0  0  0  0  0  0  0
   36.1420   29.9240   50.3000 C   0  0  0  0  0  0  0  0  0  0  0  0
   35.2610   28.9140   50.6370 C   0  0  0  0  0  0  0  0  0  0  0  0
   34.5220   28.2910   49.6500 C   0  0  0  0  0  0  0  0  0  0  0  0
   34.7170   28.7340   48.3440 C   0  0  0  0  0  0  0  0  0  0  0  0
   35.9420   30.5400   45.5900 N   0  0  0  0  0  0  0  0  0  0  0  0
   35.7930   30.1900   46.6780 C   0  0  0  0  0  0  0  0  0  0  0  0
   40.0910   34.4590   48.0000 N   0  0  0  0  0  0  0  0  0  0  0  0
   38.1582   34.4438   49.8495 H   0  0  0  0  0  0  0  0  0  0  0  0
   39.8558   32.0465   46.6940 H   0  0  0  0  0  0  0  0  0  0  0  0
   36.7192   30.4042   51.1039 H   0  0  0  0  0  0  0  0  0  0  0  0
   35.1486   28.6072   51.6874 H   0  0  0  0  0  0  0  0  0  0  0  0
   33.8131   27.4833   49.8844 H   0  0  0  0  0  0  0  0  0  0  0  0
   34.1442   28.2612   47.5326 H   0  0  0  0  0  0  0  0  0  0  0  0
   40.7988   34.3625   47.2580 H   0  0  0  0  0  0  0  0  0  0  0  0
   40.0596   35.3139   48.5737 H   0  0  0  0  0  0  0  0  0  0  0  0
  1  6  2  0
  2  1  1  0
  3  4  1  0
  3  2  2  0
  4  5  2  0
  5  8  1  0
  5  6  1  0
  7 12  2  0
  7  8  1  0
  8  9  2  0
  9 10  1  0
 11 10  2  0
 12 11  1  0
 13 14  3  0
 14  7  1  0
 15  2  1  0
  1 16  1  0
  3 17  1  0
  9 18  1  0
 10 19  1  0
 11 20  1  0
 12 21  1  0
 15 22  1  0
 15 23  1  0
M  ISO  6  16  14  17  14  18  14  19  14  20  14  21  14
M  END
>  <minimizedAffinity>  (1) 
-5.2242136

>  <minimizedRMSD>  (1) 
4.54631567

$$$$
