
     RDKit          3D

 23 24  0  0  0  0  0  0  0  0999 V2000
   37.1960   29.8310   50.5640 C   0  0  0  0  0  0  0  0  0  0  0  0
   38.1130   30.2400   49.5650 C   0  0  0  0  0  0  0  0  0  0  0  0
   37.6000   30.7140   48.3500 C   0  0  0  0  0  0  0  0  0  0  0  0
   36.2370   30.7440   48.2300 N   0  0  0  0  0  0  0  0  0  0  0  0
   35.4000   30.3520   49.1940 C   0  0  0  0  0  0  0  0  0  0  0  0
   35.8640   29.8910   50.3720 N   0  0  0  0  0  0  0  0  0  0  0  0
   34.0190   30.4620   48.8710 N   0  0  0  0  0  0  0  0  0  0  0  0
   39.0910   32.3690   47.3590 C   0  0  0  0  0  0  0  0  0  0  0  0
   38.4410   31.1610   47.2500 C   0  0  0  0  0  0  0  0  0  0  0  0
   38.6270   30.4370   46.0950 C   0  0  0  0  0  0  0  0  0  0  0  0
   39.4270   30.8640   45.0510 C   0  0  0  0  0  0  0  0  0  0  0  0
   40.0580   32.0750   45.1990 C   0  0  0  0  0  0  0  0  0  0  0  0
   39.9110   32.8440   46.3320 C   0  0  0  0  0  0  0  0  0  0  0  0
   38.8420   33.8700   49.5030 N   0  0  0  0  0  0  0  0  0  0  0  0
   38.9470   33.1920   48.5480 C   0  0  0  0  0  0  0  0  0  0  0  0
   37.5820   29.4541   51.5226 H   0  0  0  0  0  0  0  0  0  0  0  0
   39.1980   30.1870   49.7381 H   0  0  0  0  0  0  0  0  0  0  0  0
   33.3053   30.1810   49.5585 H   0  0  0  0  0  0  0  0  0  0  0  0
   33.7327   30.8227   47.9497 H   0  0  0  0  0  0  0  0  0  0  0  0
   38.1132   29.4693   45.9970 H   0  0  0  0  0  0  0  0  0  0  0  0
   39.5527   30.2595   44.1406 H   0  0  0  0  0  0  0  0  0  0  0  0
   40.7016   32.4425   44.3862 H   0  0  0  0  0  0  0  0  0  0  0  0
   40.4275   33.8106   46.4264 H   0  0  0  0  0  0  0  0  0  0  0  0
  2  1  2  0
  3  2  1  0
  4  3  2  0
  4  5  1  0
  5  6  2  0
  6  1  1  0
  7  5  1  0
  8 15  1  0
  9  8  2  0
  9  3  1  0
 10  9  1  0
 11 12  1  0
 11 10  2  0
 12 13  2  0
 13  8  1  0
 15 14  3  0
  1 16  1  0
  2 17  1  0
  7 18  1  0
  7 19  1  0
 10 20  1  0
 11 21  1  0
 12 22  1  0
 13 23  1  0
M  ISO  6  16  14  17  14  20  14  21  14  22  14  23  14
M  END
>  <minimizedAffinity>  (1) 
-5.49539614

>  <minimizedRMSD>  (1) 
1.06935656

$$$$
