
     RDKit          3D

 42 45  0  0  0  0  0  0  0  0999 V2000
   34.0720   29.9560   47.5150 S   0  0  0  0  0  0  0  0  0  0  0  0
   36.4150   30.9040   45.7020 Cl  0  0  0  0  0  0  0  0  0  0  0  0
   36.7000   30.7880   47.4180 C   0  0  0  0  0  0  0  0  0  0  0  0
   37.9560   31.1250   47.8810 C   0  0  0  0  0  0  0  0  0  0  0  0
   38.1900   31.0350   49.2490 C   0  0  0  0  0  0  0  0  0  0  0  0
   37.1840   30.6200   50.0880 C   0  0  0  0  0  0  0  0  0  0  0  0
   35.9490   30.2990   49.5560 C   0  0  0  0  0  0  0  0  0  0  0  0
   35.6440   30.3620   48.2190 C   0  0  0  0  0  0  0  0  0  0  0  0
   40.2220   33.3270   46.0760 C   0  0  0  0  0  0  0  0  0  0  0  0
   40.9390   32.4670   45.2160 C   0  0  0  0  0  0  0  0  0  0  0  0
   40.6150   31.1080   45.2800 C   0  0  0  0  0  0  0  0  0  0  0  0
   39.6440   30.6940   46.1500 N   0  0  0  0  0  0  0  0  0  0  0  0
   38.9970   31.5620   46.9450 C   0  0  0  0  0  0  0  0  0  0  0  0
   39.2890   32.8630   46.9020 N   0  0  0  0  0  0  0  0  0  0  0  0
   33.8730   29.1600   44.4800 Cl  0  0  0  0  0  0  0  0  0  0  0  0
   33.8660   27.9520   45.7570 C   0  0  0  0  0  0  0  0  0  0  0  0
   33.9500   28.2100   47.1150 C   0  0  0  0  0  0  0  0  0  0  0  0
   33.9340   27.1740   48.0200 C   0  0  0  0  0  0  0  0  0  0  0  0
   33.8360   25.8860   47.5900 C   0  0  0  0  0  0  0  0  0  0  0  0
   33.7500   25.5680   46.2300 C   0  0  0  0  0  0  0  0  0  0  0  0
   33.7680   26.6200   45.3510 C   0  0  0  0  0  0  0  0  0  0  0  0
   32.3640   26.1600   43.4660 C   0  0  0  0  0  0  0  0  0  0  0  0
   33.6750   26.2260   43.9440 C   0  0  0  0  0  0  0  0  0  0  0  0
   34.7490   25.9360   43.1100 C   0  0  0  0  0  0  0  0  0  0  0  0
   34.4660   25.5830   41.8090 C   0  0  0  0  0  0  0  0  0  0  0  0
   33.1910   25.5030   41.2950 C   0  0  0  0  0  0  0  0  0  0  0  0
   32.1500   25.8000   42.1510 C   0  0  0  0  0  0  0  0  0  0  0  0
   30.3090   26.7030   44.9490 N   0  0  0  0  0  0  0  0  0  0  0  0
   31.2170   26.4540   44.2940 C   0  0  0  0  0  0  0  0  0  0  0  0
   39.1774   31.2952   49.6581 H   0  0  0  0  0  0  0  0  0  0  0  0
   37.3594   30.5440   51.1713 H   0  0  0  0  0  0  0  0  0  0  0  0
   35.1597   29.9720   50.2488 H   0  0  0  0  0  0  0  0  0  0  0  0
   40.4401   34.4051   46.0624 H   0  0  0  0  0  0  0  0  0  0  0  0
   41.7121   32.8460   44.5314 H   0  0  0  0  0  0  0  0  0  0  0  0
   41.1346   30.3810   44.6386 H   0  0  0  0  0  0  0  0  0  0  0  0
   34.0008   27.3875   49.0970 H   0  0  0  0  0  0  0  0  0  0  0  0
   33.8241   25.0736   48.3315 H   0  0  0  0  0  0  0  0  0  0  0  0
   33.6719   24.5268   45.8837 H   0  0  0  0  0  0  0  0  0  0  0  0
   35.7853   25.9865   43.4753 H   0  0  0  0  0  0  0  0  0  0  0  0
   35.3086   25.3512   41.1409 H   0  0  0  0  0  0  0  0  0  0  0  0
   33.0103   25.2152   40.2488 H   0  0  0  0  0  0  0  0  0  0  0  0
   31.1181   25.7482   41.7736 H   0  0  0  0  0  0  0  0  0  0  0  0
  1  8  1  0
  2  3  1  0
  3  4  2  0
  3  8  1  0
  4  5  1  0
  5  6  2  0
  7  6  1  0
  8  7  2  0
  9 14  2  0
 10 11  2  0
 10  9  1  0
 11 12  1  0
 12 13  2  0
 13  4  1  0
 14 13  1  0
 15 16  1  0
 16 17  2  0
 17  1  1  0
 17 18  1  0
 19 18  2  0
 20 19  1  0
 21 16  1  0
 21 20  2  0
 22 23  2  0
 22 29  1  0
 23 21  1  0
 24 23  1  0
 25 24  2  0
 26 25  1  0
 26 27  2  0
 27 22  1  0
 29 28  3  0
  5 30  1  0
  6 31  1  0
  7 32  1  0
  9 33  1  0
 10 34  1  0
 11 35  1  0
 18 36  1  0
 19 37  1  0
 20 38  1  0
 24 39  1  0
 25 40  1  0
 26 41  1  0
 27 42  1  0
M  ISO  8  30  14  31  14  32  14  33  14  34  14  35  14  36  14  37  14
M  ISO  5  38  14  39  14  40  14  41  14  42  14
M  END
>  <minimizedAffinity>  (1) 
-5.51732922

>  <minimizedRMSD>  (1) 
1.09250391

$$$$
