
     RDKit          3D

 44 47  0  0  1  0  0  0  0  0999 V2000
   39.7380   31.1820   41.7150 C   0  0  2  0  0  0  0  0  0  0  0  0
   39.6150   32.3140   42.7080 C   0  0  1  0  0  0  0  0  0  0  0  0
   38.4220   33.0200   42.0940 C   0  0  0  0  0  0  0  0  0  0  0  0
   38.5130   32.8910   40.7290 O   0  0  0  0  0  0  0  0  0  0  0  0
   39.4880   31.9930   40.4310 C   0  0  0  0  0  0  0  0  0  0  0  0
   38.3800   31.1620   45.8720 C   0  0  0  0  0  0  0  0  0  0  0  0
   39.7030   30.9870   46.0610 C   0  0  0  0  0  0  0  0  0  0  0  0
   40.2820   31.4150   44.8640 C   0  0  0  0  0  0  0  0  0  0  0  0
   39.3170   31.8190   44.0250 N   0  0  0  0  0  0  0  0  0  0  0  0
   38.1390   31.6680   44.6340 N   0  0  0  0  0  0  0  0  0  0  0  0
   36.5010   30.6290   49.0820 C   0  0  0  0  0  0  0  0  0  0  0  0
   37.5080   30.9330   48.1990 C   0  0  0  0  0  0  0  0  0  0  0  0
   37.3420   30.8530   46.8420 C   0  0  0  0  0  0  0  0  0  0  0  0
   36.1100   30.4500   46.4120 N   0  0  0  0  0  0  0  0  0  0  0  0
   35.1180   30.1520   47.3000 C   0  0  0  0  0  0  0  0  0  0  0  0
   35.3040   30.2370   48.6050 N   0  0  0  0  0  0  0  0  0  0  0  0
   36.8650   30.7720   50.4150 O   0  0  0  0  0  0  0  0  0  0  0  0
   36.9090   29.7100   51.3330 C   0  0  0  0  0  0  0  0  0  0  0  0
   35.6360   29.2400   51.6540 F   0  0  0  0  0  0  0  0  0  0  0  0
   37.5780   30.0980   52.4500 F   0  0  0  0  0  0  0  0  0  0  0  0
   37.6130   28.6570   50.7530 F   0  0  0  0  0  0  0  0  0  0  0  0
   38.6560   30.3200   41.9070 O   0  0  0  0  0  0  0  0  0  0  0  0
   41.6850   29.2200   42.2460 O   0  0  0  0  0  0  0  0  0  0  0  0
   40.4700   28.8540   42.0880 C   0  0  0  0  0  0  0  0  0  0  0  0
   39.0340   28.9900   41.7860 C   0  0  1  0  0  0  0  0  0  0  0  0
   38.4190   28.1880   42.9300 C   0  0  0  0  0  0  0  0  0  0  0  0
   39.2360   26.8910   42.8720 C   0  0  0  0  0  0  0  0  0  0  0  0
   40.4990   27.4320   42.3880 N   0  0  0  0  0  0  0  0  0  0  0  0
   40.6611   30.5848   41.7508 H   0  0  0  0  0  0  0  0  0  0  0  0
   40.5135   32.9320   42.8522 H   0  0  0  0  0  0  0  0  0  0  0  0
   37.4896   32.5589   42.4519 H   0  0  0  0  0  0  0  0  0  0  0  0
   38.4160   34.0823   42.3795 H   0  0  0  0  0  0  0  0  0  0  0  0
   39.1579   31.3282   39.6192 H   0  0  0  0  0  0  0  0  0  0  0  0
   40.4051   32.4973   40.0926 H   0  0  0  0  0  0  0  0  0  0  0  0
   40.2113   30.5960   46.9547 H   0  0  0  0  0  0  0  0  0  0  0  0
   41.3598   31.4199   44.6442 H   0  0  0  0  0  0  0  0  0  0  0  0
   38.4829   31.2522   48.5960 H   0  0  0  0  0  0  0  0  0  0  0  0
   34.1369   29.8323   46.9189 H   0  0  0  0  0  0  0  0  0  0  0  0
   38.7443   28.6602   40.7774 H   0  0  0  0  0  0  0  0  0  0  0  0
   38.5482   28.7009   43.8945 H   0  0  0  0  0  0  0  0  0  0  0  0
   37.3333   28.0373   42.8376 H   0  0  0  0  0  0  0  0  0  0  0  0
   39.3405   26.4258   43.8633 H   0  0  0  0  0  0  0  0  0  0  0  0
   38.8017   26.0880   42.2584 H   0  0  0  0  0  0  0  0  0  0  0  0
   41.3433   26.8543   42.2682 H   0  0  0  0  0  0  0  0  0  0  0  0
  1 22  1  0
  1  2  1  0
  2  9  1  0
  3  2  1  0
  4  3  1  0
  5  4  1  0
  5  1  1  0
  6  7  1  0
  6 13  1  0
  8  7  2  0
  9 10  1  0
  9  8  1  0
 10  6  2  0
 11 17  1  0
 12 11  2  0
 13 12  1  0
 14 13  2  0
 14 15  1  0
 15 16  2  0
 16 11  1  0
 17 18  1  0
 18 19  1  0
 18 20  1  0
 21 18  1  0
 24 23  2  0
 24 28  1  0
 25 22  1  0
 25 24  1  0
 25 26  1  0
 27 26  1  0
 28 27  1  0
  1 29  1  6
  2 30  1  1
  3 31  1  0
  3 32  1  0
  5 33  1  0
  5 34  1  0
  7 35  1  0
  8 36  1  0
 12 37  1  0
 15 38  1  0
 25 39  1  6
 26 40  1  0
 26 41  1  0
 27 42  1  0
 27 43  1  0
 28 44  1  0
M  ISO  8  29  13  30  13  31  13  32  13  33  13  34  13  35  14  36  14
M  ISO  8  37  14  38  14  39  13  40  13  41  13  42  13  43  13  44  10
M  END
>  <minimizedAffinity>  (1) 
-6.6837945

>  <minimizedRMSD>  (1) 
0.68167454

$$$$
