
     RDKit          3D

 40 42  0  0  0  0  0  0  0  0999 V2000
   35.9470   29.9860   50.3310 C   0  0  0  0  0  0  0  0  0  0  0  0
   36.9380   29.7870   51.2990 C   0  0  0  0  0  0  0  0  0  0  0  0
   38.0280   30.5270   50.9240 C   0  0  0  0  0  0  0  0  0  0  0  0
   37.7080   31.1450   49.7800 N   0  0  0  0  0  0  0  0  0  0  0  0
   36.4790   30.8050   49.4590 N   0  0  0  0  0  0  0  0  0  0  0  0
   38.4390   32.0340   48.9380 C   0  0  0  0  0  0  0  0  0  0  0  0
   38.8130   33.2270   49.5020 C   0  0  0  0  0  0  0  0  0  0  0  0
   39.5300   34.2220   48.8400 C   0  0  0  0  0  0  0  0  0  0  0  0
   39.8620   33.9360   47.5230 C   0  0  0  0  0  0  0  0  0  0  0  0
   39.4940   32.7400   46.9330 C   0  0  0  0  0  0  0  0  0  0  0  0
   38.7810   31.7740   47.6240 C   0  0  0  0  0  0  0  0  0  0  0  0
   34.6330   29.3260   50.4330 C   0  0  0  0  0  0  0  0  0  0  0  0
   34.4570   28.2210   49.4560 C   0  0  0  0  0  0  0  0  0  0  0  0
   33.4560   28.3830   48.4260 C   0  0  0  0  0  0  0  0  0  0  0  0
   32.2800   27.7030   48.4650 C   0  0  0  0  0  0  0  0  0  0  0  0
   31.3240   27.8760   47.4510 C   0  0  0  0  0  0  0  0  0  0  0  0
   31.6640   28.7590   46.4510 N   0  0  0  0  0  0  0  0  0  0  0  0
   32.8410   29.4210   46.4390 C   0  0  0  0  0  0  0  0  0  0  0  0
   33.7050   29.2080   47.4380 N   0  0  0  0  0  0  0  0  0  0  0  0
   33.1700   30.3500   45.3640 C   0  0  0  0  0  0  0  0  0  0  0  0
   33.8880   29.9950   44.3130 C   0  0  0  0  0  0  0  0  0  0  0  0
   34.4200   28.6220   44.1400 C   0  0  0  0  0  0  0  0  0  0  0  0
   36.8567   29.1538   52.1948 H   0  0  0  0  0  0  0  0  0  0  0  0
   38.9852   30.5998   51.4611 H   0  0  0  0  0  0  0  0  0  0  0  0
   38.5275   33.4110   50.5483 H   0  0  0  0  0  0  0  0  0  0  0  0
   39.8128   35.1670   49.3268 H   0  0  0  0  0  0  0  0  0  0  0  0
   40.4287   34.6746   46.9370 H   0  0  0  0  0  0  0  0  0  0  0  0
   39.7753   32.5509   45.8865 H   0  0  0  0  0  0  0  0  0  0  0  0
   38.4953   30.8278   47.1413 H   0  0  0  0  0  0  0  0  0  0  0  0
   34.5253   28.9160   51.4480 H   0  0  0  0  0  0  0  0  0  0  0  0
   33.8677   30.0843   50.2110 H   0  0  0  0  0  0  0  0  0  0  0  0
   35.4237   28.0713   48.9529 H   0  0  0  0  0  0  0  0  0  0  0  0
   34.0983   27.3737   50.0589 H   0  0  0  0  0  0  0  0  0  0  0  0
   32.0756   27.0124   49.2965 H   0  0  0  0  0  0  0  0  0  0  0  0
   30.3637   27.3396   47.4555 H   0  0  0  0  0  0  0  0  0  0  0  0
   32.8065   31.3861   45.4306 H   0  0  0  0  0  0  0  0  0  0  0  0
   34.0988   30.7462   43.5376 H   0  0  0  0  0  0  0  0  0  0  0  0
   34.5953   28.1696   45.1272 H   0  0  0  0  0  0  0  0  0  0  0  0
   33.6922   28.0144   43.5822 H   0  0  0  0  0  0  0  0  0  0  0  0
   35.3672   28.6634   43.5822 H   0  0  0  0  0  0  0  0  0  0  0  0
  1 12  1  0
  1  2  1  0
  3  2  2  0
  4  3  1  0
  5  4  1  0
  5  1  2  0
  6  7  2  0
  6  4  1  0
  8  7  1  0
  9  8  2  0
 10  9  1  0
 10 11  2  0
 11  6  1  0
 13 12  1  0
 14 15  2  0
 14 13  1  0
 16 15  1  0
 17 16  2  0
 18 17  1  0
 18 19  2  0
 19 14  1  0
 20 18  1  0
 21 20  2  0
 22 21  1  0
  2 23  1  0
  3 24  1  0
  7 25  1  0
  8 26  1  0
  9 27  1  0
 10 28  1  0
 11 29  1  0
 12 30  1  0
 12 31  1  0
 13 32  1  0
 13 33  1  0
 15 34  1  0
 16 35  1  0
 20 36  1  0
 21 37  1  0
 22 38  1  0
 22 39  1  0
 22 40  1  0
M  ISO  8  23  14  24  14  25  14  26  14  27  14  28  14  29  14  30   8
M  ISO  8  31   8  32   8  33   8  34  14  35  14  38   8  39   8  40   8
M  END
>  <minimizedAffinity>  (1) 
-5.91222334

>  <minimizedRMSD>  (1) 
2.13417792

$$$$
