
     RDKit          3D

 29 30  0  0  0  0  0  0  0  0999 V2000
   37.1300   30.9570   49.0220 C   0  0  0  0  0  0  0  0  0  0  0  0
   36.9170   31.9310   50.0050 C   0  0  0  0  0  0  0  0  0  0  0  0
   37.5600   33.1620   49.9790 C   0  0  0  0  0  0  0  0  0  0  0  0
   38.4510   33.4620   48.9520 C   0  0  0  0  0  0  0  0  0  0  0  0
   38.6490   32.4960   47.9960 C   0  0  0  0  0  0  0  0  0  0  0  0
   38.0040   31.2840   48.0360 C   0  0  0  0  0  0  0  0  0  0  0  0
   36.4120   29.7030   49.1250 C   0  0  0  0  0  0  0  0  0  0  0  0
   36.9310   28.8710   49.9550 O   0  0  0  0  0  0  0  0  0  0  0  0
   33.6260   30.1730   46.8480 C   0  0  0  0  0  0  0  0  0  0  0  0
   32.9630   28.9520   46.8670 C   0  0  0  0  0  0  0  0  0  0  0  0
   33.4720   27.9530   47.6750 C   0  0  0  0  0  0  0  0  0  0  0  0
   34.5900   28.1950   48.4150 N   0  0  0  0  0  0  0  0  0  0  0  0
   35.2050   29.3690   48.3780 C   0  0  0  0  0  0  0  0  0  0  0  0
   34.7150   30.3500   47.5930 N   0  0  0  0  0  0  0  0  0  0  0  0
   38.3300   30.3820   46.9560 C   0  0  0  0  0  0  0  0  0  0  0  0
   38.8110   30.6910   45.7680 C   0  0  0  0  0  0  0  0  0  0  0  0
   39.1930   29.9260   44.5760 C   0  0  0  0  0  0  0  0  0  0  0  0
   36.2170   31.7141   50.8254 H   0  0  0  0  0  0  0  0  0  0  0  0
   37.3651   33.9005   50.7706 H   0  0  0  0  0  0  0  0  0  0  0  0
   38.9729   34.4293   48.9083 H   0  0  0  0  0  0  0  0  0  0  0  0
   39.3473   32.6997   47.1709 H   0  0  0  0  0  0  0  0  0  0  0  0
   33.2512   30.9929   46.2177 H   0  0  0  0  0  0  0  0  0  0  0  0
   32.0619   28.7859   46.2584 H   0  0  0  0  0  0  0  0  0  0  0  0
   32.9787   26.9709   47.7203 H   0  0  0  0  0  0  0  0  0  0  0  0
   38.1568   29.3126   47.1470 H   0  0  0  0  0  0  0  0  0  0  0  0
   38.9606   31.7734   45.6412 H   0  0  0  0  0  0  0  0  0  0  0  0
   39.6649   28.9809   44.8826 H   0  0  0  0  0  0  0  0  0  0  0  0
   38.2967   29.7105   43.9758 H   0  0  0  0  0  0  0  0  0  0  0  0
   39.9038   30.5130   43.9758 H   0  0  0  0  0  0  0  0  0  0  0  0
  1  7  1  0
  1  2  2  0
  3  2  1  0
  4  3  2  0
  5  6  2  0
  5  4  1  0
  6  1  1  0
  7  8  2  0
  9 10  2  0
  9 14  1  0
 10 11  1  0
 11 12  2  0
 13 12  1  0
 13  7  1  0
 14 13  2  0
 15  6  1  0
 16 15  2  0
 17 16  1  0
  2 18  1  0
  3 19  1  0
  4 20  1  0
  5 21  1  0
  9 22  1  0
 10 23  1  0
 11 24  1  0
 15 25  1  0
 16 26  1  0
 17 27  1  0
 17 28  1  0
 17 29  1  0
M  ISO  8  18  14  19  14  20  14  21  14  22  14  23  14  24  14  27   8
M  ISO  2  28   8  29   8
M  END
>  <minimizedAffinity>  (1) 
-5.4358058

>  <minimizedRMSD>  (1) 
2.20586586

$$$$
