
     RDKit          3D

 32 33  0  0  0  0  0  0  0  0999 V2000
   33.8780   28.6380   48.7120 C   0  0  0  0  0  0  0  0  0  0  0  0
   33.0070   27.5000   48.2820 C   0  0  0  0  0  0  0  0  0  0  0  0
   31.5800   27.8860   48.1400 C   0  0  0  0  0  0  0  0  0  0  0  0
   30.7560   27.6390   49.2100 C   0  0  0  0  0  0  0  0  0  0  0  0
   29.4130   27.9510   49.2030 C   0  0  0  0  0  0  0  0  0  0  0  0
   28.8920   28.5150   48.1190 N   0  0  0  0  0  0  0  0  0  0  0  0
   29.7060   28.7620   47.0540 C   0  0  0  0  0  0  0  0  0  0  0  0
   31.0190   28.4600   47.0540 N   0  0  0  0  0  0  0  0  0  0  0  0
   34.7760   28.2270   49.7360 O   0  0  0  0  0  0  0  0  0  0  0  0
   37.2860   30.2020   51.4330 C   0  0  0  0  0  0  0  0  0  0  0  0
   37.9580   30.7420   50.3300 C   0  0  0  0  0  0  0  0  0  0  0  0
   37.5170   30.4040   49.0480 C   0  0  0  0  0  0  0  0  0  0  0  0
   36.4400   29.5520   48.9580 N   0  0  0  0  0  0  0  0  0  0  0  0
   35.8220   29.0520   50.0430 C   0  0  0  0  0  0  0  0  0  0  0  0
   36.2560   29.3860   51.2770 N   0  0  0  0  0  0  0  0  0  0  0  0
   38.1410   30.9090   47.8140 C   0  0  0  0  0  0  0  0  0  0  0  0
   38.8120   32.0500   47.7830 C   0  0  0  0  0  0  0  0  0  0  0  0
   39.3990   32.4570   46.4730 C   0  0  0  0  0  0  0  0  0  0  0  0
   33.2449   29.4529   49.0930 H   0  0  0  0  0  0  0  0  0  0  0  0
   34.4633   28.9812   47.8462 H   0  0  0  0  0  0  0  0  0  0  0  0
   33.3684   27.1286   47.3117 H   0  0  0  0  0  0  0  0  0  0  0  0
   33.0638   26.7274   49.0630 H   0  0  0  0  0  0  0  0  0  0  0  0
   31.1847   27.1732   50.1096 H   0  0  0  0  0  0  0  0  0  0  0  0
   28.7840   27.7367   50.0796 H   0  0  0  0  0  0  0  0  0  0  0  0
   29.2726   29.2276   46.1566 H   0  0  0  0  0  0  0  0  0  0  0  0
   37.6205   30.4609   52.4484 H   0  0  0  0  0  0  0  0  0  0  0  0
   38.8147   31.4178   50.4696 H   0  0  0  0  0  0  0  0  0  0  0  0
   38.0469   30.3204   46.8895 H   0  0  0  0  0  0  0  0  0  0  0  0
   38.9314   32.6706   48.6834 H   0  0  0  0  0  0  0  0  0  0  0  0
   40.2915   33.0758   46.6476 H   0  0  0  0  0  0  0  0  0  0  0  0
   39.6809   31.5595   45.9028 H   0  0  0  0  0  0  0  0  0  0  0  0
   38.6574   33.0357   45.9028 H   0  0  0  0  0  0  0  0  0  0  0  0
  1  9  1  0
  2  1  1  0
  3  2  1  0
  3  4  2  0
  5  4  1  0
  6  5  2  0
  7  8  2  0
  7  6  1  0
  8  3  1  0
  9 14  1  0
 11 10  2  0
 12 11  1  0
 13 12  2  0
 13 14  1  0
 14 15  2  0
 15 10  1  0
 16 12  1  0
 17 16  2  0
 18 17  1  0
  1 19  1  0
  1 20  1  0
  2 21  1  0
  2 22  1  0
  4 23  1  0
  5 24  1  0
  7 25  1  0
 10 26  1  0
 11 27  1  0
 16 28  1  0
 17 29  1  0
 18 30  1  0
 18 31  1  0
 18 32  1  0
M  ISO  8  19   8  20   8  21   8  22   8  23  14  24  14  25  14  26  14
M  ISO  4  27  14  30   8  31   8  32   8
M  END
>  <minimizedAffinity>  (1) 
-5.28966856

>  <minimizedRMSD>  (1) 
0.664384902

$$$$
