
     RDKit          3D

 38 40  0  0  1  0  0  0  0  0999 V2000
   37.0340   31.3610   49.0080 C   0  0  0  0  0  0  0  0  0  0  0  0
   37.7960   32.3750   49.5190 C   0  0  0  0  0  0  0  0  0  0  0  0
   38.6610   33.1570   48.7440 C   0  0  0  0  0  0  0  0  0  0  0  0
   38.7310   32.8740   47.4020 N   0  0  0  0  0  0  0  0  0  0  0  0
   37.9850   31.8830   46.9100 C   0  0  0  0  0  0  0  0  0  0  0  0
   37.1710   31.1570   47.6730 N   0  0  0  0  0  0  0  0  0  0  0  0
   38.0900   31.5700   45.4810 C   0  0  2  0  0  0  0  0  0  0  0  0
   36.9640   30.7230   44.9410 C   0  0  0  0  0  0  0  0  0  0  0  0
   37.5860   30.0400   43.7370 C   0  0  0  0  0  0  0  0  0  0  0  0
   39.0530   30.3150   43.7850 C   0  0  0  0  0  0  0  0  0  0  0  0
   39.2740   30.6440   45.2740 C   0  0  1  0  0  0  0  0  0  0  0  0
   40.5770   31.2710   45.4950 C   0  0  0  0  0  0  0  0  0  0  0  0
   41.0740   32.4440   45.1380 C   0  0  0  0  0  0  0  0  0  0  0  0
   40.3450   33.4790   44.3620 C   0  0  0  0  0  0  0  0  0  0  0  0
   36.5620   29.8740   50.9700 C   0  0  0  0  0  0  0  0  0  0  0  0
   36.1550   30.5540   49.8200 C   0  0  0  0  0  0  0  0  0  0  0  0
   34.8280   30.4310   49.4530 C   0  0  0  0  0  0  0  0  0  0  0  0
   34.0020   29.6690   50.2130 N   0  0  0  0  0  0  0  0  0  0  0  0
   34.4350   29.0250   51.3210 C   0  0  0  0  0  0  0  0  0  0  0  0
   35.7160   29.1320   51.6920 N   0  0  0  0  0  0  0  0  0  0  0  0
   37.7257   32.5876   50.5960 H   0  0  0  0  0  0  0  0  0  0  0  0
   39.2595   33.9643   49.1913 H   0  0  0  0  0  0  0  0  0  0  0  0
   38.1284   32.5529   44.9886 H   0  0  0  0  0  0  0  0  0  0  0  0
   36.6345   29.9842   45.6863 H   0  0  0  0  0  0  0  0  0  0  0  0
   36.0682   31.3091   44.6878 H   0  0  0  0  0  0  0  0  0  0  0  0
   37.1563   30.4458   42.8093 H   0  0  0  0  0  0  0  0  0  0  0  0
   37.3898   28.9578   43.7563 H   0  0  0  0  0  0  0  0  0  0  0  0
   39.6344   29.4321   43.4811 H   0  0  0  0  0  0  0  0  0  0  0  0
   39.3746   31.1162   43.1033 H   0  0  0  0  0  0  0  0  0  0  0  0
   39.3080   29.7948   45.9724 H   0  0  0  0  0  0  0  0  0  0  0  0
   41.2786   30.6472   46.0683 H   0  0  0  0  0  0  0  0  0  0  0  0
   42.1075   32.6701   45.4394 H   0  0  0  0  0  0  0  0  0  0  0  0
   39.8529   34.1777   45.0546 H   0  0  0  0  0  0  0  0  0  0  0  0
   41.0553   34.0302   43.7283 H   0  0  0  0  0  0  0  0  0  0  0  0
   39.5867   32.9958   43.7283 H   0  0  0  0  0  0  0  0  0  0  0  0
   37.6111   29.9513   51.2917 H   0  0  0  0  0  0  0  0  0  0  0  0
   34.4471   30.9437   48.5574 H   0  0  0  0  0  0  0  0  0  0  0  0
   33.7370   28.4161   51.9143 H   0  0  0  0  0  0  0  0  0  0  0  0
  1  2  2  0
  1 16  1  0
  3  2  1  0
  4  3  2  0
  5  4  1  0
  5  6  2  0
  6  1  1  0
  7  5  1  0
  8  7  1  0
  9 10  1  0
  9  8  1  0
 10 11  1  0
 11  7  1  0
 11 12  1  0
 13 12  2  0
 14 13  1  0
 15 20  2  0
 16 15  1  0
 17 16  2  0
 17 18  1  0
 18 19  2  0
 19 20  1  0
  2 21  1  0
  3 22  1  0
  7 23  1  6
  8 24  1  0
  8 25  1  0
  9 26  1  0
  9 27  1  0
 10 28  1  0
 10 29  1  0
 11 30  1  1
 12 31  1  0
 13 32  1  0
 14 33  1  0
 14 34  1  0
 14 35  1  0
 15 36  1  0
 17 37  1  0
 19 38  1  0
M  ISO  8  21  14  22  14  23  13  24  13  25  13  26  13  27  13  28  13
M  ISO  8  29  13  30  13  33   8  34   8  35   8  36  14  37  14  38  14
M  END
>  <minimizedAffinity>  (1) 
-5.55430555

>  <minimizedRMSD>  (1) 
2.09843373

$$$$
