
     RDKit          3D

 28 28  0  0  1  0  0  0  0  0999 V2000
   39.0430   31.0290   46.9370 C   0  0  0  0  0  0  0  0  0  0  0  0
   38.0790   31.7780   47.4560 C   0  0  0  0  0  0  0  0  0  0  0  0
   40.0500   32.0060   43.4910 C   0  0  0  0  0  0  0  0  0  0  0  0
   39.7840   32.0540   44.8670 C   0  0  0  0  0  0  0  0  0  0  0  0
   39.2820   30.9540   45.5240 C   0  0  0  0  0  0  0  0  0  0  0  0
   39.0530   29.8220   44.7960 N   0  0  0  0  0  0  0  0  0  0  0  0
   39.3120   29.7960   43.4930 C   0  0  0  0  0  0  0  0  0  0  0  0
   39.8060   30.8770   42.8350 N   0  0  0  0  0  0  0  0  0  0  0  0
   37.9970   31.8310   48.9340 C   0  0  1  0  0  0  0  0  0  0  0  0
   38.3920   32.9960   49.6340 C   0  0  0  0  0  0  0  0  0  0  0  0
   39.1870   34.0260   49.4330 C   0  0  0  0  0  0  0  0  0  0  0  0
   39.9980   34.2660   48.2220 C   0  0  0  0  0  0  0  0  0  0  0  0
   36.4530   31.0120   49.4330 S   0  0  0  0  0  0  0  0  0  0  0  0
   36.7320   29.9110   50.8220 C   0  0  0  0  0  0  0  0  0  0  0  0
   37.4490   30.5220   51.8460 F   0  0  0  0  0  0  0  0  0  0  0  0
   35.5680   29.3260   51.2660 F   0  0  0  0  0  0  0  0  0  0  0  0
   37.5500   28.8520   50.3400 F   0  0  0  0  0  0  0  0  0  0  0  0
   39.6825   30.4441   47.6144 H   0  0  0  0  0  0  0  0  0  0  0  0
   37.3743   32.3331   46.8193 H   0  0  0  0  0  0  0  0  0  0  0  0
   40.4523   32.8849   42.9659 H   0  0  0  0  0  0  0  0  0  0  0  0
   39.9786   32.9806   45.4270 H   0  0  0  0  0  0  0  0  0  0  0  0
   39.1205   28.8707   42.9298 H   0  0  0  0  0  0  0  0  0  0  0  0
   38.8600   31.2668   49.3172 H   0  0  0  0  0  0  0  0  0  0  0  0
   37.8995   33.0578   50.6156 H   0  0  0  0  0  0  0  0  0  0  0  0
   39.2531   34.7734   50.2374 H   0  0  0  0  0  0  0  0  0  0  0  0
   41.0146   34.5668   48.5152 H   0  0  0  0  0  0  0  0  0  0  0  0
   40.0465   33.3437   47.6245 H   0  0  0  0  0  0  0  0  0  0  0  0
   39.5368   35.0662   47.6245 H   0  0  0  0  0  0  0  0  0  0  0  0
  1  2  2  0
  2  9  1  0
  3  4  2  0
  4  5  1  0
  5  1  1  0
  6  5  2  0
  7  6  1  0
  8  3  1  0
  8  7  2  0
  9 13  1  0
  9 10  1  0
 11 10  2  0
 12 11  1  0
 13 14  1  0
 14 16  1  0
 14 15  1  0
 17 14  1  0
  1 18  1  0
  2 19  1  0
  3 20  1  0
  4 21  1  0
  7 22  1  0
  9 23  1  1
 10 24  1  0
 11 25  1  0
 12 26  1  0
 12 27  1  0
 12 28  1  0
M  ISO  7  20  14  21  14  22  14  23   8  26   8  27   8  28   8
M  END
>  <minimizedAffinity>  (1) 
-5.38348436

>  <minimizedRMSD>  (1) 
1.547647

$$$$
