
     RDKit          3D

 24 24  0  0  0  0  0  0  0  0999 V2000
   37.3660   30.2490   51.4480 C   0  0  0  0  0  0  0  0  0  0  0  0
   38.1330   30.7580   50.3860 C   0  0  0  0  0  0  0  0  0  0  0  0
   37.7550   30.4340   49.0580 C   0  0  0  0  0  0  0  0  0  0  0  0
   36.6540   29.6350   48.9040 N   0  0  0  0  0  0  0  0  0  0  0  0
   35.9560   29.1720   49.9660 C   0  0  0  0  0  0  0  0  0  0  0  0
   36.3080   29.4760   51.2100 N   0  0  0  0  0  0  0  0  0  0  0  0
   34.8100   28.3350   49.6660 C   0  0  0  0  0  0  0  0  0  0  0  0
   34.4280   28.2030   48.4360 C   0  0  0  0  0  0  0  0  0  0  0  0
   33.3090   27.4190   47.8810 C   0  0  0  0  0  0  0  0  0  0  0  0
   33.7200   26.0580   47.4640 C   0  0  0  0  0  0  0  0  0  0  0  0
   33.9870   25.6910   46.2360 C   0  0  0  0  0  0  0  0  0  0  0  0
   33.8840   26.6820   45.1370 C   0  0  0  0  0  0  0  0  0  0  0  0
   37.6420   30.4912   52.4849 H   0  0  0  0  0  0  0  0  0  0  0  0
   39.0086   31.3947   50.5808 H   0  0  0  0  0  0  0  0  0  0  0  0
   38.3205   30.8075   48.1915 H   0  0  0  0  0  0  0  0  0  0  0  0
   34.2716   27.8183   50.4742 H   0  0  0  0  0  0  0  0  0  0  0  0
   35.0255   28.7566   47.6968 H   0  0  0  0  0  0  0  0  0  0  0  0
   32.5255   27.3311   48.6481 H   0  0  0  0  0  0  0  0  0  0  0  0
   32.9435   27.9457   46.9871 H   0  0  0  0  0  0  0  0  0  0  0  0
   33.8080   25.2937   48.2502 H   0  0  0  0  0  0  0  0  0  0  0  0
   34.2858   24.6545   46.0206 H   0  0  0  0  0  0  0  0  0  0  0  0
   33.7791   27.6912   45.5619 H   0  0  0  0  0  0  0  0  0  0  0  0
   34.7916   26.6377   44.5171 H   0  0  0  0  0  0  0  0  0  0  0  0
   33.0049   26.4520   44.5171 H   0  0  0  0  0  0  0  0  0  0  0  0
  2  1  2  0
  3  2  1  0
  4  3  2  0
  4  5  1  0
  5  6  2  0
  6  1  1  0
  7  5  1  0
  8  7  2  0
  9  8  1  0
 10  9  1  0
 11 10  2  0
 12 11  1  0
  1 13  1  0
  2 14  1  0
  3 15  1  0
  7 16  1  0
  8 17  1  0
  9 18  1  0
  9 19  1  0
 10 20  1  0
 11 21  1  0
 12 22  1  0
 12 23  1  0
 12 24  1  0
M  ISO  8  13  14  14  14  15  14  18   8  19   8  22   8  23   8  24   8
M  END
>  <minimizedAffinity>  (1) 
-4.19784403

>  <minimizedRMSD>  (1) 
0.30577153

$$$$
