
     RDKit          3D

 20 20  0  0  0  0  0  0  0  0999 V2000
   36.1500   30.4370   49.5970 C   0  0  0  0  0  0  0  0  0  0  0  0
   37.1410   30.6410   50.5620 C   0  0  0  0  0  0  0  0  0  0  0  0
   38.3280   31.2740   50.1700 C   0  0  0  0  0  0  0  0  0  0  0  0
   38.4540   31.6610   48.8620 N   0  0  0  0  0  0  0  0  0  0  0  0
   37.4750   31.4460   47.9600 C   0  0  0  0  0  0  0  0  0  0  0  0
   36.3230   30.8350   48.3280 N   0  0  0  0  0  0  0  0  0  0  0  0
   34.8980   29.7680   50.0130 C   0  0  0  0  0  0  0  0  0  0  0  0
   34.7600   28.3980   49.4710 C   0  0  0  0  0  0  0  0  0  0  0  0
   33.9910   28.0190   48.4260 C   0  0  0  0  0  0  0  0  0  0  0  0
   33.7390   26.6950   47.7570 C   0  0  0  0  0  0  0  0  0  0  0  0
   36.9927   30.3132   51.6015 H   0  0  0  0  0  0  0  0  0  0  0  0
   39.1369   31.4553   50.8931 H   0  0  0  0  0  0  0  0  0  0  0  0
   37.6127   31.7691   46.9176 H   0  0  0  0  0  0  0  0  0  0  0  0
   34.8797   29.7127   51.1115 H   0  0  0  0  0  0  0  0  0  0  0  0
   34.0624   30.3623   49.6147 H   0  0  0  0  0  0  0  0  0  0  0  0
   35.3420   27.6083   49.9688 H   0  0  0  0  0  0  0  0  0  0  0  0
   33.4340   28.8509   47.9702 H   0  0  0  0  0  0  0  0  0  0  0  0
   33.5914   25.9194   48.5229 H   0  0  0  0  0  0  0  0  0  0  0  0
   32.8384   26.7668   47.1295 H   0  0  0  0  0  0  0  0  0  0  0  0
   34.6030   26.4309   47.1295 H   0  0  0  0  0  0  0  0  0  0  0  0
  1  7  1  0
  1  2  2  0
  3  2  1  0
  4  3  2  0
  5  6  2  0
  5  4  1  0
  6  1  1  0
  8  7  1  0
  9  8  2  0
 10  9  1  0
  2 11  1  0
  3 12  1  0
  5 13  1  0
  7 14  1  0
  7 15  1  0
  8 16  1  0
  9 17  1  0
 10 18  1  0
 10 19  1  0
 10 20  1  0
M  ISO  8  11  14  12  14  13  14  14   8  15   8  18   8  19   8  20   8
M  END
>  <minimizedAffinity>  (1) 
-3.9952352

>  <minimizedRMSD>  (1) 
4.06200361

$$$$
