
     RDKit          3D

 45 47  0  0  0  0  0  0  0  0999 V2000
   38.4060   32.8190   48.4540 C   0  0  0  0  0  0  0  0  0  0  0  0
   38.8320   32.1420   47.3160 C   0  0  0  0  0  0  0  0  0  0  0  0
   38.4760   30.8230   47.2090 C   0  0  0  0  0  0  0  0  0  0  0  0
   37.7410   30.2570   48.2010 N   0  0  0  0  0  0  0  0  0  0  0  0
   37.3600   30.9330   49.2570 C   0  0  0  0  0  0  0  0  0  0  0  0
   37.6820   32.2630   49.4310 N   0  0  0  0  0  0  0  0  0  0  0  0
   39.5600   32.8120   46.3980 O   0  0  0  0  0  0  0  0  0  0  0  0
   39.4930   32.4470   45.0670 C   0  0  0  0  0  0  0  0  0  0  0  0
   40.4650   31.8480   44.3000 C   0  0  0  0  0  0  0  0  0  0  0  0
   40.2150   31.5610   42.9990 C   0  0  0  0  0  0  0  0  0  0  0  0
   39.0030   31.8760   42.4870 C   0  0  0  0  0  0  0  0  0  0  0  0
   38.0210   32.4810   43.2600 C   0  0  0  0  0  0  0  0  0  0  0  0
   38.2970   32.7540   44.5500 N   0  0  0  0  0  0  0  0  0  0  0  0
   36.6640   32.8250   42.6580 C   0  0  0  0  0  0  0  0  0  0  0  0
   36.3940   29.9320   50.4140 S   0  0  0  0  0  0  0  0  0  0  0  0
   34.6540   30.3010   49.9920 C   0  0  0  0  0  0  0  0  0  0  0  0
   34.4880   27.5610   49.8140 F   0  0  0  0  0  0  0  0  0  0  0  0
   34.3400   28.3110   48.6920 C   0  0  0  0  0  0  0  0  0  0  0  0
   34.4010   29.6950   48.6460 C   0  0  0  0  0  0  0  0  0  0  0  0
   34.2420   30.3770   47.4790 C   0  0  0  0  0  0  0  0  0  0  0  0
   34.0090   29.7020   46.2740 C   0  0  0  0  0  0  0  0  0  0  0  0
   33.9440   28.3130   46.2960 C   0  0  0  0  0  0  0  0  0  0  0  0
   34.1100   27.6380   47.5020 C   0  0  0  0  0  0  0  0  0  0  0  0
   34.0250   26.2650   47.4110 O   0  0  0  0  0  0  0  0  0  0  0  0
   33.2220   25.6030   46.5150 C   0  0  0  0  0  0  0  0  0  0  0  0
   33.7430   24.6400   45.7830 C   0  0  0  0  0  0  0  0  0  0  0  0
   35.1410   24.1980   45.8430 C   0  0  0  0  0  0  0  0  0  0  0  0
   38.6822   33.8788   48.5567 H   0  0  0  0  0  0  0  0  0  0  0  0
   38.7809   30.2317   46.3330 H   0  0  0  0  0  0  0  0  0  0  0  0
   41.4424   31.6026   44.7411 H   0  0  0  0  0  0  0  0  0  0  0  0
   40.9817   31.0819   42.3725 H   0  0  0  0  0  0  0  0  0  0  0  0
   38.7903   31.6472   41.4323 H   0  0  0  0  0  0  0  0  0  0  0  0
   35.9404   33.0084   43.4659 H   0  0  0  0  0  0  0  0  0  0  0  0
   36.7568   33.7280   42.0368 H   0  0  0  0  0  0  0  0  0  0  0  0
   36.3154   31.9868   42.0368 H   0  0  0  0  0  0  0  0  0  0  0  0
   33.9801   29.8581   50.7401 H   0  0  0  0  0  0  0  0  0  0  0  0
   34.4710   31.3856   49.9789 H   0  0  0  0  0  0  0  0  0  0  0  0
   34.2973   31.4756   47.4822 H   0  0  0  0  0  0  0  0  0  0  0  0
   33.8805   30.2571   45.3331 H   0  0  0  0  0  0  0  0  0  0  0  0
   33.7628   27.7520   45.3673 H   0  0  0  0  0  0  0  0  0  0  0  0
   32.1607   25.8727   46.4103 H   0  0  0  0  0  0  0  0  0  0  0  0
   33.0788   24.1274   45.0716 H   0  0  0  0  0  0  0  0  0  0  0  0
   35.4499   24.1003   46.8942 H   0  0  0  0  0  0  0  0  0  0  0  0
   35.2398   23.2248   45.3399 H   0  0  0  0  0  0  0  0  0  0  0  0
   35.7813   24.9375   45.3399 H   0  0  0  0  0  0  0  0  0  0  0  0
  1  6  2  0
  2  1  1  0
  3  2  2  0
  3  4  1  0
  4  5  2  0
  5  6  1  0
  5 15  1  0
  7  2  1  0
  8  7  1  0
  9  8  2  0
 10  9  1  0
 11 10  2  0
 11 12  1  0
 12 13  2  0
 13  8  1  0
 14 12  1  0
 16 15  1  0
 18 17  1  0
 19 18  2  0
 19 16  1  0
 20 19  1  0
 21 22  1  0
 21 20  2  0
 22 23  2  0
 23 18  1  0
 24 23  1  0
 25 24  1  0
 26 27  1  0
 26 25  2  0
  1 28  1  0
  3 29  1  0
  9 30  1  0
 10 31  1  0
 11 32  1  0
 14 33  1  0
 14 34  1  0
 14 35  1  0
 16 36  1  0
 16 37  1  0
 20 38  1  0
 21 39  1  0
 22 40  1  0
 25 41  1  0
 26 42  1  0
 27 43  1  0
 27 44  1  0
 27 45  1  0
M  ISO  8  28  14  29  14  30  14  31  14  32  14  33   8  34   8  35   8
M  ISO  8  36   8  37   8  38  14  39  14  40  14  43   8  44   8  45   8
M  END
>  <minimizedAffinity>  (1) 
-5.68456459

>  <minimizedRMSD>  (1) 
1.27164006

$$$$
