
     RDKit          3D

 32 33  0  0  0  0  0  0  0  0999 V2000
   38.0310   31.3770   47.7350 C   0  0  0  0  0  0  0  0  0  0  0  0
   37.0620   31.3230   48.7280 C   0  0  0  0  0  0  0  0  0  0  0  0
   37.1310   32.3680   49.6570 C   0  0  0  0  0  0  0  0  0  0  0  0
   38.1070   33.3670   49.5610 C   0  0  0  0  0  0  0  0  0  0  0  0
   39.0430   33.3280   48.5140 C   0  0  0  0  0  0  0  0  0  0  0  0
   38.9830   32.3110   47.6030 C   0  0  0  0  0  0  0  0  0  0  0  0
   34.9330   30.3460   48.0060 C   0  0  0  0  0  0  0  0  0  0  0  0
   36.0620   30.2980   48.8240 C   0  0  0  0  0  0  0  0  0  0  0  0
   36.1790   29.2330   49.7240 C   0  0  0  0  0  0  0  0  0  0  0  0
   35.1860   28.3040   49.7530 N   0  0  0  0  0  0  0  0  0  0  0  0
   34.1000   28.3930   48.9330 C   0  0  0  0  0  0  0  0  0  0  0  0
   33.9780   29.4020   48.0710 N   0  0  0  0  0  0  0  0  0  0  0  0
   37.3530   29.1300   50.6150 C   0  0  0  0  0  0  0  0  0  0  0  0
   38.0270   30.3490   46.7530 O   0  0  0  0  0  0  0  0  0  0  0  0
   39.9260   32.2950   46.5700 O   0  0  0  0  0  0  0  0  0  0  0  0
   39.9570   33.2110   45.5590 C   0  0  0  0  0  0  0  0  0  0  0  0
   40.1060   32.9690   44.2660 C   0  0  0  0  0  0  0  0  0  0  0  0
   40.2630   31.5640   43.8100 C   0  0  0  0  0  0  0  0  0  0  0  0
   36.4025   32.4049   50.4803 H   0  0  0  0  0  0  0  0  0  0  0  0
   38.1409   34.1791   50.3022 H   0  0  0  0  0  0  0  0  0  0  0  0
   39.8151   34.1069   48.4285 H   0  0  0  0  0  0  0  0  0  0  0  0
   34.8216   31.1750   47.2916 H   0  0  0  0  0  0  0  0  0  0  0  0
   33.3158   27.6232   48.9836 H   0  0  0  0  0  0  0  0  0  0  0  0
   37.0213   29.1591   51.6634 H   0  0  0  0  0  0  0  0  0  0  0  0
   37.8774   28.1824   50.4225 H   0  0  0  0  0  0  0  0  0  0  0  0
   38.0344   29.9718   50.4225 H   0  0  0  0  0  0  0  0  0  0  0  0
   38.7023   30.3534   46.0291 H   0  0  0  0  0  0  0  0  0  0  0  0
   39.8460   34.2659   45.8503 H   0  0  0  0  0  0  0  0  0  0  0  0
   40.1134   33.7957   43.5404 H   0  0  0  0  0  0  0  0  0  0  0  0
   40.3371   30.9008   44.6845 H   0  0  0  0  0  0  0  0  0  0  0  0
   39.3915   31.2756   43.2039 H   0  0  0  0  0  0  0  0  0  0  0  0
   41.1767   31.4751   43.2039 H   0  0  0  0  0  0  0  0  0  0  0  0
  1  2  2  0
  2  8  1  0
  2  3  1  0
  4  3  2  0
  5  4  1  0
  6  1  1  0
  6  5  2  0
  7 12  2  0
  7  8  1  0
  8  9  2  0
  9 10  1  0
  9 13  1  0
 11 10  2  0
 12 11  1  0
 14  1  1  0
 15  6  1  0
 16 15  1  0
 17 16  2  0
 18 17  1  0
  3 19  1  0
  4 20  1  0
  5 21  1  0
  7 22  1  0
 11 23  1  0
 13 24  1  0
 13 25  1  0
 13 26  1  0
 14 27  1  0
 16 28  1  0
 17 29  1  0
 18 30  1  0
 18 31  1  0
 18 32  1  0
M  ISO  8  19  14  20  14  21  14  22  14  23  14  24   8  25   8  26   8
M  ISO  4  27   3  30   8  31   8  32   8
M  END
>  <minimizedAffinity>  (1) 
-6.18016529

>  <minimizedRMSD>  (1) 
0.793585837

$$$$
