
     RDKit          3D

 45 48  0  0  0  0  0  0  0  0999 V2000
   36.6370   30.1220   50.1430 S   0  0  0  0  0  0  0  0  0  0  0  0
   38.8680   32.8710   48.2000 C   0  0  0  0  0  0  0  0  0  0  0  0
   39.1470   32.1950   47.0030 C   0  0  0  0  0  0  0  0  0  0  0  0
   38.6370   30.9370   46.8530 C   0  0  0  0  0  0  0  0  0  0  0  0
   37.8920   30.4080   47.8670 N   0  0  0  0  0  0  0  0  0  0  0  0
   37.6550   31.0690   48.9690 C   0  0  0  0  0  0  0  0  0  0  0  0
   38.1340   32.3410   49.1890 N   0  0  0  0  0  0  0  0  0  0  0  0
   39.9010   32.8390   46.0790 O   0  0  0  0  0  0  0  0  0  0  0  0
   40.0090   32.3030   44.7950 C   0  0  0  0  0  0  0  0  0  0  0  0
   40.6490   31.1540   44.4100 C   0  0  0  0  0  0  0  0  0  0  0  0
   40.6420   30.8030   43.1140 C   0  0  0  0  0  0  0  0  0  0  0  0
   40.0040   31.5890   42.2130 C   0  0  0  0  0  0  0  0  0  0  0  0
   39.3570   32.7540   42.6100 C   0  0  0  0  0  0  0  0  0  0  0  0
   39.3720   33.0960   43.9220 N   0  0  0  0  0  0  0  0  0  0  0  0
   38.6460   33.6270   41.5910 C   0  0  0  0  0  0  0  0  0  0  0  0
   34.9320   30.5910   49.7400 C   0  0  0  0  0  0  0  0  0  0  0  0
   34.5340   27.8680   49.9910 F   0  0  0  0  0  0  0  0  0  0  0  0
   34.3730   28.4640   48.7750 C   0  0  0  0  0  0  0  0  0  0  0  0
   34.5410   29.8090   48.5170 C   0  0  0  0  0  0  0  0  0  0  0  0
   34.3640   30.3380   47.2740 C   0  0  0  0  0  0  0  0  0  0  0  0
   33.9960   29.5100   46.1950 C   0  0  0  0  0  0  0  0  0  0  0  0
   33.8220   28.1540   46.4340 C   0  0  0  0  0  0  0  0  0  0  0  0
   34.0090   27.6510   47.7020 C   0  0  0  0  0  0  0  0  0  0  0  0
   33.8160   26.2820   47.8600 O   0  0  0  0  0  0  0  0  0  0  0  0
   33.6860   25.4040   46.8050 C   0  0  0  0  0  0  0  0  0  0  0  0
   34.5920   24.7340   45.9960 C   0  0  0  0  0  0  0  0  0  0  0  0
   33.8270   23.9950   45.1100 C   0  0  0  0  0  0  0  0  0  0  0  0
   32.4940   24.2650   45.4380 C   0  0  0  0  0  0  0  0  0  0  0  0
   32.4670   25.0910   46.4310 O   0  0  0  0  0  0  0  0  0  0  0  0
   39.2711   33.8857   48.3339 H   0  0  0  0  0  0  0  0  0  0  0  0
   38.8228   30.3619   45.9339 H   0  0  0  0  0  0  0  0  0  0  0  0
   41.1623   30.5268   45.1538 H   0  0  0  0  0  0  0  0  0  0  0  0
   41.1503   29.8843   42.7860 H   0  0  0  0  0  0  0  0  0  0  0  0
   39.9979   31.3010   41.1514 H   0  0  0  0  0  0  0  0  0  0  0  0
   38.0349   34.3774   42.1139 H   0  0  0  0  0  0  0  0  0  0  0  0
   39.3905   34.1352   40.9605 H   0  0  0  0  0  0  0  0  0  0  0  0
   37.9977   33.0008   40.9605 H   0  0  0  0  0  0  0  0  0  0  0  0
   34.2634   30.3426   50.5775 H   0  0  0  0  0  0  0  0  0  0  0  0
   34.8542   31.6729   49.5569 H   0  0  0  0  0  0  0  0  0  0  0  0
   34.5090   31.4163   47.1121 H   0  0  0  0  0  0  0  0  0  0  0  0
   33.8502   29.9280   45.1880 H   0  0  0  0  0  0  0  0  0  0  0  0
   33.5351   27.4821   45.6117 H   0  0  0  0  0  0  0  0  0  0  0  0
   35.6898   24.7803   46.0477 H   0  0  0  0  0  0  0  0  0  0  0  0
   34.1922   23.3318   44.3120 H   0  0  0  0  0  0  0  0  0  0  0  0
   31.6127   23.8429   44.9328 H   0  0  0  0  0  0  0  0  0  0  0  0
  2  7  2  0
  3  2  1  0
  4  3  2  0
  4  5  1  0
  5  6  2  0
  6  7  1  0
  6  1  1  0
  8  3  1  0
  9  8  1  0
 10  9  2  0
 11 10  1  0
 12 13  1  0
 12 11  2  0
 13 14  2  0
 14  9  1  0
 15 13  1  0
 16  1  1  0
 18 17  1  0
 19 18  2  0
 19 16  1  0
 20 19  1  0
 21 22  1  0
 21 20  2  0
 22 23  2  0
 23 24  1  0
 23 18  1  0
 25 24  1  0
 26 25  2  0
 27 28  2  0
 27 26  1  0
 28 29  1  0
 29 25  1  0
  2 30  1  0
  4 31  1  0
 10 32  1  0
 11 33  1  0
 12 34  1  0
 15 35  1  0
 15 36  1  0
 15 37  1  0
 16 38  1  0
 16 39  1  0
 20 40  1  0
 21 41  1  0
 22 42  1  0
 26 43  1  0
 27 44  1  0
 28 45  1  0
M  ISO  8  30  14  31  14  32  14  33  14  34  14  35   8  36   8  37   8
M  ISO  8  38   8  39   8  40  14  41  14  42  14  43  14  44  14  45  14
M  END
>  <minimizedAffinity>  (1) 
-5.97286987

>  <minimizedRMSD>  (1) 
1.55929601

$$$$
