
     RDKit          3D

 31 33  0  0  1  0  0  0  0  0999 V2000
   32.2330   28.2290   47.5320 C   0  0  2  0  0  0  0  0  0  0  0  0
   33.5060   28.1840   48.3380 C   0  0  1  0  0  0  0  0  0  0  0  0
   34.0410   26.9220   48.1940 O   0  0  0  0  0  0  0  0  0  0  0  0
   33.3480   26.2490   47.2000 C   0  0  0  0  0  0  0  0  0  0  0  0
   32.6190   27.3150   46.3830 C   0  0  1  0  0  0  0  0  0  0  0  0
   31.9810   29.5350   47.0850 O   0  0  0  0  0  0  0  0  0  0  0  0
   34.6710   29.3650   47.5720 S   0  0  0  0  0  0  0  0  0  0  0  0
   37.2160   29.3020   50.6140 C   0  0  0  0  0  0  0  0  0  0  0  0
   37.6880   30.6040   50.7100 C   0  0  0  0  0  0  0  0  0  0  0  0
   37.2100   31.5520   49.8050 C   0  0  0  0  0  0  0  0  0  0  0  0
   36.2980   31.1620   48.8620 N   0  0  0  0  0  0  0  0  0  0  0  0
   35.8660   29.8760   48.8080 C   0  0  0  0  0  0  0  0  0  0  0  0
   36.3140   28.9420   49.6720 N   0  0  0  0  0  0  0  0  0  0  0  0
   31.5290   26.7550   45.7450 O   0  0  0  0  0  0  0  0  0  0  0  0
   30.2020   27.0010   46.0250 C   0  0  0  0  0  0  0  0  0  0  0  0
   29.4960   25.9160   46.5450 C   0  0  0  0  0  0  0  0  0  0  0  0
   28.1840   26.3500   46.7620 C   0  0  0  0  0  0  0  0  0  0  0  0
   28.2170   27.6790   46.3480 C   0  0  0  0  0  0  0  0  0  0  0  0
   29.4100   28.0190   45.9250 O   0  0  0  0  0  0  0  0  0  0  0  0
   31.3200   27.9322   48.0691 H   0  0  0  0  0  0  0  0  0  0  0  0
   33.3248   28.4234   49.3962 H   0  0  0  0  0  0  0  0  0  0  0  0
   34.0474   25.6915   46.5597 H   0  0  0  0  0  0  0  0  0  0  0  0
   32.6412   25.5234   47.6288 H   0  0  0  0  0  0  0  0  0  0  0  0
   33.1739   27.8058   45.5699 H   0  0  0  0  0  0  0  0  0  0  0  0
   31.8654   30.1341   47.8646 H   0  0  0  0  0  0  0  0  0  0  0  0
   37.5844   28.5443   51.3212 H   0  0  0  0  0  0  0  0  0  0  0  0
   38.4215   30.8816   51.4813 H   0  0  0  0  0  0  0  0  0  0  0  0
   37.5597   32.5940   49.8485 H   0  0  0  0  0  0  0  0  0  0  0  0
   29.8949   24.9108   46.7461 H   0  0  0  0  0  0  0  0  0  0  0  0
   27.3328   25.7798   47.1625 H   0  0  0  0  0  0  0  0  0  0  0  0
   27.3516   28.3575   46.3728 H   0  0  0  0  0  0  0  0  0  0  0  0
  1  2  1  0
  3  2  1  0
  4  3  1  0
  5  4  1  0
  5  1  1  0
  6  1  1  0
  7  2  1  0
  7 12  1  0
  8  9  2  0
 10  9  1  0
 11 10  2  0
 12 11  1  0
 12 13  2  0
 13  8  1  0
 14 15  1  0
 14  5  1  0
 15 16  2  0
 16 17  1  0
 18 17  2  0
 19 15  1  0
 19 18  1  0
  1 20  1  1
  2 21  1  1
  4 22  1  0
  4 23  1  0
  5 24  1  6
  6 25  1  0
  8 26  1  0
  9 27  1  0
 10 28  1  0
 16 29  1  0
 17 30  1  0
 18 31  1  0
M  ISO  8  20  13  21  13  22  13  23  13  24  13  25   3  26  14  27  14
M  ISO  4  28  14  29  14  30  14  31  14
M  END
>  <minimizedAffinity>  (1) 
-4.23248053

>  <minimizedRMSD>  (1) 
2.12730503

$$$$
