
     RDKit          3D

 30 32  0  0  0  0  0  0  0  0999 V2000
   37.4200   31.1020   47.1000 N   0  0  0  0  0  0  0  0  0  0  0  0
   36.8040   30.7630   45.9340 C   0  0  0  0  0  0  0  0  0  0  0  0
   37.2520   31.2360   44.7090 C   0  0  0  0  0  0  0  0  0  0  0  0
   38.3670   32.0800   44.7100 C   0  0  0  0  0  0  0  0  0  0  0  0
   38.8030   32.5300   43.6270 O   0  0  0  0  0  0  0  0  0  0  0  0
   38.9820   32.4180   45.8940 N   0  0  0  0  0  0  0  0  0  0  0  0
   38.4620   31.9030   47.0030 C   0  0  0  0  0  0  0  0  0  0  0  0
   39.0460   32.2330   48.0540 O   0  0  0  0  0  0  0  0  0  0  0  0
   37.3190   29.5710   50.4800 C   0  0  0  0  0  0  0  0  0  0  0  0
   37.7920   30.0480   49.2480 C   0  0  0  0  0  0  0  0  0  0  0  0
   36.9540   30.6190   48.3250 C   0  0  0  0  0  0  0  0  0  0  0  0
   35.6490   30.7010   48.6590 N   0  0  0  0  0  0  0  0  0  0  0  0
   35.1450   30.2540   49.8350 C   0  0  0  0  0  0  0  0  0  0  0  0
   35.9820   29.6870   50.7500 N   0  0  0  0  0  0  0  0  0  0  0  0
   36.5590   30.8440   43.5030 C   0  0  0  0  0  0  0  0  0  0  0  0
   36.7340   29.7770   42.6610 C   0  0  0  0  0  0  0  0  0  0  0  0
   35.8060   29.8370   41.6250 C   0  0  0  0  0  0  0  0  0  0  0  0
   35.0960   31.0010   41.9290 C   0  0  0  0  0  0  0  0  0  0  0  0
   35.5650   31.5390   43.0110 O   0  0  0  0  0  0  0  0  0  0  0  0
   40.1300   33.2860   45.8780 C   0  0  0  0  0  0  0  0  0  0  0  0
   39.9990   34.2540   44.9350 F   0  0  0  0  0  0  0  0  0  0  0  0
   41.3150   32.6180   45.6120 F   0  0  0  0  0  0  0  0  0  0  0  0
   40.2260   33.9210   47.1280 F   0  0  0  0  0  0  0  0  0  0  0  0
   35.9289   30.0972   45.9640 H   0  0  0  0  0  0  0  0  0  0  0  0
   38.0047   29.1157   51.2098 H   0  0  0  0  0  0  0  0  0  0  0  0
   38.8639   29.9615   49.0164 H   0  0  0  0  0  0  0  0  0  0  0  0
   34.0702   30.3478   50.0495 H   0  0  0  0  0  0  0  0  0  0  0  0
   37.4936   28.9912   42.7851 H   0  0  0  0  0  0  0  0  0  0  0  0
   35.6672   29.1443   40.7818 H   0  0  0  0  0  0  0  0  0  0  0  0
   34.2607   31.4025   41.3365 H   0  0  0  0  0  0  0  0  0  0  0  0
  1 11  1  0
  2  1  1  0
  3  4  1  0
  3  2  2  0
  4  6  1  0
  5  4  2  0
  6  7  1  0
  7  1  1  0
  7  8  2  0
  9 14  2  0
 10  9  1  0
 11 12  1  0
 11 10  2  0
 12 13  2  0
 13 14  1  0
 15  3  1  0
 16 15  2  0
 17 18  2  0
 17 16  1  0
 18 19  1  0
 19 15  1  0
 20  6  1  0
 20 23  1  0
 21 20  1  0
 22 20  1  0
  2 24  1  0
  9 25  1  0
 10 26  1  0
 13 27  1  0
 16 28  1  0
 17 29  1  0
 18 30  1  0
M  ISO  7  24  14  25  14  26  14  27  14  28  14  29  14  30  14
M  END
>  <minimizedAffinity>  (1) 
-6.03886509

>  <minimizedRMSD>  (1) 
0.193568006

$$$$
