
     RDKit          3D

 38 40  0  0  1  0  0  0  0  0999 V2000
   31.4190   26.6940   48.3460 C   0  0  1  0  0  0  0  0  0  0  0  0
   32.1860   27.9980   48.2120 C   0  0  2  0  0  0  0  0  0  0  0  0
   31.9140   28.5250   46.8310 C   0  0  0  0  0  0  0  0  0  0  0  0
   31.0900   27.7180   46.0770 O   0  0  0  0  0  0  0  0  0  0  0  0
   29.8460   27.5340   46.6850 C   0  0  0  0  0  0  0  0  0  0  0  0
   29.9660   27.0070   48.0940 C   0  0  2  0  0  0  0  0  0  0  0  0
   31.8090   25.7800   47.3760 O   0  0  0  0  0  0  0  0  0  0  0  0
   33.9470   27.7790   48.4900 S   0  0  0  0  0  0  0  0  0  0  0  0
   34.7290   29.3960   48.7910 C   0  0  0  0  0  0  0  0  0  0  0  0
   36.3430   29.2980   49.5330 S   0  0  0  0  0  0  0  0  0  0  0  0
   37.3270   30.6810   48.9780 C   0  0  0  0  0  0  0  0  0  0  0  0
   37.2040   31.8140   49.7560 C   0  0  0  0  0  0  0  0  0  0  0  0
   37.9470   32.9480   49.3880 C   0  0  0  0  0  0  0  0  0  0  0  0
   38.7530   32.8660   48.2750 N   0  0  0  0  0  0  0  0  0  0  0  0
   38.8200   31.7260   47.5680 C   0  0  0  0  0  0  0  0  0  0  0  0
   38.1260   30.6590   47.9080 N   0  0  0  0  0  0  0  0  0  0  0  0
   29.6290   28.0300   48.9870 O   0  0  0  0  0  0  0  0  0  0  0  0
   28.5960   27.8630   49.8990 C   0  0  0  0  0  0  0  0  0  0  0  0
   28.7380   26.9990   50.9660 C   0  0  0  0  0  0  0  0  0  0  0  0
   27.5580   27.0660   51.6610 C   0  0  0  0  0  0  0  0  0  0  0  0
   26.7350   27.9630   51.0030 C   0  0  0  0  0  0  0  0  0  0  0  0
   27.4040   28.4170   49.9480 O   0  0  0  0  0  0  0  0  0  0  0  0
   31.6050   26.2676   49.3428 H   0  0  0  0  0  0  0  0  0  0  0  0
   31.8520   28.7126   48.9787 H   0  0  0  0  0  0  0  0  0  0  0  0
   31.4396   29.5130   46.9247 H   0  0  0  0  0  0  0  0  0  0  0  0
   32.8817   28.5685   46.3098 H   0  0  0  0  0  0  0  0  0  0  0  0
   29.3202   28.4998   46.7128 H   0  0  0  0  0  0  0  0  0  0  0  0
   29.2914   26.7896   46.0949 H   0  0  0  0  0  0  0  0  0  0  0  0
   29.3178   26.1277   48.2232 H   0  0  0  0  0  0  0  0  0  0  0  0
   32.1576   24.9631   47.8134 H   0  0  0  0  0  0  0  0  0  0  0  0
   34.8233   29.9184   47.8276 H   0  0  0  0  0  0  0  0  0  0  0  0
   34.0849   29.9310   49.5043 H   0  0  0  0  0  0  0  0  0  0  0  0
   36.5449   31.8288   50.6366 H   0  0  0  0  0  0  0  0  0  0  0  0
   37.8864   33.8771   49.9738 H   0  0  0  0  0  0  0  0  0  0  0  0
   39.4710   31.6821   46.6824 H   0  0  0  0  0  0  0  0  0  0  0  0
   29.6168   26.3835   51.2087 H   0  0  0  0  0  0  0  0  0  0  0  0
   27.3104   26.5078   52.5759 H   0  0  0  0  0  0  0  0  0  0  0  0
   25.7145   28.2480   51.2987 H   0  0  0  0  0  0  0  0  0  0  0  0
  2  1  1  0
  2  8  1  0
  3  2  1  0
  4  5  1  0
  4  3  1  0
  5  6  1  0
  6  1  1  0
  6 17  1  0
  7  1  1  0
  8  9  1  0
  9 10  1  0
 11 10  1  0
 11 12  2  0
 13 12  1  0
 14 13  2  0
 15 16  2  0
 15 14  1  0
 16 11  1  0
 17 18  1  0
 18 22  1  0
 18 19  2  0
 19 20  1  0
 21 20  2  0
 22 21  1  0
  1 23  1  1
  2 24  1  1
  3 25  1  0
  3 26  1  0
  5 27  1  0
  5 28  1  0
  6 29  1  6
  7 30  1  0
  9 31  1  0
  9 32  1  0
 12 33  1  0
 13 34  1  0
 15 35  1  0
 19 36  1  0
 20 37  1  0
 21 38  1  0
M  ISO  8  23  13  24  13  25  13  26  13  27  13  28  13  29  13  30   3
M  ISO  8  31   8  32   8  33  14  34  14  35  14  36  14  37  14  38  14
M  END
>  <minimizedAffinity>  (1) 
-5.52792978

>  <minimizedRMSD>  (1) 
1.74310338

$$$$
