
     RDKit          3D

 46 50  0  0  1  0  0  0  0  0999 V2000
   36.3880   30.7350   45.0660 C   0  0  1  0  0  0  0  0  0  0  0  0
   37.4600   31.6060   45.6090 C   0  0  0  0  0  0  0  0  0  0  0  0
   37.9060   30.2820   45.2290 C   0  0  2  0  0  0  0  0  0  0  0  0
   38.7490   30.3210   43.9900 C   0  0  0  0  0  0  0  0  0  0  0  0
   39.1560   31.6380   43.7330 C   0  0  0  0  0  0  0  0  0  0  0  0
   40.0350   31.9040   42.7120 C   0  0  0  0  0  0  0  0  0  0  0  0
   40.5430   30.8770   41.9080 C   0  0  0  0  0  0  0  0  0  0  0  0
   40.1200   29.5880   42.1900 C   0  0  0  0  0  0  0  0  0  0  0  0
   40.5290   28.5030   41.4700 C   0  0  0  0  0  0  0  0  0  0  0  0
   40.1060   27.2160   41.7220 C   0  0  0  0  0  0  0  0  0  0  0  0
   39.2170   27.0090   42.7650 C   0  0  0  0  0  0  0  0  0  0  0  0
   38.8040   28.0990   43.4930 C   0  0  0  0  0  0  0  0  0  0  0  0
   39.2560   29.3710   43.2030 C   0  0  0  0  0  0  0  0  0  0  0  0
   33.8350   28.4240   46.5890 C   0  0  0  0  0  0  0  0  0  0  0  0
   34.6890   29.0470   45.6370 C   0  0  0  0  0  0  0  0  0  0  0  0
   35.5030   30.0630   46.0510 C   0  0  0  0  0  0  0  0  0  0  0  0
   35.4270   30.4020   47.3730 N   0  0  0  0  0  0  0  0  0  0  0  0
   34.6330   29.8260   48.2720 C   0  0  0  0  0  0  0  0  0  0  0  0
   33.8130   28.8140   47.8880 N   0  0  0  0  0  0  0  0  0  0  0  0
   34.7000   30.2900   49.7090 C   0  0  0  0  0  0  0  0  0  0  0  0
   36.0990   29.9420   50.2090 C   0  0  0  0  0  0  0  0  0  0  0  0
   37.0760   30.9850   49.8390 C   0  0  0  0  0  0  0  0  0  0  0  0
   38.3500   31.1230   49.3320 C   0  0  0  0  0  0  0  0  0  0  0  0
   38.6570   32.4650   49.2350 C   0  0  0  0  0  0  0  0  0  0  0  0
   37.5270   33.0840   49.7000 C   0  0  0  0  0  0  0  0  0  0  0  0
   36.6110   32.1960   50.0500 O   0  0  0  0  0  0  0  0  0  0  0  0
   35.6322   30.8401   44.2737 H   0  0  0  0  0  0  0  0  0  0  0  0
   37.7945   32.4714   45.0181 H   0  0  0  0  0  0  0  0  0  0  0  0
   37.5484   32.1791   46.5437 H   0  0  0  0  0  0  0  0  0  0  0  0
   38.3989   29.4182   45.6990 H   0  0  0  0  0  0  0  0  0  0  0  0
   38.7696   32.4614   44.3517 H   0  0  0  0  0  0  0  0  0  0  0  0
   40.3453   32.9422   42.5227 H   0  0  0  0  0  0  0  0  0  0  0  0
   41.2469   31.0841   41.0885 H   0  0  0  0  0  0  0  0  0  0  0  0
   41.2355   28.6649   40.6426 H   0  0  0  0  0  0  0  0  0  0  0  0
   40.4647   26.3745   41.1111 H   0  0  0  0  0  0  0  0  0  0  0  0
   38.8518   25.9992   43.0037 H   0  0  0  0  0  0  0  0  0  0  0  0
   38.0983   27.9550   44.3244 H   0  0  0  0  0  0  0  0  0  0  0  0
   33.1760   27.6056   46.2636 H   0  0  0  0  0  0  0  0  0  0  0  0
   34.6938   28.7170   44.5877 H   0  0  0  0  0  0  0  0  0  0  0  0
   34.5347   31.3760   49.7663 H   0  0  0  0  0  0  0  0  0  0  0  0
   33.9255   29.8050   50.3213 H   0  0  0  0  0  0  0  0  0  0  0  0
   36.0745   29.8466   51.3046 H   0  0  0  0  0  0  0  0  0  0  0  0
   36.4087   28.9952   49.7426 H   0  0  0  0  0  0  0  0  0  0  0  0
   39.0165   30.2948   49.0494 H   0  0  0  0  0  0  0  0  0  0  0  0
   39.5867   32.9270   48.8713 H   0  0  0  0  0  0  0  0  0  0  0  0
   37.3984   34.1740   49.7727 H   0  0  0  0  0  0  0  0  0  0  0  0
  1  3  1  0
  1  2  1  0
  1 16  1  0
  3  2  1  0
  4  3  1  0
  5  4  2  0
  6  5  1  0
  7  8  1  0
  7  6  2  0
  8 13  2  0
  9 10  2  0
  9  8  1  0
 10 11  1  0
 11 12  2  0
 13 12  1  0
 13  4  1  0
 14 19  2  0
 15 16  2  0
 15 14  1  0
 16 17  1  0
 17 18  2  0
 18 20  1  0
 19 18  1  0
 20 21  1  0
 22 26  1  0
 22 21  1  0
 23 22  2  0
 24 23  1  0
 24 25  2  0
 25 26  1  0
  1 27  1  6
  2 28  1  0
  2 29  1  0
  3 30  1  1
  5 31  1  0
  6 32  1  0
  7 33  1  0
  9 34  1  0
 10 35  1  0
 11 36  1  0
 12 37  1  0
 14 38  1  0
 15 39  1  0
 20 40  1  0
 20 41  1  0
 21 42  1  0
 21 43  1  0
 23 44  1  0
 24 45  1  0
 25 46  1  0
M  ISO  8  27  13  28  13  29  13  30  13  31  14  32  14  33  14  34  14
M  ISO  8  35  14  36  14  37  14  38  14  39  14  40   8  41   8  42   8
M  ISO  4  43   8  44  14  45  14  46  14
M  END
>  <minimizedAffinity>  (1) 
-5.88067389

>  <minimizedRMSD>  (1) 
2.32351446

$$$$
