
     RDKit          3D

 27 29  0  0  0  0  0  0  0  0999 V2000
   36.4390   29.2650   50.9250 C   0  0  0  0  0  0  0  0  0  0  0  0
   36.7730   29.5640   49.5860 C   0  0  0  0  0  0  0  0  0  0  0  0
   35.7850   29.8840   48.6760 C   0  0  0  0  0  0  0  0  0  0  0  0
   34.5140   29.8920   49.1340 N   0  0  0  0  0  0  0  0  0  0  0  0
   34.1700   29.6100   50.4040 C   0  0  0  0  0  0  0  0  0  0  0  0
   35.1340   29.2960   51.3000 N   0  0  0  0  0  0  0  0  0  0  0  0
   36.0730   30.1910   47.3300 N   0  0  0  0  0  0  0  0  0  0  0  0
   35.2130   29.8790   46.3380 C   0  0  0  0  0  0  0  0  0  0  0  0
   35.5130   30.1760   45.0080 C   0  0  0  0  0  0  0  0  0  0  0  0
   36.7370   30.8080   44.7330 C   0  0  0  0  0  0  0  0  0  0  0  0
   37.0590   31.0950   43.5730 O   0  0  0  0  0  0  0  0  0  0  0  0
   37.5910   31.1140   45.7500 N   0  0  0  0  0  0  0  0  0  0  0  0
   37.2120   30.7880   46.9970 C   0  0  0  0  0  0  0  0  0  0  0  0
   38.0300   31.0900   47.9140 O   0  0  0  0  0  0  0  0  0  0  0  0
   38.8230   31.7540   45.4400 C   0  0  0  0  0  0  0  0  0  0  0  0
   40.1200   31.2920   45.3510 C   0  0  0  0  0  0  0  0  0  0  0  0
   40.9670   32.3360   45.0130 C   0  0  0  0  0  0  0  0  0  0  0  0
   40.0970   33.4220   44.9100 C   0  0  0  0  0  0  0  0  0  0  0  0
   38.8800   33.0430   45.1630 O   0  0  0  0  0  0  0  0  0  0  0  0
   37.2235   29.0109   51.6530 H   0  0  0  0  0  0  0  0  0  0  0  0
   37.8253   29.5419   49.2663 H   0  0  0  0  0  0  0  0  0  0  0  0
   33.1140   29.6345   50.7111 H   0  0  0  0  0  0  0  0  0  0  0  0
   34.2616   29.3833   46.5814 H   0  0  0  0  0  0  0  0  0  0  0  0
   34.8119   29.9228   44.1990 H   0  0  0  0  0  0  0  0  0  0  0  0
   40.4345   30.2520   45.5224 H   0  0  0  0  0  0  0  0  0  0  0  0
   42.0565   32.3138   44.8630 H   0  0  0  0  0  0  0  0  0  0  0  0
   40.3972   34.4484   44.6524 H   0  0  0  0  0  0  0  0  0  0  0  0
  1  6  2  0
  2  1  1  0
  3  4  1  0
  3  2  2  0
  4  5  2  0
  5  6  1  0
  7  3  1  0
  8  7  1  0
  9  8  2  0
 10  9  1  0
 10 12  1  0
 11 10  2  0
 12 13  1  0
 13  7  1  0
 13 14  2  0
 15 12  1  0
 16 15  2  0
 17 16  1  0
 18 17  2  0
 18 19  1  0
 19 15  1  0
  1 20  1  0
  2 21  1  0
  5 22  1  0
  8 23  1  0
  9 24  1  0
 16 25  1  0
 17 26  1  0
 18 27  1  0
M  ISO  8  20  14  21  14  22  14  23  14  24  14  25  14  26  14  27  14
M  END
>  <minimizedAffinity>  (1) 
-5.62488127

>  <minimizedRMSD>  (1) 
3.33237505

$$$$
