
     RDKit          3D

 27 29  0  0  0  0  0  0  0  0999 V2000
   35.8300   29.2520   48.9430 C   0  0  0  0  0  0  0  0  0  0  0  0
   36.0080   30.2330   47.9520 C   0  0  0  0  0  0  0  0  0  0  0  0
   35.2060   30.1700   46.8000 C   0  0  0  0  0  0  0  0  0  0  0  0
   34.3000   29.1680   46.7010 N   0  0  0  0  0  0  0  0  0  0  0  0
   34.1400   28.2420   47.6490 C   0  0  0  0  0  0  0  0  0  0  0  0
   34.8960   28.2840   48.7570 N   0  0  0  0  0  0  0  0  0  0  0  0
   36.9980   31.2540   48.1640 N   0  0  0  0  0  0  0  0  0  0  0  0
   36.8360   32.1530   49.1690 C   0  0  0  0  0  0  0  0  0  0  0  0
   37.8150   33.1310   49.3700 C   0  0  0  0  0  0  0  0  0  0  0  0
   38.8670   33.0580   48.4870 C   0  0  0  0  0  0  0  0  0  0  0  0
   39.7570   33.9480   48.6750 O   0  0  0  0  0  0  0  0  0  0  0  0
   39.0380   32.1770   47.4940 N   0  0  0  0  0  0  0  0  0  0  0  0
   38.0590   31.2590   47.3500 C   0  0  0  0  0  0  0  0  0  0  0  0
   38.1910   30.4220   46.4280 O   0  0  0  0  0  0  0  0  0  0  0  0
   36.6200   29.2210   50.1700 C   0  0  0  0  0  0  0  0  0  0  0  0
   36.2020   29.6970   51.3940 C   0  0  0  0  0  0  0  0  0  0  0  0
   37.1800   29.5200   52.3470 C   0  0  0  0  0  0  0  0  0  0  0  0
   38.1940   28.9190   51.6430 C   0  0  0  0  0  0  0  0  0  0  0  0
   37.8080   28.7810   50.4200 O   0  0  0  0  0  0  0  0  0  0  0  0
   35.3113   30.9159   45.9984 H   0  0  0  0  0  0  0  0  0  0  0  0
   33.3906   27.4468   47.5224 H   0  0  0  0  0  0  0  0  0  0  0  0
   35.9472   32.1124   49.8158 H   0  0  0  0  0  0  0  0  0  0  0  0
   37.7496   33.8905   50.1630 H   0  0  0  0  0  0  0  0  0  0  0  0
   39.8639   32.1982   46.8790 H   0  0  0  0  0  0  0  0  0  0  0  0
   35.2205   30.1559   51.5838 H   0  0  0  0  0  0  0  0  0  0  0  0
   37.1550   29.7934   53.4122 H   0  0  0  0  0  0  0  0  0  0  0  0
   39.1672   28.6088   52.0513 H   0  0  0  0  0  0  0  0  0  0  0  0
  1 15  1  0
  2  7  1  0
  2  1  1  0
  3  2  2  0
  4  3  1  0
  4  5  2  0
  5  6  1  0
  6  1  2  0
  7  8  1  0
  8  9  2  0
 10 11  2  0
 10  9  1  0
 12 10  1  0
 13 12  1  0
 13  7  1  0
 14 13  2  0
 15 19  1  0
 15 16  2  0
 16 17  1  0
 18 17  2  0
 19 18  1  0
  3 20  1  0
  5 21  1  0
  8 22  1  0
  9 23  1  0
 12 24  1  0
 16 25  1  0
 17 26  1  0
 18 27  1  0
M  ISO  8  20  14  21  14  22  14  23  14  24   9  25  14  26  14  27  14
M  END
>  <minimizedAffinity>  (1) 
-4.68948603

>  <minimizedRMSD>  (1) 
0.979693413

$$$$
