
     RDKit          3D

 37 40  0  0  0  0  0  0  0  0999 V2000
   38.6690   32.9470   49.7820 Cl  0  0  0  0  0  0  0  0  0  0  0  0
   38.6440   32.2780   48.1630 C   0  0  0  0  0  0  0  0  0  0  0  0
   37.8910   31.1450   47.8790 C   0  0  0  0  0  0  0  0  0  0  0  0
   37.9250   30.6860   46.5930 C   0  0  0  0  0  0  0  0  0  0  0  0
   38.6530   31.2840   45.5970 C   0  0  0  0  0  0  0  0  0  0  0  0
   39.3980   32.4170   45.9170 C   0  0  0  0  0  0  0  0  0  0  0  0
   40.3100   33.1500   44.6340 Cl  0  0  0  0  0  0  0  0  0  0  0  0
   39.3970   32.9200   47.1990 C   0  0  0  0  0  0  0  0  0  0  0  0
   36.9220   32.6070   43.4740 Cl  0  0  0  0  0  0  0  0  0  0  0  0
   37.8560   31.1320   43.1870 C   0  0  0  0  0  0  0  0  0  0  0  0
   38.5870   30.6740   44.2770 C   0  0  0  0  0  0  0  0  0  0  0  0
   39.3460   29.5220   44.1310 C   0  0  0  0  0  0  0  0  0  0  0  0
   39.3880   28.8260   42.9310 C   0  0  0  0  0  0  0  0  0  0  0  0
   38.6390   29.3220   41.8710 C   0  0  0  0  0  0  0  0  0  0  0  0
   37.8810   30.4600   41.9920 C   0  0  0  0  0  0  0  0  0  0  0  0
   37.0950   30.9890   40.8910 C   0  0  0  0  0  0  0  0  0  0  0  0
   37.5810   31.8430   39.8950 C   0  0  0  0  0  0  0  0  0  0  0  0
   36.4530   32.0430   39.1070 C   0  0  0  0  0  0  0  0  0  0  0  0
   35.3850   31.3400   39.6250 C   0  0  0  0  0  0  0  0  0  0  0  0
   35.8170   30.7110   40.7100 O   0  0  0  0  0  0  0  0  0  0  0  0
   37.0150   29.3590   51.0960 C   0  0  0  0  0  0  0  0  0  0  0  0
   37.7690   29.9190   50.0520 C   0  0  0  0  0  0  0  0  0  0  0  0
   37.1340   30.5520   48.9810 C   0  0  0  0  0  0  0  0  0  0  0  0
   35.7680   30.5920   49.0100 N   0  0  0  0  0  0  0  0  0  0  0  0
   35.0860   30.0400   50.0330 C   0  0  0  0  0  0  0  0  0  0  0  0
   35.6890   29.4370   51.0540 N   0  0  0  0  0  0  0  0  0  0  0  0
   37.3377   29.7900   46.3435 H   0  0  0  0  0  0  0  0  0  0  0  0
   39.9843   33.8155   47.4505 H   0  0  0  0  0  0  0  0  0  0  0  0
   39.9287   29.1512   44.9871 H   0  0  0  0  0  0  0  0  0  0  0  0
   39.9930   27.9137   42.8229 H   0  0  0  0  0  0  0  0  0  0  0  0
   38.6539   28.7885   40.9092 H   0  0  0  0  0  0  0  0  0  0  0  0
   38.5946   32.2511   39.7680 H   0  0  0  0  0  0  0  0  0  0  0  0
   36.4174   32.6695   38.2036 H   0  0  0  0  0  0  0  0  0  0  0  0
   34.3649   31.3072   39.2146 H   0  0  0  0  0  0  0  0  0  0  0  0
   37.5164   28.8613   51.9392 H   0  0  0  0  0  0  0  0  0  0  0  0
   38.8670   29.8587   50.0778 H   0  0  0  0  0  0  0  0  0  0  0  0
   33.9872   30.0901   50.0233 H   0  0  0  0  0  0  0  0  0  0  0  0
  2  1  1  0
  3  2  2  0
  3 23  1  0
  4  3  1  0
  5  6  1  0
  5  4  2  0
  6  8  2  0
  7  6  1  0
  8  2  1  0
 10  9  1  0
 10 11  2  0
 11  5  1  0
 12 11  1  0
 13 12  2  0
 14 15  2  0
 14 13  1  0
 15 10  1  0
 16 15  1  0
 17 16  2  0
 18 19  2  0
 18 17  1  0
 19 20  1  0
 20 16  1  0
 22 21  2  0
 23 24  2  0
 23 22  1  0
 24 25  1  0
 25 26  2  0
 26 21  1  0
  4 27  1  0
  8 28  1  0
 12 29  1  0
 13 30  1  0
 14 31  1  0
 17 32  1  0
 18 33  1  0
 19 34  1  0
 21 35  1  0
 22 36  1  0
 25 37  1  0
M  ISO  8  27  14  28  14  29  14  30  14  31  14  32  14  33  14  34  14
M  ISO  3  35  14  36  14  37  14
M  END
>  <minimizedAffinity>  (1) 
-6.36095142

>  <minimizedRMSD>  (1) 
0.353401661

$$$$
