
     RDKit          3D

 30 33  0  0  0  0  0  0  0  0999 V2000
   37.8500   32.9010   49.6300 C   0  0  0  0  0  0  0  0  0  0  0  0
   38.7740   32.9550   48.5660 C   0  0  0  0  0  0  0  0  0  0  0  0
   38.6010   32.0190   47.5350 C   0  0  0  0  0  0  0  0  0  0  0  0
   37.5840   31.1190   47.5930 N   0  0  0  0  0  0  0  0  0  0  0  0
   36.7210   31.1030   48.6340 C   0  0  0  0  0  0  0  0  0  0  0  0
   36.8620   31.9910   49.6380 N   0  0  0  0  0  0  0  0  0  0  0  0
   35.7050   29.0790   49.5680 C   0  0  0  0  0  0  0  0  0  0  0  0
   35.6500   30.1180   48.6450 C   0  0  0  0  0  0  0  0  0  0  0  0
   34.6090   30.2200   47.7600 C   0  0  0  0  0  0  0  0  0  0  0  0
   33.5860   29.2970   47.7560 C   0  0  0  0  0  0  0  0  0  0  0  0
   32.4680   29.1640   47.0100 N   0  0  0  0  0  0  0  0  0  0  0  0
   31.8750   28.0420   47.5030 C   0  0  0  0  0  0  0  0  0  0  0  0
   32.5910   27.5070   48.5060 N   0  0  0  0  0  0  0  0  0  0  0  0
   33.6680   28.2820   48.6770 C   0  0  0  0  0  0  0  0  0  0  0  0
   34.6880   28.1320   49.5890 C   0  0  0  0  0  0  0  0  0  0  0  0
   39.5320   32.0380   46.4110 C   0  0  0  0  0  0  0  0  0  0  0  0
   39.9290   33.1810   45.7490 C   0  0  0  0  0  0  0  0  0  0  0  0
   40.7970   32.7230   44.7780 C   0  0  0  0  0  0  0  0  0  0  0  0
   40.8870   31.3360   44.8930 C   0  0  0  0  0  0  0  0  0  0  0  0
   40.0930   30.9850   45.9040 O   0  0  0  0  0  0  0  0  0  0  0  0
   37.9395   33.6129   50.4637 H   0  0  0  0  0  0  0  0  0  0  0  0
   39.5890   33.6934   48.5453 H   0  0  0  0  0  0  0  0  0  0  0  0
   36.5452   29.0075   50.2744 H   0  0  0  0  0  0  0  0  0  0  0  0
   34.5896   31.0523   47.0410 H   0  0  0  0  0  0  0  0  0  0  0  0
   32.1400   29.7709   46.2452 H   0  0  0  0  0  0  0  0  0  0  0  0
   30.9286   27.6258   47.1273 H   0  0  0  0  0  0  0  0  0  0  0  0
   34.6978   27.2970   50.3050 H   0  0  0  0  0  0  0  0  0  0  0  0
   39.6241   34.2189   45.9488 H   0  0  0  0  0  0  0  0  0  0  0  0
   41.3263   33.3447   44.0409 H   0  0  0  0  0  0  0  0  0  0  0  0
   41.4949   30.6630   44.2705 H   0  0  0  0  0  0  0  0  0  0  0  0
  1  6  2  0
  2  1  1  0
  3  4  1  0
  3  2  2  0
  4  5  2  0
  5  8  1  0
  5  6  1  0
  7 15  2  0
  8  7  1  0
  9  8  2  0
 10  9  1  0
 10 14  2  0
 11 12  1  0
 11 10  1  0
 12 13  2  0
 13 14  1  0
 14 15  1  0
 16  3  1  0
 17 16  2  0
 18 19  2  0
 18 17  1  0
 19 20  1  0
 20 16  1  0
  1 21  1  0
  2 22  1  0
  7 23  1  0
  9 24  1  0
 11 25  1  0
 12 26  1  0
 15 27  1  0
 17 28  1  0
 18 29  1  0
 19 30  1  0
M  ISO  8  21  14  22  14  23  14  24  14  25   9  26  14  27  14  28  14
M  ISO  2  29  14  30  14
M  END
>  <minimizedAffinity>  (1) 
-6.88735676

>  <minimizedRMSD>  (1) 
1.91104257

$$$$
