
     RDKit          3D

 27 29  0  0  0  0  0  0  0  0999 V2000
   38.4630   31.4820   48.4670 Br  0  0  0  0  0  0  0  0  0  0  0  0
   37.3230   30.9220   47.0710 C   0  0  0  0  0  0  0  0  0  0  0  0
   36.1820   30.2390   47.4570 C   0  0  0  0  0  0  0  0  0  0  0  0
   35.3000   29.7980   46.4700 C   0  0  0  0  0  0  0  0  0  0  0  0
   35.5620   30.0410   45.1250 C   0  0  0  0  0  0  0  0  0  0  0  0
   36.7050   30.7190   44.8220 C   0  0  0  0  0  0  0  0  0  0  0  0
   37.5970   31.1690   45.7540 C   0  0  0  0  0  0  0  0  0  0  0  0
   36.6180   29.3670   49.7870 C   0  0  0  0  0  0  0  0  0  0  0  0
   35.7620   29.9050   48.8150 C   0  0  0  0  0  0  0  0  0  0  0  0
   34.4230   30.1350   49.1670 C   0  0  0  0  0  0  0  0  0  0  0  0
   34.0370   29.8170   50.4510 N   0  0  0  0  0  0  0  0  0  0  0  0
   34.9000   29.3030   51.3430 C   0  0  0  0  0  0  0  0  0  0  0  0
   36.1960   29.0750   51.0190 N   0  0  0  0  0  0  0  0  0  0  0  0
   38.8110   31.8910   45.4000 C   0  0  0  0  0  0  0  0  0  0  0  0
   40.1130   31.3890   45.4560 C   0  0  0  0  0  0  0  0  0  0  0  0
   40.9210   32.4360   45.0250 C   0  0  0  0  0  0  0  0  0  0  0  0
   40.0790   33.5060   44.7350 C   0  0  0  0  0  0  0  0  0  0  0  0
   38.8350   33.1320   44.9740 O   0  0  0  0  0  0  0  0  0  0  0  0
   34.3888   29.2530   46.7577 H   0  0  0  0  0  0  0  0  0  0  0  0
   34.8740   29.6995   44.3376 H   0  0  0  0  0  0  0  0  0  0  0  0
   36.9227   30.9160   43.7619 H   0  0  0  0  0  0  0  0  0  0  0  0
   37.6700   29.1799   49.5258 H   0  0  0  0  0  0  0  0  0  0  0  0
   33.7076   30.5540   48.4441 H   0  0  0  0  0  0  0  0  0  0  0  0
   34.5476   29.0623   52.3568 H   0  0  0  0  0  0  0  0  0  0  0  0
   40.4304   30.3844   45.7721 H   0  0  0  0  0  0  0  0  0  0  0  0
   42.0169   32.4213   44.9312 H   0  0  0  0  0  0  0  0  0  0  0  0
   40.3956   34.4940   44.3693 H   0  0  0  0  0  0  0  0  0  0  0  0
  2  3  2  0
  2  1  1  0
  3  9  1  0
  4  3  1  0
  5  4  2  0
  6  5  1  0
  6  7  2  0
  7  2  1  0
  8 13  2  0
  9 10  2  0
  9  8  1  0
 10 11  1  0
 11 12  2  0
 13 12  1  0
 14 15  2  0
 14  7  1  0
 16 15  1  0
 17 18  1  0
 17 16  2  0
 18 14  1  0
  4 19  1  0
  5 20  1  0
  6 21  1  0
  8 22  1  0
 10 23  1  0
 12 24  1  0
 15 25  1  0
 16 26  1  0
 17 27  1  0
M  ISO  8  19  14  20  14  21  14  22  14  23  14  24  14  25  14  26  14
M  ISO  1  27  14
M  END
>  <minimizedAffinity>  (1) 
-5.31174088

>  <minimizedRMSD>  (1) 
2.73204732

$$$$
