
     RDKit          3D

 37 40  0  0  1  0  0  0  0  0999 V2000
   38.1070   32.1840   48.3990 C   0  0  0  0  0  0  0  0  0  0  0  0
   38.7370   33.2280   48.8240 O   0  0  0  0  0  0  0  0  0  0  0  0
   37.3140   30.1630   51.4270 C   0  0  0  0  0  0  0  0  0  0  0  0
   37.9050   31.0430   50.5500 C   0  0  0  0  0  0  0  0  0  0  0  0
   37.4080   31.2670   49.2490 C   0  0  0  0  0  0  0  0  0  0  0  0
   36.3410   30.5890   48.9070 N   0  0  0  0  0  0  0  0  0  0  0  0
   35.7590   29.7100   49.7970 C   0  0  0  0  0  0  0  0  0  0  0  0
   36.2230   29.4930   51.0260 N   0  0  0  0  0  0  0  0  0  0  0  0
   34.5750   29.0070   49.3130 C   0  0  0  0  0  0  0  0  0  0  0  0
   34.6240   28.5230   48.0020 C   0  0  0  0  0  0  0  0  0  0  0  0
   33.3980   27.8950   47.7570 C   0  0  0  0  0  0  0  0  0  0  0  0
   32.6850   28.0440   48.9510 C   0  0  0  0  0  0  0  0  0  0  0  0
   33.4200   28.7060   49.8410 O   0  0  0  0  0  0  0  0  0  0  0  0
   38.1090   31.9000   46.9160 C   0  0  2  0  0  0  0  0  0  0  0  0
   38.7700   30.4680   46.7100 C   0  0  0  0  0  0  0  0  0  0  0  0
   39.3330   31.7710   46.2000 C   0  0  1  0  0  0  0  0  0  0  0  0
   39.5020   31.8510   44.7480 C   0  0  0  0  0  0  0  0  0  0  0  0
   38.9770   32.9620   44.0980 C   0  0  0  0  0  0  0  0  0  0  0  0
   39.1380   33.0280   42.7380 C   0  0  0  0  0  0  0  0  0  0  0  0
   39.7950   32.0390   42.0210 C   0  0  0  0  0  0  0  0  0  0  0  0
   40.2970   30.9580   42.7070 C   0  0  0  0  0  0  0  0  0  0  0  0
   40.1430   30.8860   44.0360 N   0  0  0  0  0  0  0  0  0  0  0  0
   39.0239   31.5862   48.5082 H   0  0  0  0  0  0  0  0  0  0  0  0
   38.7393   33.2318   49.8140 H   0  0  0  0  0  0  0  0  0  0  0  0
   37.7271   30.0120   52.4352 H   0  0  0  0  0  0  0  0  0  0  0  0
   38.7999   31.5933   50.8760 H   0  0  0  0  0  0  0  0  0  0  0  0
   35.4645   28.6178   47.2988 H   0  0  0  0  0  0  0  0  0  0  0  0
   33.0690   27.3964   46.8334 H   0  0  0  0  0  0  0  0  0  0  0  0
   31.6662   27.6690   49.1283 H   0  0  0  0  0  0  0  0  0  0  0  0
   37.2025   32.4713   46.6671 H   0  0  0  0  0  0  0  0  0  0  0  0
   39.2437   29.9390   47.5501 H   0  0  0  0  0  0  0  0  0  0  0  0
   38.4757   29.4952   46.2892 H   0  0  0  0  0  0  0  0  0  0  0  0
   40.2523   32.3622   46.3241 H   0  0  0  0  0  0  0  0  0  0  0  0
   38.4540   33.7555   44.6519 H   0  0  0  0  0  0  0  0  0  0  0  0
   38.7321   33.8953   42.1968 H   0  0  0  0  0  0  0  0  0  0  0  0
   39.9117   32.1174   40.9300 H   0  0  0  0  0  0  0  0  0  0  0  0
   40.8224   30.1564   42.1673 H   0  0  0  0  0  0  0  0  0  0  0  0
  1  2  1  0
  1  5  1  0
  4  3  2  0
  5  4  1  0
  6  5  2  0
  6  7  1  0
  7  8  2  0
  8  3  1  0
  9  7  1  0
  9 13  1  0
 10  9  2  0
 11 10  1  0
 11 12  2  0
 12 13  1  0
 14  1  1  0
 15 14  1  0
 16 15  1  0
 16 14  1  0
 17 16  1  0
 18 17  2  0
 19 18  1  0
 20 21  1  0
 20 19  2  0
 21 22  2  0
 22 17  1  0
  1 23  1  0
  2 24  1  0
  3 25  1  0
  4 26  1  0
 10 27  1  0
 11 28  1  0
 12 29  1  0
 14 30  1  6
 15 31  1  0
 15 32  1  0
 16 33  1  1
 18 34  1  0
 19 35  1  0
 20 36  1  0
 21 37  1  0
M  ISO  8  23   8  24   3  25  14  26  14  27  14  28  14  29  14  30  13
M  ISO  7  31  13  32  13  33  13  34  14  35  14  36  14  37  14
M  END
>  <minimizedAffinity>  (1) 
-6.0815959

>  <minimizedRMSD>  (1) 
0.991931915

$$$$
