
     RDKit          3D

 44 48  0  0  1  0  0  0  0  0999 V2000
   34.9370   29.4620   47.4780 C   0  0  0  0  0  0  0  0  0  0  0  0
   36.0940   30.1320   47.7940 C   0  0  0  0  0  0  0  0  0  0  0  0
   36.7830   30.8840   46.8280 C   0  0  0  0  0  0  0  0  0  0  0  0
   36.2260   30.9070   45.5480 C   0  0  0  0  0  0  0  0  0  0  0  0
   36.6920   31.5580   44.4420 N   0  0  0  0  0  0  0  0  0  0  0  0
   35.8300   31.2930   43.4520 C   0  0  0  0  0  0  0  0  0  0  0  0
   34.8680   30.5130   43.9040 N   0  0  0  0  0  0  0  0  0  0  0  0
   35.0730   30.2470   45.2050 C   0  0  0  0  0  0  0  0  0  0  0  0
   34.4200   29.5090   46.2000 C   0  0  0  0  0  0  0  0  0  0  0  0
   38.1550   30.3570   50.9380 C   0  0  0  0  0  0  0  0  0  0  0  0
   37.8360   30.4990   49.5870 C   0  0  0  0  0  0  0  0  0  0  0  0
   36.6120   30.0710   49.1480 C   0  0  0  0  0  0  0  0  0  0  0  0
   35.7680   29.5190   50.0910 N   0  0  0  0  0  0  0  0  0  0  0  0
   36.0830   29.3850   51.3900 C   0  0  0  0  0  0  0  0  0  0  0  0
   37.2650   29.8010   51.8010 N   0  0  0  0  0  0  0  0  0  0  0  0
   35.9940   31.8030   42.1630 O   0  0  0  0  0  0  0  0  0  0  0  0
   34.8990   33.5960   43.1100 N   0  0  0  0  0  0  0  0  0  0  0  0
   35.1940   32.9400   41.8540 C   0  0  1  0  0  0  0  0  0  0  0  0
   35.8990   33.8380   40.9530 C   0  0  0  0  0  0  0  0  0  0  0  0
   35.0590   34.9230   40.6500 O   0  0  0  0  0  0  0  0  0  0  0  0
   34.5640   35.5970   41.7300 C   0  0  0  0  0  0  0  0  0  0  0  0
   33.9840   34.6720   42.7720 C   0  0  1  0  0  0  0  0  0  0  0  0
   32.7640   34.0470   42.1980 C   0  0  0  0  0  0  0  0  0  0  0  0
   31.8550   34.8600   41.5120 C   0  0  0  0  0  0  0  0  0  0  0  0
   30.8090   34.0630   41.0730 C   0  0  0  0  0  0  0  0  0  0  0  0
   31.1420   32.8000   41.5220 C   0  0  0  0  0  0  0  0  0  0  0  0
   32.2910   32.8220   42.1770 O   0  0  0  0  0  0  0  0  0  0  0  0
   34.4165   28.8810   48.2536 H   0  0  0  0  0  0  0  0  0  0  0  0
   37.7105   31.4250   47.0670 H   0  0  0  0  0  0  0  0  0  0  0  0
   37.5403   32.1390   44.3810 H   0  0  0  0  0  0  0  0  0  0  0  0
   33.4934   28.9660   45.9621 H   0  0  0  0  0  0  0  0  0  0  0  0
   39.1338   30.6975   51.3068 H   0  0  0  0  0  0  0  0  0  0  0  0
   38.5559   30.9473   48.8865 H   0  0  0  0  0  0  0  0  0  0  0  0
   35.3691   28.9371   52.0969 H   0  0  0  0  0  0  0  0  0  0  0  0
   34.4554   32.9374   43.7660 H   0  0  0  0  0  0  0  0  0  0  0  0
   34.2674   32.6406   41.3424 H   0  0  0  0  0  0  0  0  0  0  0  0
   36.8161   34.2040   41.4378 H   0  0  0  0  0  0  0  0  0  0  0  0
   36.1710   33.3053   40.0298 H   0  0  0  0  0  0  0  0  0  0  0  0
   35.3788   36.1772   42.1876 H   0  0  0  0  0  0  0  0  0  0  0  0
   33.7534   36.2498   41.3740 H   0  0  0  0  0  0  0  0  0  0  0  0
   33.7765   35.2607   43.6777 H   0  0  0  0  0  0  0  0  0  0  0  0
   31.9533   35.9434   41.3493 H   0  0  0  0  0  0  0  0  0  0  0  0
   29.9202   34.3661   40.5001 H   0  0  0  0  0  0  0  0  0  0  0  0
   30.5341   31.8981   41.3572 H   0  0  0  0  0  0  0  0  0  0  0  0
  1  2  2  0
  2 12  1  0
  3  2  1  0
  4  3  2  0
  5  4  1  0
  6  7  2  0
  6  5  1  0
  7  8  1  0
  8  4  1  0
  8  9  2  0
  9  1  1  0
 10 15  2  0
 11 10  1  0
 12 11  2  0
 12 13  1  0
 13 14  2  0
 14 15  1  0
 16  6  1  0
 18 16  1  0
 18 17  1  0
 19 18  1  0
 20 19  1  0
 20 21  1  0
 21 22  1  0
 22 17  1  0
 23 22  1  0
 24 23  2  0
 25 24  1  0
 25 26  2  0
 26 27  1  0
 27 23  1  0
  1 28  1  0
  3 29  1  0
  5 30  1  0
  9 31  1  0
 10 32  1  0
 11 33  1  0
 14 34  1  0
 17 35  1  0
 18 36  1  6
 19 37  1  0
 19 38  1  0
 21 39  1  0
 21 40  1  0
 22 41  1  1
 24 42  1  0
 25 43  1  0
 26 44  1  0
M  ISO  8  28  14  29  14  30   9  31  14  32  14  33  14  34  14  35   5
M  ISO  8  36  13  37  13  38  13  39  13  40  13  41  13  42  14  43  14
M  ISO  1  44  14
M  END
>  <minimizedAffinity>  (1) 
-5.61077166

>  <minimizedRMSD>  (1) 
5.0241785

$$$$
