
     RDKit          3D

 41 45  0  0  0  0  0  0  0  0999 V2000
   34.4500   28.1030   48.0720 C   0  0  0  0  0  0  0  0  0  0  0  0
   32.9760   28.2100   47.7750 C   0  0  0  0  0  0  0  0  0  0  0  0
   31.9550   27.4350   48.3250 C   0  0  0  0  0  0  0  0  0  0  0  0
   30.7510   27.8580   47.7840 C   0  0  0  0  0  0  0  0  0  0  0  0
   31.0750   28.8710   46.9300 N   0  0  0  0  0  0  0  0  0  0  0  0
   32.3830   29.0720   46.9310 N   0  0  0  0  0  0  0  0  0  0  0  0
   28.6810   29.3070   46.3080 N   0  0  0  0  0  0  0  0  0  0  0  0
   30.0130   29.5010   46.2250 C   0  0  0  0  0  0  0  0  0  0  0  0
   30.2070   30.4720   45.2840 N   0  0  0  0  0  0  0  0  0  0  0  0
   29.0360   30.8700   44.7980 C   0  0  0  0  0  0  0  0  0  0  0  0
   28.7230   31.8080   43.8460 C   0  0  0  0  0  0  0  0  0  0  0  0
   27.4290   32.0180   43.5330 N   0  0  0  0  0  0  0  0  0  0  0  0
   26.4630   31.3050   44.1560 C   0  0  0  0  0  0  0  0  0  0  0  0
   26.7750   30.3810   45.0930 N   0  0  0  0  0  0  0  0  0  0  0  0
   28.0650   30.1440   45.4330 C   0  0  0  0  0  0  0  0  0  0  0  0
   34.5720   28.2820   49.5620 C   0  0  0  0  0  0  0  0  0  0  0  0
   37.2010   30.1170   51.4000 C   0  0  0  0  0  0  0  0  0  0  0  0
   37.9400   30.6870   50.3520 C   0  0  0  0  0  0  0  0  0  0  0  0
   37.5370   30.4410   49.0260 C   0  0  0  0  0  0  0  0  0  0  0  0
   36.4500   29.6630   48.8270 N   0  0  0  0  0  0  0  0  0  0  0  0
   35.7600   29.1290   49.8750 C   0  0  0  0  0  0  0  0  0  0  0  0
   36.1420   29.3630   51.1160 N   0  0  0  0  0  0  0  0  0  0  0  0
   38.2590   31.0010   47.8900 C   0  0  0  0  0  0  0  0  0  0  0  0
   38.7680   32.2910   47.8710 C   0  0  0  0  0  0  0  0  0  0  0  0
   39.4030   32.5310   46.6520 C   0  0  0  0  0  0  0  0  0  0  0  0
   39.2360   31.3340   45.9830 C   0  0  0  0  0  0  0  0  0  0  0  0
   38.5810   30.5090   46.7350 O   0  0  0  0  0  0  0  0  0  0  0  0
   35.0073   28.8901   47.5430 H   0  0  0  0  0  0  0  0  0  0  0  0
   34.8651   27.1398   47.7405 H   0  0  0  0  0  0  0  0  0  0  0  0
   32.0832   26.6276   49.0610 H   0  0  0  0  0  0  0  0  0  0  0  0
   29.7476   27.4612   47.9979 H   0  0  0  0  0  0  0  0  0  0  0  0
   28.2093   28.6360   46.9310 H   0  0  0  0  0  0  0  0  0  0  0  0
   29.5176   32.3806   43.3453 H   0  0  0  0  0  0  0  0  0  0  0  0
   25.4083   31.4792   43.8968 H   0  0  0  0  0  0  0  0  0  0  0  0
   33.6643   28.7701   49.9465 H   0  0  0  0  0  0  0  0  0  0  0  0
   34.6935   27.2972   50.0368 H   0  0  0  0  0  0  0  0  0  0  0  0
   37.4942   30.2917   52.4457 H   0  0  0  0  0  0  0  0  0  0  0  0
   38.8183   31.3147   50.5630 H   0  0  0  0  0  0  0  0  0  0  0  0
   38.6837   33.0163   48.6937 H   0  0  0  0  0  0  0  0  0  0  0  0
   39.9100   33.4451   46.3093 H   0  0  0  0  0  0  0  0  0  0  0  0
   39.6026   31.1160   44.9691 H   0  0  0  0  0  0  0  0  0  0  0  0
  1 16  1  0
  2  1  1  0
  2  3  1  0
  4  3  2  0
  5  6  1  0
  5  4  1  0
  6  2  2  0
  8  7  1  0
  8  5  1  0
  9  8  2  0
 10  9  1  0
 10 15  2  0
 11 10  1  0
 12 11  2  0
 12 13  1  0
 13 14  2  0
 14 15  1  0
 15  7  1  0
 16 21  1  0
 18 17  2  0
 19 18  1  0
 20 19  2  0
 20 21  1  0
 21 22  2  0
 22 17  1  0
 23 19  1  0
 24 23  2  0
 25 24  1  0
 26 25  2  0
 26 27  1  0
 27 23  1  0
  1 28  1  0
  1 29  1  0
  3 30  1  0
  4 31  1  0
  7 32  1  0
 11 33  1  0
 13 34  1  0
 16 35  1  0
 16 36  1  0
 17 37  1  0
 18 38  1  0
 24 39  1  0
 25 40  1  0
 26 41  1  0
M  ISO  8  28   8  29   8  30  14  31  14  32   9  33  14  34  14  35   8
M  ISO  6  36   8  37  14  38  14  39  14  40  14  41  14
M  END
>  <minimizedAffinity>  (1) 
-6.71233416

>  <minimizedRMSD>  (1) 
0.150173217

$$$$
