
     RDKit          3D

 39 42  0  0  1  0  0  0  0  0999 V2000
   38.3770   31.8640   44.5900 C   0  0  0  0  0  0  0  0  0  0  0  0
   37.2400   32.3760   44.4650 O   0  0  0  0  0  0  0  0  0  0  0  0
   38.9510   31.6680   45.8980 N   0  0  0  0  0  0  0  0  0  0  0  0
   39.1680   31.4450   43.4120 C   0  0  0  0  0  0  0  0  0  0  0  0
   40.1540   30.5130   43.5770 C   0  0  0  0  0  0  0  0  0  0  0  0
   40.8720   30.1490   42.4480 C   0  0  0  0  0  0  0  0  0  0  0  0
   40.5600   30.7300   41.2550 C   0  0  0  0  0  0  0  0  0  0  0  0
   39.5650   31.6710   41.0790 C   0  0  0  0  0  0  0  0  0  0  0  0
   38.8980   31.9920   42.2030 N   0  0  0  0  0  0  0  0  0  0  0  0
   39.2660   32.2680   39.7830 C   0  0  0  0  0  0  0  0  0  0  0  0
   38.5400   33.2900   39.7470 O   0  0  0  0  0  0  0  0  0  0  0  0
   39.7980   31.6890   38.5530 C   0  0  0  0  0  0  0  0  0  0  0  0
   39.1780   30.6960   37.8220 C   0  0  0  0  0  0  0  0  0  0  0  0
   39.9870   30.4210   36.7380 C   0  0  0  0  0  0  0  0  0  0  0  0
   41.0820   31.2820   36.8720 C   0  0  0  0  0  0  0  0  0  0  0  0
   40.9160   32.0090   37.9650 O   0  0  0  0  0  0  0  0  0  0  0  0
   38.4330   31.1410   48.2690 C   0  0  2  0  0  0  0  0  0  0  0  0
   38.6820   32.6050   48.1960 C   0  0  0  0  0  0  0  0  0  0  0  0
   38.0760   31.7690   47.0400 C   0  0  1  0  0  0  0  0  0  0  0  0
   35.0520   30.2370   49.5320 C   0  0  0  0  0  0  0  0  0  0  0  0
   35.3680   29.5920   50.7790 C   0  0  0  0  0  0  0  0  0  0  0  0
   36.7600   29.4980   51.1530 C   0  0  0  0  0  0  0  0  0  0  0  0
   37.7220   30.0140   50.3240 N   0  0  0  0  0  0  0  0  0  0  0  0
   37.3470   30.6050   49.1710 C   0  0  0  0  0  0  0  0  0  0  0  0
   36.0280   30.7320   48.7490 N   0  0  0  0  0  0  0  0  0  0  0  0
   39.9537   31.4625   46.0131 H   0  0  0  0  0  0  0  0  0  0  0  0
   40.3684   30.0714   44.5614 H   0  0  0  0  0  0  0  0  0  0  0  0
   41.6791   29.4045   42.5139 H   0  0  0  0  0  0  0  0  0  0  0  0
   41.1412   30.4282   40.3712 H   0  0  0  0  0  0  0  0  0  0  0  0
   38.2182   30.2137   38.0590 H   0  0  0  0  0  0  0  0  0  0  0  0
   39.8093   29.6841   35.9409 H   0  0  0  0  0  0  0  0  0  0  0  0
   41.9378   31.3440   36.1837 H   0  0  0  0  0  0  0  0  0  0  0  0
   39.0753   30.2841   48.5203 H   0  0  0  0  0  0  0  0  0  0  0  0
   38.0580   33.3092   48.7659 H   0  0  0  0  0  0  0  0  0  0  0  0
   39.5405   33.2791   48.3322 H   0  0  0  0  0  0  0  0  0  0  0  0
   37.1555   31.7478   46.4381 H   0  0  0  0  0  0  0  0  0  0  0  0
   34.0022   30.3263   49.2158 H   0  0  0  0  0  0  0  0  0  0  0  0
   34.5766   29.1845   51.4252 H   0  0  0  0  0  0  0  0  0  0  0  0
   37.0467   29.0146   52.0986 H   0  0  0  0  0  0  0  0  0  0  0  0
  1  3  1  0
  2  1  2  0
  3 19  1  0
  4  5  2  0
  4  1  1  0
  6  5  1  0
  7  6  2  0
  8  7  1  0
  8  9  2  0
  9  4  1  0
 10  8  1  0
 11 10  2  0
 12 10  1  0
 13 12  2  0
 14 15  2  0
 14 13  1  0
 15 16  1  0
 16 12  1  0
 17 24  1  0
 18 17  1  0
 19 18  1  0
 19 17  1  0
 20 21  2  0
 21 22  1  0
 23 22  2  0
 24 23  1  0
 25 24  2  0
 25 20  1  0
  3 26  1  0
  5 27  1  0
  6 28  1  0
  7 29  1  0
 13 30  1  0
 14 31  1  0
 15 32  1  0
 17 33  1  6
 18 34  1  0
 18 35  1  0
 19 36  1  6
 20 37  1  0
 21 38  1  0
 22 39  1  0
M  ISO  8  27  14  28  14  29  14  30  14  31  14  32  14  33  13  34  13
M  ISO  5  35  13  36  13  37  14  38  14  39  14
M  END
>  <minimizedAffinity>  (1) 
-4.95850849

>  <minimizedRMSD>  (1) 
0.606751978

$$$$
