
     RDKit          3D

 40 43  0  0  0  0  0  0  0  0999 V2000
   36.8050   32.2940   49.2800 O   0  0  0  0  0  0  0  0  0  0  0  0
   38.2630   32.2660   47.2930 C   0  0  0  0  0  0  0  0  0  0  0  0
   37.9020   32.7040   48.5590 C   0  0  0  0  0  0  0  0  0  0  0  0
   38.6760   33.6430   49.2160 C   0  0  0  0  0  0  0  0  0  0  0  0
   39.8180   34.1460   48.6010 C   0  0  0  0  0  0  0  0  0  0  0  0
   40.1710   33.7070   47.3460 C   0  0  0  0  0  0  0  0  0  0  0  0
   39.3780   32.7680   46.7140 C   0  0  0  0  0  0  0  0  0  0  0  0
   39.7700   32.3080   45.3660 C   0  0  0  0  0  0  0  0  0  0  0  0
   40.6000   31.2740   45.0050 C   0  0  0  0  0  0  0  0  0  0  0  0
   40.6480   31.2490   43.6160 C   0  0  0  0  0  0  0  0  0  0  0  0
   39.8380   32.2800   43.2150 C   0  0  0  0  0  0  0  0  0  0  0  0
   39.3250   32.8980   44.2680 O   0  0  0  0  0  0  0  0  0  0  0  0
   36.7330   30.5250   46.1700 N   0  0  0  0  0  0  0  0  0  0  0  0
   37.4130   31.2930   46.6790 C   0  0  0  0  0  0  0  0  0  0  0  0
   36.7770   31.2320   50.1170 C   0  0  0  0  0  0  0  0  0  0  0  0
   35.7190   30.3620   49.8580 C   0  0  0  0  0  0  0  0  0  0  0  0
   35.5180   29.2250   50.5990 C   0  0  0  0  0  0  0  0  0  0  0  0
   36.4000   28.9750   51.6050 N   0  0  0  0  0  0  0  0  0  0  0  0
   37.4360   29.8320   51.8540 C   0  0  0  0  0  0  0  0  0  0  0  0
   37.6020   30.9200   51.1210 N   0  0  0  0  0  0  0  0  0  0  0  0
   34.3320   29.4190   48.0520 C   0  0  0  0  0  0  0  0  0  0  0  0
   34.7620   28.2020   47.9730 O   0  0  0  0  0  0  0  0  0  0  0  0
   34.7580   30.5290   48.8410 N   0  0  0  0  0  0  0  0  0  0  0  0
   33.1910   29.6240   47.1280 C   0  0  0  0  0  0  0  0  0  0  0  0
   32.1800   28.7560   46.8330 C   0  0  0  0  0  0  0  0  0  0  0  0
   31.3040   29.3400   45.9110 C   0  0  0  0  0  0  0  0  0  0  0  0
   31.8660   30.5820   45.6960 C   0  0  0  0  0  0  0  0  0  0  0  0
   32.9540   30.7180   46.4120 O   0  0  0  0  0  0  0  0  0  0  0  0
   38.3901   33.9904   50.2198 H   0  0  0  0  0  0  0  0  0  0  0  0
   40.4378   34.8937   49.1175 H   0  0  0  0  0  0  0  0  0  0  0  0
   41.0726   34.0982   46.8520 H   0  0  0  0  0  0  0  0  0  0  0  0
   41.1282   30.5927   45.6882 H   0  0  0  0  0  0  0  0  0  0  0  0
   41.2128   30.5536   42.9777 H   0  0  0  0  0  0  0  0  0  0  0  0
   39.6422   32.5547   42.1680 H   0  0  0  0  0  0  0  0  0  0  0  0
   34.6797   28.5444   50.3890 H   0  0  0  0  0  0  0  0  0  0  0  0
   38.1383   29.6142   52.6722 H   0  0  0  0  0  0  0  0  0  0  0  0
   34.3589   31.4621   48.6653 H   0  0  0  0  0  0  0  0  0  0  0  0
   32.0700   27.7470   47.2570 H   0  0  0  0  0  0  0  0  0  0  0  0
   30.3922   28.9140   45.4670 H   0  0  0  0  0  0  0  0  0  0  0  0
   31.4584   31.3480   45.0200 H   0  0  0  0  0  0  0  0  0  0  0  0
  1 15  1  0
  2  3  2  0
  3  4  1  0
  3  1  1  0
  5  4  2  0
  6  5  1  0
  7  2  1  0
  7  6  2  0
  8  7  1  0
  9  8  2  0
 10  9  1  0
 11 10  2  0
 11 12  1  0
 12  8  1  0
 13 14  3  0
 14  2  1  0
 15 20  2  0
 16 15  1  0
 16 17  2  0
 17 18  1  0
 18 19  2  0
 20 19  1  0
 21 23  1  0
 22 21  2  0
 23 16  1  0
 24 21  1  0
 25 24  2  0
 26 25  1  0
 27 26  2  0
 27 28  1  0
 28 24  1  0
  4 29  1  0
  5 30  1  0
  6 31  1  0
  9 32  1  0
 10 33  1  0
 11 34  1  0
 17 35  1  0
 19 36  1  0
 23 37  1  0
 25 38  1  0
 26 39  1  0
 27 40  1  0
M  ISO  8  29  14  30  14  31  14  32  14  33  14  34  14  35  14  36  14
M  ISO  3  38  14  39  14  40  14
M  END
>  <minimizedAffinity>  (1) 
-6.03500557

>  <minimizedRMSD>  (1) 
0.414940953

$$$$
