
     RDKit          3D

 28 30  0  0  0  0  0  0  0  0999 V2000
   35.8990   29.2740   49.4730 C   0  0  0  0  0  0  0  0  0  0  0  0
   34.8860   29.2200   50.3990 C   0  0  0  0  0  0  0  0  0  0  0  0
   33.7250   28.8130   49.7230 C   0  0  0  0  0  0  0  0  0  0  0  0
   34.1400   28.6470   48.3920 C   0  0  0  0  0  0  0  0  0  0  0  0
   35.4000   28.9270   48.3110 O   0  0  0  0  0  0  0  0  0  0  0  0
   37.2460   29.6630   49.8390 C   0  0  0  0  0  0  0  0  0  0  0  0
   37.8150   29.0620   50.7780 O   0  0  0  0  0  0  0  0  0  0  0  0
   37.8550   30.7330   49.0880 C   0  0  0  0  0  0  0  0  0  0  0  0
   38.0460   31.9430   49.7370 C   0  0  0  0  0  0  0  0  0  0  0  0
   38.6260   32.9930   49.0510 C   0  0  0  0  0  0  0  0  0  0  0  0
   38.9870   32.7760   47.7410 N   0  0  0  0  0  0  0  0  0  0  0  0
   38.7940   31.5990   47.1270 C   0  0  0  0  0  0  0  0  0  0  0  0
   38.2310   30.5840   47.7960 N   0  0  0  0  0  0  0  0  0  0  0  0
   33.2440   28.2210   47.3120 C   0  0  0  0  0  0  0  0  0  0  0  0
   33.1170   26.9990   47.0220 O   0  0  0  0  0  0  0  0  0  0  0  0
   32.4940   29.2270   46.5690 C   0  0  0  0  0  0  0  0  0  0  0  0
   33.0030   30.4440   46.1660 C   0  0  0  0  0  0  0  0  0  0  0  0
   31.9770   31.0880   45.4990 C   0  0  0  0  0  0  0  0  0  0  0  0
   30.8860   30.2220   45.5330 C   0  0  0  0  0  0  0  0  0  0  0  0
   31.2480   29.1380   46.1770 O   0  0  0  0  0  0  0  0  0  0  0  0
   34.9691   29.4524   51.4709 H   0  0  0  0  0  0  0  0  0  0  0  0
   32.7192   28.6592   50.1409 H   0  0  0  0  0  0  0  0  0  0  0  0
   37.7393   32.0659   50.7862 H   0  0  0  0  0  0  0  0  0  0  0  0
   38.7930   33.9668   49.5345 H   0  0  0  0  0  0  0  0  0  0  0  0
   39.0970   31.4677   46.0777 H   0  0  0  0  0  0  0  0  0  0  0  0
   34.0200   30.8254   46.3401 H   0  0  0  0  0  0  0  0  0  0  0  0
   32.0146   32.0844   45.0346 H   0  0  0  0  0  0  0  0  0  0  0  0
   29.8948   30.4137   45.0963 H   0  0  0  0  0  0  0  0  0  0  0  0
  1  6  1  0
  1  2  2  0
  3  2  1  0
  4  3  2  0
  5  4  1  0
  5  1  1  0
  6  7  2  0
  8  9  2  0
  8  6  1  0
 10  9  1  0
 11 10  2  0
 12 11  1  0
 12 13  2  0
 13  8  1  0
 14  4  1  0
 15 14  2  0
 16 14  1  0
 17 16  2  0
 18 19  2  0
 18 17  1  0
 19 20  1  0
 20 16  1  0
  2 21  1  0
  3 22  1  0
  9 23  1  0
 10 24  1  0
 12 25  1  0
 17 26  1  0
 18 27  1  0
 19 28  1  0
M  ISO  8  21  14  22  14  23  14  24  14  25  14  26  14  27  14  28  14
M  END
>  <minimizedAffinity>  (1) 
-5.20614815

>  <minimizedRMSD>  (1) 
2.93523932

$$$$
