
     RDKit          3D

 40 42  0  0  1  0  0  0  0  0999 V2000
   34.2680   27.7460   48.7150 O   0  0  0  0  0  0  0  0  0  0  0  0
   36.1480   29.0810   49.4340 C   0  0  1  0  0  0  0  0  0  0  0  0
   35.1370   29.2360   50.4510 C   0  0  0  0  0  0  0  0  0  0  0  0
   34.7460   29.0280   49.0230 C   0  0  2  0  0  0  0  0  0  0  0  0
   36.9550   30.2560   48.9670 C   0  0  0  0  0  0  0  0  0  0  0  0
   37.6780   30.9480   49.9710 C   0  0  0  0  0  0  0  0  0  0  0  0
   38.4040   32.0180   49.5200 C   0  0  0  0  0  0  0  0  0  0  0  0
   38.3960   32.3470   48.1860 N   0  0  0  0  0  0  0  0  0  0  0  0
   37.6930   31.6570   47.2710 C   0  0  0  0  0  0  0  0  0  0  0  0
   36.9530   30.5810   47.6850 N   0  0  0  0  0  0  0  0  0  0  0  0
   37.6730   31.9940   45.9050 N   0  0  0  0  0  0  0  0  0  0  0  0
   32.1330   26.4050   48.1700 O   0  0  0  0  0  0  0  0  0  0  0  0
   32.6440   27.7970   48.3460 P   0  0  1  0  0  0  0  0  0  0  0  0
   31.7680   28.4430   49.6860 O   0  0  0  0  0  0  0  0  0  0  0  0
   32.4280   28.7740   46.9860 O   0  0  0  0  0  0  0  0  0  0  0  0
   31.0980   30.1590   45.6680 C   0  0  0  0  0  0  0  0  0  0  0  0
   31.1870   28.9720   46.3940 C   0  0  0  0  0  0  0  0  0  0  0  0
   30.1010   28.1220   46.4720 C   0  0  0  0  0  0  0  0  0  0  0  0
   28.9200   28.4450   45.8310 C   0  0  0  0  0  0  0  0  0  0  0  0
   28.8460   29.6280   45.1120 C   0  0  0  0  0  0  0  0  0  0  0  0
   29.9150   30.4730   45.0300 C   0  0  0  0  0  0  0  0  0  0  0  0
   32.1940   32.3740   45.7630 N   0  0  0  0  0  0  0  0  0  0  0  0
   32.1980   31.1030   45.5390 C   0  0  0  0  0  0  0  0  0  0  0  0
   33.4310   30.5930   45.1180 N   0  0  0  0  0  0  0  0  0  0  0  0
   31.3490   32.9080   46.0830 H   0  0  0  0  0  0  0  0  0  0  0  0
   37.0203   28.4166   49.3464 H   0  0  0  0  0  0  0  0  0  0  0  0
   34.9714   28.4377   51.1894 H   0  0  0  0  0  0  0  0  0  0  0  0
   34.9127   29.9910   51.2189 H   0  0  0  0  0  0  0  0  0  0  0  0
   34.1152   29.5577   48.2940 H   0  0  0  0  0  0  0  0  0  0  0  0
   37.6575   30.6489   51.0294 H   0  0  0  0  0  0  0  0  0  0  0  0
   38.9958   32.6163   50.2284 H   0  0  0  0  0  0  0  0  0  0  0  0
   38.2196   32.7980   45.5648 H   0  0  0  0  0  0  0  0  0  0  0  0
   37.1117   31.4367   45.2452 H   0  0  0  0  0  0  0  0  0  0  0  0
   32.1836   28.1365   50.5306 H   0  0  0  0  0  0  0  0  0  0  0  0
   30.1763   27.1863   47.0454 H   0  0  0  0  0  0  0  0  0  0  0  0
   28.0511   27.7730   45.8905 H   0  0  0  0  0  0  0  0  0  0  0  0
   27.9093   29.8904   44.5985 H   0  0  0  0  0  0  0  0  0  0  0  0
   29.8334   31.4066   44.4540 H   0  0  0  0  0  0  0  0  0  0  0  0
   34.2394   31.2223   45.0118 H   0  0  0  0  0  0  0  0  0  0  0  0
   33.5302   29.5882   44.9143 H   0  0  0  0  0  0  0  0  0  0  0  0
  1  4  1  0
  2  3  1  0
  4  2  1  0
  4  3  1  0
  5  2  1  0
  5  6  2  0
  7  6  1  0
  8  7  2  0
  9 10  2  0
  9  8  1  0
 10  5  1  0
 11  9  1  0
 13 12  2  0
 13  1  1  0
 13 14  1  0
 15 13  1  0
 16 17  2  0
 17 18  1  0
 17 15  1  0
 19 18  2  0
 20 19  1  0
 21 20  2  0
 21 16  1  0
 22 25  1  0
 23 16  1  0
 23 22  2  0
 24 23  1  0
  2 26  1  1
  3 27  1  0
  3 28  1  0
  4 29  1  6
  6 30  1  0
  7 31  1  0
 11 32  1  0
 11 33  1  0
 14 34  1  0
 18 35  1  0
 19 36  1  0
 20 37  1  0
 21 38  1  0
 24 39  1  0
 24 40  1  0
M  ISO  8  26  13  27  13  28  13  29  13  30  14  31  14  34   3  35  14
M  ISO  3  36  14  37  14  38  14
M  END
>  <minimizedAffinity>  (1) 
-5.65849924

>  <minimizedRMSD>  (1) 
2.95265627

$$$$
