
     RDKit          3D

 45 48  0  0  1  0  0  0  0  0999 V2000
   33.9100   29.0110   47.3610 C   0  0  2  0  0  0  0  0  0  0  0  0
   34.7110   28.2150   48.3850 C   0  0  2  0  0  0  0  0  0  0  0  0
   33.8370   27.9650   49.4090 O   0  0  0  0  0  0  0  0  0  0  0  0
   32.5430   28.0110   48.9680 C   0  0  0  0  0  0  0  0  0  0  0  0
   32.5720   28.2730   47.4730 C   0  0  1  0  0  0  0  0  0  0  0  0
   35.7330   30.5170   48.9870 C   0  0  1  0  0  0  0  0  0  0  0  0
   35.8460   29.0870   48.8270 C   0  0  1  0  0  0  0  0  0  0  0  0
   35.9330   29.6230   50.2190 C   0  0  0  0  0  0  0  0  0  0  0  0
   36.9340   31.4210   48.7530 C   0  0  0  0  0  0  0  0  0  0  0  0
   37.1500   32.4460   49.6970 C   0  0  0  0  0  0  0  0  0  0  0  0
   38.2430   33.2600   49.4200 C   0  0  0  0  0  0  0  0  0  0  0  0
   39.0220   33.0550   48.3130 N   0  0  0  0  0  0  0  0  0  0  0  0
   38.7640   32.0610   47.4500 C   0  0  0  0  0  0  0  0  0  0  0  0
   37.7130   31.2230   47.6540 N   0  0  0  0  0  0  0  0  0  0  0  0
   34.4150   28.9240   46.0800 O   0  0  0  0  0  0  0  0  0  0  0  0
   31.5300   29.0260   47.0330 O   0  0  0  0  0  0  0  0  0  0  0  0
   29.4840   28.8480   46.1130 C   0  0  0  0  0  0  0  0  0  0  0  0
   30.8600   28.7340   45.8640 C   0  0  0  0  0  0  0  0  0  0  0  0
   31.2420   28.3760   44.5900 C   0  0  0  0  0  0  0  0  0  0  0  0
   30.3070   28.1430   43.6090 C   0  0  0  0  0  0  0  0  0  0  0  0
   28.9520   28.2510   43.8350 C   0  0  0  0  0  0  0  0  0  0  0  0
   28.5440   28.6080   45.1020 C   0  0  0  0  0  0  0  0  0  0  0  0
   27.7860   29.9850   47.5500 N   0  0  0  0  0  0  0  0  0  0  0  0
   28.8250   29.2150   47.3820 C   0  0  0  0  0  0  0  0  0  0  0  0
   29.2280   28.7740   48.6650 N   0  0  0  0  0  0  0  0  0  0  0  0
   27.3420   30.4130   46.6870 H   0  0  0  0  0  0  0  0  0  0  0  0
   33.8915   30.0949   47.5476 H   0  0  0  0  0  0  0  0  0  0  0  0
   35.1271   27.2704   48.0046 H   0  0  0  0  0  0  0  0  0  0  0  0
   32.0443   27.0516   49.1703 H   0  0  0  0  0  0  0  0  0  0  0  0
   31.9879   28.8063   49.4870 H   0  0  0  0  0  0  0  0  0  0  0  0
   32.4803   27.3670   46.8560 H   0  0  0  0  0  0  0  0  0  0  0  0
   35.0000   31.2359   48.5920 H   0  0  0  0  0  0  0  0  0  0  0  0
   36.4923   28.4494   48.2059 H   0  0  0  0  0  0  0  0  0  0  0  0
   36.8915   29.6223   50.7588 H   0  0  0  0  0  0  0  0  0  0  0  0
   35.4099   29.4522   51.1715 H   0  0  0  0  0  0  0  0  0  0  0  0
   36.5079   32.5897   50.5785 H   0  0  0  0  0  0  0  0  0  0  0  0
   38.4867   34.0858   50.1046 H   0  0  0  0  0  0  0  0  0  0  0  0
   39.4085   31.9227   46.5694 H   0  0  0  0  0  0  0  0  0  0  0  0
   35.3898   28.7561   46.1203 H   0  0  0  0  0  0  0  0  0  0  0  0
   32.3115   28.2749   44.3537 H   0  0  0  0  0  0  0  0  0  0  0  0
   30.6543   27.8593   42.6046 H   0  0  0  0  0  0  0  0  0  0  0  0
   28.2230   28.0594   43.0338 H   0  0  0  0  0  0  0  0  0  0  0  0
   27.4706   28.7054   45.3216 H   0  0  0  0  0  0  0  0  0  0  0  0
   28.7097   29.0797   49.5010 H   0  0  0  0  0  0  0  0  0  0  0  0
   30.0396   28.1474   48.7628 H   0  0  0  0  0  0  0  0  0  0  0  0
  1  5  1  0
  1  2  1  0
  2  7  1  0
  2  3  1  0
  4  3  1  0
  5  4  1  0
  6  8  1  0
  7  6  1  0
  7  8  1  0
  9  6  1  0
  9 10  2  0
 11 10  1  0
 12 11  2  0
 13 14  2  0
 13 12  1  0
 14  9  1  0
 15  1  1  0
 16  5  1  0
 17 24  1  0
 18 17  2  0
 18 16  1  0
 19 18  1  0
 20 21  1  0
 20 19  2  0
 21 22  2  0
 22 17  1  0
 24 23  2  0
 24 25  1  0
 26 23  1  0
  1 27  1  1
  2 28  1  6
  4 29  1  0
  4 30  1  0
  5 31  1  6
  6 32  1  1
  7 33  1  6
  8 34  1  0
  8 35  1  0
 10 36  1  0
 11 37  1  0
 13 38  1  0
 15 39  1  0
 19 40  1  0
 20 41  1  0
 21 42  1  0
 22 43  1  0
 25 44  1  0
 25 45  1  0
M  ISO  8  27  13  28  13  29  13  30  13  31  13  32  13  33  13  34  13
M  ISO  8  35  13  36  14  37  14  38  14  39   3  40  14  41  14  42  14
M  ISO  1  43  14
M  END
>  <minimizedAffinity>  (1) 
-5.39838696

>  <minimizedRMSD>  (1) 
0.819096684

$$$$
