
     RDKit          3D

 49 51  0  0  0  0  0  0  0  0999 V2000
   34.9030   29.4460   48.9010 C   0  0  0  0  0  0  0  0  0  0  0  0
   37.6430   30.5270   48.5530 Cl  0  0  0  0  0  0  0  0  0  0  0  0
   36.4920   30.3360   47.2330 C   0  0  0  0  0  0  0  0  0  0  0  0
   36.8590   30.7020   45.9720 C   0  0  0  0  0  0  0  0  0  0  0  0
   35.9750   30.5580   44.9390 C   0  0  0  0  0  0  0  0  0  0  0  0
   34.7180   30.0410   45.1980 C   0  0  0  0  0  0  0  0  0  0  0  0
   34.3930   29.6820   46.5070 C   0  0  0  0  0  0  0  0  0  0  0  0
   35.2580   29.8170   47.5500 C   0  0  0  0  0  0  0  0  0  0  0  0
   39.8630   32.8480   45.9920 C   0  0  0  0  0  0  0  0  0  0  0  0
   40.7200   32.1250   45.1120 C   0  0  0  0  0  0  0  0  0  0  0  0
   40.2310   30.9390   44.5540 C   0  0  0  0  0  0  0  0  0  0  0  0
   38.9750   30.5310   44.8710 N   0  0  0  0  0  0  0  0  0  0  0  0
   38.1870   31.2460   45.7140 C   0  0  0  0  0  0  0  0  0  0  0  0
   38.6350   32.3810   46.2560 N   0  0  0  0  0  0  0  0  0  0  0  0
   41.1010   30.2430   43.6860 N   0  0  0  0  0  0  0  0  0  0  0  0
   34.2540   28.1620   49.1440 C   0  0  0  0  0  0  0  0  0  0  0  0
   32.9360   28.3120   49.4920 O   0  0  0  0  0  0  0  0  0  0  0  0
   32.6330   26.5420   47.5690 O   0  0  0  0  0  0  0  0  0  0  0  0
   31.9340   27.6450   48.3280 P   0  0  2  0  0  0  0  0  0  0  0  0
   31.4820   28.9270   47.2800 O   0  0  0  0  0  0  0  0  0  0  0  0
   30.5200   27.0430   48.9770 O   0  0  0  0  0  0  0  0  0  0  0  0
   28.3640   27.8850   48.9230 C   0  0  0  0  0  0  0  0  0  0  0  0
   29.3380   27.1550   48.2540 C   0  0  0  0  0  0  0  0  0  0  0  0
   29.0620   26.6380   47.0060 C   0  0  0  0  0  0  0  0  0  0  0  0
   27.8280   26.8410   46.4220 C   0  0  0  0  0  0  0  0  0  0  0  0
   26.8360   27.5660   47.0700 C   0  0  0  0  0  0  0  0  0  0  0  0
   27.1370   28.0720   48.3150 C   0  0  0  0  0  0  0  0  0  0  0  0
   28.6360   29.7420   50.3640 N   0  0  0  0  0  0  0  0  0  0  0  0
   28.5580   28.4760   50.2510 C   0  0  0  0  0  0  0  0  0  0  0  0
   28.6430   27.5320   51.3390 N   0  0  0  0  0  0  0  0  0  0  0  0
   28.7710   30.2390   51.2490 H   0  0  0  0  0  0  0  0  0  0  0  0
   34.2244   30.2247   49.2793 H   0  0  0  0  0  0  0  0  0  0  0  0
   35.8749   29.3452   49.4063 H   0  0  0  0  0  0  0  0  0  0  0  0
   36.2590   30.8489   43.9169 H   0  0  0  0  0  0  0  0  0  0  0  0
   33.9870   29.9150   44.3858 H   0  0  0  0  0  0  0  0  0  0  0  0
   33.3921   29.2711   46.7053 H   0  0  0  0  0  0  0  0  0  0  0  0
   40.2082   33.7854   46.4525 H   0  0  0  0  0  0  0  0  0  0  0  0
   41.7322   32.4875   44.8794 H   0  0  0  0  0  0  0  0  0  0  0  0
   42.0418   30.6151   43.4926 H   0  0  0  0  0  0  0  0  0  0  0  0
   40.7947   29.3633   43.2464 H   0  0  0  0  0  0  0  0  0  0  0  0
   34.3131   27.5550   48.2286 H   0  0  0  0  0  0  0  0  0  0  0  0
   34.7732   27.6709   49.9802 H   0  0  0  0  0  0  0  0  0  0  0  0
   31.2056   29.7109   47.8177 H   0  0  0  0  0  0  0  0  0  0  0  0
   29.8305   26.0598   46.4721 H   0  0  0  0  0  0  0  0  0  0  0  0
   27.6265   26.4211   45.4255 H   0  0  0  0  0  0  0  0  0  0  0  0
   25.8511   27.7291   46.6080 H   0  0  0  0  0  0  0  0  0  0  0  0
   26.3678   28.6498   48.8484 H   0  0  0  0  0  0  0  0  0  0  0  0
   28.7790   27.8682   52.3031 H   0  0  0  0  0  0  0  0  0  0  0  0
   28.5676   26.5220   51.1516 H   0  0  0  0  0  0  0  0  0  0  0  0
  1 16  1  0
  3  8  2  0
  3  2  1  0
  4  3  1  0
  5  6  1  0
  5  4  2  0
  6  7  2  0
  7  8  1  0
  8  1  1  0
  9 14  2  0
 10  9  1  0
 11 12  1  0
 11 10  2  0
 12 13  2  0
 13  4  1  0
 13 14  1  0
 15 11  1  0
 16 17  1  0
 19 18  2  0
 19 21  1  0
 19 17  1  0
 20 19  1  0
 22 29  1  0
 23 22  2  0
 23 21  1  0
 24 23  1  0
 25 24  2  0
 25 26  1  0
 26 27  2  0
 27 22  1  0
 28 31  1  0
 29 28  2  0
 29 30  1  0
  1 32  1  0
  1 33  1  0
  5 34  1  0
  6 35  1  0
  7 36  1  0
  9 37  1  0
 10 38  1  0
 15 39  1  0
 15 40  1  0
 16 41  1  0
 16 42  1  0
 20 43  1  0
 24 44  1  0
 25 45  1  0
 26 46  1  0
 27 47  1  0
 30 48  1  0
 30 49  1  0
M  ISO  8  32   8  33   8  34  14  35  14  36  14  37  14  38  14  41   8
M  ISO  6  42   8  43   3  44  14  45  14  46  14  47  14
M  END
>  <minimizedAffinity>  (1) 
-6.89767981

>  <minimizedRMSD>  (1) 
1.2946744

$$$$
