
     RDKit          3D

 48 52  0  0  1  0  0  0  0  0999 V2000
   33.4910   30.2870   46.4070 C   0  0  1  0  0  0  0  0  0  0  0  0
   33.2880   28.9530   46.9840 C   0  0  0  0  0  0  0  0  0  0  0  0
   34.6950   29.4110   46.8380 C   0  0  2  0  0  0  0  0  0  0  0  0
   35.3090   29.6330   48.1760 C   0  0  0  0  0  0  0  0  0  0  0  0
   34.6620   28.8560   49.1390 C   0  0  0  0  0  0  0  0  0  0  0  0
   35.1030   28.8250   50.4450 C   0  0  0  0  0  0  0  0  0  0  0  0
   36.2130   29.5710   50.8360 C   0  0  0  0  0  0  0  0  0  0  0  0
   36.8350   30.3270   49.8700 C   0  0  0  0  0  0  0  0  0  0  0  0
   37.9350   31.1220   50.1200 C   0  0  0  0  0  0  0  0  0  0  0  0
   38.5600   31.8930   49.1580 C   0  0  0  0  0  0  0  0  0  0  0  0
   38.0660   31.8780   47.8640 C   0  0  0  0  0  0  0  0  0  0  0  0
   36.9690   31.0910   47.6010 C   0  0  0  0  0  0  0  0  0  0  0  0
   36.3800   30.3420   48.5860 C   0  0  0  0  0  0  0  0  0  0  0  0
   32.2190   29.9030   42.9080 C   0  0  0  0  0  0  0  0  0  0  0  0
   32.3190   29.8010   44.3120 C   0  0  0  0  0  0  0  0  0  0  0  0
   33.3870   30.4450   44.9380 C   0  0  0  0  0  0  0  0  0  0  0  0
   34.2840   31.1420   44.1780 N   0  0  0  0  0  0  0  0  0  0  0  0
   34.1640   31.2210   42.8410 C   0  0  0  0  0  0  0  0  0  0  0  0
   33.1160   30.5910   42.1980 N   0  0  0  0  0  0  0  0  0  0  0  0
   35.1050   33.3070   41.7540 C   0  0  0  0  0  0  0  0  0  0  0  0
   35.0010   31.9570   41.9160 C   0  0  0  0  0  0  0  0  0  0  0  0
   35.8300   31.2900   41.0080 C   0  0  0  0  0  0  0  0  0  0  0  0
   36.6330   31.8850   40.0910 C   0  0  0  0  0  0  0  0  0  0  0  0
   36.6840   33.2400   39.9910 C   0  0  0  0  0  0  0  0  0  0  0  0
   35.8980   33.9690   40.8460 C   0  0  0  0  0  0  0  0  0  0  0  0
   33.9300   35.3690   42.0690 N   0  0  0  0  0  0  0  0  0  0  0  0
   34.3010   34.2010   42.5590 C   0  0  0  0  0  0  0  0  0  0  0  0
   33.6260   34.5140   43.7450 N   0  0  0  0  0  0  0  0  0  0  0  0
   33.3540   35.9820   42.6860 H   0  0  0  0  0  0  0  0  0  0  0  0
   33.0785   31.2798   46.6398 H   0  0  0  0  0  0  0  0  0  0  0  0
   32.8514   28.8595   47.9893 H   0  0  0  0  0  0  0  0  0  0  0  0
   32.7439   28.0574   46.6497 H   0  0  0  0  0  0  0  0  0  0  0  0
   35.6257   29.1225   46.3275 H   0  0  0  0  0  0  0  0  0  0  0  0
   33.7849   28.2580   48.8506 H   0  0  0  0  0  0  0  0  0  0  0  0
   34.5740   28.2060   51.1846 H   0  0  0  0  0  0  0  0  0  0  0  0
   36.5767   29.5559   51.8740 H   0  0  0  0  0  0  0  0  0  0  0  0
   38.3375   31.1433   51.1435 H   0  0  0  0  0  0  0  0  0  0  0  0
   39.4348   32.5080   49.4156 H   0  0  0  0  0  0  0  0  0  0  0  0
   38.5367   32.4773   47.0708 H   0  0  0  0  0  0  0  0  0  0  0  0
   36.5570   31.0623   46.5815 H   0  0  0  0  0  0  0  0  0  0  0  0
   31.3861   29.4062   42.3889 H   0  0  0  0  0  0  0  0  0  0  0  0
   31.5790   29.2322   44.8941 H   0  0  0  0  0  0  0  0  0  0  0  0
   35.8308   30.1905   41.0404 H   0  0  0  0  0  0  0  0  0  0  0  0
   37.2486   31.2656   39.4221 H   0  0  0  0  0  0  0  0  0  0  0  0
   37.3319   33.7333   39.2515 H   0  0  0  0  0  0  0  0  0  0  0  0
   35.9017   35.0683   40.8062 H   0  0  0  0  0  0  0  0  0  0  0  0
   33.1311   35.4129   43.8341 H   0  0  0  0  0  0  0  0  0  0  0  0
   33.6243   33.8454   44.5285 H   0  0  0  0  0  0  0  0  0  0  0  0
  1  3  1  0
  1  2  1  0
  3  2  1  0
  3  4  1  0
  4 13  1  0
  4  5  2  0
  5  6  1  0
  6  7  2  0
  8  9  2  0
  8  7  1  0
 10  9  1  0
 11 10  2  0
 12 11  1  0
 12 13  2  0
 13  8  1  0
 14 15  2  0
 15 16  1  0
 16  1  1  0
 17 16  2  0
 18 17  1  0
 19 18  2  0
 19 14  1  0
 20 21  2  0
 20 27  1  0
 21 18  1  0
 22 21  1  0
 23 22  2  0
 24 23  1  0
 24 25  2  0
 25 20  1  0
 26 27  2  0
 26 29  1  0
 27 28  1  0
  1 30  1  1
  2 31  1  0
  2 32  1  0
  3 33  1  6
  5 34  1  0
  6 35  1  0
  7 36  1  0
  9 37  1  0
 10 38  1  0
 11 39  1  0
 12 40  1  0
 14 41  1  0
 15 42  1  0
 22 43  1  0
 23 44  1  0
 24 45  1  0
 25 46  1  0
 28 47  1  0
 28 48  1  0
M  ISO  8  30  13  31  13  32  13  33  13  34  14  35  14  36  14  37  14
M  ISO  8  38  14  39  14  40  14  41  14  42  14  43  14  44  14  45  14
M  ISO  1  46  14
M  END
>  <minimizedAffinity>  (1) 
-6.7931242

>  <minimizedRMSD>  (1) 
9.44495773

$$$$
