
     RDKit          3D

 45 49  0  0  0  0  0  0  0  0999 V2000
   31.2290   29.1050   46.2990 S   0  0  0  0  0  0  0  0  0  0  0  0
   29.9640   26.7740   46.6830 C   0  0  0  0  0  0  0  0  0  0  0  0
   29.6600   25.4760   46.3190 C   0  0  0  0  0  0  0  0  0  0  0  0
   30.1550   24.8500   45.1690 C   0  0  0  0  0  0  0  0  0  0  0  0
   31.0170   25.5900   44.3280 C   0  0  0  0  0  0  0  0  0  0  0  0
   31.3050   26.8700   44.7070 C   0  0  0  0  0  0  0  0  0  0  0  0
   30.8230   27.4750   45.8290 C   0  0  0  0  0  0  0  0  0  0  0  0
   30.0190   27.0190   49.0810 C   0  0  0  0  0  0  0  0  0  0  0  0
   29.3490   27.2700   47.8770 C   0  0  0  0  0  0  0  0  0  0  0  0
   28.1420   27.9770   47.9330 C   0  0  0  0  0  0  0  0  0  0  0  0
   27.6730   28.3880   49.1410 N   0  0  0  0  0  0  0  0  0  0  0  0
   28.3500   28.1290   50.2980 C   0  0  0  0  0  0  0  0  0  0  0  0
   29.5230   27.4440   50.2610 N   0  0  0  0  0  0  0  0  0  0  0  0
   27.3130   28.3150   46.7330 C   0  0  0  0  0  0  0  0  0  0  0  0
   26.0890   28.8630   47.1560 F   0  0  0  0  0  0  0  0  0  0  0  0
   27.8800   29.1540   45.8470 F   0  0  0  0  0  0  0  0  0  0  0  0
   26.9380   27.1390   46.0830 F   0  0  0  0  0  0  0  0  0  0  0  0
   33.0480   28.9550   48.8200 Cl  0  0  0  0  0  0  0  0  0  0  0  0
   33.6960   29.4170   47.2710 C   0  0  0  0  0  0  0  0  0  0  0  0
   32.9390   29.5140   46.1190 C   0  0  0  0  0  0  0  0  0  0  0  0
   33.4960   29.8970   44.9290 C   0  0  0  0  0  0  0  0  0  0  0  0
   34.8650   30.1860   44.9120 C   0  0  0  0  0  0  0  0  0  0  0  0
   35.6370   30.0890   46.0700 C   0  0  0  0  0  0  0  0  0  0  0  0
   35.0620   29.7040   47.2650 C   0  0  0  0  0  0  0  0  0  0  0  0
   35.8760   29.6160   48.4320 N   0  0  0  0  0  0  0  0  0  0  0  0
   35.9670   28.7060   49.4390 C   0  0  0  0  0  0  0  0  0  0  0  0
   36.9210   29.1330   50.2870 N   0  0  0  0  0  0  0  0  0  0  0  0
   37.4260   30.2870   49.8320 C   0  0  0  0  0  0  0  0  0  0  0  0
   38.4200   31.0760   50.3780 C   0  0  0  0  0  0  0  0  0  0  0  0
   38.7460   32.2010   49.7160 N   0  0  0  0  0  0  0  0  0  0  0  0
   38.1170   32.5310   48.5580 C   0  0  0  0  0  0  0  0  0  0  0  0
   37.1510   31.7550   48.0340 N   0  0  0  0  0  0  0  0  0  0  0  0
   36.7760   30.6170   48.6470 C   0  0  0  0  0  0  0  0  0  0  0  0
   28.9884   24.8999   46.9725 H   0  0  0  0  0  0  0  0  0  0  0  0
   29.8812   23.8125   44.9269 H   0  0  0  0  0  0  0  0  0  0  0  0
   31.4370   25.1544   43.4094 H   0  0  0  0  0  0  0  0  0  0  0  0
   31.9747   27.4552   44.0596 H   0  0  0  0  0  0  0  0  0  0  0  0
   30.9687   26.4642   49.0639 H   0  0  0  0  0  0  0  0  0  0  0  0
   27.9457   28.4750   51.2607 H   0  0  0  0  0  0  0  0  0  0  0  0
   32.8875   29.9751   44.0160 H   0  0  0  0  0  0  0  0  0  0  0  0
   35.3406   30.4949   43.9695 H   0  0  0  0  0  0  0  0  0  0  0  0
   36.7116   30.3209   46.0308 H   0  0  0  0  0  0  0  0  0  0  0  0
   35.3696   27.7881   49.5416 H   0  0  0  0  0  0  0  0  0  0  0  0
   38.9239   30.7961   51.3149 H   0  0  0  0  0  0  0  0  0  0  0  0
   38.4046   33.4555   48.0359 H   0  0  0  0  0  0  0  0  0  0  0  0
  2  9  1  0
  3  2  2  0
  4  3  1  0
  5  6  1  0
  5  4  2  0
  6  7  2  0
  7  1  1  0
  7  2  1  0
  8 13  2  0
  9 10  2  0
  9  8  1  0
 10 11  1  0
 11 12  2  0
 13 12  1  0
 14 15  1  0
 14 10  1  0
 16 14  1  0
 17 14  1  0
 19 18  1  0
 20  1  1  0
 20 19  2  0
 21 20  1  0
 22 21  2  0
 22 23  1  0
 23 24  2  0
 24 19  1  0
 24 25  1  0
 25 33  1  0
 25 26  1  0
 26 27  2  0
 28 27  1  0
 28 29  2  0
 30 29  1  0
 31 30  2  0
 32 31  1  0
 32 33  2  0
 33 28  1  0
  3 34  1  0
  4 35  1  0
  5 36  1  0
  6 37  1  0
  8 38  1  0
 12 39  1  0
 21 40  1  0
 22 41  1  0
 23 42  1  0
 26 43  1  0
 29 44  1  0
 31 45  1  0
M  ISO  8  34  14  35  14  36  14  37  14  38  14  39  14  40  14  41  14
M  ISO  4  42  14  43  14  44  14  45  14
M  END
>  <minimizedAffinity>  (1) 
-5.926373

>  <minimizedRMSD>  (1) 
4.79467297

$$$$
