
     RDKit          3D

 47 51  0  0  1  0  0  0  0  0999 V2000
   40.1550   31.7980   43.5260 N   0  0  0  0  0  0  0  0  0  0  0  0
   39.5210   32.9200   42.9670 C   0  0  0  0  0  0  0  0  0  0  0  0
   38.1110   32.7440   42.5370 C   0  0  0  0  0  0  0  0  0  0  0  0
   37.8770   31.5090   41.9170 O   0  0  0  0  0  0  0  0  0  0  0  0
   38.2930   30.4860   42.7120 C   0  0  0  0  0  0  0  0  0  0  0  0
   39.7410   30.5710   43.0090 C   0  0  1  0  0  0  0  0  0  0  0  0
   40.5870   30.1130   41.9100 N   0  0  0  0  0  0  0  0  0  0  0  0
   41.5060   29.1250   41.9640 C   0  0  0  0  0  0  0  0  0  0  0  0
   42.1130   28.9550   40.7690 N   0  0  0  0  0  0  0  0  0  0  0  0
   41.5890   29.8400   39.9200 C   0  0  0  0  0  0  0  0  0  0  0  0
   41.7800   30.1620   38.5890 C   0  0  0  0  0  0  0  0  0  0  0  0
   41.0520   31.1570   38.0030 N   0  0  0  0  0  0  0  0  0  0  0  0
   40.1460   31.8330   38.7060 C   0  0  0  0  0  0  0  0  0  0  0  0
   39.9360   31.5390   40.0200 N   0  0  0  0  0  0  0  0  0  0  0  0
   40.6530   30.5490   40.6180 C   0  0  0  0  0  0  0  0  0  0  0  0
   40.5810   31.8880   44.8540 C   0  0  0  0  0  0  0  0  0  0  0  0
   39.8470   32.7520   45.7540 C   0  0  0  0  0  0  0  0  0  0  0  0
   37.7020   31.0490   48.0770 C   0  0  0  0  0  0  0  0  0  0  0  0
   36.9670   30.9340   46.9140 C   0  0  0  0  0  0  0  0  0  0  0  0
   37.7010   31.5670   45.9040 C   0  0  0  0  0  0  0  0  0  0  0  0
   38.8140   32.0230   46.4790 N   0  0  0  0  0  0  0  0  0  0  0  0
   38.8170   31.7150   47.7780 N   0  0  0  0  0  0  0  0  0  0  0  0
   37.3920   30.0860   51.6960 C   0  0  0  0  0  0  0  0  0  0  0  0
   37.9360   30.6560   50.5430 C   0  0  0  0  0  0  0  0  0  0  0  0
   37.2630   30.5150   49.3400 C   0  0  0  0  0  0  0  0  0  0  0  0
   36.1020   29.8130   49.3990 N   0  0  0  0  0  0  0  0  0  0  0  0
   35.5940   29.2710   50.5260 C   0  0  0  0  0  0  0  0  0  0  0  0
   36.2480   29.4140   51.6660 N   0  0  0  0  0  0  0  0  0  0  0  0
   39.5426   33.7236   43.7179 H   0  0  0  0  0  0  0  0  0  0  0  0
   40.0794   33.1378   42.0446 H   0  0  0  0  0  0  0  0  0  0  0  0
   37.4626   32.8201   43.4223 H   0  0  0  0  0  0  0  0  0  0  0  0
   37.8921   33.5293   41.7985 H   0  0  0  0  0  0  0  0  0  0  0  0
   37.7333   30.5208   43.6583 H   0  0  0  0  0  0  0  0  0  0  0  0
   38.1096   29.5424   42.1771 H   0  0  0  0  0  0  0  0  0  0  0  0
   39.8846   29.8532   43.8301 H   0  0  0  0  0  0  0  0  0  0  0  0
   41.7313   28.5349   42.8646 H   0  0  0  0  0  0  0  0  0  0  0  0
   42.5256   29.6112   37.9968 H   0  0  0  0  0  0  0  0  0  0  0  0
   39.5642   32.6325   38.2241 H   0  0  0  0  0  0  0  0  0  0  0  0
   40.5461   30.8730   45.2765 H   0  0  0  0  0  0  0  0  0  0  0  0
   41.5776   32.3490   44.7883 H   0  0  0  0  0  0  0  0  0  0  0  0
   40.5489   33.1906   46.4786 H   0  0  0  0  0  0  0  0  0  0  0  0
   39.3580   33.5345   45.1552 H   0  0  0  0  0  0  0  0  0  0  0  0
   35.9909   30.4393   46.8023 H   0  0  0  0  0  0  0  0  0  0  0  0
   37.4161   31.6681   44.8463 H   0  0  0  0  0  0  0  0  0  0  0  0
   37.9246   30.1967   52.6521 H   0  0  0  0  0  0  0  0  0  0  0  0
   38.8856   31.2093   50.5892 H   0  0  0  0  0  0  0  0  0  0  0  0
   34.6450   28.7156   50.4962 H   0  0  0  0  0  0  0  0  0  0  0  0
  1 16  1  0
  2  1  1  0
  3  2  1  0
  4  3  1  0
  4  5  1  0
  5  6  1  0
  6  1  1  0
  7  8  1  0
  7  6  1  0
  9  8  2  0
 10 15  2  0
 10  9  1  0
 11 10  1  0
 12 11  2  0
 12 13  1  0
 13 14  2  0
 14 15  1  0
 15  7  1  0
 16 17  1  0
 17 21  1  0
 18 25  1  0
 19 18  1  0
 20 21  1  0
 20 19  2  0
 21 22  1  0
 22 18  2  0
 24 23  2  0
 25 26  2  0
 25 24  1  0
 26 27  1  0
 27 28  2  0
 28 23  1  0
  2 29  1  0
  2 30  1  0
  3 31  1  0
  3 32  1  0
  5 33  1  0
  5 34  1  0
  6 35  1  1
  8 36  1  0
 11 37  1  0
 13 38  1  0
 16 39  1  0
 16 40  1  0
 17 41  1  0
 17 42  1  0
 19 43  1  0
 20 44  1  0
 23 45  1  0
 24 46  1  0
 27 47  1  0
M  ISO  8  29  13  30  13  31  13  32  13  33  13  34  13  35  13  36  14
M  ISO  8  37  14  38  14  39   8  40   8  41   8  42   8  43  14  44  14
M  ISO  3  45  14  46  14  47  14
M  END
>  <minimizedAffinity>  (1) 
-6.13602114

>  <minimizedRMSD>  (1) 
0.791459918

$$$$
