
     RDKit          3D

 43 47  0  0  1  0  0  0  0  0999 V2000
   40.5720   31.5130   44.7640 Cl  0  0  0  0  0  0  0  0  0  0  0  0
   38.9620   30.8680   44.6310 C   0  0  0  0  0  0  0  0  0  0  0  0
   38.0640   31.3650   45.5590 C   0  0  0  0  0  0  0  0  0  0  0  0
   36.7790   30.8500   45.4580 C   0  0  0  0  0  0  0  0  0  0  0  0
   36.4150   29.9180   44.5140 C   0  0  0  0  0  0  0  0  0  0  0  0
   37.3590   29.4710   43.6270 C   0  0  0  0  0  0  0  0  0  0  0  0
   38.6680   29.9330   43.6570 C   0  0  0  0  0  0  0  0  0  0  0  0
   39.7250   29.5390   42.7870 N   0  0  0  0  0  0  0  0  0  0  0  0
   40.9650   30.0430   42.6530 C   0  0  0  0  0  0  0  0  0  0  0  0
   41.5730   29.3190   41.6960 N   0  0  0  0  0  0  0  0  0  0  0  0
   40.7280   28.3820   41.2380 C   0  0  0  0  0  0  0  0  0  0  0  0
   40.8380   27.3840   40.2660 C   0  0  0  0  0  0  0  0  0  0  0  0
   39.8070   26.5400   39.9840 N   0  0  0  0  0  0  0  0  0  0  0  0
   38.6680   26.7060   40.6830 C   0  0  0  0  0  0  0  0  0  0  0  0
   38.5280   27.6570   41.6260 N   0  0  0  0  0  0  0  0  0  0  0  0
   39.5240   28.5140   41.9380 C   0  0  0  0  0  0  0  0  0  0  0  0
   38.1770   32.2610   46.5600 O   0  0  0  0  0  0  0  0  0  0  0  0
   38.9120   32.4040   47.6880 C   0  0  2  0  0  0  0  0  0  0  0  0
   38.0270   32.7200   48.9330 C   0  0  2  0  0  0  0  0  0  0  0  0
   38.9770   33.4440   49.7650 C   0  0  0  0  0  0  0  0  0  0  0  0
   39.7810   34.2110   48.9350 O   0  0  0  0  0  0  0  0  0  0  0  0
   39.6040   33.7980   47.6540 C   0  0  0  0  0  0  0  0  0  0  0  0
   37.3500   29.6170   50.9450 C   0  0  0  0  0  0  0  0  0  0  0  0
   38.0310   30.7730   50.4720 C   0  0  0  0  0  0  0  0  0  0  0  0
   37.3870   31.5420   49.4620 C   0  0  0  0  0  0  0  0  0  0  0  0
   36.1590   31.1400   48.9960 N   0  0  0  0  0  0  0  0  0  0  0  0
   35.5610   30.0450   49.4720 C   0  0  0  0  0  0  0  0  0  0  0  0
   36.1370   29.2780   50.4380 N   0  0  0  0  0  0  0  0  0  0  0  0
   36.0155   31.2039   46.1664 H   0  0  0  0  0  0  0  0  0  0  0  0
   35.3836   29.5380   44.4719 H   0  0  0  0  0  0  0  0  0  0  0  0
   37.0719   28.7258   42.8705 H   0  0  0  0  0  0  0  0  0  0  0  0
   41.3974   30.8832   43.2161 H   0  0  0  0  0  0  0  0  0  0  0  0
   41.7832   27.2772   39.7135 H   0  0  0  0  0  0  0  0  0  0  0  0
   37.8186   26.0385   40.4755 H   0  0  0  0  0  0  0  0  0  0  0  0
   39.5241   31.4915   47.7403 H   0  0  0  0  0  0  0  0  0  0  0  0
   37.1247   33.3277   48.7697 H   0  0  0  0  0  0  0  0  0  0  0  0
   38.4364   34.0962   50.4668 H   0  0  0  0  0  0  0  0  0  0  0  0
   39.5910   32.7384   50.3439 H   0  0  0  0  0  0  0  0  0  0  0  0
   40.5783   33.7187   47.1496 H   0  0  0  0  0  0  0  0  0  0  0  0
   38.9826   34.5192   47.1029 H   0  0  0  0  0  0  0  0  0  0  0  0
   37.8092   28.9938   51.7265 H   0  0  0  0  0  0  0  0  0  0  0  0
   39.0151   31.0608   50.8705 H   0  0  0  0  0  0  0  0  0  0  0  0
   34.5776   29.7553   49.0733 H   0  0  0  0  0  0  0  0  0  0  0  0
  2  1  1  0
  2  3  2  0
  3 17  1  0
  4  3  1  0
  5  4  2  0
  6  7  2  0
  6  5  1  0
  7  2  1  0
  8  7  1  0
  9  8  1  0
 10  9  2  0
 11 10  1  0
 11 16  2  0
 12 11  1  0
 13 12  2  0
 13 14  1  0
 14 15  2  0
 15 16  1  0
 16  8  1  0
 17 18  1  0
 18 19  1  0
 19 25  1  0
 19 20  1  0
 21 20  1  0
 22 18  1  0
 22 21  1  0
 24 23  2  0
 25 24  1  0
 26 25  2  0
 26 27  1  0
 27 28  2  0
 28 23  1  0
  4 29  1  0
  5 30  1  0
  6 31  1  0
  9 32  1  0
 12 33  1  0
 14 34  1  0
 18 35  1  1
 19 36  1  6
 20 37  1  0
 20 38  1  0
 22 39  1  0
 22 40  1  0
 23 41  1  0
 24 42  1  0
 27 43  1  0
M  ISO  8  29  14  30  14  31  14  32  14  33  14  34  14  35  13  36  13
M  ISO  7  37  13  38  13  39  13  40  13  41  14  42  14  43  14
M  END
>  <minimizedAffinity>  (1) 
-6.40468884

>  <minimizedRMSD>  (1) 
0.662286043

$$$$
