
     RDKit          3D

 40 43  0  0  1  0  0  0  0  0999 V2000
   34.7840   28.4990   50.0670 O   0  0  0  0  0  0  0  0  0  0  0  0
   34.5820   28.8970   48.9090 C   0  0  0  0  0  0  0  0  0  0  0  0
   35.3060   30.0230   48.3560 C   0  0  2  0  0  0  0  0  0  0  0  0
   34.8340   29.9720   46.8660 C   0  0  0  0  0  0  0  0  0  0  0  0
   33.4820   29.3300   46.9670 C   0  0  0  0  0  0  0  0  0  0  0  0
   33.6330   28.3080   47.9910 N   0  0  0  0  0  0  0  0  0  0  0  0
   32.9880   27.0160   48.0650 C   0  0  0  0  0  0  0  0  0  0  0  0
   31.6170   27.0590   47.6570 N   0  0  0  0  0  0  0  0  0  0  0  0
   31.1100   26.7330   46.4340 C   0  0  0  0  0  0  0  0  0  0  0  0
   29.7590   26.8970   46.4060 N   0  0  0  0  0  0  0  0  0  0  0  0
   29.3820   27.3350   47.6270 C   0  0  0  0  0  0  0  0  0  0  0  0
   28.1480   27.6620   48.1590 C   0  0  0  0  0  0  0  0  0  0  0  0
   28.1500   28.0710   49.4370 N   0  0  0  0  0  0  0  0  0  0  0  0
   29.2740   28.1650   50.1810 C   0  0  0  0  0  0  0  0  0  0  0  0
   30.4800   27.8530   49.6850 N   0  0  0  0  0  0  0  0  0  0  0  0
   30.5320   27.4320   48.3890 C   0  0  0  0  0  0  0  0  0  0  0  0
   36.7220   29.8460   48.3140 O   0  0  0  0  0  0  0  0  0  0  0  0
   37.5130   30.9930   48.3320 C   0  0  0  0  0  0  0  0  0  0  0  0
   37.6710   31.6190   49.5550 C   0  0  0  0  0  0  0  0  0  0  0  0
   38.4540   32.7660   49.6070 C   0  0  0  0  0  0  0  0  0  0  0  0
   39.0260   33.2200   48.4590 N   0  0  0  0  0  0  0  0  0  0  0  0
   38.8620   32.6000   47.2810 C   0  0  0  0  0  0  0  0  0  0  0  0
   38.1150   31.5090   47.2450 N   0  0  0  0  0  0  0  0  0  0  0  0
   40.3650   32.1710   45.4980 C   0  0  0  0  0  0  0  0  0  0  0  0
   40.6500   31.0080   45.8840 O   0  0  0  0  0  0  0  0  0  0  0  0
   39.4750   33.1070   46.1000 N   0  0  0  0  0  0  0  0  0  0  0  0
   35.1203   30.9350   48.9423 H   0  0  0  0  0  0  0  0  0  0  0  0
   35.5168   29.3636   46.2548 H   0  0  0  0  0  0  0  0  0  0  0  0
   34.8119   30.9597   46.3823 H   0  0  0  0  0  0  0  0  0  0  0  0
   32.7234   30.0686   47.2652 H   0  0  0  0  0  0  0  0  0  0  0  0
   33.1483   28.9102   46.0066 H   0  0  0  0  0  0  0  0  0  0  0  0
   33.5279   26.3152   47.4113 H   0  0  0  0  0  0  0  0  0  0  0  0
   33.0119   26.6924   49.1161 H   0  0  0  0  0  0  0  0  0  0  0  0
   31.7128   26.3837   45.5828 H   0  0  0  0  0  0  0  0  0  0  0  0
   27.2214   27.5911   47.5704 H   0  0  0  0  0  0  0  0  0  0  0  0
   29.1974   28.5073   51.2236 H   0  0  0  0  0  0  0  0  0  0  0  0
   37.1906   31.2204   50.4608 H   0  0  0  0  0  0  0  0  0  0  0  0
   38.6084   33.2967   50.5581 H   0  0  0  0  0  0  0  0  0  0  0  0
   40.8666   32.5082   44.5789 H   0  0  0  0  0  0  0  0  0  0  0  0
   39.2947   34.0480   45.7220 H   0  0  0  0  0  0  0  0  0  0  0  0
  2  1  2  0
  3  2  1  0
  4  5  1  0
  4  3  1  0
  5  6  1  0
  6  7  1  0
  6  2  1  0
  8  7  1  0
  8 16  1  0
  9  8  1  0
 10  9  2  0
 10 11  1  0
 11 12  2  0
 11 16  1  0
 12 13  1  0
 13 14  2  0
 15 14  1  0
 16 15  2  0
 17 18  1  0
 17  3  1  0
 18 19  2  0
 19 20  1  0
 21 20  2  0
 22 21  1  0
 23 22  2  0
 23 18  1  0
 24 25  2  0
 24 26  1  0
 26 22  1  0
  3 27  1  1
  4 28  1  0
  4 29  1  0
  5 30  1  0
  5 31  1  0
  7 32  1  0
  7 33  1  0
  9 34  1  0
 12 35  1  0
 14 36  1  0
 19 37  1  0
 20 38  1  0
 24 39  1  0
 26 40  1  0
M  ISO  8  27  13  28  13  29  13  30  13  31  13  32   8  33   8  34  14
M  ISO  5  35  14  36  14  37  14  38  14  39   6
M  END
>  <minimizedAffinity>  (1) 
-6.48369932

>  <minimizedRMSD>  (1) 
1.72981346

$$$$
