
     RDKit          3D

 45 48  0  0  0  0  0  0  0  0999 V2000
   34.8210   29.3310   48.8660 C   0  0  0  0  0  0  0  0  0  0  0  0
   37.5620   30.4150   48.5370 Cl  0  0  0  0  0  0  0  0  0  0  0  0
   36.4040   30.2620   47.2170 C   0  0  0  0  0  0  0  0  0  0  0  0
   36.7650   30.6630   45.9660 C   0  0  0  0  0  0  0  0  0  0  0  0
   35.8760   30.5520   44.9320 C   0  0  0  0  0  0  0  0  0  0  0  0
   34.6200   30.0310   45.1820 C   0  0  0  0  0  0  0  0  0  0  0  0
   34.3000   29.6340   46.4810 C   0  0  0  0  0  0  0  0  0  0  0  0
   35.1700   29.7370   47.5230 C   0  0  0  0  0  0  0  0  0  0  0  0
   39.7580   32.8280   46.0060 C   0  0  0  0  0  0  0  0  0  0  0  0
   40.6230   32.1110   45.1340 C   0  0  0  0  0  0  0  0  0  0  0  0
   40.1440   30.9230   44.5740 C   0  0  0  0  0  0  0  0  0  0  0  0
   38.8870   30.4970   44.8760 N   0  0  0  0  0  0  0  0  0  0  0  0
   38.0920   31.2130   45.7150 C   0  0  0  0  0  0  0  0  0  0  0  0
   38.5320   32.3510   46.2590 N   0  0  0  0  0  0  0  0  0  0  0  0
   41.0230   30.2320   43.7140 N   0  0  0  0  0  0  0  0  0  0  0  0
   34.0160   28.1330   49.0640 C   0  0  0  0  0  0  0  0  0  0  0  0
   32.7420   28.4310   49.4760 O   0  0  0  0  0  0  0  0  0  0  0  0
   32.2080   26.3970   47.8980 O   0  0  0  0  0  0  0  0  0  0  0  0
   31.6080   27.6230   48.5400 P   0  0  2  0  0  0  0  0  0  0  0  0
   31.0620   28.7440   47.3600 O   0  0  0  0  0  0  0  0  0  0  0  0
   30.2690   27.1740   49.4290 O   0  0  0  0  0  0  0  0  0  0  0  0
   29.0080   29.2720   49.2710 N   0  0  0  0  0  0  0  0  0  0  0  0
   29.0870   27.9130   49.3360 C   0  0  0  0  0  0  0  0  0  0  0  0
   27.8170   27.4700   49.2920 N   0  0  0  0  0  0  0  0  0  0  0  0
   26.9450   28.4840   49.2020 C   0  0  0  0  0  0  0  0  0  0  0  0
   25.5620   28.4890   49.1320 C   0  0  0  0  0  0  0  0  0  0  0  0
   24.9360   29.6760   49.0460 N   0  0  0  0  0  0  0  0  0  0  0  0
   25.6900   30.8000   49.0340 C   0  0  0  0  0  0  0  0  0  0  0  0
   27.0300   30.7920   49.1010 N   0  0  0  0  0  0  0  0  0  0  0  0
   27.7160   29.6410   49.1880 C   0  0  0  0  0  0  0  0  0  0  0  0
   34.2688   30.1669   49.3203 H   0  0  0  0  0  0  0  0  0  0  0  0
   35.7893   29.0709   49.3185 H   0  0  0  0  0  0  0  0  0  0  0  0
   36.1561   30.8723   43.9176 H   0  0  0  0  0  0  0  0  0  0  0  0
   33.8847   29.9310   44.3700 H   0  0  0  0  0  0  0  0  0  0  0  0
   33.2993   29.2190   46.6716 H   0  0  0  0  0  0  0  0  0  0  0  0
   40.0933   33.7676   46.4694 H   0  0  0  0  0  0  0  0  0  0  0  0
   41.6347   32.4788   44.9078 H   0  0  0  0  0  0  0  0  0  0  0  0
   41.9629   30.6094   43.5268 H   0  0  0  0  0  0  0  0  0  0  0  0
   40.7249   29.3501   43.2733 H   0  0  0  0  0  0  0  0  0  0  0  0
   33.9618   27.5808   48.1142 H   0  0  0  0  0  0  0  0  0  0  0  0
   34.4940   27.5290   49.8493 H   0  0  0  0  0  0  0  0  0  0  0  0
   30.6761   29.5363   47.8111 H   0  0  0  0  0  0  0  0  0  0  0  0
   29.8115   29.9163   49.2834 H   0  0  0  0  0  0  0  0  0  0  0  0
   24.9916   27.5485   49.1463 H   0  0  0  0  0  0  0  0  0  0  0  0
   25.1773   31.7708   48.9657 H   0  0  0  0  0  0  0  0  0  0  0  0
  1 16  1  0
  3  8  2  0
  3  2  1  0
  4  3  1  0
  5  6  1  0
  5  4  2  0
  6  7  2  0
  7  8  1  0
  8  1  1  0
  9 14  2  0
 10  9  1  0
 11 12  1  0
 11 10  2  0
 12 13  2  0
 13  4  1  0
 13 14  1  0
 15 11  1  0
 16 17  1  0
 19 18  2  0
 19 21  1  0
 19 17  1  0
 20 19  1  0
 22 23  1  0
 23 21  1  0
 24 23  2  0
 25 24  1  0
 26 25  2  0
 27 26  1  0
 28 27  2  0
 28 29  1  0
 29 30  2  0
 30 25  1  0
 30 22  1  0
  1 31  1  0
  1 32  1  0
  5 33  1  0
  6 34  1  0
  7 35  1  0
  9 36  1  0
 10 37  1  0
 15 38  1  0
 15 39  1  0
 16 40  1  0
 16 41  1  0
 20 42  1  0
 22 43  1  0
 26 44  1  0
 28 45  1  0
M  ISO  8  31   8  32   8  33  14  34  14  35  14  36  14  37  14  40   8
M  ISO  5  41   8  42   3  43   9  44  14  45  14
M  END
>  <minimizedAffinity>  (1) 
-7.16954565

>  <minimizedRMSD>  (1) 
1.7298367

$$$$
