
     RDKit          3D

 40 44  0  0  1  0  0  0  0  0999 V2000
   34.6380   26.1030   41.9960 C   0  0  0  0  0  0  0  0  0  0  0  0
   35.2900   27.2950   42.5230 C   0  0  0  0  0  0  0  0  0  0  0  0
   36.4920   27.6770   42.0000 C   0  0  0  0  0  0  0  0  0  0  0  0
   37.0220   26.8940   40.9920 N   0  0  0  0  0  0  0  0  0  0  0  0
   36.4000   25.7910   40.5220 C   0  0  0  0  0  0  0  0  0  0  0  0
   35.2240   25.4090   41.0200 N   0  0  0  0  0  0  0  0  0  0  0  0
   37.0020   24.9910   39.5360 N   0  0  0  0  0  0  0  0  0  0  0  0
   37.2320   28.8140   42.4140 N   0  0  0  0  0  0  0  0  0  0  0  0
   36.7540   29.9780   42.9440 C   0  0  0  0  0  0  0  0  0  0  0  0
   37.8100   30.7830   43.1890 N   0  0  0  0  0  0  0  0  0  0  0  0
   38.9570   30.1700   42.8310 C   0  0  0  0  0  0  0  0  0  0  0  0
   40.3000   30.4650   42.8350 C   0  0  0  0  0  0  0  0  0  0  0  0
   41.2420   29.5980   42.3880 N   0  0  0  0  0  0  0  0  0  0  0  0
   40.8610   28.3950   41.9170 C   0  0  0  0  0  0  0  0  0  0  0  0
   39.5610   28.0690   41.8950 N   0  0  0  0  0  0  0  0  0  0  0  0
   38.5930   28.9230   42.3390 C   0  0  0  0  0  0  0  0  0  0  0  0
   34.6610   28.1460   43.5910 C   0  0  1  0  0  0  0  0  0  0  0  0
   33.2460   28.1010   43.8110 C   0  0  0  0  0  0  0  0  0  0  0  0
   34.1090   27.3610   44.8200 C   0  0  2  0  0  0  0  0  0  0  0  0
   34.1860   30.4490   45.1020 Cl  0  0  0  0  0  0  0  0  0  0  0  0
   34.1190   29.3620   46.4570 C   0  0  0  0  0  0  0  0  0  0  0  0
   34.1400   28.0270   46.1200 C   0  0  0  0  0  0  0  0  0  0  0  0
   34.0960   27.1370   47.1880 C   0  0  0  0  0  0  0  0  0  0  0  0
   34.0370   27.5690   48.5170 C   0  0  0  0  0  0  0  0  0  0  0  0
   34.0210   28.9540   48.7940 C   0  0  0  0  0  0  0  0  0  0  0  0
   33.9770   29.6170   50.4160 Cl  0  0  0  0  0  0  0  0  0  0  0  0
   34.0630   29.8470   47.7170 C   0  0  0  0  0  0  0  0  0  0  0  0
   33.6683   25.7778   42.4010 H   0  0  0  0  0  0  0  0  0  0  0  0
   36.5168   24.1524   39.1862 H   0  0  0  0  0  0  0  0  0  0  0  0
   37.9284   25.2432   39.1631 H   0  0  0  0  0  0  0  0  0  0  0  0
   35.6978   30.2171   43.1369 H   0  0  0  0  0  0  0  0  0  0  0  0
   40.6236   31.4447   43.2165 H   0  0  0  0  0  0  0  0  0  0  0  0
   41.6146   27.6820   41.5514 H   0  0  0  0  0  0  0  0  0  0  0  0
   35.3589   28.9781   43.4161 H   0  0  0  0  0  0  0  0  0  0  0  0
   32.7187   29.0156   44.1200 H   0  0  0  0  0  0  0  0  0  0  0  0
   32.3929   27.8029   43.1838 H   0  0  0  0  0  0  0  0  0  0  0  0
   34.2445   26.3436   45.2155 H   0  0  0  0  0  0  0  0  0  0  0  0
   34.1080   26.0568   46.9804 H   0  0  0  0  0  0  0  0  0  0  0  0
   34.0034   26.8377   49.3380 H   0  0  0  0  0  0  0  0  0  0  0  0
   34.0505   30.9325   47.8945 H   0  0  0  0  0  0  0  0  0  0  0  0
  1  2  2  0
  2 17  1  0
  3  8  1  0
  3  2  1  0
  4  3  2  0
  5  4  1  0
  5  6  2  0
  6  1  1  0
  7  5  1  0
  8  9  1  0
  9 10  2  0
 11 12  2  0
 11 10  1  0
 13 12  1  0
 14 13  2  0
 15 14  1  0
 15 16  2  0
 16  8  1  0
 16 11  1  0
 17 18  1  0
 17 19  1  0
 18 19  1  0
 19 22  1  0
 20 21  1  0
 21 27  2  0
 22 21  1  0
 22 23  2  0
 23 24  1  0
 24 25  2  0
 25 26  1  0
 27 25  1  0
  1 28  1  0
  7 29  1  0
  7 30  1  0
  9 31  1  0
 12 32  1  0
 14 33  1  0
 17 34  1  1
 18 35  1  0
 18 36  1  0
 19 37  1  1
 23 38  1  0
 24 39  1  0
 27 40  1  0
M  ISO  8  28  14  31  14  32  14  33  14  34  13  35  13  36  13  37  13
M  ISO  3  38  14  39  14  40  14
M  END
>  <minimizedAffinity>  (1) 
-4.19955826

>  <minimizedRMSD>  (1) 
5.30532074

$$$$
