
     RDKit          3D

 31 34  0  0  0  0  0  0  0  0999 V2000
   37.9550   30.1460   47.0250 Cl  0  0  0  0  0  0  0  0  0  0  0  0
   38.4470   31.6430   47.7930 C   0  0  0  0  0  0  0  0  0  0  0  0
   37.9860   31.9120   49.0510 C   0  0  0  0  0  0  0  0  0  0  0  0
   38.4160   33.1170   49.6010 C   0  0  0  0  0  0  0  0  0  0  0  0
   39.2590   33.9660   48.8850 C   0  0  0  0  0  0  0  0  0  0  0  0
   39.6960   33.6500   47.6210 C   0  0  0  0  0  0  0  0  0  0  0  0
   39.2760   32.4620   47.0720 C   0  0  0  0  0  0  0  0  0  0  0  0
   39.7160   32.1040   45.7510 N   0  0  0  0  0  0  0  0  0  0  0  0
   40.9280   31.6240   45.4360 C   0  0  0  0  0  0  0  0  0  0  0  0
   40.9440   31.4170   44.1110 N   0  0  0  0  0  0  0  0  0  0  0  0
   39.7360   31.7730   43.6180 C   0  0  0  0  0  0  0  0  0  0  0  0
   39.2810   31.7360   42.2970 C   0  0  0  0  0  0  0  0  0  0  0  0
   38.0150   32.1630   42.1300 N   0  0  0  0  0  0  0  0  0  0  0  0
   37.2310   32.5950   43.1340 C   0  0  0  0  0  0  0  0  0  0  0  0
   37.6760   32.6310   44.4240 N   0  0  0  0  0  0  0  0  0  0  0  0
   38.9310   32.2200   44.6650 C   0  0  0  0  0  0  0  0  0  0  0  0
   37.5520   30.3730   50.9640 C   0  0  0  0  0  0  0  0  0  0  0  0
   37.1020   31.0360   49.8160 C   0  0  0  0  0  0  0  0  0  0  0  0
   35.7760   30.8430   49.4080 C   0  0  0  0  0  0  0  0  0  0  0  0
   34.9880   30.0180   50.1510 N   0  0  0  0  0  0  0  0  0  0  0  0
   35.4550   29.3920   51.2570 C   0  0  0  0  0  0  0  0  0  0  0  0
   36.7400   29.5720   51.6630 N   0  0  0  0  0  0  0  0  0  0  0  0
   38.0870   33.4021   50.6112 H   0  0  0  0  0  0  0  0  0  0  0  0
   39.5823   34.9123   49.3433 H   0  0  0  0  0  0  0  0  0  0  0  0
   40.3616   34.3271   47.0656 H   0  0  0  0  0  0  0  0  0  0  0  0
   41.7559   31.4350   46.1351 H   0  0  0  0  0  0  0  0  0  0  0  0
   39.9061   31.3866   41.4620 H   0  0  0  0  0  0  0  0  0  0  0  0
   36.2066   32.9273   42.9101 H   0  0  0  0  0  0  0  0  0  0  0  0
   38.5910   30.5131   51.2969 H   0  0  0  0  0  0  0  0  0  0  0  0
   35.3820   31.3444   48.5117 H   0  0  0  0  0  0  0  0  0  0  0  0
   34.7889   28.7320   51.8321 H   0  0  0  0  0  0  0  0  0  0  0  0
  1  2  1  0
  2  3  2  0
  3  4  1  0
  3 18  1  0
  5  4  2  0
  6  5  1  0
  7  6  2  0
  7  2  1  0
  8  7  1  0
  9  8  1  0
 10  9  2  0
 11 10  1  0
 11 16  2  0
 12 11  1  0
 13 12  2  0
 13 14  1  0
 14 15  2  0
 15 16  1  0
 16  8  1  0
 17 22  2  0
 18 17  1  0
 19 18  2  0
 19 20  1  0
 20 21  2  0
 21 22  1  0
  4 23  1  0
  5 24  1  0
  6 25  1  0
  9 26  1  0
 12 27  1  0
 14 28  1  0
 17 29  1  0
 19 30  1  0
 21 31  1  0
M  ISO  8  23  14  24  14  25  14  26  14  27  14  28  14  29  14  30  14
M  ISO  1  31  14
M  END
>  <minimizedAffinity>  (1) 
-6.70783806

>  <minimizedRMSD>  (1) 
0.899228275

$$$$
