
     RDKit          3D

 37 40  0  0  1  0  0  0  0  0999 V2000
   38.5460   31.9460   46.9290 C   0  0  1  0  0  0  0  0  0  0  0  0
   39.6640   32.6190   46.1510 C   0  0  0  0  0  0  0  0  0  0  0  0
   39.5710   31.1540   46.2240 C   0  0  2  0  0  0  0  0  0  0  0  0
   38.6100   32.1320   48.4280 C   0  0  0  0  0  0  0  0  0  0  0  0
   37.3180   29.9920   51.2140 C   0  0  0  0  0  0  0  0  0  0  0  0
   38.0450   30.9960   50.4830 C   0  0  0  0  0  0  0  0  0  0  0  0
   37.8400   31.0850   49.1300 C   0  0  0  0  0  0  0  0  0  0  0  0
   36.9770   30.2440   48.5340 N   0  0  0  0  0  0  0  0  0  0  0  0
   36.2990   29.3030   49.2290 C   0  0  0  0  0  0  0  0  0  0  0  0
   36.4800   29.1960   50.5430 N   0  0  0  0  0  0  0  0  0  0  0  0
   39.1030   30.3010   45.0920 C   0  0  0  0  0  0  0  0  0  0  0  0
   39.8830   30.5380   43.8050 C   0  0  0  0  0  0  0  0  0  0  0  0
   39.8000   29.2820   43.0460 N   0  0  0  0  0  0  0  0  0  0  0  0
   39.1290   28.1370   43.2620 C   0  0  0  0  0  0  0  0  0  0  0  0
   39.3910   27.2840   42.2610 N   0  0  0  0  0  0  0  0  0  0  0  0
   40.2330   27.8620   41.3820 C   0  0  0  0  0  0  0  0  0  0  0  0
   40.8380   27.5010   40.2010 C   0  0  0  0  0  0  0  0  0  0  0  0
   41.6690   28.3240   39.5140 N   0  0  0  0  0  0  0  0  0  0  0  0
   41.8930   29.5440   40.0340 C   0  0  0  0  0  0  0  0  0  0  0  0
   41.3180   29.9330   41.1860 N   0  0  0  0  0  0  0  0  0  0  0  0
   40.4890   29.1360   41.8900 C   0  0  0  0  0  0  0  0  0  0  0  0
   37.4462   31.9244   46.9280 H   0  0  0  0  0  0  0  0  0  0  0  0
   40.4670   33.1489   46.6844 H   0  0  0  0  0  0  0  0  0  0  0  0
   39.7176   33.3608   45.3406 H   0  0  0  0  0  0  0  0  0  0  0  0
   40.3198   30.3917   46.4854 H   0  0  0  0  0  0  0  0  0  0  0  0
   39.6603   32.0823   48.7511 H   0  0  0  0  0  0  0  0  0  0  0  0
   38.1735   33.1107   48.6763 H   0  0  0  0  0  0  0  0  0  0  0  0
   37.4491   29.8822   52.3006 H   0  0  0  0  0  0  0  0  0  0  0  0
   38.7451   31.6727   50.9949 H   0  0  0  0  0  0  0  0  0  0  0  0
   35.6011   28.6291   48.7107 H   0  0  0  0  0  0  0  0  0  0  0  0
   39.2141   29.2451   45.3797 H   0  0  0  0  0  0  0  0  0  0  0  0
   38.0537   30.5647   44.8937 H   0  0  0  0  0  0  0  0  0  0  0  0
   39.4334   31.3620   43.2315 H   0  0  0  0  0  0  0  0  0  0  0  0
   40.9269   30.8168   44.0112 H   0  0  0  0  0  0  0  0  0  0  0  0
   38.4719   27.9331   44.1203 H   0  0  0  0  0  0  0  0  0  0  0  0
   40.6388   26.4984   39.7946 H   0  0  0  0  0  0  0  0  0  0  0  0
   42.5615   30.2393   39.5052 H   0  0  0  0  0  0  0  0  0  0  0  0
  1  4  1  0
  2  3  1  0
  2  1  1  0
  3  1  1  0
  4  7  1  0
  6  5  2  0
  7  6  1  0
  8  7  2  0
  8  9  1  0
  9 10  2  0
 10  5  1  0
 11  3  1  0
 12 11  1  0
 13 14  1  0
 13 12  1  0
 15 14  2  0
 16 21  2  0
 16 15  1  0
 17 16  1  0
 18 19  1  0
 18 17  2  0
 19 20  2  0
 20 21  1  0
 21 13  1  0
  1 22  1  6
  2 23  1  0
  2 24  1  0
  3 25  1  1
  4 26  1  0
  4 27  1  0
  5 28  1  0
  6 29  1  0
  9 30  1  0
 11 31  1  0
 11 32  1  0
 12 33  1  0
 12 34  1  0
 14 35  1  0
 17 36  1  0
 19 37  1  0
M  ISO  8  22  13  23  13  24  13  25  13  26   8  27   8  28  14  29  14
M  ISO  8  30  14  31   8  32   8  33   8  34   8  35  14  36  14  37  14
M  END
>  <minimizedAffinity>  (1) 
-5.46278286

>  <minimizedRMSD>  (1) 
0.64337182

$$$$
