
     RDKit          3D

 52 56  0  0  0  0  0  0  0  0999 V2000
   35.2120   30.8530   49.7270 C   0  0  0  0  0  0  0  0  0  0  0  0
   33.6900   28.6690   50.4210 F   0  0  0  0  0  0  0  0  0  0  0  0
   33.8400   28.9750   49.1020 C   0  0  0  0  0  0  0  0  0  0  0  0
   34.5840   30.0530   48.6250 C   0  0  0  0  0  0  0  0  0  0  0  0
   34.7010   30.3140   47.2880 C   0  0  0  0  0  0  0  0  0  0  0  0
   34.0630   29.4880   46.3400 C   0  0  0  0  0  0  0  0  0  0  0  0
   33.3210   28.4150   46.7960 C   0  0  0  0  0  0  0  0  0  0  0  0
   33.2200   28.1740   48.1610 C   0  0  0  0  0  0  0  0  0  0  0  0
   32.4580   27.0800   48.5120 O   0  0  0  0  0  0  0  0  0  0  0  0
   31.1000   27.2930   48.7180 C   0  0  0  0  0  0  0  0  0  0  0  0
   30.5810   28.0250   49.7260 N   0  0  0  0  0  0  0  0  0  0  0  0
   29.2470   28.1930   49.8690 C   0  0  0  0  0  0  0  0  0  0  0  0
   28.4110   27.6060   48.9710 N   0  0  0  0  0  0  0  0  0  0  0  0
   28.8460   26.8620   47.9400 C   0  0  0  0  0  0  0  0  0  0  0  0
   27.9560   26.2870   47.0540 C   0  0  0  0  0  0  0  0  0  0  0  0
   28.4260   25.5270   46.0030 C   0  0  0  0  0  0  0  0  0  0  0  0
   29.7880   25.3600   45.8640 C   0  0  0  0  0  0  0  0  0  0  0  0
   30.6770   25.9350   46.7480 C   0  0  0  0  0  0  0  0  0  0  0  0
   30.2280   26.7100   47.8220 C   0  0  0  0  0  0  0  0  0  0  0  0
   36.8950   30.2110   49.9550 S   0  0  0  0  0  0  0  0  0  0  0  0
   39.1280   32.8690   47.9110 C   0  0  0  0  0  0  0  0  0  0  0  0
   39.3570   32.1830   46.7250 C   0  0  0  0  0  0  0  0  0  0  0  0
   38.8140   30.9340   46.6060 C   0  0  0  0  0  0  0  0  0  0  0  0
   38.0900   30.4350   47.6410 N   0  0  0  0  0  0  0  0  0  0  0  0
   37.8930   31.1100   48.7460 C   0  0  0  0  0  0  0  0  0  0  0  0
   38.4100   32.3730   48.9320 N   0  0  0  0  0  0  0  0  0  0  0  0
   40.0990   32.7890   45.7610 O   0  0  0  0  0  0  0  0  0  0  0  0
   40.0830   32.2960   44.4650 C   0  0  0  0  0  0  0  0  0  0  0  0
   40.6360   31.1080   44.0170 C   0  0  0  0  0  0  0  0  0  0  0  0
   40.5260   30.7830   42.7130 C   0  0  0  0  0  0  0  0  0  0  0  0
   39.8670   31.6390   41.8720 C   0  0  0  0  0  0  0  0  0  0  0  0
   39.3190   32.8250   42.3410 C   0  0  0  0  0  0  0  0  0  0  0  0
   39.4420   33.1330   43.6540 N   0  0  0  0  0  0  0  0  0  0  0  0
   38.5930   33.7580   41.3780 C   0  0  0  0  0  0  0  0  0  0  0  0
   34.6339   30.7361   50.6555 H   0  0  0  0  0  0  0  0  0  0  0  0
   35.2307   31.9233   49.4740 H   0  0  0  0  0  0  0  0  0  0  0  0
   35.2970   31.1744   46.9496 H   0  0  0  0  0  0  0  0  0  0  0  0
   34.1537   29.6928   45.2630 H   0  0  0  0  0  0  0  0  0  0  0  0
   32.8115   27.7532   46.0802 H   0  0  0  0  0  0  0  0  0  0  0  0
   28.8447   28.7943   50.6976 H   0  0  0  0  0  0  0  0  0  0  0  0
   26.8740   26.4349   47.1862 H   0  0  0  0  0  0  0  0  0  0  0  0
   27.7284   25.0634   45.2900 H   0  0  0  0  0  0  0  0  0  0  0  0
   30.1736   24.7551   45.0301 H   0  0  0  0  0  0  0  0  0  0  0  0
   31.7569   25.7815   46.6059 H   0  0  0  0  0  0  0  0  0  0  0  0
   39.5590   33.8752   48.0201 H   0  0  0  0  0  0  0  0  0  0  0  0
   38.9608   30.3443   45.6891 H   0  0  0  0  0  0  0  0  0  0  0  0
   41.1583   30.4381   44.7159 H   0  0  0  0  0  0  0  0  0  0  0  0
   40.9583   29.8462   42.3315 H   0  0  0  0  0  0  0  0  0  0  0  0
   39.7701   31.3826   40.8067 H   0  0  0  0  0  0  0  0  0  0  0  0
   38.0162   34.4993   41.9505 H   0  0  0  0  0  0  0  0  0  0  0  0
   39.3284   34.2755   40.7444 H   0  0  0  0  0  0  0  0  0  0  0  0
   37.9107   33.1723   40.7444 H   0  0  0  0  0  0  0  0  0  0  0  0
  1 20  1  0
  3  2  1  0
  4  3  2  0
  4  1  1  0
  5  4  1  0
  6  7  1  0
  6  5  2  0
  7  8  2  0
  8  9  1  0
  8  3  1  0
  9 10  1  0
 10 11  2  0
 11 12  1  0
 13 12  2  0
 14 13  1  0
 15 14  2  0
 16 15  1  0
 17 16  2  0
 17 18  1  0
 18 19  2  0
 19 14  1  0
 19 10  1  0
 21 26  2  0
 22 21  1  0
 23 22  2  0
 23 24  1  0
 24 25  2  0
 25 26  1  0
 25 20  1  0
 27 22  1  0
 28 27  1  0
 29 28  2  0
 30 29  1  0
 31 32  1  0
 31 30  2  0
 32 33  2  0
 33 28  1  0
 34 32  1  0
  1 35  1  0
  1 36  1  0
  5 37  1  0
  6 38  1  0
  7 39  1  0
 12 40  1  0
 15 41  1  0
 16 42  1  0
 17 43  1  0
 18 44  1  0
 21 45  1  0
 23 46  1  0
 29 47  1  0
 30 48  1  0
 31 49  1  0
 34 50  1  0
 34 51  1  0
 34 52  1  0
M  ISO  8  35   8  36   8  37  14  38  14  39  14  40  14  41  14  42  14
M  ISO  8  43  14  44  14  45  14  46  14  47  14  48  14  49  14  50   8
M  ISO  2  51   8  52   8
M  END
>  <minimizedAffinity>  (1) 
-6.96738338

>  <minimizedRMSD>  (1) 
1.78458965

$$$$
