
     RDKit          3D

 37 40  0  0  0  0  0  0  0  0999 V2000
   32.5970   27.9520   48.6210 C   0  0  0  0  0  0  0  0  0  0  0  0
   32.2980   26.6930   48.1400 C   0  0  0  0  0  0  0  0  0  0  0  0
   30.9900   26.3620   48.4590 C   0  0  0  0  0  0  0  0  0  0  0  0
   30.5240   27.4510   49.1390 N   0  0  0  0  0  0  0  0  0  0  0  0
   31.4720   28.3900   49.2350 N   0  0  0  0  0  0  0  0  0  0  0  0
   29.2200   27.6330   49.6990 C   0  0  0  0  0  0  0  0  0  0  0  0
   28.9970   26.8740   50.8110 N   0  0  0  0  0  0  0  0  0  0  0  0
   27.7860   26.9620   51.4340 C   0  0  0  0  0  0  0  0  0  0  0  0
   26.7880   27.7760   50.9940 N   0  0  0  0  0  0  0  0  0  0  0  0
   27.0440   28.5150   49.8870 C   0  0  0  0  0  0  0  0  0  0  0  0
   26.0480   29.3550   49.4110 C   0  0  0  0  0  0  0  0  0  0  0  0
   26.3310   30.1050   48.2760 C   0  0  0  0  0  0  0  0  0  0  0  0
   27.5360   30.0360   47.6320 C   0  0  0  0  0  0  0  0  0  0  0  0
   28.5490   29.1970   48.0950 C   0  0  0  0  0  0  0  0  0  0  0  0
   28.2450   28.4730   49.2090 C   0  0  0  0  0  0  0  0  0  0  0  0
   33.9040   28.6630   48.4780 C   0  0  0  0  0  0  0  0  0  0  0  0
   34.8190   28.0890   49.5220 C   0  0  0  0  0  0  0  0  0  0  0  0
   37.2650   30.2560   51.2630 C   0  0  0  0  0  0  0  0  0  0  0  0
   37.9750   30.8200   50.1980 C   0  0  0  0  0  0  0  0  0  0  0  0
   37.6100   30.4550   48.9010 C   0  0  0  0  0  0  0  0  0  0  0  0
   36.5960   29.5780   48.7170 N   0  0  0  0  0  0  0  0  0  0  0  0
   35.9310   29.0520   49.7820 C   0  0  0  0  0  0  0  0  0  0  0  0
   36.2670   29.3920   51.0240 N   0  0  0  0  0  0  0  0  0  0  0  0
   32.9949   26.0475   47.5853 H   0  0  0  0  0  0  0  0  0  0  0  0
   30.4505   25.4339   48.2191 H   0  0  0  0  0  0  0  0  0  0  0  0
   27.6090   26.3489   52.3300 H   0  0  0  0  0  0  0  0  0  0  0  0
   25.0716   29.4247   49.9128 H   0  0  0  0  0  0  0  0  0  0  0  0
   25.5572   30.7794   47.8805 H   0  0  0  0  0  0  0  0  0  0  0  0
   27.7082   30.6510   46.7364 H   0  0  0  0  0  0  0  0  0  0  0  0
   29.5263   29.1245   47.5955 H   0  0  0  0  0  0  0  0  0  0  0  0
   34.3203   28.4945   47.4739 H   0  0  0  0  0  0  0  0  0  0  0  0
   33.7825   29.7484   48.6092 H   0  0  0  0  0  0  0  0  0  0  0  0
   34.2557   27.9176   50.4511 H   0  0  0  0  0  0  0  0  0  0  0  0
   35.2324   27.1335   49.1668 H   0  0  0  0  0  0  0  0  0  0  0  0
   37.5254   30.5214   52.2983 H   0  0  0  0  0  0  0  0  0  0  0  0
   38.7961   31.5297   50.3771 H   0  0  0  0  0  0  0  0  0  0  0  0
   38.1423   30.8768   48.0357 H   0  0  0  0  0  0  0  0  0  0  0  0
  1  5  2  0
  2  3  2  0
  2  1  1  0
  3  4  1  0
  4  5  1  0
  4  6  1  0
  6  7  2  0
  7  8  1  0
  9  8  2  0
 10  9  1  0
 11 10  2  0
 12 11  1  0
 13 14  1  0
 13 12  2  0
 14 15  2  0
 15  6  1  0
 15 10  1  0
 16  1  1  0
 16 17  1  0
 17 22  1  0
 19 18  2  0
 20 19  1  0
 21 20  2  0
 21 22  1  0
 22 23  2  0
 23 18  1  0
  2 24  1  0
  3 25  1  0
  8 26  1  0
 11 27  1  0
 12 28  1  0
 13 29  1  0
 14 30  1  0
 16 31  1  0
 16 32  1  0
 17 33  1  0
 17 34  1  0
 18 35  1  0
 19 36  1  0
 20 37  1  0
M  ISO  8  24  14  25  14  26  14  27  14  28  14  29  14  30  14  31   8
M  ISO  6  32   8  33   8  34   8  35  14  36  14  37  14
M  END
>  <minimizedAffinity>  (1) 
-7.00628281

>  <minimizedRMSD>  (1) 
3.92311978

$$$$
