
     RDKit          3D

 31 33  0  0  0  0  0  0  0  0999 V2000
   31.6320   27.0890   48.4850 C   0  0  0  0  0  0  0  0  0  0  0  0
   30.3940   27.8660   48.2860 C   0  0  0  0  0  0  0  0  0  0  0  0
   30.2120   28.6180   47.1740 N   0  0  0  0  0  0  0  0  0  0  0  0
   29.1150   29.3180   46.9250 C   0  0  0  0  0  0  0  0  0  0  0  0
   28.0950   29.3080   47.8020 N   0  0  0  0  0  0  0  0  0  0  0  0
   28.1680   28.6010   48.9310 C   0  0  0  0  0  0  0  0  0  0  0  0
   27.1090   28.6200   49.8090 C   0  0  0  0  0  0  0  0  0  0  0  0
   27.2530   27.8740   50.9600 C   0  0  0  0  0  0  0  0  0  0  0  0
   28.3910   27.1320   51.2510 C   0  0  0  0  0  0  0  0  0  0  0  0
   29.4140   27.1610   50.3220 C   0  0  0  0  0  0  0  0  0  0  0  0
   29.3230   27.8890   49.1530 C   0  0  0  0  0  0  0  0  0  0  0  0
   32.8690   27.9120   48.3520 C   0  0  0  0  0  0  0  0  0  0  0  0
   33.1750   28.5500   49.5830 O   0  0  0  0  0  0  0  0  0  0  0  0
   36.3300   29.5300   51.0460 C   0  0  0  0  0  0  0  0  0  0  0  0
   37.0600   29.8120   49.8920 C   0  0  0  0  0  0  0  0  0  0  0  0
   36.4270   29.6490   48.6530 C   0  0  0  0  0  0  0  0  0  0  0  0
   35.1270   29.2230   48.6760 N   0  0  0  0  0  0  0  0  0  0  0  0
   34.4630   28.9640   49.8070 C   0  0  0  0  0  0  0  0  0  0  0  0
   35.0810   29.1230   50.9950 N   0  0  0  0  0  0  0  0  0  0  0  0
   31.6109   26.6496   49.4932 H   0  0  0  0  0  0  0  0  0  0  0  0
   31.6650   26.3192   47.6999 H   0  0  0  0  0  0  0  0  0  0  0  0
   29.0382   29.9081   45.9999 H   0  0  0  0  0  0  0  0  0  0  0  0
   26.1965   29.1991   49.6040 H   0  0  0  0  0  0  0  0  0  0  0  0
   26.4251   27.8661   51.6842 H   0  0  0  0  0  0  0  0  0  0  0  0
   28.4741   26.5476   52.1792 H   0  0  0  0  0  0  0  0  0  0  0  0
   30.3301   26.5854   50.5207 H   0  0  0  0  0  0  0  0  0  0  0  0
   33.7076   27.2615   48.0629 H   0  0  0  0  0  0  0  0  0  0  0  0
   32.7042   28.6813   47.5832 H   0  0  0  0  0  0  0  0  0  0  0  0
   36.8129   29.6515   52.0269 H   0  0  0  0  0  0  0  0  0  0  0  0
   38.1040   30.1530   49.9528 H   0  0  0  0  0  0  0  0  0  0  0  0
   36.9499   29.8536   47.7071 H   0  0  0  0  0  0  0  0  0  0  0  0
  2  1  1  0
  2 11  1  0
  3  2  2  0
  4  3  1  0
  4  5  2  0
  5  6  1  0
  6 11  2  0
  6  7  1  0
  7  8  2  0
  8  9  1  0
 10  9  2  0
 11 10  1  0
 12  1  1  0
 12 13  1  0
 13 18  1  0
 15 14  2  0
 16 17  2  0
 16 15  1  0
 17 18  1  0
 18 19  2  0
 19 14  1  0
  1 20  1  0
  1 21  1  0
  4 22  1  0
  7 23  1  0
  8 24  1  0
  9 25  1  0
 10 26  1  0
 12 27  1  0
 12 28  1  0
 14 29  1  0
 15 30  1  0
 16 31  1  0
M  ISO  8  20   8  21   8  22  14  23  14  24  14  25  14  26  14  27   8
M  ISO  4  28   8  29  14  30  14  31  14
M  END
>  <minimizedAffinity>  (1) 
-5.5356226

>  <minimizedRMSD>  (1) 
4.33174992

$$$$
