
     RDKit          3D

 51 54  0  0  0  0  0  0  0  0999 V2000
   34.6440   29.4380   48.8800 C   0  0  0  0  0  0  0  0  0  0  0  0
   37.4110   30.5190   48.6650 Cl  0  0  0  0  0  0  0  0  0  0  0  0
   36.3190   30.3160   47.2920 C   0  0  0  0  0  0  0  0  0  0  0  0
   36.7440   30.6670   46.0590 C   0  0  0  0  0  0  0  0  0  0  0  0
   35.9010   30.5170   44.9770 C   0  0  0  0  0  0  0  0  0  0  0  0
   34.6250   30.0020   45.1840 C   0  0  0  0  0  0  0  0  0  0  0  0
   34.2590   29.6590   46.5010 C   0  0  0  0  0  0  0  0  0  0  0  0
   35.0710   29.8030   47.5620 C   0  0  0  0  0  0  0  0  0  0  0  0
   39.7450   32.8000   46.2480 C   0  0  0  0  0  0  0  0  0  0  0  0
   40.6210   32.1060   45.3430 C   0  0  0  0  0  0  0  0  0  0  0  0
   40.1380   30.9480   44.7170 C   0  0  0  0  0  0  0  0  0  0  0  0
   38.8760   30.5320   44.9900 N   0  0  0  0  0  0  0  0  0  0  0  0
   38.0750   31.2080   45.8460 C   0  0  0  0  0  0  0  0  0  0  0  0
   38.5120   32.3210   46.4610 N   0  0  0  0  0  0  0  0  0  0  0  0
   41.0230   30.3030   43.8450 N   0  0  0  0  0  0  0  0  0  0  0  0
   34.0140   28.1350   49.1140 C   0  0  0  0  0  0  0  0  0  0  0  0
   32.6640   28.2610   49.3090 O   0  0  0  0  0  0  0  0  0  0  0  0
   32.7390   26.3080   47.5630 O   0  0  0  0  0  0  0  0  0  0  0  0
   31.8240   27.2830   48.2610 P   0  0  2  0  0  0  0  0  0  0  0  0
   31.0970   28.3240   47.0820 O   0  0  0  0  0  0  0  0  0  0  0  0
   30.2810   27.7220   46.1330 C   0  0  0  0  0  0  0  0  0  0  0  0
   30.5150   26.5650   45.4890 N   0  0  0  0  0  0  0  0  0  0  0  0
   29.6280   26.1230   44.6030 C   0  0  0  0  0  0  0  0  0  0  0  0
   28.4920   26.7900   44.3180 N   0  0  0  0  0  0  0  0  0  0  0  0
   28.2020   27.9580   44.9320 C   0  0  0  0  0  0  0  0  0  0  0  0
   27.0310   28.6180   44.6210 C   0  0  0  0  0  0  0  0  0  0  0  0
   26.7700   29.8050   45.2660 C   0  0  0  0  0  0  0  0  0  0  0  0
   27.6440   30.3260   46.1970 C   0  0  0  0  0  0  0  0  0  0  0  0
   28.8050   29.6360   46.4840 C   0  0  0  0  0  0  0  0  0  0  0  0
   29.1180   28.4450   45.8690 C   0  0  0  0  0  0  0  0  0  0  0  0
   30.5710   26.4680   48.9690 O   0  0  0  0  0  0  0  0  0  0  0  0
   29.8300   27.3010   49.7730 C   0  0  0  0  0  0  0  0  0  0  0  0
   29.3630   26.6600   50.9200 F   0  0  0  0  0  0  0  0  0  0  0  0
   30.5790   28.3750   50.2250 F   0  0  0  0  0  0  0  0  0  0  0  0
   28.7350   27.7750   49.0660 F   0  0  0  0  0  0  0  0  0  0  0  0
   33.9213   30.2021   49.2022 H   0  0  0  0  0  0  0  0  0  0  0  0
   35.5882   29.3654   49.4396 H   0  0  0  0  0  0  0  0  0  0  0  0
   36.2323   30.8000   43.9670 H   0  0  0  0  0  0  0  0  0  0  0  0
   33.9246   29.8670   44.3467 H   0  0  0  0  0  0  0  0  0  0  0  0
   33.2518   29.2503   46.6700 H   0  0  0  0  0  0  0  0  0  0  0  0
   40.0832   33.7133   46.7593 H   0  0  0  0  0  0  0  0  0  0  0  0
   41.6395   32.4726   45.1477 H   0  0  0  0  0  0  0  0  0  0  0  0
   41.9670   30.6860   43.6930 H   0  0  0  0  0  0  0  0  0  0  0  0
   40.7302   29.4454   43.3554 H   0  0  0  0  0  0  0  0  0  0  0  0
   34.1909   27.4898   48.2408 H   0  0  0  0  0  0  0  0  0  0  0  0
   34.4553   27.6945   50.0202 H   0  0  0  0  0  0  0  0  0  0  0  0
   29.8291   25.1754   44.0818 H   0  0  0  0  0  0  0  0  0  0  0  0
   26.3282   28.2081   43.8807 H   0  0  0  0  0  0  0  0  0  0  0  0
   25.8435   30.3506   45.0339 H   0  0  0  0  0  0  0  0  0  0  0  0
   27.4196   31.2765   46.7031 H   0  0  0  0  0  0  0  0  0  0  0  0
   29.5016   30.0510   47.2273 H   0  0  0  0  0  0  0  0  0  0  0  0
  1 16  1  0
  3  8  2  0
  3  2  1  0
  4  3  1  0
  5  6  1  0
  5  4  2  0
  6  7  2  0
  7  8  1  0
  8  1  1  0
  9 14  2  0
 10  9  1  0
 11 12  1  0
 11 10  2  0
 12 13  2  0
 13  4  1  0
 13 14  1  0
 15 11  1  0
 16 17  1  0
 19 18  2  0
 19 31  1  0
 19 17  1  0
 20 19  1  0
 21 20  1  0
 22 21  2  0
 23 22  1  0
 24 23  2  0
 24 25  1  0
 25 30  2  0
 26 25  1  0
 26 27  2  0
 27 28  1  0
 28 29  2  0
 30 21  1  0
 30 29  1  0
 31 32  1  0
 32 34  1  0
 32 33  1  0
 35 32  1  0
  1 36  1  0
  1 37  1  0
  5 38  1  0
  6 39  1  0
  7 40  1  0
  9 41  1  0
 10 42  1  0
 15 43  1  0
 15 44  1  0
 16 45  1  0
 16 46  1  0
 23 47  1  0
 26 48  1  0
 27 49  1  0
 28 50  1  0
 29 51  1  0
M  ISO  8  36   8  37   8  38  14  39  14  40  14  41  14  42  14  45   8
M  ISO  6  46   8  47  14  48  14  49  14  50  14  51  14
M  END
>  <minimizedAffinity>  (1) 
-6.28309679

>  <minimizedRMSD>  (1) 
0.580615044

$$$$
