
     RDKit          3D

 40 43  0  0  1  0  0  0  0  0999 V2000
   38.5530   31.8240   46.8860 C   0  0  1  0  0  0  0  0  0  0  0  0
   39.6040   32.5240   46.0400 C   0  0  0  0  0  0  0  0  0  0  0  0
   39.5630   31.0420   46.1450 C   0  0  2  0  0  0  0  0  0  0  0  0
   38.6830   32.0440   48.3680 C   0  0  0  0  0  0  0  0  0  0  0  0
   37.3710   30.0900   51.2760 C   0  0  0  0  0  0  0  0  0  0  0  0
   38.0920   31.0460   50.5030 C   0  0  0  0  0  0  0  0  0  0  0  0
   37.9180   31.0360   49.1440 C   0  0  0  0  0  0  0  0  0  0  0  0
   37.0930   30.1460   48.5980 N   0  0  0  0  0  0  0  0  0  0  0  0
   36.4180   29.2470   49.3400 C   0  0  0  0  0  0  0  0  0  0  0  0
   36.5630   29.2270   50.6770 N   0  0  0  0  0  0  0  0  0  0  0  0
   39.0130   30.1920   45.0260 C   0  0  0  0  0  0  0  0  0  0  0  0
   39.7230   30.4000   43.7150 C   0  0  0  0  0  0  0  0  0  0  0  0
   39.7200   29.1030   42.9890 C   0  0  0  0  0  0  0  0  0  0  0  0
   39.1120   27.9650   43.4070 N   0  0  0  0  0  0  0  0  0  0  0  0
   39.1520   26.8340   42.6980 C   0  0  0  0  0  0  0  0  0  0  0  0
   39.8210   26.8410   41.5310 N   0  0  0  0  0  0  0  0  0  0  0  0
   40.4510   27.9470   41.0560 C   0  0  0  0  0  0  0  0  0  0  0  0
   41.0890   27.7860   39.8500 C   0  0  0  0  0  0  0  0  0  0  0  0
   41.7380   28.9020   39.3440 C   0  0  0  0  0  0  0  0  0  0  0  0
   41.7130   30.0960   40.0640 C   0  0  0  0  0  0  0  0  0  0  0  0
   41.0590   30.2210   41.2760 C   0  0  0  0  0  0  0  0  0  0  0  0
   40.4030   29.1160   41.7990 C   0  0  0  0  0  0  0  0  0  0  0  0
   37.4559   31.7660   46.9407 H   0  0  0  0  0  0  0  0  0  0  0  0
   40.4145   33.0905   46.5218 H   0  0  0  0  0  0  0  0  0  0  0  0
   39.5902   33.2529   45.2163 H   0  0  0  0  0  0  0  0  0  0  0  0
   40.3441   30.3048   46.3825 H   0  0  0  0  0  0  0  0  0  0  0  0
   39.7451   31.9765   48.6462 H   0  0  0  0  0  0  0  0  0  0  0  0
   38.2752   33.0382   48.6032 H   0  0  0  0  0  0  0  0  0  0  0  0
   37.4852   30.0684   52.3698 H   0  0  0  0  0  0  0  0  0  0  0  0
   38.7674   31.7696   50.9827 H   0  0  0  0  0  0  0  0  0  0  0  0
   35.7458   28.5267   48.8508 H   0  0  0  0  0  0  0  0  0  0  0  0
   39.1099   29.1341   45.3114 H   0  0  0  0  0  0  0  0  0  0  0  0
   37.9638   30.4875   44.8784 H   0  0  0  0  0  0  0  0  0  0  0  0
   39.1979   31.1629   43.1214 H   0  0  0  0  0  0  0  0  0  0  0  0
   40.7539   30.7439   43.8854 H   0  0  0  0  0  0  0  0  0  0  0  0
   38.6521   25.9227   43.0580 H   0  0  0  0  0  0  0  0  0  0  0  0
   41.0852   26.8247   39.3153 H   0  0  0  0  0  0  0  0  0  0  0  0
   42.2685   28.8459   38.3820 H   0  0  0  0  0  0  0  0  0  0  0  0
   42.2339   30.9727   39.6517 H   0  0  0  0  0  0  0  0  0  0  0  0
   41.0589   31.1794   41.8158 H   0  0  0  0  0  0  0  0  0  0  0  0
  1  4  1  0
  2  3  1  0
  2  1  1  0
  3  1  1  0
  4  7  1  0
  6  5  2  0
  7  6  1  0
  8  7  2  0
  8  9  1  0
  9 10  2  0
 10  5  1  0
 11  3  1  0
 12 11  1  0
 13 14  2  0
 13 12  1  0
 15 14  1  0
 16 15  2  0
 17 16  1  0
 17 22  2  0
 18 17  1  0
 19 18  2  0
 19 20  1  0
 20 21  2  0
 21 22  1  0
 22 13  1  0
  1 23  1  6
  2 24  1  0
  2 25  1  0
  3 26  1  1
  4 27  1  0
  4 28  1  0
  5 29  1  0
  6 30  1  0
  9 31  1  0
 11 32  1  0
 11 33  1  0
 12 34  1  0
 12 35  1  0
 15 36  1  0
 18 37  1  0
 19 38  1  0
 20 39  1  0
 21 40  1  0
M  ISO  8  23  13  24  13  25  13  26  13  27   8  28   8  29  14  30  14
M  ISO  8  31  14  32   8  33   8  34   8  35   8  36  14  37  14  38  14
M  ISO  2  39  14  40  14
M  END
>  <minimizedAffinity>  (1) 
-5.68930292

>  <minimizedRMSD>  (1) 
0.915070951

$$$$
