
     RDKit          3D

 52 57  0  0  0  0  0  0  0  0999 V2000
   39.2020   32.1780   42.5620 C   0  0  0  0  0  0  0  0  0  0  0  0
   39.7220   31.4700   43.6220 C   0  0  0  0  0  0  0  0  0  0  0  0
   40.6010   30.4450   43.4640 C   0  0  0  0  0  0  0  0  0  0  0  0
   41.0130   30.0720   42.1950 C   0  0  0  0  0  0  0  0  0  0  0  0
   41.8420   29.1340   41.7370 N   0  0  0  0  0  0  0  0  0  0  0  0
   41.8650   29.2240   40.4010 C   0  0  0  0  0  0  0  0  0  0  0  0
   41.0500   30.2210   40.0240 N   0  0  0  0  0  0  0  0  0  0  0  0
   40.4950   30.7790   41.1260 C   0  0  0  0  0  0  0  0  0  0  0  0
   39.5930   31.8320   41.2570 C   0  0  0  0  0  0  0  0  0  0  0  0
   39.2640   31.8950   44.9290 C   0  0  0  0  0  0  0  0  0  0  0  0
   38.1790   32.5500   45.0490 O   0  0  0  0  0  0  0  0  0  0  0  0
   39.9620   31.6270   46.1510 N   0  0  0  0  0  0  0  0  0  0  0  0
   38.1230   30.1450   47.4920 F   0  0  0  0  0  0  0  0  0  0  0  0
   38.3750   31.3880   47.9780 C   0  0  0  0  0  0  0  0  0  0  0  0
   37.7200   31.8360   49.0870 C   0  0  0  0  0  0  0  0  0  0  0  0
   38.0290   33.1020   49.5190 C   0  0  0  0  0  0  0  0  0  0  0  0
   38.9400   33.8990   48.8940 C   0  0  0  0  0  0  0  0  0  0  0  0
   39.5960   33.4220   47.7660 C   0  0  0  0  0  0  0  0  0  0  0  0
   39.3030   32.1460   47.3090 C   0  0  0  0  0  0  0  0  0  0  0  0
   36.0850   29.3720   51.4430 C   0  0  0  0  0  0  0  0  0  0  0  0
   37.0570   30.2240   50.8620 C   0  0  0  0  0  0  0  0  0  0  0  0
   36.7520   30.9450   49.7210 C   0  0  0  0  0  0  0  0  0  0  0  0
   35.4960   30.7940   49.2000 N   0  0  0  0  0  0  0  0  0  0  0  0
   34.5840   29.9850   49.7580 C   0  0  0  0  0  0  0  0  0  0  0  0
   34.8770   29.2890   50.8600 N   0  0  0  0  0  0  0  0  0  0  0  0
   39.0810   32.5320   40.1890 O   0  0  0  0  0  0  0  0  0  0  0  0
   37.8270   33.0740   40.0930 C   0  0  0  0  0  0  0  0  0  0  0  0
   36.7550   32.8410   40.8780 N   0  0  0  0  0  0  0  0  0  0  0  0
   35.5710   33.4450   40.6730 C   0  0  0  0  0  0  0  0  0  0  0  0
   35.4300   34.3220   39.6460 N   0  0  0  0  0  0  0  0  0  0  0  0
   36.4580   34.5960   38.8310 C   0  0  0  0  0  0  0  0  0  0  0  0
   36.2450   35.4980   37.8050 C   0  0  0  0  0  0  0  0  0  0  0  0
   37.2950   35.7750   36.9760 C   0  0  0  0  0  0  0  0  0  0  0  0
   38.5120   35.1910   37.1410 C   0  0  0  0  0  0  0  0  0  0  0  0
   38.6930   34.2950   38.1730 C   0  0  0  0  0  0  0  0  0  0  0  0
   37.6610   33.9760   39.0480 C   0  0  0  0  0  0  0  0  0  0  0  0
   38.4923   33.0008   42.7335 H   0  0  0  0  0  0  0  0  0  0  0  0
   40.9858   29.9109   44.3453 H   0  0  0  0  0  0  0  0  0  0  0  0
   42.3708   28.4600   42.3088 H   0  0  0  0  0  0  0  0  0  0  0  0
   42.4540   28.5866   39.7252 H   0  0  0  0  0  0  0  0  0  0  0  0
   40.8522   31.1105   46.1915 H   0  0  0  0  0  0  0  0  0  0  0  0
   37.5170   33.4910   50.4115 H   0  0  0  0  0  0  0  0  0  0  0  0
   39.1536   34.9076   49.2776 H   0  0  0  0  0  0  0  0  0  0  0  0
   40.3359   34.0465   47.2439 H   0  0  0  0  0  0  0  0  0  0  0  0
   36.3138   28.7925   52.3495 H   0  0  0  0  0  0  0  0  0  0  0  0
   38.0541   30.3122   51.3181 H   0  0  0  0  0  0  0  0  0  0  0  0
   33.5860   29.8936   49.3045 H   0  0  0  0  0  0  0  0  0  0  0  0
   34.7195   33.2293   41.3352 H   0  0  0  0  0  0  0  0  0  0  0  0
   35.2647   35.9758   37.6613 H   0  0  0  0  0  0  0  0  0  0  0  0
   37.1521   36.4901   36.1524 H   0  0  0  0  0  0  0  0  0  0  0  0
   39.3416   35.4305   36.4596 H   0  0  0  0  0  0  0  0  0  0  0  0
   39.6768   33.8216   38.3071 H   0  0  0  0  0  0  0  0  0  0  0  0
  1  2  2  0
  2 10  1  0
  3  2  1  0
  4  3  2  0
  5  4  1  0
  6  5  1  0
  7  6  2  0
  7  8  1  0
  8  9  2  0
  8  4  1  0
  9  1  1  0
 10 11  2  0
 10 12  1  0
 12 19  1  0
 13 14  1  0
 14 15  2  0
 15 16  1  0
 15 22  1  0
 17 16  2  0
 18 17  1  0
 19 18  2  0
 19 14  1  0
 21 20  2  0
 22 21  1  0
 23 22  2  0
 23 24  1  0
 24 25  2  0
 25 20  1  0
 26  9  1  0
 27 26  1  0
 27 28  2  0
 29 28  1  0
 30 29  2  0
 31 36  2  0
 31 30  1  0
 32 31  1  0
 33 34  1  0
 33 32  2  0
 34 35  2  0
 35 36  1  0
 36 27  1  0
  1 37  1  0
  3 38  1  0
  5 39  1  0
  6 40  1  0
 12 41  1  0
 16 42  1  0
 17 43  1  0
 18 44  1  0
 20 45  1  0
 21 46  1  0
 24 47  1  0
 29 48  1  0
 32 49  1  0
 33 50  1  0
 34 51  1  0
 35 52  1  0
M  ISO  8  37  14  38  14  39   9  40  14  42  14  43  14  44  14  45  14
M  ISO  7  46  14  47  14  48  14  49  14  50  14  51  14  52  14
M  END
>  <minimizedAffinity>  (1) 
-7.73087168

>  <minimizedRMSD>  (1) 
1.37508786

$$$$
