
     RDKit          3D

 48 52  0  0  0  0  0  0  0  0999 V2000
   33.8790   28.4240   47.8970 C   0  0  0  0  0  0  0  0  0  0  0  0
   34.0210   27.1640   47.4240 C   0  0  0  0  0  0  0  0  0  0  0  0
   33.1550   26.6410   46.5490 C   0  0  0  0  0  0  0  0  0  0  0  0
   32.1140   27.4080   46.1370 N   0  0  0  0  0  0  0  0  0  0  0  0
   31.9730   28.6410   46.5990 C   0  0  0  0  0  0  0  0  0  0  0  0
   32.8390   29.1670   47.4760 N   0  0  0  0  0  0  0  0  0  0  0  0
   29.5960   29.2600   46.6900 C   0  0  0  0  0  0  0  0  0  0  0  0
   30.8460   29.3640   46.0670 C   0  0  0  0  0  0  0  0  0  0  0  0
   31.0820   30.1110   44.9290 C   0  0  0  0  0  0  0  0  0  0  0  0
   30.0320   30.8040   44.3560 C   0  0  0  0  0  0  0  0  0  0  0  0
   28.7660   30.7580   44.9000 C   0  0  0  0  0  0  0  0  0  0  0  0
   28.6310   29.9990   46.0190 C   0  0  0  0  0  0  0  0  0  0  0  0
   29.2830   28.3880   48.0760 S   0  0  0  0  0  0  0  0  0  0  0  0
   28.6780   27.1310   47.3650 O   0  0  0  0  0  0  0  0  0  0  0  0
   28.1800   29.1020   48.8130 O   0  0  0  0  0  0  0  0  0  0  0  0
   29.7190   27.4310   49.2740 C   0  0  0  0  0  0  0  0  0  0  0  0
   28.9220   27.1120   50.3930 F   0  0  0  0  0  0  0  0  0  0  0  0
   30.6630   28.1330   50.1580 F   0  0  0  0  0  0  0  0  0  0  0  0
   30.7380   26.4480   49.1160 F   0  0  0  0  0  0  0  0  0  0  0  0
   35.7240   29.2490   50.9490 C   0  0  0  0  0  0  0  0  0  0  0  0
   36.6320   30.2190   50.5030 C   0  0  0  0  0  0  0  0  0  0  0  0
   36.5930   30.5810   49.1500 C   0  0  0  0  0  0  0  0  0  0  0  0
   35.6640   29.9420   48.4060 N   0  0  0  0  0  0  0  0  0  0  0  0
   34.8030   29.0190   48.8430 C   0  0  0  0  0  0  0  0  0  0  0  0
   34.8400   28.6750   50.1300 N   0  0  0  0  0  0  0  0  0  0  0  0
   37.5560   31.5860   48.7540 C   0  0  0  0  0  0  0  0  0  0  0  0
   37.7750   32.6570   49.5300 N   0  0  0  0  0  0  0  0  0  0  0  0
   38.6380   33.6410   49.2610 C   0  0  0  0  0  0  0  0  0  0  0  0
   39.3740   33.6330   48.1600 N   0  0  0  0  0  0  0  0  0  0  0  0
   39.2320   32.6050   47.3130 C   0  0  0  0  0  0  0  0  0  0  0  0
   39.9790   32.5570   46.1540 C   0  0  0  0  0  0  0  0  0  0  0  0
   39.8550   31.5040   45.2550 C   0  0  0  0  0  0  0  0  0  0  0  0
   38.9410   30.4950   45.5750 C   0  0  0  0  0  0  0  0  0  0  0  0
   38.2290   30.5950   46.7340 C   0  0  0  0  0  0  0  0  0  0  0  0
   38.3310   31.6160   47.6330 C   0  0  0  0  0  0  0  0  0  0  0  0
   34.8699   26.5547   47.7677 H   0  0  0  0  0  0  0  0  0  0  0  0
   33.2833   25.6153   46.1729 H   0  0  0  0  0  0  0  0  0  0  0  0
   32.0882   30.1536   44.4865 H   0  0  0  0  0  0  0  0  0  0  0  0
   30.2097   31.4025   43.4503 H   0  0  0  0  0  0  0  0  0  0  0  0
   27.9188   31.3014   44.4562 H   0  0  0  0  0  0  0  0  0  0  0  0
   27.6203   29.9656   46.4518 H   0  0  0  0  0  0  0  0  0  0  0  0
   35.7404   28.9512   52.0078 H   0  0  0  0  0  0  0  0  0  0  0  0
   37.3526   30.6816   51.1935 H   0  0  0  0  0  0  0  0  0  0  0  0
   38.7394   34.4762   49.9697 H   0  0  0  0  0  0  0  0  0  0  0  0
   40.6880   33.3695   45.9367 H   0  0  0  0  0  0  0  0  0  0  0  0
   40.4506   31.4660   44.3310 H   0  0  0  0  0  0  0  0  0  0  0  0
   38.7988   29.6355   44.9035 H   0  0  0  0  0  0  0  0  0  0  0  0
   37.5162   29.7887   46.9618 H   0  0  0  0  0  0  0  0  0  0  0  0
  1 24  1  0
  2  1  2  0
  3  2  1  0
  4  3  2  0
  4  5  1  0
  5  6  2  0
  6  1  1  0
  7 13  1  0
  8  5  1  0
  8  7  2  0
  9  8  1  0
 10 11  1  0
 10  9  2  0
 11 12  2  0
 12  7  1  0
 13 15  2  0
 13 16  1  0
 14 13  2  0
 16 18  1  0
 16 17  1  0
 19 16  1  0
 21 20  2  0
 22 21  1  0
 23 24  1  0
 23 22  2  0
 24 25  2  0
 25 20  1  0
 26 22  1  0
 26 27  2  0
 28 27  1  0
 29 28  2  0
 30 35  2  0
 30 29  1  0
 31 30  1  0
 32 33  1  0
 32 31  2  0
 33 34  2  0
 34 35  1  0
 35 26  1  0
  2 36  1  0
  3 37  1  0
  9 38  1  0
 10 39  1  0
 11 40  1  0
 12 41  1  0
 20 42  1  0
 21 43  1  0
 28 44  1  0
 31 45  1  0
 32 46  1  0
 33 47  1  0
 34 48  1  0
M  END
>  <minimizedAffinity>  (1) 
-7.99056149

>  <minimizedRMSD>  (1) 
2.98939061

$$$$
