
     RDKit          3D

 40 44  0  0  0  0  0  0  0  0999 V2000
   37.2530   29.9600   50.8020 C   0  0  0  0  0  0  0  0  0  0  0  0
   38.0920   30.8730   50.1480 C   0  0  0  0  0  0  0  0  0  0  0  0
   37.7210   31.2420   48.8470 C   0  0  0  0  0  0  0  0  0  0  0  0
   36.6200   30.6970   48.3620 N   0  0  0  0  0  0  0  0  0  0  0  0
   35.8110   29.8420   48.9420 C   0  0  0  0  0  0  0  0  0  0  0  0
   36.1900   29.5150   50.1680 N   0  0  0  0  0  0  0  0  0  0  0  0
   34.5780   29.1940   48.5250 C   0  0  0  0  0  0  0  0  0  0  0  0
   33.7480   28.5550   49.4000 N   0  0  0  0  0  0  0  0  0  0  0  0
   32.6100   27.9870   49.0190 C   0  0  0  0  0  0  0  0  0  0  0  0
   32.1630   27.9800   47.7580 N   0  0  0  0  0  0  0  0  0  0  0  0
   32.9310   28.5940   46.8280 C   0  0  0  0  0  0  0  0  0  0  0  0
   32.4860   28.5930   45.5260 C   0  0  0  0  0  0  0  0  0  0  0  0
   33.2310   29.1980   44.5430 C   0  0  0  0  0  0  0  0  0  0  0  0
   34.4130   29.7870   44.9330 C   0  0  0  0  0  0  0  0  0  0  0  0
   34.8180   29.7620   46.2540 C   0  0  0  0  0  0  0  0  0  0  0  0
   34.1000   29.1710   47.2470 C   0  0  0  0  0  0  0  0  0  0  0  0
   38.6090   32.2180   48.2720 C   0  0  0  0  0  0  0  0  0  0  0  0
   38.8910   33.3760   48.9000 N   0  0  0  0  0  0  0  0  0  0  0  0
   39.6940   34.3290   48.4260 C   0  0  0  0  0  0  0  0  0  0  0  0
   40.3140   34.2280   47.2510 N   0  0  0  0  0  0  0  0  0  0  0  0
   40.1050   33.1080   46.5320 C   0  0  0  0  0  0  0  0  0  0  0  0
   40.7080   32.9560   45.3030 C   0  0  0  0  0  0  0  0  0  0  0  0
   40.5050   31.8460   44.5440 C   0  0  0  0  0  0  0  0  0  0  0  0
   39.6580   30.8530   45.0500 C   0  0  0  0  0  0  0  0  0  0  0  0
   39.0840   31.0590   46.2820 C   0  0  0  0  0  0  0  0  0  0  0  0
   39.2660   32.1610   47.0740 C   0  0  0  0  0  0  0  0  0  0  0  0
   37.5370   29.5180   52.1360 N   0  0  0  0  0  0  0  0  0  0  0  0
   38.9938   31.2786   50.6300 H   0  0  0  0  0  0  0  0  0  0  0  0
   31.9974   27.4920   49.7869 H   0  0  0  0  0  0  0  0  0  0  0  0
   31.5324   28.1071   45.2719 H   0  0  0  0  0  0  0  0  0  0  0  0
   32.8991   29.2113   43.4943 H   0  0  0  0  0  0  0  0  0  0  0  0
   35.0441   30.2847   44.1820 H   0  0  0  0  0  0  0  0  0  0  0  0
   35.7707   30.2452   46.5163 H   0  0  0  0  0  0  0  0  0  0  0  0
   39.8510   35.2352   49.0294 H   0  0  0  0  0  0  0  0  0  0  0  0
   41.3690   33.7507   44.9268 H   0  0  0  0  0  0  0  0  0  0  0  0
   40.9909   31.7321   43.5637 H   0  0  0  0  0  0  0  0  0  0  0  0
   39.4576   29.9347   44.4785 H   0  0  0  0  0  0  0  0  0  0  0  0
   38.4206   30.2696   46.6650 H   0  0  0  0  0  0  0  0  0  0  0  0
   36.9091   28.8467   52.6007 H   0  0  0  0  0  0  0  0  0  0  0  0
   38.3689   29.8718   52.6296 H   0  0  0  0  0  0  0  0  0  0  0  0
  1 27  1  0
  2  1  2  0
  3  2  1  0
  4  3  2  0
  4  5  1  0
  5  6  2  0
  6  1  1  0
  7  5  1  0
  7  8  2  0
  9  8  1  0
 10  9  2  0
 11 16  2  0
 11 10  1  0
 12 11  1  0
 13 14  1  0
 13 12  2  0
 14 15  2  0
 15 16  1  0
 16  7  1  0
 17  3  1  0
 17 18  2  0
 19 18  1  0
 20 19  2  0
 21 26  2  0
 21 20  1  0
 22 21  1  0
 23 24  1  0
 23 22  2  0
 24 25  2  0
 25 26  1  0
 26 17  1  0
  2 28  1  0
  9 29  1  0
 12 30  1  0
 13 31  1  0
 14 32  1  0
 15 33  1  0
 19 34  1  0
 22 35  1  0
 23 36  1  0
 24 37  1  0
 25 38  1  0
 27 39  1  0
 27 40  1  0
M  ISO  8  28  14  29  14  30  14  31  14  32  14  33  14  34  14  35  14
M  ISO  3  36  14  37  14  38  14
M  END
>  <minimizedAffinity>  (1) 
-7.7264576

>  <minimizedRMSD>  (1) 
0.892931342

$$$$
