
     RDKit          3D

 45 49  0  0  0  0  0  0  0  0999 V2000
   34.5730   30.1850   47.6960 F   0  0  0  0  0  0  0  0  0  0  0  0
   34.8870   29.8410   46.4080 C   0  0  0  0  0  0  0  0  0  0  0  0
   33.9870   29.1830   45.5710 C   0  0  0  0  0  0  0  0  0  0  0  0
   34.3650   28.8860   44.2880 C   0  0  0  0  0  0  0  0  0  0  0  0
   35.6380   29.2370   43.8220 C   0  0  0  0  0  0  0  0  0  0  0  0
   36.4890   29.8870   44.6960 C   0  0  0  0  0  0  0  0  0  0  0  0
   36.1580   30.1970   45.9600 C   0  0  0  0  0  0  0  0  0  0  0  0
   37.9730   32.4190   44.6950 Br  0  0  0  0  0  0  0  0  0  0  0  0
   37.9710   31.8910   46.5250 C   0  0  0  0  0  0  0  0  0  0  0  0
   37.1020   30.8700   46.8290 C   0  0  0  0  0  0  0  0  0  0  0  0
   37.0760   30.4000   48.1540 C   0  0  0  0  0  0  0  0  0  0  0  0
   37.8800   30.9390   49.0980 C   0  0  0  0  0  0  0  0  0  0  0  0
   38.7300   31.9620   48.7400 C   0  0  0  0  0  0  0  0  0  0  0  0
   38.7880   32.4610   47.4270 C   0  0  0  0  0  0  0  0  0  0  0  0
   39.5940   33.4660   46.9910 O   0  0  0  0  0  0  0  0  0  0  0  0
   31.6980   29.7950   45.9950 C   0  0  0  0  0  0  0  0  0  0  0  0
   32.7180   28.8770   46.1710 C   0  0  0  0  0  0  0  0  0  0  0  0
   32.4260   27.7340   46.8830 C   0  0  0  0  0  0  0  0  0  0  0  0
   31.1790   27.5370   47.3800 N   0  0  0  0  0  0  0  0  0  0  0  0
   30.2250   28.4240   47.1970 C   0  0  0  0  0  0  0  0  0  0  0  0
   30.4720   29.5270   46.5240 N   0  0  0  0  0  0  0  0  0  0  0  0
   28.8170   28.4240   47.6350 C   0  0  0  0  0  0  0  0  0  0  0  0
   27.7640   28.8200   46.8900 N   0  0  0  0  0  0  0  0  0  0  0  0
   26.4960   28.8270   47.2660 C   0  0  0  0  0  0  0  0  0  0  0  0
   26.1380   28.4160   48.4910 N   0  0  0  0  0  0  0  0  0  0  0  0
   27.1050   27.9930   49.3360 C   0  0  0  0  0  0  0  0  0  0  0  0
   26.7090   27.5810   50.5750 C   0  0  0  0  0  0  0  0  0  0  0  0
   27.6480   27.1390   51.4810 C   0  0  0  0  0  0  0  0  0  0  0  0
   28.9710   27.1360   51.0760 C   0  0  0  0  0  0  0  0  0  0  0  0
   29.3080   27.5640   49.8120 C   0  0  0  0  0  0  0  0  0  0  0  0
   28.4030   28.0120   48.8800 C   0  0  0  0  0  0  0  0  0  0  0  0
   33.6628   28.3676   43.6185 H   0  0  0  0  0  0  0  0  0  0  0  0
   35.9506   29.0030   42.7937 H   0  0  0  0  0  0  0  0  0  0  0  0
   37.4909   30.1652   44.3370 H   0  0  0  0  0  0  0  0  0  0  0  0
   36.3921   29.5826   48.4263 H   0  0  0  0  0  0  0  0  0  0  0  0
   37.8557   30.5673   50.1330 H   0  0  0  0  0  0  0  0  0  0  0  0
   39.3846   32.4028   49.5063 H   0  0  0  0  0  0  0  0  0  0  0  0
   40.2117   33.9141   47.6217 H   0  0  0  0  0  0  0  0  0  0  0  0
   31.8744   30.7263   45.4368 H   0  0  0  0  0  0  0  0  0  0  0  0
   33.2074   26.9778   47.0492 H   0  0  0  0  0  0  0  0  0  0  0  0
   25.7241   29.1750   46.5637 H   0  0  0  0  0  0  0  0  0  0  0  0
   25.6440   27.6017   50.8494 H   0  0  0  0  0  0  0  0  0  0  0  0
   27.3574   26.8017   52.4869 H   0  0  0  0  0  0  0  0  0  0  0  0
   29.7553   26.7908   51.7658 H   0  0  0  0  0  0  0  0  0  0  0  0
   30.3710   27.5463   49.5295 H   0  0  0  0  0  0  0  0  0  0  0  0
  2  1  1  0
  3 17  1  0
  3  2  2  0
  4  3  1  0
  5  4  2  0
  5  6  1  0
  6  7  2  0
  7  2  1  0
  7 10  1  0
  8  9  1  0
  9 10  2  0
  9 14  1  0
 10 11  1  0
 11 12  2  0
 13 12  1  0
 14 13  2  0
 15 14  1  0
 16 17  2  0
 16 21  1  0
 17 18  1  0
 18 19  2  0
 20 19  1  0
 20 22  1  0
 21 20  2  0
 22 31  2  0
 23 24  2  0
 23 22  1  0
 24 25  1  0
 25 26  2  0
 26 27  1  0
 27 28  2  0
 29 28  1  0
 30 29  2  0
 31 26  1  0
 31 30  1  0
  4 32  1  0
  5 33  1  0
  6 34  1  0
 11 35  1  0
 12 36  1  0
 13 37  1  0
 15 38  1  0
 16 39  1  0
 18 40  1  0
 24 41  1  0
 27 42  1  0
 28 43  1  0
 29 44  1  0
 30 45  1  0
M  ISO  8  32  14  33  14  34  14  35  14  36  14  37  14  38   3  39  14
M  ISO  6  40  14  41  14  42  14  43  14  44  14  45  14
M  END
>  <minimizedAffinity>  (1) 
-8.17883015

>  <minimizedRMSD>  (1) 
2.03898716

$$$$
