
     RDKit          3D

 48 52  0  0  0  0  0  0  0  0999 V2000
   33.5960   26.9130   46.9380 C   0  0  0  0  0  0  0  0  0  0  0  0
   33.7320   25.6140   47.3580 C   0  0  0  0  0  0  0  0  0  0  0  0
   34.1290   24.6300   46.4830 C   0  0  0  0  0  0  0  0  0  0  0  0
   34.4040   24.9190   45.1500 C   0  0  0  0  0  0  0  0  0  0  0  0
   34.2680   26.2110   44.7330 C   0  0  0  0  0  0  0  0  0  0  0  0
   33.8710   27.2110   45.5970 C   0  0  0  0  0  0  0  0  0  0  0  0
   33.8340   28.5220   44.9420 C   0  0  0  0  0  0  0  0  0  0  0  0
   34.9500   29.2510   44.8420 N   0  0  0  0  0  0  0  0  0  0  0  0
   35.0400   30.4530   44.2830 C   0  0  0  0  0  0  0  0  0  0  0  0
   33.8990   30.9670   43.7800 N   0  0  0  0  0  0  0  0  0  0  0  0
   32.7290   30.3110   43.8350 C   0  0  0  0  0  0  0  0  0  0  0  0
   31.5910   30.9250   43.2990 C   0  0  0  0  0  0  0  0  0  0  0  0
   30.4530   30.1600   43.4250 C   0  0  0  0  0  0  0  0  0  0  0  0
   30.3110   28.9240   43.9900 C   0  0  0  0  0  0  0  0  0  0  0  0
   31.4810   28.3640   44.5070 C   0  0  0  0  0  0  0  0  0  0  0  0
   32.6620   29.0520   44.4270 C   0  0  0  0  0  0  0  0  0  0  0  0
   33.1630   28.0700   47.7890 C   0  0  0  0  0  0  0  0  0  0  0  0
   34.9910   28.3980   49.4710 C   0  0  0  0  0  0  0  0  0  0  0  0
   34.2830   28.7740   48.4420 C   0  0  0  0  0  0  0  0  0  0  0  0
   37.4030   30.1580   51.5730 C   0  0  0  0  0  0  0  0  0  0  0  0
   38.1040   30.9180   50.6250 C   0  0  0  0  0  0  0  0  0  0  0  0
   37.7280   30.8130   49.2730 C   0  0  0  0  0  0  0  0  0  0  0  0
   36.6880   29.9630   48.9570 N   0  0  0  0  0  0  0  0  0  0  0  0
   36.0610   29.2620   49.9330 C   0  0  0  0  0  0  0  0  0  0  0  0
   36.4070   29.3570   51.2050 N   0  0  0  0  0  0  0  0  0  0  0  0
   38.3750   31.5590   48.2020 C   0  0  0  0  0  0  0  0  0  0  0  0
   38.5780   31.0270   46.9390 C   0  0  0  0  0  0  0  0  0  0  0  0
   39.2190   32.0220   46.1770 C   0  0  0  0  0  0  0  0  0  0  0  0
   39.3750   33.0950   46.9910 N   0  0  0  0  0  0  0  0  0  0  0  0
   38.8740   32.8120   48.1870 N   0  0  0  0  0  0  0  0  0  0  0  0
   33.5211   25.3566   48.4065 H   0  0  0  0  0  0  0  0  0  0  0  0
   34.2310   23.5958   46.8435 H   0  0  0  0  0  0  0  0  0  0  0  0
   34.7216   24.1294   44.4531 H   0  0  0  0  0  0  0  0  0  0  0  0
   34.4799   26.4614   43.6830 H   0  0  0  0  0  0  0  0  0  0  0  0
   35.9934   30.9993   44.2331 H   0  0  0  0  0  0  0  0  0  0  0  0
   31.6044   31.9177   42.8253 H   0  0  0  0  0  0  0  0  0  0  0  0
   29.5338   30.6040   43.0153 H   0  0  0  0  0  0  0  0  0  0  0  0
   29.3417   28.4058   44.0345 H   0  0  0  0  0  0  0  0  0  0  0  0
   31.4538   27.3705   44.9784 H   0  0  0  0  0  0  0  0  0  0  0  0
   32.6248   28.7877   47.1525 H   0  0  0  0  0  0  0  0  0  0  0  0
   32.5276   27.6623   48.5891 H   0  0  0  0  0  0  0  0  0  0  0  0
   34.7810   27.4449   49.9783 H   0  0  0  0  0  0  0  0  0  0  0  0
   34.5574   29.7446   48.0030 H   0  0  0  0  0  0  0  0  0  0  0  0
   37.6808   30.2254   52.6352 H   0  0  0  0  0  0  0  0  0  0  0  0
   38.9276   31.5799   50.9310 H   0  0  0  0  0  0  0  0  0  0  0  0
   38.2932   30.0209   46.5975 H   0  0  0  0  0  0  0  0  0  0  0  0
   39.5324   31.9441   45.1255 H   0  0  0  0  0  0  0  0  0  0  0  0
   39.8129   33.9881   46.7236 H   0  0  0  0  0  0  0  0  0  0  0  0
  1  2  2  0
  1 17  1  0
  3  2  1  0
  4  3  2  0
  5  4  1  0
  5  6  2  0
  6  1  1  0
  7  6  1  0
  8  7  2  0
  9  8  1  0
 10 11  1  0
 10  9  2  0
 11 16  2  0
 12 13  2  0
 12 11  1  0
 13 14  1  0
 14 15  2  0
 16 15  1  0
 16  7  1  0
 17 19  1  0
 18 24  1  0
 19 18  2  0
 21 20  2  0
 22 21  1  0
 23 22  2  0
 23 24  1  0
 24 25  2  0
 25 20  1  0
 26 22  1  0
 27 26  1  0
 28 27  2  0
 28 29  1  0
 29 30  1  0
 30 26  2  0
  2 31  1  0
  3 32  1  0
  4 33  1  0
  5 34  1  0
  9 35  1  0
 12 36  1  0
 13 37  1  0
 14 38  1  0
 15 39  1  0
 17 40  1  0
 17 41  1  0
 18 42  1  0
 19 43  1  0
 20 44  1  0
 21 45  1  0
 27 46  1  0
 28 47  1  0
 29 48  1  0
M  ISO  8  31  14  32  14  33  14  34  14  35  14  36  14  37  14  38  14
M  ISO  8  39  14  40   8  41   8  44  14  45  14  46  14  47  14  48   9
M  END
>  <minimizedAffinity>  (1) 
-6.56696081

>  <minimizedRMSD>  (1) 
0.827359617

$$$$
