
     RDKit          3D

 36 38  0  0  0  0  0  0  0  0999 V2000
   31.7100   26.9560   47.8460 C   0  0  0  0  0  0  0  0  0  0  0  0
   31.5840   25.5840   47.7980 C   0  0  0  0  0  0  0  0  0  0  0  0
   32.6190   24.7160   47.4520 C   0  0  0  0  0  0  0  0  0  0  0  0
   33.8760   25.2770   47.1290 C   0  0  0  0  0  0  0  0  0  0  0  0
   33.9700   26.6510   47.1870 C   0  0  0  0  0  0  0  0  0  0  0  0
   32.9520   27.4900   47.5280 C   0  0  0  0  0  0  0  0  0  0  0  0
   30.3100   27.8610   49.6060 C   0  0  0  0  0  0  0  0  0  0  0  0
   30.5300   27.6950   48.2260 C   0  0  0  0  0  0  0  0  0  0  0  0
   29.6040   28.2500   47.3370 C   0  0  0  0  0  0  0  0  0  0  0  0
   28.5330   28.9250   47.8360 N   0  0  0  0  0  0  0  0  0  0  0  0
   28.3420   29.0720   49.1790 C   0  0  0  0  0  0  0  0  0  0  0  0
   29.2310   28.5400   50.0570 N   0  0  0  0  0  0  0  0  0  0  0  0
   29.7070   28.1480   45.8540 C   0  0  0  0  0  0  0  0  0  0  0  0
   28.5740   28.7370   45.2630 F   0  0  0  0  0  0  0  0  0  0  0  0
   30.8110   28.6830   45.3000 F   0  0  0  0  0  0  0  0  0  0  0  0
   29.6120   26.8090   45.4680 F   0  0  0  0  0  0  0  0  0  0  0  0
   33.1000   29.2370   47.5940 S   0  0  0  0  0  0  0  0  0  0  0  0
   34.0910   29.4390   50.5380 Cl  0  0  0  0  0  0  0  0  0  0  0  0
   35.1500   29.8510   49.2080 C   0  0  0  0  0  0  0  0  0  0  0  0
   34.7510   29.8040   47.8780 C   0  0  0  0  0  0  0  0  0  0  0  0
   35.6090   30.1680   46.8830 C   0  0  0  0  0  0  0  0  0  0  0  0
   36.8870   30.5810   47.2230 C   0  0  0  0  0  0  0  0  0  0  0  0
   37.2930   30.6300   48.5490 C   0  0  0  0  0  0  0  0  0  0  0  0
   36.4240   30.2630   49.5700 C   0  0  0  0  0  0  0  0  0  0  0  0
   36.8480   30.3120   50.9650 C   0  0  0  0  0  0  0  0  0  0  0  0
   37.4030   29.3000   51.4600 O   0  0  0  0  0  0  0  0  0  0  0  0
   30.6061   25.1468   48.0482 H   0  0  0  0  0  0  0  0  0  0  0  0
   32.4622   23.6274   47.4310 H   0  0  0  0  0  0  0  0  0  0  0  0
   34.7342   24.6497   46.8462 H   0  0  0  0  0  0  0  0  0  0  0  0
   34.9409   27.1047   46.9391 H   0  0  0  0  0  0  0  0  0  0  0  0
   31.0236   27.4337   50.3258 H   0  0  0  0  0  0  0  0  0  0  0  0
   27.4657   29.6228   49.5515 H   0  0  0  0  0  0  0  0  0  0  0  0
   35.2925   30.1344   45.8300 H   0  0  0  0  0  0  0  0  0  0  0  0
   37.5904   30.8745   46.4299 H   0  0  0  0  0  0  0  0  0  0  0  0
   38.3124   30.9625   48.7946 H   0  0  0  0  0  0  0  0  0  0  0  0
   36.6851   31.2159   51.5703 H   0  0  0  0  0  0  0  0  0  0  0  0
  1  8  1  0
  2  1  2  0
  3  2  1  0
  4  5  1  0
  4  3  2  0
  5  6  2  0
  6 17  1  0
  6  1  1  0
  7 12  2  0
  8  7  1  0
  9 10  1  0
  9  8  2  0
 10 11  2  0
 11 12  1  0
 13  9  1  0
 14 13  1  0
 15 13  1  0
 16 13  1  0
 17 20  1  0
 19 24  2  0
 19 18  1  0
 20 19  1  0
 21 22  1  0
 21 20  2  0
 22 23  2  0
 23 24  1  0
 24 25  1  0
 25 26  2  0
  2 27  1  0
  3 28  1  0
  4 29  1  0
  5 30  1  0
  7 31  1  0
 11 32  1  0
 21 33  1  0
 22 34  1  0
 23 35  1  0
 25 36  1  0
M  ISO  8  27  14  28  14  29  14  30  14  31  14  32  14  33  14  34  14
M  ISO  2  35  14  36   6
M  END
>  <minimizedAffinity>  (1) 
-5.55988979

>  <minimizedRMSD>  (1) 
3.23717761

$$$$
