
     RDKit          3D

 19 20  0  0  0  0  0  0  0  0999 V2000
   37.8800   31.5230   48.5010 C   0  0  0  0  0  0  0  0  0  0  0  0
   38.7120   32.6200   48.2700 C   0  0  0  0  0  0  0  0  0  0  0  0
   39.4100   32.6710   47.0870 C   0  0  0  0  0  0  0  0  0  0  0  0
   39.2570   31.6630   46.2110 N   0  0  0  0  0  0  0  0  0  0  0  0
   38.4550   30.6050   46.4320 C   0  0  0  0  0  0  0  0  0  0  0  0
   37.7600   30.5300   47.5830 N   0  0  0  0  0  0  0  0  0  0  0  0
   37.0610   31.5610   49.7720 C   0  0  0  0  0  0  0  0  0  0  0  0
   36.2820   30.4040   50.1550 C   0  0  0  0  0  0  0  0  0  0  0  0
   37.6300   30.5610   50.8000 C   0  0  0  0  0  0  0  0  0  0  0  0
   38.9420   33.7370   49.1560 C   0  0  0  0  0  0  0  0  0  0  0  0
   39.6790   34.0850   50.0810 O   0  0  0  0  0  0  0  0  0  0  0  0
   40.0775   33.5160   46.8626 H   0  0  0  0  0  0  0  0  0  0  0  0
   38.3680   29.8082   45.6787 H   0  0  0  0  0  0  0  0  0  0  0  0
   36.7924   32.6257   49.7064 H   0  0  0  0  0  0  0  0  0  0  0  0
   35.3733   30.5393   50.7600 H   0  0  0  0  0  0  0  0  0  0  0  0
   35.8003   29.5921   49.5904 H   0  0  0  0  0  0  0  0  0  0  0  0
   38.4606   29.8926   50.5290 H   0  0  0  0  0  0  0  0  0  0  0  0
   38.0210   30.6100   51.8270 H   0  0  0  0  0  0  0  0  0  0  0  0
   38.2247   34.5404   48.9323 H   0  0  0  0  0  0  0  0  0  0  0  0
  1  7  1  0
  2  1  2  0
  2 10  1  0
  3  2  1  0
  4  5  1  0
  4  3  2  0
  5  6  2  0
  6  1  1  0
  7  8  1  0
  7  9  1  0
  8  9  1  0
 10 11  2  0
  3 12  1  0
  5 13  1  0
  7 14  1  0
  8 15  1  0
  8 16  1  0
  9 17  1  0
  9 18  1  0
 10 19  1  0
M  ISO  8  12  14  13  14  14  13  15  13  16  13  17  13  18  13  19   6
M  END
>  <minimizedAffinity>  (1) 
-4.42176437

>  <minimizedRMSD>  (1) 
2.02548265

$$$$
