
     RDKit          3D

 22 23  0  0  0  0  0  0  0  0999 V2000
   38.6720   32.4990   48.7790 Br  0  0  0  0  0  0  0  0  0  0  0  0
   38.0670   31.8450   47.1060 C   0  0  0  0  0  0  0  0  0  0  0  0
   37.0600   30.9130   47.1750 C   0  0  0  0  0  0  0  0  0  0  0  0
   36.5500   30.3740   45.9810 C   0  0  0  0  0  0  0  0  0  0  0  0
   37.0810   30.8010   44.7540 C   0  0  0  0  0  0  0  0  0  0  0  0
   38.0820   31.7310   44.7810 C   0  0  0  0  0  0  0  0  0  0  0  0
   38.5920   32.2690   45.9330 C   0  0  0  0  0  0  0  0  0  0  0  0
   37.0470   29.5690   49.3150 C   0  0  0  0  0  0  0  0  0  0  0  0
   36.4020   30.3670   48.3620 C   0  0  0  0  0  0  0  0  0  0  0  0
   35.0440   30.6650   48.5560 C   0  0  0  0  0  0  0  0  0  0  0  0
   34.4290   30.1480   49.6770 N   0  0  0  0  0  0  0  0  0  0  0  0
   35.1020   29.3830   50.5630 C   0  0  0  0  0  0  0  0  0  0  0  0
   36.4100   29.0910   50.3840 N   0  0  0  0  0  0  0  0  0  0  0  0
   39.6590   33.2610   45.9690 C   0  0  0  0  0  0  0  0  0  0  0  0
   40.0320   33.7790   44.9030 O   0  0  0  0  0  0  0  0  0  0  0  0
   35.7439   29.6260   46.0081 H   0  0  0  0  0  0  0  0  0  0  0  0
   36.7037   30.4002   43.8016 H   0  0  0  0  0  0  0  0  0  0  0  0
   38.5027   32.0671   43.8218 H   0  0  0  0  0  0  0  0  0  0  0  0
   38.1117   29.3293   49.1773 H   0  0  0  0  0  0  0  0  0  0  0  0
   34.4899   31.2889   47.8392 H   0  0  0  0  0  0  0  0  0  0  0  0
   34.5768   28.9903   51.4462 H   0  0  0  0  0  0  0  0  0  0  0  0
   40.1260   33.5462   46.9232 H   0  0  0  0  0  0  0  0  0  0  0  0
  2  3  2  0
  2  1  1  0
  3  9  1  0
  4  3  1  0
  5  6  1  0
  5  4  2  0
  6  7  2  0
  7 14  1  0
  7  2  1  0
  8 13  2  0
  9 10  2  0
  9  8  1  0
 10 11  1  0
 11 12  2  0
 13 12  1  0
 15 14  2  0
  4 16  1  0
  5 17  1  0
  6 18  1  0
  8 19  1  0
 10 20  1  0
 12 21  1  0
 14 22  1  0
M  ISO  7  16  14  17  14  18  14  19  14  20  14  21  14  22   6
M  END
>  <minimizedAffinity>  (1) 
-4.68144989

>  <minimizedRMSD>  (1) 
1.44650257

$$$$
