
     RDKit          3D

 36 38  0  0  1  0  0  0  0  0999 V2000
   31.9560   28.5480   47.4240 C   0  0  2  0  0  0  0  0  0  0  0  0
   33.1850   28.2040   48.2130 C   0  0  1  0  0  0  0  0  0  0  0  0
   33.4020   26.8640   48.0910 O   0  0  0  0  0  0  0  0  0  0  0  0
   32.5950   26.3590   47.0790 C   0  0  0  0  0  0  0  0  0  0  0  0
   32.1230   27.5300   46.2530 C   0  0  1  0  0  0  0  0  0  0  0  0
   32.0470   29.8570   46.9060 O   0  0  0  0  0  0  0  0  0  0  0  0
   34.6060   29.0750   47.4290 S   0  0  0  0  0  0  0  0  0  0  0  0
   36.9020   29.2710   50.6560 C   0  0  0  0  0  0  0  0  0  0  0  0
   37.3070   30.6070   50.7250 C   0  0  0  0  0  0  0  0  0  0  0  0
   36.8510   31.4850   49.7290 C   0  0  0  0  0  0  0  0  0  0  0  0
   36.0460   30.9910   48.7600 N   0  0  0  0  0  0  0  0  0  0  0  0
   35.6740   29.6940   48.7240 C   0  0  0  0  0  0  0  0  0  0  0  0
   36.0960   28.8160   49.6710 N   0  0  0  0  0  0  0  0  0  0  0  0
   30.9070   27.2240   45.6900 O   0  0  0  0  0  0  0  0  0  0  0  0
   29.4810   29.6010   44.7030 Cl  0  0  0  0  0  0  0  0  0  0  0  0
   28.9610   28.4360   45.8970 C   0  0  0  0  0  0  0  0  0  0  0  0
   29.7180   27.3490   46.2700 C   0  0  0  0  0  0  0  0  0  0  0  0
   29.1820   26.4710   47.2130 C   0  0  0  0  0  0  0  0  0  0  0  0
   27.9320   26.6930   47.7500 C   0  0  0  0  0  0  0  0  0  0  0  0
   27.1630   27.7840   47.3830 C   0  0  0  0  0  0  0  0  0  0  0  0
   27.7030   28.6540   46.4440 C   0  0  0  0  0  0  0  0  0  0  0  0
   26.9080   29.8120   46.0420 C   0  0  0  0  0  0  0  0  0  0  0  0
   26.7680   30.7950   46.8120 O   0  0  0  0  0  0  0  0  0  0  0  0
   31.0124   28.5039   47.9876 H   0  0  0  0  0  0  0  0  0  0  0  0
   33.0717   28.4892   49.2693 H   0  0  0  0  0  0  0  0  0  0  0  0
   33.1706   25.6632   46.4508 H   0  0  0  0  0  0  0  0  0  0  0  0
   31.7397   25.8108   47.5008 H   0  0  0  0  0  0  0  0  0  0  0  0
   32.7610   27.8556   45.4182 H   0  0  0  0  0  0  0  0  0  0  0  0
   32.0921   30.5051   47.6530 H   0  0  0  0  0  0  0  0  0  0  0  0
   37.2500   28.5681   51.4272 H   0  0  0  0  0  0  0  0  0  0  0  0
   37.9628   30.9596   51.5347 H   0  0  0  0  0  0  0  0  0  0  0  0
   37.1404   32.5462   49.7361 H   0  0  0  0  0  0  0  0  0  0  0  0
   29.7630   25.5927   47.5311 H   0  0  0  0  0  0  0  0  0  0  0  0
   27.5345   25.9835   48.4907 H   0  0  0  0  0  0  0  0  0  0  0  0
   26.1666   27.9549   47.8165 H   0  0  0  0  0  0  0  0  0  0  0  0
   26.4262   29.8234   45.0532 H   0  0  0  0  0  0  0  0  0  0  0  0
  1  2  1  0
  3  2  1  0
  4  3  1  0
  5  4  1  0
  5  1  1  0
  6  1  1  0
  7  2  1  0
  7 12  1  0
  8  9  2  0
 10  9  1  0
 11 10  2  0
 12 11  1  0
 12 13  2  0
 13  8  1  0
 14  5  1  0
 14 17  1  0
 15 16  1  0
 16 17  2  0
 16 21  1  0
 17 18  1  0
 18 19  2  0
 20 19  1  0
 21 20  2  0
 22 21  1  0
 22 23  2  0
  1 24  1  1
  2 25  1  1
  4 26  1  0
  4 27  1  0
  5 28  1  6
  6 29  1  0
  8 30  1  0
  9 31  1  0
 10 32  1  0
 18 33  1  0
 19 34  1  0
 20 35  1  0
 22 36  1  0
M  ISO  8  24  13  25  13  26  13  27  13  28  13  29   3  30  14  31  14
M  ISO  5  32  14  33  14  34  14  35  14  36   6
M  END
>  <minimizedAffinity>  (1) 
-4.67930555

>  <minimizedRMSD>  (1) 
0.687816262

$$$$
