
     RDKit          3D

 30 31  0  0  0  0  0  0  0  0999 V2000
   38.4980   31.7320   48.2570 Br  0  0  0  0  0  0  0  0  0  0  0  0
   37.3600   31.1110   46.8930 C   0  0  0  0  0  0  0  0  0  0  0  0
   36.2960   30.3730   47.3000 C   0  0  0  0  0  0  0  0  0  0  0  0
   35.4020   29.8760   46.3370 C   0  0  0  0  0  0  0  0  0  0  0  0
   35.6160   30.1410   45.0000 C   0  0  0  0  0  0  0  0  0  0  0  0
   36.7060   30.8900   44.6650 C   0  0  0  0  0  0  0  0  0  0  0  0
   37.5890   31.3870   45.5720 C   0  0  0  0  0  0  0  0  0  0  0  0
   36.7980   29.4490   49.5970 C   0  0  0  0  0  0  0  0  0  0  0  0
   35.9270   30.0020   48.6700 C   0  0  0  0  0  0  0  0  0  0  0  0
   34.5820   30.2250   49.0710 C   0  0  0  0  0  0  0  0  0  0  0  0
   34.2590   29.8690   50.3610 N   0  0  0  0  0  0  0  0  0  0  0  0
   35.1410   29.3400   51.2120 C   0  0  0  0  0  0  0  0  0  0  0  0
   36.4190   29.1260   50.8360 N   0  0  0  0  0  0  0  0  0  0  0  0
   38.7250   32.1650   45.2450 N   0  0  0  0  0  0  0  0  0  0  0  0
   40.3470   31.8070   44.9340 S   0  0  0  0  0  0  0  0  0  0  0  0
   40.8230   30.6690   45.7930 O   0  0  0  0  0  0  0  0  0  0  0  0
   41.2110   32.9980   45.2900 O   0  0  0  0  0  0  0  0  0  0  0  0
   40.5380   31.4190   43.3090 O   0  0  0  0  0  0  0  0  0  0  0  0
   40.4290   30.1540   42.8070 C   0  0  0  0  0  0  0  0  0  0  0  0
   39.6020   29.4480   43.4500 O   0  0  0  0  0  0  0  0  0  0  0  0
   34.5335   29.2770   46.6482 H   0  0  0  0  0  0  0  0  0  0  0  0
   34.9299   29.7606   44.2290 H   0  0  0  0  0  0  0  0  0  0  0  0
   36.8806   31.1041   43.6003 H   0  0  0  0  0  0  0  0  0  0  0  0
   37.8418   29.2695   49.2999 H   0  0  0  0  0  0  0  0  0  0  0  0
   33.8382   30.6592   48.3867 H   0  0  0  0  0  0  0  0  0  0  0  0
   34.8223   29.0756   52.2311 H   0  0  0  0  0  0  0  0  0  0  0  0
   38.5173   33.1719   45.1828 H   0  0  0  0  0  0  0  0  0  0  0  0
   40.7217   30.9112   46.7475 H   0  0  0  0  0  0  0  0  0  0  0  0
   41.2705   33.0800   46.2748 H   0  0  0  0  0  0  0  0  0  0  0  0
   40.9982   29.7900   41.9389 H   0  0  0  0  0  0  0  0  0  0  0  0
  2  3  2  0
  2  1  1  0
  3  9  1  0
  4  3  1  0
  5  4  2  0
  6  5  1  0
  6  7  2  0
  7  2  1  0
  8 13  2  0
  9 10  2  0
  9  8  1  0
 10 11  1  0
 11 12  2  0
 13 12  1  0
 14  7  1  0
 15 14  1  0
 15 17  1  0
 15 16  1  0
 18 15  1  0
 19 18  1  0
 19 20  2  0
  4 21  1  0
  5 22  1  0
  6 23  1  0
  8 24  1  0
 10 25  1  0
 12 26  1  0
 14 27  1  0
 16 28  1  0
 17 29  1  0
 19 30  1  0
M  ISO  8  21  14  22  14  23  14  24  14  25  14  26  14  28   3  29   3
M  ISO  1  30   6
M  END
>  <minimizedAffinity>  (1) 
-5.15881586

>  <minimizedRMSD>  (1) 
2.0954535

$$$$
