
     RDKit          3D

 30 31  0  0  0  0  0  0  0  0999 V2000
   37.8740   31.8850   48.8730 Br  0  0  0  0  0  0  0  0  0  0  0  0
   36.7310   31.0030   47.6000 C   0  0  0  0  0  0  0  0  0  0  0  0
   37.1300   30.8950   46.2860 C   0  0  0  0  0  0  0  0  0  0  0  0
   36.2770   30.2600   45.4230 C   0  0  0  0  0  0  0  0  0  0  0  0
   35.0550   29.7360   45.8220 C   0  0  0  0  0  0  0  0  0  0  0  0
   34.7060   29.8740   47.1510 C   0  0  0  0  0  0  0  0  0  0  0  0
   35.5490   30.5100   48.0380 C   0  0  0  0  0  0  0  0  0  0  0  0
   39.5640   33.1720   44.7990 C   0  0  0  0  0  0  0  0  0  0  0  0
   40.7970   32.4970   44.9360 C   0  0  0  0  0  0  0  0  0  0  0  0
   40.7650   31.2630   45.5420 C   0  0  0  0  0  0  0  0  0  0  0  0
   39.5730   30.7420   45.9800 N   0  0  0  0  0  0  0  0  0  0  0  0
   38.4100   31.4320   45.8250 C   0  0  0  0  0  0  0  0  0  0  0  0
   38.4250   32.6390   45.2350 N   0  0  0  0  0  0  0  0  0  0  0  0
   35.0520   30.5870   49.4380 C   0  0  0  0  0  0  0  0  0  0  0  0
   34.9120   29.2650   50.1030 C   0  0  0  0  0  0  0  0  0  0  0  0
   35.7070   29.2290   51.3140 N   0  0  0  0  0  0  0  0  0  0  0  0
   36.9970   29.8030   51.4520 C   0  0  0  0  0  0  0  0  0  0  0  0
   37.6550   29.7550   52.5070 O   0  0  0  0  0  0  0  0  0  0  0  0
   36.5729   30.1609   44.3682 H   0  0  0  0  0  0  0  0  0  0  0  0
   34.3899   29.2300   45.1067 H   0  0  0  0  0  0  0  0  0  0  0  0
   33.7454   29.4724   47.5059 H   0  0  0  0  0  0  0  0  0  0  0  0
   39.5445   34.1622   44.3204 H   0  0  0  0  0  0  0  0  0  0  0  0
   41.7382   32.9374   44.5751 H   0  0  0  0  0  0  0  0  0  0  0  0
   41.6960   30.6926   45.6759 H   0  0  0  0  0  0  0  0  0  0  0  0
   35.7577   31.1954   50.0227 H   0  0  0  0  0  0  0  0  0  0  0  0
   34.0460   31.0299   49.3949 H   0  0  0  0  0  0  0  0  0  0  0  0
   33.8551   29.0956   50.3567 H   0  0  0  0  0  0  0  0  0  0  0  0
   35.2637   28.4791   49.4184 H   0  0  0  0  0  0  0  0  0  0  0  0
   35.3064   28.7520   52.1343 H   0  0  0  0  0  0  0  0  0  0  0  0
   37.4371   30.3156   50.5839 H   0  0  0  0  0  0  0  0  0  0  0  0
  2  7  2  0
  2  1  1  0
  3  2  1  0
  4  5  1  0
  4  3  2  0
  5  6  2  0
  6  7  1  0
  7 14  1  0
  8  9  2  0
  8 13  1  0
  9 10  1  0
 10 11  2  0
 12 11  1  0
 12  3  1  0
 13 12  2  0
 14 15  1  0
 15 16  1  0
 16 17  1  0
 17 18  2  0
  4 19  1  0
  5 20  1  0
  6 21  1  0
  8 22  1  0
  9 23  1  0
 10 24  1  0
 14 25  1  0
 14 26  1  0
 15 27  1  0
 15 28  1  0
 16 29  1  0
 17 30  1  0
M  ISO  8  19  14  20  14  21  14  22  14  23  14  24  14  25   8  26   8
M  ISO  3  27   8  28   8  30   6
M  END
>  <minimizedAffinity>  (1) 
-5.56314325

>  <minimizedRMSD>  (1) 
1.04295599

$$$$
