
     RDKit          3D

 24 25  0  0  1  0  0  0  0  0999 V2000
   38.6840   31.9050   47.7630 C   0  0  2  0  0  0  0  0  0  0  0  0
   37.7790   32.4620   48.8990 C   0  0  2  0  0  0  0  0  0  0  0  0
   38.7490   33.3170   49.5980 C   0  0  0  0  0  0  0  0  0  0  0  0
   39.5380   33.9160   48.6200 O   0  0  0  0  0  0  0  0  0  0  0  0
   39.4470   33.1890   47.4600 C   0  0  0  0  0  0  0  0  0  0  0  0
   37.2040   29.7010   51.4200 C   0  0  0  0  0  0  0  0  0  0  0  0
   37.8590   30.7510   50.7230 C   0  0  0  0  0  0  0  0  0  0  0  0
   37.1700   31.3990   49.6640 C   0  0  0  0  0  0  0  0  0  0  0  0
   35.8930   30.9640   49.3770 N   0  0  0  0  0  0  0  0  0  0  0  0
   35.3130   29.9750   50.0550 C   0  0  0  0  0  0  0  0  0  0  0  0
   35.9460   29.3330   51.0750 N   0  0  0  0  0  0  0  0  0  0  0  0
   37.8980   31.5260   46.6780 O   0  0  0  0  0  0  0  0  0  0  0  0
   38.2170   31.6970   45.3510 C   0  0  0  0  0  0  0  0  0  0  0  0
   37.5040   32.4280   44.6150 O   0  0  0  0  0  0  0  0  0  0  0  0
   39.2975   31.0228   47.9984 H   0  0  0  0  0  0  0  0  0  0  0  0
   36.8817   33.0226   48.5982 H   0  0  0  0  0  0  0  0  0  0  0  0
   38.2230   34.0858   50.1831 H   0  0  0  0  0  0  0  0  0  0  0  0
   39.3641   32.7275   50.2938 H   0  0  0  0  0  0  0  0  0  0  0  0
   40.4549   32.9457   47.0927 H   0  0  0  0  0  0  0  0  0  0  0  0
   38.9226   33.7699   46.6870 H   0  0  0  0  0  0  0  0  0  0  0  0
   37.7197   29.1845   52.2430 H   0  0  0  0  0  0  0  0  0  0  0  0
   38.8794   31.0560   50.9981 H   0  0  0  0  0  0  0  0  0  0  0  0
   34.2924   29.6679   49.7827 H   0  0  0  0  0  0  0  0  0  0  0  0
   39.0996   31.1924   44.9309 H   0  0  0  0  0  0  0  0  0  0  0  0
  1  2  1  0
  2  3  1  0
  2  8  1  0
  4  3  1  0
  5  1  1  0
  5  4  1  0
  7  6  2  0
  8  7  1  0
  9  8  2  0
  9 10  1  0
 10 11  2  0
 11  6  1  0
 12  1  1  0
 13 12  1  0
 14 13  2  0
  1 15  1  1
  2 16  1  6
  3 17  1  0
  3 18  1  0
  5 19  1  0
  5 20  1  0
  6 21  1  0
  7 22  1  0
 10 23  1  0
 13 24  1  0
M  ISO  8  15  13  16  13  17  13  18  13  19  13  20  13  21  14  22  14
M  ISO  2  23  14  24   6
M  END
>  <minimizedAffinity>  (1) 
-4.57252836

>  <minimizedRMSD>  (1) 
1.83558369

$$$$
