
     RDKit          3D

 33 35  0  0  1  0  0  0  0  0999 V2000
   34.8600   29.8290   47.4430 C   0  0  0  0  0  0  0  0  0  0  0  0
   35.4270   29.9900   46.1820 C   0  0  0  0  0  0  0  0  0  0  0  0
   36.6180   30.7060   46.3570 C   0  0  0  0  0  0  0  0  0  0  0  0
   36.7200   30.9420   47.6790 N   0  0  0  0  0  0  0  0  0  0  0  0
   35.6710   30.4140   48.2950 N   0  0  0  0  0  0  0  0  0  0  0  0
   38.4450   32.6060   47.5600 N   0  0  0  0  0  0  0  0  0  0  0  0
   39.1200   33.4710   48.5200 C   0  0  0  0  0  0  0  0  0  0  0  0
   38.4880   33.2500   49.8680 C   0  0  0  0  0  0  0  0  0  0  0  0
   37.2020   32.5020   49.4810 C   0  0  0  0  0  0  0  0  0  0  0  0
   37.7390   31.6290   48.3820 C   0  0  1  0  0  0  0  0  0  0  0  0
   38.6460   30.6630   48.9470 N   0  0  0  0  0  0  0  0  0  0  0  0
   33.3150   28.3700   48.7720 C   0  0  0  0  0  0  0  0  0  0  0  0
   33.6040   29.1230   47.6260 C   0  0  0  0  0  0  0  0  0  0  0  0
   32.6250   29.1780   46.6340 C   0  0  0  0  0  0  0  0  0  0  0  0
   31.4630   28.5010   46.8470 N   0  0  0  0  0  0  0  0  0  0  0  0
   31.2200   27.7880   47.9610 C   0  0  0  0  0  0  0  0  0  0  0  0
   32.1630   27.7220   48.9410 N   0  0  0  0  0  0  0  0  0  0  0  0
   29.9410   27.1000   48.0860 C   0  0  0  0  0  0  0  0  0  0  0  0
   29.4930   26.9520   49.2520 O   0  0  0  0  0  0  0  0  0  0  0  0
   35.0174   29.6243   45.2289 H   0  0  0  0  0  0  0  0  0  0  0  0
   37.3264   31.0132   45.5736 H   0  0  0  0  0  0  0  0  0  0  0  0
   39.1286   32.1397   46.9466 H   0  0  0  0  0  0  0  0  0  0  0  0
   40.1897   33.2181   48.5630 H   0  0  0  0  0  0  0  0  0  0  0  0
   39.0227   34.5248   48.2199 H   0  0  0  0  0  0  0  0  0  0  0  0
   39.1300   32.6370   50.5177 H   0  0  0  0  0  0  0  0  0  0  0  0
   38.3162   34.1732   50.4409 H   0  0  0  0  0  0  0  0  0  0  0  0
   36.8052   31.9091   50.3183 H   0  0  0  0  0  0  0  0  0  0  0  0
   36.3564   33.1448   49.1952 H   0  0  0  0  0  0  0  0  0  0  0  0
   38.6015   30.7104   49.9749 H   0  0  0  0  0  0  0  0  0  0  0  0
   38.3794   29.7183   48.6350 H   0  0  0  0  0  0  0  0  0  0  0  0
   34.0727   28.3113   49.5673 H   0  0  0  0  0  0  0  0  0  0  0  0
   32.7866   29.7503   45.7086 H   0  0  0  0  0  0  0  0  0  0  0  0
   29.3955   26.7292   47.2057 H   0  0  0  0  0  0  0  0  0  0  0  0
  1 13  1  0
  1  5  2  0
  2  3  2  0
  2  1  1  0
  3  4  1  0
  4  5  1  0
  4 10  1  0
  6 10  1  0
  6  7  1  0
  7  8  1  0
  9  8  1  0
 10 11  1  1
 10  9  1  0
 12 17  2  0
 13 12  1  0
 14 15  1  0
 14 13  2  0
 15 16  2  0
 16 18  1  0
 16 17  1  0
 18 19  2  0
  2 20  1  0
  3 21  1  0
  6 22  1  0
  7 23  1  0
  7 24  1  0
  8 25  1  0
  8 26  1  0
  9 27  1  0
  9 28  1  0
 11 29  1  0
 11 30  1  0
 12 31  1  0
 14 32  1  0
 18 33  1  0
M  ISO  8  20  14  21  14  22   5  23  13  24  13  25  13  26  13  27  13
M  ISO  6  28  13  29   5  30   5  31  14  32  14  33   6
M  END
>  <minimizedAffinity>  (1) 
-5.11926889

>  <minimizedRMSD>  (1) 
0.551918507

$$$$
