
     RDKit          3D

 26 27  0  0  0  0  0  0  0  0999 V2000
   34.6670   29.9800   47.3650 C   0  0  0  0  0  0  0  0  0  0  0  0
   35.9570   30.3850   46.9050 C   0  0  0  0  0  0  0  0  0  0  0  0
   36.1560   30.4040   45.5510 C   0  0  0  0  0  0  0  0  0  0  0  0
   35.1000   30.0330   44.7570 N   0  0  0  0  0  0  0  0  0  0  0  0
   33.9010   29.6580   45.2020 C   0  0  0  0  0  0  0  0  0  0  0  0
   33.7010   29.6370   46.5240 N   0  0  0  0  0  0  0  0  0  0  0  0
   32.9420   29.3460   44.2350 N   0  0  0  0  0  0  0  0  0  0  0  0
   36.8100   30.7350   48.0330 C   0  0  0  0  0  0  0  0  0  0  0  0
   37.0430   29.7920   49.0520 C   0  0  0  0  0  0  0  0  0  0  0  0
   37.7860   29.9940   50.1670 C   0  0  0  0  0  0  0  0  0  0  0  0
   38.3830   31.1820   50.3830 C   0  0  0  0  0  0  0  0  0  0  0  0
   38.1620   32.0880   49.4080 C   0  0  0  0  0  0  0  0  0  0  0  0
   37.4330   31.8450   48.3430 N   0  0  0  0  0  0  0  0  0  0  0  0
   38.7790   33.4550   49.5360 C   0  0  0  0  0  0  0  0  0  0  0  0
   39.5190   33.8980   48.5940 O   0  0  0  0  0  0  0  0  0  0  0  0
   37.4570   30.8120   45.0180 C   0  0  0  0  0  0  0  0  0  0  0  0
   38.4070   30.1580   45.6570 F   0  0  0  0  0  0  0  0  0  0  0  0
   37.5870   30.6220   43.6550 F   0  0  0  0  0  0  0  0  0  0  0  0
   37.6700   32.2050   45.2210 F   0  0  0  0  0  0  0  0  0  0  0  0
   34.4694   29.9518   48.4467 H   0  0  0  0  0  0  0  0  0  0  0  0
   31.9982   29.0502   44.5224 H   0  0  0  0  0  0  0  0  0  0  0  0
   33.1789   29.4118   43.2348 H   0  0  0  0  0  0  0  0  0  0  0  0
   36.5799   28.8014   48.9322 H   0  0  0  0  0  0  0  0  0  0  0  0
   37.9024   29.1826   50.9005 H   0  0  0  0  0  0  0  0  0  0  0  0
   38.9945   31.3940   51.2725 H   0  0  0  0  0  0  0  0  0  0  0  0
   38.5944   34.0662   50.4317 H   0  0  0  0  0  0  0  0  0  0  0  0
  2  1  2  0
  2  8  1  0
  3  2  1  0
  4  5  1  0
  4  3  2  0
  5  6  2  0
  6  1  1  0
  7  5  1  0
  8 13  1  0
  8  9  2  0
  9 10  1  0
 10 11  2  0
 12 14  1  0
 12 11  1  0
 13 12  2  0
 15 14  2  0
 16 19  1  0
 16  3  1  0
 16 17  1  0
 18 16  1  0
  1 20  1  0
  7 21  1  0
  7 22  1  0
  9 23  1  0
 10 24  1  0
 11 25  1  0
 14 26  1  0
M  ISO  5  20  14  23  14  24  14  25  14  26   6
M  END
>  <minimizedAffinity>  (1) 
-5.24663925

>  <minimizedRMSD>  (1) 
1.39647591

$$$$
