
     RDKit          3D

 17 17  0  0  0  0  0  0  0  0999 V2000
   35.4460   29.1380   50.4300 C   0  0  0  0  0  0  0  0  0  0  0  0
   36.2950   30.0580   49.7830 C   0  0  0  0  0  0  0  0  0  0  0  0
   36.1900   30.1690   48.4060 C   0  0  0  0  0  0  0  0  0  0  0  0
   35.2860   29.4000   47.7340 N   0  0  0  0  0  0  0  0  0  0  0  0
   34.4860   28.5230   48.3990 C   0  0  0  0  0  0  0  0  0  0  0  0
   34.5590   28.3870   49.7450 N   0  0  0  0  0  0  0  0  0  0  0  0
   33.6180   27.8190   47.5260 N   0  0  0  0  0  0  0  0  0  0  0  0
   37.2500   30.8600   50.5890 C   0  0  0  0  0  0  0  0  0  0  0  0
   38.5390   30.7420   50.1190 F   0  0  0  0  0  0  0  0  0  0  0  0
   36.8730   32.1870   50.5120 F   0  0  0  0  0  0  0  0  0  0  0  0
   37.2490   30.5040   51.9260 F   0  0  0  0  0  0  0  0  0  0  0  0
   37.0120   31.0690   47.6660 C   0  0  0  0  0  0  0  0  0  0  0  0
   37.3230   31.2490   46.4810 O   0  0  0  0  0  0  0  0  0  0  0  0
   35.5082   29.0293   51.5228 H   0  0  0  0  0  0  0  0  0  0  0  0
   32.9596   27.1234   47.9049 H   0  0  0  0  0  0  0  0  0  0  0  0
   33.6459   28.0033   46.5130 H   0  0  0  0  0  0  0  0  0  0  0  0
   37.5018   31.8005   48.3255 H   0  0  0  0  0  0  0  0  0  0  0  0
  2  1  2  0
  2  8  1  0
  3  2  1  0
  4  5  1  0
  4  3  2  0
  5  6  2  0
  6  1  1  0
  7  5  1  0
  8 11  1  0
  9  8  1  0
 10  8  1  0
 12  3  1  0
 13 12  2  0
  1 14  1  0
  7 15  1  0
  7 16  1  0
 12 17  1  0
M  ISO  2  14  14  17   6
M  END
>  <minimizedAffinity>  (1) 
-4.61087513

>  <minimizedRMSD>  (1) 
0.438113451

$$$$
