
     RDKit          3D

 28 29  0  0  0  0  0  0  0  0999 V2000
   35.5360   30.2910   49.7980 C   0  0  0  0  0  0  0  0  0  0  0  0
   36.4640   31.2020   49.0180 C   0  0  0  0  0  0  0  0  0  0  0  0
   37.9130   30.8490   49.1790 C   0  0  0  0  0  0  0  0  0  0  0  0
   38.3380   30.7810   50.6210 C   0  0  0  0  0  0  0  0  0  0  0  0
   37.3280   30.1160   51.5050 C   0  0  0  0  0  0  0  0  0  0  0  0
   36.2730   29.3720   50.7120 C   0  0  0  0  0  0  0  0  0  0  0  0
   34.7530   29.4500   48.8430 C   0  0  0  0  0  0  0  0  0  0  0  0
   34.1480   30.1160   47.7620 C   0  0  0  0  0  0  0  0  0  0  0  0
   33.4060   29.3350   46.8740 C   0  0  0  0  0  0  0  0  0  0  0  0
   33.3080   27.9960   47.0970 N   0  0  0  0  0  0  0  0  0  0  0  0
   33.9030   27.3780   48.1500 C   0  0  0  0  0  0  0  0  0  0  0  0
   34.6180   28.1130   49.0090 N   0  0  0  0  0  0  0  0  0  0  0  0
   32.7550   29.9710   45.7340 C   0  0  0  0  0  0  0  0  0  0  0  0
   32.1760   31.0880   45.8640 O   0  0  0  0  0  0  0  0  0  0  0  0
   34.8843   30.9385   50.4030 H   0  0  0  0  0  0  0  0  0  0  0  0
   36.3150   32.2344   49.3672 H   0  0  0  0  0  0  0  0  0  0  0  0
   36.2161   31.0858   47.9526 H   0  0  0  0  0  0  0  0  0  0  0  0
   38.0900   29.8682   48.7134 H   0  0  0  0  0  0  0  0  0  0  0  0
   38.5034   31.6415   48.6959 H   0  0  0  0  0  0  0  0  0  0  0  0
   39.2802   30.2166   50.6812 H   0  0  0  0  0  0  0  0  0  0  0  0
   38.4516   31.8157   50.9766 H   0  0  0  0  0  0  0  0  0  0  0  0
   37.8473   29.4016   52.1607 H   0  0  0  0  0  0  0  0  0  0  0  0
   36.8216   30.8999   52.0873 H   0  0  0  0  0  0  0  0  0  0  0  0
   35.5584   28.9112   51.4099 H   0  0  0  0  0  0  0  0  0  0  0  0
   36.7726   28.6035   50.1039 H   0  0  0  0  0  0  0  0  0  0  0  0
   34.2545   31.2019   47.6227 H   0  0  0  0  0  0  0  0  0  0  0  0
   33.7988   26.2924   48.2939 H   0  0  0  0  0  0  0  0  0  0  0  0
   32.7677   29.4747   44.7524 H   0  0  0  0  0  0  0  0  0  0  0  0
  1  6  1  0
  2  3  1  0
  2  1  1  0
  3  4  1  0
  4  5  1  0
  6  5  1  0
  7 12  1  0
  7  1  1  0
  8  7  2  0
  9 10  2  0
  9  8  1  0
 10 11  1  0
 11 12  2  0
 13 14  2  0
 13  9  1  0
  1 15  1  0
  2 16  1  0
  2 17  1  0
  3 18  1  0
  3 19  1  0
  4 20  1  0
  4 21  1  0
  5 22  1  0
  5 23  1  0
  6 24  1  0
  6 25  1  0
  8 26  1  0
 11 27  1  0
 13 28  1  0
M  ISO  8  15  13  16  13  17  13  18  13  19  13  20  13  21  13  22  13
M  ISO  6  23  13  24  13  25  13  26  14  27  14  28   6
M  END
>  <minimizedAffinity>  (1) 
-4.86652136

>  <minimizedRMSD>  (1) 
0.228983283

$$$$
