
     RDKit          3D

 38 40  0  0  1  0  0  0  0  0999 V2000
   39.7170   32.8110   45.6130 C   0  0  0  0  0  0  0  0  0  0  0  0
   37.6920   30.9880   47.9450 C   0  0  0  0  0  0  0  0  0  0  0  0
   36.9680   30.8520   46.8020 C   0  0  0  0  0  0  0  0  0  0  0  0
   37.6380   31.5110   45.7900 C   0  0  0  0  0  0  0  0  0  0  0  0
   38.7430   32.0210   46.3560 N   0  0  0  0  0  0  0  0  0  0  0  0
   38.7620   31.7000   47.6450 N   0  0  0  0  0  0  0  0  0  0  0  0
   37.4020   30.1360   51.6060 C   0  0  0  0  0  0  0  0  0  0  0  0
   37.9190   30.6580   50.4350 C   0  0  0  0  0  0  0  0  0  0  0  0
   37.2630   30.4600   49.2310 C   0  0  0  0  0  0  0  0  0  0  0  0
   36.1210   29.7360   49.3200 N   0  0  0  0  0  0  0  0  0  0  0  0
   35.6220   29.2300   50.4640 C   0  0  0  0  0  0  0  0  0  0  0  0
   36.2800   29.4410   51.6040 N   0  0  0  0  0  0  0  0  0  0  0  0
   40.6480   31.9560   44.9120 C   0  0  0  0  0  0  0  0  0  0  0  0
   40.4000   31.6510   43.5610 N   0  0  0  0  0  0  0  0  0  0  0  0
   39.6220   32.5730   42.8250 C   0  0  0  0  0  0  0  0  0  0  0  0
   38.3260   32.0920   42.3010 C   0  0  0  0  0  0  0  0  0  0  0  0
   38.4580   30.7860   41.7430 O   0  0  0  0  0  0  0  0  0  0  0  0
   38.8550   29.9590   42.7740 C   0  0  0  0  0  0  0  0  0  0  0  0
   40.2650   30.3280   43.1500 C   0  0  1  0  0  0  0  0  0  0  0  0
   41.1460   29.9190   42.0330 C   0  0  0  0  0  0  0  0  0  0  0  0
   41.8120   28.8780   42.0760 O   0  0  0  0  0  0  0  0  0  0  0  0
   39.1879   33.4417   44.8835 H   0  0  0  0  0  0  0  0  0  0  0  0
   40.2793   33.4345   46.3237 H   0  0  0  0  0  0  0  0  0  0  0  0
   36.0152   30.3116   46.7011 H   0  0  0  0  0  0  0  0  0  0  0  0
   37.3298   31.5996   44.7378 H   0  0  0  0  0  0  0  0  0  0  0  0
   37.9341   30.3025   52.5543 H   0  0  0  0  0  0  0  0  0  0  0  0
   38.8561   31.2335   50.4593 H   0  0  0  0  0  0  0  0  0  0  0  0
   34.6863   28.6517   50.4578 H   0  0  0  0  0  0  0  0  0  0  0  0
   41.6330   32.4434   44.9583 H   0  0  0  0  0  0  0  0  0  0  0  0
   40.5590   30.9871   45.4251 H   0  0  0  0  0  0  0  0  0  0  0  0
   39.4162   33.4314   43.4813 H   0  0  0  0  0  0  0  0  0  0  0  0
   40.2222   32.8039   41.9326 H   0  0  0  0  0  0  0  0  0  0  0  0
   37.5943   32.0611   43.1218 H   0  0  0  0  0  0  0  0  0  0  0  0
   37.9878   32.7798   41.5119 H   0  0  0  0  0  0  0  0  0  0  0  0
   38.1900   30.0958   43.6394 H   0  0  0  0  0  0  0  0  0  0  0  0
   38.8066   28.9061   42.4594 H   0  0  0  0  0  0  0  0  0  0  0  0
   40.5763   29.7819   44.0527 H   0  0  0  0  0  0  0  0  0  0  0  0
   41.2100   30.5586   41.1403 H   0  0  0  0  0  0  0  0  0  0  0  0
  1  5  1  0
  2  9  1  0
  3  2  1  0
  4  5  1  0
  4  3  2  0
  5  6  1  0
  6  2  2  0
  8  7  2  0
  9 10  2  0
  9  8  1  0
 10 11  1  0
 11 12  2  0
 12  7  1  0
 13  1  1  0
 14 13  1  0
 15 14  1  0
 16 15  1  0
 17 16  1  0
 17 18  1  0
 18 19  1  0
 19 14  1  0
 20 21  2  0
 20 19  1  0
  1 22  1  0
  1 23  1  0
  3 24  1  0
  4 25  1  0
  7 26  1  0
  8 27  1  0
 11 28  1  0
 13 29  1  0
 13 30  1  0
 15 31  1  0
 15 32  1  0
 16 33  1  0
 16 34  1  0
 18 35  1  0
 18 36  1  0
 19 37  1  1
 20 38  1  0
M  ISO  8  22   8  23   8  24  14  25  14  26  14  27  14  28  14  29   8
M  ISO  8  30   8  31  13  32  13  33  13  34  13  35  13  36  13  37  13
M  ISO  1  38   6
M  END
>  <minimizedAffinity>  (1) 
-5.46223116

>  <minimizedRMSD>  (1) 
0.233833238

$$$$
