
     RDKit          3D

 26 27  0  0  1  0  0  0  0  0999 V2000
   37.8350   31.0890   47.7660 N   0  0  0  0  0  0  0  0  0  0  0  0
   37.5310   30.6210   46.4080 C   0  0  0  0  0  0  0  0  0  0  0  0
   38.4800   31.1600   45.4030 C   0  0  0  0  0  0  0  0  0  0  0  0
   39.7350   31.4670   46.0240 N   0  0  0  0  0  0  0  0  0  0  0  0
   39.4740   32.6610   46.8510 C   0  0  0  0  0  0  0  0  0  0  0  0
   38.8260   32.1100   48.0920 C   0  0  1  0  0  0  0  0  0  0  0  0
   37.7760   29.9180   49.9360 C   0  0  0  0  0  0  0  0  0  0  0  0
   37.1260   30.5230   48.8610 C   0  0  0  0  0  0  0  0  0  0  0  0
   35.7220   30.5590   48.8900 C   0  0  0  0  0  0  0  0  0  0  0  0
   35.0760   30.0030   49.9670 N   0  0  0  0  0  0  0  0  0  0  0  0
   35.7720   29.4310   50.9780 C   0  0  0  0  0  0  0  0  0  0  0  0
   37.1320   29.3800   50.9790 N   0  0  0  0  0  0  0  0  0  0  0  0
   38.3300   33.1340   49.0240 C   0  0  0  0  0  0  0  0  0  0  0  0
   39.1340   33.7840   49.6800 O   0  0  0  0  0  0  0  0  0  0  0  0
   37.5843   29.5224   46.3919 H   0  0  0  0  0  0  0  0  0  0  0  0
   36.5238   30.9773   46.1460 H   0  0  0  0  0  0  0  0  0  0  0  0
   38.0599   32.0751   44.9603 H   0  0  0  0  0  0  0  0  0  0  0  0
   38.6416   30.4048   44.6197 H   0  0  0  0  0  0  0  0  0  0  0  0
   40.0490   30.6817   46.6119 H   0  0  0  0  0  0  0  0  0  0  0  0
   40.4127   33.1789   47.0971 H   0  0  0  0  0  0  0  0  0  0  0  0
   38.8435   33.4019   46.3376 H   0  0  0  0  0  0  0  0  0  0  0  0
   39.6270   31.6133   48.6592 H   0  0  0  0  0  0  0  0  0  0  0  0
   38.8753   29.8809   49.9265 H   0  0  0  0  0  0  0  0  0  0  0  0
   35.1535   31.0215   48.0697 H   0  0  0  0  0  0  0  0  0  0  0  0
   35.2214   28.9943   51.8242 H   0  0  0  0  0  0  0  0  0  0  0  0
   37.2500   33.3137   49.1304 H   0  0  0  0  0  0  0  0  0  0  0  0
  1  6  1  0
  1  8  1  0
  2  1  1  0
  3  4  1  0
  3  2  1  0
  4  5  1  0
  5  6  1  0
  6 13  1  0
  7 12  2  0
  8  9  2  0
  8  7  1  0
  9 10  1  0
 10 11  2  0
 11 12  1  0
 13 14  2  0
  2 15  1  0
  2 16  1  0
  3 17  1  0
  3 18  1  0
  4 19  1  0
  5 20  1  0
  5 21  1  0
  6 22  1  1
  7 23  1  0
  9 24  1  0
 11 25  1  0
 13 26  1  0
M  ISO  8  15  13  16  13  17  13  18  13  19   5  20  13  21  13  22  13
M  ISO  4  23  14  24  14  25  14  26   6
M  END
>  <minimizedAffinity>  (1) 
-4.48212242

>  <minimizedRMSD>  (1) 
0.895981669

$$$$
