
     RDKit          3D

 47 49  0  0  1  0  0  0  0  0999 V2000
   27.1850   28.2940   49.4980 C   0  0  0  0  0  0  0  0  0  0  0  0
   28.5420   27.9410   49.4860 C   0  0  0  0  0  0  0  0  0  0  0  0
   29.1230   27.2820   50.5510 C   0  0  0  0  0  0  0  0  0  0  0  0
   28.3500   26.9680   51.6400 C   0  0  0  0  0  0  0  0  0  0  0  0
   27.0380   27.3040   51.6580 C   0  0  0  0  0  0  0  0  0  0  0  0
   26.4110   27.9600   50.6270 C   0  0  0  0  0  0  0  0  0  0  0  0
   26.3810   29.1250   48.1860 S   0  0  0  0  0  0  0  0  0  0  0  0
   26.3750   28.2990   46.9550 O   0  0  0  0  0  0  0  0  0  0  0  0
   24.9540   29.4510   48.6400 O   0  0  0  0  0  0  0  0  0  0  0  0
   27.1390   30.6750   47.8430 C   0  0  1  0  0  0  0  0  0  0  0  0
   27.5920   30.6550   46.3980 C   0  0  0  0  0  0  0  0  0  0  0  0
   26.4520   31.3740   45.7170 C   0  0  0  0  0  0  0  0  0  0  0  0
   26.1240   32.3670   46.6040 O   0  0  0  0  0  0  0  0  0  0  0  0
   26.2020   31.8460   47.8960 C   0  0  0  0  0  0  0  0  0  0  0  0
   29.1690   28.3290   48.3260 O   0  0  0  0  0  0  0  0  0  0  0  0
   30.3940   26.1740   47.4220 O   0  0  0  0  0  0  0  0  0  0  0  0
   30.5720   27.6730   47.6590 P   0  0  1  0  0  0  0  0  0  0  0  0
   30.9860   28.4800   46.2220 O   0  0  0  0  0  0  0  0  0  0  0  0
   31.8840   27.7960   48.7380 O   0  0  0  0  0  0  0  0  0  0  0  0
   33.0420   27.3610   48.0650 C   0  0  0  0  0  0  0  0  0  0  0  0
   34.5810   28.3670   49.6950 C   0  0  0  0  0  0  0  0  0  0  0  0
   34.2400   28.1450   48.4590 C   0  0  0  0  0  0  0  0  0  0  0  0
   37.3060   30.1870   51.3430 C   0  0  0  0  0  0  0  0  0  0  0  0
   38.0580   30.6390   50.2520 C   0  0  0  0  0  0  0  0  0  0  0  0
   37.6120   30.3100   48.9620 C   0  0  0  0  0  0  0  0  0  0  0  0
   36.4710   29.5660   48.9030 N   0  0  0  0  0  0  0  0  0  0  0  0
   35.7810   29.1530   49.9480 C   0  0  0  0  0  0  0  0  0  0  0  0
   36.2180   29.4760   51.1590 N   0  0  0  0  0  0  0  0  0  0  0  0
   30.1893   27.0129   50.5267 H   0  0  0  0  0  0  0  0  0  0  0  0
   28.7955   26.4436   52.4982 H   0  0  0  0  0  0  0  0  0  0  0  0
   26.4437   27.0376   52.5445 H   0  0  0  0  0  0  0  0  0  0  0  0
   25.3425   28.2156   50.6808 H   0  0  0  0  0  0  0  0  0  0  0  0
   27.9289   30.7941   48.5992 H   0  0  0  0  0  0  0  0  0  0  0  0
   28.5424   31.1932   46.2670 H   0  0  0  0  0  0  0  0  0  0  0  0
   27.7877   29.6474   46.0025 H   0  0  0  0  0  0  0  0  0  0  0  0
   26.7736   31.7975   44.7541 H   0  0  0  0  0  0  0  0  0  0  0  0
   25.6057   30.7111   45.4841 H   0  0  0  0  0  0  0  0  0  0  0  0
   25.2070   31.5183   48.2316 H   0  0  0  0  0  0  0  0  0  0  0  0
   26.5644   32.6061   48.6037 H   0  0  0  0  0  0  0  0  0  0  0  0
   31.4267   29.3390   46.4411 H   0  0  0  0  0  0  0  0  0  0  0  0
   32.8859   27.4707   46.9817 H   0  0  0  0  0  0  0  0  0  0  0  0
   33.2188   26.3097   48.3362 H   0  0  0  0  0  0  0  0  0  0  0  0
   33.9791   27.9717   50.5266 H   0  0  0  0  0  0  0  0  0  0  0  0
   34.8741   28.5610   47.6622 H   0  0  0  0  0  0  0  0  0  0  0  0
   37.6304   30.4303   52.3655 H   0  0  0  0  0  0  0  0  0  0  0  0
   38.9710   31.2341   50.4010 H   0  0  0  0  0  0  0  0  0  0  0  0
   38.1485   30.6318   48.0572 H   0  0  0  0  0  0  0  0  0  0  0  0
  1  6  2  0
  2  1  1  0
  2  3  2  0
  3  4  1  0
  4  5  2  0
  6  5  1  0
  7  9  2  0
  7  1  1  0
  8  7  2  0
 10 14  1  0
 10  7  1  0
 11 10  1  0
 12 11  1  0
 12 13  1  0
 13 14  1  0
 15  2  1  0
 17 16  2  0
 17 15  1  0
 17 19  1  0
 18 17  1  0
 20 22  1  0
 20 19  1  0
 21 27  1  0
 22 21  2  0
 24 23  2  0
 25 24  1  0
 26 25  2  0
 26 27  1  0
 27 28  2  0
 28 23  1  0
  3 29  1  0
  4 30  1  0
  5 31  1  0
  6 32  1  0
 10 33  1  1
 11 34  1  0
 11 35  1  0
 12 36  1  0
 12 37  1  0
 14 38  1  0
 14 39  1  0
 18 40  1  0
 20 41  1  0
 20 42  1  0
 21 43  1  0
 22 44  1  0
 23 45  1  0
 24 46  1  0
 25 47  1  0
M  ISO  8  29  14  30  14  31  14  32  14  33  13  34  13  35  13  36  13
M  ISO  8  37  13  38  13  39  13  40   3  41   8  42   8  45  14  46  14
M  ISO  1  47  14
M  END
>  <minimizedAffinity>  (1) 
-6.82562923

>  <minimizedRMSD>  (1) 
2.02669954

$$$$
