
     RDKit          3D

 29 30  0  0  1  0  0  0  0  0999 V2000
   39.3280   32.5060   46.6560 C   0  0  0  0  0  0  0  0  0  0  0  0
   38.1040   30.8030   47.9430 C   0  0  0  0  0  0  0  0  0  0  0  0
   38.6500   31.9900   47.8850 C   0  0  0  0  0  0  0  0  0  0  0  0
   37.2410   30.1310   51.4910 C   0  0  0  0  0  0  0  0  0  0  0  0
   37.9390   30.6390   50.3850 C   0  0  0  0  0  0  0  0  0  0  0  0
   37.4600   30.3310   49.1320 C   0  0  0  0  0  0  0  0  0  0  0  0
   36.3460   29.5610   48.9970 N   0  0  0  0  0  0  0  0  0  0  0  0
   35.7020   29.0910   50.0920 C   0  0  0  0  0  0  0  0  0  0  0  0
   36.1390   29.3690   51.3320 N   0  0  0  0  0  0  0  0  0  0  0  0
   40.0960   31.1300   45.7500 S   0  0  0  0  0  0  0  0  0  0  0  0
   40.5130   31.7070   44.0940 C   0  0  1  0  0  0  0  0  0  0  0  0
   40.3770   30.5950   43.0530 C   0  0  0  0  0  0  0  0  0  0  0  0
   40.0400   31.4110   41.8210 C   0  0  0  0  0  0  0  0  0  0  0  0
   39.1370   32.3330   42.3260 O   0  0  0  0  0  0  0  0  0  0  0  0
   39.5550   32.7310   43.5700 C   0  0  0  0  0  0  0  0  0  0  0  0
   38.5867   32.9994   46.0102 H   0  0  0  0  0  0  0  0  0  0  0  0
   40.1059   33.2273   46.9470 H   0  0  0  0  0  0  0  0  0  0  0  0
   38.1403   30.1516   47.0574 H   0  0  0  0  0  0  0  0  0  0  0  0
   38.6089   32.6344   48.7756 H   0  0  0  0  0  0  0  0  0  0  0  0
   37.5987   30.3581   52.5061 H   0  0  0  0  0  0  0  0  0  0  0  0
   38.8369   31.2611   50.5147 H   0  0  0  0  0  0  0  0  0  0  0  0
   34.8035   28.4695   49.9637 H   0  0  0  0  0  0  0  0  0  0  0  0
   41.5358   32.0939   44.2133 H   0  0  0  0  0  0  0  0  0  0  0  0
   41.3178   30.0390   42.9272 H   0  0  0  0  0  0  0  0  0  0  0  0
   39.6396   29.8186   43.3048 H   0  0  0  0  0  0  0  0  0  0  0  0
   39.5799   30.7864   41.0411 H   0  0  0  0  0  0  0  0  0  0  0  0
   40.9162   31.8668   41.3368 H   0  0  0  0  0  0  0  0  0  0  0  0
   40.0564   33.7075   43.4991 H   0  0  0  0  0  0  0  0  0  0  0  0
   38.6933   32.8253   44.2471 H   0  0  0  0  0  0  0  0  0  0  0  0
  1  3  1  0
  2  6  1  0
  3  2  2  0
  5  4  2  0
  6  5  1  0
  7  6  2  0
  7  8  1  0
  8  9  2  0
  9  4  1  0
 10  1  1  0
 11 10  1  0
 12 11  1  0
 13 14  1  0
 13 12  1  0
 14 15  1  0
 15 11  1  0
  1 16  1  0
  1 17  1  0
  2 18  1  0
  3 19  1  0
  4 20  1  0
  5 21  1  0
  8 22  1  0
 11 23  1  1
 12 24  1  0
 12 25  1  0
 13 26  1  0
 13 27  1  0
 15 28  1  0
 15 29  1  0
M  ISO  8  16   8  17   8  20  14  21  14  22  14  23  13  24  13  25  13
M  ISO  4  26  13  27  13  28  13  29  13
M  END
>  <minimizedAffinity>  (1) 
-4.8897934

>  <minimizedRMSD>  (1) 
1.75814235

$$$$
