
     RDKit          3D

 35 36  0  0  1  0  0  0  0  0999 V2000
   36.9960   29.2890   50.7720 C   0  0  0  0  0  0  0  0  0  0  0  0
   37.7760   30.5550   50.9010 C   0  0  0  0  0  0  0  0  0  0  0  0
   38.1170   31.1930   49.6350 C   0  0  0  0  0  0  0  0  0  0  0  0
   38.5630   32.5040   49.5340 C   0  0  0  0  0  0  0  0  0  0  0  0
   38.8640   33.0190   48.2660 C   0  0  0  0  0  0  0  0  0  0  0  0
   38.6990   32.1940   47.1890 N   0  0  0  0  0  0  0  0  0  0  0  0
   38.2600   30.9100   47.3210 C   0  0  0  0  0  0  0  0  0  0  0  0
   37.9720   30.4280   48.5660 N   0  0  0  0  0  0  0  0  0  0  0  0
   35.7230   29.5120   51.3090 O   0  0  0  0  0  0  0  0  0  0  0  0
   34.6970   30.4900   49.1190 O   0  0  0  0  0  0  0  0  0  0  0  0
   34.5200   29.3600   50.1200 P   0  0  0  0  0  0  0  0  0  0  0  0
   32.9800   29.5760   50.7620 O   0  0  0  0  0  0  0  0  0  0  0  0
   34.5830   27.8630   49.3690 O   0  0  0  0  0  0  0  0  0  0  0  0
   33.9170   27.9480   48.1670 C   0  0  1  0  0  0  0  0  0  0  0  0
   32.4130   27.8510   48.2730 C   0  0  0  0  0  0  0  0  0  0  0  0
   32.0080   28.5820   47.0080 C   0  0  0  0  0  0  0  0  0  0  0  0
   32.9780   29.5120   46.7190 O   0  0  0  0  0  0  0  0  0  0  0  0
   34.0530   29.3220   47.5450 C   0  0  0  0  0  0  0  0  0  0  0  0
   36.9106   29.0089   49.7117 H   0  0  0  0  0  0  0  0  0  0  0  0
   37.5004   28.4716   51.3081 H   0  0  0  0  0  0  0  0  0  0  0  0
   37.1804   31.2654   51.4931 H   0  0  0  0  0  0  0  0  0  0  0  0
   38.7291   30.2850   51.3791 H   0  0  0  0  0  0  0  0  0  0  0  0
   38.6780   33.1271   50.4332 H   0  0  0  0  0  0  0  0  0  0  0  0
   39.2209   34.0520   48.1417 H   0  0  0  0  0  0  0  0  0  0  0  0
   38.1391   30.2696   46.4349 H   0  0  0  0  0  0  0  0  0  0  0  0
   34.8306   31.3426   49.6041 H   0  0  0  0  0  0  0  0  0  0  0  0
    0.0000    0.0000    0.0000 H   0  0  0  0  0  0  0  0  0  0  0  0
   33.0307   29.5689   51.7507 H   0  0  0  0  0  0  0  0  0  0  0  0
   34.3652   27.1179   47.6013 H   0  0  0  0  0  0  0  0  0  0  0  0
   32.0706   26.8057   48.2670 H   0  0  0  0  0  0  0  0  0  0  0  0
   31.9880   28.2626   49.2003 H   0  0  0  0  0  0  0  0  0  0  0  0
   31.9189   27.8667   46.1771 H   0  0  0  0  0  0  0  0  0  0  0  0
   31.0368   29.0784   47.1509 H   0  0  0  0  0  0  0  0  0  0  0  0
   34.9861   29.3804   46.9653 H   0  0  0  0  0  0  0  0  0  0  0  0
   34.0821   30.0973   48.3248 H   0  0  0  0  0  0  0  0  0  0  0  0
  1  2  1  0
  1  9  1  0
  3  2  1  0
  4  3  2  0
  5  4  1  0
  6  7  1  0
  6  5  2  0
  7  8  2  0
  8  3  1  0
 10 11  1  0
 11 12  1  0
 11  9  1  0
 13 11  1  0
 14 15  1  0
 14 13  1  0
 16 15  1  0
 17 16  1  0
 17 18  1  0
 18 14  1  0
  1 19  1  0
  1 20  1  0
  2 21  1  0
  2 22  1  0
  4 23  1  0
  5 24  1  0
  7 25  1  0
 10 26  1  0
 11 27  1  0
 12 28  1  0
 14 29  1  6
 15 30  1  0
 15 31  1  0
 16 32  1  0
 16 33  1  0
 18 34  1  0
 18 35  1  0
M  ISO  8  19   8  20   8  21   8  22   8  23  14  24  14  25  14  26   3
M  ISO  8  28   3  29  13  30  13  31  13  32  13  33  13  34  13  35  13
M  END
>  <minimizedAffinity>  (1) 
-5.0984931

>  <minimizedRMSD>  (1) 
0.746402383

$$$$
