
     RDKit          3D

 26 27  0  0  1  0  0  0  0  0999 V2000
   35.4140   29.5360   50.3750 C   0  0  0  0  0  0  0  0  0  0  0  0
   37.2000   29.5190   50.3970 S   0  0  0  0  0  0  0  0  0  0  0  0
   37.8170   30.6440   49.1750 C   0  0  0  0  0  0  0  0  0  0  0  0
   38.2140   31.8810   49.6740 C   0  0  0  0  0  0  0  0  0  0  0  0
   38.7140   32.8300   48.7680 C   0  0  0  0  0  0  0  0  0  0  0  0
   38.7830   32.4820   47.4340 N   0  0  0  0  0  0  0  0  0  0  0  0
   38.3860   31.2740   47.0150 C   0  0  0  0  0  0  0  0  0  0  0  0
   37.9090   30.3680   47.8690 N   0  0  0  0  0  0  0  0  0  0  0  0
   34.7010   28.2160   49.3580 S   0  0  0  0  0  0  0  0  0  0  0  0
   34.1640   28.7420   47.7490 C   0  0  2  0  0  0  0  0  0  0  0  0
   34.2130   30.2380   47.5190 C   0  0  0  0  0  0  0  0  0  0  0  0
   33.3010   30.3250   46.2960 C   0  0  0  0  0  0  0  0  0  0  0  0
   32.3240   29.3610   46.4490 O   0  0  0  0  0  0  0  0  0  0  0  0
   32.7220   28.4600   47.4240 C   0  0  0  0  0  0  0  0  0  0  0  0
   35.0503   29.4180   51.4064 H   0  0  0  0  0  0  0  0  0  0  0  0
   35.1012   30.4940   49.9341 H   0  0  0  0  0  0  0  0  0  0  0  0
   38.1382   32.1087   50.7475 H   0  0  0  0  0  0  0  0  0  0  0  0
   39.0414   33.8224   49.1114 H   0  0  0  0  0  0  0  0  0  0  0  0
   38.4547   31.0242   45.9459 H   0  0  0  0  0  0  0  0  0  0  0  0
   34.8742   28.1676   47.1360 H   0  0  0  0  0  0  0  0  0  0  0  0
   33.8097   30.7997   48.3744 H   0  0  0  0  0  0  0  0  0  0  0  0
   35.2193   30.6627   47.3884 H   0  0  0  0  0  0  0  0  0  0  0  0
   33.8791   30.1343   45.3798 H   0  0  0  0  0  0  0  0  0  0  0  0
   32.8534   31.3263   46.2116 H   0  0  0  0  0  0  0  0  0  0  0  0
   32.1037   28.5861   48.3250 H   0  0  0  0  0  0  0  0  0  0  0  0
   32.6038   27.4272   47.0644 H   0  0  0  0  0  0  0  0  0  0  0  0
  1  2  1  0
  3  4  2  0
  3  2  1  0
  5  4  1  0
  6  5  2  0
  7  6  1  0
  7  8  2  0
  8  3  1  0
  9  1  1  0
 10  9  1  0
 11 10  1  0
 12 13  1  0
 12 11  1  0
 13 14  1  0
 14 10  1  0
  1 15  1  0
  1 16  1  0
  4 17  1  0
  5 18  1  0
  7 19  1  0
 10 20  1  6
 11 21  1  0
 11 22  1  0
 12 23  1  0
 12 24  1  0
 14 25  1  0
 14 26  1  0
M  ISO  8  15   8  16   8  17  14  18  14  19  14  20  13  21  13  22  13
M  ISO  4  23  13  24  13  25  13  26  13
M  END
>  <minimizedAffinity>  (1) 
-4.00636244

>  <minimizedRMSD>  (1) 
2.30708933

$$$$
