
     RDKit          3D

 35 37  0  0  1  0  0  0  0  0999 V2000
   37.4240   31.2140   49.0600 C   0  0  0  0  0  0  0  0  0  0  0  0
   38.4350   32.1550   49.1010 C   0  0  0  0  0  0  0  0  0  0  0  0
   38.8980   32.5810   47.8590 C   0  0  0  0  0  0  0  0  0  0  0  0
   38.3500   32.0690   46.7120 N   0  0  0  0  0  0  0  0  0  0  0  0
   37.3580   31.1480   46.7210 C   0  0  0  0  0  0  0  0  0  0  0  0
   36.8920   30.7160   47.9260 N   0  0  0  0  0  0  0  0  0  0  0  0
   36.8700   30.7460   50.3770 C   0  0  0  0  0  0  0  0  0  0  0  0
   35.9410   29.6720   50.4970 C   0  0  0  0  0  0  0  0  0  0  0  0
   37.4060   29.3550   50.7780 C   0  0  0  0  0  0  0  0  0  0  0  0
   36.7680   30.6100   45.5020 C   0  0  0  0  0  0  0  0  0  0  0  0
   37.8870   30.6480   43.2680 C   0  0  0  0  0  0  0  0  0  0  0  0
   36.9950   31.3780   42.7150 O   0  0  0  0  0  0  0  0  0  0  0  0
   37.8620   30.2330   44.6230 N   0  0  0  0  0  0  0  0  0  0  0  0
   39.0540   30.1820   42.4500 C   0  0  2  0  0  0  0  0  0  0  0  0
   39.3260   28.7030   42.6320 C   0  0  0  0  0  0  0  0  0  0  0  0
   40.7960   28.6980   42.1950 C   0  0  0  0  0  0  0  0  0  0  0  0
   41.3480   29.8620   42.6850 O   0  0  0  0  0  0  0  0  0  0  0  0
   40.3460   30.7250   43.0750 C   0  0  0  0  0  0  0  0  0  0  0  0
   38.8445   32.5398   50.0467 H   0  0  0  0  0  0  0  0  0  0  0  0
   39.7031   33.3280   47.7984 H   0  0  0  0  0  0  0  0  0  0  0  0
   36.8215   31.7677   50.7816 H   0  0  0  0  0  0  0  0  0  0  0  0
   35.2181   29.6714   51.3261 H   0  0  0  0  0  0  0  0  0  0  0  0
   35.1863   29.2413   49.8225 H   0  0  0  0  0  0  0  0  0  0  0  0
   37.9973   28.7548   50.0708 H   0  0  0  0  0  0  0  0  0  0  0  0
   37.9918   28.9266   51.6046 H   0  0  0  0  0  0  0  0  0  0  0  0
   36.1539   29.7285   45.7382 H   0  0  0  0  0  0  0  0  0  0  0  0
   36.1205   31.3571   45.0198 H   0  0  0  0  0  0  0  0  0  0  0  0
   38.6314   29.6551   44.9904 H   0  0  0  0  0  0  0  0  0  0  0  0
   38.8201   30.4819   41.4178 H   0  0  0  0  0  0  0  0  0  0  0  0
   39.2013   28.3824   43.6768 H   0  0  0  0  0  0  0  0  0  0  0  0
   38.6588   28.0198   42.0860 H   0  0  0  0  0  0  0  0  0  0  0  0
   41.3153   27.8238   42.6146 H   0  0  0  0  0  0  0  0  0  0  0  0
   40.8880   28.6412   41.1003 H   0  0  0  0  0  0  0  0  0  0  0  0
   40.5514   31.7409   42.7064 H   0  0  0  0  0  0  0  0  0  0  0  0
   40.2695   30.7852   44.1707 H   0  0  0  0  0  0  0  0  0  0  0  0
  1  2  2  0
  1  7  1  0
  3  2  1  0
  4  5  1  0
  4  3  2  0
  5  6  2  0
  6  1  1  0
  7  8  1  0
  7  9  1  0
  8  9  1  0
 10  5  1  0
 11 13  1  0
 12 11  2  0
 13 10  1  0
 14 15  1  0
 14 18  1  0
 14 11  1  0
 16 15  1  0
 16 17  1  0
 17 18  1  0
  2 19  1  0
  3 20  1  0
  7 21  1  0
  8 22  1  0
  8 23  1  0
  9 24  1  0
  9 25  1  0
 10 26  1  0
 10 27  1  0
 13 28  1  0
 14 29  1  6
 15 30  1  0
 15 31  1  0
 16 32  1  0
 16 33  1  0
 18 34  1  0
 18 35  1  0
M  ISO  8  19  14  20  14  21  13  22  13  23  13  24  13  25  13  26   8
M  ISO  8  27   8  29  13  30  13  31  13  32  13  33  13  34  13  35  13
M  END
>  <minimizedAffinity>  (1) 
-4.95426273

>  <minimizedRMSD>  (1) 
3.22276831

$$$$
