
     RDKit          3D

 48 51  0  0  1  0  0  0  0  0999 V2000
   35.2410   30.2430   49.9860 C   0  0  2  0  0  0  0  0  0  0  0  0
   36.1780   31.1830   49.3150 C   0  0  0  0  0  0  0  0  0  0  0  0
   37.6250   30.7000   49.3290 C   0  0  2  0  0  0  0  0  0  0  0  0
   38.0800   30.6120   50.7690 C   0  0  0  0  0  0  0  0  0  0  0  0
   37.0890   29.8570   51.6300 C   0  0  0  0  0  0  0  0  0  0  0  0
   35.9920   29.2190   50.8110 C   0  0  0  0  0  0  0  0  0  0  0  0
   38.4940   31.4530   48.4260 C   0  0  2  0  0  0  0  0  0  0  0  0
   38.7500   32.9000   48.8290 C   0  0  0  0  0  0  0  0  0  0  0  0
   39.4710   33.3380   47.5420 C   0  0  0  0  0  0  0  0  0  0  0  0
   38.7260   32.7850   46.5300 O   0  0  0  0  0  0  0  0  0  0  0  0
   38.0690   31.6480   47.0290 C   0  0  1  0  0  0  0  0  0  0  0  0
   38.4630   30.5450   46.0680 C   0  0  2  0  0  0  0  0  0  0  0  0
   39.8390   30.8650   45.5090 C   0  0  0  0  0  0  0  0  0  0  0  0
   39.7480   30.3940   44.0820 C   0  0  0  0  0  0  0  0  0  0  0  0
   38.4540   30.0190   43.8040 O   0  0  0  0  0  0  0  0  0  0  0  0
   37.6350   30.4980   44.8130 C   0  0  0  0  0  0  0  0  0  0  0  0
   34.3880   29.5010   49.0340 C   0  0  0  0  0  0  0  0  0  0  0  0
   34.3440   30.0150   47.7380 C   0  0  0  0  0  0  0  0  0  0  0  0
   33.5820   29.3570   46.7960 C   0  0  0  0  0  0  0  0  0  0  0  0
   32.8920   28.2170   47.1710 N   0  0  0  0  0  0  0  0  0  0  0  0
   32.9580   27.7420   48.4500 C   0  0  0  0  0  0  0  0  0  0  0  0
   33.6980   28.3910   49.3380 N   0  0  0  0  0  0  0  0  0  0  0  0
   34.6055   30.8754   50.6234 H   0  0  0  0  0  0  0  0  0  0  0  0
   36.1283   32.1537   49.8301 H   0  0  0  0  0  0  0  0  0  0  0  0
   35.8682   31.2581   48.2622 H   0  0  0  0  0  0  0  0  0  0  0  0
   37.6948   29.6880   48.9036 H   0  0  0  0  0  0  0  0  0  0  0  0
   39.0493   30.0932   50.8045 H   0  0  0  0  0  0  0  0  0  0  0  0
   38.1630   31.6356   51.1631 H   0  0  0  0  0  0  0  0  0  0  0  0
   37.6251   29.0690   52.1792 H   0  0  0  0  0  0  0  0  0  0  0  0
   36.6218   30.5771   52.3178 H   0  0  0  0  0  0  0  0  0  0  0  0
   35.2847   28.7200   51.4898 H   0  0  0  0  0  0  0  0  0  0  0  0
   36.4543   28.4964   50.1225 H   0  0  0  0  0  0  0  0  0  0  0  0
   39.3536   30.7712   48.5056 H   0  0  0  0  0  0  0  0  0  0  0  0
   37.8181   33.4592   48.9987 H   0  0  0  0  0  0  0  0  0  0  0  0
   39.2946   33.0560   49.7719 H   0  0  0  0  0  0  0  0  0  0  0  0
   39.4877   34.4347   47.4589 H   0  0  0  0  0  0  0  0  0  0  0  0
   40.5211   33.0115   47.5171 H   0  0  0  0  0  0  0  0  0  0  0  0
   36.9713   31.7031   47.0735 H   0  0  0  0  0  0  0  0  0  0  0  0
   38.3656   29.6162   46.6493 H   0  0  0  0  0  0  0  0  0  0  0  0
   40.0425   31.9450   45.5558 H   0  0  0  0  0  0  0  0  0  0  0  0
   40.6549   30.3863   46.0703 H   0  0  0  0  0  0  0  0  0  0  0  0
   40.0463   31.2097   43.4070 H   0  0  0  0  0  0  0  0  0  0  0  0
   40.4181   29.5338   43.9366 H   0  0  0  0  0  0  0  0  0  0  0  0
   36.7755   29.8259   44.9527 H   0  0  0  0  0  0  0  0  0  0  0  0
   37.2464   31.4960   44.5620 H   0  0  0  0  0  0  0  0  0  0  0  0
   34.9042   30.9241   47.4737 H   0  0  0  0  0  0  0  0  0  0  0  0
   33.5233   29.7317   45.7635 H   0  0  0  0  0  0  0  0  0  0  0  0
   32.4059   26.8354   48.7385 H   0  0  0  0  0  0  0  0  0  0  0  0
  1  6  1  0
  2  3  1  0
  2  1  1  0
  3  4  1  0
  4  5  1  0
  6  5  1  0
  7  8  1  0
  7  3  1  0
  9  8  1  0
 10 11  1  0
 10  9  1  0
 11  7  1  0
 12 16  1  0
 12 11  1  0
 13 12  1  0
 14 13  1  0
 15 14  1  0
 15 16  1  0
 17 22  1  0
 17  1  1  0
 18 17  2  0
 19 20  2  0
 19 18  1  0
 20 21  1  0
 21 22  2  0
  1 23  1  1
  2 24  1  0
  2 25  1  0
  3 26  1  6
  4 27  1  0
  4 28  1  0
  5 29  1  0
  5 30  1  0
  6 31  1  0
  6 32  1  0
  7 33  1  6
  8 34  1  0
  8 35  1  0
  9 36  1  0
  9 37  1  0
 11 38  1  1
 12 39  1  1
 13 40  1  0
 13 41  1  0
 14 42  1  0
 14 43  1  0
 16 44  1  0
 16 45  1  0
 18 46  1  0
 19 47  1  0
 21 48  1  0
M  ISO  8  23  13  24  13  25  13  26  13  27  13  28  13  29  13  30  13
M  ISO  8  31  13  32  13  33  13  34  13  35  13  36  13  37  13  38  13
M  ISO  8  39  13  40  13  41  13  42  13  43  13  44  13  45  13  46  14
M  ISO  2  47  14  48  14
M  END
>  <minimizedAffinity>  (1) 
-6.9414463

>  <minimizedRMSD>  (1) 
0.907889187

$$$$
