
     RDKit          3D

 33 35  0  0  1  0  0  0  0  0999 V2000
   35.8590   30.3220   45.0950 C   0  0  0  0  0  0  0  0  0  0  0  0
   37.0450   30.7540   45.7270 C   0  0  0  0  0  0  0  0  0  0  0  0
   37.0880   30.6850   47.1130 C   0  0  0  0  0  0  0  0  0  0  0  0
   36.0150   30.2170   47.7990 N   0  0  0  0  0  0  0  0  0  0  0  0
   34.8850   29.8080   47.1520 C   0  0  0  0  0  0  0  0  0  0  0  0
   34.8110   29.8620   45.8050 N   0  0  0  0  0  0  0  0  0  0  0  0
   39.1360   30.4250   44.4320 C   0  0  0  0  0  0  0  0  0  0  0  0
   38.1260   31.2320   44.9400 C   0  0  0  0  0  0  0  0  0  0  0  0
   38.2670   32.5690   44.6060 C   0  0  0  0  0  0  0  0  0  0  0  0
   39.3240   33.0550   43.8330 C   0  0  0  0  0  0  0  0  0  0  0  0
   40.2880   32.1510   43.3730 C   0  0  0  0  0  0  0  0  0  0  0  0
   40.1900   30.8110   43.6800 C   0  0  0  0  0  0  0  0  0  0  0  0
   39.0920   29.0430   44.7130 O   0  0  0  0  0  0  0  0  0  0  0  0
   41.1640   29.9510   43.2050 O   0  0  0  0  0  0  0  0  0  0  0  0
   38.2930   31.1190   47.8480 C   0  0  1  0  0  0  0  0  0  0  0  0
   38.3540   32.6080   48.0100 C   0  0  0  0  0  0  0  0  0  0  0  0
   38.0170   32.8490   49.4520 C   0  0  0  0  0  0  0  0  0  0  0  0
   37.5430   31.6430   49.9610 O   0  0  0  0  0  0  0  0  0  0  0  0
   38.1630   30.6320   49.2740 C   0  0  0  0  0  0  0  0  0  0  0  0
   35.7892   30.3620   43.9979 H   0  0  0  0  0  0  0  0  0  0  0  0
   34.0291   29.4320   47.7317 H   0  0  0  0  0  0  0  0  0  0  0  0
   37.5107   33.2817   44.9666 H   0  0  0  0  0  0  0  0  0  0  0  0
   39.3971   34.1256   43.5910 H   0  0  0  0  0  0  0  0  0  0  0  0
   41.1290   32.5120   42.7628 H   0  0  0  0  0  0  0  0  0  0  0  0
   39.7987   28.4441   44.3638 H   0  0  0  0  0  0  0  0  0  0  0  0
   41.1147   28.9843   43.4126 H   0  0  0  0  0  0  0  0  0  0  0  0
   39.1614   30.7385   47.2903 H   0  0  0  0  0  0  0  0  0  0  0  0
   39.3624   32.9822   47.7797 H   0  0  0  0  0  0  0  0  0  0  0  0
   37.6649   33.1290   47.3291 H   0  0  0  0  0  0  0  0  0  0  0  0
   38.9148   33.1659   50.0029 H   0  0  0  0  0  0  0  0  0  0  0  0
   37.2635   33.6439   49.5538 H   0  0  0  0  0  0  0  0  0  0  0  0
   37.5559   29.7155   49.3115 H   0  0  0  0  0  0  0  0  0  0  0  0
   39.1439   30.3902   49.7092 H   0  0  0  0  0  0  0  0  0  0  0  0
  1  2  2  0
  1  6  1  0
  2  3  1  0
  3  4  2  0
  5  4  1  0
  6  5  2  0
  7 13  1  0
  7  8  2  0
  8  2  1  0
  9  8  1  0
 10  9  2  0
 11 12  2  0
 11 10  1  0
 12  7  1  0
 14 12  1  0
 15  3  1  0
 15 16  1  0
 15 19  1  0
 16 17  1  0
 17 18  1  0
 19 18  1  0
  1 20  1  0
  5 21  1  0
  9 22  1  0
 10 23  1  0
 11 24  1  0
 13 25  1  0
 14 26  1  0
 15 27  1  6
 16 28  1  0
 16 29  1  0
 17 30  1  0
 17 31  1  0
 19 32  1  0
 19 33  1  0
M  ISO  8  20  14  21  14  22  14  23  14  24  14  25   3  26   3  27  13
M  ISO  6  28  13  29  13  30  13  31  13  32  13  33  13
M  END
>  <minimizedAffinity>  (1) 
-5.59124565

>  <minimizedRMSD>  (1) 
3.94231105

$$$$
