
     RDKit          3D

 40 42  0  0  1  0  0  0  0  0999 V2000
   37.0250   30.8610   44.3730 C   0  0  0  0  0  0  0  0  0  0  0  0
   36.5360   30.5690   45.6070 C   0  0  0  0  0  0  0  0  0  0  0  0
   35.3090   29.9240   45.7290 C   0  0  0  0  0  0  0  0  0  0  0  0
   34.5460   29.5590   44.6450 C   0  0  0  0  0  0  0  0  0  0  0  0
   35.0040   29.8390   43.3810 C   0  0  0  0  0  0  0  0  0  0  0  0
   36.2170   30.4750   43.2920 C   0  0  0  0  0  0  0  0  0  0  0  0
   38.8430   32.3410   47.8520 C   0  0  0  0  0  0  0  0  0  0  0  0
   38.1320   31.9600   46.7250 C   0  0  0  0  0  0  0  0  0  0  0  0
   37.2370   30.9400   46.7890 C   0  0  0  0  0  0  0  0  0  0  0  0
   37.0770   30.3290   47.9960 N   0  0  0  0  0  0  0  0  0  0  0  0
   37.7570   30.6930   49.0880 C   0  0  0  0  0  0  0  0  0  0  0  0
   38.6370   31.6940   49.0090 N   0  0  0  0  0  0  0  0  0  0  0  0
   37.4310   29.9810   50.3530 C   0  0  0  0  0  0  0  0  0  0  0  0
   38.0170   30.5850   51.4500 F   0  0  0  0  0  0  0  0  0  0  0  0
   36.0210   30.1520   50.6270 F   0  0  0  0  0  0  0  0  0  0  0  0
   37.5950   28.6780   50.3690 F   0  0  0  0  0  0  0  0  0  0  0  0
   38.5270   31.6110   44.0760 S   0  0  0  0  0  0  0  0  0  0  0  0
   38.5080   33.0430   44.5310 O   0  0  0  0  0  0  0  0  0  0  0  0
   38.3620   31.9060   42.6100 O   0  0  0  0  0  0  0  0  0  0  0  0
   40.0000   30.8810   43.6910 C   0  0  0  0  0  0  0  0  0  0  0  0
   39.9340   29.5990   42.9470 C   0  0  1  0  0  0  0  0  0  0  0  0
   39.2110   29.5670   41.6560 C   0  0  0  0  0  0  0  0  0  0  0  0
   39.9470   28.4320   40.9220 C   0  0  0  0  0  0  0  0  0  0  0  0
   41.1970   28.3220   41.4530 O   0  0  0  0  0  0  0  0  0  0  0  0
   41.3520   29.2190   42.4670 C   0  0  0  0  0  0  0  0  0  0  0  0
   34.9329   29.6961   46.7373 H   0  0  0  0  0  0  0  0  0  0  0  0
   33.5817   29.0496   44.7883 H   0  0  0  0  0  0  0  0  0  0  0  0
   34.4274   29.5671   42.4845 H   0  0  0  0  0  0  0  0  0  0  0  0
   36.5896   30.7028   42.2824 H   0  0  0  0  0  0  0  0  0  0  0  0
   39.5690   33.1657   47.7983 H   0  0  0  0  0  0  0  0  0  0  0  0
   38.2934   32.4867   45.7729 H   0  0  0  0  0  0  0  0  0  0  0  0
   40.5746   31.5921   43.0794 H   0  0  0  0  0  0  0  0  0  0  0  0
   40.4600   30.6305   44.6583 H   0  0  0  0  0  0  0  0  0  0  0  0
   39.4239   28.9573   43.6805 H   0  0  0  0  0  0  0  0  0  0  0  0
   38.1461   29.3303   41.7973 H   0  0  0  0  0  0  0  0  0  0  0  0
   39.2124   30.5257   41.1166 H   0  0  0  0  0  0  0  0  0  0  0  0
   40.0173   28.6662   39.8495 H   0  0  0  0  0  0  0  0  0  0  0  0
   39.3994   27.4853   41.0400 H   0  0  0  0  0  0  0  0  0  0  0  0
   41.9216   28.7645   43.2910 H   0  0  0  0  0  0  0  0  0  0  0  0
   41.9050   30.1071   42.1273 H   0  0  0  0  0  0  0  0  0  0  0  0
  1  2  1  0
  2  3  2  0
  2  9  1  0
  4  3  1  0
  5  4  2  0
  6  5  1  0
  6  1  2  0
  7 12  2  0
  8  9  2  0
  8  7  1  0
  9 10  1  0
 10 11  2  0
 11 13  1  0
 12 11  1  0
 13 16  1  0
 13 15  1  0
 13 14  1  0
 17  1  1  0
 17 18  2  0
 19 17  2  0
 20 17  1  0
 21 20  1  0
 22 21  1  0
 23 24  1  0
 23 22  1  0
 24 25  1  0
 25 21  1  0
  3 26  1  0
  4 27  1  0
  5 28  1  0
  6 29  1  0
  7 30  1  0
  8 31  1  0
 20 32  1  0
 20 33  1  0
 21 34  1  1
 22 35  1  0
 22 36  1  0
 23 37  1  0
 23 38  1  0
 25 39  1  0
 25 40  1  0
M  ISO  8  26  14  27  14  28  14  29  14  30  14  31  14  32   8  33   8
M  ISO  7  34  13  35  13  36  13  37  13  38  13  39  13  40  13
M  END
>  <minimizedAffinity>  (1) 
-5.55395555

>  <minimizedRMSD>  (1) 
1.97047091

$$$$
