
     RDKit          3D

 32 34  0  0  1  0  0  0  0  0999 V2000
   37.4650   29.9910   50.5960 C   0  0  0  0  0  0  0  0  0  0  0  0
   37.9620   30.6490   49.4560 C   0  0  0  0  0  0  0  0  0  0  0  0
   37.2880   30.4430   48.2620 C   0  0  0  0  0  0  0  0  0  0  0  0
   36.2020   29.6320   48.2560 N   0  0  0  0  0  0  0  0  0  0  0  0
   35.7480   29.0140   49.3670 C   0  0  0  0  0  0  0  0  0  0  0  0
   36.3840   29.1970   50.5390 N   0  0  0  0  0  0  0  0  0  0  0  0
   37.6810   31.0560   46.9830 C   0  0  0  0  0  0  0  0  0  0  0  0
   36.9860   30.8310   45.8160 C   0  0  0  0  0  0  0  0  0  0  0  0
   37.3460   31.4020   44.6100 C   0  0  0  0  0  0  0  0  0  0  0  0
   38.4240   32.2190   44.5620 N   0  0  0  0  0  0  0  0  0  0  0  0
   39.0850   32.4260   45.7020 C   0  0  0  0  0  0  0  0  0  0  0  0
   38.7500   31.8810   46.8780 N   0  0  0  0  0  0  0  0  0  0  0  0
   40.2790   33.3190   45.6950 C   0  0  0  0  0  0  0  0  0  0  0  0
   40.3410   33.9810   46.9150 F   0  0  0  0  0  0  0  0  0  0  0  0
   41.4450   32.6040   45.4640 F   0  0  0  0  0  0  0  0  0  0  0  0
   40.1980   34.2760   44.7350 F   0  0  0  0  0  0  0  0  0  0  0  0
   34.5780   28.1380   49.3660 C   0  0  2  0  0  0  0  0  0  0  0  0
   34.1990   27.6000   48.0010 C   0  0  0  0  0  0  0  0  0  0  0  0
   32.7540   27.2340   48.2610 C   0  0  0  0  0  0  0  0  0  0  0  0
   32.2600   28.0590   49.2450 O   0  0  0  0  0  0  0  0  0  0  0  0
   33.2800   28.8740   49.6890 C   0  0  0  0  0  0  0  0  0  0  0  0
   37.9760   30.1309   51.5600 H   0  0  0  0  0  0  0  0  0  0  0  0
   38.8476   31.2992   49.5097 H   0  0  0  0  0  0  0  0  0  0  0  0
   36.1077   30.1693   45.8447 H   0  0  0  0  0  0  0  0  0  0  0  0
   36.7635   31.1950   43.7002 H   0  0  0  0  0  0  0  0  0  0  0  0
   34.8937   27.3732   50.0909 H   0  0  0  0  0  0  0  0  0  0  0  0
   34.8006   26.7211   47.7262 H   0  0  0  0  0  0  0  0  0  0  0  0
   34.3595   28.2968   47.1651 H   0  0  0  0  0  0  0  0  0  0  0  0
   32.1676   27.3646   47.3396 H   0  0  0  0  0  0  0  0  0  0  0  0
   32.6854   26.1843   48.5827 H   0  0  0  0  0  0  0  0  0  0  0  0
   33.1935   29.0383   50.7732 H   0  0  0  0  0  0  0  0  0  0  0  0
   33.2459   29.8615   49.2057 H   0  0  0  0  0  0  0  0  0  0  0  0
  2  1  2  0
  3  2  1  0
  4  3  2  0
  4  5  1  0
  5  6  2  0
  6  1  1  0
  7  3  1  0
  8  7  2  0
  9  8  1  0
 10  9  2  0
 10 11  1  0
 11 12  2  0
 12  7  1  0
 13 11  1  0
 13 14  1  0
 15 13  1  0
 16 13  1  0
 17  5  1  0
 17 21  1  0
 18 19  1  0
 18 17  1  0
 19 20  1  0
 20 21  1  0
  1 22  1  0
  2 23  1  0
  8 24  1  0
  9 25  1  0
 17 26  1  1
 18 27  1  0
 18 28  1  0
 19 29  1  0
 19 30  1  0
 21 31  1  0
 21 32  1  0
M  ISO  8  22  14  23  14  24  14  25  14  26  13  27  13  28  13  29  13
M  ISO  3  30  13  31  13  32  13
M  END
>  <minimizedAffinity>  (1) 
-6.35213757

>  <minimizedRMSD>  (1) 
0.939227581

$$$$
