
     RDKit          3D

 43 47  0  0  1  0  0  0  0  0999 V2000
   35.8520   29.4520   50.6760 C   0  0  0  0  0  0  0  0  0  0  0  0
   36.6090   30.1800   49.7760 C   0  0  0  0  0  0  0  0  0  0  0  0
   36.2960   30.0900   48.4230 C   0  0  0  0  0  0  0  0  0  0  0  0
   35.2490   29.2840   48.0170 N   0  0  0  0  0  0  0  0  0  0  0  0
   34.5500   28.5980   48.9540 C   0  0  0  0  0  0  0  0  0  0  0  0
   34.8250   28.6650   50.2510 N   0  0  0  0  0  0  0  0  0  0  0  0
   36.6390   30.5610   46.0660 C   0  0  0  0  0  0  0  0  0  0  0  0
   37.0220   30.8110   47.3880 C   0  0  0  0  0  0  0  0  0  0  0  0
   38.0370   31.6920   47.6380 C   0  0  0  0  0  0  0  0  0  0  0  0
   38.6650   32.3190   46.5860 C   0  0  0  0  0  0  0  0  0  0  0  0
   39.6820   33.2130   46.6010 N   0  0  0  0  0  0  0  0  0  0  0  0
   39.9520   33.5340   45.3390 C   0  0  0  0  0  0  0  0  0  0  0  0
   39.1430   32.8770   44.5160 N   0  0  0  0  0  0  0  0  0  0  0  0
   38.3210   32.1040   45.2640 C   0  0  0  0  0  0  0  0  0  0  0  0
   37.2900   31.2080   45.0140 C   0  0  0  0  0  0  0  0  0  0  0  0
   33.4450   27.7670   48.4860 C   0  0  0  0  0  0  0  0  0  0  0  0
   33.6240   26.6200   47.9920 O   0  0  0  0  0  0  0  0  0  0  0  0
   32.0300   28.3050   48.5960 C   0  0  1  0  0  0  0  0  0  0  0  0
   30.9990   27.5490   47.7330 C   0  0  0  0  0  0  0  0  0  0  0  0
   31.0030   27.4600   49.2070 C   0  0  2  0  0  0  0  0  0  0  0  0
   29.8100   27.9780   49.9240 C   0  0  1  0  0  0  0  0  0  0  0  0
   28.7350   28.5360   48.9960 C   0  0  0  0  0  0  0  0  0  0  0  0
   27.6130   28.6150   50.0350 C   0  0  0  0  0  0  0  0  0  0  0  0
   27.7230   27.4650   50.7930 O   0  0  0  0  0  0  0  0  0  0  0  0
   29.0120   26.9620   50.6680 C   0  0  0  0  0  0  0  0  0  0  0  0
   36.0827   29.5095   51.7500 H   0  0  0  0  0  0  0  0  0  0  0  0
   37.4384   30.8147   50.1213 H   0  0  0  0  0  0  0  0  0  0  0  0
   35.8236   29.8535   45.8550 H   0  0  0  0  0  0  0  0  0  0  0  0
   38.3495   31.8982   48.6723 H   0  0  0  0  0  0  0  0  0  0  0  0
   40.1595   33.5779   47.4375 H   0  0  0  0  0  0  0  0  0  0  0  0
   40.7326   34.2415   45.0226 H   0  0  0  0  0  0  0  0  0  0  0  0
   36.9833   31.0061   43.9771 H   0  0  0  0  0  0  0  0  0  0  0  0
   32.3504   29.3455   48.7530 H   0  0  0  0  0  0  0  0  0  0  0  0
   30.2012   28.0984   47.2117 H   0  0  0  0  0  0  0  0  0  0  0  0
   31.0407   26.8335   46.8986 H   0  0  0  0  0  0  0  0  0  0  0  0
   31.0873   26.6631   49.9606 H   0  0  0  0  0  0  0  0  0  0  0  0
   30.2944   28.7155   50.5809 H   0  0  0  0  0  0  0  0  0  0  0  0
   29.0015   29.5225   48.5888 H   0  0  0  0  0  0  0  0  0  0  0  0
   28.5223   27.9570   48.0852 H   0  0  0  0  0  0  0  0  0  0  0  0
   27.7391   29.5053   50.6685 H   0  0  0  0  0  0  0  0  0  0  0  0
   26.6244   28.6944   49.5593 H   0  0  0  0  0  0  0  0  0  0  0  0
   28.9945   26.0140   50.1103 H   0  0  0  0  0  0  0  0  0  0  0  0
   29.4528   26.7659   51.6565 H   0  0  0  0  0  0  0  0  0  0  0  0
  2  1  2  0
  3  2  1  0
  4  3  2  0
  4  5  1  0
  5  6  2  0
  6  1  1  0
  7  8  2  0
  8  9  1  0
  8  3  1  0
 10 11  1  0
 10  9  2  0
 12 11  1  0
 13 14  1  0
 13 12  2  0
 14 10  1  0
 15 14  2  0
 15  7  1  0
 16 18  1  0
 16  5  1  0
 17 16  2  0
 18 20  1  0
 19 18  1  0
 19 20  1  0
 20 21  1  0
 21 22  1  0
 21 25  1  0
 22 23  1  0
 23 24  1  0
 25 24  1  0
  1 26  1  0
  2 27  1  0
  7 28  1  0
  9 29  1  0
 11 30  1  0
 12 31  1  0
 15 32  1  0
 18 33  1  1
 19 34  1  0
 19 35  1  0
 20 36  1  6
 21 37  1  1
 22 38  1  0
 22 39  1  0
 23 40  1  0
 23 41  1  0
 25 42  1  0
 25 43  1  0
M  ISO  8  26  14  27  14  28  14  29  14  30   9  31  14  32  14  33  13
M  ISO  8  34  13  35  13  36  13  37  13  38  13  39  13  40  13  41  13
M  ISO  2  42  13  43  13
M  END
>  <minimizedAffinity>  (1) 
-6.87835455

>  <minimizedRMSD>  (1) 
0.975710034

$$$$
