
     RDKit          3D

 35 38  0  0  1  0  0  0  0  0999 V2000
   33.1160   28.7360   47.6520 C   0  0  0  0  0  0  0  0  0  0  0  0
   33.7970   29.1880   46.5150 C   0  0  0  0  0  0  0  0  0  0  0  0
   34.9620   29.8430   46.9600 C   0  0  0  0  0  0  0  0  0  0  0  0
   34.9530   29.7730   48.2980 N   0  0  0  0  0  0  0  0  0  0  0  0
   33.8790   29.1300   48.6650 N   0  0  0  0  0  0  0  0  0  0  0  0
   31.1840   27.5910   48.7380 C   0  0  0  0  0  0  0  0  0  0  0  0
   31.8810   28.0200   47.5970 C   0  0  0  0  0  0  0  0  0  0  0  0
   31.3150   27.7180   46.3600 C   0  0  0  0  0  0  0  0  0  0  0  0
   30.1390   27.0360   46.3060 N   0  0  0  0  0  0  0  0  0  0  0  0
   29.5020   26.6420   47.4400 C   0  0  0  0  0  0  0  0  0  0  0  0
   30.0280   26.9220   48.6650 N   0  0  0  0  0  0  0  0  0  0  0  0
   35.9590   30.3150   49.1700 C   0  0  1  0  0  0  0  0  0  0  0  0
   36.8520   29.3090   49.9500 C   0  0  0  0  0  0  0  0  0  0  0  0
   37.3940   30.1480   48.8620 C   0  0  2  0  0  0  0  0  0  0  0  0
   38.3090   31.3050   49.0700 C   0  0  2  0  0  0  0  0  0  0  0  0
   37.6140   32.5060   49.6800 C   0  0  0  0  0  0  0  0  0  0  0  0
   38.5440   33.6160   49.2370 C   0  0  0  0  0  0  0  0  0  0  0  0
   39.1830   33.2280   48.0930 O   0  0  0  0  0  0  0  0  0  0  0  0
   38.8810   31.9090   47.8310 C   0  0  0  0  0  0  0  0  0  0  0  0
   33.4812   29.0562   45.4696 H   0  0  0  0  0  0  0  0  0  0  0  0
   35.7293   30.3190   46.3317 H   0  0  0  0  0  0  0  0  0  0  0  0
   31.6047   27.8136   49.7297 H   0  0  0  0  0  0  0  0  0  0  0  0
   31.8165   28.0294   45.4318 H   0  0  0  0  0  0  0  0  0  0  0  0
   28.5523   26.0916   47.3680 H   0  0  0  0  0  0  0  0  0  0  0  0
   35.3179   31.1767   49.4076 H   0  0  0  0  0  0  0  0  0  0  0  0
   37.1298   29.5086   50.9955 H   0  0  0  0  0  0  0  0  0  0  0  0
   36.8171   28.2322   50.1720 H   0  0  0  0  0  0  0  0  0  0  0  0
   37.9870   29.8846   47.9738 H   0  0  0  0  0  0  0  0  0  0  0  0
   39.0774   30.8364   49.7024 H   0  0  0  0  0  0  0  0  0  0  0  0
   36.6005   32.6387   49.2736 H   0  0  0  0  0  0  0  0  0  0  0  0
   37.4595   32.4434   50.7673 H   0  0  0  0  0  0  0  0  0  0  0  0
   37.9627   34.5296   49.0435 H   0  0  0  0  0  0  0  0  0  0  0  0
   39.2830   33.8200   50.0258 H   0  0  0  0  0  0  0  0  0  0  0  0
   39.7942   31.3687   47.5410 H   0  0  0  0  0  0  0  0  0  0  0  0
   38.1556   31.8425   47.0068 H   0  0  0  0  0  0  0  0  0  0  0  0
  1  5  2  0
  2  3  2  0
  2  1  1  0
  3  4  1  0
  4  5  1  0
  4 12  1  0
  7  1  1  0
  7  6  2  0
  8  7  1  0
  9  8  2  0
  9 10  1  0
 10 11  2  0
 11  6  1  0
 12 13  1  0
 14 15  1  0
 14 12  1  0
 14 13  1  0
 15 19  1  0
 15 16  1  0
 17 16  1  0
 18 17  1  0
 19 18  1  0
  2 20  1  0
  3 21  1  0
  6 22  1  0
  8 23  1  0
 10 24  1  0
 12 25  1  1
 13 26  1  0
 13 27  1  0
 14 28  1  6
 15 29  1  1
 16 30  1  0
 16 31  1  0
 17 32  1  0
 17 33  1  0
 19 34  1  0
 19 35  1  0
M  ISO  8  20  14  21  14  22  14  23  14  24  14  25  13  26  13  27  13
M  ISO  8  28  13  29  13  30  13  31  13  32  13  33  13  34  13  35  13
M  END
>  <minimizedAffinity>  (1) 
-5.25485325

>  <minimizedRMSD>  (1) 
4.57408094

$$$$
