
     RDKit          3D

 26 27  0  0  1  0  0  0  0  0999 V2000
   36.9510   30.3890   49.2500 C   0  0  0  0  0  0  0  0  0  0  0  0
   35.5760   30.2700   49.1490 C   0  0  0  0  0  0  0  0  0  0  0  0
   34.8640   29.6900   50.1700 C   0  0  0  0  0  0  0  0  0  0  0  0
   35.5680   29.2490   51.2590 N   0  0  0  0  0  0  0  0  0  0  0  0
   36.9190   29.3730   51.3470 C   0  0  0  0  0  0  0  0  0  0  0  0
   37.5870   29.9360   50.3480 N   0  0  0  0  0  0  0  0  0  0  0  0
   34.3050   29.7500   47.1320 C   0  0  0  0  0  0  0  0  0  0  0  0
   34.3180   28.4820   47.0260 O   0  0  0  0  0  0  0  0  0  0  0  0
   34.8220   30.7100   48.0500 N   0  0  0  0  0  0  0  0  0  0  0  0
   37.5370   30.9900   48.1540 O   0  0  0  0  0  0  0  0  0  0  0  0
   38.5870   31.8820   48.4440 C   0  0  2  0  0  0  0  0  0  0  0  0
   38.1440   33.0830   49.2540 C   0  0  0  0  0  0  0  0  0  0  0  0
   39.2490   34.0600   48.8960 C   0  0  0  0  0  0  0  0  0  0  0  0
   39.8630   33.5920   47.7540 O   0  0  0  0  0  0  0  0  0  0  0  0
   39.0750   32.6190   47.1940 C   0  0  0  0  0  0  0  0  0  0  0  0
   33.7705   29.5837   50.1154 H   0  0  0  0  0  0  0  0  0  0  0  0
   37.4532   29.0102   52.2375 H   0  0  0  0  0  0  0  0  0  0  0  0
   33.7557   30.2256   46.3061 H   0  0  0  0  0  0  0  0  0  0  0  0
   34.6444   31.7147   47.9085 H   0  0  0  0  0  0  0  0  0  0  0  0
   39.3199   31.2294   48.9409 H   0  0  0  0  0  0  0  0  0  0  0  0
   37.1563   33.4486   48.9363 H   0  0  0  0  0  0  0  0  0  0  0  0
   38.0194   32.8968   50.3309 H   0  0  0  0  0  0  0  0  0  0  0  0
   38.8231   35.0573   48.7115 H   0  0  0  0  0  0  0  0  0  0  0  0
   39.9740   34.1429   49.7191 H   0  0  0  0  0  0  0  0  0  0  0  0
   38.2374   33.0535   46.6286 H   0  0  0  0  0  0  0  0  0  0  0  0
   39.5939   31.9797   46.4646 H   0  0  0  0  0  0  0  0  0  0  0  0
  1  6  1  0
  2  1  2  0
  2  3  1  0
  3  4  2  0
  4  5  1  0
  6  5  2  0
  7  9  1  0
  8  7  2  0
  9  2  1  0
 10  1  1  0
 11 10  1  0
 11 12  1  0
 13 12  1  0
 14 13  1  0
 15 14  1  0
 15 11  1  0
  3 16  1  0
  5 17  1  0
  7 18  1  0
  9 19  1  0
 11 20  1  1
 12 21  1  0
 12 22  1  0
 13 23  1  0
 13 24  1  0
 15 25  1  0
 15 26  1  0
M  ISO  8  16  14  17  14  18   6  20  13  21  13  22  13  23  13  24  13
M  ISO  2  25  13  26  13
M  END
>  <minimizedAffinity>  (1) 
-4.47214556

>  <minimizedRMSD>  (1) 
5.25848722

$$$$
