
     RDKit          3D

 27 28  0  0  1  0  0  0  0  0999 V2000
   39.1210   32.6370   48.0580 O   0  0  0  0  0  0  0  0  0  0  0  0
   38.6210   31.6560   47.0450 P   0  0  2  0  0  0  0  0  0  0  0  0
   37.5780   32.4470   45.9620 O   0  0  0  0  0  0  0  0  0  0  0  0
   37.8840   30.2800   47.6980 O   0  0  0  0  0  0  0  0  0  0  0  0
   37.3340   30.1860   51.3620 C   0  0  0  0  0  0  0  0  0  0  0  0
   37.9970   30.4890   50.1750 C   0  0  0  0  0  0  0  0  0  0  0  0
   37.4320   30.0990   48.9640 C   0  0  0  0  0  0  0  0  0  0  0  0
   36.2340   29.4270   49.0090 N   0  0  0  0  0  0  0  0  0  0  0  0
   35.6270   29.1530   50.1880 C   0  0  0  0  0  0  0  0  0  0  0  0
   36.1650   29.5250   51.3470 N   0  0  0  0  0  0  0  0  0  0  0  0
   39.9650   31.1490   46.1290 O   0  0  0  0  0  0  0  0  0  0  0  0
   39.5600   31.0500   44.8100 C   0  0  1  0  0  0  0  0  0  0  0  0
   40.5980   31.4020   43.8000 C   0  0  0  0  0  0  0  0  0  0  0  0
   40.5350   30.2330   42.8270 C   0  0  0  0  0  0  0  0  0  0  0  0
   39.2530   29.6970   43.0210 O   0  0  0  0  0  0  0  0  0  0  0  0
   39.1720   29.6390   44.4290 C   0  0  0  0  0  0  0  0  0  0  0  0
   36.9013   32.9602   46.4708 H   0  0  0  0  0  0  0  0  0  0  0  0
   37.7731   30.4918   52.3231 H   0  0  0  0  0  0  0  0  0  0  0  0
   38.9548   31.0296   50.1943 H   0  0  0  0  0  0  0  0  0  0  0  0
   34.6694   28.6117   50.1878 H   0  0  0  0  0  0  0  0  0  0  0  0
   38.7236   31.7639   44.7827 H   0  0  0  0  0  0  0  0  0  0  0  0
   40.3553   32.3495   43.2967 H   0  0  0  0  0  0  0  0  0  0  0  0
   41.5966   31.5507   44.2367 H   0  0  0  0  0  0  0  0  0  0  0  0
   41.3096   29.4878   43.0608 H   0  0  0  0  0  0  0  0  0  0  0  0
   40.7119   30.5397   41.7855 H   0  0  0  0  0  0  0  0  0  0  0  0
   38.1521   29.3982   44.7635 H   0  0  0  0  0  0  0  0  0  0  0  0
   39.8034   28.8613   44.8835 H   0  0  0  0  0  0  0  0  0  0  0  0
  2  4  1  0
  2  1  2  0
  3  2  1  0
  4  7  1  0
  6  5  2  0
  7  8  2  0
  7  6  1  0
  8  9  1  0
  9 10  2  0
 10  5  1  0
 11  2  1  0
 12 11  1  0
 13 12  1  0
 14 15  1  0
 14 13  1  0
 15 16  1  0
 16 12  1  0
  3 17  1  0
  5 18  1  0
  6 19  1  0
  9 20  1  0
 12 21  1  1
 13 22  1  0
 13 23  1  0
 14 24  1  0
 14 25  1  0
 16 26  1  0
 16 27  1  0
M  ISO  8  17   3  18  14  19  14  20  14  21  13  22  13  23  13  24  13
M  ISO  3  25  13  26  13  27  13
M  END
>  <minimizedAffinity>  (1) 
-4.96474457

>  <minimizedRMSD>  (1) 
0.563607395

$$$$
