
     RDKit          3D

 47 50  0  0  1  0  0  0  0  0999 V2000
   35.1820   28.6960   49.1380 C   0  0  0  0  0  0  0  0  0  0  0  0
   33.9650   28.4810   48.2790 C   0  0  0  0  0  0  0  0  0  0  0  0
   34.0650   28.6830   46.8510 C   0  0  0  0  0  0  0  0  0  0  0  0
   32.4070   28.3080   46.3480 S   0  0  0  0  0  0  0  0  0  0  0  0
   31.7900   27.9340   48.0810 C   0  0  0  0  0  0  0  0  0  0  0  0
   32.7980   28.1220   48.7110 N   0  0  0  0  0  0  0  0  0  0  0  0
   30.4830   27.5320   48.5630 N   0  0  0  0  0  0  0  0  0  0  0  0
   29.6670   26.8050   47.6580 C   0  0  0  0  0  0  0  0  0  0  0  0
   28.2280   26.7260   48.0410 C   0  0  0  0  0  0  0  0  0  0  0  0
   27.8800   27.6080   49.1400 N   0  0  0  0  0  0  0  0  0  0  0  0
   28.7840   27.2410   50.2260 C   0  0  0  0  0  0  0  0  0  0  0  0
   30.1000   27.8940   49.9160 C   0  0  0  0  0  0  0  0  0  0  0  0
   35.1560   29.9910   49.8370 C   0  0  0  0  0  0  0  0  0  0  0  0
   37.6930   32.7090   49.6250 C   0  0  0  0  0  0  0  0  0  0  0  0
   38.3620   32.4070   48.4300 C   0  0  0  0  0  0  0  0  0  0  0  0
   37.9270   31.2780   47.7220 C   0  0  0  0  0  0  0  0  0  0  0  0
   36.8970   30.5430   48.2220 N   0  0  0  0  0  0  0  0  0  0  0  0
   36.2870   30.8780   49.3800 C   0  0  0  0  0  0  0  0  0  0  0  0
   36.6870   31.9400   50.0560 N   0  0  0  0  0  0  0  0  0  0  0  0
   38.5490   30.8430   46.4400 C   0  0  2  0  0  0  0  0  0  0  0  0
   39.7180   31.6840   46.0440 C   0  0  0  0  0  0  0  0  0  0  0  0
   39.2030   32.5980   44.9370 C   0  0  0  0  0  0  0  0  0  0  0  0
   37.8310   32.4180   44.9150 O   0  0  0  0  0  0  0  0  0  0  0  0
   37.5610   31.1260   45.3030 C   0  0  0  0  0  0  0  0  0  0  0  0
   36.0764   28.6579   48.4987 H   0  0  0  0  0  0  0  0  0  0  0  0
   35.1969   27.9041   49.9013 H   0  0  0  0  0  0  0  0  0  0  0  0
   34.9310   28.9858   46.2440 H   0  0  0  0  0  0  0  0  0  0  0  0
   30.0601   25.7799   47.5900 H   0  0  0  0  0  0  0  0  0  0  0  0
   29.7044   27.3475   46.7018 H   0  0  0  0  0  0  0  0  0  0  0  0
   27.6181   26.9987   47.1671 H   0  0  0  0  0  0  0  0  0  0  0  0
   28.0344   25.6958   48.3745 H   0  0  0  0  0  0  0  0  0  0  0  0
   28.0193   28.5925   48.8711 H   0  0  0  0  0  0  0  0  0  0  0  0
   28.3938   27.6074   51.1870 H   0  0  0  0  0  0  0  0  0  0  0  0
   28.8884   26.1491   50.3082 H   0  0  0  0  0  0  0  0  0  0  0  0
   30.8647   27.5439   50.6250 H   0  0  0  0  0  0  0  0  0  0  0  0
   30.0101   28.9868   50.0041 H   0  0  0  0  0  0  0  0  0  0  0  0
   34.1994   30.4925   49.6285 H   0  0  0  0  0  0  0  0  0  0  0  0
   35.2698   29.8079   50.9157 H   0  0  0  0  0  0  0  0  0  0  0  0
   37.9985   33.5867   50.2135 H   0  0  0  0  0  0  0  0  0  0  0  0
   39.1921   33.0291   48.0641 H   0  0  0  0  0  0  0  0  0  0  0  0
   38.8319   29.7904   46.5883 H   0  0  0  0  0  0  0  0  0  0  0  0
   40.0724   32.2777   46.8995 H   0  0  0  0  0  0  0  0  0  0  0  0
   40.5671   31.0714   45.7067 H   0  0  0  0  0  0  0  0  0  0  0  0
   39.4493   33.6468   45.1591 H   0  0  0  0  0  0  0  0  0  0  0  0
   39.6608   32.3593   43.9657 H   0  0  0  0  0  0  0  0  0  0  0  0
   36.5242   31.0374   45.6597 H   0  0  0  0  0  0  0  0  0  0  0  0
   37.6686   30.4125   44.4728 H   0  0  0  0  0  0  0  0  0  0  0  0
  1 13  1  0
  2  6  1  0
  2  1  1  0
  3  2  2  0
  4  3  1  0
  4  5  1  0
  5  7  1  0
  5  6  2  0
  7 12  1  0
  8  9  1  0
  8  7  1  0
  9 10  1  0
 10 11  1  0
 12 11  1  0
 14 19  2  0
 15 14  1  0
 16 17  1  0
 16 15  2  0
 17 18  2  0
 18 13  1  0
 18 19  1  0
 20 16  1  0
 21 20  1  0
 22 21  1  0
 23 22  1  0
 23 24  1  0
 24 20  1  0
  1 25  1  0
  1 26  1  0
  3 27  1  0
  8 28  1  0
  8 29  1  0
  9 30  1  0
  9 31  1  0
 10 32  1  0
 11 33  1  0
 11 34  1  0
 12 35  1  0
 12 36  1  0
 13 37  1  0
 13 38  1  0
 14 39  1  0
 15 40  1  0
 20 41  1  1
 21 42  1  0
 21 43  1  0
 22 44  1  0
 22 45  1  0
 24 46  1  0
 24 47  1  0
M  ISO  8  25   8  26   8  27  14  28  13  29  13  30  13  31  13  32   5
M  ISO  8  33  13  34  13  35  13  36  13  37   8  38   8  39  14  40  14
M  ISO  7  41  13  42  13  43  13  44  13  45  13  46  13  47  13
M  END
>  <minimizedAffinity>  (1) 
-6.5115633

>  <minimizedRMSD>  (1) 
0.840831637

$$$$
