
     RDKit          3D

 49 53  0  0  1  0  0  0  0  0999 V2000
   32.0030   28.1750   47.3820 N   0  0  0  0  0  0  0  0  0  0  0  0
   32.4320   27.6870   48.6470 C   0  0  0  0  0  0  0  0  0  0  0  0
   33.6790   28.2670   49.1980 C   0  0  0  0  0  0  0  0  0  0  0  0
   34.7570   28.5310   48.2450 C   0  0  0  0  0  0  0  0  0  0  0  0
   34.2280   28.9800   46.8710 C   0  0  0  0  0  0  0  0  0  0  0  0
   33.1110   28.0010   46.4760 C   0  0  0  0  0  0  0  0  0  0  0  0
   35.8870   29.7990   50.0140 C   0  0  0  0  0  0  0  0  0  0  0  0
   35.7020   29.5990   48.6570 C   0  0  0  0  0  0  0  0  0  0  0  0
   36.3200   30.3430   47.6880 C   0  0  0  0  0  0  0  0  0  0  0  0
   37.1780   31.3520   48.0970 C   0  0  0  0  0  0  0  0  0  0  0  0
   37.3630   31.5550   49.4480 C   0  0  0  0  0  0  0  0  0  0  0  0
   36.7420   30.8060   50.4320 C   0  0  0  0  0  0  0  0  0  0  0  0
   38.2640   32.6190   49.6590 O   0  0  0  0  0  0  0  0  0  0  0  0
   38.8530   32.8550   48.3890 C   0  0  0  0  0  0  0  0  0  0  0  0
   37.9780   32.3040   47.4460 O   0  0  0  0  0  0  0  0  0  0  0  0
   30.7370   28.7270   47.0430 C   0  0  0  0  0  0  0  0  0  0  0  0
   30.4880   29.5260   45.9250 C   0  0  0  0  0  0  0  0  0  0  0  0
   29.1720   29.9710   45.7500 C   0  0  0  0  0  0  0  0  0  0  0  0
   28.2110   29.6080   46.6660 N   0  0  0  0  0  0  0  0  0  0  0  0
   28.5200   28.8450   47.7080 C   0  0  0  0  0  0  0  0  0  0  0  0
   29.7420   28.4090   47.9050 N   0  0  0  0  0  0  0  0  0  0  0  0
   27.4200   28.4920   48.6630 C   0  0  1  0  0  0  0  0  0  0  0  0
   27.4190   26.9910   48.9070 C   0  0  0  0  0  0  0  0  0  0  0  0
   27.6010   26.8840   50.4050 C   0  0  0  0  0  0  0  0  0  0  0  0
   28.4720   27.9500   50.6640 O   0  0  0  0  0  0  0  0  0  0  0  0
   27.7660   28.9970   50.0680 C   0  0  0  0  0  0  0  0  0  0  0  0
   31.6262   27.8823   49.3699 H   0  0  0  0  0  0  0  0  0  0  0  0
   32.6567   26.6226   48.4842 H   0  0  0  0  0  0  0  0  0  0  0  0
   33.4186   29.2211   49.6796 H   0  0  0  0  0  0  0  0  0  0  0  0
   34.0771   27.5018   49.8806 H   0  0  0  0  0  0  0  0  0  0  0  0
   35.2751   27.5616   48.2025 H   0  0  0  0  0  0  0  0  0  0  0  0
   33.8280   30.0026   46.9363 H   0  0  0  0  0  0  0  0  0  0  0  0
   35.0332   28.9789   46.1216 H   0  0  0  0  0  0  0  0  0  0  0  0
   32.7837   28.2086   45.4466 H   0  0  0  0  0  0  0  0  0  0  0  0
   33.4818   26.9668   46.5312 H   0  0  0  0  0  0  0  0  0  0  0  0
   35.3639   29.1689   50.7484 H   0  0  0  0  0  0  0  0  0  0  0  0
   36.1416   30.1466   46.6205 H   0  0  0  0  0  0  0  0  0  0  0  0
   36.9195   31.0016   51.4998 H   0  0  0  0  0  0  0  0  0  0  0  0
   38.9686   33.9353   48.2168 H   0  0  0  0  0  0  0  0  0  0  0  0
   39.8536   32.4033   48.3203 H   0  0  0  0  0  0  0  0  0  0  0  0
   31.2864   29.7926   45.2168 H   0  0  0  0  0  0  0  0  0  0  0  0
   28.9090   30.6039   44.8896 H   0  0  0  0  0  0  0  0  0  0  0  0
   26.4917   28.9005   48.2370 H   0  0  0  0  0  0  0  0  0  0  0  0
   26.4659   26.5409   48.5923 H   0  0  0  0  0  0  0  0  0  0  0  0
   28.1979   26.4612   48.3390 H   0  0  0  0  0  0  0  0  0  0  0  0
   26.6452   27.0098   50.9347 H   0  0  0  0  0  0  0  0  0  0  0  0
   27.9804   25.9071   50.7393 H   0  0  0  0  0  0  0  0  0  0  0  0
   28.3899   29.9012   50.0112 H   0  0  0  0  0  0  0  0  0  0  0  0
   26.8682   29.2698   50.6420 H   0  0  0  0  0  0  0  0  0  0  0  0
  1  2  1  0
  2  3  1  0
  4  8  1  0
  4  3  1  0
  5  4  1  0
  6  5  1  0
  6  1  1  0
  7 12  2  0
  8  7  1  0
  9 10  1  0
  9  8  2  0
 10 11  2  0
 11 13  1  0
 11 12  1  0
 14 13  1  0
 15 10  1  0
 15 14  1  0
 16  1  1  0
 16 21  1  0
 17 16  2  0
 18 17  1  0
 18 19  2  0
 19 20  1  0
 20 21  2  0
 22 20  1  0
 22 23  1  0
 22 26  1  0
 23 24  1  0
 24 25  1  0
 26 25  1  0
  2 27  1  0
  2 28  1  0
  3 29  1  0
  3 30  1  0
  4 31  1  0
  5 32  1  0
  5 33  1  0
  6 34  1  0
  6 35  1  0
  7 36  1  0
  9 37  1  0
 12 38  1  0
 14 39  1  0
 14 40  1  0
 17 41  1  0
 18 42  1  0
 22 43  1  6
 23 44  1  0
 23 45  1  0
 24 46  1  0
 24 47  1  0
 26 48  1  0
 26 49  1  0
M  ISO  8  27  13  28  13  29  13  30  13  31  13  32  13  33  13  34  13
M  ISO  8  35  13  36  14  37  14  38  14  39  13  40  13  41  14  42  14
M  ISO  7  43  13  44  13  45  13  46  13  47  13  48  13  49  13
M  END
>  <minimizedAffinity>  (1) 
-7.41706324

>  <minimizedRMSD>  (1) 
0.950435817

$$$$
