
     RDKit          3D

 40 42  0  0  1  0  0  0  0  0999 V2000
   35.3620   29.2400   43.6210 C   0  0  1  0  0  0  0  0  0  0  0  0
   35.9150   27.8950   43.5860 C   0  0  0  0  0  0  0  0  0  0  0  0
   34.8330   26.9490   43.1570 C   0  0  0  0  0  0  0  0  0  0  0  0
   33.5640   27.2450   43.8400 C   0  0  0  0  0  0  0  0  0  0  0  0
   33.6430   28.1040   45.0440 C   0  0  0  0  0  0  0  0  0  0  0  0
   34.4910   29.3580   44.8690 C   0  0  1  0  0  0  0  0  0  0  0  0
   36.8230   32.6330   43.2370 C   0  0  0  0  0  0  0  0  0  0  0  0
   35.8790   31.5710   43.1950 C   0  0  0  0  0  0  0  0  0  0  0  0
   36.3240   30.3500   43.6840 C   0  0  0  0  0  0  0  0  0  0  0  0
   37.6130   30.2110   44.1760 N   0  0  0  0  0  0  0  0  0  0  0  0
   38.4660   31.2450   44.1930 C   0  0  0  0  0  0  0  0  0  0  0  0
   38.0760   32.4690   43.7210 N   0  0  0  0  0  0  0  0  0  0  0  0
   34.9240   30.2620   47.3260 C   0  0  0  0  0  0  0  0  0  0  0  0
   33.6860   30.5350   47.3750 O   0  0  0  0  0  0  0  0  0  0  0  0
   35.2240   29.6380   46.0750 N   0  0  0  0  0  0  0  0  0  0  0  0
   34.7000   29.3630   50.2370 Cl  0  0  0  0  0  0  0  0  0  0  0  0
   36.1240   30.1360   49.5880 C   0  0  0  0  0  0  0  0  0  0  0  0
   36.0260   30.4610   48.2630 C   0  0  0  0  0  0  0  0  0  0  0  0
   37.0960   31.0870   47.6120 C   0  0  0  0  0  0  0  0  0  0  0  0
   38.2690   31.3800   48.3170 C   0  0  0  0  0  0  0  0  0  0  0  0
   38.3520   31.0450   49.6560 C   0  0  0  0  0  0  0  0  0  0  0  0
   37.2830   30.4290   50.2740 C   0  0  0  0  0  0  0  0  0  0  0  0
   37.3090   29.9720   51.9650 Cl  0  0  0  0  0  0  0  0  0  0  0  0
   34.8309   29.3457   42.6635 H   0  0  0  0  0  0  0  0  0  0  0  0
   36.7490   27.8548   42.8699 H   0  0  0  0  0  0  0  0  0  0  0  0
   36.2894   27.6144   44.5815 H   0  0  0  0  0  0  0  0  0  0  0  0
   34.6857   27.0416   42.0708 H   0  0  0  0  0  0  0  0  0  0  0  0
   35.1401   25.9264   43.4217 H   0  0  0  0  0  0  0  0  0  0  0  0
   32.9042   27.7453   43.1159 H   0  0  0  0  0  0  0  0  0  0  0  0
   33.1956   26.2734   44.2009 H   0  0  0  0  0  0  0  0  0  0  0  0
   32.6224   28.4138   45.3130 H   0  0  0  0  0  0  0  0  0  0  0  0
   34.1295   27.5032   45.8265 H   0  0  0  0  0  0  0  0  0  0  0  0
   33.8432   30.2310   44.7014 H   0  0  0  0  0  0  0  0  0  0  0  0
   36.5243   33.6233   42.8628 H   0  0  0  0  0  0  0  0  0  0  0  0
   34.8613   31.7077   42.8004 H   0  0  0  0  0  0  0  0  0  0  0  0
   39.4836   31.1091   44.5880 H   0  0  0  0  0  0  0  0  0  0  0  0
   36.1992   29.3102   46.0252 H   0  0  0  0  0  0  0  0  0  0  0  0
   37.0147   31.3485   46.5466 H   0  0  0  0  0  0  0  0  0  0  0  0
   39.1143   31.8706   47.8122 H   0  0  0  0  0  0  0  0  0  0  0  0
   39.2659   31.2685   50.2259 H   0  0  0  0  0  0  0  0  0  0  0  0
  1  9  1  0
  1  6  1  0
  2  1  1  0
  3  2  1  0
  3  4  1  0
  4  5  1  0
  6  5  1  0
  6 15  1  0
  7 12  2  0
  8  7  1  0
  8  9  2  0
  9 10  1  0
 10 11  2  0
 12 11  1  0
 13 14  2  0
 13 18  1  0
 15 13  1  0
 17 16  1  0
 17 22  2  0
 18 17  1  0
 19 18  2  0
 19 20  1  0
 20 21  2  0
 21 22  1  0
 22 23  1  0
  1 24  1  6
  2 25  1  0
  2 26  1  0
  3 27  1  0
  3 28  1  0
  4 29  1  0
  4 30  1  0
  5 31  1  0
  5 32  1  0
  6 33  1  6
  7 34  1  0
  8 35  1  0
 11 36  1  0
 15 37  1  0
 19 38  1  0
 20 39  1  0
 21 40  1  0
M  ISO  8  24  13  25  13  26  13  27  13  28  13  29  13  30  13  31  13
M  ISO  8  32  13  33  13  34  14  35  14  36  14  38  14  39  14  40  14
M  END
>  <minimizedAffinity>  (1) 
-5.45493984

>  <minimizedRMSD>  (1) 
5.94492531

$$$$
