
     RDKit          3D

 31 33  0  0  1  0  0  0  0  0999 V2000
   37.6060   29.7520   43.7610 C   0  0  2  0  0  0  0  0  0  0  0  0
   36.1600   29.6650   43.5780 C   0  0  0  0  0  0  0  0  0  0  0  0
   36.8130   30.7840   44.4120 C   0  0  1  0  0  0  0  0  0  0  0  0
   39.9440   31.6920   41.6260 C   0  0  0  0  0  0  0  0  0  0  0  0
   40.2380   30.7420   40.6060 C   0  0  0  0  0  0  0  0  0  0  0  0
   39.6380   29.4810   40.6780 C   0  0  0  0  0  0  0  0  0  0  0  0
   38.7960   29.2040   41.7100 N   0  0  0  0  0  0  0  0  0  0  0  0
   38.5340   30.1170   42.6600 C   0  0  0  0  0  0  0  0  0  0  0  0
   39.0920   31.3780   42.6540 N   0  0  0  0  0  0  0  0  0  0  0  0
   37.4500   31.4420   46.7060 C   0  0  0  0  0  0  0  0  0  0  0  0
   38.2130   32.3080   46.2140 O   0  0  0  0  0  0  0  0  0  0  0  0
   36.5970   30.6460   45.8560 N   0  0  0  0  0  0  0  0  0  0  0  0
   34.8530   30.0900   47.6450 Cl  0  0  0  0  0  0  0  0  0  0  0  0
   36.1910   30.4770   48.7280 C   0  0  0  0  0  0  0  0  0  0  0  0
   37.2530   31.0750   48.0960 C   0  0  0  0  0  0  0  0  0  0  0  0
   38.3010   31.3700   48.9960 C   0  0  0  0  0  0  0  0  0  0  0  0
   38.3730   31.1360   50.3780 C   0  0  0  0  0  0  0  0  0  0  0  0
   37.1860   30.5310   50.7510 C   0  0  0  0  0  0  0  0  0  0  0  0
   36.0720   30.1680   50.0540 C   0  0  0  0  0  0  0  0  0  0  0  0
   34.6670   29.4060   50.7430 Cl  0  0  0  0  0  0  0  0  0  0  0  0
   38.3512   29.0192   44.1041 H   0  0  0  0  0  0  0  0  0  0  0  0
   35.7090   29.8916   42.6006 H   0  0  0  0  0  0  0  0  0  0  0  0
   35.3869   28.9014   43.7489 H   0  0  0  0  0  0  0  0  0  0  0  0
   36.8318   31.8838   44.4149 H   0  0  0  0  0  0  0  0  0  0  0  0
   40.4059   32.6896   41.5887 H   0  0  0  0  0  0  0  0  0  0  0  0
   40.9208   30.9944   39.7813 H   0  0  0  0  0  0  0  0  0  0  0  0
   39.8444   28.7219   39.9092 H   0  0  0  0  0  0  0  0  0  0  0  0
   35.8780   30.0173   46.2415 H   0  0  0  0  0  0  0  0  0  0  0  0
   39.1848   31.8506   48.5512 H   0  0  0  0  0  0  0  0  0  0  0  0
   39.2149   31.3865   51.0401 H   0  0  0  0  0  0  0  0  0  0  0  0
   37.1299   30.2960   51.8241 H   0  0  0  0  0  0  0  0  0  0  0  0
  1  3  1  0
  2  1  1  0
  2  3  1  0
  3 12  1  0
  4  9  2  0
  5  6  2  0
  5  4  1  0
  6  7  1  0
  7  8  2  0
  8  1  1  0
  9  8  1  0
 10 15  1  0
 11 10  2  0
 12 10  1  0
 13 14  1  0
 14 19  2  0
 15 14  1  0
 15 16  2  0
 16 17  1  0
 17 18  2  0
 19 20  1  0
 19 18  1  0
  1 21  1  1
  2 22  1  0
  2 23  1  0
  3 24  1  6
  4 25  1  0
  5 26  1  0
  6 27  1  0
 12 28  1  0
 16 29  1  0
 17 30  1  0
 18 31  1  0
M  ISO  8  21  13  22  13  23  13  24  13  25  14  26  14  27  14  29  14
M  ISO  2  30  14  31  14
M  END
>  <minimizedAffinity>  (1) 
-5.46732044

>  <minimizedRMSD>  (1) 
4.29698229

$$$$
