
     RDKit          3D

 43 46  0  0  1  0  0  0  0  0999 V2000
   39.9010   30.7360   41.8490 C   0  0  2  0  0  0  0  0  0  0  0  0
   39.8990   31.9750   42.7650 C   0  0  1  0  0  0  0  0  0  0  0  0
   38.8200   32.7670   42.0740 C   0  0  0  0  0  0  0  0  0  0  0  0
   38.9400   32.5330   40.7250 O   0  0  0  0  0  0  0  0  0  0  0  0
   39.7770   31.4810   40.5130 C   0  0  0  0  0  0  0  0  0  0  0  0
   38.4930   31.0950   45.9510 C   0  0  0  0  0  0  0  0  0  0  0  0
   39.8250   31.0520   46.2630 C   0  0  0  0  0  0  0  0  0  0  0  0
   40.4640   31.3860   45.0690 C   0  0  0  0  0  0  0  0  0  0  0  0
   39.5580   31.6100   44.1120 N   0  0  0  0  0  0  0  0  0  0  0  0
   38.3480   31.4320   44.6500 N   0  0  0  0  0  0  0  0  0  0  0  0
   36.4580   30.6420   49.0690 C   0  0  0  0  0  0  0  0  0  0  0  0
   37.5370   30.9160   48.2410 C   0  0  0  0  0  0  0  0  0  0  0  0
   37.3930   30.8190   46.8700 C   0  0  0  0  0  0  0  0  0  0  0  0
   36.1900   30.4550   46.3840 N   0  0  0  0  0  0  0  0  0  0  0  0
   35.1460   30.1920   47.2150 C   0  0  0  0  0  0  0  0  0  0  0  0
   35.2750   30.2830   48.5330 N   0  0  0  0  0  0  0  0  0  0  0  0
   36.7590   30.7840   50.4230 O   0  0  0  0  0  0  0  0  0  0  0  0
   36.8070   29.7060   51.3210 C   0  0  0  0  0  0  0  0  0  0  0  0
   35.5540   29.2100   51.6240 F   0  0  0  0  0  0  0  0  0  0  0  0
   37.4780   30.0950   52.4540 F   0  0  0  0  0  0  0  0  0  0  0  0
   37.5600   28.6910   50.7360 F   0  0  0  0  0  0  0  0  0  0  0  0
   38.7230   30.0670   42.1090 O   0  0  0  0  0  0  0  0  0  0  0  0
   35.8620   29.2600   42.3950 Cl  0  0  0  0  0  0  0  0  0  0  0  0
   37.3010   28.2540   42.5120 C   0  0  0  0  0  0  0  0  0  0  0  0
   38.6020   28.7300   42.3620 C   0  0  0  0  0  0  0  0  0  0  0  0
   39.6320   27.8200   42.4800 C   0  0  0  0  0  0  0  0  0  0  0  0
   39.4270   26.4710   42.7390 C   0  0  0  0  0  0  0  0  0  0  0  0
   38.1160   26.0240   42.8840 C   0  0  0  0  0  0  0  0  0  0  0  0
   37.0610   26.9210   42.7690 C   0  0  0  0  0  0  0  0  0  0  0  0
   35.4780   26.2110   42.9760 Cl  0  0  0  0  0  0  0  0  0  0  0  0
   40.7331   30.0208   41.9268 H   0  0  0  0  0  0  0  0  0  0  0  0
   40.8538   32.5088   42.8809 H   0  0  0  0  0  0  0  0  0  0  0  0
   37.8301   32.4409   42.4258 H   0  0  0  0  0  0  0  0  0  0  0  0
   38.9241   33.8399   42.2934 H   0  0  0  0  0  0  0  0  0  0  0  0
   39.3593   30.8137   39.7448 H   0  0  0  0  0  0  0  0  0  0  0  0
   40.7606   31.8244   40.1601 H   0  0  0  0  0  0  0  0  0  0  0  0
   40.2855   30.8098   47.2322 H   0  0  0  0  0  0  0  0  0  0  0  0
   41.5536   31.4550   44.9346 H   0  0  0  0  0  0  0  0  0  0  0  0
   38.5044   31.2096   48.6746 H   0  0  0  0  0  0  0  0  0  0  0  0
   34.1763   29.8983   46.7868 H   0  0  0  0  0  0  0  0  0  0  0  0
   40.6649   28.1799   42.3634 H   0  0  0  0  0  0  0  0  0  0  0  0
   40.2751   25.7761   42.8270 H   0  0  0  0  0  0  0  0  0  0  0  0
   37.9159   24.9620   43.0893 H   0  0  0  0  0  0  0  0  0  0  0  0
  1 22  1  0
  1  2  1  0
  2  9  1  0
  3  2  1  0
  4  3  1  0
  5  4  1  0
  5  1  1  0
  6  7  1  0
  6 13  1  0
  8  7  2  0
  9 10  1  0
  9  8  1  0
 10  6  2  0
 11 17  1  0
 12 11  2  0
 13 12  1  0
 14 13  2  0
 14 15  1  0
 15 16  2  0
 16 11  1  0
 17 18  1  0
 18 19  1  0
 18 20  1  0
 21 18  1  0
 22 25  1  0
 23 24  1  0
 24 29  2  0
 25 26  2  0
 25 24  1  0
 26 27  1  0
 27 28  2  0
 29 28  1  0
 29 30  1  0
  1 31  1  6
  2 32  1  1
  3 33  1  0
  3 34  1  0
  5 35  1  0
  5 36  1  0
  7 37  1  0
  8 38  1  0
 12 39  1  0
 15 40  1  0
 26 41  1  0
 27 42  1  0
 28 43  1  0
M  ISO  8  31  13  32  13  33  13  34  13  35  13  36  13  37  14  38  14
M  ISO  5  39  14  40  14  41  14  42  14  43  14
M  END
>  <minimizedAffinity>  (1) 
-6.42988205

>  <minimizedRMSD>  (1) 
0.343470067

$$$$
