
     RDKit          3D

 44 47  0  0  0  0  0  0  0  0999 V2000
   34.4850   27.6960   49.4420 Cl  0  0  0  0  0  0  0  0  0  0  0  0
   33.7850   28.5880   48.1330 C   0  0  0  0  0  0  0  0  0  0  0  0
   34.3060   29.8150   47.7990 C   0  0  0  0  0  0  0  0  0  0  0  0
   33.7740   30.5510   46.7640 C   0  0  0  0  0  0  0  0  0  0  0  0
   32.7010   30.0870   46.0270 C   0  0  0  0  0  0  0  0  0  0  0  0
   32.1690   28.8600   46.3510 C   0  0  0  0  0  0  0  0  0  0  0  0
   30.8020   28.1700   45.4790 Cl  0  0  0  0  0  0  0  0  0  0  0  0
   32.7290   28.1530   47.3920 C   0  0  0  0  0  0  0  0  0  0  0  0
   33.9110   29.6210   43.3950 Cl  0  0  0  0  0  0  0  0  0  0  0  0
   32.5840   30.7590   43.6420 C   0  0  0  0  0  0  0  0  0  0  0  0
   32.1320   30.8610   44.9300 C   0  0  0  0  0  0  0  0  0  0  0  0
   31.0930   31.7460   45.1510 C   0  0  0  0  0  0  0  0  0  0  0  0
   30.5720   32.4680   44.0890 C   0  0  0  0  0  0  0  0  0  0  0  0
   31.0820   32.3070   42.8280 C   0  0  0  0  0  0  0  0  0  0  0  0
   32.1260   31.4340   42.5390 C   0  0  0  0  0  0  0  0  0  0  0  0
   32.7500   31.2530   40.9350 Cl  0  0  0  0  0  0  0  0  0  0  0  0
   36.5830   30.6540   50.5480 C   0  0  0  0  0  0  0  0  0  0  0  0
   37.5920   31.3700   49.9160 C   0  0  0  0  0  0  0  0  0  0  0  0
   37.4730   31.5540   48.5480 C   0  0  0  0  0  0  0  0  0  0  0  0
   36.3980   31.0390   47.8900 N   0  0  0  0  0  0  0  0  0  0  0  0
   35.4390   30.3480   48.5480 C   0  0  0  0  0  0  0  0  0  0  0  0
   35.5440   30.1640   49.8680 N   0  0  0  0  0  0  0  0  0  0  0  0
   38.4720   32.2930   47.7620 C   0  0  0  0  0  0  0  0  0  0  0  0
   39.1690   33.3810   48.2350 C   0  0  0  0  0  0  0  0  0  0  0  0
   40.0220   33.8570   47.2850 N   0  0  0  0  0  0  0  0  0  0  0  0
   39.8600   33.0720   46.2220 C   0  0  0  0  0  0  0  0  0  0  0  0
   38.9290   32.1430   46.5270 N   0  0  0  0  0  0  0  0  0  0  0  0
   40.6030   31.8270   44.2680 C   0  0  0  0  0  0  0  0  0  0  0  0
   40.1900   30.7880   44.7940 O   0  0  0  0  0  0  0  0  0  0  0  0
   40.4700   33.0830   44.9510 N   0  0  0  0  0  0  0  0  0  0  0  0
   32.1470   26.8230   47.7390 C   0  0  0  0  0  0  0  0  0  0  0  0
   33.1590   25.8640   47.8280 F   0  0  0  0  0  0  0  0  0  0  0  0
   31.3300   26.3570   46.6960 F   0  0  0  0  0  0  0  0  0  0  0  0
   31.3710   26.8570   48.8650 F   0  0  0  0  0  0  0  0  0  0  0  0
   34.2126   31.5295   46.5185 H   0  0  0  0  0  0  0  0  0  0  0  0
   30.6826   31.8762   46.1632 H   0  0  0  0  0  0  0  0  0  0  0  0
   29.7453   33.1734   44.2595 H   0  0  0  0  0  0  0  0  0  0  0  0
   30.6463   32.8946   42.0065 H   0  0  0  0  0  0  0  0  0  0  0  0
   36.6416   30.4870   51.6337 H   0  0  0  0  0  0  0  0  0  0  0  0
   38.4479   31.7732   50.4772 H   0  0  0  0  0  0  0  0  0  0  0  0
   39.0534   33.8080   49.2421 H   0  0  0  0  0  0  0  0  0  0  0  0
   40.6613   34.6599   47.3716 H   0  0  0  0  0  0  0  0  0  0  0  0
   41.0735   31.7897   43.2744 H   0  0  0  0  0  0  0  0  0  0  0  0
   40.8077   33.9594   44.5281 H   0  0  0  0  0  0  0  0  0  0  0  0
  2  1  1  0
  3  2  2  0
  3 21  1  0
  4  3  1  0
  5  6  1  0
  5  4  2  0
  6  8  2  0
  7  6  1  0
  8 31  1  0
  8  2  1  0
  9 10  1  0
 10 11  2  0
 11 12  1  0
 11  5  1  0
 13 12  2  0
 14 13  1  0
 15 14  2  0
 15 10  1  0
 16 15  1  0
 18 17  2  0
 19 18  1  0
 20 19  2  0
 20 21  1  0
 21 22  2  0
 22 17  1  0
 23 24  2  0
 23 19  1  0
 25 24  1  0
 26 27  2  0
 26 25  1  0
 27 23  1  0
 28 29  2  0
 28 30  1  0
 30 26  1  0
 31 32  1  0
 31 34  1  0
 33 31  1  0
  4 35  1  0
 12 36  1  0
 13 37  1  0
 14 38  1  0
 17 39  1  0
 18 40  1  0
 24 41  1  0
 25 42  1  0
 28 43  1  0
 30 44  1  0
M  ISO  8  35  14  36  14  37  14  38  14  39  14  40  14  41  14  42   9
M  ISO  1  43   6
M  END
>  <minimizedAffinity>  (1) 
-6.95188284

>  <minimizedRMSD>  (1) 
0.182444349

$$$$
