
     RDKit          3D

 36 38  0  0  1  0  0  0  0  0999 V2000
   35.7660   29.6770   48.7140 N   0  0  0  0  0  0  0  0  0  0  0  0
   36.6700   28.9150   49.5450 C   0  0  0  0  0  0  0  0  0  0  0  0
   37.2340   29.5730   50.7280 C   0  0  0  0  0  0  0  0  0  0  0  0
   37.3560   31.0420   50.7240 C   0  0  0  0  0  0  0  0  0  0  0  0
   36.4390   31.7350   49.7630 C   0  0  0  0  0  0  0  0  0  0  0  0
   36.3860   30.9650   48.4380 C   0  0  1  0  0  0  0  0  0  0  0  0
   34.4930   29.2310   48.2530 C   0  0  0  0  0  0  0  0  0  0  0  0
   33.8900   29.6590   47.0730 C   0  0  0  0  0  0  0  0  0  0  0  0
   32.6480   29.1490   46.7390 C   0  0  0  0  0  0  0  0  0  0  0  0
   32.0780   28.2520   47.5830 N   0  0  0  0  0  0  0  0  0  0  0  0
   32.6850   27.8630   48.7080 C   0  0  0  0  0  0  0  0  0  0  0  0
   33.8970   28.3540   49.0450 N   0  0  0  0  0  0  0  0  0  0  0  0
   37.7160   30.8070   48.0630 O   0  0  0  0  0  0  0  0  0  0  0  0
   36.9690   30.3630   45.2920 Cl  0  0  0  0  0  0  0  0  0  0  0  0
   38.1200   31.5320   45.9390 C   0  0  0  0  0  0  0  0  0  0  0  0
   38.4280   31.6890   47.2810 C   0  0  0  0  0  0  0  0  0  0  0  0
   39.3490   32.6490   47.6220 C   0  0  0  0  0  0  0  0  0  0  0  0
   39.9450   33.4300   46.6600 C   0  0  0  0  0  0  0  0  0  0  0  0
   39.6520   33.2880   45.3220 C   0  0  0  0  0  0  0  0  0  0  0  0
   38.7160   32.3160   44.9560 C   0  0  0  0  0  0  0  0  0  0  0  0
   38.3740   32.1710   43.2470 Cl  0  0  0  0  0  0  0  0  0  0  0  0
   36.1239   28.0261   49.8937 H   0  0  0  0  0  0  0  0  0  0  0  0
   37.5382   28.7173   48.8991 H   0  0  0  0  0  0  0  0  0  0  0  0
   36.5987   29.3021   51.5842 H   0  0  0  0  0  0  0  0  0  0  0  0
   38.2739   29.2163   50.7647 H   0  0  0  0  0  0  0  0  0  0  0  0
   37.1341   31.4087   51.7370 H   0  0  0  0  0  0  0  0  0  0  0  0
   38.3821   31.2716   50.4010 H   0  0  0  0  0  0  0  0  0  0  0  0
   35.4289   31.7850   50.1955 H   0  0  0  0  0  0  0  0  0  0  0  0
   36.8157   32.7511   49.5745 H   0  0  0  0  0  0  0  0  0  0  0  0
   35.8139   31.4674   47.6441 H   0  0  0  0  0  0  0  0  0  0  0  0
   34.3912   30.3881   46.4194 H   0  0  0  0  0  0  0  0  0  0  0  0
   32.1374   29.4615   45.8162 H   0  0  0  0  0  0  0  0  0  0  0  0
   32.1915   27.1340   49.3676 H   0  0  0  0  0  0  0  0  0  0  0  0
   39.6136   32.7952   48.6796 H   0  0  0  0  0  0  0  0  0  0  0  0
   40.6774   34.1906   46.9683 H   0  0  0  0  0  0  0  0  0  0  0  0
   40.1392   33.9197   44.5646 H   0  0  0  0  0  0  0  0  0  0  0  0
  1  2  1  0
  2  3  1  0
  4  3  1  0
  5  4  1  0
  6  1  1  0
  6  5  1  0
  7  1  1  0
  7 12  1  0
  8  7  2  0
  9  8  1  0
  9 10  2  0
 10 11  1  0
 11 12  2  0
 13  6  1  0
 14 15  1  0
 15 16  2  0
 16 17  1  0
 16 13  1  0
 18 17  2  0
 19 18  1  0
 20 19  2  0
 20 15  1  0
 21 20  1  0
  2 22  1  0
  2 23  1  0
  3 24  1  0
  3 25  1  0
  4 26  1  0
  4 27  1  0
  5 28  1  0
  5 29  1  0
  6 30  1  6
  8 31  1  0
  9 32  1  0
 11 33  1  0
 17 34  1  0
 18 35  1  0
 19 36  1  0
M  ISO  8  22  13  23  13  24  13  25  13  26  13  27  13  28  13  29  13
M  ISO  7  30  13  31  14  32  14  33  14  34  14  35  14  36  14
M  END
>  <minimizedAffinity>  (1) 
-5.81385326

>  <minimizedRMSD>  (1) 
1.12493682

$$$$
