
     RDKit          3D

 37 40  0  0  1  0  0  0  0  0999 V2000
   34.9590   28.9960   50.4720 C   0  0  0  0  0  0  0  0  0  0  0  0
   36.7150   30.7920   50.1550 C   0  0  1  0  0  0  0  0  0  0  0  0
   36.3280   29.4230   50.0240 C   0  0  1  0  0  0  0  0  0  0  0  0
   37.4360   29.7160   50.9890 C   0  0  0  0  0  0  0  0  0  0  0  0
   37.6530   31.4540   49.1730 C   0  0  0  0  0  0  0  0  0  0  0  0
   38.1100   32.7150   49.5170 C   0  0  0  0  0  0  0  0  0  0  0  0
   38.9640   33.3290   48.5860 C   0  0  0  0  0  0  0  0  0  0  0  0
   39.2910   32.6830   47.4320 N   0  0  0  0  0  0  0  0  0  0  0  0
   38.8170   31.4320   47.1280 C   0  0  0  0  0  0  0  0  0  0  0  0
   37.9810   30.8150   48.0250 N   0  0  0  0  0  0  0  0  0  0  0  0
   33.9970   28.8500   49.3390 C   0  0  0  0  0  0  0  0  0  0  0  0
   34.1050   29.5930   48.1740 C   0  0  0  0  0  0  0  0  0  0  0  0
   33.1320   29.2720   47.3290 N   0  0  0  0  0  0  0  0  0  0  0  0
   32.4020   28.3390   47.9290 C   0  0  0  0  0  0  0  0  0  0  0  0
   32.9240   28.0830   49.1430 N   0  0  0  0  0  0  0  0  0  0  0  0
   29.8950   28.2200   49.8020 Cl  0  0  0  0  0  0  0  0  0  0  0  0
   30.0640   27.4850   48.2330 C   0  0  0  0  0  0  0  0  0  0  0  0
   31.2210   27.6110   47.5060 C   0  0  0  0  0  0  0  0  0  0  0  0
   31.1430   26.9550   46.2970 C   0  0  0  0  0  0  0  0  0  0  0  0
   30.0580   26.2500   45.8390 C   0  0  0  0  0  0  0  0  0  0  0  0
   28.9260   26.1610   46.6150 C   0  0  0  0  0  0  0  0  0  0  0  0
   28.9420   26.7950   47.8360 C   0  0  0  0  0  0  0  0  0  0  0  0
   27.4880   26.6600   48.7950 Cl  0  0  0  0  0  0  0  0  0  0  0  0
   35.0442   28.0279   50.9873 H   0  0  0  0  0  0  0  0  0  0  0  0
   34.5694   29.7805   51.1374 H   0  0  0  0  0  0  0  0  0  0  0  0
   36.1075   31.6969   50.3038 H   0  0  0  0  0  0  0  0  0  0  0  0
   36.2474   28.7169   49.1844 H   0  0  0  0  0  0  0  0  0  0  0  0
   38.4720   29.4280   50.7572 H   0  0  0  0  0  0  0  0  0  0  0  0
   37.6388   29.5320   52.0544 H   0  0  0  0  0  0  0  0  0  0  0  0
   37.8226   33.2046   50.4592 H   0  0  0  0  0  0  0  0  0  0  0  0
   39.3688   34.3315   48.7887 H   0  0  0  0  0  0  0  0  0  0  0  0
   39.1000   30.9354   46.1882 H   0  0  0  0  0  0  0  0  0  0  0  0
   34.8859   30.3423   47.9772 H   0  0  0  0  0  0  0  0  0  0  0  0
   32.9744   29.6690   46.3917 H   0  0  0  0  0  0  0  0  0  0  0  0
   32.0260   27.0001   45.6426 H   0  0  0  0  0  0  0  0  0  0  0  0
   30.0937   25.7584   44.8556 H   0  0  0  0  0  0  0  0  0  0  0  0
   28.0414   25.6041   46.2725 H   0  0  0  0  0  0  0  0  0  0  0  0
  2  4  1  0
  3  2  1  0
  3  1  1  0
  3  4  1  0
  5  6  2  0
  5  2  1  0
  7  6  1  0
  8  7  2  0
  9  8  1  0
  9 10  2  0
 10  5  1  0
 11  1  1  0
 12 11  2  0
 13 14  1  0
 13 12  1  0
 14 15  2  0
 15 11  1  0
 17 16  1  0
 18 14  1  0
 18 17  2  0
 19 18  1  0
 20 19  2  0
 20 21  1  0
 21 22  2  0
 22 17  1  0
 22 23  1  0
  1 24  1  0
  1 25  1  0
  2 26  1  1
  3 27  1  6
  4 28  1  0
  4 29  1  0
  6 30  1  0
  7 31  1  0
  9 32  1  0
 12 33  1  0
 13 34  1  0
 19 35  1  0
 20 36  1  0
 21 37  1  0
M  ISO  8  24   8  25   8  26  13  27  13  28  13  29  13  30  14  31  14
M  ISO  6  32  14  33  14  34   9  35  14  36  14  37  14
M  END
>  <minimizedAffinity>  (1) 
-6.42395353

>  <minimizedRMSD>  (1) 
0.685120702

$$$$
