
     RDKit          3D

 47 52  0  0  1  0  0  0  0  0999 V2000
   30.5070   28.8430   46.4720 C   0  0  0  0  0  0  0  0  0  0  0  0
   31.1020   27.8240   45.7370 C   0  0  0  0  0  0  0  0  0  0  0  0
   32.3970   27.7300   46.1460 N   0  0  0  0  0  0  0  0  0  0  0  0
   32.6190   28.6700   47.1180 C   0  0  0  0  0  0  0  0  0  0  0  0
   31.4690   29.3310   47.3000 N   0  0  0  0  0  0  0  0  0  0  0  0
   28.2290   29.3800   47.5080 C   0  0  1  0  0  0  0  0  0  0  0  0
   27.9890   28.2730   46.4150 C   0  0  0  0  0  0  0  0  0  0  0  0
   29.0830   29.2930   46.3250 C   0  0  2  0  0  0  0  0  0  0  0  0
   26.0920   32.2540   47.1810 C   0  0  0  0  0  0  0  0  0  0  0  0
   25.5150   31.6400   48.2680 C   0  0  0  0  0  0  0  0  0  0  0  0
   26.2460   30.4610   48.5460 C   0  0  0  0  0  0  0  0  0  0  0  0
   27.2250   30.4130   47.6240 N   0  0  0  0  0  0  0  0  0  0  0  0
   27.1020   31.4670   46.8550 N   0  0  0  0  0  0  0  0  0  0  0  0
   25.4460   34.6710   47.4060 C   0  0  0  0  0  0  0  0  0  0  0  0
   25.6130   33.4870   46.6120 C   0  0  0  0  0  0  0  0  0  0  0  0
   25.2980   33.5740   45.2820 C   0  0  0  0  0  0  0  0  0  0  0  0
   24.8470   34.7560   44.7740 N   0  0  0  0  0  0  0  0  0  0  0  0
   24.7030   35.8530   45.5630 C   0  0  0  0  0  0  0  0  0  0  0  0
   25.0000   35.8210   46.8810 N   0  0  0  0  0  0  0  0  0  0  0  0
   33.9060   28.9040   47.8210 C   0  0  0  0  0  0  0  0  0  0  0  0
   34.1890   28.2380   49.0320 C   0  0  0  0  0  0  0  0  0  0  0  0
   35.8570   28.8670   49.4610 S   0  0  0  0  0  0  0  0  0  0  0  0
   35.8780   29.9330   47.9060 C   0  0  0  0  0  0  0  0  0  0  0  0
   34.8730   29.6980   47.4340 N   0  0  0  0  0  0  0  0  0  0  0  0
   36.5110   31.7920   50.0550 Cl  0  0  0  0  0  0  0  0  0  0  0  0
   37.4000   31.7160   48.5650 C   0  0  0  0  0  0  0  0  0  0  0  0
   37.0620   30.8140   47.5700 C   0  0  0  0  0  0  0  0  0  0  0  0
   37.6890   30.6690   46.3660 C   0  0  0  0  0  0  0  0  0  0  0  0
   38.7570   31.5160   46.1480 C   0  0  0  0  0  0  0  0  0  0  0  0
   39.1920   32.4670   47.0770 C   0  0  0  0  0  0  0  0  0  0  0  0
   38.4780   32.5170   48.2560 C   0  0  0  0  0  0  0  0  0  0  0  0
   38.9270   33.6720   49.5070 Cl  0  0  0  0  0  0  0  0  0  0  0  0
   30.6159   27.2072   44.9668 H   0  0  0  0  0  0  0  0  0  0  0  0
   33.0940   27.0632   45.7849 H   0  0  0  0  0  0  0  0  0  0  0  0
   28.4287   29.4165   48.5891 H   0  0  0  0  0  0  0  0  0  0  0  0
   28.2235   27.2192   46.6261 H   0  0  0  0  0  0  0  0  0  0  0  0
   27.1502   27.9469   45.7825 H   0  0  0  0  0  0  0  0  0  0  0  0
   29.3733   30.0246   45.5566 H   0  0  0  0  0  0  0  0  0  0  0  0
   24.6380   32.0024   48.8243 H   0  0  0  0  0  0  0  0  0  0  0  0
   26.0539   29.7343   49.3492 H   0  0  0  0  0  0  0  0  0  0  0  0
   25.6914   34.6336   48.4776 H   0  0  0  0  0  0  0  0  0  0  0  0
   25.4081   32.6963   44.6282 H   0  0  0  0  0  0  0  0  0  0  0  0
   24.3358   36.7896   45.1181 H   0  0  0  0  0  0  0  0  0  0  0  0
   33.5639   27.5195   49.5824 H   0  0  0  0  0  0  0  0  0  0  0  0
   37.3652   29.9278   45.6205 H   0  0  0  0  0  0  0  0  0  0  0  0
   39.2952   31.4389   45.1918 H   0  0  0  0  0  0  0  0  0  0  0  0
   40.0467   33.1309   46.8803 H   0  0  0  0  0  0  0  0  0  0  0  0
  1  5  1  0
  2  3  1  0
  2  1  2  0
  3  4  1  0
  4  5  2  0
  4 20  1  0
  6 12  1  0
  7  6  1  0
  8  7  1  0
  8  1  1  0
  8  6  1  0
  9 10  1  0
 10 11  2  0
 12 11  1  0
 13  9  2  0
 13 12  1  0
 15  9  1  0
 15 14  2  0
 16 15  1  0
 17 16  2  0
 17 18  1  0
 18 19  2  0
 19 14  1  0
 20 21  2  0
 21 22  1  0
 23 22  1  0
 24 20  1  0
 24 23  2  0
 26 25  1  0
 27 23  1  0
 27 26  2  0
 28 27  1  0
 29 28  2  0
 29 30  1  0
 30 31  2  0
 31 26  1  0
 31 32  1  0
  2 33  1  0
  3 34  1  0
  6 35  1  1
  7 36  1  0
  7 37  1  0
  8 38  1  6
 10 39  1  0
 11 40  1  0
 14 41  1  0
 16 42  1  0
 18 43  1  0
 21 44  1  0
 28 45  1  0
 29 46  1  0
 30 47  1  0
M  ISO  8  33  14  34   9  35  13  36  13  37  13  38  13  39  14  40  14
M  ISO  7  41  14  42  14  43  14  44  14  45  14  46  14  47  14
M  END
>  <minimizedAffinity>  (1) 
-7.9451499

>  <minimizedRMSD>  (1) 
4.59667397

$$$$
