
     RDKit          3D

 35 37  0  0  1  0  0  0  0  0999 V2000
   37.0180   29.4850   49.7420 C   0  0  1  0  0  0  0  0  0  0  0  0
   36.3710   29.5120   51.0320 C   0  0  0  0  0  0  0  0  0  0  0  0
   35.5530   29.4210   49.7840 C   0  0  2  0  0  0  0  0  0  0  0  0
   37.6230   30.7340   49.1620 C   0  0  0  0  0  0  0  0  0  0  0  0
   38.2970   31.5690   50.0770 C   0  0  0  0  0  0  0  0  0  0  0  0
   38.8440   32.7030   49.5280 C   0  0  0  0  0  0  0  0  0  0  0  0
   38.7200   32.9540   48.2060 N   0  0  0  0  0  0  0  0  0  0  0  0
   38.0610   32.1210   47.3530 C   0  0  0  0  0  0  0  0  0  0  0  0
   37.4980   30.9770   47.8580 N   0  0  0  0  0  0  0  0  0  0  0  0
   37.9390   32.3450   45.9760 N   0  0  0  0  0  0  0  0  0  0  0  0
   35.0100   28.1580   49.5180 O   0  0  0  0  0  0  0  0  0  0  0  0
   33.6090   26.9910   47.6960 O   0  0  0  0  0  0  0  0  0  0  0  0
   33.7500   28.2860   48.4320 P   0  0  1  0  0  0  0  0  0  0  0  0
   32.2580   28.3680   49.3300 O   0  0  0  0  0  0  0  0  0  0  0  0
   33.9180   29.6350   47.5120 O   0  0  0  0  0  0  0  0  0  0  0  0
   31.3320   30.1450   46.0270 Cl  0  0  0  0  0  0  0  0  0  0  0  0
   32.9160   30.1750   45.3450 C   0  0  0  0  0  0  0  0  0  0  0  0
   33.9610   29.9120   46.2070 C   0  0  0  0  0  0  0  0  0  0  0  0
   35.2530   29.9360   45.6530 C   0  0  0  0  0  0  0  0  0  0  0  0
   35.4050   30.2170   44.2920 C   0  0  0  0  0  0  0  0  0  0  0  0
   34.3390   30.4710   43.4790 C   0  0  0  0  0  0  0  0  0  0  0  0
   33.0760   30.4510   44.0010 C   0  0  0  0  0  0  0  0  0  0  0  0
   31.6720   30.7620   43.0390 Cl  0  0  0  0  0  0  0  0  0  0  0  0
   37.8249   28.8629   49.3274 H   0  0  0  0  0  0  0  0  0  0  0  0
   36.4475   28.6448   51.7043 H   0  0  0  0  0  0  0  0  0  0  0  0
   36.3938   30.1867   51.9005 H   0  0  0  0  0  0  0  0  0  0  0  0
   34.7232   29.9924   49.3425 H   0  0  0  0  0  0  0  0  0  0  0  0
   38.3784   31.3305   51.1478 H   0  0  0  0  0  0  0  0  0  0  0  0
   39.3873   33.4124   50.1695 H   0  0  0  0  0  0  0  0  0  0  0  0
   38.3467   33.1914   45.5538 H   0  0  0  0  0  0  0  0  0  0  0  0
   37.4415   31.6633   45.3854 H   0  0  0  0  0  0  0  0  0  0  0  0
   32.4556   28.3571   50.3000 H   0  0  0  0  0  0  0  0  0  0  0  0
   36.1328   29.7363   46.2823 H   0  0  0  0  0  0  0  0  0  0  0  0
   36.4175   30.2339   43.8623 H   0  0  0  0  0  0  0  0  0  0  0  0
   34.4948   30.6900   42.4124 H   0  0  0  0  0  0  0  0  0  0  0  0
  1  3  1  0
  1  2  1  0
  3  2  1  0
  4  1  1  0
  4  5  2  0
  6  5  1  0
  7  6  2  0
  8  9  2  0
  8  7  1  0
  9  4  1  0
 10  8  1  0
 11  3  1  0
 13 12  2  0
 13 14  1  0
 13 11  1  0
 15 13  1  0
 17 16  1  0
 17 18  2  0
 18 15  1  0
 19 18  1  0
 20 19  2  0
 21 22  2  0
 21 20  1  0
 22 17  1  0
 23 22  1  0
  1 24  1  1
  2 25  1  0
  2 26  1  0
  3 27  1  6
  5 28  1  0
  6 29  1  0
 10 30  1  0
 10 31  1  0
 14 32  1  0
 19 33  1  0
 20 34  1  0
 21 35  1  0
M  ISO  8  24  13  25  13  26  13  27  13  28  14  29  14  32   3  33  14
M  ISO  2  34  14  35  14
M  END
>  <minimizedAffinity>  (1) 
-5.69596958

>  <minimizedRMSD>  (1) 
2.92207623

$$$$
