
     RDKit          3D

 33 36  0  0  0  0  0  0  0  0999 V2000
   37.4380   29.2350   50.8990 Br  0  0  0  0  0  0  0  0  0  0  0  0
   36.0290   29.2790   49.6040 C   0  0  0  0  0  0  0  0  0  0  0  0
   36.0090   30.2500   48.6140 C   0  0  0  0  0  0  0  0  0  0  0  0
   34.9630   30.2140   47.7220 C   0  0  0  0  0  0  0  0  0  0  0  0
   33.9430   29.2750   47.7570 C   0  0  0  0  0  0  0  0  0  0  0  0
   34.0030   28.3350   48.7540 C   0  0  0  0  0  0  0  0  0  0  0  0
   35.0390   28.3410   49.6680 C   0  0  0  0  0  0  0  0  0  0  0  0
   32.1780   28.1160   46.5860 C   0  0  0  0  0  0  0  0  0  0  0  0
   32.8660   29.2950   46.7830 C   0  0  0  0  0  0  0  0  0  0  0  0
   32.5060   30.4160   46.0620 C   0  0  0  0  0  0  0  0  0  0  0  0
   31.4720   30.3330   45.1620 C   0  0  0  0  0  0  0  0  0  0  0  0
   30.7790   29.1400   44.9650 C   0  0  0  0  0  0  0  0  0  0  0  0
   31.1210   27.9930   45.6790 C   0  0  0  0  0  0  0  0  0  0  0  0
   29.7680   29.2830   44.0050 O   0  0  0  0  0  0  0  0  0  0  0  0
   29.5930   30.7060   43.9360 C   0  0  0  0  0  0  0  0  0  0  0  0
   30.8560   31.2420   44.2860 O   0  0  0  0  0  0  0  0  0  0  0  0
   38.0120   33.1840   49.4260 C   0  0  0  0  0  0  0  0  0  0  0  0
   39.0240   33.1890   48.4410 C   0  0  0  0  0  0  0  0  0  0  0  0
   39.0000   32.1680   47.4970 C   0  0  0  0  0  0  0  0  0  0  0  0
   38.0150   31.2110   47.5560 N   0  0  0  0  0  0  0  0  0  0  0  0
   37.0620   31.2580   48.5340 C   0  0  0  0  0  0  0  0  0  0  0  0
   37.0700   32.2380   49.4560 N   0  0  0  0  0  0  0  0  0  0  0  0
   34.9335   30.9779   46.9311 H   0  0  0  0  0  0  0  0  0  0  0  0
   33.2178   27.5681   48.8267 H   0  0  0  0  0  0  0  0  0  0  0  0
   35.0667   27.5780   50.4598 H   0  0  0  0  0  0  0  0  0  0  0  0
   32.4745   27.2317   47.1693 H   0  0  0  0  0  0  0  0  0  0  0  0
   33.0418   31.3657   46.2069 H   0  0  0  0  0  0  0  0  0  0  0  0
   30.5877   27.0415   45.5366 H   0  0  0  0  0  0  0  0  0  0  0  0
   29.3101   31.0129   42.9183 H   0  0  0  0  0  0  0  0  0  0  0  0
   28.7924   31.0592   44.6025 H   0  0  0  0  0  0  0  0  0  0  0  0
   37.9994   33.9784   50.1868 H   0  0  0  0  0  0  0  0  0  0  0  0
   39.7997   33.9687   48.4212 H   0  0  0  0  0  0  0  0  0  0  0  0
   39.7649   32.1265   46.7076 H   0  0  0  0  0  0  0  0  0  0  0  0
  2  7  2  0
  2  1  1  0
  3  2  1  0
  4  5  1  0
  4  3  2  0
  5  6  2  0
  6  7  1  0
  8  9  2  0
  9  5  1  0
 10  9  1  0
 11 10  2  0
 12 11  1  0
 12 13  2  0
 13  8  1  0
 14 12  1  0
 15 14  1  0
 15 16  1  0
 16 11  1  0
 17 22  2  0
 18 17  1  0
 19 20  1  0
 19 18  2  0
 20 21  2  0
 21  3  1  0
 21 22  1  0
  4 23  1  0
  6 24  1  0
  7 25  1  0
  8 26  1  0
 10 27  1  0
 13 28  1  0
 15 29  1  0
 15 30  1  0
 17 31  1  0
 18 32  1  0
 19 33  1  0
M  ISO  8  23  14  24  14  25  14  26  14  27  14  28  14  29  13  30  13
M  ISO  3  31  14  32  14  33  14
M  END
>  <minimizedAffinity>  (1) 
-6.17297363

>  <minimizedRMSD>  (1) 
0.46845901

$$$$
