
     RDKit          3D

 50 55  0  0  1  0  0  0  0  0999 V2000
   38.9200   31.6990   41.8190 N   0  0  0  0  0  0  0  0  0  0  0  0
   39.2480   33.0950   41.7980 C   0  0  1  0  0  0  0  0  0  0  0  0
   38.1890   33.8740   41.1700 C   0  0  0  0  0  0  0  0  0  0  0  0
   38.0620   33.4730   39.8330 O   0  0  0  0  0  0  0  0  0  0  0  0
   37.8650   32.1230   39.6500 C   0  0  0  0  0  0  0  0  0  0  0  0
   38.8200   31.2800   40.4370 C   0  0  1  0  0  0  0  0  0  0  0  0
   41.2810   30.4800   40.2860 C   0  0  0  0  0  0  0  0  0  0  0  0
   40.1340   31.0840   39.8190 C   0  0  0  0  0  0  0  0  0  0  0  0
   40.1620   31.6310   38.5300 C   0  0  0  0  0  0  0  0  0  0  0  0
   41.3160   31.5650   37.7450 C   0  0  0  0  0  0  0  0  0  0  0  0
   42.4130   30.9440   38.2910 C   0  0  0  0  0  0  0  0  0  0  0  0
   42.4330   30.3970   39.5420 C   0  0  0  0  0  0  0  0  0  0  0  0
   43.4410   30.9950   37.3430 O   0  0  0  0  0  0  0  0  0  0  0  0
   43.0200   31.8300   36.2940 C   0  0  0  0  0  0  0  0  0  0  0  0
   41.6420   32.0060   36.4610 O   0  0  0  0  0  0  0  0  0  0  0  0
   39.4360   33.4970   43.1500 O   0  0  0  0  0  0  0  0  0  0  0  0
   36.1900   30.2350   46.8430 C   0  0  0  0  0  0  0  0  0  0  0  0
   37.0820   30.7550   47.7720 C   0  0  0  0  0  0  0  0  0  0  0  0
   38.0970   31.6270   47.3790 C   0  0  0  0  0  0  0  0  0  0  0  0
   38.1570   31.9340   46.0250 C   0  0  0  0  0  0  0  0  0  0  0  0
   39.0630   32.7660   45.4050 N   0  0  0  0  0  0  0  0  0  0  0  0
   38.7290   32.7570   44.0990 C   0  0  0  0  0  0  0  0  0  0  0  0
   37.6830   31.9740   43.9020 N   0  0  0  0  0  0  0  0  0  0  0  0
   37.2970   31.4430   45.0760 C   0  0  0  0  0  0  0  0  0  0  0  0
   36.2870   30.5700   45.5010 C   0  0  0  0  0  0  0  0  0  0  0  0
   37.5310   30.1850   51.4620 C   0  0  0  0  0  0  0  0  0  0  0  0
   37.8330   30.6240   50.1720 C   0  0  0  0  0  0  0  0  0  0  0  0
   36.9340   30.3740   49.1620 C   0  0  0  0  0  0  0  0  0  0  0  0
   35.7770   29.6990   49.4940 N   0  0  0  0  0  0  0  0  0  0  0  0
   35.5080   29.2860   50.7500 C   0  0  0  0  0  0  0  0  0  0  0  0
   36.3730   29.5260   51.7140 N   0  0  0  0  0  0  0  0  0  0  0  0
   39.6594   31.1669   42.2996 H   0  0  0  0  0  0  0  0  0  0  0  0
   40.1596   33.2679   41.2071 H   0  0  0  0  0  0  0  0  0  0  0  0
   37.2402   33.7011   41.6990 H   0  0  0  0  0  0  0  0  0  0  0  0
   38.4368   34.9447   41.2159 H   0  0  0  0  0  0  0  0  0  0  0  0
   36.8396   31.8733   39.9601 H   0  0  0  0  0  0  0  0  0  0  0  0
   38.0363   31.9070   38.5851 H   0  0  0  0  0  0  0  0  0  0  0  0
   38.3632   30.2794   40.4268 H   0  0  0  0  0  0  0  0  0  0  0  0
   41.2740   30.0461   41.2968 H   0  0  0  0  0  0  0  0  0  0  0  0
   39.2618   32.1200   38.1295 H   0  0  0  0  0  0  0  0  0  0  0  0
   43.3357   29.9092   39.9384 H   0  0  0  0  0  0  0  0  0  0  0  0
   43.2286   31.3566   35.3232 H   0  0  0  0  0  0  0  0  0  0  0  0
   43.5511   32.7931   36.3119 H   0  0  0  0  0  0  0  0  0  0  0  0
   35.3970   29.5491   47.1759 H   0  0  0  0  0  0  0  0  0  0  0  0
   38.8112   32.0488   48.1015 H   0  0  0  0  0  0  0  0  0  0  0  0
   39.8344   33.2862   45.8469 H   0  0  0  0  0  0  0  0  0  0  0  0
   35.5748   30.1526   44.7740 H   0  0  0  0  0  0  0  0  0  0  0  0
   38.2391   30.3754   52.2820 H   0  0  0  0  0  0  0  0  0  0  0  0
   38.7718   31.1595   49.9673 H   0  0  0  0  0  0  0  0  0  0  0  0
   34.5714   28.7518   50.9678 H   0  0  0  0  0  0  0  0  0  0  0  0
  2  1  1  0
  2 16  1  0
  3  2  1  0
  4  3  1  0
  5  4  1  0
  5  6  1  0
  6  1  1  0
  8  7  2  0
  8  6  1  0
  9  8  1  0
 10 11  1  0
 10  9  2  0
 11 12  2  0
 12  7  1  0
 13 11  1  0
 14 15  1  0
 14 13  1  0
 15 10  1  0
 16 22  1  0
 17 18  2  0
 18 28  1  0
 19 18  1  0
 20 19  2  0
 21 20  1  0
 22 21  1  0
 23 22  2  0
 23 24  1  0
 24 25  2  0
 24 20  1  0
 25 17  1  0
 26 31  2  0
 27 26  1  0
 28 29  1  0
 28 27  2  0
 29 30  2  0
 30 31  1  0
  1 32  1  0
  2 33  1  6
  3 34  1  0
  3 35  1  0
  5 36  1  0
  5 37  1  0
  6 38  1  1
  7 39  1  0
  9 40  1  0
 12 41  1  0
 14 42  1  0
 14 43  1  0
 17 44  1  0
 19 45  1  0
 21 46  1  0
 25 47  1  0
 26 48  1  0
 27 49  1  0
 30 50  1  0
M  ISO  8  32   5  33  13  34  13  35  13  36  13  37  13  38  13  39  14
M  ISO  8  40  14  41  14  42  13  43  13  44  14  45  14  46   9  47  14
M  ISO  3  48  14  49  14  50  14
M  END
>  <minimizedAffinity>  (1) 
-6.14330339

>  <minimizedRMSD>  (1) 
1.36494899

$$$$
