
     RDKit          3D

 38 41  0  0  1  0  0  0  0  0999 V2000
   37.2990   30.4070   49.0840 C   0  0  0  0  0  0  0  0  0  0  0  0
   37.6520   31.3510   50.0750 C   0  0  0  0  0  0  0  0  0  0  0  0
   38.4660   32.4240   49.7230 C   0  0  0  0  0  0  0  0  0  0  0  0
   38.8820   32.4930   48.4050 N   0  0  0  0  0  0  0  0  0  0  0  0
   38.5300   31.5860   47.5000 C   0  0  0  0  0  0  0  0  0  0  0  0
   37.7420   30.5480   47.8400 N   0  0  0  0  0  0  0  0  0  0  0  0
   40.2090   31.2160   45.7210 C   0  0  0  0  0  0  0  0  0  0  0  0
   38.9830   31.6870   46.1250 C   0  0  0  0  0  0  0  0  0  0  0  0
   38.1660   32.2700   45.1980 C   0  0  0  0  0  0  0  0  0  0  0  0
   38.6110   32.3580   43.8990 C   0  0  0  0  0  0  0  0  0  0  0  0
   39.8380   31.9010   43.4320 C   0  0  0  0  0  0  0  0  0  0  0  0
   40.6290   31.3190   44.4080 C   0  0  0  0  0  0  0  0  0  0  0  0
   39.8720   32.1880   42.0880 O   0  0  0  0  0  0  0  0  0  0  0  0
   38.9400   33.2250   41.8460 C   0  0  0  0  0  0  0  0  0  0  0  0
   37.9370   32.9120   42.8110 O   0  0  0  0  0  0  0  0  0  0  0  0
   36.2580   29.1140   49.7180 S   0  0  0  0  0  0  0  0  0  0  0  0
   33.7780   28.2090   49.1660 N   0  0  0  0  0  0  0  0  0  0  0  0
   34.4950   29.4490   49.3540 C   0  0  2  0  0  0  0  0  0  0  0  0
   34.3960   30.2360   48.0700 C   0  0  0  0  0  0  0  0  0  0  0  0
   33.3670   29.7500   47.2350 O   0  0  0  0  0  0  0  0  0  0  0  0
   33.7980   28.4940   46.8060 C   0  0  0  0  0  0  0  0  0  0  0  0
   34.2200   27.5930   47.9480 C   0  0  2  0  0  0  0  0  0  0  0  0
   33.6100   26.3280   47.8340 O   0  0  0  0  0  0  0  0  0  0  0  0
   37.2894   31.2396   51.1075 H   0  0  0  0  0  0  0  0  0  0  0  0
   38.7654   33.1836   50.4601 H   0  0  0  0  0  0  0  0  0  0  0  0
   40.8729   30.7452   46.4610 H   0  0  0  0  0  0  0  0  0  0  0  0
   37.1774   32.6592   45.4830 H   0  0  0  0  0  0  0  0  0  0  0  0
   41.6190   30.9277   44.1310 H   0  0  0  0  0  0  0  0  0  0  0  0
   39.3810   34.2163   42.0271 H   0  0  0  0  0  0  0  0  0  0  0  0
   38.5750   33.2772   40.8096 H   0  0  0  0  0  0  0  0  0  0  0  0
   33.9645   27.5788   49.9590 H   0  0  0  0  0  0  0  0  0  0  0  0
   34.0631   30.0090   50.1965 H   0  0  0  0  0  0  0  0  0  0  0  0
   34.1900   31.2889   48.3128 H   0  0  0  0  0  0  0  0  0  0  0  0
   35.3499   30.1335   47.5319 H   0  0  0  0  0  0  0  0  0  0  0  0
   32.9752   28.0079   46.2613 H   0  0  0  0  0  0  0  0  0  0  0  0
   34.6787   28.6487   46.1653 H   0  0  0  0  0  0  0  0  0  0  0  0
   35.3115   27.4576   47.9329 H   0  0  0  0  0  0  0  0  0  0  0  0
   33.4343   25.9637   48.7376 H   0  0  0  0  0  0  0  0  0  0  0  0
  1 16  1  0
  1  2  2  0
  3  2  1  0
  4  3  2  0
  5  6  2  0
  5  4  1  0
  6  1  1  0
  7  8  2  0
  8  5  1  0
  9  8  1  0
 10  9  2  0
 11 10  1  0
 11 12  2  0
 12  7  1  0
 13 11  1  0
 14 13  1  0
 14 15  1  0
 15 10  1  0
 17 18  1  0
 18 16  1  0
 19 18  1  0
 20 19  1  0
 21 20  1  0
 21 22  1  0
 22 17  1  0
 23 22  1  0
  2 24  1  0
  3 25  1  0
  7 26  1  0
  9 27  1  0
 12 28  1  0
 14 29  1  0
 14 30  1  0
 17 31  1  0
 18 32  1  1
 19 33  1  0
 19 34  1  0
 21 35  1  0
 21 36  1  0
 22 37  1  1
 23 38  1  0
M  ISO  8  24  14  25  14  26  14  27  14  28  14  29  13  30  13  31   5
M  ISO  7  32  13  33  13  34  13  35  13  36  13  37  13  38   3
M  END
>  <minimizedAffinity>  (1) 
-6.4577837

>  <minimizedRMSD>  (1) 
1.17080569

$$$$
