
     RDKit          3D

 40 43  0  0  1  0  0  0  0  0999 V2000
   37.2690   31.0880   49.3480 C   0  0  0  0  0  0  0  0  0  0  0  0
   37.4060   32.3540   49.9060 C   0  0  0  0  0  0  0  0  0  0  0  0
   38.0890   33.3370   49.1520 C   0  0  0  0  0  0  0  0  0  0  0  0
   38.5770   32.9760   47.9150 N   0  0  0  0  0  0  0  0  0  0  0  0
   38.4150   31.7420   47.4320 C   0  0  0  0  0  0  0  0  0  0  0  0
   37.7720   30.8110   48.1350 N   0  0  0  0  0  0  0  0  0  0  0  0
   38.9550   31.4760   46.1490 N   0  0  0  0  0  0  0  0  0  0  0  0
   40.3130   30.9720   46.0310 C   0  0  0  0  0  0  0  0  0  0  0  0
   41.0680   31.6380   44.9120 C   0  0  0  0  0  0  0  0  0  0  0  0
   40.2990   31.7330   43.6990 N   0  0  0  0  0  0  0  0  0  0  0  0
   39.0080   31.1070   43.7770 C   0  0  0  0  0  0  0  0  0  0  0  0
   38.1930   31.6880   44.9220 C   0  0  1  0  0  0  0  0  0  0  0  0
   35.9910   31.1690   43.8850 C   0  0  0  0  0  0  0  0  0  0  0  0
   36.8500   31.0930   44.9530 C   0  0  0  0  0  0  0  0  0  0  0  0
   36.3650   30.4140   46.0680 C   0  0  0  0  0  0  0  0  0  0  0  0
   35.1130   29.8580   46.0980 C   0  0  0  0  0  0  0  0  0  0  0  0
   34.2670   29.9550   44.9930 C   0  0  0  0  0  0  0  0  0  0  0  0
   34.7100   30.6180   43.8730 C   0  0  0  0  0  0  0  0  0  0  0  0
   33.0890   29.3050   45.3240 O   0  0  0  0  0  0  0  0  0  0  0  0
   33.0190   29.1680   46.7390 C   0  0  0  0  0  0  0  0  0  0  0  0
   34.4000   29.1450   47.0600 O   0  0  0  0  0  0  0  0  0  0  0  0
   36.5480   30.0450   50.1380 C   0  0  0  0  0  0  0  0  0  0  0  0
   35.1800   30.3370   50.1520 F   0  0  0  0  0  0  0  0  0  0  0  0
   36.8340   28.8320   49.6130 F   0  0  0  0  0  0  0  0  0  0  0  0
   36.9660   30.1730   51.4600 F   0  0  0  0  0  0  0  0  0  0  0  0
   36.9968   32.5837   50.9009 H   0  0  0  0  0  0  0  0  0  0  0  0
   38.2261   34.3568   49.5408 H   0  0  0  0  0  0  0  0  0  0  0  0
   40.8436   31.1572   46.9766 H   0  0  0  0  0  0  0  0  0  0  0  0
   40.2573   29.8960   45.8092 H   0  0  0  0  0  0  0  0  0  0  0  0
   41.3470   32.6529   45.2316 H   0  0  0  0  0  0  0  0  0  0  0  0
   41.9523   31.0205   44.6958 H   0  0  0  0  0  0  0  0  0  0  0  0
   40.8321   31.2833   42.9411 H   0  0  0  0  0  0  0  0  0  0  0  0
   38.4699   31.2716   42.8318 H   0  0  0  0  0  0  0  0  0  0  0  0
   39.1488   30.0308   43.9557 H   0  0  0  0  0  0  0  0  0  0  0  0
   38.0264   32.7680   44.7961 H   0  0  0  0  0  0  0  0  0  0  0  0
   36.3342   31.6970   42.9831 H   0  0  0  0  0  0  0  0  0  0  0  0
   37.0090   30.3209   46.9549 H   0  0  0  0  0  0  0  0  0  0  0  0
   34.0670   30.7119   42.9854 H   0  0  0  0  0  0  0  0  0  0  0  0
   32.5069   30.0223   47.2058 H   0  0  0  0  0  0  0  0  0  0  0  0
   32.4503   28.2941   47.0894 H   0  0  0  0  0  0  0  0  0  0  0  0
  1  2  2  0
  1 22  1  0
  3  2  1  0
  4  3  2  0
  5  4  1  0
  5  6  2  0
  6  1  1  0
  7  5  1  0
  8  7  1  0
  9  8  1  0
 10 11  1  0
 10  9  1  0
 11 12  1  0
 12 14  1  0
 12  7  1  0
 13 14  2  0
 14 15  1  0
 15 16  2  0
 16 21  1  0
 17 19  1  0
 17 16  1  0
 18 13  1  0
 18 17  2  0
 19 20  1  0
 20 21  1  0
 22 23  1  0
 22 25  1  0
 24 22  1  0
  2 26  1  0
  3 27  1  0
  8 28  1  0
  8 29  1  0
  9 30  1  0
  9 31  1  0
 10 32  1  0
 11 33  1  0
 11 34  1  0
 12 35  1  6
 13 36  1  0
 15 37  1  0
 18 38  1  0
 20 39  1  0
 20 40  1  0
M  ISO  8  26  14  27  14  28  13  29  13  30  13  31  13  32   5  33  13
M  ISO  7  34  13  35  13  36  14  37  14  38  14  39  13  40  13
M  END
>  <minimizedAffinity>  (1) 
-6.6196208

>  <minimizedRMSD>  (1) 
1.33571482

$$$$
