
     RDKit          3D

 45 50  0  0  0  0  0  0  0  0999 V2000
   35.5890   29.7680   49.7020 C   0  0  0  0  0  0  0  0  0  0  0  0
   36.5430   29.7240   50.7010 C   0  0  0  0  0  0  0  0  0  0  0  0
   37.6750   30.2660   50.0960 C   0  0  0  0  0  0  0  0  0  0  0  0
   37.3710   30.6060   48.7930 C   0  0  0  0  0  0  0  0  0  0  0  0
   36.1090   30.2910   48.5960 O   0  0  0  0  0  0  0  0  0  0  0  0
   38.7560   32.4690   48.0260 C   0  0  0  0  0  0  0  0  0  0  0  0
   38.2640   31.2000   47.8140 C   0  0  0  0  0  0  0  0  0  0  0  0
   38.5980   30.4620   46.6790 C   0  0  0  0  0  0  0  0  0  0  0  0
   39.4450   30.9970   45.7280 C   0  0  0  0  0  0  0  0  0  0  0  0
   39.9520   30.5700   44.5590 N   0  0  0  0  0  0  0  0  0  0  0  0
   40.7270   31.5460   44.0790 N   0  0  0  0  0  0  0  0  0  0  0  0
   40.7260   32.5980   44.9210 C   0  0  0  0  0  0  0  0  0  0  0  0
   39.9080   32.2760   45.9960 C   0  0  0  0  0  0  0  0  0  0  0  0
   39.6220   33.0580   47.0870 C   0  0  0  0  0  0  0  0  0  0  0  0
   34.2230   29.3090   49.8470 C   0  0  0  0  0  0  0  0  0  0  0  0
   33.6220   29.5850   50.9110 O   0  0  0  0  0  0  0  0  0  0  0  0
   31.8090   27.2140   48.0850 C   0  0  0  0  0  0  0  0  0  0  0  0
   32.3550   27.1210   46.8110 C   0  0  0  0  0  0  0  0  0  0  0  0
   33.5350   27.7610   46.5370 C   0  0  0  0  0  0  0  0  0  0  0  0
   34.1160   28.4610   47.5380 N   0  0  0  0  0  0  0  0  0  0  0  0
   33.5800   28.5460   48.7750 C   0  0  0  0  0  0  0  0  0  0  0  0
   32.4270   27.9200   49.0390 N   0  0  0  0  0  0  0  0  0  0  0  0
   34.2470   26.5860   44.4470 C   0  0  0  0  0  0  0  0  0  0  0  0
   34.1700   27.7150   45.2340 C   0  0  0  0  0  0  0  0  0  0  0  0
   34.7490   28.8410   44.6980 C   0  0  0  0  0  0  0  0  0  0  0  0
   35.3680   28.8250   43.4460 C   0  0  0  0  0  0  0  0  0  0  0  0
   35.4230   27.6710   42.6900 C   0  0  0  0  0  0  0  0  0  0  0  0
   34.8440   26.5230   43.2100 C   0  0  0  0  0  0  0  0  0  0  0  0
   36.0890   27.9420   41.5010 O   0  0  0  0  0  0  0  0  0  0  0  0
   36.7590   29.1820   41.6990 C   0  0  0  0  0  0  0  0  0  0  0  0
   36.0090   29.8320   42.7210 O   0  0  0  0  0  0  0  0  0  0  0  0
   36.4344   29.3498   51.7297 H   0  0  0  0  0  0  0  0  0  0  0  0
   38.6539   30.4013   50.5791 H   0  0  0  0  0  0  0  0  0  0  0  0
   38.4708   33.0234   48.9323 H   0  0  0  0  0  0  0  0  0  0  0  0
   38.1860   29.4515   46.5407 H   0  0  0  0  0  0  0  0  0  0  0  0
   39.7753   29.6576   44.1148 H   0  0  0  0  0  0  0  0  0  0  0  0
   41.2742   33.5415   44.7819 H   0  0  0  0  0  0  0  0  0  0  0  0
   40.0381   34.0679   47.2171 H   0  0  0  0  0  0  0  0  0  0  0  0
   30.8614   26.7033   48.3113 H   0  0  0  0  0  0  0  0  0  0  0  0
   31.8447   26.5389   46.0295 H   0  0  0  0  0  0  0  0  0  0  0  0
   33.7954   25.6629   44.8394 H   0  0  0  0  0  0  0  0  0  0  0  0
   34.7241   29.7798   45.2707 H   0  0  0  0  0  0  0  0  0  0  0  0
   34.8620   25.5802   42.6437 H   0  0  0  0  0  0  0  0  0  0  0  0
   37.7967   29.0160   42.0239 H   0  0  0  0  0  0  0  0  0  0  0  0
   36.8158   29.7793   40.7770 H   0  0  0  0  0  0  0  0  0  0  0  0
  1 15  1  0
  1  2  2  0
  3  2  1  0
  4  3  2  0
  5  4  1  0
  5  1  1  0
  7  6  2  0
  7  4  1  0
  8  7  1  0
  9 13  1  0
  9  8  2  0
 10  9  1  0
 11 10  1  0
 11 12  2  0
 12 13  1  0
 13 14  2  0
 14  6  1  0
 15 16  2  0
 17 22  2  0
 18 17  1  0
 19 18  2  0
 19 20  1  0
 20 21  2  0
 21 22  1  0
 21 15  1  0
 23 24  2  0
 24 19  1  0
 25 24  1  0
 26 25  2  0
 27 28  2  0
 27 26  1  0
 28 23  1  0
 29 30  1  0
 29 27  1  0
 30 31  1  0
 31 26  1  0
  2 32  1  0
  3 33  1  0
  6 34  1  0
  8 35  1  0
 10 36  1  0
 12 37  1  0
 14 38  1  0
 17 39  1  0
 18 40  1  0
 23 41  1  0
 25 42  1  0
 28 43  1  0
 30 44  1  0
 30 45  1  0
M  ISO  8  32  14  33  14  34  14  35  14  36   9  37  14  38  14  39  14
M  ISO  6  40  14  41  14  42  14  43  14  44  13  45  13
M  END
>  <minimizedAffinity>  (1) 
-6.85065556

>  <minimizedRMSD>  (1) 
2.36909819

$$$$
