
     RDKit          3D

 45 49  0  0  1  0  0  0  0  0999 V2000
   34.5040   29.0700   48.7500 C   0  0  2  0  0  0  0  0  0  0  0  0
   35.1590   28.3350   49.8670 C   0  0  0  0  0  0  0  0  0  0  0  0
   36.2870   29.1180   50.3670 N   0  0  0  0  0  0  0  0  0  0  0  0
   37.2330   29.8530   51.1620 C   0  0  0  0  0  0  0  0  0  0  0  0
   37.4440   30.0270   52.3730 O   0  0  0  0  0  0  0  0  0  0  0  0
   37.9440   30.3940   50.0380 C   0  0  1  0  0  0  0  0  0  0  0  0
   37.1230   29.3890   49.2380 C   0  0  2  0  0  0  0  0  0  0  0  0
   35.9030   30.0980   48.1100 S   0  0  0  0  0  0  0  0  0  0  0  0
   33.2910   29.8630   49.0870 C   0  0  0  0  0  0  0  0  0  0  0  0
   34.2330   28.0680   47.6090 C   0  0  0  0  0  0  0  0  0  0  0  0
   34.2710   28.7570   46.3970 O   0  0  0  0  0  0  0  0  0  0  0  0
   37.7040   31.8230   49.7160 C   0  0  0  0  0  0  0  0  0  0  0  0
   36.6760   32.2980   50.2980 O   0  0  0  0  0  0  0  0  0  0  0  0
   38.5360   32.5960   48.8490 C   0  0  0  0  0  0  0  0  0  0  0  0
   39.1190   33.7370   49.3550 C   0  0  0  0  0  0  0  0  0  0  0  0
   39.9410   34.4970   48.4870 C   0  0  0  0  0  0  0  0  0  0  0  0
   40.1070   34.0530   47.1950 N   0  0  0  0  0  0  0  0  0  0  0  0
   39.5270   32.9480   46.7480 C   0  0  0  0  0  0  0  0  0  0  0  0
   38.7400   32.2120   47.5650 N   0  0  0  0  0  0  0  0  0  0  0  0
   40.4250   31.3400   45.1260 C   0  0  0  0  0  0  0  0  0  0  0  0
   39.7200   32.4990   45.3740 C   0  0  0  0  0  0  0  0  0  0  0  0
   39.2240   33.1870   44.2850 C   0  0  0  0  0  0  0  0  0  0  0  0
   39.4270   32.7260   42.9810 C   0  0  0  0  0  0  0  0  0  0  0  0
   40.1510   31.5460   42.8200 C   0  0  0  0  0  0  0  0  0  0  0  0
   40.6700   30.8180   43.8730 C   0  0  0  0  0  0  0  0  0  0  0  0
   40.1970   31.3330   41.4360 O   0  0  0  0  0  0  0  0  0  0  0  0
   39.2340   32.1470   40.8010 C   0  0  0  0  0  0  0  0  0  0  0  0
   39.0480   33.2080   41.7180 O   0  0  0  0  0  0  0  0  0  0  0  0
   34.4331   28.1775   50.6783 H   0  0  0  0  0  0  0  0  0  0  0  0
   35.5194   27.3609   49.5048 H   0  0  0  0  0  0  0  0  0  0  0  0
   39.0413   30.4613   50.0002 H   0  0  0  0  0  0  0  0  0  0  0  0
   37.7245   28.6697   48.6629 H   0  0  0  0  0  0  0  0  0  0  0  0
   33.1887   29.9299   50.1802 H   0  0  0  0  0  0  0  0  0  0  0  0
   33.3852   30.8744   48.6650 H   0  0  0  0  0  0  0  0  0  0  0  0
   32.4023   29.3709   48.6650 H   0  0  0  0  0  0  0  0  0  0  0  0
   35.0034   27.2828   47.6138 H   0  0  0  0  0  0  0  0  0  0  0  0
   33.2474   27.5990   47.7453 H   0  0  0  0  0  0  0  0  0  0  0  0
   34.3247   29.7299   46.5720 H   0  0  0  0  0  0  0  0  0  0  0  0
   38.9520   34.0472   50.3971 H   0  0  0  0  0  0  0  0  0  0  0  0
   40.4331   35.4168   48.8361 H   0  0  0  0  0  0  0  0  0  0  0  0
   40.8217   30.7906   45.9925 H   0  0  0  0  0  0  0  0  0  0  0  0
   38.6579   34.1162   44.4464 H   0  0  0  0  0  0  0  0  0  0  0  0
   41.2382   29.8882   43.7229 H   0  0  0  0  0  0  0  0  0  0  0  0
   39.6084   32.5209   39.8366 H   0  0  0  0  0  0  0  0  0  0  0  0
   38.3022   31.6102   40.5696 H   0  0  0  0  0  0  0  0  0  0  0  0
  1 10  1  6
  1  9  1  0
  1  2  1  0
  2  3  1  0
  3  4  1  0
  4  5  2  0
  6  4  1  0
  7  6  1  0
  7  3  1  0
  8  1  1  0
  8  7  1  0
 11 10  1  0
 12  6  1  0
 12 13  2  0
 14 15  2  0
 14 12  1  0
 16 15  1  0
 17 16  2  0
 18 17  1  0
 18 19  2  0
 19 14  1  0
 20 21  2  0
 21 18  1  0
 22 21  1  0
 23 22  2  0
 24 23  1  0
 24 25  2  0
 25 20  1  0
 26 24  1  0
 27 26  1  0
 27 28  1  0
 28 23  1  0
  2 29  1  0
  2 30  1  0
  6 31  1  1
  7 32  1  6
  9 33  1  0
  9 34  1  0
  9 35  1  0
 10 36  1  0
 10 37  1  0
 11 38  1  0
 15 39  1  0
 16 40  1  0
 20 41  1  0
 22 42  1  0
 25 43  1  0
 27 44  1  0
 27 45  1  0
M  ISO  8  29  13  30  13  31  13  32  13  33   8  34   8  35   8  36   8
M  ISO  8  37   8  38   3  39  14  40  14  41  14  42  14  43  14  44  13
M  ISO  1  45  13
M  END
>  <minimizedAffinity>  (1) 
-6.52329493

>  <minimizedRMSD>  (1) 
0.978898704

$$$$
