
     RDKit          3D

 34 37  0  0  0  0  0  0  0  0999 V2000
   36.3620   30.8560   45.8790 Cl  0  0  0  0  0  0  0  0  0  0  0  0
   36.7280   30.7680   47.5780 C   0  0  0  0  0  0  0  0  0  0  0  0
   38.0080   31.1080   47.9540 C   0  0  0  0  0  0  0  0  0  0  0  0
   38.3180   31.0420   49.3080 C   0  0  0  0  0  0  0  0  0  0  0  0
   37.3620   30.6500   50.2120 C   0  0  0  0  0  0  0  0  0  0  0  0
   36.1060   30.3250   49.7600 C   0  0  0  0  0  0  0  0  0  0  0  0
   35.7280   30.3670   48.4330 C   0  0  0  0  0  0  0  0  0  0  0  0
   40.1810   33.2990   46.0020 C   0  0  0  0  0  0  0  0  0  0  0  0
   40.8470   32.4240   45.1160 C   0  0  0  0  0  0  0  0  0  0  0  0
   40.5220   31.0680   45.2160 C   0  0  0  0  0  0  0  0  0  0  0  0
   39.6030   30.6730   46.1410 N   0  0  0  0  0  0  0  0  0  0  0  0
   38.9970   31.5220   46.9560 C   0  0  0  0  0  0  0  0  0  0  0  0
   39.3010   32.8320   46.8700 N   0  0  0  0  0  0  0  0  0  0  0  0
   34.1110   29.9490   47.8470 S   0  0  0  0  0  0  0  0  0  0  0  0
   33.9610   28.2710   45.8050 C   0  0  0  0  0  0  0  0  0  0  0  0
   34.0020   28.2930   47.2040 C   0  0  0  0  0  0  0  0  0  0  0  0
   33.9540   27.0980   47.8910 C   0  0  0  0  0  0  0  0  0  0  0  0
   33.8680   25.9220   47.1730 C   0  0  0  0  0  0  0  0  0  0  0  0
   33.8280   25.8750   45.7980 C   0  0  0  0  0  0  0  0  0  0  0  0
   33.8760   27.0720   45.1130 C   0  0  0  0  0  0  0  0  0  0  0  0
   33.7440   24.5340   45.4490 O   0  0  0  0  0  0  0  0  0  0  0  0
   33.4070   23.7780   46.5880 C   0  0  0  0  0  0  0  0  0  0  0  0
   33.8100   24.6290   47.6460 O   0  0  0  0  0  0  0  0  0  0  0  0
   39.3286   31.3037   49.6545 H   0  0  0  0  0  0  0  0  0  0  0  0
   37.5987   30.5968   51.2849 H   0  0  0  0  0  0  0  0  0  0  0  0
   35.3556   30.0121   50.5009 H   0  0  0  0  0  0  0  0  0  0  0  0
   40.3964   34.3772   45.9693 H   0  0  0  0  0  0  0  0  0  0  0  0
   41.5831   32.7903   44.3853 H   0  0  0  0  0  0  0  0  0  0  0  0
   41.0019   30.3298   44.5566 H   0  0  0  0  0  0  0  0  0  0  0  0
   33.9967   29.2180   45.2465 H   0  0  0  0  0  0  0  0  0  0  0  0
   33.9837   27.0823   48.9905 H   0  0  0  0  0  0  0  0  0  0  0  0
   33.8467   27.0752   44.0134 H   0  0  0  0  0  0  0  0  0  0  0  0
   32.3261   23.5778   46.6276 H   0  0  0  0  0  0  0  0  0  0  0  0
   33.8828   22.7866   46.6149 H   0  0  0  0  0  0  0  0  0  0  0  0
  1  2  1  0
  2  3  2  0
  2  7  1  0
  3  4  1  0
  4  5  2  0
  6  5  1  0
  7  6  2  0
  8 13  2  0
  9 10  2  0
  9  8  1  0
 10 11  1  0
 11 12  2  0
 12  3  1  0
 13 12  1  0
 14  7  1  0
 15 16  2  0
 16 14  1  0
 16 17  1  0
 18 23  1  0
 18 17  2  0
 19 18  1  0
 20 19  2  0
 20 15  1  0
 21 19  1  0
 21 22  1  0
 22 23  1  0
  4 24  1  0
  5 25  1  0
  6 26  1  0
  8 27  1  0
  9 28  1  0
 10 29  1  0
 15 30  1  0
 17 31  1  0
 20 32  1  0
 22 33  1  0
 22 34  1  0
M  ISO  8  24  14  25  14  26  14  27  14  28  14  29  14  30  14  31  14
M  ISO  3  32  14  33  13  34  13
M  END
>  <minimizedAffinity>  (1) 
-5.81613493

>  <minimizedRMSD>  (1) 
1.36847496

$$$$
