
     RDKit          3D

 50 54  0  0  1  0  0  0  0  0999 V2000
   39.4200   32.9050   43.8550 C   0  0  0  0  0  0  0  0  0  0  0  0
   39.4290   29.5220   42.7800 C   0  0  1  0  0  0  0  0  0  0  0  0
   39.3340   30.9660   42.3030 C   0  0  0  0  0  0  0  0  0  0  0  0
   40.1470   31.6790   43.3430 C   0  0  2  0  0  0  0  0  0  0  0  0
   40.4460   30.7910   44.3410 O   0  0  0  0  0  0  0  0  0  0  0  0
   39.5420   29.7470   44.2830 C   0  0  0  0  0  0  0  0  0  0  0  0
   38.3110   28.7990   42.4410 O   0  0  0  0  0  0  0  0  0  0  0  0
   36.6840   27.0090   42.7340 C   0  0  0  0  0  0  0  0  0  0  0  0
   37.9690   27.5130   42.7450 C   0  0  0  0  0  0  0  0  0  0  0  0
   38.9720   26.6270   43.0950 C   0  0  0  0  0  0  0  0  0  0  0  0
   38.6550   25.3050   43.4110 C   0  0  0  0  0  0  0  0  0  0  0  0
   37.3510   24.8140   43.3940 C   0  0  0  0  0  0  0  0  0  0  0  0
   36.3590   25.7040   43.0440 C   0  0  0  0  0  0  0  0  0  0  0  0
   37.3750   23.4730   43.7540 O   0  0  0  0  0  0  0  0  0  0  0  0
   38.6940   23.0250   43.4960 C   0  0  0  0  0  0  0  0  0  0  0  0
   39.4290   24.1980   43.7940 O   0  0  0  0  0  0  0  0  0  0  0  0
   40.3770   33.5830   45.2270 S   0  0  0  0  0  0  0  0  0  0  0  0
   37.7970   31.8820   47.7160 C   0  0  0  0  0  0  0  0  0  0  0  0
   38.0220   32.5330   48.9400 C   0  0  0  0  0  0  0  0  0  0  0  0
   38.9700   33.5180   49.0510 C   0  0  0  0  0  0  0  0  0  0  0  0
   39.6740   33.8210   47.9090 C   0  0  0  0  0  0  0  0  0  0  0  0
   39.4420   33.1770   46.7300 C   0  0  0  0  0  0  0  0  0  0  0  0
   38.5060   32.2030   46.6130 N   0  0  0  0  0  0  0  0  0  0  0  0
   36.7870   30.8620   47.6800 C   0  0  0  0  0  0  0  0  0  0  0  0
   36.3540   30.4190   46.6110 O   0  0  0  0  0  0  0  0  0  0  0  0
   37.0740   29.6440   49.8120 C   0  0  0  0  0  0  0  0  0  0  0  0
   36.2020   30.2780   48.9070 C   0  0  0  0  0  0  0  0  0  0  0  0
   34.8350   30.3360   49.1880 C   0  0  0  0  0  0  0  0  0  0  0  0
   34.3860   29.7670   50.3510 N   0  0  0  0  0  0  0  0  0  0  0  0
   35.2450   29.1630   51.2050 C   0  0  0  0  0  0  0  0  0  0  0  0
   36.5630   29.1050   50.9370 N   0  0  0  0  0  0  0  0  0  0  0  0
   38.4144   32.6256   44.2025 H   0  0  0  0  0  0  0  0  0  0  0  0
   39.3157   33.6517   43.0540 H   0  0  0  0  0  0  0  0  0  0  0  0
   40.2520   28.9380   42.3423 H   0  0  0  0  0  0  0  0  0  0  0  0
   39.7692   31.0873   41.3001 H   0  0  0  0  0  0  0  0  0  0  0  0
   38.3038   31.3392   42.2057 H   0  0  0  0  0  0  0  0  0  0  0  0
   41.0869   32.0468   42.9056 H   0  0  0  0  0  0  0  0  0  0  0  0
   38.5732   30.0302   44.7203 H   0  0  0  0  0  0  0  0  0  0  0  0
   39.8522   28.8549   44.8468 H   0  0  0  0  0  0  0  0  0  0  0  0
   35.8660   27.6917   42.4604 H   0  0  0  0  0  0  0  0  0  0  0  0
   40.0187   26.9641   43.1243 H   0  0  0  0  0  0  0  0  0  0  0  0
   35.3099   25.3749   43.0117 H   0  0  0  0  0  0  0  0  0  0  0  0
   38.9757   22.1909   44.1555 H   0  0  0  0  0  0  0  0  0  0  0  0
   38.8533   22.6300   42.4818 H   0  0  0  0  0  0  0  0  0  0  0  0
   37.4295   32.2489   49.8222 H   0  0  0  0  0  0  0  0  0  0  0  0
   39.1572   34.0377   50.0023 H   0  0  0  0  0  0  0  0  0  0  0  0
   40.4453   34.6043   47.9480 H   0  0  0  0  0  0  0  0  0  0  0  0
   38.1530   29.5894   49.6050 H   0  0  0  0  0  0  0  0  0  0  0  0
   34.1367   30.8259   48.4935 H   0  0  0  0  0  0  0  0  0  0  0  0
   34.8604   28.7127   52.1320 H   0  0  0  0  0  0  0  0  0  0  0  0
  1 17  1  0
  2  6  1  0
  3  2  1  0
  3  4  1  0
  4  1  1  0
  4  5  1  0
  6  5  1  0
  7  9  1  0
  7  2  1  0
  8  9  2  0
  8 13  1  0
  9 10  1  0
 10 11  2  0
 11 16  1  0
 12 11  1  0
 12 14  1  0
 13 12  2  0
 15 14  1  0
 15 16  1  0
 17 22  1  0
 18 19  2  0
 19 20  1  0
 21 20  2  0
 22 21  1  0
 23 22  2  0
 23 18  1  0
 24 18  1  0
 24 27  1  0
 25 24  2  0
 26 31  2  0
 27 28  2  0
 27 26  1  0
 28 29  1  0
 29 30  2  0
 31 30  1  0
  1 32  1  0
  1 33  1  0
  2 34  1  6
  3 35  1  0
  3 36  1  0
  4 37  1  6
  6 38  1  0
  6 39  1  0
  8 40  1  0
 10 41  1  0
 13 42  1  0
 15 43  1  0
 15 44  1  0
 19 45  1  0
 20 46  1  0
 21 47  1  0
 26 48  1  0
 28 49  1  0
 30 50  1  0
M  ISO  8  32   8  33   8  34  13  35  13  36  13  37  13  38  13  39  13
M  ISO  8  40  14  41  14  42  14  43  13  44  13  45  14  46  14  47  14
M  ISO  3  48  14  49  14  50  14
M  END
>  <minimizedAffinity>  (1) 
-5.72747564

>  <minimizedRMSD>  (1) 
2.32729483

$$$$
