
     RDKit          3D

 43 46  0  0  1  0  0  0  0  0999 V2000
   36.4380   29.9510   49.1880 N   0  0  0  0  0  0  0  0  0  0  0  0
   36.9810   31.2570   49.0590 C   0  0  1  0  0  0  0  0  0  0  0  0
   37.6290   31.5560   50.3810 C   0  0  0  0  0  0  0  0  0  0  0  0
   37.3650   30.2800   51.2230 C   0  0  0  0  0  0  0  0  0  0  0  0
   37.2740   29.2570   50.1320 C   0  0  0  0  0  0  0  0  0  0  0  0
   35.2890   29.4510   48.5220 C   0  0  0  0  0  0  0  0  0  0  0  0
   34.5900   30.3120   47.6600 C   0  0  0  0  0  0  0  0  0  0  0  0
   33.4530   29.8360   46.9940 C   0  0  0  0  0  0  0  0  0  0  0  0
   33.0980   28.5340   47.2380 N   0  0  0  0  0  0  0  0  0  0  0  0
   33.7930   27.7310   48.0730 C   0  0  0  0  0  0  0  0  0  0  0  0
   34.9080   28.1820   48.7330 N   0  0  0  0  0  0  0  0  0  0  0  0
   37.7830   31.5450   47.8820 C   0  0  0  0  0  0  0  0  0  0  0  0
   38.3890   32.5720   47.7620 O   0  0  0  0  0  0  0  0  0  0  0  0
   37.5260   30.5420   42.8390 C   0  0  0  0  0  0  0  0  0  0  0  0
   38.2640   31.7560   43.4230 C   0  0  0  0  0  0  0  0  0  0  0  0
   38.6780   31.3430   44.7810 N   0  0  0  0  0  0  0  0  0  0  0  0
   39.2710   30.9390   46.0420 C   0  0  0  0  0  0  0  0  0  0  0  0
   40.5510   30.9810   46.0700 O   0  0  0  0  0  0  0  0  0  0  0  0
   37.9720   30.6730   46.6740 C   0  0  2  0  0  0  0  0  0  0  0  0
   37.3960   31.2850   45.4580 C   0  0  2  0  0  0  0  0  0  0  0  0
   36.5420   30.1070   44.3340 S   0  0  0  0  0  0  0  0  0  0  0  0
   36.6480   30.9830   41.7110 C   0  0  0  0  0  0  0  0  0  0  0  0
   38.4630   29.4320   42.4800 C   0  0  0  0  0  0  0  0  0  0  0  0
   36.1672   31.9643   48.8412 H   0  0  0  0  0  0  0  0  0  0  0  0
   38.7086   31.7272   50.2578 H   0  0  0  0  0  0  0  0  0  0  0  0
   37.2298   32.4658   50.8530 H   0  0  0  0  0  0  0  0  0  0  0  0
   38.1954   30.0677   51.9124 H   0  0  0  0  0  0  0  0  0  0  0  0
   36.4840   30.3343   51.8795 H   0  0  0  0  0  0  0  0  0  0  0  0
   36.8026   28.3280   50.4852 H   0  0  0  0  0  0  0  0  0  0  0  0
   38.2440   28.9294   49.7298 H   0  0  0  0  0  0  0  0  0  0  0  0
   34.9310   31.3470   47.5097 H   0  0  0  0  0  0  0  0  0  0  0  0
   32.8744   30.4743   46.3100 H   0  0  0  0  0  0  0  0  0  0  0  0
   33.4581   26.6946   48.2268 H   0  0  0  0  0  0  0  0  0  0  0  0
   39.1434   32.0038   42.8105 H   0  0  0  0  0  0  0  0  0  0  0  0
   37.6276   32.6530   43.4427 H   0  0  0  0  0  0  0  0  0  0  0  0
   37.6626   29.6867   47.0502 H   0  0  0  0  0  0  0  0  0  0  0  0
   36.7233   32.1290   45.6703 H   0  0  0  0  0  0  0  0  0  0  0  0
   35.7340   31.4421   42.1157 H   0  0  0  0  0  0  0  0  0  0  0  0
   37.1853   31.7182   41.0939 H   0  0  0  0  0  0  0  0  0  0  0  0
   36.3791   30.1130   41.0939 H   0  0  0  0  0  0  0  0  0  0  0  0
   38.8531   28.9699   43.3988 H   0  0  0  0  0  0  0  0  0  0  0  0
   37.9260   28.6757   41.8886 H   0  0  0  0  0  0  0  0  0  0  0  0
   39.2987   29.8344   41.8886 H   0  0  0  0  0  0  0  0  0  0  0  0
  1  5  1  0
  2  1  1  0
  2  3  1  0
  3  4  1  0
  5  4  1  0
  6 11  1  0
  6  1  1  0
  7  6  2  0
  8  9  2  0
  8  7  1  0
  9 10  1  0
 10 11  2  0
 12  2  1  0
 13 12  2  0
 14 15  1  0
 14 21  1  0
 15 16  1  0
 16 20  1  0
 16 17  1  0
 17 18  2  0
 17 19  1  0
 19 12  1  0
 20 21  1  0
 20 19  1  0
 22 14  1  0
 23 14  1  0
  2 24  1  6
  3 25  1  0
  3 26  1  0
  4 27  1  0
  4 28  1  0
  5 29  1  0
  5 30  1  0
  7 31  1  0
  8 32  1  0
 10 33  1  0
 15 34  1  0
 15 35  1  0
 19 36  1  1
 20 37  1  1
 22 38  1  0
 22 39  1  0
 22 40  1  0
 23 41  1  0
 23 42  1  0
 23 43  1  0
M  ISO  8  24  13  25  13  26  13  27  13  28  13  29  13  30  13  31  14
M  ISO  8  32  14  33  14  34  13  35  13  36  13  37  13  38   8  39   8
M  ISO  4  40   8  41   8  42   8  43   8
M  END
>  <minimizedAffinity>  (1) 
-5.83118629

>  <minimizedRMSD>  (1) 
1.91584301

$$$$
