
     RDKit          3D

 55 59  0  0  1  0  0  0  0  0999 V2000
   34.2510   28.2920   49.3110 C   0  0  0  0  0  0  0  0  0  0  0  0
   32.9740   28.2430   48.5130 C   0  0  0  0  0  0  0  0  0  0  0  0
   32.9820   28.6710   47.1410 C   0  0  0  0  0  0  0  0  0  0  0  0
   31.2880   28.4180   46.6890 S   0  0  0  0  0  0  0  0  0  0  0  0
   30.7780   27.7750   48.3830 C   0  0  0  0  0  0  0  0  0  0  0  0
   31.8190   27.8390   48.9550 N   0  0  0  0  0  0  0  0  0  0  0  0
   29.4940   27.3210   48.8870 N   0  0  0  0  0  0  0  0  0  0  0  0
   28.6220   26.7030   47.9430 C   0  0  0  0  0  0  0  0  0  0  0  0
   27.1830   26.6750   48.3660 C   0  0  0  0  0  0  0  0  0  0  0  0
   26.9230   27.3740   49.6100 N   0  0  0  0  0  0  0  0  0  0  0  0
   27.8730   26.8680   50.5840 C   0  0  0  0  0  0  0  0  0  0  0  0
   29.1910   27.5250   50.2910 C   0  0  0  0  0  0  0  0  0  0  0  0
   34.4360   29.5960   49.9850 C   0  0  0  0  0  0  0  0  0  0  0  0
   37.4240   31.7820   49.7380 C   0  0  0  0  0  0  0  0  0  0  0  0
   38.0010   31.3760   48.5350 C   0  0  0  0  0  0  0  0  0  0  0  0
   37.3640   30.3510   47.8080 C   0  0  0  0  0  0  0  0  0  0  0  0
   36.2270   29.8270   48.3310 N   0  0  0  0  0  0  0  0  0  0  0  0
   35.7110   30.2560   49.5010 C   0  0  0  0  0  0  0  0  0  0  0  0
   36.2990   31.2190   50.1950 N   0  0  0  0  0  0  0  0  0  0  0  0
   37.8230   29.8000   46.5340 C   0  0  0  0  0  0  0  0  0  0  0  0
   37.6380   30.6720   45.3380 C   0  0  1  0  0  0  0  0  0  0  0  0
   37.5550   32.1370   45.6330 C   0  0  0  0  0  0  0  0  0  0  0  0
   38.8690   32.7060   45.5020 N   0  0  0  0  0  0  0  0  0  0  0  0
   40.1180   33.3750   45.7110 C   0  0  0  0  0  0  0  0  0  0  0  0
   40.4430   34.1350   46.6680 O   0  0  0  0  0  0  0  0  0  0  0  0
   40.7320   32.8310   44.4730 C   0  0  0  0  0  0  0  0  0  0  0  0
   39.3490   32.4020   44.1450 C   0  0  1  0  0  0  0  0  0  0  0  0
   39.0460   30.5900   44.1910 S   0  0  0  0  0  0  0  0  0  0  0  0
   36.4080   30.2350   44.5720 C   0  0  0  0  0  0  0  0  0  0  0  0
   35.0999   28.1195   48.6330 H   0  0  0  0  0  0  0  0  0  0  0  0
   34.1958   27.5143   50.0869 H   0  0  0  0  0  0  0  0  0  0  0  0
   33.8162   29.0532   46.5344 H   0  0  0  0  0  0  0  0  0  0  0  0
   28.9573   25.6666   47.7898 H   0  0  0  0  0  0  0  0  0  0  0  0
   28.6710   27.3054   47.0239 H   0  0  0  0  0  0  0  0  0  0  0  0
   26.5798   27.1421   47.5735 H   0  0  0  0  0  0  0  0  0  0  0  0
   26.9189   25.6200   48.5310 H   0  0  0  0  0  0  0  0  0  0  0  0
   27.0538   28.3875   49.4809 H   0  0  0  0  0  0  0  0  0  0  0  0
   27.5421   27.1215   51.6020 H   0  0  0  0  0  0  0  0  0  0  0  0
   27.9564   25.7730   50.5201 H   0  0  0  0  0  0  0  0  0  0  0  0
   29.9788   27.0736   50.9119 H   0  0  0  0  0  0  0  0  0  0  0  0
   29.1395   28.6002   50.5175 H   0  0  0  0  0  0  0  0  0  0  0  0
   33.5798   30.2479   49.7573 H   0  0  0  0  0  0  0  0  0  0  0  0
   34.5044   29.4336   51.0708 H   0  0  0  0  0  0  0  0  0  0  0  0
   37.9031   32.5809   50.3230 H   0  0  0  0  0  0  0  0  0  0  0  0
   38.9260   31.8422   48.1648 H   0  0  0  0  0  0  0  0  0  0  0  0
   38.8972   29.5831   46.6290 H   0  0  0  0  0  0  0  0  0  0  0  0
   37.1980   28.9131   46.3530 H   0  0  0  0  0  0  0  0  0  0  0  0
   36.8692   32.6201   44.9214 H   0  0  0  0  0  0  0  0  0  0  0  0
   37.1773   32.2941   46.6541 H   0  0  0  0  0  0  0  0  0  0  0  0
   41.1648   33.5808   43.7944 H   0  0  0  0  0  0  0  0  0  0  0  0
   41.5919   32.1450   44.4768 H   0  0  0  0  0  0  0  0  0  0  0  0
   38.9879   32.8041   43.1869 H   0  0  0  0  0  0  0  0  0  0  0  0
   35.6154   29.9534   45.2809 H   0  0  0  0  0  0  0  0  0  0  0  0
   36.0566   31.0633   43.9392 H   0  0  0  0  0  0  0  0  0  0  0  0
   36.6580   29.3707   43.9392 H   0  0  0  0  0  0  0  0  0  0  0  0
  1 13  1  0
  2  6  1  0
  2  1  1  0
  3  2  2  0
  4  3  1  0
  4  5  1  0
  5  7  1  0
  5  6  2  0
  7 12  1  0
  8  9  1  0
  8  7  1  0
  9 10  1  0
 10 11  1  0
 12 11  1  0
 14 19  2  0
 15 14  1  0
 16 17  1  0
 16 15  2  0
 17 18  2  0
 18 13  1  0
 18 19  1  0
 20 16  1  0
 21 29  1  6
 21 22  1  0
 21 20  1  0
 23 22  1  0
 23 24  1  0
 24 25  2  0
 26 24  1  0
 27 28  1  0
 27 26  1  0
 27 23  1  0
 28 21  1  0
  1 30  1  0
  1 31  1  0
  3 32  1  0
  8 33  1  0
  8 34  1  0
  9 35  1  0
  9 36  1  0
 10 37  1  0
 11 38  1  0
 11 39  1  0
 12 40  1  0
 12 41  1  0
 13 42  1  0
 13 43  1  0
 14 44  1  0
 15 45  1  0
 20 46  1  0
 20 47  1  0
 22 48  1  0
 22 49  1  0
 26 50  1  0
 26 51  1  0
 27 52  1  6
 29 53  1  0
 29 54  1  0
 29 55  1  0
M  ISO  8  30   8  31   8  32  14  33  13  34  13  35  13  36  13  37   5
M  ISO  8  38  13  39  13  40  13  41  13  42   8  43   8  44  14  45  14
M  ISO  8  46   8  47   8  48  13  49  13  50  13  51  13  52  13  53   8
M  ISO  2  54   8  55   8
M  END
>  <minimizedAffinity>  (1) 
-6.11316442

>  <minimizedRMSD>  (1) 
1.77258193

$$$$
