
     RDKit          3D

 50 54  0  0  1  0  0  0  0  0999 V2000
   34.4580   29.1080   48.7320 C   0  0  2  0  0  0  0  0  0  0  0  0
   35.1230   28.3710   49.8390 C   0  0  0  0  0  0  0  0  0  0  0  0
   36.2810   29.1280   50.2900 N   0  0  0  0  0  0  0  0  0  0  0  0
   37.2510   29.8410   51.0620 C   0  0  0  0  0  0  0  0  0  0  0  0
   37.5040   30.0260   52.2730 O   0  0  0  0  0  0  0  0  0  0  0  0
   37.9560   30.3610   49.8900 C   0  0  1  0  0  0  0  0  0  0  0  0
   37.1090   29.3730   49.1360 C   0  0  2  0  0  0  0  0  0  0  0  0
   35.8400   30.1070   48.0520 S   0  0  0  0  0  0  0  0  0  0  0  0
   33.2700   29.9310   49.1000 C   0  0  0  0  0  0  0  0  0  0  0  0
   34.1230   28.1120   47.6030 C   0  0  0  0  0  0  0  0  0  0  0  0
   29.1210   27.3190   46.2940 C   0  0  0  0  0  0  0  0  0  0  0  0
   30.2270   26.5260   45.6270 C   0  0  0  0  0  0  0  0  0  0  0  0
   31.3660   26.5590   46.5360 N   0  0  0  0  0  0  0  0  0  0  0  0
   32.4270   26.2710   47.4390 C   0  0  0  0  0  0  0  0  0  0  0  0
   32.8950   25.1380   47.7730 O   0  0  0  0  0  0  0  0  0  0  0  0
   32.6840   27.7220   47.7540 C   0  0  2  0  0  0  0  0  0  0  0  0
   31.7660   27.9620   46.6060 C   0  0  2  0  0  0  0  0  0  0  0  0
   30.1250   28.6620   47.0450 S   0  0  0  0  0  0  0  0  0  0  0  0
   28.2460   27.9360   45.2470 C   0  0  0  0  0  0  0  0  0  0  0  0
   28.3800   26.5460   47.3480 C   0  0  0  0  0  0  0  0  0  0  0  0
   37.7270   31.7960   49.5940 C   0  0  0  0  0  0  0  0  0  0  0  0
   36.7330   32.2960   50.1920 O   0  0  0  0  0  0  0  0  0  0  0  0
   38.5740   32.5470   48.7020 C   0  0  0  0  0  0  0  0  0  0  0  0
   39.1000   33.7390   49.1730 C   0  0  0  0  0  0  0  0  0  0  0  0
   39.9320   34.4850   48.3070 C   0  0  0  0  0  0  0  0  0  0  0  0
   40.1620   33.9840   47.0660 N   0  0  0  0  0  0  0  0  0  0  0  0
   39.6390   32.8320   46.6440 C   0  0  0  0  0  0  0  0  0  0  0  0
   38.8440   32.1120   47.4600 N   0  0  0  0  0  0  0  0  0  0  0  0
   34.4175   28.2458   50.6736 H   0  0  0  0  0  0  0  0  0  0  0  0
   35.4444   27.3810   49.4832 H   0  0  0  0  0  0  0  0  0  0  0  0
   39.0514   30.4018   49.7986 H   0  0  0  0  0  0  0  0  0  0  0  0
   37.6902   28.6421   48.5547 H   0  0  0  0  0  0  0  0  0  0  0  0
   33.1883   29.9876   50.1955 H   0  0  0  0  0  0  0  0  0  0  0  0
   33.3842   30.9445   48.6880 H   0  0  0  0  0  0  0  0  0  0  0  0
   32.3613   29.4679   48.6880 H   0  0  0  0  0  0  0  0  0  0  0  0
   34.2818   28.5877   46.6240 H   0  0  0  0  0  0  0  0  0  0  0  0
   34.7717   27.2258   47.6650 H   0  0  0  0  0  0  0  0  0  0  0  0
   29.9033   25.4879   45.4609 H   0  0  0  0  0  0  0  0  0  0  0  0
   30.4874   26.9530   44.6473 H   0  0  0  0  0  0  0  0  0  0  0  0
   32.5278   28.2098   48.7275 H   0  0  0  0  0  0  0  0  0  0  0  0
   32.2204   28.5732   45.8123 H   0  0  0  0  0  0  0  0  0  0  0  0
   27.4392   28.5049   45.7321 H   0  0  0  0  0  0  0  0  0  0  0  0
   28.8456   28.6122   44.6199 H   0  0  0  0  0  0  0  0  0  0  0  0
   27.8105   27.1441   44.6199 H   0  0  0  0  0  0  0  0  0  0  0  0
   28.7026   26.8825   48.3443 H   0  0  0  0  0  0  0  0  0  0  0  0
   27.2991   26.7163   47.2357 H   0  0  0  0  0  0  0  0  0  0  0  0
   28.5958   25.4732   47.2357 H   0  0  0  0  0  0  0  0  0  0  0  0
   38.8770   34.0942   50.1899 H   0  0  0  0  0  0  0  0  0  0  0  0
   40.3776   35.4383   48.6274 H   0  0  0  0  0  0  0  0  0  0  0  0
   39.8568   32.4691   45.6287 H   0  0  0  0  0  0  0  0  0  0  0  0
  1 10  1  6
  1  9  1  0
  1  2  1  0
  2  3  1  0
  3  4  1  0
  4  5  2  0
  6  4  1  0
  7  6  1  0
  7  3  1  0
  8  1  1  0
  8  7  1  0
 11 18  1  0
 11 20  1  0
 12 11  1  0
 12 13  1  0
 13 17  1  0
 13 14  1  0
 14 16  1  0
 14 15  2  0
 16 10  1  0
 17 18  1  0
 17 16  1  0
 19 11  1  0
 21  6  1  0
 21 22  2  0
 23 24  2  0
 23 21  1  0
 25 24  1  0
 26 25  2  0
 27 26  1  0
 27 28  2  0
 28 23  1  0
  2 29  1  0
  2 30  1  0
  6 31  1  1
  7 32  1  6
  9 33  1  0
  9 34  1  0
  9 35  1  0
 10 36  1  0
 10 37  1  0
 12 38  1  0
 12 39  1  0
 16 40  1  1
 17 41  1  6
 19 42  1  0
 19 43  1  0
 19 44  1  0
 20 45  1  0
 20 46  1  0
 20 47  1  0
 24 48  1  0
 25 49  1  0
 27 50  1  0
M  ISO  8  29  13  30  13  31  13  32  13  33   8  34   8  35   8  36   8
M  ISO  8  37   8  38  13  39  13  40  13  41  13  42   8  43   8  44   8
M  ISO  6  45   8  46   8  47   8  48  14  49  14  50  14
M  END
>  <minimizedAffinity>  (1) 
-5.55129814

>  <minimizedRMSD>  (1) 
2.132967

$$$$
