
     RDKit          3D

 46 49  0  0  1  0  0  0  0  0999 V2000
   38.1130   31.7730   47.3540 C   0  0  0  0  0  0  0  0  0  0  0  0
   38.7750   32.4000   48.3670 C   0  0  0  0  0  0  0  0  0  0  0  0
   38.3240   32.3740   49.6920 C   0  0  0  0  0  0  0  0  0  0  0  0
   37.1040   31.6420   49.9640 C   0  0  0  0  0  0  0  0  0  0  0  0
   36.4930   31.0400   48.9120 C   0  0  0  0  0  0  0  0  0  0  0  0
   36.9360   31.0730   47.6420 C   0  0  0  0  0  0  0  0  0  0  0  0
   39.9560   31.2000   45.8450 C   0  0  0  0  0  0  0  0  0  0  0  0
   38.7170   31.8700   46.0460 C   0  0  0  0  0  0  0  0  0  0  0  0
   38.2440   32.5310   44.9400 C   0  0  0  0  0  0  0  0  0  0  0  0
   38.9260   32.5200   43.7850 N   0  0  0  0  0  0  0  0  0  0  0  0
   40.0690   31.8950   43.6170 C   0  0  0  0  0  0  0  0  0  0  0  0
   40.5770   31.2390   44.6480 N   0  0  0  0  0  0  0  0  0  0  0  0
   34.8710   30.1660   46.9730 C   0  0  0  0  0  0  0  0  0  0  0  0
   34.4630   30.4610   48.1650 O   0  0  0  0  0  0  0  0  0  0  0  0
   36.2470   30.4600   46.6260 N   0  0  0  0  0  0  0  0  0  0  0  0
   33.9940   29.5900   46.0940 O   0  0  0  0  0  0  0  0  0  0  0  0
   32.8510   30.2000   45.5940 C   0  0  0  0  0  0  0  0  0  0  0  0
   32.3870   31.3230   46.1010 O   0  0  0  0  0  0  0  0  0  0  0  0
   32.7160   33.0150   42.5170 C   0  0  0  0  0  0  0  0  0  0  0  0
   31.3480   32.3980   42.3300 C   0  0  0  0  0  0  0  0  0  0  0  0
   31.1880   31.3670   43.3300 N   0  0  0  0  0  0  0  0  0  0  0  0
   30.7570   30.5450   44.4080 C   0  0  0  0  0  0  0  0  0  0  0  0
   29.7300   30.4560   45.1110 O   0  0  0  0  0  0  0  0  0  0  0  0
   32.0100   29.7470   44.4540 C   0  0  1  0  0  0  0  0  0  0  0  0
   32.2670   30.3880   43.1450 C   0  0  2  0  0  0  0  0  0  0  0  0
   33.6710   31.5330   43.0390 S   0  0  0  0  0  0  0  0  0  0  0  0
   32.7720   34.0930   43.5400 C   0  0  0  0  0  0  0  0  0  0  0  0
   33.2010   33.4350   41.1460 C   0  0  0  0  0  0  0  0  0  0  0  0
   39.7000   32.9480   48.1343 H   0  0  0  0  0  0  0  0  0  0  0  0
   38.8737   32.8885   50.4939 H   0  0  0  0  0  0  0  0  0  0  0  0
   36.6898   31.5767   50.9810 H   0  0  0  0  0  0  0  0  0  0  0  0
   35.5658   30.4832   49.1129 H   0  0  0  0  0  0  0  0  0  0  0  0
   40.4133   30.6432   46.6761 H   0  0  0  0  0  0  0  0  0  0  0  0
   37.2916   33.0779   45.0017 H   0  0  0  0  0  0  0  0  0  0  0  0
   40.5887   31.9162   42.6478 H   0  0  0  0  0  0  0  0  0  0  0  0
   36.6642   30.2326   45.7122 H   0  0  0  0  0  0  0  0  0  0  0  0
   30.5707   33.1659   42.4566 H   0  0  0  0  0  0  0  0  0  0  0  0
   31.2534   31.9719   41.3203 H   0  0  0  0  0  0  0  0  0  0  0  0
   32.0988   28.6580   44.5812 H   0  0  0  0  0  0  0  0  0  0  0  0
   32.3816   29.6526   42.3351 H   0  0  0  0  0  0  0  0  0  0  0  0
   32.7488   33.6464   44.5450 H   0  0  0  0  0  0  0  0  0  0  0  0
   33.7012   34.6684   43.4158 H   0  0  0  0  0  0  0  0  0  0  0  0
   31.9074   34.7616   43.4158 H   0  0  0  0  0  0  0  0  0  0  0  0
   34.0286   34.1517   41.2535 H   0  0  0  0  0  0  0  0  0  0  0  0
   33.5514   32.5503   40.5941 H   0  0  0  0  0  0  0  0  0  0  0  0
   32.3755   33.9082   40.5941 H   0  0  0  0  0  0  0  0  0  0  0  0
  1  6  1  0
  1  2  2  0
  2  3  1  0
  3  4  2  0
  5  4  1  0
  6  5  2  0
  7  8  2  0
  8  1  1  0
  9  8  1  0
 10  9  2  0
 11 10  1  0
 11 12  2  0
 12  7  1  0
 13 14  2  0
 15 13  1  0
 15  6  1  0
 16 13  1  0
 17 16  1  0
 17 18  2  0
 19 26  1  0
 19 27  1  0
 20 19  1  0
 20 21  1  0
 21 22  1  0
 22 24  1  0
 22 23  2  0
 24 17  1  0
 25 26  1  0
 25 21  1  0
 25 24  1  0
 28 19  1  0
  2 29  1  0
  3 30  1  0
  4 31  1  0
  5 32  1  0
  7 33  1  0
  9 34  1  0
 11 35  1  0
 15 36  1  0
 20 37  1  0
 20 38  1  0
 24 39  1  6
 25 40  1  6
 27 41  1  0
 27 42  1  0
 27 43  1  0
 28 44  1  0
 28 45  1  0
 28 46  1  0
M  ISO  8  29  14  30  14  31  14  32  14  33  14  34  14  35  14  37  13
M  ISO  8  38  13  39  13  40  13  41   8  42   8  43   8  44   8  45   8
M  ISO  1  46   8
M  END
>  <minimizedAffinity>  (1) 
-6.10085964

>  <minimizedRMSD>  (1) 
1.34272444

$$$$
