
     RDKit          3D

 48 51  0  0  1  0  0  0  0  0999 V2000
   36.6650   29.9030   50.8730 C   0  0  0  0  0  0  0  0  0  0  0  0
   37.4510   30.8380   50.2360 C   0  0  0  0  0  0  0  0  0  0  0  0
   37.2930   31.0110   48.8780 C   0  0  0  0  0  0  0  0  0  0  0  0
   36.3490   30.2370   48.2180 N   0  0  0  0  0  0  0  0  0  0  0  0
   35.6260   29.3560   48.9010 C   0  0  0  0  0  0  0  0  0  0  0  0
   35.7590   29.1670   50.2110 N   0  0  0  0  0  0  0  0  0  0  0  0
   34.6350   28.5560   48.1780 C   0  0  0  0  0  0  0  0  0  0  0  0
   34.4380   27.3400   48.3710 O   0  0  0  0  0  0  0  0  0  0  0  0
   30.8740   26.6660   47.0550 C   0  0  0  0  0  0  0  0  0  0  0  0
   31.1120   27.5220   45.8330 C   0  0  0  0  0  0  0  0  0  0  0  0
   32.4230   28.1300   45.9700 N   0  0  0  0  0  0  0  0  0  0  0  0
   33.7850   28.5520   45.8220 C   0  0  0  0  0  0  0  0  0  0  0  0
   34.6600   28.4160   44.9020 O   0  0  0  0  0  0  0  0  0  0  0  0
   33.7990   29.2080   47.1480 C   0  0  1  0  0  0  0  0  0  0  0  0
   32.3370   28.9680   47.1780 C   0  0  2  0  0  0  0  0  0  0  0  0
   31.7600   27.6570   48.3230 S   0  0  0  0  0  0  0  0  0  0  0  0
   31.3990   25.2740   46.9470 C   0  0  0  0  0  0  0  0  0  0  0  0
   29.3880   26.6690   47.3230 C   0  0  0  0  0  0  0  0  0  0  0  0
   38.2220   32.1730   47.8940 S   0  0  0  0  0  0  0  0  0  0  0  0
   38.3450   32.8730   45.2650 N   0  0  0  0  0  0  0  0  0  0  0  0
   38.0540   31.7450   46.1160 C   0  0  1  0  0  0  0  0  0  0  0  0
   39.0210   30.6260   45.8560 C   0  0  0  0  0  0  0  0  0  0  0  0
   40.3530   31.1390   46.1280 N   0  0  0  0  0  0  0  0  0  0  0  0
   40.6120   32.1080   45.0440 C   0  0  0  0  0  0  0  0  0  0  0  0
   39.7090   33.2880   45.3230 C   0  0  2  0  0  0  0  0  0  0  0  0
   40.0730   33.8740   46.5930 N   0  0  0  0  0  0  0  0  0  0  0  0
   36.7836   29.7553   51.9566 H   0  0  0  0  0  0  0  0  0  0  0  0
   38.1869   31.4321   50.7977 H   0  0  0  0  0  0  0  0  0  0  0  0
   30.3412   28.3040   45.7672 H   0  0  0  0  0  0  0  0  0  0  0  0
   31.0634   26.9117   44.9191 H   0  0  0  0  0  0  0  0  0  0  0  0
   34.2123   30.2128   47.3201 H   0  0  0  0  0  0  0  0  0  0  0  0
   31.7446   29.8781   47.3533 H   0  0  0  0  0  0  0  0  0  0  0  0
   31.5546   24.8616   47.9548 H   0  0  0  0  0  0  0  0  0  0  0  0
   30.6744   24.6500   46.4033 H   0  0  0  0  0  0  0  0  0  0  0  0
   32.3552   25.2839   46.4033 H   0  0  0  0  0  0  0  0  0  0  0  0
   29.2112   26.6694   48.4087 H   0  0  0  0  0  0  0  0  0  0  0  0
   28.9369   27.5681   46.8778 H   0  0  0  0  0  0  0  0  0  0  0  0
   28.9333   25.7718   46.8778 H   0  0  0  0  0  0  0  0  0  0  0  0
   37.7506   33.6627   45.5546 H   0  0  0  0  0  0  0  0  0  0  0  0
   37.0196   31.4473   45.8896 H   0  0  0  0  0  0  0  0  0  0  0  0
   38.8015   29.7762   46.5191 H   0  0  0  0  0  0  0  0  0  0  0  0
   38.9420   30.2745   44.8167 H   0  0  0  0  0  0  0  0  0  0  0  0
   40.3819   31.6051   47.0460 H   0  0  0  0  0  0  0  0  0  0  0  0
   40.3710   31.6636   44.0671 H   0  0  0  0  0  0  0  0  0  0  0  0
   41.6703   32.4064   45.0115 H   0  0  0  0  0  0  0  0  0  0  0  0
   39.8341   34.0680   44.5575 H   0  0  0  0  0  0  0  0  0  0  0  0
   39.7092   33.2883   47.3582 H   0  0  0  0  0  0  0  0  0  0  0  0
   41.0990   33.9319   46.6629 H   0  0  0  0  0  0  0  0  0  0  0  0
  2  1  2  0
  3  2  1  0
  4  3  2  0
  4  5  1  0
  5  6  2  0
  6  1  1  0
  7  8  2  0
  7  5  1  0
  9 18  1  0
  9 16  1  0
 10 11  1  0
 10  9  1  0
 11 15  1  0
 12 11  1  0
 12 14  1  0
 13 12  2  0
 14 15  1  0
 14  7  1  0
 15 16  1  0
 17  9  1  0
 19  3  1  0
 20 25  1  0
 20 21  1  0
 21 19  1  0
 22 21  1  0
 22 23  1  0
 24 25  1  0
 24 23  1  0
 25 26  1  0
  1 27  1  0
  2 28  1  0
 10 29  1  0
 10 30  1  0
 14 31  1  6
 15 32  1  6
 17 33  1  0
 17 34  1  0
 17 35  1  0
 18 36  1  0
 18 37  1  0
 18 38  1  0
 20 39  1  0
 21 40  1  1
 22 41  1  0
 22 42  1  0
 23 43  1  0
 24 44  1  0
 24 45  1  0
 25 46  1  6
 26 47  1  0
 26 48  1  0
M  ISO  8  27  14  28  14  29  13  30  13  31  13  32  13  33   8  34   8
M  ISO  8  35   8  36   8  37   8  38   8  39   5  40  13  41  13  42  13
M  ISO  6  43   5  44  13  45  13  46  13  47   5  48   5
M  END
>  <minimizedAffinity>  (1) 
-6.45717239

>  <minimizedRMSD>  (1) 
3.26156425

$$$$
