
     RDKit          3D

 55 59  0  0  1  0  0  0  0  0999 V2000
   40.0070   32.0410   42.9750 N   0  0  0  0  0  0  0  0  0  0  0  0
   39.2750   33.2300   42.7880 C   0  0  0  0  0  0  0  0  0  0  0  0
   37.8690   33.0910   42.3270 C   0  0  0  0  0  0  0  0  0  0  0  0
   37.7170   32.0950   41.3550 O   0  0  0  0  0  0  0  0  0  0  0  0
   38.2030   30.9170   41.8030 C   0  0  0  0  0  0  0  0  0  0  0  0
   39.6820   31.0020   42.1110 C   0  0  1  0  0  0  0  0  0  0  0  0
   40.4310   31.7620   44.2860 C   0  0  0  0  0  0  0  0  0  0  0  0
   39.9190   32.5780   45.3800 C   0  0  0  0  0  0  0  0  0  0  0  0
   37.8020   30.9340   47.7650 C   0  0  0  0  0  0  0  0  0  0  0  0
   37.0820   30.7440   46.6010 C   0  0  0  0  0  0  0  0  0  0  0  0
   37.8070   31.3430   45.5600 C   0  0  0  0  0  0  0  0  0  0  0  0
   38.9020   31.8540   46.1220 N   0  0  0  0  0  0  0  0  0  0  0  0
   38.8930   31.6080   47.4370 N   0  0  0  0  0  0  0  0  0  0  0  0
   37.4270   30.1940   51.4310 C   0  0  0  0  0  0  0  0  0  0  0  0
   37.9650   30.7260   50.2560 C   0  0  0  0  0  0  0  0  0  0  0  0
   37.3580   30.4490   49.0450 C   0  0  0  0  0  0  0  0  0  0  0  0
   36.2510   29.6530   49.1120 N   0  0  0  0  0  0  0  0  0  0  0  0
   35.7470   29.1500   50.2560 C   0  0  0  0  0  0  0  0  0  0  0  0
   36.3490   29.4310   51.4060 N   0  0  0  0  0  0  0  0  0  0  0  0
   40.4800   30.9480   40.8310 C   0  0  0  0  0  0  0  0  0  0  0  0
   41.0630   29.6330   40.5400 C   0  0  1  0  0  0  0  0  0  0  0  0
   40.0470   28.8130   39.7130 C   0  0  0  0  0  0  0  0  0  0  0  0
   40.8130   27.7090   39.1670 N   0  0  0  0  0  0  0  0  0  0  0  0
   41.4220   26.4530   38.8080 C   0  0  0  0  0  0  0  0  0  0  0  0
   41.1070   25.2600   39.0540 O   0  0  0  0  0  0  0  0  0  0  0  0
   42.5190   27.1600   38.0630 C   0  0  0  0  0  0  0  0  0  0  0  0
   41.6680   28.3810   38.1830 C   0  0  2  0  0  0  0  0  0  0  0  0
   42.3390   29.7240   39.2180 S   0  0  0  0  0  0  0  0  0  0  0  0
   41.5260   28.7950   41.6730 C   0  0  0  0  0  0  0  0  0  0  0  0
   39.2577   33.7638   43.7496 H   0  0  0  0  0  0  0  0  0  0  0  0
   39.7918   33.7587   41.9735 H   0  0  0  0  0  0  0  0  0  0  0  0
   37.2380   32.8384   43.1919 H   0  0  0  0  0  0  0  0  0  0  0  0
   37.5712   34.0477   41.8731 H   0  0  0  0  0  0  0  0  0  0  0  0
   37.6638   30.6343   42.7192 H   0  0  0  0  0  0  0  0  0  0  0  0
   38.0601   30.1648   41.0132 H   0  0  0  0  0  0  0  0  0  0  0  0
   39.9728   30.1149   42.6928 H   0  0  0  0  0  0  0  0  0  0  0  0
   40.1505   30.7204   44.5013 H   0  0  0  0  0  0  0  0  0  0  0  0
   41.5079   31.9858   44.2697 H   0  0  0  0  0  0  0  0  0  0  0  0
   40.7465   32.8358   46.0573 H   0  0  0  0  0  0  0  0  0  0  0  0
   39.4716   33.4922   44.9627 H   0  0  0  0  0  0  0  0  0  0  0  0
   36.1191   30.2203   46.5079 H   0  0  0  0  0  0  0  0  0  0  0  0
   37.5284   31.3828   44.4966 H   0  0  0  0  0  0  0  0  0  0  0  0
   37.9101   30.4147   52.3943 H   0  0  0  0  0  0  0  0  0  0  0  0
   38.8634   31.3595   50.2943 H   0  0  0  0  0  0  0  0  0  0  0  0
   34.8489   28.5151   50.2376 H   0  0  0  0  0  0  0  0  0  0  0  0
   39.8155   31.2225   39.9985 H   0  0  0  0  0  0  0  0  0  0  0  0
   41.3211   31.6463   40.9534 H   0  0  0  0  0  0  0  0  0  0  0  0
   39.2359   28.4404   40.3560 H   0  0  0  0  0  0  0  0  0  0  0  0
   39.5720   29.4163   38.9254 H   0  0  0  0  0  0  0  0  0  0  0  0
   43.4821   27.2109   38.5920 H   0  0  0  0  0  0  0  0  0  0  0  0
   42.9064   26.8008   37.0982 H   0  0  0  0  0  0  0  0  0  0  0  0
   41.3736   28.8285   37.2222 H   0  0  0  0  0  0  0  0  0  0  0  0
   41.2574   29.2812   42.6224 H   0  0  0  0  0  0  0  0  0  0  0  0
   41.0459   27.8068   41.6184 H   0  0  0  0  0  0  0  0  0  0  0  0
   42.6181   28.6755   41.6184 H   0  0  0  0  0  0  0  0  0  0  0  0
  1  7  1  0
  2  1  1  0
  3  2  1  0
  4  5  1  0
  4  3  1  0
  5  6  1  0
  6  1  1  0
  7  8  1  0
  8 12  1  0
  9 16  1  0
 10  9  1  0
 11 12  1  0
 11 10  2  0
 12 13  1  0
 13  9  2  0
 15 14  2  0
 16 17  2  0
 16 15  1  0
 17 18  1  0
 18 19  2  0
 19 14  1  0
 20  6  1  0
 21 20  1  1
 21 29  1  0
 22 21  1  0
 23 22  1  0
 24 25  2  0
 24 23  1  0
 26 24  1  0
 27 26  1  0
 27 23  1  0
 27 28  1  0
 28 21  1  0
  2 30  1  0
  2 31  1  0
  3 32  1  0
  3 33  1  0
  5 34  1  0
  5 35  1  0
  6 36  1  1
  7 37  1  0
  7 38  1  0
  8 39  1  0
  8 40  1  0
 10 41  1  0
 11 42  1  0
 14 43  1  0
 15 44  1  0
 18 45  1  0
 20 46  1  0
 20 47  1  0
 22 48  1  0
 22 49  1  0
 26 50  1  0
 26 51  1  0
 27 52  1  6
 29 53  1  0
 29 54  1  0
 29 55  1  0
M  ISO  8  30  13  31  13  32  13  33  13  34  13  35  13  36  13  37   8
M  ISO  8  38   8  39   8  40   8  41  14  42  14  43  14  44  14  45  14
M  ISO  8  46   8  47   8  48  13  49  13  50  13  51  13  52  13  53   8
M  ISO  2  54   8  55   8
M  END
>  <minimizedAffinity>  (1) 
-5.86599588

>  <minimizedRMSD>  (1) 
2.56807041

$$$$
