
     RDKit          3D

 48 51  0  0  1  0  0  0  0  0999 V2000
   37.0380   29.8980   48.9340 C   0  0  0  0  0  0  0  0  0  0  0  0
   38.0200   30.4610   48.1010 C   0  0  0  0  0  0  0  0  0  0  0  0
   37.6300   30.9200   46.8430 C   0  0  0  0  0  0  0  0  0  0  0  0
   36.3270   30.8000   46.4850 N   0  0  0  0  0  0  0  0  0  0  0  0
   35.4070   30.2540   47.3110 C   0  0  0  0  0  0  0  0  0  0  0  0
   35.7600   29.8080   48.5210 N   0  0  0  0  0  0  0  0  0  0  0  0
   38.5670   31.4960   45.9560 N   0  0  0  0  0  0  0  0  0  0  0  0
   39.7690   32.2100   46.3740 C   0  0  0  0  0  0  0  0  0  0  0  0
   40.3130   32.8680   45.1440 C   0  0  0  0  0  0  0  0  0  0  0  0
   39.1600   32.8660   44.2230 C   0  0  0  0  0  0  0  0  0  0  0  0
   38.5480   31.5090   44.5370 C   0  0  2  0  0  0  0  0  0  0  0  0
   37.2580   31.3070   43.8350 C   0  0  0  0  0  0  0  0  0  0  0  0
   36.4770   32.4250   44.1070 F   0  0  0  0  0  0  0  0  0  0  0  0
   36.5370   30.2330   44.2360 F   0  0  0  0  0  0  0  0  0  0  0  0
   37.5120   31.3550   42.4860 F   0  0  0  0  0  0  0  0  0  0  0  0
   39.4710   30.4320   44.0880 C   0  0  0  0  0  0  0  0  0  0  0  0
   38.8090   29.4000   43.9470 O   0  0  0  0  0  0  0  0  0  0  0  0
   39.4530   28.3500   43.3180 C   0  0  0  0  0  0  0  0  0  0  0  0
   38.6090   27.8810   42.1690 C   0  0  1  0  0  0  0  0  0  0  0  0
   38.6240   28.7490   40.9630 C   0  0  0  0  0  0  0  0  0  0  0  0
   39.6390   28.2880   40.0540 N   0  0  0  0  0  0  0  0  0  0  0  0
   40.7580   28.2220   39.1770 C   0  0  0  0  0  0  0  0  0  0  0  0
   41.4340   29.0560   38.4840 O   0  0  0  0  0  0  0  0  0  0  0  0
   40.8980   26.7510   39.3410 C   0  0  0  0  0  0  0  0  0  0  0  0
   39.4620   26.8670   39.7840 C   0  0  1  0  0  0  0  0  0  0  0  0
   39.1860   26.2940   41.5040 S   0  0  0  0  0  0  0  0  0  0  0  0
   37.1900   27.6630   42.6310 C   0  0  0  0  0  0  0  0  0  0  0  0
   37.3161   29.5278   49.9318 H   0  0  0  0  0  0  0  0  0  0  0  0
   39.0663   30.5375   48.4317 H   0  0  0  0  0  0  0  0  0  0  0  0
   34.3593   30.1759   46.9851 H   0  0  0  0  0  0  0  0  0  0  0  0
   39.5188   32.9666   47.1323 H   0  0  0  0  0  0  0  0  0  0  0  0
   40.5055   31.5269   46.8222 H   0  0  0  0  0  0  0  0  0  0  0  0
   40.6441   33.8946   45.3594 H   0  0  0  0  0  0  0  0  0  0  0  0
   41.1943   32.3536   44.7333 H   0  0  0  0  0  0  0  0  0  0  0  0
   39.4804   32.9325   43.1728 H   0  0  0  0  0  0  0  0  0  0  0  0
   38.4735   33.7161   44.3502 H   0  0  0  0  0  0  0  0  0  0  0  0
   39.9349   30.7122   43.1308 H   0  0  0  0  0  0  0  0  0  0  0  0
   40.2690   30.2773   44.8291 H   0  0  0  0  0  0  0  0  0  0  0  0
   40.4311   28.6872   42.9443 H   0  0  0  0  0  0  0  0  0  0  0  0
   39.6050   27.5254   44.0301 H   0  0  0  0  0  0  0  0  0  0  0  0
   37.6423   28.7070   40.4686 H   0  0  0  0  0  0  0  0  0  0  0  0
   38.8406   29.7858   41.2597 H   0  0  0  0  0  0  0  0  0  0  0  0
   41.0684   26.1809   38.4158 H   0  0  0  0  0  0  0  0  0  0  0  0
   41.6917   26.2633   39.9260 H   0  0  0  0  0  0  0  0  0  0  0  0
   38.7218   26.3976   39.1194 H   0  0  0  0  0  0  0  0  0  0  0  0
   37.1590   27.6582   43.7306 H   0  0  0  0  0  0  0  0  0  0  0  0
   36.5516   28.4736   42.2497 H   0  0  0  0  0  0  0  0  0  0  0  0
   36.8244   26.6981   42.2497 H   0  0  0  0  0  0  0  0  0  0  0  0
  2  1  2  0
  3  2  1  0
  4  3  2  0
  4  5  1  0
  5  6  2  0
  6  1  1  0
  7  8  1  0
  7  3  1  0
  9  8  1  0
 10 11  1  0
 10  9  1  0
 11 12  1  1
 11  7  1  0
 12 13  1  0
 12 14  1  0
 15 12  1  0
 16 11  1  0
 17 16  1  0
 18 17  1  0
 19 27  1  1
 19 18  1  0
 20 19  1  0
 21 20  1  0
 22 24  1  0
 22 21  1  0
 23 22  2  0
 25 24  1  0
 25 21  1  0
 25 26  1  0
 26 19  1  0
  1 28  1  0
  2 29  1  0
  5 30  1  0
  8 31  1  0
  8 32  1  0
  9 33  1  0
  9 34  1  0
 10 35  1  0
 10 36  1  0
 16 37  1  0
 16 38  1  0
 18 39  1  0
 18 40  1  0
 20 41  1  0
 20 42  1  0
 24 43  1  0
 24 44  1  0
 25 45  1  6
 27 46  1  0
 27 47  1  0
 27 48  1  0
M  ISO  8  28  14  29  14  30  14  31  13  32  13  33  13  34  13  35  13
M  ISO  8  36  13  37   8  38   8  39   8  40   8  41  13  42  13  43  13
M  ISO  5  44  13  45  13  46   8  47   8  48   8
M  END
>  <minimizedAffinity>  (1) 
-4.5872817

>  <minimizedRMSD>  (1) 
1.4706943

$$$$
