
     RDKit          3D

 28 30  0  0  0  0  0  0  0  0999 V2000
   32.4420   28.3640   47.4150 C   0  0  0  0  0  0  0  0  0  0  0  0
   30.9930   27.3130   47.2090 S   0  0  0  0  0  0  0  0  0  0  0  0
   29.8500   27.6560   48.5440 C   0  0  0  0  0  0  0  0  0  0  0  0
   28.9840   28.7020   48.2780 C   0  0  0  0  0  0  0  0  0  0  0  0
   28.0550   29.0300   49.2800 C   0  0  0  0  0  0  0  0  0  0  0  0
   28.0600   28.3070   50.4450 N   0  0  0  0  0  0  0  0  0  0  0  0
   28.9300   27.3060   50.6350 C   0  0  0  0  0  0  0  0  0  0  0  0
   29.8190   26.9810   49.6930 N   0  0  0  0  0  0  0  0  0  0  0  0
   33.6590   27.6600   48.5590 S   0  0  0  0  0  0  0  0  0  0  0  0
   35.2150   29.7260   47.6440 C   0  0  0  0  0  0  0  0  0  0  0  0
   34.9960   28.8370   48.6940 C   0  0  0  0  0  0  0  0  0  0  0  0
   35.8420   28.9250   49.7980 C   0  0  0  0  0  0  0  0  0  0  0  0
   36.8610   29.8600   49.8410 C   0  0  0  0  0  0  0  0  0  0  0  0
   37.7830   30.1080   50.8080 N   0  0  0  0  0  0  0  0  0  0  0  0
   38.5440   31.1100   50.3730 N   0  0  0  0  0  0  0  0  0  0  0  0
   38.1070   31.4840   49.1570 C   0  0  0  0  0  0  0  0  0  0  0  0
   37.0270   30.7110   48.7710 C   0  0  0  0  0  0  0  0  0  0  0  0
   36.2310   30.6800   47.6550 C   0  0  0  0  0  0  0  0  0  0  0  0
   32.1165   29.3400   47.8042 H   0  0  0  0  0  0  0  0  0  0  0  0
   32.9261   28.4593   46.4319 H   0  0  0  0  0  0  0  0  0  0  0  0
   29.0211   29.2515   47.3258 H   0  0  0  0  0  0  0  0  0  0  0  0
   27.3377   29.8508   49.1326 H   0  0  0  0  0  0  0  0  0  0  0  0
   28.9118   26.7439   51.5804 H   0  0  0  0  0  0  0  0  0  0  0  0
   34.5554   29.6725   46.7654 H   0  0  0  0  0  0  0  0  0  0  0  0
   35.6975   28.2412   50.6475 H   0  0  0  0  0  0  0  0  0  0  0  0
   37.8755   29.6143   51.7072 H   0  0  0  0  0  0  0  0  0  0  0  0
   38.5471   32.2918   48.5539 H   0  0  0  0  0  0  0  0  0  0  0  0
   36.3860   31.3711   46.8134 H   0  0  0  0  0  0  0  0  0  0  0  0
  1  9  1  0
  2  1  1  0
  2  3  1  0
  3  8  1  0
  4  3  2  0
  4  5  1  0
  5  6  2  0
  6  7  1  0
  8  7  2  0
  9 11  1  0
 10 18  2  0
 10 11  1  0
 11 12  2  0
 12 13  1  0
 13 14  1  0
 15 14  1  0
 16 15  2  0
 17 16  1  0
 17 13  2  0
 18 17  1  0
  1 19  1  0
  1 20  1  0
  4 21  1  0
  5 22  1  0
  7 23  1  0
 10 24  1  0
 12 25  1  0
 14 26  1  0
 16 27  1  0
 18 28  1  0
M  ISO  8  19   8  20   8  21  14  22  14  23  14  24  14  25  14  26   9
M  ISO  2  27  14  28  14
M  END
>  <minimizedAffinity>  (1) 
-5.37636423

>  <minimizedRMSD>  (1) 
7.9581337

$$$$
