
     RDKit          3D

 45 49  0  0  1  0  0  0  0  0999 V2000
   40.6820   32.0350   44.5500 Cl  0  0  0  0  0  0  0  0  0  0  0  0
   39.1500   31.1970   44.4170 C   0  0  0  0  0  0  0  0  0  0  0  0
   38.2400   31.5330   45.4080 C   0  0  0  0  0  0  0  0  0  0  0  0
   37.0190   30.8790   45.3150 C   0  0  0  0  0  0  0  0  0  0  0  0
   36.7450   29.9670   44.3080 C   0  0  0  0  0  0  0  0  0  0  0  0
   37.6880   29.6820   43.3640 C   0  0  0  0  0  0  0  0  0  0  0  0
   38.9030   30.3020   43.4160 C   0  0  0  0  0  0  0  0  0  0  0  0
   41.0190   29.1690   42.4770 C   0  0  0  0  0  0  0  0  0  0  0  0
   39.9490   30.0400   42.4370 C   0  0  0  0  0  0  0  0  0  0  0  0
   39.7640   30.8400   41.3020 C   0  0  0  0  0  0  0  0  0  0  0  0
   40.6340   30.7740   40.2210 C   0  0  0  0  0  0  0  0  0  0  0  0
   40.7390   31.3800   39.0240 N   0  0  0  0  0  0  0  0  0  0  0  0
   41.8070   30.9140   38.3660 N   0  0  0  0  0  0  0  0  0  0  0  0
   42.4320   29.9870   39.1160 C   0  0  0  0  0  0  0  0  0  0  0  0
   41.6970   29.8980   40.2800 C   0  0  0  0  0  0  0  0  0  0  0  0
   41.8770   29.1110   41.3990 C   0  0  0  0  0  0  0  0  0  0  0  0
   38.2840   32.3720   46.4610 O   0  0  0  0  0  0  0  0  0  0  0  0
   38.9440   32.4500   47.6410 C   0  0  2  0  0  0  0  0  0  0  0  0
   37.9690   32.6180   48.8530 C   0  0  2  0  0  0  0  0  0  0  0  0
   38.8410   33.3010   49.7980 C   0  0  0  0  0  0  0  0  0  0  0  0
   39.6440   34.1790   49.0840 O   0  0  0  0  0  0  0  0  0  0  0  0
   39.5730   33.8630   47.7690 C   0  0  0  0  0  0  0  0  0  0  0  0
   37.3390   29.3080   50.5190 C   0  0  0  0  0  0  0  0  0  0  0  0
   37.9910   30.5280   50.1820 C   0  0  0  0  0  0  0  0  0  0  0  0
   37.3500   31.3820   49.2350 C   0  0  0  0  0  0  0  0  0  0  0  0
   36.1400   30.9980   48.6910 N   0  0  0  0  0  0  0  0  0  0  0  0
   35.5730   29.8360   49.0460 C   0  0  0  0  0  0  0  0  0  0  0  0
   36.1490   28.9920   49.9460 N   0  0  0  0  0  0  0  0  0  0  0  0
   36.2433   31.0917   46.0654 H   0  0  0  0  0  0  0  0  0  0  0  0
   35.7638   29.4712   44.2697 H   0  0  0  0  0  0  0  0  0  0  0  0
   37.4705   28.9570   42.5659 H   0  0  0  0  0  0  0  0  0  0  0  0
   41.1850   28.5299   43.3567 H   0  0  0  0  0  0  0  0  0  0  0  0
   38.9121   31.5349   41.2660 H   0  0  0  0  0  0  0  0  0  0  0  0
   40.0921   32.0974   38.6667 H   0  0  0  0  0  0  0  0  0  0  0  0
   43.3379   29.4200   38.8555 H   0  0  0  0  0  0  0  0  0  0  0  0
   42.7298   28.4171   41.4321 H   0  0  0  0  0  0  0  0  0  0  0  0
   39.5951   31.5635   47.6541 H   0  0  0  0  0  0  0  0  0  0  0  0
   37.0498   33.1996   48.6893 H   0  0  0  0  0  0  0  0  0  0  0  0
   38.2361   33.8584   50.5283 H   0  0  0  0  0  0  0  0  0  0  0  0
   39.4607   32.5723   50.3411 H   0  0  0  0  0  0  0  0  0  0  0  0
   40.5823   33.8619   47.3316 H   0  0  0  0  0  0  0  0  0  0  0  0
   38.9579   34.6017   47.2342 H   0  0  0  0  0  0  0  0  0  0  0  0
   37.7995   28.6208   51.2441 H   0  0  0  0  0  0  0  0  0  0  0  0
   38.9548   30.8027   50.6355 H   0  0  0  0  0  0  0  0  0  0  0  0
   34.6099   29.5550   48.5949 H   0  0  0  0  0  0  0  0  0  0  0  0
  2  1  1  0
  2  3  2  0
  3 17  1  0
  4  3  1  0
  5  4  2  0
  6  7  2  0
  6  5  1  0
  7  2  1  0
  9  8  2  0
  9  7  1  0
 10  9  1  0
 11 15  1  0
 11 10  2  0
 12 11  1  0
 13 12  1  0
 13 14  2  0
 14 15  1  0
 15 16  2  0
 16  8  1  0
 17 18  1  0
 18 22  1  0
 18 19  1  0
 19 25  1  0
 19 20  1  0
 21 20  1  0
 22 21  1  0
 24 23  2  0
 25 24  1  0
 26 27  1  0
 26 25  2  0
 27 28  2  0
 28 23  1  0
  4 29  1  0
  5 30  1  0
  6 31  1  0
  8 32  1  0
 10 33  1  0
 12 34  1  0
 14 35  1  0
 16 36  1  0
 18 37  1  1
 19 38  1  6
 20 39  1  0
 20 40  1  0
 22 41  1  0
 22 42  1  0
 23 43  1  0
 24 44  1  0
 27 45  1  0
M  ISO  8  29  14  30  14  31  14  32  14  33  14  34   9  35  14  36  14
M  ISO  8  37  13  38  13  39  13  40  13  41  13  42  13  43  14  44  14
M  ISO  1  45  14
M  END
>  <minimizedAffinity>  (1) 
-6.57144165

>  <minimizedRMSD>  (1) 
1.5974983

$$$$
