
     RDKit          3D

 36 39  0  0  0  0  0  0  0  0999 V2000
   39.3000   33.1650   45.4650 C   0  0  0  0  0  0  0  0  0  0  0  0
   37.5400   31.1210   47.8620 C   0  0  0  0  0  0  0  0  0  0  0  0
   36.9610   30.7080   46.6780 C   0  0  0  0  0  0  0  0  0  0  0  0
   37.5490   31.4220   45.6430 C   0  0  0  0  0  0  0  0  0  0  0  0
   38.4580   32.2360   46.2310 N   0  0  0  0  0  0  0  0  0  0  0  0
   38.4420   32.0500   47.5460 N   0  0  0  0  0  0  0  0  0  0  0  0
   37.3980   30.1760   51.4890 C   0  0  0  0  0  0  0  0  0  0  0  0
   37.8630   30.7590   50.3170 C   0  0  0  0  0  0  0  0  0  0  0  0
   37.1320   30.5530   49.1340 C   0  0  0  0  0  0  0  0  0  0  0  0
   36.0130   29.7920   49.2290 N   0  0  0  0  0  0  0  0  0  0  0  0
   35.5900   29.2400   50.3890 C   0  0  0  0  0  0  0  0  0  0  0  0
   36.2920   29.4400   51.5140 N   0  0  0  0  0  0  0  0  0  0  0  0
   40.6100   32.4780   45.1080 C   0  0  0  0  0  0  0  0  0  0  0  0
   39.7470   32.2940   42.6930 C   0  0  0  0  0  0  0  0  0  0  0  0
   40.3820   31.7930   43.8090 C   0  0  0  0  0  0  0  0  0  0  0  0
   40.8690   30.4880   43.7110 C   0  0  0  0  0  0  0  0  0  0  0  0
   40.7450   29.7080   42.5800 C   0  0  0  0  0  0  0  0  0  0  0  0
   41.1380   28.4630   42.3000 N   0  0  0  0  0  0  0  0  0  0  0  0
   40.7870   28.1510   41.0740 N   0  0  0  0  0  0  0  0  0  0  0  0
   40.1480   29.2240   40.5420 C   0  0  0  0  0  0  0  0  0  0  0  0
   40.1030   30.2320   41.4710 C   0  0  0  0  0  0  0  0  0  0  0  0
   39.6230   31.5180   41.5680 C   0  0  0  0  0  0  0  0  0  0  0  0
   38.7770   33.4605   44.5435 H   0  0  0  0  0  0  0  0  0  0  0  0
   39.5061   34.0602   46.0701 H   0  0  0  0  0  0  0  0  0  0  0  0
   36.1731   29.9476   46.5737 H   0  0  0  0  0  0  0  0  0  0  0  0
   37.3237   31.3432   44.5692 H   0  0  0  0  0  0  0  0  0  0  0  0
   37.9608   30.3278   52.4219 H   0  0  0  0  0  0  0  0  0  0  0  0
   38.7800   31.3665   50.3147 H   0  0  0  0  0  0  0  0  0  0  0  0
   34.6748   28.6301   50.4096 H   0  0  0  0  0  0  0  0  0  0  0  0
   41.4153   33.2209   45.0105 H   0  0  0  0  0  0  0  0  0  0  0  0
   40.9125   31.7642   45.8884 H   0  0  0  0  0  0  0  0  0  0  0  0
   39.3397   33.3157   42.7041 H   0  0  0  0  0  0  0  0  0  0  0  0
   41.3803   30.0578   44.5848 H   0  0  0  0  0  0  0  0  0  0  0  0
   41.6411   27.8407   42.9486 H   0  0  0  0  0  0  0  0  0  0  0  0
   39.7316   29.2768   39.5252 H   0  0  0  0  0  0  0  0  0  0  0  0
   39.1111   31.9482   40.6946 H   0  0  0  0  0  0  0  0  0  0  0  0
  1  5  1  0
  2  9  1  0
  3  2  1  0
  4  5  1  0
  4  3  2  0
  5  6  1  0
  6  2  2  0
  7 12  2  0
  8  7  1  0
  9 10  1  0
  9  8  2  0
 10 11  2  0
 11 12  1  0
 13  1  1  0
 14 15  2  0
 15 13  1  0
 16 15  1  0
 17 16  2  0
 18 17  1  0
 19 18  1  0
 20 19  2  0
 20 21  1  0
 21 22  2  0
 21 17  1  0
 22 14  1  0
  1 23  1  0
  1 24  1  0
  3 25  1  0
  4 26  1  0
  7 27  1  0
  8 28  1  0
 11 29  1  0
 13 30  1  0
 13 31  1  0
 14 32  1  0
 16 33  1  0
 18 34  1  0
 20 35  1  0
 22 36  1  0
M  ISO  8  23   8  24   8  25  14  26  14  27  14  28  14  29  14  30   8
M  ISO  6  31   8  32  14  33  14  34   9  35  14  36  14
M  END
>  <minimizedAffinity>  (1) 
-6.08056831

>  <minimizedRMSD>  (1) 
4.12864733

$$$$
