
     RDKit          3D

 38 41  0  0  0  0  0  0  0  0999 V2000
   32.5880   28.1190   47.6050 N   0  0  0  0  0  0  0  0  0  0  0  0
   33.2060   27.7940   48.8590 C   0  0  0  0  0  0  0  0  0  0  0  0
   34.4550   28.4730   49.2220 C   0  0  0  0  0  0  0  0  0  0  0  0
   35.3340   28.9220   48.1150 C   0  0  0  0  0  0  0  0  0  0  0  0
   34.6000   29.2320   46.8500 C   0  0  0  0  0  0  0  0  0  0  0  0
   33.6120   28.0740   46.5780 C   0  0  0  0  0  0  0  0  0  0  0  0
   35.8580   30.7730   49.7330 C   0  0  0  0  0  0  0  0  0  0  0  0
   36.1120   30.1170   48.5370 C   0  0  0  0  0  0  0  0  0  0  0  0
   37.1300   30.6250   47.7410 C   0  0  0  0  0  0  0  0  0  0  0  0
   37.8770   31.7300   48.0930 C   0  0  0  0  0  0  0  0  0  0  0  0
   38.8890   32.3500   47.4510 N   0  0  0  0  0  0  0  0  0  0  0  0
   39.2840   33.3670   48.1850 N   0  0  0  0  0  0  0  0  0  0  0  0
   38.5330   33.4150   49.3110 C   0  0  0  0  0  0  0  0  0  0  0  0
   37.6210   32.3750   49.2770 C   0  0  0  0  0  0  0  0  0  0  0  0
   36.6010   31.8650   50.0730 C   0  0  0  0  0  0  0  0  0  0  0  0
   31.2220   28.4290   47.3950 C   0  0  0  0  0  0  0  0  0  0  0  0
   30.7400   29.2670   46.3840 C   0  0  0  0  0  0  0  0  0  0  0  0
   29.3620   29.4770   46.3030 C   0  0  0  0  0  0  0  0  0  0  0  0
   28.5570   28.8560   47.2140 N   0  0  0  0  0  0  0  0  0  0  0  0
   29.0650   28.0560   48.1710 C   0  0  0  0  0  0  0  0  0  0  0  0
   30.3910   27.8420   48.2640 N   0  0  0  0  0  0  0  0  0  0  0  0
   32.4739   28.0172   49.6491 H   0  0  0  0  0  0  0  0  0  0  0  0
   33.4958   26.7384   48.7502 H   0  0  0  0  0  0  0  0  0  0  0  0
   34.1879   29.3618   49.8125 H   0  0  0  0  0  0  0  0  0  0  0  0
   35.0430   27.7132   49.7578 H   0  0  0  0  0  0  0  0  0  0  0  0
   36.0029   28.0768   47.8954 H   0  0  0  0  0  0  0  0  0  0  0  0
   34.0474   30.1767   46.9604 H   0  0  0  0  0  0  0  0  0  0  0  0
   35.3062   29.3378   46.0133 H   0  0  0  0  0  0  0  0  0  0  0  0
   33.1535   28.1977   45.5858 H   0  0  0  0  0  0  0  0  0  0  0  0
   34.1361   27.1071   46.5978 H   0  0  0  0  0  0  0  0  0  0  0  0
   35.0624   30.4146   50.4027 H   0  0  0  0  0  0  0  0  0  0  0  0
   37.3507   30.1239   46.7870 H   0  0  0  0  0  0  0  0  0  0  0  0
   39.2847   32.0737   46.5410 H   0  0  0  0  0  0  0  0  0  0  0  0
   38.6316   34.1565   50.1175 H   0  0  0  0  0  0  0  0  0  0  0  0
   36.3821   32.3684   51.0262 H   0  0  0  0  0  0  0  0  0  0  0  0
   31.4277   29.7473   45.6724 H   0  0  0  0  0  0  0  0  0  0  0  0
   28.9356   30.1267   45.5245 H   0  0  0  0  0  0  0  0  0  0  0  0
   28.3863   27.5701   48.8874 H   0  0  0  0  0  0  0  0  0  0  0  0
  1  2  1  0
  2  3  1  0
  4  8  1  0
  4  3  1  0
  5  4  1  0
  6  5  1  0
  6  1  1  0
  7 15  2  0
  8  7  1  0
  9 10  1  0
  9  8  2  0
 10 14  2  0
 11 10  1  0
 11 12  1  0
 12 13  2  0
 14 13  1  0
 14 15  1  0
 16  1  1  0
 16 21  1  0
 17 16  2  0
 18 17  1  0
 18 19  2  0
 19 20  1  0
 20 21  2  0
  2 22  1  0
  2 23  1  0
  3 24  1  0
  3 25  1  0
  4 26  1  0
  5 27  1  0
  5 28  1  0
  6 29  1  0
  6 30  1  0
  7 31  1  0
  9 32  1  0
 11 33  1  0
 13 34  1  0
 15 35  1  0
 17 36  1  0
 18 37  1  0
 20 38  1  0
M  ISO  8  22  13  23  13  24  13  25  13  26  13  27  13  28  13  29  13
M  ISO  8  30  13  31  14  32  14  33   9  34  14  35  14  36  14  37  14
M  ISO  1  38  14
M  END
>  <minimizedAffinity>  (1) 
-6.29888105

>  <minimizedRMSD>  (1) 
4.48383379

$$$$
