
     RDKit          3D

 50 55  0  0  1  0  0  0  0  0999 V2000
   37.6690   30.7400   50.6720 C   0  0  0  0  0  0  0  0  0  0  0  0
   38.4040   31.4150   49.7180 C   0  0  0  0  0  0  0  0  0  0  0  0
   38.0650   31.4040   48.3600 C   0  0  0  0  0  0  0  0  0  0  0  0
   37.0020   30.7220   48.0180 N   0  0  0  0  0  0  0  0  0  0  0  0
   36.2810   30.0560   48.9740 C   0  0  0  0  0  0  0  0  0  0  0  0
   36.6040   30.0640   50.2620 N   0  0  0  0  0  0  0  0  0  0  0  0
   35.0820   29.3070   48.6120 C   0  0  0  0  0  0  0  0  0  0  0  0
   34.5550   28.1360   49.0960 C   0  0  0  0  0  0  0  0  0  0  0  0
   33.4060   27.6380   48.6180 C   0  0  0  0  0  0  0  0  0  0  0  0
   32.8020   28.3880   47.6080 C   0  0  0  0  0  0  0  0  0  0  0  0
   33.9330   29.8200   47.3750 S   0  0  0  0  0  0  0  0  0  0  0  0
   31.6660   28.2460   45.4570 C   0  0  0  0  0  0  0  0  0  0  0  0
   31.5830   28.2190   46.8300 C   0  0  0  0  0  0  0  0  0  0  0  0
   30.4630   28.0480   47.6080 C   0  0  0  0  0  0  0  0  0  0  0  0
   29.2610   27.8790   46.9150 C   0  0  0  0  0  0  0  0  0  0  0  0
   27.9780   27.6880   47.2700 N   0  0  0  0  0  0  0  0  0  0  0  0
   27.2270   27.5910   46.1840 N   0  0  0  0  0  0  0  0  0  0  0  0
   27.9880   27.7140   45.0620 C   0  0  0  0  0  0  0  0  0  0  0  0
   29.2650   27.8950   45.5250 C   0  0  0  0  0  0  0  0  0  0  0  0
   30.4500   28.0750   44.8130 C   0  0  0  0  0  0  0  0  0  0  0  0
   38.9870   32.0690   47.4860 C   0  0  1  0  0  0  0  0  0  0  0  0
   39.0940   31.5360   46.0740 C   0  0  2  0  0  0  0  0  0  0  0  0
   40.5660   31.1910   45.8460 C   0  0  0  0  0  0  0  0  0  0  0  0
   39.8530   32.2490   45.0780 C   0  0  1  0  0  0  0  0  0  0  0  0
   39.8070   31.9960   43.6300 C   0  0  0  0  0  0  0  0  0  0  0  0
   39.1220   32.8840   42.8430 C   0  0  0  0  0  0  0  0  0  0  0  0
   39.1180   32.6370   41.4950 C   0  0  0  0  0  0  0  0  0  0  0  0
   39.7590   31.5580   40.9140 C   0  0  0  0  0  0  0  0  0  0  0  0
   40.4430   30.6790   41.7470 C   0  0  0  0  0  0  0  0  0  0  0  0
   40.4520   30.9140   43.0700 N   0  0  0  0  0  0  0  0  0  0  0  0
   39.2280   33.3510   47.5810 O   0  0  0  0  0  0  0  0  0  0  0  0
   37.9562   30.7620   51.7336 H   0  0  0  0  0  0  0  0  0  0  0  0
   39.2900   31.9833   50.0374 H   0  0  0  0  0  0  0  0  0  0  0  0
   35.0865   27.5949   49.8927 H   0  0  0  0  0  0  0  0  0  0  0  0
   32.9690   26.7020   48.9961 H   0  0  0  0  0  0  0  0  0  0  0  0
   32.6137   28.3905   44.9176 H   0  0  0  0  0  0  0  0  0  0  0  0
   30.5096   28.0444   48.7070 H   0  0  0  0  0  0  0  0  0  0  0  0
   27.6326   27.6266   48.2384 H   0  0  0  0  0  0  0  0  0  0  0  0
   27.6521   27.6764   44.0152 H   0  0  0  0  0  0  0  0  0  0  0  0
   30.4196   28.0815   43.7134 H   0  0  0  0  0  0  0  0  0  0  0  0
   39.8572   31.7008   48.0491 H   0  0  0  0  0  0  0  0  0  0  0  0
   38.0882   31.0955   46.0081 H   0  0  0  0  0  0  0  0  0  0  0  0
   41.3249   31.4608   46.5952 H   0  0  0  0  0  0  0  0  0  0  0  0
   41.1421   30.2855   45.6050 H   0  0  0  0  0  0  0  0  0  0  0  0
   39.9153   33.3332   44.9030 H   0  0  0  0  0  0  0  0  0  0  0  0
   38.6009   33.7525   43.2720 H   0  0  0  0  0  0  0  0  0  0  0  0
   38.5757   33.3346   40.8398 H   0  0  0  0  0  0  0  0  0  0  0  0
   39.7288   31.3998   39.8259 H   0  0  0  0  0  0  0  0  0  0  0  0
   40.9675   29.8066   41.3301 H   0  0  0  0  0  0  0  0  0  0  0  0
   39.2763   33.6078   48.5359 H   0  0  0  0  0  0  0  0  0  0  0  0
  2  1  2  0
  3  2  1  0
  4  3  2  0
  4  5  1  0
  5  6  2  0
  6  1  1  0
  7  5  1  0
  7  8  2  0
  9  8  1  0
 10  9  2  0
 11 10  1  0
 11  7  1  0
 12 13  2  0
 13 14  1  0
 13 10  1  0
 15 16  1  0
 15 14  2  0
 17 16  1  0
 18 19  1  0
 18 17  2  0
 19 15  1  0
 20 12  1  0
 20 19  2  0
 21 31  1  0
 21  3  1  0
 22 21  1  0
 23 22  1  0
 24 23  1  0
 24 22  1  0
 25 24  1  0
 26 25  2  0
 27 26  1  0
 28 27  2  0
 28 29  1  0
 29 30  2  0
 30 25  1  0
  1 32  1  0
  2 33  1  0
  8 34  1  0
  9 35  1  0
 12 36  1  0
 14 37  1  0
 16 38  1  0
 18 39  1  0
 20 40  1  0
 21 41  1  1
 22 42  1  6
 23 43  1  0
 23 44  1  0
 24 45  1  6
 26 46  1  0
 27 47  1  0
 28 48  1  0
 29 49  1  0
 31 50  1  0
M  ISO  8  32  14  33  14  34  14  35  14  36  14  37  14  38   9  39  14
M  ISO  8  40  14  41   8  42  13  43  13  44  13  45  13  46  14  47  14
M  ISO  3  48  14  49  14  50   3
M  END
>  <minimizedAffinity>  (1) 
-7.17649317

>  <minimizedRMSD>  (1) 
0.282337397

$$$$
