
     RDKit          3D

 41 44  0  0  1  0  0  0  0  0999 V2000
   35.7700   29.9730   48.7920 N   0  0  0  0  0  0  0  0  0  0  0  0
   35.2640   30.9650   49.6770 C   0  0  0  0  0  0  0  0  0  0  0  0
   36.3440   31.6890   50.3890 C   0  0  0  0  0  0  0  0  0  0  0  0
   37.3100   30.6580   50.9540 C   0  0  0  0  0  0  0  0  0  0  0  0
   38.0580   30.1430   49.7690 C   0  0  0  0  0  0  0  0  0  0  0  0
   37.1820   30.0010   48.5900 C   0  0  2  0  0  0  0  0  0  0  0  0
   37.0910   30.5720   46.1210 C   0  0  0  0  0  0  0  0  0  0  0  0
   37.6260   30.7510   47.3790 C   0  0  0  0  0  0  0  0  0  0  0  0
   38.6370   31.7210   47.4290 C   0  0  0  0  0  0  0  0  0  0  0  0
   39.0710   32.4380   46.3310 C   0  0  0  0  0  0  0  0  0  0  0  0
   40.0100   33.3910   46.1860 N   0  0  0  0  0  0  0  0  0  0  0  0
   40.0250   33.7480   44.9110 N   0  0  0  0  0  0  0  0  0  0  0  0
   39.1060   33.0410   44.2250 C   0  0  0  0  0  0  0  0  0  0  0  0
   38.4940   32.2050   45.1160 C   0  0  0  0  0  0  0  0  0  0  0  0
   37.4930   31.2640   44.9980 C   0  0  0  0  0  0  0  0  0  0  0  0
   35.1830   28.6910   48.9160 C   0  0  0  0  0  0  0  0  0  0  0  0
   34.2750   28.3890   47.7980 C   0  0  0  0  0  0  0  0  0  0  0  0
   33.7520   29.4620   47.0940 C   0  0  0  0  0  0  0  0  0  0  0  0
   32.8750   29.2530   46.0100 C   0  0  0  0  0  0  0  0  0  0  0  0
   32.5850   27.9500   45.7100 N   0  0  0  0  0  0  0  0  0  0  0  0
   33.1010   26.9290   46.4020 C   0  0  0  0  0  0  0  0  0  0  0  0
   33.9250   27.1550   47.4190 N   0  0  0  0  0  0  0  0  0  0  0  0
   34.6757   31.6903   49.0958 H   0  0  0  0  0  0  0  0  0  0  0  0
   34.6452   30.4578   50.4318 H   0  0  0  0  0  0  0  0  0  0  0  0
   36.8734   32.3518   49.6887 H   0  0  0  0  0  0  0  0  0  0  0  0
   35.9226   32.3016   51.1997 H   0  0  0  0  0  0  0  0  0  0  0  0
   37.9986   31.1259   51.6730 H   0  0  0  0  0  0  0  0  0  0  0  0
   36.7887   29.8551   51.4958 H   0  0  0  0  0  0  0  0  0  0  0  0
   38.8699   30.8448   49.5274 H   0  0  0  0  0  0  0  0  0  0  0  0
   38.4575   29.1496   50.0210 H   0  0  0  0  0  0  0  0  0  0  0  0
   37.3621   28.9418   48.3543 H   0  0  0  0  0  0  0  0  0  0  0  0
   36.2898   29.8273   46.0054 H   0  0  0  0  0  0  0  0  0  0  0  0
   39.1127   31.9230   48.4000 H   0  0  0  0  0  0  0  0  0  0  0  0
   40.6087   33.7735   46.9318 H   0  0  0  0  0  0  0  0  0  0  0  0
   38.8890   33.1216   43.1496 H   0  0  0  0  0  0  0  0  0  0  0  0
   37.0224   31.0684   44.0232 H   0  0  0  0  0  0  0  0  0  0  0  0
   35.9821   27.9354   48.9384 H   0  0  0  0  0  0  0  0  0  0  0  0
   34.5942   28.6758   49.8450 H   0  0  0  0  0  0  0  0  0  0  0  0
   34.0240   30.4876   47.3840 H   0  0  0  0  0  0  0  0  0  0  0  0
   32.4482   30.0900   45.4380 H   0  0  0  0  0  0  0  0  0  0  0  0
   32.8416   25.8958   46.1275 H   0  0  0  0  0  0  0  0  0  0  0  0
  1 16  1  0
  1  2  1  0
  2  3  1  0
  3  4  1  0
  5  4  1  0
  6  1  1  0
  6  5  1  0
  7  8  2  0
  8  9  1  0
  8  6  1  0
 10  9  2  0
 11 10  1  0
 12 11  1  0
 13 12  2  0
 13 14  1  0
 14 10  1  0
 15 14  2  0
 15  7  1  0
 17 16  1  0
 18 17  2  0
 19 18  1  0
 20 19  2  0
 20 21  1  0
 21 22  2  0
 22 17  1  0
  2 23  1  0
  2 24  1  0
  3 25  1  0
  3 26  1  0
  4 27  1  0
  4 28  1  0
  5 29  1  0
  5 30  1  0
  6 31  1  6
  7 32  1  0
  9 33  1  0
 11 34  1  0
 13 35  1  0
 15 36  1  0
 16 37  1  0
 16 38  1  0
 18 39  1  0
 19 40  1  0
 21 41  1  0
M  ISO  8  23  13  24  13  25  13  26  13  27  13  28  13  29  13  30  13
M  ISO  8  31  13  32  14  33  14  34   9  35  14  36  14  37   8  38   8
M  ISO  3  39  14  40  14  41  14
M  END
>  <minimizedAffinity>  (1) 
-6.27473783

>  <minimizedRMSD>  (1) 
1.06519735

$$$$
