
     RDKit          3D

 53 57  0  0  1  0  0  0  0  0999 V2000
   36.6190   30.6260   49.3110 C   0  0  0  0  0  0  0  0  0  0  0  0
   35.4590   29.9530   49.6770 C   0  0  0  0  0  0  0  0  0  0  0  0
   35.3430   29.3650   50.9230 C   0  0  0  0  0  0  0  0  0  0  0  0
   36.3990   29.4650   51.7750 N   0  0  0  0  0  0  0  0  0  0  0  0
   37.5330   30.1320   51.3920 C   0  0  0  0  0  0  0  0  0  0  0  0
   37.6140   30.6840   50.1960 N   0  0  0  0  0  0  0  0  0  0  0  0
   33.8950   28.4910   48.4640 C   0  0  0  0  0  0  0  0  0  0  0  0
   34.4560   27.3320   48.5550 O   0  0  0  0  0  0  0  0  0  0  0  0
   34.3120   29.7710   48.8980 N   0  0  0  0  0  0  0  0  0  0  0  0
   29.2400   27.0060   46.3220 C   0  0  0  0  0  0  0  0  0  0  0  0
   30.4460   26.7700   45.8420 C   0  0  0  0  0  0  0  0  0  0  0  0
   31.5930   27.2870   46.4570 N   0  0  0  0  0  0  0  0  0  0  0  0
   32.8660   27.9630   46.3700 C   0  0  0  0  0  0  0  0  0  0  0  0
   33.7180   28.0240   45.4460 O   0  0  0  0  0  0  0  0  0  0  0  0
   32.5730   28.4320   47.7760 C   0  0  1  0  0  0  0  0  0  0  0  0
   31.7680   27.1900   47.9180 C   0  0  1  0  0  0  0  0  0  0  0  0
   30.2110   27.4920   48.7720 S   0  0  0  0  0  0  0  0  0  0  0  0
   28.9600   27.8290   47.5200 C   0  0  0  0  0  0  0  0  0  0  0  0
   28.1220   26.4030   45.5860 C   0  0  0  0  0  0  0  0  0  0  0  0
   30.5720   25.9490   44.6460 C   0  0  0  0  0  0  0  0  0  0  0  0
   31.5020   25.1520   44.3820 O   0  0  0  0  0  0  0  0  0  0  0  0
   30.4160   25.3120   43.4320 O   0  0  0  0  0  0  0  0  0  0  0  0
   36.5430   31.1330   48.0590 O   0  0  0  0  0  0  0  0  0  0  0  0
   37.9190   31.5330   46.0400 C   0  0  0  0  0  0  0  0  0  0  0  0
   37.6090   31.7000   47.3730 C   0  0  0  0  0  0  0  0  0  0  0  0
   38.3980   32.5050   48.1790 C   0  0  0  0  0  0  0  0  0  0  0  0
   39.5090   33.1430   47.6250 C   0  0  0  0  0  0  0  0  0  0  0  0
   39.8100   32.9690   46.2910 C   0  0  0  0  0  0  0  0  0  0  0  0
   39.0010   32.1640   45.5290 C   0  0  0  0  0  0  0  0  0  0  0  0
   39.3360   31.9840   44.0950 C   0  0  0  0  0  0  0  0  0  0  0  0
   40.1780   31.0870   43.5010 C   0  0  0  0  0  0  0  0  0  0  0  0
   40.1500   31.3220   42.1280 C   0  0  0  0  0  0  0  0  0  0  0  0
   39.2730   32.3710   41.9750 C   0  0  0  0  0  0  0  0  0  0  0  0
   38.7990   32.7520   43.1520 O   0  0  0  0  0  0  0  0  0  0  0  0
   36.3490   30.0220   44.6650 N   0  0  0  0  0  0  0  0  0  0  0  0
   37.0510   30.6880   45.2850 C   0  0  0  0  0  0  0  0  0  0  0  0
   34.4259   28.8331   51.2162 H   0  0  0  0  0  0  0  0  0  0  0  0
   38.3824   30.2079   52.0868 H   0  0  0  0  0  0  0  0  0  0  0  0
   33.7535   30.5946   48.6320 H   0  0  0  0  0  0  0  0  0  0  0  0
   32.1120   29.3782   48.0958 H   0  0  0  0  0  0  0  0  0  0  0  0
   32.1393   26.2915   48.4326 H   0  0  0  0  0  0  0  0  0  0  0  0
   28.9874   28.8948   47.2494 H   0  0  0  0  0  0  0  0  0  0  0  0
   27.9638   27.5813   47.9153 H   0  0  0  0  0  0  0  0  0  0  0  0
   27.3852   26.0056   46.2995 H   0  0  0  0  0  0  0  0  0  0  0  0
   27.6452   27.1663   44.9535 H   0  0  0  0  0  0  0  0  0  0  0  0
   28.4979   25.5853   44.9535 H   0  0  0  0  0  0  0  0  0  0  0  0
   31.0922   24.6567   43.1263 H   0  0  0  0  0  0  0  0  0  0  0  0
   38.1517   32.6396   49.2426 H   0  0  0  0  0  0  0  0  0  0  0  0
   40.1445   33.7847   48.2530 H   0  0  0  0  0  0  0  0  0  0  0  0
   40.6836   33.4669   45.8450 H   0  0  0  0  0  0  0  0  0  0  0  0
   40.7719   30.3168   44.0149 H   0  0  0  0  0  0  0  0  0  0  0  0
   40.7048   30.7883   41.3423 H   0  0  0  0  0  0  0  0  0  0  0  0
   39.0035   32.8286   41.0117 H   0  0  0  0  0  0  0  0  0  0  0  0
  1  2  1  0
  1  6  2  0
  2  3  2  0
  3  4  1  0
  5  4  2  0
  6  5  1  0
  7  8  2  0
  7  9  1  0
  9  2  1  0
 10 18  1  0
 11 10  2  0
 11 12  1  0
 12 16  1  0
 13 12  1  0
 13 15  1  0
 14 13  2  0
 15 16  1  0
 15  7  1  0
 16 17  1  0
 18 17  1  0
 19 10  1  0
 20 11  1  0
 21 20  2  0
 22 20  1  0
 23  1  1  0
 24 25  2  0
 25 23  1  0
 25 26  1  0
 27 26  2  0
 28 27  1  0
 29 24  1  0
 29 28  2  0
 30 29  1  0
 31 30  2  0
 32 31  1  0
 33 32  2  0
 33 34  1  0
 34 30  1  0
 35 36  3  0
 36 24  1  0
  3 37  1  0
  5 38  1  0
  9 39  1  0
 15 40  1  6
 16 41  1  6
 18 42  1  0
 18 43  1  0
 19 44  1  0
 19 45  1  0
 19 46  1  0
 22 47  1  0
 26 48  1  0
 27 49  1  0
 28 50  1  0
 31 51  1  0
 32 52  1  0
 33 53  1  0
M  ISO  8  37  14  38  14  40  13  41  13  42  13  43  13  44   8  45   8
M  ISO  8  46   8  47   3  48  14  49  14  50  14  51  14  52  14  53  14
M  END
>  <minimizedAffinity>  (1) 
-6.46377039

>  <minimizedRMSD>  (1) 
1.84846652

$$$$
