
     RDKit          3D

 46 49  0  0  1  0  0  0  0  0999 V2000
   35.7700   29.6250   48.7080 N   0  0  0  0  0  0  0  0  0  0  0  0
   36.6490   28.8800   49.5700 C   0  0  0  0  0  0  0  0  0  0  0  0
   37.2390   29.5700   50.7230 C   0  0  0  0  0  0  0  0  0  0  0  0
   37.4050   31.0400   50.6510 C   0  0  0  0  0  0  0  0  0  0  0  0
   36.5040   31.7250   49.6490 C   0  0  0  0  0  0  0  0  0  0  0  0
   36.4230   30.8630   48.3830 C   0  0  1  0  0  0  0  0  0  0  0  0
   34.4850   29.1980   48.2640 C   0  0  0  0  0  0  0  0  0  0  0  0
   33.8620   29.6550   47.0990 C   0  0  0  0  0  0  0  0  0  0  0  0
   32.6100   29.1570   46.7860 C   0  0  0  0  0  0  0  0  0  0  0  0
   32.0510   28.2450   47.6310 N   0  0  0  0  0  0  0  0  0  0  0  0
   32.6830   27.8350   48.7370 C   0  0  0  0  0  0  0  0  0  0  0  0
   33.9070   28.3080   49.0630 N   0  0  0  0  0  0  0  0  0  0  0  0
   37.7550   30.6810   48.0040 O   0  0  0  0  0  0  0  0  0  0  0  0
   38.1570   31.6400   47.0770 C   0  0  0  0  0  0  0  0  0  0  0  0
   38.1520   31.0180   45.7370 C   0  0  0  0  0  0  0  0  0  0  0  0
   39.2430   30.9210   44.9900 C   0  0  0  0  0  0  0  0  0  0  0  0
   39.1140   30.3020   43.7160 N   0  0  0  0  0  0  0  0  0  0  0  0
   39.5650   29.3400   42.7380 C   0  0  0  0  0  0  0  0  0  0  0  0
   40.7320   28.9280   42.4500 O   0  0  0  0  0  0  0  0  0  0  0  0
   38.1290   29.1860   42.3800 C   0  0  0  0  0  0  0  0  0  0  0  0
   38.0860   30.6540   42.7420 C   0  0  1  0  0  0  0  0  0  0  0  0
   36.5140   31.0030   43.6220 S   0  0  0  0  0  0  0  0  0  0  0  0
   36.8230   30.5060   45.3410 C   0  0  0  0  0  0  0  0  0  0  0  0
   40.5780   31.4120   45.3940 C   0  0  0  0  0  0  0  0  0  0  0  0
   41.2540   32.4640   45.4300 O   0  0  0  0  0  0  0  0  0  0  0  0
   41.5930   30.6700   45.9360 O   0  0  0  0  0  0  0  0  0  0  0  0
   36.0765   28.0253   49.9595 H   0  0  0  0  0  0  0  0  0  0  0  0
   37.5097   28.6311   48.9319 H   0  0  0  0  0  0  0  0  0  0  0  0
   36.6000   29.3564   51.5925 H   0  0  0  0  0  0  0  0  0  0  0  0
   38.2672   29.1825   50.7747 H   0  0  0  0  0  0  0  0  0  0  0  0
   37.1931   31.4587   51.6459 H   0  0  0  0  0  0  0  0  0  0  0  0
   38.4376   31.2220   50.3183 H   0  0  0  0  0  0  0  0  0  0  0  0
   35.4985   31.8456   50.0785 H   0  0  0  0  0  0  0  0  0  0  0  0
   36.9100   32.7164   49.3995 H   0  0  0  0  0  0  0  0  0  0  0  0
   35.8436   31.3142   47.5640 H   0  0  0  0  0  0  0  0  0  0  0  0
   34.3548   30.3919   46.4478 H   0  0  0  0  0  0  0  0  0  0  0  0
   32.0802   29.4877   45.8805 H   0  0  0  0  0  0  0  0  0  0  0  0
   32.1971   27.0986   49.3939 H   0  0  0  0  0  0  0  0  0  0  0  0
   37.4598   32.4906   47.0952 H   0  0  0  0  0  0  0  0  0  0  0  0
   39.1650   32.0060   47.3220 H   0  0  0  0  0  0  0  0  0  0  0  0
   37.9225   28.9478   41.3261 H   0  0  0  0  0  0  0  0  0  0  0  0
   37.4618   28.4221   42.8059 H   0  0  0  0  0  0  0  0  0  0  0  0
   38.1852   31.4729   42.0143 H   0  0  0  0  0  0  0  0  0  0  0  0
   36.0492   30.9317   45.9967 H   0  0  0  0  0  0  0  0  0  0  0  0
   36.7953   29.4100   45.4309 H   0  0  0  0  0  0  0  0  0  0  0  0
   42.4517   31.1030   46.1712 H   0  0  0  0  0  0  0  0  0  0  0  0
  1  2  1  0
  2  3  1  0
  4  3  1  0
  5  4  1  0
  6  1  1  0
  6  5  1  0
  7  1  1  0
  7 12  1  0
  8  7  2  0
  9  8  1  0
  9 10  2  0
 10 11  1  0
 11 12  2  0
 13  6  1  0
 14 13  1  0
 15 14  1  0
 16 24  1  0
 16 15  2  0
 17 16  1  0
 18 17  1  0
 19 18  2  0
 20 18  1  0
 21 20  1  0
 21 22  1  0
 21 17  1  0
 22 23  1  0
 23 15  1  0
 24 25  2  0
 24 26  1  0
  2 27  1  0
  2 28  1  0
  3 29  1  0
  3 30  1  0
  4 31  1  0
  4 32  1  0
  5 33  1  0
  5 34  1  0
  6 35  1  6
  8 36  1  0
  9 37  1  0
 11 38  1  0
 14 39  1  0
 14 40  1  0
 20 41  1  0
 20 42  1  0
 21 43  1  6
 23 44  1  0
 23 45  1  0
 26 46  1  0
M  ISO  8  27  13  28  13  29  13  30  13  31  13  32  13  33  13  34  13
M  ISO  8  35  13  36  14  37  14  38  14  39   8  40   8  41  13  42  13
M  ISO  4  43  13  44  13  45  13  46   3
M  END
>  <minimizedAffinity>  (1) 
-6.32893181

>  <minimizedRMSD>  (1) 
1.96034801

$$$$
