
     RDKit          3D

 49 52  0  0  1  0  0  0  0  0999 V2000
   37.1270   30.9730   49.0200 C   0  0  0  0  0  0  0  0  0  0  0  0
   36.8990   31.9570   49.9800 C   0  0  0  0  0  0  0  0  0  0  0  0
   37.5260   33.1990   49.9530 C   0  0  0  0  0  0  0  0  0  0  0  0
   38.4290   33.4820   48.9190 C   0  0  0  0  0  0  0  0  0  0  0  0
   38.6430   32.5070   47.9850 C   0  0  0  0  0  0  0  0  0  0  0  0
   38.0020   31.2870   48.0450 C   0  0  0  0  0  0  0  0  0  0  0  0
   36.4260   29.7180   49.1370 C   0  0  0  0  0  0  0  0  0  0  0  0
   36.9500   28.8930   49.9670 O   0  0  0  0  0  0  0  0  0  0  0  0
   33.6020   30.1550   46.9050 C   0  0  0  0  0  0  0  0  0  0  0  0
   32.9540   28.9300   46.9190 C   0  0  0  0  0  0  0  0  0  0  0  0
   33.4880   27.9380   47.7020 C   0  0  0  0  0  0  0  0  0  0  0  0
   34.6140   28.1820   48.4260 N   0  0  0  0  0  0  0  0  0  0  0  0
   35.2120   29.3590   48.3940 C   0  0  0  0  0  0  0  0  0  0  0  0
   34.6970   30.3470   47.6270 N   0  0  0  0  0  0  0  0  0  0  0  0
   38.3520   30.3710   46.9750 C   0  0  0  0  0  0  0  0  0  0  0  0
   38.7140   30.6860   45.7400 C   0  0  0  0  0  0  0  0  0  0  0  0
   39.0940   29.8680   44.5890 C   0  0  0  0  0  0  0  0  0  0  0  0
   36.4160   33.5450   41.6960 C   0  0  0  0  0  0  0  0  0  0  0  0
   36.0240   32.5490   42.4710 C   0  0  0  0  0  0  0  0  0  0  0  0
   36.9920   31.5420   42.8380 N   0  0  0  0  0  0  0  0  0  0  0  0
   37.2240   30.1270   42.9980 C   0  0  0  0  0  0  0  0  0  0  0  0
   36.5330   29.0530   42.9510 O   0  0  0  0  0  0  0  0  0  0  0  0
   38.6500   30.4190   43.2510 C   0  0  1  0  0  0  0  0  0  0  0  0
   38.3630   31.8890   43.2480 C   0  0  1  0  0  0  0  0  0  0  0  0
   39.0660   32.8380   41.9080 S   0  0  0  0  0  0  0  0  0  0  0  0
   37.7530   33.7880   41.1090 C   0  0  0  0  0  0  0  0  0  0  0  0
   35.4230   34.5600   41.3420 C   0  0  0  0  0  0  0  0  0  0  0  0
   34.6610   32.4190   42.9810 C   0  0  0  0  0  0  0  0  0  0  0  0
   33.7340   33.2370   42.8590 O   0  0  0  0  0  0  0  0  0  0  0  0
   34.2040   31.3450   43.6860 O   0  0  0  0  0  0  0  0  0  0  0  0
   36.1922   31.7425   50.7951 H   0  0  0  0  0  0  0  0  0  0  0  0
   37.3161   33.9474   50.7314 H   0  0  0  0  0  0  0  0  0  0  0  0
   38.9456   34.4514   48.8613 H   0  0  0  0  0  0  0  0  0  0  0  0
   39.3466   32.7009   47.1619 H   0  0  0  0  0  0  0  0  0  0  0  0
   33.2042   30.9752   46.2893 H   0  0  0  0  0  0  0  0  0  0  0  0
   32.0447   28.7593   46.3240 H   0  0  0  0  0  0  0  0  0  0  0  0
   33.0078   26.9493   47.7443 H   0  0  0  0  0  0  0  0  0  0  0  0
   38.3124   29.2984   47.2156 H   0  0  0  0  0  0  0  0  0  0  0  0
   38.7321   31.7681   45.5432 H   0  0  0  0  0  0  0  0  0  0  0  0
   40.1904   29.7803   44.5773 H   0  0  0  0  0  0  0  0  0  0  0  0
   38.5854   28.9005   44.7123 H   0  0  0  0  0  0  0  0  0  0  0  0
   39.4451   30.0324   42.5965 H   0  0  0  0  0  0  0  0  0  0  0  0
   38.6597   32.4774   44.1288 H   0  0  0  0  0  0  0  0  0  0  0  0
   37.7221   33.5141   40.0441 H   0  0  0  0  0  0  0  0  0  0  0  0
   37.9852   34.8531   41.2558 H   0  0  0  0  0  0  0  0  0  0  0  0
   34.9988   34.9936   42.2596 H   0  0  0  0  0  0  0  0  0  0  0  0
   35.9039   35.3527   40.7502 H   0  0  0  0  0  0  0  0  0  0  0  0
   34.6199   34.0966   40.7502 H   0  0  0  0  0  0  0  0  0  0  0  0
   33.2660   31.3231   44.0020 H   0  0  0  0  0  0  0  0  0  0  0  0
  1  7  1  0
  1  2  2  0
  3  2  1  0
  4  3  2  0
  5  6  2  0
  5  4  1  0
  6  1  1  0
  7  8  2  0
  9 10  2  0
  9 14  1  0
 10 11  1  0
 11 12  2  0
 13 12  1  0
 13  7  1  0
 14 13  2  0
 15  6  1  0
 16 15  2  0
 17 16  1  0
 18 19  2  0
 19 20  1  0
 19 28  1  0
 20 21  1  0
 20 24  1  0
 21 23  1  0
 22 21  2  0
 23 17  1  0
 24 25  1  0
 24 23  1  0
 26 18  1  0
 26 25  1  0
 27 18  1  0
 28 30  1  0
 29 28  2  0
  2 31  1  0
  3 32  1  0
  4 33  1  0
  5 34  1  0
  9 35  1  0
 10 36  1  0
 11 37  1  0
 15 38  1  0
 16 39  1  0
 17 40  1  0
 17 41  1  0
 23 42  1  6
 24 43  1  1
 26 44  1  0
 26 45  1  0
 27 46  1  0
 27 47  1  0
 27 48  1  0
 30 49  1  0
M  ISO  8  31  14  32  14  33  14  34  14  35  14  36  14  37  14  40   8
M  ISO  8  41   8  42  13  43  13  44  13  45  13  46   8  47   8  48   8
M  ISO  1  49   3
M  END
>  <minimizedAffinity>  (1) 
-6.44725943

>  <minimizedRMSD>  (1) 
0.986454487

$$$$
