
     RDKit          3D

 48 53  0  0  1  0  0  0  0  0999 V2000
   34.0870   25.6940   47.3460 C   0  0  1  0  0  0  0  0  0  0  0  0
   32.7480   24.8560   47.3000 C   0  0  0  0  0  0  0  0  0  0  0  0
   33.7360   24.8580   46.1950 C   0  0  2  0  0  0  0  0  0  0  0  0
   33.7570   27.1600   47.3230 C   0  0  0  0  0  0  0  0  0  0  0  0
   33.0890   27.6760   46.3680 O   0  0  0  0  0  0  0  0  0  0  0  0
   35.5230   29.2060   49.6670 C   0  0  0  0  0  0  0  0  0  0  0  0
   34.2500   29.3300   50.1950 C   0  0  0  0  0  0  0  0  0  0  0  0
   33.3860   28.5750   49.3860 C   0  0  0  0  0  0  0  0  0  0  0  0
   34.1950   28.0350   48.4090 C   0  0  0  0  0  0  0  0  0  0  0  0
   35.4320   28.4340   48.6170 O   0  0  0  0  0  0  0  0  0  0  0  0
   36.6680   29.8640   50.2640 C   0  0  0  0  0  0  0  0  0  0  0  0
   36.9930   29.5820   51.4270 O   0  0  0  0  0  0  0  0  0  0  0  0
   37.3690   30.8200   49.4520 C   0  0  0  0  0  0  0  0  0  0  0  0
   37.4060   32.1270   49.9060 C   0  0  0  0  0  0  0  0  0  0  0  0
   38.0770   33.0810   49.1360 C   0  0  0  0  0  0  0  0  0  0  0  0
   38.6680   32.6710   47.9620 N   0  0  0  0  0  0  0  0  0  0  0  0
   38.6100   31.3970   47.5570 C   0  0  0  0  0  0  0  0  0  0  0  0
   37.9700   30.4760   48.2870 N   0  0  0  0  0  0  0  0  0  0  0  0
   34.3970   23.5420   45.9180 C   0  0  0  0  0  0  0  0  0  0  0  0
   35.7920   23.6550   45.4820 C   0  0  0  0  0  0  0  0  0  0  0  0
   36.8410   23.0710   46.0410 C   0  0  0  0  0  0  0  0  0  0  0  0
   38.1510   23.2700   45.5270 N   0  0  0  0  0  0  0  0  0  0  0  0
   39.5270   22.9310   45.6160 C   0  0  1  0  0  0  0  0  0  0  0  0
   40.3470   22.6000   46.5240 O   0  0  0  0  0  0  0  0  0  0  0  0
   39.6410   23.1220   44.1520 C   0  0  0  0  0  0  0  0  0  0  0  0
   38.5580   24.1350   44.4570 C   0  0  2  0  0  0  0  0  0  0  0  0
   37.2640   24.2560   43.2280 S   0  0  0  0  0  0  0  0  0  0  0  0
   35.8450   24.5440   44.3140 C   0  0  0  0  0  0  0  0  0  0  0  0
   36.7160   22.1920   47.2270 C   0  0  0  0  0  0  0  0  0  0  0  0
   35.8960   21.3370   47.5610 O   0  0  0  0  0  0  0  0  0  0  0  0
   37.6200   22.2080   48.2600 O   0  0  0  0  0  0  0  0  0  0  0  0
   35.0125   25.7828   47.9339 H   0  0  0  0  0  0  0  0  0  0  0  0
   32.6240   23.9671   47.9360 H   0  0  0  0  0  0  0  0  0  0  0  0
   31.6738   25.0680   47.4060 H   0  0  0  0  0  0  0  0  0  0  0  0
   33.7248   25.1041   45.1229 H   0  0  0  0  0  0  0  0  0  0  0  0
   33.9672   29.9125   51.0843 H   0  0  0  0  0  0  0  0  0  0  0  0
   32.3005   28.4431   49.5056 H   0  0  0  0  0  0  0  0  0  0  0  0
   36.9185   32.4084   50.8511 H   0  0  0  0  0  0  0  0  0  0  0  0
   38.1315   34.1310   49.4592 H   0  0  0  0  0  0  0  0  0  0  0  0
   39.0937   31.1035   46.6137 H   0  0  0  0  0  0  0  0  0  0  0  0
   34.3701   22.9409   46.8389 H   0  0  0  0  0  0  0  0  0  0  0  0
   33.8421   23.0752   45.0908 H   0  0  0  0  0  0  0  0  0  0  0  0
   39.9404   22.7641   47.4116 H   0  0  0  0  0  0  0  0  0  0  0  0
   39.3439   22.2673   43.5265 H   0  0  0  0  0  0  0  0  0  0  0  0
   40.5734   23.3298   43.6066 H   0  0  0  0  0  0  0  0  0  0  0  0
   35.8901   25.5829   44.6727 H   0  0  0  0  0  0  0  0  0  0  0  0
   34.9435   24.3382   43.7183 H   0  0  0  0  0  0  0  0  0  0  0  0
   37.4979   21.6030   49.0341 H   0  0  0  0  0  0  0  0  0  0  0  0
  2  1  1  0
  3  2  1  0
  3  1  1  0
  4  1  1  0
  4  9  1  0
  5  4  2  0
  6  7  2  0
  6 11  1  0
  8  7  1  0
  9 10  1  0
  9  8  2  0
 10  6  1  0
 11 12  2  0
 13 14  2  0
 13 11  1  0
 15 14  1  0
 16 15  2  0
 17 16  1  0
 17 18  2  0
 18 13  1  0
 19  3  1  0
 20 19  1  0
 20 21  2  0
 21 29  1  0
 22 23  1  0
 22 21  1  0
 23 24  1  1
 25 26  1  0
 25 23  1  0
 26 27  1  1
 26 22  1  0
 26 23  1  0
 27 28  1  0
 28 20  1  0
 29 30  2  0
 29 31  1  0
  1 32  1  1
  2 33  1  0
  2 34  1  0
  3 35  1  6
  7 36  1  0
  8 37  1  0
 14 38  1  0
 15 39  1  0
 17 40  1  0
 19 41  1  0
 19 42  1  0
 24 43  1  0
 25 44  1  0
 25 45  1  0
 28 46  1  0
 28 47  1  0
 31 48  1  0
M  ISO  8  32  13  33  13  34  13  35  13  36  14  37  14  38  14  39  14
M  ISO  8  40  14  41   8  42   8  43   3  44  13  45  13  46  13  47  13
M  ISO  1  48   3
M  END
>  <minimizedAffinity>  (1) 
-5.52152252

>  <minimizedRMSD>  (1) 
3.52124858

$$$$
