
     RDKit          3D

 46 49  0  0  1  0  0  0  0  0999 V2000
   35.1800   29.4970   47.8470 C   0  0  0  0  0  0  0  0  0  0  0  0
   35.1440   29.9900   46.5300 C   0  0  0  0  0  0  0  0  0  0  0  0
   34.0090   29.6910   45.7710 C   0  0  0  0  0  0  0  0  0  0  0  0
   33.0280   28.9460   46.3650 N   0  0  0  0  0  0  0  0  0  0  0  0
   33.0980   28.4950   47.6170 C   0  0  0  0  0  0  0  0  0  0  0  0
   34.1830   28.7710   48.3720 N   0  0  0  0  0  0  0  0  0  0  0  0
   36.3510   29.8120   48.6110 N   0  0  0  0  0  0  0  0  0  0  0  0
   37.4860   30.5740   48.2040 C   0  0  0  0  0  0  0  0  0  0  0  0
   37.9980   31.1670   49.5050 C   0  0  2  0  0  0  0  0  0  0  0  0
   36.9910   30.7490   50.5700 C   0  0  0  0  0  0  0  0  0  0  0  0
   36.6060   29.4020   49.9800 C   0  0  0  0  0  0  0  0  0  0  0  0
   38.1890   32.6410   49.4420 C   0  0  0  0  0  0  0  0  0  0  0  0
   37.0280   33.2180   49.9560 F   0  0  0  0  0  0  0  0  0  0  0  0
   38.2070   33.0010   48.1060 F   0  0  0  0  0  0  0  0  0  0  0  0
   39.3140   33.0860   50.0640 F   0  0  0  0  0  0  0  0  0  0  0  0
   31.7960   27.5270   48.3500 S   0  0  0  0  0  0  0  0  0  0  0  0
   30.2340   28.0420   47.5480 C   0  0  0  0  0  0  0  0  0  0  0  0
   29.1170   28.0340   48.4830 C   0  0  0  0  0  0  0  0  0  0  0  0
   27.8070   27.8930   48.3820 C   0  0  0  0  0  0  0  0  0  0  0  0
   26.9010   27.9030   49.4590 N   0  0  0  0  0  0  0  0  0  0  0  0
   25.7210   28.4250   50.0590 C   0  0  0  0  0  0  0  0  0  0  0  0
   24.6610   28.9260   49.5600 O   0  0  0  0  0  0  0  0  0  0  0  0
   26.3640   28.0890   51.3800 C   0  0  0  0  0  0  0  0  0  0  0  0
   27.1080   27.0120   50.6180 C   0  0  2  0  0  0  0  0  0  0  0  0
   28.8980   26.9450   50.9320 S   0  0  0  0  0  0  0  0  0  0  0  0
   29.6070   28.2570   49.8540 C   0  0  0  0  0  0  0  0  0  0  0  0
   27.2810   27.6940   47.0130 C   0  0  0  0  0  0  0  0  0  0  0  0
   27.5980   27.0130   46.0320 O   0  0  0  0  0  0  0  0  0  0  0  0
   26.3620   27.9800   46.0500 O   0  0  0  0  0  0  0  0  0  0  0  0
   35.9720   30.5842   46.1160 H   0  0  0  0  0  0  0  0  0  0  0  0
   33.9085   30.0422   44.7334 H   0  0  0  0  0  0  0  0  0  0  0  0
   38.2466   29.9294   47.7392 H   0  0  0  0  0  0  0  0  0  0  0  0
   37.2423   31.3379   47.4509 H   0  0  0  0  0  0  0  0  0  0  0  0
   39.0048   30.7894   49.7369 H   0  0  0  0  0  0  0  0  0  0  0  0
   37.4519   30.6521   51.5641 H   0  0  0  0  0  0  0  0  0  0  0  0
   36.1634   31.4500   50.7535 H   0  0  0  0  0  0  0  0  0  0  0  0
   35.7078   28.9846   50.4587 H   0  0  0  0  0  0  0  0  0  0  0  0
   37.3533   28.6039   50.1011 H   0  0  0  0  0  0  0  0  0  0  0  0
   30.3572   29.0598   47.1494 H   0  0  0  0  0  0  0  0  0  0  0  0
   30.0110   27.3262   46.7431 H   0  0  0  0  0  0  0  0  0  0  0  0
   26.9983   28.8816   51.8036 H   0  0  0  0  0  0  0  0  0  0  0  0
   25.7791   27.8770   52.2872 H   0  0  0  0  0  0  0  0  0  0  0  0
   26.8161   25.9553   50.7083 H   0  0  0  0  0  0  0  0  0  0  0  0
   30.7054   28.2013   49.8715 H   0  0  0  0  0  0  0  0  0  0  0  0
   29.3020   29.2515   50.2117 H   0  0  0  0  0  0  0  0  0  0  0  0
   26.4205   27.5418   45.1642 H   0  0  0  0  0  0  0  0  0  0  0  0
  1  6  1  0
  1  7  1  0
  2  1  2  0
  3  4  2  0
  3  2  1  0
  4  5  1  0
  5 16  1  0
  5  6  2  0
  7 11  1  0
  8  7  1  0
  8  9  1  0
  9 10  1  0
 11 10  1  0
 12  9  1  0
 12 13  1  0
 12 15  1  0
 14 12  1  0
 17 16  1  0
 17 18  1  0
 18 26  1  0
 19 18  2  0
 19 20  1  0
 20 21  1  0
 20 24  1  0
 21 23  1  0
 22 21  2  0
 24 25  1  0
 24 23  1  0
 26 25  1  0
 27 19  1  0
 28 27  2  0
 29 27  1  0
  2 30  1  0
  3 31  1  0
  8 32  1  0
  8 33  1  0
  9 34  1  1
 10 35  1  0
 10 36  1  0
 11 37  1  0
 11 38  1  0
 17 39  1  0
 17 40  1  0
 23 41  1  0
 23 42  1  0
 24 43  1  6
 26 44  1  0
 26 45  1  0
 29 46  1  0
M  ISO  8  30  14  31  14  32  13  33  13  34  13  35  13  36  13  37  13
M  ISO  8  38  13  39   8  40   8  41  13  42  13  43  13  44  13  45  13
M  ISO  1  46   3
M  END
>  <minimizedAffinity>  (1) 
-7.43020773

>  <minimizedRMSD>  (1) 
1.56377947

$$$$
