
     RDKit          3D

 35 37  0  0  0  0  0  0  0  0999 V2000
   37.5320   30.7660   45.7840 C   0  0  0  0  0  0  0  0  0  0  0  0
   38.8880   30.6110   45.8650 C   0  0  0  0  0  0  0  0  0  0  0  0
   39.3640   30.8570   44.5790 C   0  0  0  0  0  0  0  0  0  0  0  0
   38.3300   31.1450   43.7780 N   0  0  0  0  0  0  0  0  0  0  0  0
   37.2260   31.0890   44.5150 N   0  0  0  0  0  0  0  0  0  0  0  0
   38.4800   31.4480   42.3890 C   0  0  0  0  0  0  0  0  0  0  0  0
   37.9100   32.7910   42.0760 C   0  0  0  0  0  0  0  0  0  0  0  0
   38.6930   33.4190   40.9410 C   0  0  0  0  0  0  0  0  0  0  0  0
   39.0720   32.5140   39.9630 O   0  0  0  0  0  0  0  0  0  0  0  0
   39.8890   31.4940   40.4190 C   0  0  0  0  0  0  0  0  0  0  0  0
   39.9180   31.4080   41.9260 C   0  0  0  0  0  0  0  0  0  0  0  0
   36.1000   30.5740   49.2310 C   0  0  0  0  0  0  0  0  0  0  0  0
   37.0050   30.7290   48.1970 C   0  0  0  0  0  0  0  0  0  0  0  0
   36.6050   30.6090   46.8780 C   0  0  0  0  0  0  0  0  0  0  0  0
   35.3120   30.3390   46.6460 N   0  0  0  0  0  0  0  0  0  0  0  0
   34.4210   30.1860   47.6660 C   0  0  0  0  0  0  0  0  0  0  0  0
   34.8040   30.3010   48.9410 N   0  0  0  0  0  0  0  0  0  0  0  0
   36.6670   30.7260   50.4920 O   0  0  0  0  0  0  0  0  0  0  0  0
   36.8110   29.6720   51.4040 C   0  0  0  0  0  0  0  0  0  0  0  0
   35.6020   29.1350   51.7900 F   0  0  0  0  0  0  0  0  0  0  0  0
   37.4960   30.1380   52.5000 F   0  0  0  0  0  0  0  0  0  0  0  0
   37.5770   28.6850   50.8110 F   0  0  0  0  0  0  0  0  0  0  0  0
   39.4775   30.3481   46.7557 H   0  0  0  0  0  0  0  0  0  0  0  0
   40.4194   30.8206   44.2710 H   0  0  0  0  0  0  0  0  0  0  0  0
   37.9292   30.6637   41.8491 H   0  0  0  0  0  0  0  0  0  0  0  0
   36.8565   32.6822   41.7787 H   0  0  0  0  0  0  0  0  0  0  0  0
   37.9748   33.4338   42.9663 H   0  0  0  0  0  0  0  0  0  0  0  0
   38.0678   34.1944   40.4742 H   0  0  0  0  0  0  0  0  0  0  0  0
   39.6159   33.8316   41.3746 H   0  0  0  0  0  0  0  0  0  0  0  0
   39.5186   30.5390   40.0180 H   0  0  0  0  0  0  0  0  0  0  0  0
   40.9124   31.7062   40.0761 H   0  0  0  0  0  0  0  0  0  0  0  0
   40.3928   30.4679   42.2434 H   0  0  0  0  0  0  0  0  0  0  0  0
   40.4973   32.2367   42.3593 H   0  0  0  0  0  0  0  0  0  0  0  0
   38.0577   30.9508   48.4264 H   0  0  0  0  0  0  0  0  0  0  0  0
   33.3685   29.9640   47.4357 H   0  0  0  0  0  0  0  0  0  0  0  0
  1  2  1  0
  1 14  1  0
  3  2  2  0
  4  5  1  0
  4  3  1  0
  5  1  2  0
  6  4  1  0
  7  6  1  0
  8  7  1  0
  9 10  1  0
  9  8  1  0
 10 11  1  0
 11  6  1  0
 12 18  1  0
 13 12  2  0
 14 13  1  0
 15 14  2  0
 15 16  1  0
 16 17  2  0
 17 12  1  0
 18 19  1  0
 19 20  1  0
 19 21  1  0
 22 19  1  0
  2 23  1  0
  3 24  1  0
  6 25  1  0
  7 26  1  0
  7 27  1  0
  8 28  1  0
  8 29  1  0
 10 30  1  0
 10 31  1  0
 11 32  1  0
 11 33  1  0
 13 34  1  0
 16 35  1  0
M  ISO  8  23  14  24  14  25  13  26  13  27  13  28  13  29  13  30  13
M  ISO  5  31  13  32  13  33  13  34  14  35  14
M  END
>  <minimizedAffinity>  (1) 
-5.66940641

>  <minimizedRMSD>  (1) 
3.27520871

$$$$
