
     RDKit          3D

 38 40  0  0  0  0  0  0  0  0999 V2000
   38.4920   30.4540   47.2970 F   0  0  0  0  0  0  0  0  0  0  0  0
   38.7730   31.6800   47.7820 C   0  0  0  0  0  0  0  0  0  0  0  0
   38.2090   32.0910   48.9680 C   0  0  0  0  0  0  0  0  0  0  0  0
   38.5300   33.3500   49.4150 C   0  0  0  0  0  0  0  0  0  0  0  0
   39.3800   34.1860   48.7230 C   0  0  0  0  0  0  0  0  0  0  0  0
   39.9330   33.7590   47.5430 C   0  0  0  0  0  0  0  0  0  0  0  0
   39.6270   32.4950   47.0670 C   0  0  0  0  0  0  0  0  0  0  0  0
   36.8140   29.5790   51.4380 C   0  0  0  0  0  0  0  0  0  0  0  0
   37.6960   30.4630   50.8000 C   0  0  0  0  0  0  0  0  0  0  0  0
   37.3180   31.1630   49.6560 C   0  0  0  0  0  0  0  0  0  0  0  0
   36.0470   30.9410   49.1940 N   0  0  0  0  0  0  0  0  0  0  0  0
   35.2120   30.0830   49.8230 C   0  0  0  0  0  0  0  0  0  0  0  0
   35.5900   29.4210   50.9170 N   0  0  0  0  0  0  0  0  0  0  0  0
   39.3600   32.2310   44.6870 C   0  0  0  0  0  0  0  0  0  0  0  0
   38.2540   32.8140   44.9380 O   0  0  0  0  0  0  0  0  0  0  0  0
   40.1790   32.0000   45.8350 N   0  0  0  0  0  0  0  0  0  0  0  0
   39.9060   31.7630   43.3870 C   0  0  0  0  0  0  0  0  0  0  0  0
   38.9250   31.9010   42.2610 C   0  0  0  0  0  0  0  0  0  0  0  0
   39.7190   31.5830   40.9900 C   0  0  0  0  0  0  0  0  0  0  0  0
   40.0090   30.2210   41.0490 O   0  0  0  0  0  0  0  0  0  0  0  0
   40.8940   29.9650   42.0730 C   0  0  0  0  0  0  0  0  0  0  0  0
   40.2820   30.2810   43.4240 C   0  0  0  0  0  0  0  0  0  0  0  0
   38.0925   33.7040   50.3601 H   0  0  0  0  0  0  0  0  0  0  0  0
   39.6128   35.1874   49.1141 H   0  0  0  0  0  0  0  0  0  0  0  0
   40.6134   34.4145   46.9797 H   0  0  0  0  0  0  0  0  0  0  0  0
   37.1188   29.0304   52.3414 H   0  0  0  0  0  0  0  0  0  0  0  0
   38.7063   30.6067   51.2108 H   0  0  0  0  0  0  0  0  0  0  0  0
   34.1990   29.9279   49.4234 H   0  0  0  0  0  0  0  0  0  0  0  0
   41.0885   31.5192   45.7842 H   0  0  0  0  0  0  0  0  0  0  0  0
   40.7863   32.4007   43.2185 H   0  0  0  0  0  0  0  0  0  0  0  0
   38.0947   31.1900   42.3843 H   0  0  0  0  0  0  0  0  0  0  0  0
   38.4810   32.9068   42.2256 H   0  0  0  0  0  0  0  0  0  0  0  0
   40.6484   32.1708   40.9628 H   0  0  0  0  0  0  0  0  0  0  0  0
   39.1475   31.8344   40.0844 H   0  0  0  0  0  0  0  0  0  0  0  0
   41.1741   28.9016   42.0467 H   0  0  0  0  0  0  0  0  0  0  0  0
   41.7782   30.6046   41.9349 H   0  0  0  0  0  0  0  0  0  0  0  0
   41.0108   30.0926   44.2261 H   0  0  0  0  0  0  0  0  0  0  0  0
   39.4034   29.6498   43.6232 H   0  0  0  0  0  0  0  0  0  0  0  0
  1  2  1  0
  2  3  2  0
  3  4  1  0
  3 10  1  0
  5  4  2  0
  6  5  1  0
  7  6  2  0
  7  2  1  0
  9  8  2  0
 10  9  1  0
 11 10  2  0
 11 12  1  0
 12 13  2  0
 13  8  1  0
 14 15  2  0
 14 16  1  0
 16  7  1  0
 17 22  1  0
 17 14  1  0
 18 17  1  0
 19 20  1  0
 19 18  1  0
 20 21  1  0
 21 22  1  0
  4 23  1  0
  5 24  1  0
  6 25  1  0
  8 26  1  0
  9 27  1  0
 12 28  1  0
 16 29  1  0
 17 30  1  0
 18 31  1  0
 18 32  1  0
 19 33  1  0
 19 34  1  0
 21 35  1  0
 21 36  1  0
 22 37  1  0
 22 38  1  0
M  ISO  8  23  14  24  14  25  14  26  14  27  14  28  14  30  13  31  13
M  ISO  7  32  13  33  13  34  13  35  13  36  13  37  13  38  13
M  END
>  <minimizedAffinity>  (1) 
-6.6008935

>  <minimizedRMSD>  (1) 
0.288702756

$$$$
