
     RDKit          3D

 31 33  0  0  0  0  0  0  0  0999 V2000
   36.0890   30.0990   48.8470 C   0  0  0  0  0  0  0  0  0  0  0  0
   35.9750   29.1970   49.8800 C   0  0  0  0  0  0  0  0  0  0  0  0
   34.9270   28.3660   49.6490 C   0  0  0  0  0  0  0  0  0  0  0  0
   34.3850   28.7610   48.4500 N   0  0  0  0  0  0  0  0  0  0  0  0
   35.1010   29.7930   48.0040 N   0  0  0  0  0  0  0  0  0  0  0  0
   33.2620   28.2100   47.7600 C   0  0  0  0  0  0  0  0  0  0  0  0
   32.1120   27.8130   48.6460 C   0  0  0  0  0  0  0  0  0  0  0  0
   31.4940   26.5050   48.1970 C   0  0  0  0  0  0  0  0  0  0  0  0
   31.3360   26.4030   46.8320 O   0  0  0  0  0  0  0  0  0  0  0  0
   32.5010   26.5470   46.1060 C   0  0  0  0  0  0  0  0  0  0  0  0
   33.6690   26.9660   46.9950 C   0  0  0  0  0  0  0  0  0  0  0  0
   38.0360   33.1480   49.4250 C   0  0  0  0  0  0  0  0  0  0  0  0
   38.9860   33.0980   48.3690 C   0  0  0  0  0  0  0  0  0  0  0  0
   38.9380   32.0090   47.4740 C   0  0  0  0  0  0  0  0  0  0  0  0
   37.9800   31.0760   47.6840 N   0  0  0  0  0  0  0  0  0  0  0  0
   37.0810   31.1560   48.7110 C   0  0  0  0  0  0  0  0  0  0  0  0
   37.1200   32.1760   49.5560 N   0  0  0  0  0  0  0  0  0  0  0  0
   36.6337   29.1557   50.7600 H   0  0  0  0  0  0  0  0  0  0  0  0
   34.5815   27.5429   50.2917 H   0  0  0  0  0  0  0  0  0  0  0  0
   32.9241   29.0228   47.1003 H   0  0  0  0  0  0  0  0  0  0  0  0
   32.4772   27.7008   49.6775 H   0  0  0  0  0  0  0  0  0  0  0  0
   31.3430   28.5973   48.5872 H   0  0  0  0  0  0  0  0  0  0  0  0
   32.1418   25.6821   48.5334 H   0  0  0  0  0  0  0  0  0  0  0  0
   30.4882   26.4578   48.6398 H   0  0  0  0  0  0  0  0  0  0  0  0
   32.7437   25.5872   45.6265 H   0  0  0  0  0  0  0  0  0  0  0  0
   32.3423   27.3332   45.3532 H   0  0  0  0  0  0  0  0  0  0  0  0
   33.9083   26.1569   47.7008 H   0  0  0  0  0  0  0  0  0  0  0  0
   34.5579   27.1724   46.3809 H   0  0  0  0  0  0  0  0  0  0  0  0
   38.0516   33.9861   50.1372 H   0  0  0  0  0  0  0  0  0  0  0  0
   39.7407   33.8898   48.2525 H   0  0  0  0  0  0  0  0  0  0  0  0
   39.6496   31.9215   46.6398 H   0  0  0  0  0  0  0  0  0  0  0  0
  1  2  1  0
  3  2  2  0
  4  3  1  0
  5  4  1  0
  5  1  2  0
  6  4  1  0
  6  7  1  0
  8  7  1  0
  9  8  1  0
 10  9  1  0
 10 11  1  0
 11  6  1  0
 12 17  2  0
 13 12  1  0
 14 15  1  0
 14 13  2  0
 15 16  2  0
 16  1  1  0
 16 17  1  0
  2 18  1  0
  3 19  1  0
  6 20  1  0
  7 21  1  0
  7 22  1  0
  8 23  1  0
  8 24  1  0
 10 25  1  0
 10 26  1  0
 11 27  1  0
 11 28  1  0
 12 29  1  0
 13 30  1  0
 14 31  1  0
M  ISO  8  18  14  19  14  20  13  21  13  22  13  23  13  24  13  25  13
M  ISO  6  26  13  27  13  28  13  29  14  30  14  31  14
M  END
>  <minimizedAffinity>  (1) 
-5.01362085

>  <minimizedRMSD>  (1) 
2.40076208

$$$$
