
     RDKit          3D

 45 47  0  0  1  0  0  0  0  0999 V2000
   37.0390   30.9560   49.0710 C   0  0  0  0  0  0  0  0  0  0  0  0
   36.7690   31.8890   50.0780 C   0  0  0  0  0  0  0  0  0  0  0  0
   37.3730   33.1300   50.1160 C   0  0  0  0  0  0  0  0  0  0  0  0
   38.2860   33.4890   49.1250 C   0  0  0  0  0  0  0  0  0  0  0  0
   38.5420   32.5670   48.1440 C   0  0  0  0  0  0  0  0  0  0  0  0
   37.9320   31.3320   48.1210 C   0  0  0  0  0  0  0  0  0  0  0  0
   36.3540   29.6810   49.1200 C   0  0  0  0  0  0  0  0  0  0  0  0
   36.8880   28.8200   49.9210 O   0  0  0  0  0  0  0  0  0  0  0  0
   33.5960   30.1480   46.8150 C   0  0  0  0  0  0  0  0  0  0  0  0
   32.9340   28.9280   46.8280 C   0  0  0  0  0  0  0  0  0  0  0  0
   33.4360   27.9210   47.6400 C   0  0  0  0  0  0  0  0  0  0  0  0
   34.5450   28.1580   48.3870 N   0  0  0  0  0  0  0  0  0  0  0  0
   35.1550   29.3360   48.3520 C   0  0  0  0  0  0  0  0  0  0  0  0
   34.6780   30.3170   47.5680 N   0  0  0  0  0  0  0  0  0  0  0  0
   38.3030   30.4650   47.0220 C   0  0  0  0  0  0  0  0  0  0  0  0
   39.0160   30.8170   45.9650 C   0  0  0  0  0  0  0  0  0  0  0  0
   39.4610   30.0620   44.7970 C   0  0  0  0  0  0  0  0  0  0  0  0
   39.8310   30.8890   43.6120 C   0  0  0  0  0  0  0  0  0  0  0  0
   38.8750   32.0750   43.5120 C   0  0  0  0  0  0  0  0  0  0  0  0
   39.2760   32.9980   42.3820 C   0  0  0  0  0  0  0  0  0  0  0  0
   39.2200   32.2310   41.2060 O   0  0  0  0  0  0  0  0  0  0  0  0
   40.1770   31.2140   41.2540 C   0  0  0  0  0  0  0  0  0  0  0  0
   39.8110   30.1640   42.3130 C   0  0  0  0  0  0  0  0  0  0  0  0
   36.0501   31.6245   50.8674 H   0  0  0  0  0  0  0  0  0  0  0  0
   37.1344   33.8343   50.9266 H   0  0  0  0  0  0  0  0  0  0  0  0
   38.7803   34.4717   49.1305 H   0  0  0  0  0  0  0  0  0  0  0  0
   39.2581   32.8214   47.3487 H   0  0  0  0  0  0  0  0  0  0  0  0
   36.9860   29.3099   48.2997 H   0  0  0  0  0  0  0  0  0  0  0  0
   36.7193   29.0919   50.8579 H   0  0  0  0  0  0  0  0  0  0  0  0
   33.2270   30.9706   46.1848 H   0  0  0  0  0  0  0  0  0  0  0  0
   32.0373   28.7642   46.2123 H   0  0  0  0  0  0  0  0  0  0  0  0
   32.9402   26.9398   47.6783 H   0  0  0  0  0  0  0  0  0  0  0  0
   37.9614   29.4205   47.0706 H   0  0  0  0  0  0  0  0  0  0  0  0
   39.3313   31.8708   45.9660 H   0  0  0  0  0  0  0  0  0  0  0  0
   40.3418   29.4711   45.0886 H   0  0  0  0  0  0  0  0  0  0  0  0
   38.6041   29.4467   44.4855 H   0  0  0  0  0  0  0  0  0  0  0  0
   40.8725   31.1997   43.7812 H   0  0  0  0  0  0  0  0  0  0  0  0
   37.8566   31.7021   43.3283 H   0  0  0  0  0  0  0  0  0  0  0  0
   38.9135   32.6380   44.4562 H   0  0  0  0  0  0  0  0  0  0  0  0
   38.5781   33.8458   42.3171 H   0  0  0  0  0  0  0  0  0  0  0  0
   40.2830   33.4109   42.5419 H   0  0  0  0  0  0  0  0  0  0  0  0
   40.2342   30.7271   40.2693 H   0  0  0  0  0  0  0  0  0  0  0  0
   41.1473   31.6580   41.5212 H   0  0  0  0  0  0  0  0  0  0  0  0
   38.8097   29.7528   42.1172 H   0  0  0  0  0  0  0  0  0  0  0  0
   40.5115   29.3159   42.3072 H   0  0  0  0  0  0  0  0  0  0  0  0
  1  7  1  0
  1  2  2  0
  2  3  1  0
  4  3  2  0
  5  4  1  0
  6  5  2  0
  6  1  1  0
  7  8  1  0
  9 10  2  0
  9 14  1  0
 10 11  1  0
 11 12  2  0
 13 12  1  0
 13  7  1  0
 14 13  2  0
 15  6  1  0
 16 15  2  0
 17 16  1  0
 18 17  1  0
 19 18  1  0
 20 19  1  0
 21 22  1  0
 21 20  1  0
 22 23  1  0
 23 18  1  0
  2 24  1  0
  3 25  1  0
  4 26  1  0
  5 27  1  0
  7 28  1  0
  8 29  1  0
  9 30  1  0
 10 31  1  0
 11 32  1  0
 15 33  1  0
 16 34  1  0
 17 35  1  0
 17 36  1  0
 18 37  1  0
 19 38  1  0
 19 39  1  0
 20 40  1  0
 20 41  1  0
 22 42  1  0
 22 43  1  0
 23 44  1  0
 23 45  1  0
M  ISO  8  24  14  25  14  26  14  27  14  28   8  29   3  30  14  31  14
M  ISO  8  32  14  35   8  36   8  37  13  38  13  39  13  40  13  41  13
M  ISO  4  42  13  43  13  44  13  45  13
M  END
>  <minimizedAffinity>  (1) 
-5.99248266

>  <minimizedRMSD>  (1) 
1.4284991

$$$$
