
     RDKit          3D

 48 51  0  0  1  0  0  0  0  0999 V2000
   36.9330   30.7900   48.6990 N   0  0  0  0  0  0  0  0  0  0  0  0
   37.5570   30.6370   50.0080 C   0  0  0  0  0  0  0  0  0  0  0  0
   38.7070   31.5560   50.2380 C   0  0  0  0  0  0  0  0  0  0  0  0
   38.4450   32.9090   49.5860 C   0  0  0  0  0  0  0  0  0  0  0  0
   38.4410   32.6460   48.1080 C   0  0  0  0  0  0  0  0  0  0  0  0
   37.3860   31.6660   47.6740 C   0  0  1  0  0  0  0  0  0  0  0  0
   37.9190   30.8970   46.4900 C   0  0  0  0  0  0  0  0  0  0  0  0
   39.3680   31.2300   46.1950 C   0  0  0  0  0  0  0  0  0  0  0  0
   39.8100   30.1730   45.1750 C   0  0  0  0  0  0  0  0  0  0  0  0
   39.0560   30.3670   44.0380 O   0  0  0  0  0  0  0  0  0  0  0  0
   37.7000   30.1990   44.1950 C   0  0  0  0  0  0  0  0  0  0  0  0
   37.1320   31.1810   45.2300 C   0  0  0  0  0  0  0  0  0  0  0  0
   35.6430   28.7530   49.1090 C   0  0  0  0  0  0  0  0  0  0  0  0
   35.7920   29.9900   48.4580 C   0  0  0  0  0  0  0  0  0  0  0  0
   34.7940   30.3760   47.5820 C   0  0  0  0  0  0  0  0  0  0  0  0
   33.7250   29.5470   47.3960 N   0  0  0  0  0  0  0  0  0  0  0  0
   33.6100   28.3640   48.0350 C   0  0  0  0  0  0  0  0  0  0  0  0
   34.5690   27.9840   48.8830 N   0  0  0  0  0  0  0  0  0  0  0  0
   32.4530   27.5280   47.7900 C   0  0  0  0  0  0  0  0  0  0  0  0
   32.6250   26.1840   47.5250 C   0  0  0  0  0  0  0  0  0  0  0  0
   31.5760   25.3300   47.2830 C   0  0  0  0  0  0  0  0  0  0  0  0
   30.3390   25.9070   47.3240 C   0  0  0  0  0  0  0  0  0  0  0  0
   30.1060   27.2720   47.5910 C   0  0  0  0  0  0  0  0  0  0  0  0
   31.2190   28.0420   47.8200 N   0  0  0  0  0  0  0  0  0  0  0  0
   36.7973   30.8326   50.7791 H   0  0  0  0  0  0  0  0  0  0  0  0
   37.9522   29.6116   50.0562 H   0  0  0  0  0  0  0  0  0  0  0  0
   38.8481   31.6963   51.3199 H   0  0  0  0  0  0  0  0  0  0  0  0
   39.6109   31.1146   49.7929 H   0  0  0  0  0  0  0  0  0  0  0  0
   37.4724   33.3094   49.9082 H   0  0  0  0  0  0  0  0  0  0  0  0
   39.2057   33.6523   49.8669 H   0  0  0  0  0  0  0  0  0  0  0  0
   38.2670   33.5983   47.5857 H   0  0  0  0  0  0  0  0  0  0  0  0
   39.4159   32.2031   47.8564 H   0  0  0  0  0  0  0  0  0  0  0  0
   36.4900   32.2426   47.4007 H   0  0  0  0  0  0  0  0  0  0  0  0
   37.8238   29.8377   46.7708 H   0  0  0  0  0  0  0  0  0  0  0  0
   39.4550   32.2405   45.7691 H   0  0  0  0  0  0  0  0  0  0  0  0
   39.9906   31.2196   47.1018 H   0  0  0  0  0  0  0  0  0  0  0  0
   40.8786   30.2948   44.9444 H   0  0  0  0  0  0  0  0  0  0  0  0
   39.6631   29.1584   45.5739 H   0  0  0  0  0  0  0  0  0  0  0  0
   37.2035   30.3702   43.2285 H   0  0  0  0  0  0  0  0  0  0  0  0
   37.5161   29.1746   44.5510 H   0  0  0  0  0  0  0  0  0  0  0  0
   37.2821   32.2206   44.9034 H   0  0  0  0  0  0  0  0  0  0  0  0
   36.0488   31.0566   45.3754 H   0  0  0  0  0  0  0  0  0  0  0  0
   36.4172   28.4122   49.8122 H   0  0  0  0  0  0  0  0  0  0  0  0
   34.8601   31.3336   47.0447 H   0  0  0  0  0  0  0  0  0  0  0  0
   33.6474   25.7787   47.5068 H   0  0  0  0  0  0  0  0  0  0  0  0
   31.7220   24.2604   47.0718 H   0  0  0  0  0  0  0  0  0  0  0  0
   29.4662   25.2643   47.1363 H   0  0  0  0  0  0  0  0  0  0  0  0
   29.0909   27.6952   47.6144 H   0  0  0  0  0  0  0  0  0  0  0  0
  1  2  1  0
  2  3  1  0
  4  3  1  0
  5  4  1  0
  6  5  1  0
  6  1  1  0
  7  6  1  0
  8  7  1  0
  9  8  1  0
 10 11  1  0
 10  9  1  0
 11 12  1  0
 12  7  1  0
 14  1  1  0
 14 13  2  0
 15 14  1  0
 16 15  2  0
 16 17  1  0
 17 18  2  0
 18 13  1  0
 19 24  1  0
 19 17  1  0
 20 19  2  0
 21 22  2  0
 21 20  1  0
 22 23  1  0
 23 24  2  0
  2 25  1  0
  2 26  1  0
  3 27  1  0
  3 28  1  0
  4 29  1  0
  4 30  1  0
  5 31  1  0
  5 32  1  0
  6 33  1  6
  7 34  1  0
  8 35  1  0
  8 36  1  0
  9 37  1  0
  9 38  1  0
 11 39  1  0
 11 40  1  0
 12 41  1  0
 12 42  1  0
 13 43  1  0
 15 44  1  0
 20 45  1  0
 21 46  1  0
 22 47  1  0
 23 48  1  0
M  ISO  8  25  13  26  13  27  13  28  13  29  13  30  13  31  13  32  13
M  ISO  8  33  13  34  13  35  13  36  13  37  13  38  13  39  13  40  13
M  ISO  8  41  13  42  13  43  14  44  14  45  14  46  14  47  14  48  14
M  END
>  <minimizedAffinity>  (1) 
-5.65253639

>  <minimizedRMSD>  (1) 
1.14888597

$$$$
