
     RDKit          3D

 32 34  0  0  0  0  0  0  0  0999 V2000
   38.3000   32.2000   48.9270 C   0  0  0  0  0  0  0  0  0  0  0  0
   38.7540   33.3230   49.5940 C   0  0  0  0  0  0  0  0  0  0  0  0
   39.5860   34.2930   49.0420 C   0  0  0  0  0  0  0  0  0  0  0  0
   39.9660   34.0970   47.7520 N   0  0  0  0  0  0  0  0  0  0  0  0
   39.5300   33.0010   47.0830 C   0  0  0  0  0  0  0  0  0  0  0  0
   38.7280   32.0960   47.6650 N   0  0  0  0  0  0  0  0  0  0  0  0
   39.9350   32.7750   45.6800 C   0  0  0  0  0  0  0  0  0  0  0  0
   38.7270   32.7170   44.7400 C   0  0  0  0  0  0  0  0  0  0  0  0
   39.3080   32.8100   43.3450 C   0  0  0  0  0  0  0  0  0  0  0  0
   40.2920   31.8680   43.1180 O   0  0  0  0  0  0  0  0  0  0  0  0
   40.3480   30.8870   44.0980 C   0  0  0  0  0  0  0  0  0  0  0  0
   40.6570   31.4570   45.4810 C   0  0  0  0  0  0  0  0  0  0  0  0
   37.7280   30.5760   50.7620 C   0  0  0  0  0  0  0  0  0  0  0  0
   37.4390   31.2270   49.5450 C   0  0  0  0  0  0  0  0  0  0  0  0
   36.2510   30.9050   48.9100 C   0  0  0  0  0  0  0  0  0  0  0  0
   35.4430   29.9860   49.4980 N   0  0  0  0  0  0  0  0  0  0  0  0
   35.7370   29.3720   50.6660 C   0  0  0  0  0  0  0  0  0  0  0  0
   36.8990   29.6790   51.2970 N   0  0  0  0  0  0  0  0  0  0  0  0
   38.4342   33.4599   50.6375 H   0  0  0  0  0  0  0  0  0  0  0  0
   39.9175   35.1695   49.6180 H   0  0  0  0  0  0  0  0  0  0  0  0
   40.5952   33.6242   45.4498 H   0  0  0  0  0  0  0  0  0  0  0  0
   38.1823   31.7701   44.8691 H   0  0  0  0  0  0  0  0  0  0  0  0
   38.0084   33.5250   44.9419 H   0  0  0  0  0  0  0  0  0  0  0  0
   38.4991   32.6581   42.6152 H   0  0  0  0  0  0  0  0  0  0  0  0
   39.7665   33.8043   43.2395 H   0  0  0  0  0  0  0  0  0  0  0  0
   39.3765   30.3725   44.1377 H   0  0  0  0  0  0  0  0  0  0  0  0
   41.1617   30.1961   43.8324 H   0  0  0  0  0  0  0  0  0  0  0  0
   40.3271   30.7428   46.2499 H   0  0  0  0  0  0  0  0  0  0  0  0
   41.7407   31.6264   45.5643 H   0  0  0  0  0  0  0  0  0  0  0  0
   38.6653   30.8153   51.2857 H   0  0  0  0  0  0  0  0  0  0  0  0
   35.9706   31.3795   47.9580 H   0  0  0  0  0  0  0  0  0  0  0  0
   35.0449   28.6346   51.0986 H   0  0  0  0  0  0  0  0  0  0  0  0
  1 14  1  0
  1  2  2  0
  3  2  1  0
  4  3  2  0
  5  6  2  0
  5  4  1  0
  6  1  1  0
  7  5  1  0
  8  7  1  0
  9  8  1  0
 10  9  1  0
 10 11  1  0
 11 12  1  0
 12  7  1  0
 13 18  2  0
 14 13  1  0
 15 16  1  0
 15 14  2  0
 16 17  2  0
 17 18  1  0
  2 19  1  0
  3 20  1  0
  7 21  1  0
  8 22  1  0
  8 23  1  0
  9 24  1  0
  9 25  1  0
 11 26  1  0
 11 27  1  0
 12 28  1  0
 12 29  1  0
 13 30  1  0
 15 31  1  0
 17 32  1  0
M  ISO  8  19  14  20  14  21  13  22  13  23  13  24  13  25  13  26  13
M  ISO  6  27  13  28  13  29  13  30  14  31  14  32  14
M  END
>  <minimizedAffinity>  (1) 
-6.15708113

>  <minimizedRMSD>  (1) 
0.645853877

$$$$
