
     RDKit          3D

 39 41  0  0  0  0  0  0  0  0999 V2000
   37.1490   30.2150   51.3380 C   0  0  0  0  0  0  0  0  0  0  0  0
   37.8780   30.6020   50.1910 C   0  0  0  0  0  0  0  0  0  0  0  0
   37.4150   30.1590   48.9650 C   0  0  0  0  0  0  0  0  0  0  0  0
   36.2840   29.3770   48.9280 N   0  0  0  0  0  0  0  0  0  0  0  0
   35.6240   29.0350   50.0380 C   0  0  0  0  0  0  0  0  0  0  0  0
   36.0590   29.4550   51.2370 N   0  0  0  0  0  0  0  0  0  0  0  0
   38.1640   30.5530   47.7460 C   0  0  0  0  0  0  0  0  0  0  0  0
   38.7950   31.8900   47.8880 C   0  0  0  0  0  0  0  0  0  0  0  0
   39.1890   32.4160   46.5220 C   0  0  0  0  0  0  0  0  0  0  0  0
   37.9840   32.5900   45.8160 O   0  0  0  0  0  0  0  0  0  0  0  0
   37.5890   31.3150   45.4240 C   0  0  0  0  0  0  0  0  0  0  0  0
   37.2040   30.4470   46.5910 C   0  0  0  0  0  0  0  0  0  0  0  0
   34.5310   28.2540   49.7570 O   0  0  0  0  0  0  0  0  0  0  0  0
   33.7250   28.5820   48.6350 C   0  0  0  0  0  0  0  0  0  0  0  0
   32.7970   27.4570   48.3090 C   0  0  0  0  0  0  0  0  0  0  0  0
   31.3590   27.8640   48.3210 C   0  0  0  0  0  0  0  0  0  0  0  0
   30.6940   27.7240   49.5170 C   0  0  0  0  0  0  0  0  0  0  0  0
   29.3690   28.0630   49.6530 C   0  0  0  0  0  0  0  0  0  0  0  0
   28.7070   28.5440   48.5920 N   0  0  0  0  0  0  0  0  0  0  0  0
   29.3710   28.6760   47.4290 C   0  0  0  0  0  0  0  0  0  0  0  0
   30.6650   28.3510   47.2700 N   0  0  0  0  0  0  0  0  0  0  0  0
   37.4869   30.5466   52.3309 H   0  0  0  0  0  0  0  0  0  0  0  0
   38.7775   31.2303   50.2698 H   0  0  0  0  0  0  0  0  0  0  0  0
   39.0172   29.8820   47.5677 H   0  0  0  0  0  0  0  0  0  0  0  0
   38.0806   32.5839   48.3550 H   0  0  0  0  0  0  0  0  0  0  0  0
   39.6923   31.8045   48.5184 H   0  0  0  0  0  0  0  0  0  0  0  0
   39.7181   33.3755   46.6190 H   0  0  0  0  0  0  0  0  0  0  0  0
   39.8668   31.7234   46.0015 H   0  0  0  0  0  0  0  0  0  0  0  0
   36.7238   31.4051   44.7508 H   0  0  0  0  0  0  0  0  0  0  0  0
   38.4444   30.8397   44.9217 H   0  0  0  0  0  0  0  0  0  0  0  0
   36.2045   30.7487   46.9373 H   0  0  0  0  0  0  0  0  0  0  0  0
   37.2211   29.4033   46.2441 H   0  0  0  0  0  0  0  0  0  0  0  0
   33.1358   29.4823   48.8636 H   0  0  0  0  0  0  0  0  0  0  0  0
   34.3786   28.7655   47.7695 H   0  0  0  0  0  0  0  0  0  0  0  0
   32.9412   26.6575   49.0506 H   0  0  0  0  0  0  0  0  0  0  0  0
   33.0348   27.1192   47.2895 H   0  0  0  0  0  0  0  0  0  0  0  0
   31.2375   27.3300   50.3884 H   0  0  0  0  0  0  0  0  0  0  0  0
   28.8589   27.9411   50.6199 H   0  0  0  0  0  0  0  0  0  0  0  0
   28.8242   29.0718   46.5605 H   0  0  0  0  0  0  0  0  0  0  0  0
  2  1  2  0
  3  2  1  0
  4  3  2  0
  4  5  1  0
  5  6  2  0
  6  1  1  0
  7  8  1  0
  7  3  1  0
  9  8  1  0
 10  9  1  0
 11 10  1  0
 11 12  1  0
 12  7  1  0
 13  5  1  0
 14 13  1  0
 15 16  1  0
 15 14  1  0
 16 17  2  0
 17 18  1  0
 19 18  2  0
 20 19  1  0
 21 20  2  0
 21 16  1  0
  1 22  1  0
  2 23  1  0
  7 24  1  0
  8 25  1  0
  8 26  1  0
  9 27  1  0
  9 28  1  0
 11 29  1  0
 11 30  1  0
 12 31  1  0
 12 32  1  0
 14 33  1  0
 14 34  1  0
 15 35  1  0
 15 36  1  0
 17 37  1  0
 18 38  1  0
 20 39  1  0
M  ISO  8  22  14  23  14  24  13  25  13  26  13  27  13  28  13  29  13
M  ISO  8  30  13  31  13  32  13  33   8  34   8  35   8  36   8  37  14
M  ISO  2  38  14  39  14
M  END
>  <minimizedAffinity>  (1) 
-5.78417587

>  <minimizedRMSD>  (1) 
0.131162688

$$$$
