
     RDKit          3D

 32 34  0  0  0  0  0  0  0  0999 V2000
   38.7280   31.8290   47.7010 C   0  0  0  0  0  0  0  0  0  0  0  0
   37.7080   30.9150   47.9750 C   0  0  0  0  0  0  0  0  0  0  0  0
   36.8490   31.1930   49.0330 C   0  0  0  0  0  0  0  0  0  0  0  0
   37.0410   32.3300   49.7430 N   0  0  0  0  0  0  0  0  0  0  0  0
   38.0420   33.2020   49.4540 C   0  0  0  0  0  0  0  0  0  0  0  0
   38.8810   32.9380   48.4270 N   0  0  0  0  0  0  0  0  0  0  0  0
   35.7570   30.2880   49.3830 C   0  0  0  0  0  0  0  0  0  0  0  0
   35.8580   28.9220   49.4340 C   0  0  0  0  0  0  0  0  0  0  0  0
   34.5840   28.5050   49.8060 C   0  0  0  0  0  0  0  0  0  0  0  0
   33.7740   29.5750   49.9660 N   0  0  0  0  0  0  0  0  0  0  0  0
   34.5040   30.6640   49.7030 N   0  0  0  0  0  0  0  0  0  0  0  0
   39.5020   31.4250   46.6270 O   0  0  0  0  0  0  0  0  0  0  0  0
   39.6700   32.3540   45.5670 C   0  0  0  0  0  0  0  0  0  0  0  0
   38.3390   32.5100   44.8750 C   0  0  0  0  0  0  0  0  0  0  0  0
   38.1630   31.5370   43.7560 C   0  0  0  0  0  0  0  0  0  0  0  0
   39.2200   31.6940   42.8660 O   0  0  0  0  0  0  0  0  0  0  0  0
   40.3610   31.1710   43.4680 C   0  0  0  0  0  0  0  0  0  0  0  0
   40.7940   31.9700   44.6700 C   0  0  0  0  0  0  0  0  0  0  0  0
   37.5877   30.0028   47.3722 H   0  0  0  0  0  0  0  0  0  0  0  0
   38.1691   34.1168   50.0516 H   0  0  0  0  0  0  0  0  0  0  0  0
   36.7415   28.2998   49.2285 H   0  0  0  0  0  0  0  0  0  0  0  0
   34.2803   27.4575   49.9490 H   0  0  0  0  0  0  0  0  0  0  0  0
   32.7811   29.5553   50.2392 H   0  0  0  0  0  0  0  0  0  0  0  0
   39.9696   33.3404   45.9507 H   0  0  0  0  0  0  0  0  0  0  0  0
   37.5371   32.3510   45.6110 H   0  0  0  0  0  0  0  0  0  0  0  0
   38.2988   33.5232   44.4486 H   0  0  0  0  0  0  0  0  0  0  0  0
   38.1611   30.5111   44.1529 H   0  0  0  0  0  0  0  0  0  0  0  0
   37.2073   31.7204   43.2431 H   0  0  0  0  0  0  0  0  0  0  0  0
   40.1510   30.1393   43.7866 H   0  0  0  0  0  0  0  0  0  0  0  0
   41.1760   31.2070   42.7301 H   0  0  0  0  0  0  0  0  0  0  0  0
   41.5102   31.3677   45.2483 H   0  0  0  0  0  0  0  0  0  0  0  0
   41.2394   32.9028   44.2938 H   0  0  0  0  0  0  0  0  0  0  0  0
  1  2  2  0
  1  6  1  0
  2  3  1  0
  3  7  1  0
  3  4  2  0
  5  4  1  0
  6  5  2  0
  7  8  1  0
  7 11  2  0
  8  9  2  0
  9 10  1  0
 11 10  1  0
 12  1  1  0
 13 12  1  0
 14 13  1  0
 15 14  1  0
 16 17  1  0
 16 15  1  0
 17 18  1  0
 18 13  1  0
  2 19  1  0
  5 20  1  0
  8 21  1  0
  9 22  1  0
 10 23  1  0
 13 24  1  0
 14 25  1  0
 14 26  1  0
 15 27  1  0
 15 28  1  0
 17 29  1  0
 17 30  1  0
 18 31  1  0
 18 32  1  0
M  ISO  8  19  14  20  14  21  14  22  14  23   9  24  13  25  13  26  13
M  ISO  6  27  13  28  13  29  13  30  13  31  13  32  13
M  END
>  <minimizedAffinity>  (1) 
-5.88577843

>  <minimizedRMSD>  (1) 
7.08644724

$$$$
