
     RDKit          3D

 48 51  0  0  0  0  0  0  0  0999 V2000
   34.7020   29.3190   48.0510 C   0  0  0  0  0  0  0  0  0  0  0  0
   34.6600   28.0350   48.4660 C   0  0  0  0  0  0  0  0  0  0  0  0
   33.6630   27.2200   48.0930 C   0  0  0  0  0  0  0  0  0  0  0  0
   32.6900   27.7090   47.2860 N   0  0  0  0  0  0  0  0  0  0  0  0
   32.7400   28.9730   46.8820 C   0  0  0  0  0  0  0  0  0  0  0  0
   33.7320   29.7950   47.2510 N   0  0  0  0  0  0  0  0  0  0  0  0
   30.3390   29.1780   46.4050 C   0  0  0  0  0  0  0  0  0  0  0  0
   31.6630   29.3700   46.0060 C   0  0  0  0  0  0  0  0  0  0  0  0
   32.0330   29.9040   44.7860 C   0  0  0  0  0  0  0  0  0  0  0  0
   31.0500   30.2740   43.8970 C   0  0  0  0  0  0  0  0  0  0  0  0
   29.7190   30.1220   44.2000 C   0  0  0  0  0  0  0  0  0  0  0  0
   29.4510   29.5910   45.4200 C   0  0  0  0  0  0  0  0  0  0  0  0
   29.8550   28.5590   47.8750 S   0  0  0  0  0  0  0  0  0  0  0  0
   29.4240   27.1500   47.3500 O   0  0  0  0  0  0  0  0  0  0  0  0
   28.6170   29.3130   48.2900 O   0  0  0  0  0  0  0  0  0  0  0  0
   30.1460   27.8770   49.2860 C   0  0  0  0  0  0  0  0  0  0  0  0
   29.7770   26.5660   49.6490 F   0  0  0  0  0  0  0  0  0  0  0  0
   29.2110   28.4030   50.2950 F   0  0  0  0  0  0  0  0  0  0  0  0
   31.1890   28.3410   50.1380 F   0  0  0  0  0  0  0  0  0  0  0  0
   36.7550   31.7560   49.8690 C   0  0  0  0  0  0  0  0  0  0  0  0
   37.8770   31.9130   49.0340 C   0  0  0  0  0  0  0  0  0  0  0  0
   37.8900   31.1580   47.8460 C   0  0  0  0  0  0  0  0  0  0  0  0
   36.8390   30.3490   47.5970 N   0  0  0  0  0  0  0  0  0  0  0  0
   35.7710   30.2280   48.4340 C   0  0  0  0  0  0  0  0  0  0  0  0
   35.7450   30.9390   49.5680 N   0  0  0  0  0  0  0  0  0  0  0  0
   39.0310   31.2540   46.8970 C   0  0  0  0  0  0  0  0  0  0  0  0
   39.2330   32.6750   46.4110 C   0  0  0  0  0  0  0  0  0  0  0  0
   40.5070   32.6710   45.5950 C   0  0  0  0  0  0  0  0  0  0  0  0
   40.6260   31.5110   44.8210 O   0  0  0  0  0  0  0  0  0  0  0  0
   39.3600   31.0080   44.5000 C   0  0  0  0  0  0  0  0  0  0  0  0
   38.7100   30.3750   45.7120 C   0  0  0  0  0  0  0  0  0  0  0  0
   35.4565   27.6514   49.1206 H   0  0  0  0  0  0  0  0  0  0  0  0
   33.6352   26.1749   48.4352 H   0  0  0  0  0  0  0  0  0  0  0  0
   33.0952   30.0310   44.5301 H   0  0  0  0  0  0  0  0  0  0  0  0
   31.3359   30.7001   42.9240 H   0  0  0  0  0  0  0  0  0  0  0  0
   28.9220   30.4118   43.4994 H   0  0  0  0  0  0  0  0  0  0  0  0
   28.3846   29.4713   45.6618 H   0  0  0  0  0  0  0  0  0  0  0  0
   36.7094   32.3296   50.8065 H   0  0  0  0  0  0  0  0  0  0  0  0
   38.7021   32.5914   49.2965 H   0  0  0  0  0  0  0  0  0  0  0  0
   39.9531   30.9370   47.4061 H   0  0  0  0  0  0  0  0  0  0  0  0
   38.3828   32.9881   45.7872 H   0  0  0  0  0  0  0  0  0  0  0  0
   39.3018   33.3785   47.2539 H   0  0  0  0  0  0  0  0  0  0  0  0
   40.5049   33.5454   44.9276 H   0  0  0  0  0  0  0  0  0  0  0  0
   41.3583   32.7060   46.2908 H   0  0  0  0  0  0  0  0  0  0  0  0
   38.7257   31.8311   44.1392 H   0  0  0  0  0  0  0  0  0  0  0  0
   39.4727   30.2412   43.7195 H   0  0  0  0  0  0  0  0  0  0  0  0
   37.6209   30.3170   45.5691 H   0  0  0  0  0  0  0  0  0  0  0  0
   39.0855   29.3531   45.8691 H   0  0  0  0  0  0  0  0  0  0  0  0
  1 24  1  0
  1  2  2  0
  3  2  1  0
  4  3  2  0
  5  6  2  0
  5  4  1  0
  6  1  1  0
  7 13  1  0
  8  7  2  0
  8  5  1  0
  9  8  1  0
 10 11  1  0
 10  9  2  0
 11 12  2  0
 12  7  1  0
 13 15  2  0
 13 16  1  0
 14 13  2  0
 16 17  1  0
 16 19  1  0
 16 18  1  0
 21 20  2  0
 22 21  1  0
 23 22  2  0
 23 24  1  0
 24 25  2  0
 25 20  1  0
 26 22  1  0
 27 26  1  0
 28 27  1  0
 29 28  1  0
 30 29  1  0
 30 31  1  0
 31 26  1  0
  2 32  1  0
  3 33  1  0
  9 34  1  0
 10 35  1  0
 11 36  1  0
 12 37  1  0
 20 38  1  0
 21 39  1  0
 26 40  1  0
 27 41  1  0
 27 42  1  0
 28 43  1  0
 28 44  1  0
 30 45  1  0
 30 46  1  0
 31 47  1  0
 31 48  1  0
M  ISO  8  32  14  33  14  34  14  35  14  36  14  37  14  38  14  39  14
M  ISO  8  40  13  41  13  42  13  43  13  44  13  45  13  46  13  47  13
M  ISO  1  48  13
M  END
>  <minimizedAffinity>  (1) 
-6.7220068

>  <minimizedRMSD>  (1) 
1.85753512

$$$$
