
     RDKit          3D

 27 29  0  0  1  0  0  0  0  0999 V2000
   38.6150   31.5840   48.5600 C   0  0  2  0  0  0  0  0  0  0  0  0
   38.8170   33.0060   48.8160 C   0  0  0  0  0  0  0  0  0  0  0  0
   37.9510   32.5100   47.6480 C   0  0  1  0  0  0  0  0  0  0  0  0
   36.1310   29.0820   49.6980 C   0  0  0  0  0  0  0  0  0  0  0  0
   36.2850   29.1320   51.1060 C   0  0  0  0  0  0  0  0  0  0  0  0
   37.2550   30.0370   51.6550 C   0  0  0  0  0  0  0  0  0  0  0  0
   37.9760   30.8010   50.7910 N   0  0  0  0  0  0  0  0  0  0  0  0
   37.7840   30.7100   49.4470 C   0  0  0  0  0  0  0  0  0  0  0  0
   36.8890   29.8780   48.8800 N   0  0  0  0  0  0  0  0  0  0  0  0
   38.0680   31.8770   45.2640 C   0  0  0  0  0  0  0  0  0  0  0  0
   37.0420   31.1700   45.4270 O   0  0  0  0  0  0  0  0  0  0  0  0
   38.5730   32.7010   46.3310 N   0  0  0  0  0  0  0  0  0  0  0  0
   38.7820   31.8880   43.9820 C   0  0  0  0  0  0  0  0  0  0  0  0
   39.6860   30.9950   43.4920 N   0  0  0  0  0  0  0  0  0  0  0  0
   40.0860   31.4080   42.2670 C   0  0  0  0  0  0  0  0  0  0  0  0
   39.4220   32.5700   41.9970 N   0  0  0  0  0  0  0  0  0  0  0  0
   38.6500   32.8350   43.0360 N   0  0  0  0  0  0  0  0  0  0  0  0
   39.3234   30.7506   48.4437 H   0  0  0  0  0  0  0  0  0  0  0  0
   38.3494   33.4844   49.6892 H   0  0  0  0  0  0  0  0  0  0  0  0
   39.6862   33.6712   48.9254 H   0  0  0  0  0  0  0  0  0  0  0  0
   36.9165   32.6403   47.2975 H   0  0  0  0  0  0  0  0  0  0  0  0
   35.3937   28.3955   49.2564 H   0  0  0  0  0  0  0  0  0  0  0  0
   35.6761   28.4929   51.7623 H   0  0  0  0  0  0  0  0  0  0  0  0
   37.4104   30.1103   52.7415 H   0  0  0  0  0  0  0  0  0  0  0  0
   39.3276   33.3856   46.1796 H   0  0  0  0  0  0  0  0  0  0  0  0
   40.8104   30.9023   41.6116 H   0  0  0  0  0  0  0  0  0  0  0  0
   39.5072   33.1360   41.1407 H   0  0  0  0  0  0  0  0  0  0  0  0
  1  2  1  0
  1  8  1  0
  3  1  1  0
  3  2  1  0
  4  5  2  0
  5  6  1  0
  7  6  2  0
  8  7  1  0
  9  8  2  0
  9  4  1  0
 10 11  2  0
 10 12  1  0
 12  3  1  0
 13 10  1  0
 14 13  1  0
 15 14  2  0
 16 15  1  0
 16 17  1  0
 17 13  2  0
  1 18  1  6
  2 19  1  0
  2 20  1  0
  3 21  1  6
  4 22  1  0
  5 23  1  0
  6 24  1  0
 12 25  1  0
 15 26  1  0
 16 27  1  0
M  ISO  8  18  13  19  13  20  13  21  13  22  14  23  14  24  14  26  14
M  ISO  1  27   9
M  END
>  <minimizedAffinity>  (1) 
-5.15030479

>  <minimizedRMSD>  (1) 
7.37037039

$$$$
