
     RDKit          3D

 32 34  0  0  0  0  0  0  0  0999 V2000
   35.4780   29.2380   50.4940 C   0  0  0  0  0  0  0  0  0  0  0  0
   36.4180   30.1140   49.9220 C   0  0  0  0  0  0  0  0  0  0  0  0
   36.4140   30.2600   48.5430 C   0  0  0  0  0  0  0  0  0  0  0  0
   35.5110   29.5560   47.8170 N   0  0  0  0  0  0  0  0  0  0  0  0
   34.6330   28.7360   48.3740 C   0  0  0  0  0  0  0  0  0  0  0  0
   34.6070   28.5700   49.7020 N   0  0  0  0  0  0  0  0  0  0  0  0
   32.8580   30.4550   46.6180 Cl  0  0  0  0  0  0  0  0  0  0  0  0
   32.8110   28.6990   46.6750 C   0  0  0  0  0  0  0  0  0  0  0  0
   33.6800   28.0010   47.5270 C   0  0  0  0  0  0  0  0  0  0  0  0
   33.6750   26.6170   47.6020 C   0  0  0  0  0  0  0  0  0  0  0  0
   32.7670   25.9450   46.7930 C   0  0  0  0  0  0  0  0  0  0  0  0
   31.9050   26.5960   45.9510 C   0  0  0  0  0  0  0  0  0  0  0  0
   30.8110   25.6410   44.9850 Cl  0  0  0  0  0  0  0  0  0  0  0  0
   31.9410   27.9810   45.9050 C   0  0  0  0  0  0  0  0  0  0  0  0
   31.0090   28.7080   44.9930 C   0  0  0  0  0  0  0  0  0  0  0  0
   30.0520   27.8190   44.4820 F   0  0  0  0  0  0  0  0  0  0  0  0
   31.6610   29.3510   43.9800 F   0  0  0  0  0  0  0  0  0  0  0  0
   30.3150   29.6650   45.7030 F   0  0  0  0  0  0  0  0  0  0  0  0
   37.3660   31.1510   47.9210 C   0  0  0  0  0  0  0  0  0  0  0  0
   38.2580   30.5040   47.1470 N   0  0  0  0  0  0  0  0  0  0  0  0
   39.1310   31.3840   46.5850 C   0  0  0  0  0  0  0  0  0  0  0  0
   38.7470   32.6020   47.0380 N   0  0  0  0  0  0  0  0  0  0  0  0
   37.6840   32.4560   47.8430 N   0  0  0  0  0  0  0  0  0  0  0  0
   37.3670   30.8410   50.8130 C   0  0  0  0  0  0  0  0  0  0  0  0
   38.6740   30.7530   50.3100 F   0  0  0  0  0  0  0  0  0  0  0  0
   37.0170   32.1780   50.8310 F   0  0  0  0  0  0  0  0  0  0  0  0
   37.3500   30.3600   52.1080 F   0  0  0  0  0  0  0  0  0  0  0  0
   35.4507   29.0958   51.5844 H   0  0  0  0  0  0  0  0  0  0  0  0
   34.3590   26.0751   48.2717 H   0  0  0  0  0  0  0  0  0  0  0  0
   32.7394   24.8460   46.8303 H   0  0  0  0  0  0  0  0  0  0  0  0
   39.9680   31.1557   45.9087 H   0  0  0  0  0  0  0  0  0  0  0  0
   39.1991   33.4969   46.8019 H   0  0  0  0  0  0  0  0  0  0  0  0
  2  1  2  0
  2 24  1  0
  3  2  1  0
  4  5  1  0
  4  3  2  0
  5  6  2  0
  6  1  1  0
  7  8  1  0
  8  9  2  0
  9 10  1  0
  9  5  1  0
 11 10  2  0
 12 11  1  0
 13 12  1  0
 14 12  2  0
 14  8  1  0
 15 18  1  0
 15 14  1  0
 16 15  1  0
 17 15  1  0
 19  3  1  0
 20 19  1  0
 21 22  1  0
 21 20  2  0
 22 23  1  0
 23 19  2  0
 24 26  1  0
 24 27  1  0
 25 24  1  0
  1 28  1  0
 10 29  1  0
 11 30  1  0
 21 31  1  0
 22 32  1  0
M  ISO  5  28  14  29  14  30  14  31  14  32   9
M  END
>  <minimizedAffinity>  (1) 
-6.19262171

>  <minimizedRMSD>  (1) 
0.494875044

$$$$
