
     RDKit          3D

 28 30  0  0  1  0  0  0  0  0999 V2000
   37.7390   31.3310   49.4210 C   0  0  0  0  0  0  0  0  0  0  0  0
   38.3540   32.5650   49.6190 C   0  0  0  0  0  0  0  0  0  0  0  0
   38.9330   33.1220   48.4820 C   0  0  0  0  0  0  0  0  0  0  0  0
   38.8820   32.4780   47.2690 N   0  0  0  0  0  0  0  0  0  0  0  0
   38.2700   31.2730   47.1270 C   0  0  0  0  0  0  0  0  0  0  0  0
   37.6910   30.6960   48.2180 N   0  0  0  0  0  0  0  0  0  0  0  0
   37.0930   30.7160   50.6210 C   0  0  1  0  0  0  0  0  0  0  0  0
   36.1100   29.6390   50.4990 C   0  0  2  0  0  0  0  0  0  0  0  0
   37.5200   29.2450   50.8120 C   0  0  0  0  0  0  0  0  0  0  0  0
   35.6020   29.3820   49.2330 O   0  0  0  0  0  0  0  0  0  0  0  0
   34.3130   29.2530   48.8360 C   0  0  0  0  0  0  0  0  0  0  0  0
   33.5990   28.2890   49.1860 O   0  0  0  0  0  0  0  0  0  0  0  0
   33.9830   30.3350   48.0230 N   0  0  0  0  0  0  0  0  0  0  0  0
   38.2650   30.6700   45.8210 C   0  0  0  0  0  0  0  0  0  0  0  0
   39.4190   30.2660   45.2120 N   0  0  0  0  0  0  0  0  0  0  0  0
   39.1450   29.7350   43.9990 C   0  0  0  0  0  0  0  0  0  0  0  0
   37.8110   29.8090   43.8520 N   0  0  0  0  0  0  0  0  0  0  0  0
   37.2730   30.3710   44.9430 N   0  0  0  0  0  0  0  0  0  0  0  0
   38.3802   33.0620   50.5999 H   0  0  0  0  0  0  0  0  0  0  0  0
   39.4405   34.0951   48.5559 H   0  0  0  0  0  0  0  0  0  0  0  0
   37.0657   31.6604   51.1844 H   0  0  0  0  0  0  0  0  0  0  0  0
   35.1452   29.4165   50.9781 H   0  0  0  0  0  0  0  0  0  0  0  0
   38.1388   28.7420   50.0543 H   0  0  0  0  0  0  0  0  0  0  0  0
   38.0239   28.6619   51.5969 H   0  0  0  0  0  0  0  0  0  0  0  0
   34.6856   31.0605   47.8210 H   0  0  0  0  0  0  0  0  0  0  0  0
   33.0364   30.4095   47.6239 H   0  0  0  0  0  0  0  0  0  0  0  0
   39.8678   29.3252   43.2781 H   0  0  0  0  0  0  0  0  0  0  0  0
   37.2842   29.4842   43.0287 H   0  0  0  0  0  0  0  0  0  0  0  0
  1  2  2  0
  1  7  1  0
  3  2  1  0
  4  3  2  0
  5  4  1  0
  5  6  2  0
  6  1  1  0
  7  9  1  0
  8  7  1  0
  8  9  1  0
 10  8  1  0
 11 12  2  0
 11 10  1  0
 13 11  1  0
 14  5  1  0
 15 14  1  0
 16 15  2  0
 17 16  1  0
 17 18  1  0
 18 14  2  0
  2 19  1  0
  3 20  1  0
  7 21  1  1
  8 22  1  1
  9 23  1  0
  9 24  1  0
 13 25  1  0
 13 26  1  0
 16 27  1  0
 17 28  1  0
M  ISO  8  19  14  20  14  21  13  22  13  23  13  24  13  27  14  28   9
M  END
>  <minimizedAffinity>  (1) 
-5.42972231

>  <minimizedRMSD>  (1) 
1.34271693

$$$$
