
     RDKit          3D

 40 42  0  0  0  0  0  0  0  0999 V2000
   34.9410   29.6540   48.5700 C   0  0  0  0  0  0  0  0  0  0  0  0
   37.8650   30.8600   48.5980 Br  0  0  0  0  0  0  0  0  0  0  0  0
   36.7590   30.5210   47.0530 C   0  0  0  0  0  0  0  0  0  0  0  0
   37.2170   30.8080   45.7890 C   0  0  0  0  0  0  0  0  0  0  0  0
   36.3860   30.5480   44.7410 C   0  0  0  0  0  0  0  0  0  0  0  0
   35.1190   30.0150   44.9100 C   0  0  0  0  0  0  0  0  0  0  0  0
   34.6870   29.7370   46.2080 C   0  0  0  0  0  0  0  0  0  0  0  0
   35.5170   29.9940   47.2680 C   0  0  0  0  0  0  0  0  0  0  0  0
   39.8200   33.2950   45.1950 C   0  0  0  0  0  0  0  0  0  0  0  0
   41.0210   32.5350   45.1790 C   0  0  0  0  0  0  0  0  0  0  0  0
   40.8970   31.1790   45.3750 C   0  0  0  0  0  0  0  0  0  0  0  0
   39.6550   30.6140   45.5730 N   0  0  0  0  0  0  0  0  0  0  0  0
   38.5510   31.3810   45.5790 C   0  0  0  0  0  0  0  0  0  0  0  0
   38.6470   32.7060   45.3900 N   0  0  0  0  0  0  0  0  0  0  0  0
   33.4850   29.3450   48.5920 C   0  0  0  0  0  0  0  0  0  0  0  0
   33.2640   28.0320   49.0510 N   0  0  0  0  0  0  0  0  0  0  0  0
   32.5990   27.1360   48.1680 C   0  0  0  0  0  0  0  0  0  0  0  0
   31.3040   27.7530   47.7750 C   0  0  0  0  0  0  0  0  0  0  0  0
   30.2660   27.6700   48.8440 C   0  0  0  0  0  0  0  0  0  0  0  0
   29.1040   27.0520   48.5660 N   0  0  0  0  0  0  0  0  0  0  0  0
   28.3390   27.1110   49.6910 C   0  0  0  0  0  0  0  0  0  0  0  0
   29.0740   27.7640   50.6060 N   0  0  0  0  0  0  0  0  0  0  0  0
   30.2550   28.1120   50.1000 N   0  0  0  0  0  0  0  0  0  0  0  0
   35.1119   30.5064   49.2439 H   0  0  0  0  0  0  0  0  0  0  0  0
   35.4408   28.7228   48.8752 H   0  0  0  0  0  0  0  0  0  0  0  0
   36.7348   30.7699   43.7217 H   0  0  0  0  0  0  0  0  0  0  0  0
   34.4702   29.8160   44.0443 H   0  0  0  0  0  0  0  0  0  0  0  0
   33.6861   29.3141   46.3791 H   0  0  0  0  0  0  0  0  0  0  0  0
   39.8634   34.3837   45.0440 H   0  0  0  0  0  0  0  0  0  0  0  0
   42.0011   33.0077   45.0179 H   0  0  0  0  0  0  0  0  0  0  0  0
   41.7938   30.5419   45.3737 H   0  0  0  0  0  0  0  0  0  0  0  0
   32.9753   30.0529   49.2621 H   0  0  0  0  0  0  0  0  0  0  0  0
   33.0878   29.4351   47.5702 H   0  0  0  0  0  0  0  0  0  0  0  0
   34.1829   27.6229   49.2729 H   0  0  0  0  0  0  0  0  0  0  0  0
   33.2173   26.9652   47.2744 H   0  0  0  0  0  0  0  0  0  0  0  0
   32.4264   26.1693   48.6638 H   0  0  0  0  0  0  0  0  0  0  0  0
   31.4790   28.8130   47.5389 H   0  0  0  0  0  0  0  0  0  0  0  0
   30.9251   27.1939   46.9068 H   0  0  0  0  0  0  0  0  0  0  0  0
   27.3249   26.7060   49.8235 H   0  0  0  0  0  0  0  0  0  0  0  0
   28.7660   27.9676   51.5676 H   0  0  0  0  0  0  0  0  0  0  0  0
  1 15  1  0
  3  8  2  0
  3  2  1  0
  4  3  1  0
  5  6  1  0
  5  4  2  0
  6  7  2  0
  7  8  1  0
  8  1  1  0
  9 14  2  0
 10  9  1  0
 10 11  2  0
 11 12  1  0
 12 13  2  0
 13  4  1  0
 14 13  1  0
 15 16  1  0
 17 16  1  0
 18 17  1  0
 18 19  1  0
 19 23  2  0
 20 19  1  0
 20 21  2  0
 21 22  1  0
 23 22  1  0
  1 24  1  0
  1 25  1  0
  5 26  1  0
  6 27  1  0
  7 28  1  0
  9 29  1  0
 10 30  1  0
 11 31  1  0
 15 32  1  0
 15 33  1  0
 16 34  1  0
 17 35  1  0
 17 36  1  0
 18 37  1  0
 18 38  1  0
 21 39  1  0
 22 40  1  0
M  ISO  8  24   8  25   8  26  14  27  14  28  14  29  14  30  14  31  14
M  ISO  8  32   8  33   8  34   5  35   8  36   8  37   8  38   8  39  14
M  ISO  1  40   9
M  END
>  <minimizedAffinity>  (1) 
-5.12006092

>  <minimizedRMSD>  (1) 
1.35220599

$$$$
