
     RDKit          3D

 37 39  0  0  1  0  0  0  0  0999 V2000
   31.4860   26.5750   48.2490 C   0  0  1  0  0  0  0  0  0  0  0  0
   32.1550   27.9310   48.2190 C   0  0  2  0  0  0  0  0  0  0  0  0
   31.8570   28.5580   46.9060 C   0  0  0  0  0  0  0  0  0  0  0  0
   31.0920   27.7500   46.0710 O   0  0  0  0  0  0  0  0  0  0  0  0
   29.8650   27.4190   46.6510 C   0  0  0  0  0  0  0  0  0  0  0  0
   30.0030   26.8210   48.0080 C   0  0  2  0  0  0  0  0  0  0  0  0
   31.9390   25.7670   47.2040 O   0  0  0  0  0  0  0  0  0  0  0  0
   33.9410   27.8040   48.5140 S   0  0  0  0  0  0  0  0  0  0  0  0
   34.5390   29.2850   49.3670 C   0  0  0  0  0  0  0  0  0  0  0  0
   36.2420   29.1760   49.9000 S   0  0  0  0  0  0  0  0  0  0  0  0
   37.1640   30.5330   49.1990 C   0  0  0  0  0  0  0  0  0  0  0  0
   37.0550   31.7070   49.9040 C   0  0  0  0  0  0  0  0  0  0  0  0
   37.7550   32.8350   49.4180 C   0  0  0  0  0  0  0  0  0  0  0  0
   38.4910   32.6860   48.2840 N   0  0  0  0  0  0  0  0  0  0  0  0
   38.5510   31.5000   47.6460 C   0  0  0  0  0  0  0  0  0  0  0  0
   37.9020   30.4470   48.0920 N   0  0  0  0  0  0  0  0  0  0  0  0
   29.6170   27.7160   49.0000 O   0  0  0  0  0  0  0  0  0  0  0  0
   28.5080   27.6150   49.8190 C   0  0  0  0  0  0  0  0  0  0  0  0
   28.7140   27.0150   51.0110 N   0  0  0  0  0  0  0  0  0  0  0  0
   27.5250   27.0080   51.6660 C   0  0  0  0  0  0  0  0  0  0  0  0
   26.6370   27.6140   50.8290 N   0  0  0  0  0  0  0  0  0  0  0  0
   27.2260   27.9920   49.6910 N   0  0  0  0  0  0  0  0  0  0  0  0
   31.7004   26.0790   49.2071 H   0  0  0  0  0  0  0  0  0  0  0  0
   31.7605   28.5605   49.0302 H   0  0  0  0  0  0  0  0  0  0  0  0
   31.3088   29.4951   47.0830 H   0  0  0  0  0  0  0  0  0  0  0  0
   32.8191   28.7295   46.4011 H   0  0  0  0  0  0  0  0  0  0  0  0
   29.2577   28.3327   46.7311 H   0  0  0  0  0  0  0  0  0  0  0  0
   29.3904   26.6644   46.0066 H   0  0  0  0  0  0  0  0  0  0  0  0
   29.3827   25.9135   48.0486 H   0  0  0  0  0  0  0  0  0  0  0  0
   32.3876   24.9668   47.5762 H   0  0  0  0  0  0  0  0  0  0  0  0
   34.4444   30.1409   48.6825 H   0  0  0  0  0  0  0  0  0  0  0  0
   33.9273   29.4000   50.2740 H   0  0  0  0  0  0  0  0  0  0  0  0
   36.4434   31.7674   50.8163 H   0  0  0  0  0  0  0  0  0  0  0  0
   37.7060   33.8019   49.9401 H   0  0  0  0  0  0  0  0  0  0  0  0
   39.1564   31.4112   46.7319 H   0  0  0  0  0  0  0  0  0  0  0  0
   27.3207   26.5978   52.6660 H   0  0  0  0  0  0  0  0  0  0  0  0
   25.6409   27.7615   51.0455 H   0  0  0  0  0  0  0  0  0  0  0  0
  2  1  1  0
  2  8  1  0
  3  2  1  0
  4  5  1  0
  4  3  1  0
  5  6  1  0
  6  1  1  0
  6 17  1  0
  7  1  1  0
  8  9  1  0
  9 10  1  0
 11 10  1  0
 11 12  2  0
 13 12  1  0
 14 13  2  0
 15 16  2  0
 15 14  1  0
 16 11  1  0
 17 18  1  0
 18 19  1  0
 19 20  2  0
 21 20  1  0
 22 18  2  0
 22 21  1  0
  1 23  1  1
  2 24  1  1
  3 25  1  0
  3 26  1  0
  5 27  1  0
  5 28  1  0
  6 29  1  6
  7 30  1  0
  9 31  1  0
  9 32  1  0
 12 33  1  0
 13 34  1  0
 15 35  1  0
 20 36  1  0
 21 37  1  0
M  ISO  8  23  13  24  13  25  13  26  13  27  13  28  13  29  13  30   3
M  ISO  7  31   8  32   8  33  14  34  14  35  14  36  14  37   9
M  END
>  <minimizedAffinity>  (1) 
-5.50470638

>  <minimizedRMSD>  (1) 
1.6839031

$$$$
