
     RDKit          3D

 32 34  0  0  1  0  0  0  0  0999 V2000
   37.4490   31.1790   46.5910 C   0  0  2  0  0  0  0  0  0  0  0  0
   37.3070   30.4590   45.2650 C   0  0  0  0  0  0  0  0  0  0  0  0
   38.5770   29.7980   44.8200 C   0  0  0  0  0  0  0  0  0  0  0  0
   39.7470   30.7360   44.7820 C   0  0  0  0  0  0  0  0  0  0  0  0
   39.7980   31.6850   45.9530 C   0  0  0  0  0  0  0  0  0  0  0  0
   38.8600   31.2640   47.0650 C   0  0  1  0  0  0  0  0  0  0  0  0
   36.6670   30.4530   47.6380 C   0  0  0  0  0  0  0  0  0  0  0  0
   35.2640   30.5170   47.5300 C   0  0  0  0  0  0  0  0  0  0  0  0
   34.5210   29.8540   48.4980 C   0  0  0  0  0  0  0  0  0  0  0  0
   35.1690   29.1730   49.5080 N   0  0  0  0  0  0  0  0  0  0  0  0
   36.5370   29.1400   49.5700 C   0  0  0  0  0  0  0  0  0  0  0  0
   37.2610   29.7720   48.6470 N   0  0  0  0  0  0  0  0  0  0  0  0
   38.9370   32.2900   48.1370 C   0  0  0  0  0  0  0  0  0  0  0  0
   39.4420   33.5350   47.9080 N   0  0  0  0  0  0  0  0  0  0  0  0
   39.3770   34.2330   49.0690 C   0  0  0  0  0  0  0  0  0  0  0  0
   38.8400   33.4060   49.9750 N   0  0  0  0  0  0  0  0  0  0  0  0
   38.5630   32.2220   49.4370 N   0  0  0  0  0  0  0  0  0  0  0  0
   37.0762   32.2011   46.4289 H   0  0  0  0  0  0  0  0  0  0  0  0
   36.5275   29.6894   45.3654 H   0  0  0  0  0  0  0  0  0  0  0  0
   37.0443   31.2121   44.5074 H   0  0  0  0  0  0  0  0  0  0  0  0
   38.8078   28.9786   45.5166 H   0  0  0  0  0  0  0  0  0  0  0  0
   38.4153   29.4339   43.7947 H   0  0  0  0  0  0  0  0  0  0  0  0
   40.6711   30.1393   44.7774 H   0  0  0  0  0  0  0  0  0  0  0  0
   39.6401   31.3486   43.8746 H   0  0  0  0  0  0  0  0  0  0  0  0
   40.8253   31.7102   46.3453 H   0  0  0  0  0  0  0  0  0  0  0  0
   39.4827   32.6779   45.5999 H   0  0  0  0  0  0  0  0  0  0  0  0
   39.1604   30.2693   47.4259 H   0  0  0  0  0  0  0  0  0  0  0  0
   34.7770   31.0693   46.7128 H   0  0  0  0  0  0  0  0  0  0  0  0
   33.4218   29.8717   48.4597 H   0  0  0  0  0  0  0  0  0  0  0  0
   37.0378   28.5919   50.3816 H   0  0  0  0  0  0  0  0  0  0  0  0
   39.7008   35.2713   49.2336 H   0  0  0  0  0  0  0  0  0  0  0  0
   38.6646   33.6544   50.9591 H   0  0  0  0  0  0  0  0  0  0  0  0
  1  6  1  0
  1  7  1  0
  2  1  1  0
  3  2  1  0
  4  3  1  0
  4  5  1  0
  5  6  1  0
  6 13  1  0
  7 12  1  0
  8  7  2  0
  8  9  1  0
  9 10  2  0
 10 11  1  0
 12 11  2  0
 13 17  2  0
 14 13  1  0
 14 15  2  0
 15 16  1  0
 17 16  1  0
  1 18  1  6
  2 19  1  0
  2 20  1  0
  3 21  1  0
  3 22  1  0
  4 23  1  0
  4 24  1  0
  5 25  1  0
  5 26  1  0
  6 27  1  1
  8 28  1  0
  9 29  1  0
 11 30  1  0
 15 31  1  0
 16 32  1  0
M  ISO  8  18  13  19  13  20  13  21  13  22  13  23  13  24  13  25  13
M  ISO  7  26  13  27  13  28  14  29  14  30  14  31  14  32   9
M  END
>  <minimizedAffinity>  (1) 
-4.98492146

>  <minimizedRMSD>  (1) 
5.30193615

$$$$
