
     RDKit          3D

 32 34  0  0  1  0  0  0  0  0999 V2000
   37.4180   30.0670   46.9710 C   0  0  1  0  0  0  0  0  0  0  0  0
   36.8560   30.8010   45.8360 C   0  0  0  0  0  0  0  0  0  0  0  0
   37.6090   30.3870   44.6000 C   0  0  0  0  0  0  0  0  0  0  0  0
   39.0660   30.3030   44.8530 C   0  0  0  0  0  0  0  0  0  0  0  0
   39.5570   31.0150   46.0600 C   0  0  0  0  0  0  0  0  0  0  0  0
   38.7790   30.6960   47.3100 C   0  0  1  0  0  0  0  0  0  0  0  0
   36.3440   29.3360   50.4710 C   0  0  0  0  0  0  0  0  0  0  0  0
   37.1400   29.3120   49.2920 C   0  0  0  0  0  0  0  0  0  0  0  0
   36.6440   30.0620   48.2220 C   0  0  0  0  0  0  0  0  0  0  0  0
   35.4620   30.7590   48.3500 N   0  0  0  0  0  0  0  0  0  0  0  0
   34.7480   30.7460   49.4910 C   0  0  0  0  0  0  0  0  0  0  0  0
   35.1860   30.0390   50.5480 N   0  0  0  0  0  0  0  0  0  0  0  0
   38.6620   31.8450   48.2230 C   0  0  0  0  0  0  0  0  0  0  0  0
   38.5310   32.0630   49.5620 N   0  0  0  0  0  0  0  0  0  0  0  0
   38.4710   33.3760   49.8220 C   0  0  0  0  0  0  0  0  0  0  0  0
   38.5600   34.0080   48.6560 N   0  0  0  0  0  0  0  0  0  0  0  0
   38.6720   33.0920   47.7220 N   0  0  0  0  0  0  0  0  0  0  0  0
   37.4464   29.0215   46.6304 H   0  0  0  0  0  0  0  0  0  0  0  0
   35.7895   30.5563   45.7236 H   0  0  0  0  0  0  0  0  0  0  0  0
   36.9487   31.8853   45.9965 H   0  0  0  0  0  0  0  0  0  0  0  0
   37.4264   31.1262   43.8061 H   0  0  0  0  0  0  0  0  0  0  0  0
   37.2538   29.3908   44.2977 H   0  0  0  0  0  0  0  0  0  0  0  0
   39.3290   29.2401   44.9584 H   0  0  0  0  0  0  0  0  0  0  0  0
   39.5457   30.8014   43.9978 H   0  0  0  0  0  0  0  0  0  0  0  0
   40.6081   30.7355   46.2244 H   0  0  0  0  0  0  0  0  0  0  0  0
   39.4335   32.0915   45.8706 H   0  0  0  0  0  0  0  0  0  0  0  0
   39.3579   29.9433   47.8653 H   0  0  0  0  0  0  0  0  0  0  0  0
   36.6787   28.7653   51.3498 H   0  0  0  0  0  0  0  0  0  0  0  0
   38.0794   28.7434   49.2272 H   0  0  0  0  0  0  0  0  0  0  0  0
   33.8077   31.3128   49.5589 H   0  0  0  0  0  0  0  0  0  0  0  0
   38.3677   33.8426   50.8128 H   0  0  0  0  0  0  0  0  0  0  0  0
   38.5441   35.0277   48.5118 H   0  0  0  0  0  0  0  0  0  0  0  0
  1  6  1  0
  1  9  1  0
  2  1  1  0
  3  4  1  0
  3  2  1  0
  4  5  1  0
  5  6  1  0
  6 13  1  0
  7 12  2  0
  8  7  1  0
  9 10  1  0
  9  8  2  0
 10 11  2  0
 11 12  1  0
 13 14  1  0
 14 15  2  0
 16 15  1  0
 17 13  2  0
 17 16  1  0
  1 18  1  6
  2 19  1  0
  2 20  1  0
  3 21  1  0
  3 22  1  0
  4 23  1  0
  4 24  1  0
  5 25  1  0
  5 26  1  0
  6 27  1  1
  7 28  1  0
  8 29  1  0
 11 30  1  0
 15 31  1  0
 16 32  1  0
M  ISO  8  18  13  19  13  20  13  21  13  22  13  23  13  24  13  25  13
M  ISO  7  26  13  27  13  28  14  29  14  30  14  31  14  32   9
M  END
>  <minimizedAffinity>  (1) 
-4.47080898

>  <minimizedRMSD>  (1) 
1.87732661

$$$$
