
     RDKit          3D

 35 37  0  0  0  0  0  0  0  0999 V2000
   38.1200   31.4010   48.9210 C   0  0  0  0  0  0  0  0  0  0  0  0
   38.2550   32.4810   49.7980 C   0  0  0  0  0  0  0  0  0  0  0  0
   38.8860   33.6600   49.4290 C   0  0  0  0  0  0  0  0  0  0  0  0
   39.4080   33.7810   48.1350 C   0  0  0  0  0  0  0  0  0  0  0  0
   39.2680   32.7180   47.2900 C   0  0  0  0  0  0  0  0  0  0  0  0
   38.6350   31.5530   47.6840 C   0  0  0  0  0  0  0  0  0  0  0  0
   37.4460   30.2050   49.3930 C   0  0  0  0  0  0  0  0  0  0  0  0
   38.0840   29.5580   50.2980 O   0  0  0  0  0  0  0  0  0  0  0  0
   34.3090   30.2670   47.5790 C   0  0  0  0  0  0  0  0  0  0  0  0
   33.7100   29.0590   47.8860 C   0  0  0  0  0  0  0  0  0  0  0  0
   34.3860   28.1910   48.7380 C   0  0  0  0  0  0  0  0  0  0  0  0
   35.6010   28.5640   49.2280 N   0  0  0  0  0  0  0  0  0  0  0  0
   36.1450   29.7310   48.9100 C   0  0  0  0  0  0  0  0  0  0  0  0
   35.4900   30.5770   48.0840 N   0  0  0  0  0  0  0  0  0  0  0  0
   38.5750   30.5260   46.6660 C   0  0  0  0  0  0  0  0  0  0  0  0
   39.1510   30.5650   45.4720 C   0  0  0  0  0  0  0  0  0  0  0  0
   39.1820   29.6110   44.3540 C   0  0  0  0  0  0  0  0  0  0  0  0
   39.6270   30.2530   43.0850 C   0  0  0  0  0  0  0  0  0  0  0  0
   40.4800   29.7820   42.1480 N   0  0  0  0  0  0  0  0  0  0  0  0
   40.5740   30.7190   41.1770 C   0  0  0  0  0  0  0  0  0  0  0  0
   39.7750   31.7440   41.5410 N   0  0  0  0  0  0  0  0  0  0  0  0
   39.1940   31.4750   42.6960 N   0  0  0  0  0  0  0  0  0  0  0  0
   37.8469   32.3930   50.8157 H   0  0  0  0  0  0  0  0  0  0  0  0
   38.9754   34.4905   50.1447 H   0  0  0  0  0  0  0  0  0  0  0  0
   39.9141   34.7021   47.8103 H   0  0  0  0  0  0  0  0  0  0  0  0
   39.6694   32.7899   46.2684 H   0  0  0  0  0  0  0  0  0  0  0  0
   33.7986   30.9750   46.9095 H   0  0  0  0  0  0  0  0  0  0  0  0
   32.7278   28.7920   47.4689 H   0  0  0  0  0  0  0  0  0  0  0  0
   33.9467   27.2202   49.0111 H   0  0  0  0  0  0  0  0  0  0  0  0
   37.9940   29.6235   46.9065 H   0  0  0  0  0  0  0  0  0  0  0  0
   39.7146   31.4902   45.2814 H   0  0  0  0  0  0  0  0  0  0  0  0
   39.8771   28.7954   44.6022 H   0  0  0  0  0  0  0  0  0  0  0  0
   38.1608   29.2311   44.2029 H   0  0  0  0  0  0  0  0  0  0  0  0
   41.1852   30.6573   40.2645 H   0  0  0  0  0  0  0  0  0  0  0  0
   39.6385   32.6085   40.9980 H   0  0  0  0  0  0  0  0  0  0  0  0
  1  7  1  0
  1  2  2  0
  3  2  1  0
  4  3  2  0
  5  6  2  0
  5  4  1  0
  6  1  1  0
  7  8  2  0
  9 10  2  0
  9 14  1  0
 10 11  1  0
 11 12  2  0
 13 12  1  0
 13  7  1  0
 14 13  2  0
 15  6  1  0
 16 15  2  0
 17 16  1  0
 18 17  1  0
 19 18  1  0
 20 21  1  0
 20 19  2  0
 21 22  1  0
 22 18  2  0
  2 23  1  0
  3 24  1  0
  4 25  1  0
  5 26  1  0
  9 27  1  0
 10 28  1  0
 11 29  1  0
 15 30  1  0
 16 31  1  0
 17 32  1  0
 17 33  1  0
 20 34  1  0
 21 35  1  0
M  ISO  8  23  14  24  14  25  14  26  14  27  14  28  14  29  14  32   8
M  ISO  3  33   8  34  14  35   9
M  END
>  <minimizedAffinity>  (1) 
-5.9726181

>  <minimizedRMSD>  (1) 
1.63092804

$$$$
