
     RDKit          3D

 26 28  0  0  1  0  0  0  0  0999 V2000
   36.7650   31.1270   50.1850 C   0  0  1  0  0  0  0  0  0  0  0  0
   36.5320   29.7030   50.1710 C   0  0  1  0  0  0  0  0  0  0  0  0
   37.4750   30.2520   51.2160 C   0  0  0  0  0  0  0  0  0  0  0  0
   37.7410   31.7660   49.2170 C   0  0  0  0  0  0  0  0  0  0  0  0
   38.1970   33.0400   49.5560 C   0  0  0  0  0  0  0  0  0  0  0  0
   39.0760   33.6150   48.6380 C   0  0  0  0  0  0  0  0  0  0  0  0
   39.4400   32.9450   47.4990 N   0  0  0  0  0  0  0  0  0  0  0  0
   38.9600   31.6970   47.2190 C   0  0  0  0  0  0  0  0  0  0  0  0
   38.0970   31.1090   48.1010 N   0  0  0  0  0  0  0  0  0  0  0  0
   35.1740   29.1940   50.5640 C   0  0  0  0  0  0  0  0  0  0  0  0
   34.2760   28.9590   49.3990 C   0  0  0  0  0  0  0  0  0  0  0  0
   34.7050   29.2920   48.1490 N   0  0  0  0  0  0  0  0  0  0  0  0
   33.6940   28.9680   47.3350 C   0  0  0  0  0  0  0  0  0  0  0  0
   32.6850   28.4510   48.0740 N   0  0  0  0  0  0  0  0  0  0  0  0
   33.0320   28.4400   49.3570 N   0  0  0  0  0  0  0  0  0  0  0  0
   36.0615   31.9724   50.1651 H   0  0  0  0  0  0  0  0  0  0  0  0
   36.6247   28.9091   49.4152 H   0  0  0  0  0  0  0  0  0  0  0  0
   38.5573   30.0692   51.1435 H   0  0  0  0  0  0  0  0  0  0  0  0
   37.5555   30.2188   52.3126 H   0  0  0  0  0  0  0  0  0  0  0  0
   37.8866   33.5529   50.4783 H   0  0  0  0  0  0  0  0  0  0  0  0
   39.4822   34.6189   48.8307 H   0  0  0  0  0  0  0  0  0  0  0  0
   39.2628   31.1743   46.2997 H   0  0  0  0  0  0  0  0  0  0  0  0
   35.2996   28.2449   51.1057 H   0  0  0  0  0  0  0  0  0  0  0  0
   34.7033   29.9671   51.1890 H   0  0  0  0  0  0  0  0  0  0  0  0
   33.6844   29.1003   46.2430 H   0  0  0  0  0  0  0  0  0  0  0  0
   31.7855   28.1170   47.6994 H   0  0  0  0  0  0  0  0  0  0  0  0
  1  3  1  0
  2  1  1  0
  2 10  1  0
  2  3  1  0
  4  5  2  0
  4  1  1  0
  6  5  1  0
  7  6  2  0
  8  7  1  0
  8  9  2  0
  9  4  1  0
 11 10  1  0
 12 11  1  0
 13 14  1  0
 13 12  2  0
 14 15  1  0
 15 11  2  0
  1 16  1  1
  2 17  1  6
  3 18  1  0
  3 19  1  0
  5 20  1  0
  6 21  1  0
  8 22  1  0
 10 23  1  0
 10 24  1  0
 13 25  1  0
 14 26  1  0
M  ISO  8  16  13  17  13  18  13  19  13  20  14  21  14  22  14  23   8
M  ISO  3  24   8  25  14  26   9
M  END
>  <minimizedAffinity>  (1) 
-5.26346779

>  <minimizedRMSD>  (1) 
1.15390384

$$$$
