
     RDKit          3D

 27 29  0  0  0  0  0  0  0  0999 V2000
   36.3880   30.8330   45.7570 Cl  0  0  0  0  0  0  0  0  0  0  0  0
   36.7080   30.7720   47.4730 C   0  0  0  0  0  0  0  0  0  0  0  0
   37.9590   31.1340   47.8740 C   0  0  0  0  0  0  0  0  0  0  0  0
   38.2340   31.0920   49.2420 C   0  0  0  0  0  0  0  0  0  0  0  0
   37.2550   30.6940   50.1260 C   0  0  0  0  0  0  0  0  0  0  0  0
   36.0200   30.3450   49.6490 C   0  0  0  0  0  0  0  0  0  0  0  0
   35.6940   30.3660   48.3280 C   0  0  0  0  0  0  0  0  0  0  0  0
   40.2070   33.3030   45.9790 C   0  0  0  0  0  0  0  0  0  0  0  0
   40.8990   32.4120   45.1240 C   0  0  0  0  0  0  0  0  0  0  0  0
   40.5680   31.0570   45.2200 C   0  0  0  0  0  0  0  0  0  0  0  0
   39.6160   30.6690   46.1160 N   0  0  0  0  0  0  0  0  0  0  0  0
   38.9880   31.5560   46.9060 C   0  0  0  0  0  0  0  0  0  0  0  0
   39.2910   32.8450   46.8250 N   0  0  0  0  0  0  0  0  0  0  0  0
   34.0950   29.9190   47.6590 S   0  0  0  0  0  0  0  0  0  0  0  0
   33.9780   28.1490   47.4520 C   0  0  0  0  0  0  0  0  0  0  0  0
   33.8620   27.7190   46.1830 N   0  0  0  0  0  0  0  0  0  0  0  0
   33.7810   26.3820   46.1310 C   0  0  0  0  0  0  0  0  0  0  0  0
   33.8480   25.9720   47.4090 N   0  0  0  0  0  0  0  0  0  0  0  0
   33.9680   27.0280   48.2310 N   0  0  0  0  0  0  0  0  0  0  0  0
   39.2298   31.3759   49.6132 H   0  0  0  0  0  0  0  0  0  0  0  0
   37.4637   30.6570   51.2054 H   0  0  0  0  0  0  0  0  0  0  0  0
   35.2516   30.0314   50.3709 H   0  0  0  0  0  0  0  0  0  0  0  0
   40.4288   34.3798   45.9427 H   0  0  0  0  0  0  0  0  0  0  0  0
   41.6620   32.7692   44.4167 H   0  0  0  0  0  0  0  0  0  0  0  0
   41.0686   30.3142   44.5816 H   0  0  0  0  0  0  0  0  0  0  0  0
   33.6810   25.7541   45.2333 H   0  0  0  0  0  0  0  0  0  0  0  0
   33.8125   24.9890   47.7146 H   0  0  0  0  0  0  0  0  0  0  0  0
  1  2  1  0
  2  3  2  0
  2  7  1  0
  3  4  1  0
  4  5  2  0
  6  5  1  0
  7  6  2  0
  8 13  2  0
  9 10  2  0
  9  8  1  0
 10 11  1  0
 11 12  2  0
 12  3  1  0
 13 12  1  0
 14  7  1  0
 15 14  1  0
 15 19  2  0
 16 15  1  0
 17 16  2  0
 17 18  1  0
 18 19  1  0
  4 20  1  0
  5 21  1  0
  6 22  1  0
  8 23  1  0
  9 24  1  0
 10 25  1  0
 17 26  1  0
 18 27  1  0
M  ISO  8  20  14  21  14  22  14  23  14  24  14  25  14  26  14  27   9
M  END
>  <minimizedAffinity>  (1) 
-5.30132055

>  <minimizedRMSD>  (1) 
0.924111009

$$$$
