
     RDKit          3D

 21 22  0  0  0  0  0  0  0  0999 V2000
   37.5630   30.3320   49.4220 C   0  0  0  0  0  0  0  0  0  0  0  0
   36.4220   29.6110   49.0810 C   0  0  0  0  0  0  0  0  0  0  0  0
   35.6290   29.0820   50.0730 C   0  0  0  0  0  0  0  0  0  0  0  0
   36.0030   29.2890   51.3710 N   0  0  0  0  0  0  0  0  0  0  0  0
   37.1100   29.9870   51.6910 C   0  0  0  0  0  0  0  0  0  0  0  0
   37.8840   30.5050   50.7290 N   0  0  0  0  0  0  0  0  0  0  0  0
   34.7870   29.9520   47.3070 C   0  0  0  0  0  0  0  0  0  0  0  0
   33.8980   30.7270   47.7940 O   0  0  0  0  0  0  0  0  0  0  0  0
   35.9950   29.3720   47.7680 N   0  0  0  0  0  0  0  0  0  0  0  0
   38.2450   30.7940   48.3260 O   0  0  0  0  0  0  0  0  0  0  0  0
   38.7320   32.0950   48.3490 C   0  0  0  0  0  0  0  0  0  0  0  0
   38.7000   32.8770   49.4680 N   0  0  0  0  0  0  0  0  0  0  0  0
   39.2520   34.0650   49.1260 C   0  0  0  0  0  0  0  0  0  0  0  0
   39.6050   33.9850   47.8230 N   0  0  0  0  0  0  0  0  0  0  0  0
   39.2930   32.7930   47.3450 N   0  0  0  0  0  0  0  0  0  0  0  0
   34.7217   28.5100   49.8288 H   0  0  0  0  0  0  0  0  0  0  0  0
   37.3793   30.1320   52.7476 H   0  0  0  0  0  0  0  0  0  0  0  0
   34.5588   29.6617   46.2708 H   0  0  0  0  0  0  0  0  0  0  0  0
   36.5562   28.7778   47.1412 H   0  0  0  0  0  0  0  0  0  0  0  0
   39.3882   34.9345   49.7859 H   0  0  0  0  0  0  0  0  0  0  0  0
   40.0507   34.7407   47.2834 H   0  0  0  0  0  0  0  0  0  0  0  0
  1  6  1  0
  2  1  2  0
  2  3  1  0
  3  4  2  0
  4  5  1  0
  6  5  2  0
  7  9  1  0
  7  8  2  0
  9  2  1  0
 10 11  1  0
 10  1  1  0
 11 12  1  0
 13 12  2  0
 14 13  1  0
 15 14  1  0
 15 11  2  0
  3 16  1  0
  5 17  1  0
  7 18  1  0
  9 19  1  0
 13 20  1  0
 14 21  1  0
M  ISO  5  16  14  17  14  18   6  20  14  21   9
M  END
>  <minimizedAffinity>  (1) 
-4.63508224

>  <minimizedRMSD>  (1) 
5.16717243

$$$$
