
     RDKit          3D

 32 33  0  0  0  0  0  0  0  0999 V2000
   37.4060   31.2240   49.0830 C   0  0  0  0  0  0  0  0  0  0  0  0
   38.4320   32.1490   49.1300 C   0  0  0  0  0  0  0  0  0  0  0  0
   38.8840   32.5770   47.8840 C   0  0  0  0  0  0  0  0  0  0  0  0
   38.3180   32.0870   46.7360 N   0  0  0  0  0  0  0  0  0  0  0  0
   37.3160   31.1840   46.7470 C   0  0  0  0  0  0  0  0  0  0  0  0
   36.8570   30.7480   47.9500 N   0  0  0  0  0  0  0  0  0  0  0  0
   36.8460   30.7410   50.3930 C   0  0  0  0  0  0  0  0  0  0  0  0
   35.9350   29.6500   50.4970 C   0  0  0  0  0  0  0  0  0  0  0  0
   37.4000   29.3620   50.7990 C   0  0  0  0  0  0  0  0  0  0  0  0
   36.7190   30.6850   45.5210 C   0  0  0  0  0  0  0  0  0  0  0  0
   38.0290   30.2290   43.4550 C   0  0  0  0  0  0  0  0  0  0  0  0
   37.5020   31.1450   42.7680 O   0  0  0  0  0  0  0  0  0  0  0  0
   37.7330   29.9260   44.8070 N   0  0  0  0  0  0  0  0  0  0  0  0
   39.0280   29.3860   42.8470 N   0  0  0  0  0  0  0  0  0  0  0  0
   40.6190   30.0490   42.6030 S   0  0  0  0  0  0  0  0  0  0  0  0
   40.6570   30.8590   41.3460 O   0  0  0  0  0  0  0  0  0  0  0  0
   40.9120   30.9200   43.7910 O   0  0  0  0  0  0  0  0  0  0  0  0
   41.7170   28.8000   42.5050 O   0  0  0  0  0  0  0  0  0  0  0  0
   38.8573   32.5174   50.0752 H   0  0  0  0  0  0  0  0  0  0  0  0
   39.6997   33.3123   47.8210 H   0  0  0  0  0  0  0  0  0  0  0  0
   36.7755   31.7606   50.7997 H   0  0  0  0  0  0  0  0  0  0  0  0
   35.1999   29.6341   51.3151 H   0  0  0  0  0  0  0  0  0  0  0  0
   35.1986   29.2063   49.8108 H   0  0  0  0  0  0  0  0  0  0  0  0
   38.0132   28.7744   50.0999 H   0  0  0  0  0  0  0  0  0  0  0  0
   37.9812   28.9435   51.6339 H   0  0  0  0  0  0  0  0  0  0  0  0
   35.8642   30.0350   45.7592 H   0  0  0  0  0  0  0  0  0  0  0  0
   36.3591   31.5203   44.9024 H   0  0  0  0  0  0  0  0  0  0  0  0
   38.2375   29.1660   45.2854 H   0  0  0  0  0  0  0  0  0  0  0  0
   38.8070   28.4202   42.5654 H   0  0  0  0  0  0  0  0  0  0  0  0
   40.7021   31.8212   41.5747 H   0  0  0  0  0  0  0  0  0  0  0  0
   40.7410   30.4116   44.6231 H   0  0  0  0  0  0  0  0  0  0  0  0
   41.9708   28.5113   43.4174 H   0  0  0  0  0  0  0  0  0  0  0  0
  1  2  2  0
  1  7  1  0
  3  2  1  0
  4  5  1  0
  4  3  2  0
  5  6  2  0
  6  1  1  0
  7  8  1  0
  7  9  1  0
  8  9  1  0
 10  5  1  0
 11 13  1  0
 12 11  2  0
 13 10  1  0
 14 11  1  0
 15 14  1  0
 15 17  1  0
 16 15  1  0
 18 15  1  0
  2 19  1  0
  3 20  1  0
  7 21  1  0
  8 22  1  0
  8 23  1  0
  9 24  1  0
  9 25  1  0
 10 26  1  0
 10 27  1  0
 13 28  1  0
 14 29  1  0
 16 30  1  0
 17 31  1  0
 18 32  1  0
M  ISO  8  19  14  20  14  21  13  22  13  23  13  24  13  25  13  26   8
M  ISO  4  27   8  30   3  31   3  32   3
M  END
>  <minimizedAffinity>  (1) 
-5.33931303

>  <minimizedRMSD>  (1) 
3.11723471

$$$$
