
     RDKit          3D

 31 32  0  0  0  0  0  0  0  0999 V2000
   35.4440   30.2130   47.6260 C   0  0  0  0  0  0  0  0  0  0  0  0
   36.6130   30.3850   46.8760 C   0  0  0  0  0  0  0  0  0  0  0  0
   36.3990   30.3940   45.5090 C   0  0  0  0  0  0  0  0  0  0  0  0
   35.1470   30.2540   44.9850 N   0  0  0  0  0  0  0  0  0  0  0  0
   34.0420   30.1170   45.7590 C   0  0  0  0  0  0  0  0  0  0  0  0
   34.2060   30.1050   47.0900 N   0  0  0  0  0  0  0  0  0  0  0  0
   35.6170   30.2420   49.1390 C   0  0  0  0  0  0  0  0  0  0  0  0
   34.5460   29.8400   50.0090 C   0  0  0  0  0  0  0  0  0  0  0  0
   35.5930   28.8080   49.7190 C   0  0  0  0  0  0  0  0  0  0  0  0
   37.9190   30.5210   47.4430 C   0  0  0  0  0  0  0  0  0  0  0  0
   38.7220   31.7140   47.0690 C   0  0  0  0  0  0  0  0  0  0  0  0
   38.0900   32.7280   47.8610 N   0  0  0  0  0  0  0  0  0  0  0  0
   38.4800   33.0840   49.3600 S   0  0  0  0  0  0  0  0  0  0  0  0
   39.4380   34.0310   49.7490 O   0  0  0  0  0  0  0  0  0  0  0  0
   38.8120   31.6270   50.0190 O   0  0  0  0  0  0  0  0  0  0  0  0
   36.9220   33.3900   50.0350 O   0  0  0  0  0  0  0  0  0  0  0  0
   37.2561   30.5166   44.8305 H   0  0  0  0  0  0  0  0  0  0  0  0
   33.0429   30.0188   45.3094 H   0  0  0  0  0  0  0  0  0  0  0  0
   36.2558   31.1375   49.1486 H   0  0  0  0  0  0  0  0  0  0  0  0
   34.4791   30.2724   51.0182 H   0  0  0  0  0  0  0  0  0  0  0  0
   33.4501   29.8526   49.9150 H   0  0  0  0  0  0  0  0  0  0  0  0
   35.3666   27.9466   49.0735 H   0  0  0  0  0  0  0  0  0  0  0  0
   36.2721   28.1720   50.3058 H   0  0  0  0  0  0  0  0  0  0  0  0
   37.8007   30.5363   48.5365 H   0  0  0  0  0  0  0  0  0  0  0  0
   38.4850   29.6705   47.0353 H   0  0  0  0  0  0  0  0  0  0  0  0
   39.7806   31.5900   47.3412 H   0  0  0  0  0  0  0  0  0  0  0  0
   38.7415   31.9276   45.9901 H   0  0  0  0  0  0  0  0  0  0  0  0
   38.2061   33.6035   47.3310 H   0  0  0  0  0  0  0  0  0  0  0  0
   39.4793   34.0718   50.7373 H   0  0  0  0  0  0  0  0  0  0  0  0
   38.7954   31.6998   51.0062 H   0  0  0  0  0  0  0  0  0  0  0  0
   36.9823   33.3782   51.0231 H   0  0  0  0  0  0  0  0  0  0  0  0
  1  7  1  0
  2 10  1  0
  2  1  2  0
  3  2  1  0
  4  3  2  0
  4  5  1  0
  5  6  2  0
  6  1  1  0
  7  9  1  0
  7  8  1  0
  9  8  1  0
 11 10  1  0
 11 12  1  0
 12 13  1  0
 13 14  1  0
 13 15  1  0
 13 16  1  0
  3 17  1  0
  5 18  1  0
  7 19  1  0
  8 20  1  0
  8 21  1  0
  9 22  1  0
  9 23  1  0
 10 24  1  0
 10 25  1  0
 11 26  1  0
 11 27  1  0
 12 28  1  0
 14 29  1  0
 15 30  1  0
 16 31  1  0
M  ISO  8  17  14  18  14  19  13  20  13  21  13  22  13  23  13  24   8
M  ISO  7  25   8  26   8  27   8  28   5  29   3  30   3  31   3
M  END
>  <minimizedAffinity>  (1) 
-4.58803034

>  <minimizedRMSD>  (1) 
3.15700364

$$$$
