
     RDKit          3D

 34 35  0  0  1  0  0  0  0  0999 V2000
   34.7560   30.5780   48.7930 C   0  0  1  0  0  0  0  0  0  0  0  0
   34.1370   30.2370   47.5190 C   0  0  0  0  0  0  0  0  0  0  0  0
   34.2310   28.8050   47.0680 C   0  0  0  0  0  0  0  0  0  0  0  0
   34.1210   27.7930   48.1470 C   0  0  1  0  0  0  0  0  0  0  0  0
   34.7640   28.1190   49.4500 C   0  0  0  0  0  0  0  0  0  0  0  0
   34.5090   29.5360   49.8530 C   0  0  0  0  0  0  0  0  0  0  0  0
   36.9400   30.9270   47.5700 C   0  0  0  0  0  0  0  0  0  0  0  0
   36.1680   31.0250   48.7480 C   0  0  0  0  0  0  0  0  0  0  0  0
   36.7870   31.5660   49.8570 C   0  0  0  0  0  0  0  0  0  0  0  0
   38.0960   31.9740   49.7650 N   0  0  0  0  0  0  0  0  0  0  0  0
   38.7910   31.8590   48.6190 C   0  0  0  0  0  0  0  0  0  0  0  0
   38.2040   31.3360   47.5310 N   0  0  0  0  0  0  0  0  0  0  0  0
   32.7600   27.4310   48.4060 N   0  0  0  0  0  0  0  0  0  0  0  0
   31.9770   26.6340   47.1050 S   0  0  0  0  0  0  0  0  0  0  0  0
   31.2010   27.5430   46.2370 O   0  0  0  0  0  0  0  0  0  0  0  0
   30.9700   25.6790   47.7300 O   0  0  0  0  0  0  0  0  0  0  0  0
   33.0100   25.7250   46.1580 O   0  0  0  0  0  0  0  0  0  0  0  0
   34.2219   31.4932   49.0883 H   0  0  0  0  0  0  0  0  0  0  0  0
   33.0692   30.4911   47.5919 H   0  0  0  0  0  0  0  0  0  0  0  0
   34.7033   30.8075   46.7681 H   0  0  0  0  0  0  0  0  0  0  0  0
   33.4213   28.6220   46.3463 H   0  0  0  0  0  0  0  0  0  0  0  0
   35.2373   28.6859   46.6401 H   0  0  0  0  0  0  0  0  0  0  0  0
   34.6949   26.9559   47.7229 H   0  0  0  0  0  0  0  0  0  0  0  0
   34.3601   27.4500   50.2241 H   0  0  0  0  0  0  0  0  0  0  0  0
   35.8501   27.9839   49.3399 H   0  0  0  0  0  0  0  0  0  0  0  0
   35.1609   29.7652   50.7088 H   0  0  0  0  0  0  0  0  0  0  0  0
   33.4339   29.5915   50.0791 H   0  0  0  0  0  0  0  0  0  0  0  0
   36.4847   30.5022   46.6632 H   0  0  0  0  0  0  0  0  0  0  0  0
   36.2380   31.6694   50.8046 H   0  0  0  0  0  0  0  0  0  0  0  0
   39.8381   32.1928   48.5736 H   0  0  0  0  0  0  0  0  0  0  0  0
   32.7435   26.8049   49.2237 H   0  0  0  0  0  0  0  0  0  0  0  0
   30.6715   28.1632   46.7983 H   0  0  0  0  0  0  0  0  0  0  0  0
   31.0298   25.7357   48.7166 H   0  0  0  0  0  0  0  0  0  0  0  0
   33.6113   25.1958   46.7398 H   0  0  0  0  0  0  0  0  0  0  0  0
  1  6  1  0
  2  1  1  0
  3  2  1  0
  3  4  1  0
  4 13  1  0
  4  5  1  0
  5  6  1  0
  7  8  2  0
  8  1  1  0
  8  9  1  0
 10  9  2  0
 11 10  1  0
 12  7  1  0
 12 11  2  0
 14 16  1  0
 14 13  1  0
 15 14  1  0
 17 14  1  0
  1 18  1  1
  2 19  1  0
  2 20  1  0
  3 21  1  0
  3 22  1  0
  4 23  1  6
  5 24  1  0
  5 25  1  0
  6 26  1  0
  6 27  1  0
  7 28  1  0
  9 29  1  0
 11 30  1  0
 13 31  1  0
 15 32  1  0
 16 33  1  0
 17 34  1  0
M  ISO  8  18  13  19  13  20  13  21  13  22  13  23  13  24  13  25  13
M  ISO  8  26  13  27  13  28  14  29  14  30  14  31   5  32   3  33   3
M  ISO  1  34   3
M  END
>  <minimizedAffinity>  (1) 
-4.41066694

>  <minimizedRMSD>  (1) 
1.89925635

$$$$
