
     RDKit          3D

 36 37  0  0  1  0  0  0  0  0999 V2000
   36.0210   29.7880   48.7290 N   0  0  0  0  0  0  0  0  0  0  0  0
   36.8720   28.9840   49.5330 C   0  0  0  0  0  0  0  0  0  0  0  0
   37.2920   29.5140   50.8410 C   0  0  0  0  0  0  0  0  0  0  0  0
   37.2980   30.9880   51.0350 C   0  0  0  0  0  0  0  0  0  0  0  0
   36.4840   31.7650   50.0520 C   0  0  0  0  0  0  0  0  0  0  0  0
   36.5550   31.1100   48.6610 C   0  0  1  0  0  0  0  0  0  0  0  0
   34.8140   29.3480   48.0820 C   0  0  0  0  0  0  0  0  0  0  0  0
   34.6070   29.3330   46.7040 C   0  0  0  0  0  0  0  0  0  0  0  0
   33.3820   28.8770   46.2350 C   0  0  0  0  0  0  0  0  0  0  0  0
   32.4450   28.4680   47.1570 N   0  0  0  0  0  0  0  0  0  0  0  0
   32.6830   28.5000   48.4580 C   0  0  0  0  0  0  0  0  0  0  0  0
   33.8520   28.9340   48.9110 N   0  0  0  0  0  0  0  0  0  0  0  0
   31.6610   28.0590   49.3420 N   0  0  0  0  0  0  0  0  0  0  0  0
   30.1460   27.4970   48.7380 S   0  0  0  0  0  0  0  0  0  0  0  0
   29.3720   28.6620   48.2240 O   0  0  0  0  0  0  0  0  0  0  0  0
   29.3350   26.8930   49.8690 O   0  0  0  0  0  0  0  0  0  0  0  0
   30.3820   26.3700   47.5210 O   0  0  0  0  0  0  0  0  0  0  0  0
   37.9530   31.2440   48.1590 C   0  0  0  0  0  0  0  0  0  0  0  0
   37.9310   32.2890   47.2270 F   0  0  0  0  0  0  0  0  0  0  0  0
   38.2840   30.1460   47.3980 F   0  0  0  0  0  0  0  0  0  0  0  0
   38.8900   31.5820   49.0620 F   0  0  0  0  0  0  0  0  0  0  0  0
   36.3466   28.0354   49.7180 H   0  0  0  0  0  0  0  0  0  0  0  0
   37.8049   28.9089   48.9550 H   0  0  0  0  0  0  0  0  0  0  0  0
   36.6157   29.0887   51.5972 H   0  0  0  0  0  0  0  0  0  0  0  0
   38.3501   29.2248   50.9241 H   0  0  0  0  0  0  0  0  0  0  0  0
   36.9083   31.1998   52.0416 H   0  0  0  0  0  0  0  0  0  0  0  0
   38.3397   31.3097   50.8888 H   0  0  0  0  0  0  0  0  0  0  0  0
   35.4368   31.7902   50.3879 H   0  0  0  0  0  0  0  0  0  0  0  0
   36.8841   32.7875   49.9861 H   0  0  0  0  0  0  0  0  0  0  0  0
   35.9246   31.6108   47.9115 H   0  0  0  0  0  0  0  0  0  0  0  0
   35.3897   29.6719   46.0093 H   0  0  0  0  0  0  0  0  0  0  0  0
   33.1664   28.8435   45.1569 H   0  0  0  0  0  0  0  0  0  0  0  0
   31.8275   28.0752   50.3583 H   0  0  0  0  0  0  0  0  0  0  0  0
   29.0224   29.1882   48.9863 H   0  0  0  0  0  0  0  0  0  0  0  0
   29.7167   27.1772   50.7371 H   0  0  0  0  0  0  0  0  0  0  0  0
   30.5674   25.4844   47.9228 H   0  0  0  0  0  0  0  0  0  0  0  0
  1  2  1  0
  2  3  1  0
  3  4  1  0
  5  4  1  0
  6  1  1  0
  6  5  1  0
  7  1  1  0
  7 12  1  0
  8  7  2  0
  9  8  1  0
  9 10  2  0
 10 11  1  0
 11 12  2  0
 11 13  1  0
 14 13  1  0
 14 16  1  0
 15 14  1  0
 17 14  1  0
 18  6  1  0
 18 21  1  0
 19 18  1  0
 20 18  1  0
  2 22  1  0
  2 23  1  0
  3 24  1  0
  3 25  1  0
  4 26  1  0
  4 27  1  0
  5 28  1  0
  5 29  1  0
  6 30  1  6
  8 31  1  0
  9 32  1  0
 13 33  1  0
 15 34  1  0
 16 35  1  0
 17 36  1  0
M  ISO  8  22  13  23  13  24  13  25  13  26  13  27  13  28  13  29  13
M  ISO  6  30  13  31  14  32  14  34   3  35   3  36   3
M  END
>  <minimizedAffinity>  (1) 
-5.73235464

>  <minimizedRMSD>  (1) 
0.799280167

$$$$
