
     RDKit          3D

 46 49  0  0  0  0  0  0  0  0999 V2000
   38.0240   31.2210   47.7070 C   0  0  0  0  0  0  0  0  0  0  0  0
   37.1020   31.2740   48.7340 C   0  0  0  0  0  0  0  0  0  0  0  0
   37.2290   32.3930   49.5640 C   0  0  0  0  0  0  0  0  0  0  0  0
   38.2210   33.3730   49.3530 C   0  0  0  0  0  0  0  0  0  0  0  0
   39.1140   33.2160   48.2670 C   0  0  0  0  0  0  0  0  0  0  0  0
   39.0000   32.1130   47.4360 C   0  0  0  0  0  0  0  0  0  0  0  0
   34.9350   30.2930   48.1940 C   0  0  0  0  0  0  0  0  0  0  0  0
   36.0950   30.2890   48.9560 C   0  0  0  0  0  0  0  0  0  0  0  0
   36.2280   29.2940   49.9360 C   0  0  0  0  0  0  0  0  0  0  0  0
   35.2230   28.3950   50.0850 N   0  0  0  0  0  0  0  0  0  0  0  0
   34.1040   28.4340   49.3170 C   0  0  0  0  0  0  0  0  0  0  0  0
   33.9640   29.3790   48.3780 N   0  0  0  0  0  0  0  0  0  0  0  0
   37.4410   29.2390   50.7800 C   0  0  0  0  0  0  0  0  0  0  0  0
   37.9800   30.1350   46.8160 O   0  0  0  0  0  0  0  0  0  0  0  0
   39.8980   32.0200   46.4000 O   0  0  0  0  0  0  0  0  0  0  0  0
   40.3280   31.4340   44.0280 C   0  0  0  0  0  0  0  0  0  0  0  0
   39.6070   31.9710   45.0630 C   0  0  0  0  0  0  0  0  0  0  0  0
   38.3820   32.5730   44.7710 C   0  0  0  0  0  0  0  0  0  0  0  0
   37.9180   32.6180   43.4530 C   0  0  0  0  0  0  0  0  0  0  0  0
   36.7990   33.1190   42.8690 N   0  0  0  0  0  0  0  0  0  0  0  0
   36.8350   32.9010   41.5480 C   0  0  0  0  0  0  0  0  0  0  0  0
   37.9930   32.2520   41.3000 N   0  0  0  0  0  0  0  0  0  0  0  0
   38.6700   32.0700   42.4530 C   0  0  0  0  0  0  0  0  0  0  0  0
   39.8720   31.4790   42.7380 C   0  0  0  0  0  0  0  0  0  0  0  0
   40.6110   30.9270   41.6650 N   0  0  0  0  0  0  0  0  0  0  0  0
   41.0600   29.3410   41.2600 S   0  0  0  0  0  0  0  0  0  0  0  0
   41.8260   29.2490   39.9680 O   0  0  0  0  0  0  0  0  0  0  0  0
   39.9240   28.3930   41.1800 O   0  0  0  0  0  0  0  0  0  0  0  0
   42.1290   28.7980   42.4560 O   0  0  0  0  0  0  0  0  0  0  0  0
   36.5333   32.5122   50.4077 H   0  0  0  0  0  0  0  0  0  0  0  0
   38.2990   34.2437   50.0207 H   0  0  0  0  0  0  0  0  0  0  0  0
   39.8963   33.9671   48.0829 H   0  0  0  0  0  0  0  0  0  0  0  0
   34.8057   31.0632   47.4194 H   0  0  0  0  0  0  0  0  0  0  0  0
   33.3101   27.6874   49.4663 H   0  0  0  0  0  0  0  0  0  0  0  0
   37.1505   29.2522   51.8409 H   0  0  0  0  0  0  0  0  0  0  0  0
   37.9967   28.3147   50.5635 H   0  0  0  0  0  0  0  0  0  0  0  0
   38.0781   30.1092   50.5635 H   0  0  0  0  0  0  0  0  0  0  0  0
   38.6317   30.0776   46.0729 H   0  0  0  0  0  0  0  0  0  0  0  0
   41.2958   30.9557   44.2391 H   0  0  0  0  0  0  0  0  0  0  0  0
   37.7803   33.0131   45.5799 H   0  0  0  0  0  0  0  0  0  0  0  0
   36.0351   33.5964   43.3684 H   0  0  0  0  0  0  0  0  0  0  0  0
   36.0723   33.1928   40.8110 H   0  0  0  0  0  0  0  0  0  0  0  0
   40.9447   31.6318   40.9921 H   0  0  0  0  0  0  0  0  0  0  0  0
   42.7896   29.1333   40.1632 H   0  0  0  0  0  0  0  0  0  0  0  0
   39.6323   28.1496   42.0942 H   0  0  0  0  0  0  0  0  0  0  0  0
   41.7496   28.9907   43.3499 H   0  0  0  0  0  0  0  0  0  0  0  0
  1  2  2  0
  2  8  1  0
  2  3  1  0
  4  3  2  0
  5  4  1  0
  6  1  1  0
  6  5  2  0
  7 12  2  0
  7  8  1  0
  8  9  2  0
  9 10  1  0
  9 13  1  0
 11 10  2  0
 12 11  1  0
 14  1  1  0
 15  6  1  0
 16 17  2  0
 17 15  1  0
 18 17  1  0
 19 18  2  0
 20 19  1  0
 21 20  1  0
 22 21  2  0
 22 23  1  0
 23 24  2  0
 23 19  1  0
 24 16  1  0
 25 24  1  0
 26 25  1  0
 26 29  1  0
 27 26  1  0
 28 26  1  0
  3 30  1  0
  4 31  1  0
  5 32  1  0
  7 33  1  0
 11 34  1  0
 13 35  1  0
 13 36  1  0
 13 37  1  0
 14 38  1  0
 16 39  1  0
 18 40  1  0
 20 41  1  0
 21 42  1  0
 25 43  1  0
 27 44  1  0
 28 45  1  0
 29 46  1  0
M  ISO  8  30  14  31  14  32  14  33  14  34  14  35   8  36   8  37   8
M  ISO  8  38   3  39  14  40  14  41   9  42  14  44   3  45   3  46   3
M  END
>  <minimizedAffinity>  (1) 
-7.73078775

>  <minimizedRMSD>  (1) 
0.536352098

$$$$
