
     RDKit          3D

 36 38  0  0  1  0  0  0  0  0999 V2000
   34.5500   29.1890   47.4280 C   0  0  0  0  0  0  0  0  0  0  0  0
   33.9540   28.8850   46.1910 C   0  0  0  0  0  0  0  0  0  0  0  0
   33.4330   27.5950   46.0230 C   0  0  0  0  0  0  0  0  0  0  0  0
   33.5330   26.7180   47.0550 N   0  0  0  0  0  0  0  0  0  0  0  0
   34.1140   27.0460   48.2340 C   0  0  0  0  0  0  0  0  0  0  0  0
   34.6290   28.2870   48.4300 N   0  0  0  0  0  0  0  0  0  0  0  0
   33.9110   29.8960   45.2020 N   0  0  0  0  0  0  0  0  0  0  0  0
   34.8720   30.0360   44.2830 C   0  0  0  0  0  0  0  0  0  0  0  0
   34.8040   31.0440   43.3210 C   0  0  0  0  0  0  0  0  0  0  0  0
   33.6760   31.8350   43.4380 C   0  0  0  0  0  0  0  0  0  0  0  0
   33.5710   32.7730   42.5790 O   0  0  0  0  0  0  0  0  0  0  0  0
   32.6960   31.7290   44.3390 N   0  0  0  0  0  0  0  0  0  0  0  0
   32.8440   30.7260   45.2310 C   0  0  0  0  0  0  0  0  0  0  0  0
   31.9230   30.6100   46.0930 O   0  0  0  0  0  0  0  0  0  0  0  0
   35.2850   30.7120   49.2740 C   0  0  2  0  0  0  0  0  0  0  0  0
   35.1600   30.4890   47.8000 C   0  0  1  0  0  0  0  0  0  0  0  0
   36.5360   30.6670   47.1980 C   0  0  0  0  0  0  0  0  0  0  0  0
   37.5150   29.9000   47.7800 O   0  0  0  0  0  0  0  0  0  0  0  0
   37.6830   30.1090   49.1250 C   0  0  0  0  0  0  0  0  0  0  0  0
   36.7030   31.0990   49.6740 C   0  0  2  0  0  0  0  0  0  0  0  0
   34.9820   29.5070   49.9040 O   0  0  0  0  0  0  0  0  0  0  0  0
   36.7880   31.0530   51.0640 O   0  0  0  0  0  0  0  0  0  0  0  0
   32.9544   27.2998   45.0776 H   0  0  0  0  0  0  0  0  0  0  0  0
   34.1691   26.2998   49.0403 H   0  0  0  0  0  0  0  0  0  0  0  0
   35.7288   29.3462   44.2855 H   0  0  0  0  0  0  0  0  0  0  0  0
   35.5709   31.1944   42.5469 H   0  0  0  0  0  0  0  0  0  0  0  0
   31.8865   32.3657   44.3526 H   0  0  0  0  0  0  0  0  0  0  0  0
   34.6081   31.5289   49.5647 H   0  0  0  0  0  0  0  0  0  0  0  0
   34.4545   31.2278   47.3922 H   0  0  0  0  0  0  0  0  0  0  0  0
   36.8216   31.7244   47.3000 H   0  0  0  0  0  0  0  0  0  0  0  0
   36.4640   30.3405   46.1500 H   0  0  0  0  0  0  0  0  0  0  0  0
   37.5508   29.1519   49.6508 H   0  0  0  0  0  0  0  0  0  0  0  0
   38.6934   30.5159   49.2783 H   0  0  0  0  0  0  0  0  0  0  0  0
   36.9308   32.1021   49.2843 H   0  0  0  0  0  0  0  0  0  0  0  0
   35.0132   29.6309   50.8857 H   0  0  0  0  0  0  0  0  0  0  0  0
   35.9892   31.4853   51.4579 H   0  0  0  0  0  0  0  0  0  0  0  0
  1  6  2  0
  2  1  1  0
  3  2  2  0
  3  4  1  0
  4  5  2  0
  5  6  1  0
  7 13  1  0
  7  2  1  0
  8  7  1  0
  9 10  1  0
  9  8  2  0
 10 12  1  0
 11 10  2  0
 12 13  1  0
 13 14  2  0
 15 20  1  0
 15 21  1  0
 16  1  1  0
 16 15  1  0
 17 18  1  0
 17 16  1  0
 18 19  1  0
 19 20  1  0
 20 22  1  0
  3 23  1  0
  5 24  1  0
  8 25  1  0
  9 26  1  0
 12 27  1  0
 15 28  1  1
 16 29  1  6
 17 30  1  0
 17 31  1  0
 19 32  1  0
 19 33  1  0
 20 34  1  6
 21 35  1  0
 22 36  1  0
M  ISO  8  23  14  24  14  25  14  26  14  27   9  28  13  29  13  30  13
M  ISO  6  31  13  32  13  33  13  34  13  35   3  36   3
M  END
>  <minimizedAffinity>  (1) 
-4.35785007

>  <minimizedRMSD>  (1) 
4.86932325

$$$$
