
     RDKit          3D

 55 58  0  0  1  0  0  0  0  0999 V2000
   40.3780   25.2900   53.3670 C   0  0  0  0  0  0  0  0  0  0  0  0
   39.7500   26.1060   52.4250 C   0  0  0  0  0  0  0  0  0  0  0  0
   40.0150   25.7940   51.0820 C   0  0  0  0  0  0  0  0  0  0  0  0
   40.8190   24.7760   50.6900 C   0  0  0  0  0  0  0  0  0  0  0  0
   41.2380   24.2630   49.5540 N   0  0  0  0  0  0  0  0  0  0  0  0
   42.0710   23.1970   49.7270 C   0  0  0  0  0  0  0  0  0  0  0  0
   42.1810   23.0320   51.0930 C   0  0  0  0  0  0  0  0  0  0  0  0
   41.4070   24.0090   51.6630 C   0  0  0  0  0  0  0  0  0  0  0  0
   41.2050   24.2420   53.0030 C   0  0  0  0  0  0  0  0  0  0  0  0
   40.8670   23.3770   55.2280 C   0  0  2  0  0  0  0  0  0  0  0  0
   41.8390   23.4140   54.0480 C   0  0  2  0  0  0  0  0  0  0  0  0
   43.1580   23.8800   54.5330 C   0  0  0  0  0  0  0  0  0  0  0  0
   43.5570   23.0990   55.5840 O   0  0  0  0  0  0  0  0  0  0  0  0
   42.7990   21.9930   55.8540 C   0  0  0  0  0  0  0  0  0  0  0  0
   41.3440   22.2270   56.0830 C   0  0  1  0  0  0  0  0  0  0  0  0
   39.5710   23.2450   54.7850 O   0  0  0  0  0  0  0  0  0  0  0  0
   40.9930   22.4820   57.3850 O   0  0  0  0  0  0  0  0  0  0  0  0
   38.6710   27.4760   52.7210 S   0  0  0  0  0  0  0  0  0  0  0  0
   38.0600   28.2590   51.2390 C   0  0  0  0  0  0  0  0  0  0  0  0
   37.0820   29.3800   51.4820 C   0  0  0  0  0  0  0  0  0  0  0  0
   37.4540   30.5700   50.9440 C   0  0  0  0  0  0  0  0  0  0  0  0
   37.4900   30.1900   49.6300 O   0  0  0  0  0  0  0  0  0  0  0  0
   38.0960   31.0250   48.7240 C   0  0  0  0  0  0  0  0  0  0  0  0
   38.3840   32.2620   49.2450 C   0  0  0  0  0  0  0  0  0  0  0  0
   39.0060   33.2150   48.4220 C   0  0  0  0  0  0  0  0  0  0  0  0
   39.2910   32.8510   47.1420 N   0  0  0  0  0  0  0  0  0  0  0  0
   38.9910   31.6060   46.6500 C   0  0  0  0  0  0  0  0  0  0  0  0
   38.3990   30.7280   47.4640 N   0  0  0  0  0  0  0  0  0  0  0  0
   39.9110   32.4230   44.5950 C   0  0  0  0  0  0  0  0  0  0  0  0
   40.1350   33.5770   45.0710 O   0  0  0  0  0  0  0  0  0  0  0  0
   39.3330   31.3320   45.2970 N   0  0  0  0  0  0  0  0  0  0  0  0
   40.2097   25.4868   54.4361 H   0  0  0  0  0  0  0  0  0  0  0  0
   39.5430   26.4112   50.3034 H   0  0  0  0  0  0  0  0  0  0  0  0
   40.9656   24.6280   48.6302 H   0  0  0  0  0  0  0  0  0  0  0  0
   42.5537   22.5953   48.9428 H   0  0  0  0  0  0  0  0  0  0  0  0
   42.7723   22.2683   51.6194 H   0  0  0  0  0  0  0  0  0  0  0  0
   40.8563   24.3064   55.8164 H   0  0  0  0  0  0  0  0  0  0  0  0
   42.0400   22.4314   53.5963 H   0  0  0  0  0  0  0  0  0  0  0  0
   43.8952   23.8060   53.7200 H   0  0  0  0  0  0  0  0  0  0  0  0
   43.0802   24.9269   54.8615 H   0  0  0  0  0  0  0  0  0  0  0  0
   42.8973   21.3037   55.0024 H   0  0  0  0  0  0  0  0  0  0  0  0
   43.1852   21.5988   56.8055 H   0  0  0  0  0  0  0  0  0  0  0  0
   40.8592   21.2786   55.8081 H   0  0  0  0  0  0  0  0  0  0  0  0
   38.9612   23.1829   55.5624 H   0  0  0  0  0  0  0  0  0  0  0  0
   41.6250   22.0228   57.9931 H   0  0  0  0  0  0  0  0  0  0  0  0
   37.5602   27.4936   50.6271 H   0  0  0  0  0  0  0  0  0  0  0  0
   38.9318   28.7071   50.7398 H   0  0  0  0  0  0  0  0  0  0  0  0
   36.1132   29.0928   51.0474 H   0  0  0  0  0  0  0  0  0  0  0  0
   37.0340   29.5269   52.5711 H   0  0  0  0  0  0  0  0  0  0  0  0
   36.7105   31.3596   51.1279 H   0  0  0  0  0  0  0  0  0  0  0  0
   38.3811   31.0079   51.3425 H   0  0  0  0  0  0  0  0  0  0  0  0
   38.1321   32.5025   50.2884 H   0  0  0  0  0  0  0  0  0  0  0  0
   39.2537   34.2186   48.7981 H   0  0  0  0  0  0  0  0  0  0  0  0
   40.1892   32.2518   43.5446 H   0  0  0  0  0  0  0  0  0  0  0  0
   39.1738   30.4131   44.8599 H   0  0  0  0  0  0  0  0  0  0  0  0
  2 18  1  0
  2  1  2  0
  3  2  1  0
  4  3  2  0
  4  8  1  0
  5  6  1  0
  5  4  1  0
  6  7  2  0
  7  8  1  0
  8  9  2  0
  9  1  1  0
 10 16  1  0
 10 15  1  0
 11  9  1  0
 11 12  1  0
 11 10  1  0
 12 13  1  0
 13 14  1  0
 14 15  1  0
 15 17  1  0
 19 20  1  0
 19 18  1  0
 21 20  1  0
 22 21  1  0
 23 24  2  0
 23 22  1  0
 25 24  1  0
 26 25  2  0
 27 26  1  0
 27 28  2  0
 28 23  1  0
 29 30  2  0
 29 31  1  0
 31 27  1  0
  1 32  1  0
  3 33  1  0
  5 34  1  0
  6 35  1  0
  7 36  1  0
 10 37  1  1
 11 38  1  6
 12 39  1  0
 12 40  1  0
 14 41  1  0
 14 42  1  0
 15 43  1  6
 16 44  1  0
 17 45  1  0
 19 46  1  0
 19 47  1  0
 20 48  1  0
 20 49  1  0
 21 50  1  0
 21 51  1  0
 24 52  1  0
 25 53  1  0
 29 54  1  0
 31 55  1  0
M  ISO  8  32  14  33  14  34   9  35  14  36  14  37  13  38  13  39  13
M  ISO  8  40  13  41  13  42  13  43  13  44   3  45   3  46   8  47   8
M  ISO  7  48   8  49   8  50   8  51   8  52  14  53  14  54   6
M  END
>  <minimizedAffinity>  (1) 
-4.69663048

>  <minimizedRMSD>  (1) 
0.228502035

$$$$
