
     RDKit          3D

 48 50  0  0  1  0  0  0  0  0999 V2000
   37.0310   30.9170   49.0810 C   0  0  0  0  0  0  0  0  0  0  0  0
   36.7310   31.8190   50.1040 C   0  0  0  0  0  0  0  0  0  0  0  0
   37.3080   33.0770   50.1620 C   0  0  0  0  0  0  0  0  0  0  0  0
   38.2170   33.4630   49.1720 C   0  0  0  0  0  0  0  0  0  0  0  0
   38.5030   32.5720   48.1760 C   0  0  0  0  0  0  0  0  0  0  0  0
   37.9060   31.3200   48.1520 C   0  0  0  0  0  0  0  0  0  0  0  0
   36.4560   29.5900   49.0380 C   0  0  2  0  0  0  0  0  0  0  0  0
   33.5940   29.9390   46.8260 C   0  0  0  0  0  0  0  0  0  0  0  0
   32.8490   28.7990   47.0600 C   0  0  0  0  0  0  0  0  0  0  0  0
   33.2900   27.9200   48.0320 C   0  0  0  0  0  0  0  0  0  0  0  0
   34.4460   28.2070   48.7250 N   0  0  0  0  0  0  0  0  0  0  0  0
   35.1130   29.3090   48.4540 C   0  0  0  0  0  0  0  0  0  0  0  0
   34.6960   30.1820   47.5090 N   0  0  0  0  0  0  0  0  0  0  0  0
   36.9390   28.8140   49.9430 O   0  0  0  0  0  0  0  0  0  0  0  0
   38.3190   30.4670   47.0610 C   0  0  0  0  0  0  0  0  0  0  0  0
   38.8920   30.9170   45.9390 C   0  0  0  0  0  0  0  0  0  0  0  0
   39.3920   30.1370   44.7830 C   0  0  0  0  0  0  0  0  0  0  0  0
   40.2450   31.2280   43.6400 S   0  0  0  0  0  0  0  0  0  0  0  0
   40.7040   28.8910   42.2280 C   0  0  1  0  0  0  0  0  0  0  0  0
   40.3890   30.3670   42.0440 C   0  0  1  0  0  0  0  0  0  0  0  0
   39.0850   30.5770   41.3090 C   0  0  0  0  0  0  0  0  0  0  0  0
   39.1270   30.0670   40.0150 O   0  0  0  0  0  0  0  0  0  0  0  0
   40.1210   29.1020   39.8680 C   0  0  0  0  0  0  0  0  0  0  0  0
   40.0400   28.1820   41.0610 C   0  0  1  0  0  0  0  0  0  0  0  0
   42.0640   28.6940   42.2960 O   0  0  0  0  0  0  0  0  0  0  0  0
   40.6490   26.9640   40.8070 O   0  0  0  0  0  0  0  0  0  0  0  0
   36.0164   31.5222   50.8858 H   0  0  0  0  0  0  0  0  0  0  0  0
   37.0532   33.7667   50.9802 H   0  0  0  0  0  0  0  0  0  0  0  0
   38.6888   34.4564   49.1943 H   0  0  0  0  0  0  0  0  0  0  0  0
   39.2144   32.8507   47.3846 H   0  0  0  0  0  0  0  0  0  0  0  0
   36.8202   29.2323   48.0636 H   0  0  0  0  0  0  0  0  0  0  0  0
   33.2632   30.6545   46.0588 H   0  0  0  0  0  0  0  0  0  0  0  0
   31.9309   28.5964   46.4890 H   0  0  0  0  0  0  0  0  0  0  0  0
   32.7244   27.0020   48.2496 H   0  0  0  0  0  0  0  0  0  0  0  0
   36.7159   29.1725   50.8385 H   0  0  0  0  0  0  0  0  0  0  0  0
   38.1524   29.3841   47.1589 H   0  0  0  0  0  0  0  0  0  0  0  0
   39.0069   32.0085   45.8652 H   0  0  0  0  0  0  0  0  0  0  0  0
   40.0882   29.3628   45.1379 H   0  0  0  0  0  0  0  0  0  0  0  0
   38.5429   29.6628   44.2689 H   0  0  0  0  0  0  0  0  0  0  0  0
   40.3167   28.4849   43.1741 H   0  0  0  0  0  0  0  0  0  0  0  0
   41.2268   30.7759   41.4601 H   0  0  0  0  0  0  0  0  0  0  0  0
   38.2798   30.0726   41.8634 H   0  0  0  0  0  0  0  0  0  0  0  0
   38.9042   31.6599   41.2413 H   0  0  0  0  0  0  0  0  0  0  0  0
   39.9566   28.5315   38.9420 H   0  0  0  0  0  0  0  0  0  0  0  0
   41.1130   29.5736   39.8091 H   0  0  0  0  0  0  0  0  0  0  0  0
   38.9882   27.9588   41.2933 H   0  0  0  0  0  0  0  0  0  0  0  0
   42.3445   28.6534   43.2446 H   0  0  0  0  0  0  0  0  0  0  0  0
   40.8706   26.5208   41.6640 H   0  0  0  0  0  0  0  0  0  0  0  0
  1  2  2  0
  2  3  1  0
  4  3  2  0
  5  4  1  0
  6  5  2  0
  6  1  1  0
  7  1  1  0
  7 14  1  0
  8  9  2  0
  8 13  1  0
  9 10  1  0
 10 11  2  0
 12 11  1  0
 12  7  1  0
 13 12  2  0
 15  6  1  0
 16 15  2  0
 17 16  1  0
 18 17  1  0
 19 25  1  0
 20 19  1  0
 20 18  1  0
 21 20  1  0
 22 21  1  0
 23 22  1  0
 23 24  1  0
 24 26  1  0
 24 19  1  0
  2 27  1  0
  3 28  1  0
  4 29  1  0
  5 30  1  0
  7 31  1  6
  8 32  1  0
  9 33  1  0
 10 34  1  0
 14 35  1  0
 15 36  1  0
 16 37  1  0
 17 38  1  0
 17 39  1  0
 19 40  1  1
 20 41  1  6
 21 42  1  0
 21 43  1  0
 23 44  1  0
 23 45  1  0
 24 46  1  1
 25 47  1  0
 26 48  1  0
M  ISO  8  27  14  28  14  29  14  30  14  31   8  32  14  33  14  34  14
M  ISO  8  35   3  38   8  39   8  40  13  41  13  42  13  43  13  44  13
M  ISO  4  45  13  46  13  47   3  48   3
M  END
>  <minimizedAffinity>  (1) 
-6.48647165

>  <minimizedRMSD>  (1) 
0.63859123

$$$$
