
     RDKit          3D

 45 47  0  0  1  0  0  0  0  0999 V2000
   33.2110   27.2740   45.8560 C   0  0  1  0  0  0  0  0  0  0  0  0
   33.9100   27.4470   47.2230 C   0  0  2  0  0  0  0  0  0  0  0  0
   33.7460   26.2310   47.8090 O   0  0  0  0  0  0  0  0  0  0  0  0
   34.0620   25.3190   46.8200 C   0  0  0  0  0  0  0  0  0  0  0  0
   33.6080   25.8820   45.4930 C   0  0  2  0  0  0  0  0  0  0  0  0
   31.8530   27.4870   45.9780 O   0  0  0  0  0  0  0  0  0  0  0  0
   33.2790   28.5060   47.8030 O   0  0  0  0  0  0  0  0  0  0  0  0
   35.3440   29.7900   46.7770 O   0  0  0  0  0  0  0  0  0  0  0  0
   34.0820   29.9720   47.6060 P   0  0  1  0  0  0  0  0  0  0  0  0
   33.1230   31.0460   46.7120 O   0  0  0  0  0  0  0  0  0  0  0  0
   34.3790   30.5840   49.1710 O   0  0  0  0  0  0  0  0  0  0  0  0
   35.6170   30.4790   49.7770 C   0  0  0  0  0  0  0  0  0  0  0  0
   35.9700   29.4610   50.6880 C   0  0  0  0  0  0  0  0  0  0  0  0
   37.2540   29.4810   51.2200 C   0  0  0  0  0  0  0  0  0  0  0  0
   38.1040   30.4780   50.8400 N   0  0  0  0  0  0  0  0  0  0  0  0
   37.7370   31.4470   49.9600 C   0  0  0  0  0  0  0  0  0  0  0  0
   36.4840   31.4500   49.4220 N   0  0  0  0  0  0  0  0  0  0  0  0
   34.6480   25.8830   44.5840 O   0  0  0  0  0  0  0  0  0  0  0  0
   36.4480   24.3690   44.1420 C   0  0  2  0  0  0  0  0  0  0  0  0
   34.9670   24.6120   44.1100 C   0  0  2  0  0  0  0  0  0  0  0  0
   34.3400   24.4910   42.7630 C   0  0  0  0  0  0  0  0  0  0  0  0
   34.9550   23.5920   41.9100 O   0  0  0  0  0  0  0  0  0  0  0  0
   36.2740   23.9840   41.7240 C   0  0  0  0  0  0  0  0  0  0  0  0
   36.9950   23.5880   42.9950 C   0  0  1  0  0  0  0  0  0  0  0  0
   36.8690   23.7130   45.3020 O   0  0  0  0  0  0  0  0  0  0  0  0
   38.3430   23.9120   42.8150 O   0  0  0  0  0  0  0  0  0  0  0  0
   33.4965   27.9903   45.0715 H   0  0  0  0  0  0  0  0  0  0  0  0
   34.9837   27.6842   47.2521 H   0  0  0  0  0  0  0  0  0  0  0  0
   35.1492   25.1526   46.8011 H   0  0  0  0  0  0  0  0  0  0  0  0
   33.5617   24.3591   47.0156 H   0  0  0  0  0  0  0  0  0  0  0  0
   32.8001   25.3064   45.0177 H   0  0  0  0  0  0  0  0  0  0  0  0
   31.6098   27.5251   46.9369 H   0  0  0  0  0  0  0  0  0  0  0  0
   32.6083   31.6224   47.3309 H   0  0  0  0  0  0  0  0  0  0  0  0
   35.2518   28.6764   50.9683 H   0  0  0  0  0  0  0  0  0  0  0  0
   37.5781   28.7086   51.9329 H   0  0  0  0  0  0  0  0  0  0  0  0
   38.4544   32.2326   49.6805 H   0  0  0  0  0  0  0  0  0  0  0  0
   36.8414   25.3951   44.0930 H   0  0  0  0  0  0  0  0  0  0  0  0
   34.5661   23.8162   44.7549 H   0  0  0  0  0  0  0  0  0  0  0  0
   33.2962   24.1720   42.9000 H   0  0  0  0  0  0  0  0  0  0  0  0
   34.4364   25.4791   42.2894 H   0  0  0  0  0  0  0  0  0  0  0  0
   36.7105   23.4666   40.8569 H   0  0  0  0  0  0  0  0  0  0  0  0
   36.3558   25.0631   41.5269 H   0  0  0  0  0  0  0  0  0  0  0  0
   36.8672   22.5158   43.2051 H   0  0  0  0  0  0  0  0  0  0  0  0
   36.5500   24.2101   46.0965 H   0  0  0  0  0  0  0  0  0  0  0  0
   38.7780   24.0166   43.6981 H   0  0  0  0  0  0  0  0  0  0  0  0
  1  6  1  0
  1  2  1  0
  2  7  1  0
  2  3  1  0
  4  3  1  0
  5  1  1  0
  5  4  1  0
  9  8  2  0
  9  7  1  0
  9 11  1  0
 10  9  1  0
 11 12  1  0
 12 13  2  0
 13 14  1  0
 15 14  2  0
 16 15  1  0
 17 12  1  0
 17 16  2  0
 18  5  1  0
 19 25  1  0
 20 19  1  0
 20 18  1  0
 21 20  1  0
 22 21  1  0
 23 22  1  0
 23 24  1  0
 24 26  1  0
 24 19  1  0
  1 27  1  6
  2 28  1  6
  4 29  1  0
  4 30  1  0
  5 31  1  6
  6 32  1  0
 10 33  1  0
 13 34  1  0
 14 35  1  0
 16 36  1  0
 19 37  1  1
 20 38  1  1
 21 39  1  0
 21 40  1  0
 23 41  1  0
 23 42  1  0
 24 43  1  1
 25 44  1  0
 26 45  1  0
M  ISO  8  27  13  28  13  29  13  30  13  31  13  32   3  33   3  34  14
M  ISO  8  35  14  36  14  37  13  38  13  39  13  40  13  41  13  42  13
M  ISO  3  43  13  44   3  45   3
M  END
>  <minimizedAffinity>  (1) 
-4.25029993

>  <minimizedRMSD>  (1) 
1.30924416

$$$$
