
     RDKit          3D

 27 28  0  0  1  0  0  0  0  0999 V2000
   38.4550   31.3920   49.0650 C   0  0  1  0  0  0  0  0  0  0  0  0
   37.6950   30.5390   48.0730 C   0  0  2  0  0  0  0  0  0  0  0  0
   38.3130   30.8130   46.7030 C   0  0  0  0  0  0  0  0  0  0  0  0
   39.4630   31.5660   46.7630 O   0  0  0  0  0  0  0  0  0  0  0  0
   39.3400   32.8020   47.3380 C   0  0  0  0  0  0  0  0  0  0  0  0
   38.4430   32.8020   48.5670 C   0  0  2  0  0  0  0  0  0  0  0  0
   37.9970   31.2240   50.3610 O   0  0  0  0  0  0  0  0  0  0  0  0
   38.9740   33.6640   49.5440 O   0  0  0  0  0  0  0  0  0  0  0  0
   36.3230   30.8360   48.0780 O   0  0  0  0  0  0  0  0  0  0  0  0
   35.4860   28.9640   49.1560 C   0  0  0  0  0  0  0  0  0  0  0  0
   35.2920   29.9280   48.1440 C   0  0  0  0  0  0  0  0  0  0  0  0
   34.1410   29.8490   47.3750 C   0  0  0  0  0  0  0  0  0  0  0  0
   33.2660   28.8560   47.6340 N   0  0  0  0  0  0  0  0  0  0  0  0
   33.4610   27.9490   48.5950 C   0  0  0  0  0  0  0  0  0  0  0  0
   34.5760   27.9820   49.3770 N   0  0  0  0  0  0  0  0  0  0  0  0
   39.5048   31.0702   49.1309 H   0  0  0  0  0  0  0  0  0  0  0  0
   37.7737   29.4743   48.3379 H   0  0  0  0  0  0  0  0  0  0  0  0
   37.5756   31.3510   46.0891 H   0  0  0  0  0  0  0  0  0  0  0  0
   38.5846   29.8395   46.2687 H   0  0  0  0  0  0  0  0  0  0  0  0
   40.3401   33.1513   47.6345 H   0  0  0  0  0  0  0  0  0  0  0  0
   38.8760   33.4655   46.5933 H   0  0  0  0  0  0  0  0  0  0  0  0
   37.4241   33.1471   48.3374 H   0  0  0  0  0  0  0  0  0  0  0  0
   38.7080   31.4848   50.9987 H   0  0  0  0  0  0  0  0  0  0  0  0
   38.7586   33.3143   50.4448 H   0  0  0  0  0  0  0  0  0  0  0  0
   36.3923   29.0094   49.7777 H   0  0  0  0  0  0  0  0  0  0  0  0
   33.9465   30.5776   46.5742 H   0  0  0  0  0  0  0  0  0  0  0  0
   32.7091   27.1627   48.7576 H   0  0  0  0  0  0  0  0  0  0  0  0
  1  7  1  0
  2  9  1  0
  2  1  1  0
  3  4  1  0
  3  2  1  0
  4  5  1  0
  5  6  1  0
  6  1  1  0
  6  8  1  0
  9 11  1  0
 10 15  2  0
 11 10  1  0
 12 13  1  0
 12 11  2  0
 13 14  2  0
 14 15  1  0
  1 16  1  1
  2 17  1  1
  3 18  1  0
  3 19  1  0
  5 20  1  0
  5 21  1  0
  6 22  1  6
  7 23  1  0
  8 24  1  0
 10 25  1  0
 12 26  1  0
 14 27  1  0
M  ISO  8  16  13  17  13  18  13  19  13  20  13  21  13  22  13  23   3
M  ISO  4  24   3  25  14  26  14  27  14
M  END
>  <minimizedAffinity>  (1) 
-4.68362999

>  <minimizedRMSD>  (1) 
2.47029471

$$$$
