
     RDKit          3D

 32 33  0  0  1  0  0  0  0  0999 V2000
   36.2950   31.6290   50.2720 O   0  0  0  0  0  0  0  0  0  0  0  0
   37.2550   30.9230   49.3330 P   0  0  1  0  0  0  0  0  0  0  0  0
   38.7120   30.6390   50.1740 O   0  0  0  0  0  0  0  0  0  0  0  0
   36.6150   29.3870   48.9880 O   0  0  0  0  0  0  0  0  0  0  0  0
   34.5560   28.1920   49.2630 C   0  0  0  0  0  0  0  0  0  0  0  0
   35.3540   29.1080   48.5420 C   0  0  0  0  0  0  0  0  0  0  0  0
   34.7630   29.6590   47.4090 C   0  0  0  0  0  0  0  0  0  0  0  0
   33.5000   29.3180   47.0450 N   0  0  0  0  0  0  0  0  0  0  0  0
   32.7840   28.4290   47.7830 C   0  0  0  0  0  0  0  0  0  0  0  0
   33.3220   27.8760   48.8860 N   0  0  0  0  0  0  0  0  0  0  0  0
   37.4800   31.8860   47.9990 O   0  0  0  0  0  0  0  0  0  0  0  0
   39.5170   32.0890   46.8910 C   0  0  1  0  0  0  0  0  0  0  0  0
   38.2230   31.3070   46.9870 C   0  0  2  0  0  0  0  0  0  0  0  0
   37.5370   31.3140   45.6570 C   0  0  0  0  0  0  0  0  0  0  0  0
   37.7480   32.4530   44.9010 O   0  0  0  0  0  0  0  0  0  0  0  0
   39.0680   32.6620   44.5710 C   0  0  0  0  0  0  0  0  0  0  0  0
   40.0200   31.8830   45.4620 C   0  0  1  0  0  0  0  0  0  0  0  0
   39.3520   33.4520   47.0420 O   0  0  0  0  0  0  0  0  0  0  0  0
   41.3110   32.3370   45.3310 O   0  0  0  0  0  0  0  0  0  0  0  0
   38.5422   30.6721   51.1488 H   0  0  0  0  0  0  0  0  0  0  0  0
   34.9708   27.7242   50.1680 H   0  0  0  0  0  0  0  0  0  0  0  0
   35.3268   30.3808   46.7998 H   0  0  0  0  0  0  0  0  0  0  0  0
   31.7618   28.1607   47.4779 H   0  0  0  0  0  0  0  0  0  0  0  0
   40.1903   31.7381   47.6869 H   0  0  0  0  0  0  0  0  0  0  0  0
   38.3828   30.2474   47.2352 H   0  0  0  0  0  0  0  0  0  0  0  0
   37.8984   30.4493   45.0811 H   0  0  0  0  0  0  0  0  0  0  0  0
   36.4576   31.2765   45.8654 H   0  0  0  0  0  0  0  0  0  0  0  0
   39.2249   32.3490   43.5282 H   0  0  0  0  0  0  0  0  0  0  0  0
   39.2817   33.7323   44.7082 H   0  0  0  0  0  0  0  0  0  0  0  0
   40.0382   30.8182   45.1867 H   0  0  0  0  0  0  0  0  0  0  0  0
   39.3248   33.6763   48.0059 H   0  0  0  0  0  0  0  0  0  0  0  0
   41.7048   32.4755   46.2287 H   0  0  0  0  0  0  0  0  0  0  0  0
  2  3  1  0
  2  1  2  0
  4  2  1  0
  6  4  1  0
  6  5  2  0
  7  6  1  0
  8  7  2  0
  8  9  1  0
  9 10  2  0
 10  5  1  0
 11  2  1  0
 12 13  1  0
 12 18  1  0
 13 11  1  0
 14 13  1  0
 15 14  1  0
 16 15  1  0
 16 17  1  0
 17 19  1  0
 17 12  1  0
  3 20  1  0
  5 21  1  0
  7 22  1  0
  9 23  1  0
 12 24  1  1
 13 25  1  1
 14 26  1  0
 14 27  1  0
 16 28  1  0
 16 29  1  0
 17 30  1  6
 18 31  1  0
 19 32  1  0
M  ISO  8  20   3  21  14  22  14  23  14  24  13  25  13  26  13  27  13
M  ISO  5  28  13  29  13  30  13  31   3  32   3
M  END
>  <minimizedAffinity>  (1) 
-5.45971441

>  <minimizedRMSD>  (1) 
3.69539261

$$$$
