
     RDKit          3D

 37 39  0  0  1  0  0  0  0  0999 V2000
   36.4160   29.7040   49.3060 C   0  0  0  0  0  0  0  0  0  0  0  0
   36.4980   30.6460   48.2370 C   0  0  0  0  0  0  0  0  0  0  0  0
   35.6540   30.4480   47.1660 C   0  0  0  0  0  0  0  0  0  0  0  0
   34.7990   29.3900   47.1730 N   0  0  0  0  0  0  0  0  0  0  0  0
   34.7370   28.5220   48.1800 C   0  0  0  0  0  0  0  0  0  0  0  0
   35.5490   28.6700   49.2670 N   0  0  0  0  0  0  0  0  0  0  0  0
   37.4340   31.7010   48.3600 N   0  0  0  0  0  0  0  0  0  0  0  0
   37.5170   32.4690   49.4480 C   0  0  0  0  0  0  0  0  0  0  0  0
   38.4650   33.4950   49.5010 C   0  0  0  0  0  0  0  0  0  0  0  0
   39.2450   33.6120   48.3830 C   0  0  0  0  0  0  0  0  0  0  0  0
   40.1110   34.5390   48.4130 O   0  0  0  0  0  0  0  0  0  0  0  0
   39.1900   32.8690   47.2850 N   0  0  0  0  0  0  0  0  0  0  0  0
   38.2540   31.8860   47.2830 C   0  0  0  0  0  0  0  0  0  0  0  0
   38.1880   31.1600   46.2330 O   0  0  0  0  0  0  0  0  0  0  0  0
   33.8730   27.4450   48.1990 O   0  0  0  0  0  0  0  0  0  0  0  0
   31.5620   26.7360   48.4440 C   0  0  1  0  0  0  0  0  0  0  0  0
   32.6240   27.3790   47.5990 C   0  0  1  0  0  0  0  0  0  0  0  0
   32.1030   28.7590   47.1980 C   0  0  0  0  0  0  0  0  0  0  0  0
   31.0090   28.6300   46.3660 O   0  0  0  0  0  0  0  0  0  0  0  0
   29.9570   27.9560   46.9290 C   0  0  0  0  0  0  0  0  0  0  0  0
   30.2110   27.4040   48.2920 C   0  0  2  0  0  0  0  0  0  0  0  0
   31.4000   25.3950   48.0680 O   0  0  0  0  0  0  0  0  0  0  0  0
   30.0240   28.3670   49.3020 O   0  0  0  0  0  0  0  0  0  0  0  0
   37.0731   29.8230   50.1801 H   0  0  0  0  0  0  0  0  0  0  0  0
   35.6715   31.1405   46.3115 H   0  0  0  0  0  0  0  0  0  0  0  0
   36.8425   32.2956   50.2994 H   0  0  0  0  0  0  0  0  0  0  0  0
   38.5752   34.1563   50.3731 H   0  0  0  0  0  0  0  0  0  0  0  0
   39.8182   33.0282   46.4844 H   0  0  0  0  0  0  0  0  0  0  0  0
   31.8982   26.8337   49.4868 H   0  0  0  0  0  0  0  0  0  0  0  0
   32.8021   26.7491   46.7150 H   0  0  0  0  0  0  0  0  0  0  0  0
   31.8095   29.3137   48.1014 H   0  0  0  0  0  0  0  0  0  0  0  0
   32.8975   29.3030   46.6662 H   0  0  0  0  0  0  0  0  0  0  0  0
   29.1057   28.6494   46.9961 H   0  0  0  0  0  0  0  0  0  0  0  0
   29.7680   27.0887   46.2793 H   0  0  0  0  0  0  0  0  0  0  0  0
   29.4536   26.6158   48.4150 H   0  0  0  0  0  0  0  0  0  0  0  0
   31.3319   24.8309   48.8787 H   0  0  0  0  0  0  0  0  0  0  0  0
   30.1078   27.9354   50.1890 H   0  0  0  0  0  0  0  0  0  0  0  0
  2  7  1  0
  2  1  2  0
  3  4  2  0
  3  2  1  0
  4  5  1  0
  5 15  1  0
  5  6  2  0
  6  1  1  0
  7  8  1  0
  8  9  2  0
 10 11  2  0
 10  9  1  0
 12 10  1  0
 13 12  1  0
 13  7  1  0
 14 13  2  0
 16 22  1  0
 17 15  1  0
 17 16  1  0
 18 17  1  0
 19 20  1  0
 19 18  1  0
 20 21  1  0
 21 16  1  0
 21 23  1  0
  1 24  1  0
  3 25  1  0
  8 26  1  0
  9 27  1  0
 12 28  1  0
 16 29  1  1
 17 30  1  6
 18 31  1  0
 18 32  1  0
 20 33  1  0
 20 34  1  0
 21 35  1  1
 22 36  1  0
 23 37  1  0
M  ISO  8  24  14  25  14  26  14  27  14  28   9  29  13  30  13  31  13
M  ISO  6  32  13  33  13  34  13  35  13  36   3  37   3
M  END
>  <minimizedAffinity>  (1) 
-5.73272562

>  <minimizedRMSD>  (1) 
0.626225054

$$$$
