
     RDKit          3D

 47 50  0  0  0  0  0  0  0  0999 V2000
   34.2330   28.9780   48.0990 C   0  0  0  0  0  0  0  0  0  0  0  0
   33.4360   27.9290   47.3990 C   0  0  0  0  0  0  0  0  0  0  0  0
   31.9720   28.0590   47.6330 C   0  0  0  0  0  0  0  0  0  0  0  0
   31.4430   27.4410   48.7540 C   0  0  0  0  0  0  0  0  0  0  0  0
   30.1100   27.5010   49.0570 C   0  0  0  0  0  0  0  0  0  0  0  0
   29.2990   28.1700   48.2520 N   0  0  0  0  0  0  0  0  0  0  0  0
   29.8130   28.7810   47.1450 C   0  0  0  0  0  0  0  0  0  0  0  0
   31.1220   28.7370   46.8260 N   0  0  0  0  0  0  0  0  0  0  0  0
   28.8870   29.5280   46.2520 C   0  0  0  0  0  0  0  0  0  0  0  0
   28.1250   28.6220   45.3770 C   0  0  0  0  0  0  0  0  0  0  0  0
   26.7420   28.8300   45.4250 C   0  0  0  0  0  0  0  0  0  0  0  0
   25.9440   28.0100   44.6220 C   0  0  0  0  0  0  0  0  0  0  0  0
   26.4600   27.0240   43.8030 C   0  0  0  0  0  0  0  0  0  0  0  0
   27.8500   26.8800   43.8110 C   0  0  0  0  0  0  0  0  0  0  0  0
   28.6250   27.6670   44.5830 N   0  0  0  0  0  0  0  0  0  0  0  0
   34.9940   28.4290   49.1540 O   0  0  0  0  0  0  0  0  0  0  0  0
   37.2180   30.0920   51.4580 C   0  0  0  0  0  0  0  0  0  0  0  0
   38.0030   30.8440   50.5580 C   0  0  0  0  0  0  0  0  0  0  0  0
   37.7060   30.7230   49.2030 C   0  0  0  0  0  0  0  0  0  0  0  0
   36.6810   29.8850   48.8790 N   0  0  0  0  0  0  0  0  0  0  0  0
   35.9530   29.1860   49.7420 C   0  0  0  0  0  0  0  0  0  0  0  0
   36.2370   29.3000   51.0580 N   0  0  0  0  0  0  0  0  0  0  0  0
   38.8000   33.4100   49.2130 F   0  0  0  0  0  0  0  0  0  0  0  0
   38.9100   32.6490   48.1220 C   0  0  0  0  0  0  0  0  0  0  0  0
   38.3990   31.4120   48.1360 C   0  0  0  0  0  0  0  0  0  0  0  0
   38.5670   30.7020   46.9460 C   0  0  0  0  0  0  0  0  0  0  0  0
   39.2090   31.2410   45.8550 C   0  0  0  0  0  0  0  0  0  0  0  0
   39.7180   32.5220   45.8910 C   0  0  0  0  0  0  0  0  0  0  0  0
   39.5560   33.2170   47.0480 C   0  0  0  0  0  0  0  0  0  0  0  0
   33.5474   29.7346   48.5084 H   0  0  0  0  0  0  0  0  0  0  0  0
   34.9243   29.4298   47.3723 H   0  0  0  0  0  0  0  0  0  0  0  0
   33.7624   26.9421   47.7590 H   0  0  0  0  0  0  0  0  0  0  0  0
   33.6089   28.0497   46.3194 H   0  0  0  0  0  0  0  0  0  0  0  0
   32.1162   26.8840   49.4223 H   0  0  0  0  0  0  0  0  0  0  0  0
   29.7183   27.0013   49.9552 H   0  0  0  0  0  0  0  0  0  0  0  0
   28.1820   30.1030   46.8703 H   0  0  0  0  0  0  0  0  0  0  0  0
   29.4876   30.1945   45.6156 H   0  0  0  0  0  0  0  0  0  0  0  0
   26.3013   29.6063   46.0677 H   0  0  0  0  0  0  0  0  0  0  0  0
   24.8540   28.1566   44.6431 H   0  0  0  0  0  0  0  0  0  0  0  0
   25.8134   26.3885   43.1801 H   0  0  0  0  0  0  0  0  0  0  0  0
   28.3187   26.1125   43.1775 H   0  0  0  0  0  0  0  0  0  0  0  0
   37.4303   30.1675   52.5347 H   0  0  0  0  0  0  0  0  0  0  0  0
   38.8142   31.4973   50.9116 H   0  0  0  0  0  0  0  0  0  0  0  0
   38.1729   29.6773   46.8782 H   0  0  0  0  0  0  0  0  0  0  0  0
   39.3179   30.6407   44.9397 H   0  0  0  0  0  0  0  0  0  0  0  0
   40.2316   32.9614   45.0232 H   0  0  0  0  0  0  0  0  0  0  0  0
   39.9449   34.2430   47.1264 H   0  0  0  0  0  0  0  0  0  0  0  0
  1 16  1  0
  2  3  1  0
  2  1  1  0
  3  4  2  0
  4  5  1  0
  6  5  2  0
  7  6  1  0
  8  7  2  0
  8  3  1  0
  9  7  1  0
 10 11  2  0
 10  9  1  0
 12 11  1  0
 13 14  1  0
 13 12  2  0
 14 15  2  0
 15 10  1  0
 16 21  1  0
 18 17  2  0
 19 18  1  0
 20 19  2  0
 20 21  1  0
 21 22  2  0
 22 17  1  0
 24 25  2  0
 24 23  1  0
 25 19  1  0
 26 25  1  0
 27 28  1  0
 27 26  2  0
 28 29  2  0
 29 24  1  0
  1 30  1  0
  1 31  1  0
  2 32  1  0
  2 33  1  0
  4 34  1  0
  5 35  1  0
  9 36  1  0
  9 37  1  0
 11 38  1  0
 12 39  1  0
 13 40  1  0
 14 41  1  0
 17 42  1  0
 18 43  1  0
 26 44  1  0
 27 45  1  0
 28 46  1  0
 29 47  1  0
M  ISO  8  30   8  31   8  32   8  33   8  34  14  35  14  36   8  37   8
M  ISO  8  38  14  39  14  40  14  41  14  42  14  43  14  44  14  45  14
M  ISO  2  46  14  47  14
M  END
>  <minimizedAffinity>  (1) 
-6.60532713

>  <minimizedRMSD>  (1) 
0.874090314

$$$$
