
     RDKit          3D

 24 25  0  0  0  0  0  0  0  0999 V2000
   37.7400   30.5450   48.1120 C   0  0  0  0  0  0  0  0  0  0  0  0
   36.3530   30.7250   48.2150 C   0  0  0  0  0  0  0  0  0  0  0  0
   35.8050   31.0050   49.4430 C   0  0  0  0  0  0  0  0  0  0  0  0
   36.6520   31.0940   50.5100 N   0  0  0  0  0  0  0  0  0  0  0  0
   37.9810   30.9210   50.4060 C   0  0  0  0  0  0  0  0  0  0  0  0
   38.5030   30.6500   49.2170 N   0  0  0  0  0  0  0  0  0  0  0  0
   34.6510   29.5010   47.0000 C   0  0  0  0  0  0  0  0  0  0  0  0
   34.4430   28.4230   47.6720 O   0  0  0  0  0  0  0  0  0  0  0  0
   35.4640   30.6400   47.1440 N   0  0  0  0  0  0  0  0  0  0  0  0
   38.1460   30.2710   46.8230 O   0  0  0  0  0  0  0  0  0  0  0  0
   38.8210   31.1790   46.0230 C   0  0  0  0  0  0  0  0  0  0  0  0
   40.1910   31.1720   46.0220 C   0  0  0  0  0  0  0  0  0  0  0  0
   40.7620   32.1210   45.1860 C   0  0  0  0  0  0  0  0  0  0  0  0
   40.0640   33.0170   44.4040 C   0  0  0  0  0  0  0  0  0  0  0  0
   38.6890   32.9130   44.5030 C   0  0  0  0  0  0  0  0  0  0  0  0
   38.0610   32.0220   45.2870 N   0  0  0  0  0  0  0  0  0  0  0  0
   34.7215   31.1524   49.5625 H   0  0  0  0  0  0  0  0  0  0  0  0
   38.6259   31.0029   51.2934 H   0  0  0  0  0  0  0  0  0  0  0  0
   34.0412   29.5417   46.0854 H   0  0  0  0  0  0  0  0  0  0  0  0
   35.4028   31.4084   46.4608 H   0  0  0  0  0  0  0  0  0  0  0  0
   40.7861   30.4752   46.6305 H   0  0  0  0  0  0  0  0  0  0  0  0
   41.8604   32.1619   45.1437 H   0  0  0  0  0  0  0  0  0  0  0  0
   40.5602   33.7536   43.7551 H   0  0  0  0  0  0  0  0  0  0  0  0
   38.0733   33.6005   43.9044 H   0  0  0  0  0  0  0  0  0  0  0  0
  1  2  2  0
  1  6  1  0
  2  3  1  0
  3  4  2  0
  5  4  1  0
  6  5  2  0
  7  9  1  0
  7  8  2  0
  9  2  1  0
 10  1  1  0
 11 10  1  0
 12 11  2  0
 13 12  1  0
 14 15  1  0
 14 13  2  0
 15 16  2  0
 16 11  1  0
  3 17  1  0
  5 18  1  0
  7 19  1  0
  9 20  1  0
 12 21  1  0
 13 22  1  0
 14 23  1  0
 15 24  1  0
M  ISO  7  17  14  18  14  19   6  21  14  22  14  23  14  24  14
M  END
>  <minimizedAffinity>  (1) 
-4.82708311

>  <minimizedRMSD>  (1) 
7.08902645

$$$$
