
     RDKit          3D

 39 41  0  0  1  0  0  0  0  0999 V2000
   37.0550   29.2070   50.6660 C   0  0  0  0  0  0  0  0  0  0  0  0
   36.6150   29.0940   49.3500 C   0  0  0  0  0  0  0  0  0  0  0  0
   35.2830   29.1900   49.0050 C   0  0  0  0  0  0  0  0  0  0  0  0
   34.4580   29.4000   50.0510 N   0  0  0  0  0  0  0  0  0  0  0  0
   34.8370   29.5150   51.3330 C   0  0  0  0  0  0  0  0  0  0  0  0
   36.1540   29.4150   51.6260 N   0  0  0  0  0  0  0  0  0  0  0  0
   34.8440   29.0810   47.6830 N   0  0  0  0  0  0  0  0  0  0  0  0
   34.1660   27.8620   47.3360 C   0  0  0  0  0  0  0  0  0  0  0  0
   33.7160   27.7610   45.9200 C   0  0  0  0  0  0  0  0  0  0  0  0
   33.7150   28.9310   45.1610 N   0  0  0  0  0  0  0  0  0  0  0  0
   34.7760   29.8500   45.3490 C   0  0  0  0  0  0  0  0  0  0  0  0
   35.0850   30.1720   46.7790 C   0  0  2  0  0  0  0  0  0  0  0  0
   36.5040   30.6700   46.7980 C   0  0  0  0  0  0  0  0  0  0  0  0
   36.9620   30.7410   45.3470 C   0  0  0  0  0  0  0  0  0  0  0  0
   38.3760   31.2860   45.2930 C   0  0  0  0  0  0  0  0  0  0  0  0
   39.5180   30.6180   45.6620 C   0  0  0  0  0  0  0  0  0  0  0  0
   40.7270   31.2770   45.5440 C   0  0  0  0  0  0  0  0  0  0  0  0
   40.7620   32.5870   45.0590 C   0  0  0  0  0  0  0  0  0  0  0  0
   39.5870   33.2270   44.6960 C   0  0  0  0  0  0  0  0  0  0  0  0
   38.4430   32.5630   44.8240 N   0  0  0  0  0  0  0  0  0  0  0  0
   38.1248   29.1262   50.9087 H   0  0  0  0  0  0  0  0  0  0  0  0
   37.3568   28.9218   48.5562 H   0  0  0  0  0  0  0  0  0  0  0  0
   34.0948   29.6864   52.1266 H   0  0  0  0  0  0  0  0  0  0  0  0
   34.8509   27.0245   47.5348 H   0  0  0  0  0  0  0  0  0  0  0  0
   33.2512   27.8402   47.9465 H   0  0  0  0  0  0  0  0  0  0  0  0
   34.3762   27.0407   45.4147 H   0  0  0  0  0  0  0  0  0  0  0  0
   32.6583   27.4654   45.9818 H   0  0  0  0  0  0  0  0  0  0  0  0
   32.8382   29.4297   45.3693 H   0  0  0  0  0  0  0  0  0  0  0  0
   35.6814   29.4251   44.8910 H   0  0  0  0  0  0  0  0  0  0  0  0
   34.4539   30.7929   44.8829 H   0  0  0  0  0  0  0  0  0  0  0  0
   34.3997   30.9456   47.1556 H   0  0  0  0  0  0  0  0  0  0  0  0
   36.5496   31.6676   47.2593 H   0  0  0  0  0  0  0  0  0  0  0  0
   37.1505   30.0009   47.3849 H   0  0  0  0  0  0  0  0  0  0  0  0
   36.9394   29.7340   44.9050 H   0  0  0  0  0  0  0  0  0  0  0  0
   36.2904   31.4032   44.7810 H   0  0  0  0  0  0  0  0  0  0  0  0
   39.4715   29.5865   46.0412 H   0  0  0  0  0  0  0  0  0  0  0  0
   41.6604   30.7710   45.8315 H   0  0  0  0  0  0  0  0  0  0  0  0
   41.7242   33.1117   44.9650 H   0  0  0  0  0  0  0  0  0  0  0  0
   39.6013   34.2577   44.3120 H   0  0  0  0  0  0  0  0  0  0  0  0
  1  6  2  0
  2  1  1  0
  3  2  2  0
  3  4  1  0
  4  5  2  0
  5  6  1  0
  7  3  1  0
  8  7  1  0
  9  8  1  0
 10 11  1  0
 10  9  1  0
 11 12  1  0
 12 13  1  0
 12  7  1  0
 14 13  1  0
 15 14  1  0
 15 16  2  0
 17 16  1  0
 18 17  2  0
 19 20  2  0
 19 18  1  0
 20 15  1  0
  1 21  1  0
  2 22  1  0
  5 23  1  0
  8 24  1  0
  8 25  1  0
  9 26  1  0
  9 27  1  0
 10 28  1  0
 11 29  1  0
 11 30  1  0
 12 31  1  1
 13 32  1  0
 13 33  1  0
 14 34  1  0
 14 35  1  0
 16 36  1  0
 17 37  1  0
 18 38  1  0
 19 39  1  0
M  ISO  8  21  14  22  14  23  14  24  13  25  13  26  13  27  13  28   5
M  ISO  8  29  13  30  13  31  13  32   8  33   8  34   8  35   8  36  14
M  ISO  3  37  14  38  14  39  14
M  END
>  <minimizedAffinity>  (1) 
-5.0189085

>  <minimizedRMSD>  (1) 
5.48643541

$$$$
