
     RDKit          3D

 23 24  0  0  0  0  0  0  0  0999 V2000
   37.1020   31.7140   48.5600 C   0  0  0  0  0  0  0  0  0  0  0  0
   36.2330   30.6060   49.0410 C   0  0  0  0  0  0  0  0  0  0  0  0
   35.5680   29.9390   48.0040 C   0  0  0  0  0  0  0  0  0  0  0  0
   34.6890   28.8640   48.1530 C   0  0  0  0  0  0  0  0  0  0  0  0
   34.4860   28.4520   49.4740 C   0  0  0  0  0  0  0  0  0  0  0  0
   35.1500   29.1220   50.4800 C   0  0  0  0  0  0  0  0  0  0  0  0
   36.0000   30.1700   50.2760 N   0  0  0  0  0  0  0  0  0  0  0  0
   38.7380   31.1400   48.0540 S   0  0  0  0  0  0  0  0  0  0  0  0
   38.9960   31.6350   46.3610 C   0  0  0  0  0  0  0  0  0  0  0  0
   40.2300   31.2360   45.8390 C   0  0  0  0  0  0  0  0  0  0  0  0
   40.5240   31.5840   44.5110 C   0  0  0  0  0  0  0  0  0  0  0  0
   39.6150   32.2850   43.7890 N   0  0  0  0  0  0  0  0  0  0  0  0
   38.4320   32.6440   44.3500 C   0  0  0  0  0  0  0  0  0  0  0  0
   38.1300   32.3270   45.6010 N   0  0  0  0  0  0  0  0  0  0  0  0
   36.6153   32.1958   47.6992 H   0  0  0  0  0  0  0  0  0  0  0  0
   37.2380   32.4183   49.3940 H   0  0  0  0  0  0  0  0  0  0  0  0
   35.7551   30.2940   46.9798 H   0  0  0  0  0  0  0  0  0  0  0  0
   34.1949   28.3792   47.2981 H   0  0  0  0  0  0  0  0  0  0  0  0
   33.8127   27.6134   49.7051 H   0  0  0  0  0  0  0  0  0  0  0  0
   34.9835   28.7897   51.5153 H   0  0  0  0  0  0  0  0  0  0  0  0
   40.9475   30.6677   46.4491 H   0  0  0  0  0  0  0  0  0  0  0  0
   41.4834   31.2906   44.0601 H   0  0  0  0  0  0  0  0  0  0  0  0
   37.7055   33.2126   43.7509 H   0  0  0  0  0  0  0  0  0  0  0  0
  1  2  1  0
  2  7  2  0
  3  4  2  0
  3  2  1  0
  4  5  1  0
  5  6  2  0
  7  6  1  0
  8  1  1  0
  9  8  1  0
 10  9  2  0
 11 10  1  0
 12 13  1  0
 12 11  2  0
 13 14  2  0
 14  9  1  0
  1 15  1  0
  1 16  1  0
  3 17  1  0
  4 18  1  0
  5 19  1  0
  6 20  1  0
 10 21  1  0
 11 22  1  0
 13 23  1  0
M  ISO  8  15   8  16   8  17  14  18  14  19  14  20  14  21  14  22  14
M  ISO  1  23  14
M  END
>  <minimizedAffinity>  (1) 
-4.16993999

>  <minimizedRMSD>  (1) 
3.5765698

$$$$
