
     RDKit          3D

 22 23  0  0  0  0  0  0  0  0999 V2000
   38.0100   32.6360   49.5920 C   0  0  0  0  0  0  0  0  0  0  0  0
   38.7110   32.6950   48.3810 C   0  0  0  0  0  0  0  0  0  0  0  0
   38.2560   31.9050   47.3360 C   0  0  0  0  0  0  0  0  0  0  0  0
   37.1620   31.1220   47.5430 N   0  0  0  0  0  0  0  0  0  0  0  0
   36.5160   31.0940   48.7240 C   0  0  0  0  0  0  0  0  0  0  0  0
   36.9470   31.8510   49.7320 N   0  0  0  0  0  0  0  0  0  0  0  0
   38.9440   31.9210   46.0490 C   0  0  0  0  0  0  0  0  0  0  0  0
   40.1510   31.2680   45.9320 C   0  0  0  0  0  0  0  0  0  0  0  0
   40.7260   31.3390   44.6740 C   0  0  0  0  0  0  0  0  0  0  0  0
   40.0890   32.0170   43.6850 C   0  0  0  0  0  0  0  0  0  0  0  0
   38.8750   32.6690   43.8180 C   0  0  0  0  0  0  0  0  0  0  0  0
   38.3430   32.5840   45.0440 N   0  0  0  0  0  0  0  0  0  0  0  0
   35.3310   30.2060   48.8500 C   0  0  0  0  0  0  0  0  0  0  0  0
   34.5530   30.5140   49.9410 F   0  0  0  0  0  0  0  0  0  0  0  0
   34.4940   30.3410   47.7290 F   0  0  0  0  0  0  0  0  0  0  0  0
   35.6410   28.8790   48.9110 F   0  0  0  0  0  0  0  0  0  0  0  0
   38.3449   33.2496   50.4413 H   0  0  0  0  0  0  0  0  0  0  0  0
   39.5908   33.3446   48.2630 H   0  0  0  0  0  0  0  0  0  0  0  0
   40.6207   30.7329   46.7705 H   0  0  0  0  0  0  0  0  0  0  0  0
   41.6915   30.8498   44.4776 H   0  0  0  0  0  0  0  0  0  0  0  0
   40.5764   32.0509   42.6995 H   0  0  0  0  0  0  0  0  0  0  0  0
   38.3908   33.2086   42.9907 H   0  0  0  0  0  0  0  0  0  0  0  0
  1  6  2  0
  2  1  1  0
  3  4  1  0
  3  2  2  0
  4  5  2  0
  5 13  1  0
  5  6  1  0
  7  3  1  0
  8  7  2  0
  9  8  1  0
 10 11  1  0
 10  9  2  0
 11 12  2  0
 12  7  1  0
 13 16  1  0
 13 14  1  0
 15 13  1  0
  1 17  1  0
  2 18  1  0
  8 19  1  0
  9 20  1  0
 10 21  1  0
 11 22  1  0
M  ISO  6  17  14  18  14  19  14  20  14  21  14  22  14
M  END
>  <minimizedAffinity>  (1) 
-5.65953159

>  <minimizedRMSD>  (1) 
2.14265347

$$$$
