
     RDKit          3D

 21 22  0  0  0  0  0  0  0  0999 V2000
   37.2060   30.0930   51.5010 C   0  0  0  0  0  0  0  0  0  0  0  0
   37.9440   30.8120   50.5440 C   0  0  0  0  0  0  0  0  0  0  0  0
   37.5910   30.6190   49.1980 C   0  0  0  0  0  0  0  0  0  0  0  0
   36.5710   29.7610   48.8950 N   0  0  0  0  0  0  0  0  0  0  0  0
   35.8960   29.0970   49.8500 C   0  0  0  0  0  0  0  0  0  0  0  0
   36.2050   29.2540   51.1670 N   0  0  0  0  0  0  0  0  0  0  0  0
   34.8620   28.2380   49.3970 N   0  0  0  0  0  0  0  0  0  0  0  0
   38.3280   31.3440   48.1670 C   0  0  0  0  0  0  0  0  0  0  0  0
   38.7560   32.6240   48.4550 C   0  0  0  0  0  0  0  0  0  0  0  0
   39.4500   33.2950   47.4740 C   0  0  0  0  0  0  0  0  0  0  0  0
   39.6480   32.6000   46.2770 C   0  0  0  0  0  0  0  0  0  0  0  0
   39.2080   31.3160   46.0110 C   0  0  0  0  0  0  0  0  0  0  0  0
   38.5390   30.7230   47.0150 N   0  0  0  0  0  0  0  0  0  0  0  0
   37.4555   30.2202   52.5648 H   0  0  0  0  0  0  0  0  0  0  0  0
   38.7579   31.4923   50.8351 H   0  0  0  0  0  0  0  0  0  0  0  0
   34.3054   27.6994   50.0760 H   0  0  0  0  0  0  0  0  0  0  0  0
   34.6678   28.1528   48.3891 H   0  0  0  0  0  0  0  0  0  0  0  0
   38.5506   33.0896   49.4302 H   0  0  0  0  0  0  0  0  0  0  0  0
   39.8267   34.3177   47.6229 H   0  0  0  0  0  0  0  0  0  0  0  0
   40.2004   33.1183   45.4794 H   0  0  0  0  0  0  0  0  0  0  0  0
   39.3920   30.8166   45.0483 H   0  0  0  0  0  0  0  0  0  0  0  0
  2  1  2  0
  3  2  1  0
  4  3  2  0
  4  5  1  0
  5  6  2  0
  6  1  1  0
  7  5  1  0
  8  9  2  0
  8  3  1  0
 10  9  1  0
 11 10  2  0
 12 11  1  0
 12 13  2  0
 13  8  1  0
  1 14  1  0
  2 15  1  0
  7 16  1  0
  7 17  1  0
  9 18  1  0
 10 19  1  0
 11 20  1  0
 12 21  1  0
M  ISO  6  14  14  15  14  18  14  19  14  20  14  21  14
M  END
>  <minimizedAffinity>  (1) 
-5.01534367

>  <minimizedRMSD>  (1) 
0.680778921

$$$$
