
     RDKit          3D

 29 31  0  0  0  0  0  0  0  0999 V2000
   37.3780   32.3740   49.7060 C   0  0  0  0  0  0  0  0  0  0  0  0
   38.3030   32.4720   48.6550 C   0  0  0  0  0  0  0  0  0  0  0  0
   38.0690   31.6570   47.5360 C   0  0  0  0  0  0  0  0  0  0  0  0
   36.9980   30.8370   47.5180 N   0  0  0  0  0  0  0  0  0  0  0  0
   36.1210   30.7690   48.5600 C   0  0  0  0  0  0  0  0  0  0  0  0
   36.3390   31.5430   49.6250 N   0  0  0  0  0  0  0  0  0  0  0  0
   35.6050   29.2120   51.0210 Cl  0  0  0  0  0  0  0  0  0  0  0  0
   34.6600   29.1000   49.5700 C   0  0  0  0  0  0  0  0  0  0  0  0
   34.9850   29.8670   48.4840 C   0  0  0  0  0  0  0  0  0  0  0  0
   34.2630   29.8140   47.3040 C   0  0  0  0  0  0  0  0  0  0  0  0
   33.1760   28.9630   47.2050 C   0  0  0  0  0  0  0  0  0  0  0  0
   32.8200   28.1700   48.2900 C   0  0  0  0  0  0  0  0  0  0  0  0
   31.4680   27.0510   48.2990 Cl  0  0  0  0  0  0  0  0  0  0  0  0
   33.5750   28.2680   49.4330 C   0  0  0  0  0  0  0  0  0  0  0  0
   39.0100   31.7330   46.4260 C   0  0  0  0  0  0  0  0  0  0  0  0
   39.7800   32.8690   46.2720 C   0  0  0  0  0  0  0  0  0  0  0  0
   40.6820   32.9400   45.2070 C   0  0  0  0  0  0  0  0  0  0  0  0
   40.6910   31.8190   44.4060 C   0  0  0  0  0  0  0  0  0  0  0  0
   39.9400   30.6720   44.5290 C   0  0  0  0  0  0  0  0  0  0  0  0
   39.0860   30.6830   45.5930 N   0  0  0  0  0  0  0  0  0  0  0  0
   37.5121   32.9903   50.6072 H   0  0  0  0  0  0  0  0  0  0  0  0
   39.1663   33.1519   48.7054 H   0  0  0  0  0  0  0  0  0  0  0  0
   34.5515   30.4445   46.4501 H   0  0  0  0  0  0  0  0  0  0  0  0
   32.5961   28.9143   46.2716 H   0  0  0  0  0  0  0  0  0  0  0  0
   33.2937   27.6415   50.2923 H   0  0  0  0  0  0  0  0  0  0  0  0
   39.6846   33.7069   46.9783 H   0  0  0  0  0  0  0  0  0  0  0  0
   41.3268   33.8123   45.0246 H   0  0  0  0  0  0  0  0  0  0  0  0
   41.3899   31.8439   43.5569 H   0  0  0  0  0  0  0  0  0  0  0  0
   40.0210   29.8240   43.8331 H   0  0  0  0  0  0  0  0  0  0  0  0
  2  1  2  0
  3  2  1  0
  4  3  2  0
  4  5  1  0
  5  6  2  0
  6  1  1  0
  8  7  1  0
  9  5  1  0
  9  8  2  0
 10  9  1  0
 11 10  2  0
 11 12  1  0
 12 13  1  0
 12 14  2  0
 14  8  1  0
 15  3  1  0
 16 15  2  0
 17 16  1  0
 18 19  1  0
 18 17  2  0
 19 20  2  0
 20 15  1  0
  1 21  1  0
  2 22  1  0
 10 23  1  0
 11 24  1  0
 14 25  1  0
 16 26  1  0
 17 27  1  0
 18 28  1  0
 19 29  1  0
M  ISO  8  21  14  22  14  23  14  24  14  25  14  26  14  27  14  28  14
M  ISO  1  29  14
M  END
>  <minimizedAffinity>  (1) 
-6.52635527

>  <minimizedRMSD>  (1) 
1.15690053

$$$$
