
     RDKit          3D

 39 42  0  0  1  0  0  0  0  0999 V2000
   38.7820   32.1390   47.5280 C   0  0  0  0  0  0  0  0  0  0  0  0
   39.4390   33.2070   47.8410 O   0  0  0  0  0  0  0  0  0  0  0  0
   37.5640   30.6700   50.7290 C   0  0  0  0  0  0  0  0  0  0  0  0
   38.3100   31.3500   49.7970 C   0  0  0  0  0  0  0  0  0  0  0  0
   37.9350   31.4240   48.4370 C   0  0  0  0  0  0  0  0  0  0  0  0
   36.8310   30.8080   48.0970 N   0  0  0  0  0  0  0  0  0  0  0  0
   36.0930   30.1290   49.0500 C   0  0  0  0  0  0  0  0  0  0  0  0
   36.4400   30.0560   50.3240 N   0  0  0  0  0  0  0  0  0  0  0  0
   34.8700   29.4660   48.5890 C   0  0  0  0  0  0  0  0  0  0  0  0
   34.2210   28.5180   49.3530 C   0  0  0  0  0  0  0  0  0  0  0  0
   33.0680   27.9340   48.8520 C   0  0  0  0  0  0  0  0  0  0  0  0
   32.5550   28.2680   47.6240 C   0  0  0  0  0  0  0  0  0  0  0  0
   33.2380   29.2320   46.8740 C   0  0  0  0  0  0  0  0  0  0  0  0
   34.3410   29.7710   47.3890 N   0  0  0  0  0  0  0  0  0  0  0  0
   38.9130   31.5970   46.1240 C   0  0  2  0  0  0  0  0  0  0  0  0
   40.4340   31.1590   45.9310 C   0  0  0  0  0  0  0  0  0  0  0  0
   39.7380   32.2580   45.1690 C   0  0  1  0  0  0  0  0  0  0  0  0
   39.6980   32.0890   43.7160 C   0  0  0  0  0  0  0  0  0  0  0  0
   38.9810   33.0240   42.9720 C   0  0  0  0  0  0  0  0  0  0  0  0
   38.9580   32.8430   41.6160 C   0  0  0  0  0  0  0  0  0  0  0  0
   39.6020   31.7980   40.9870 C   0  0  0  0  0  0  0  0  0  0  0  0
   40.2970   30.8990   41.7580 C   0  0  0  0  0  0  0  0  0  0  0  0
   40.3310   31.0620   43.1010 N   0  0  0  0  0  0  0  0  0  0  0  0
   39.6374   31.5215   47.8394 H   0  0  0  0  0  0  0  0  0  0  0  0
   39.4883   33.2872   48.8265 H   0  0  0  0  0  0  0  0  0  0  0  0
   37.8797   30.6293   51.7819 H   0  0  0  0  0  0  0  0  0  0  0  0
   39.2320   31.8547   50.1213 H   0  0  0  0  0  0  0  0  0  0  0  0
   34.6110   28.2311   50.3407 H   0  0  0  0  0  0  0  0  0  0  0  0
   32.5474   27.1783   49.4586 H   0  0  0  0  0  0  0  0  0  0  0  0
   31.6385   27.7944   47.2423 H   0  0  0  0  0  0  0  0  0  0  0  0
   32.8722   29.5372   45.8825 H   0  0  0  0  0  0  0  0  0  0  0  0
   37.8885   31.2087   46.0262 H   0  0  0  0  0  0  0  0  0  0  0  0
   41.1900   31.3932   46.6949 H   0  0  0  0  0  0  0  0  0  0  0  0
   40.9859   30.2369   45.6960 H   0  0  0  0  0  0  0  0  0  0  0  0
   39.8578   33.3409   45.0177 H   0  0  0  0  0  0  0  0  0  0  0  0
   38.4594   33.8657   43.4511 H   0  0  0  0  0  0  0  0  0  0  0  0
   38.4006   33.5636   40.9995 H   0  0  0  0  0  0  0  0  0  0  0  0
   39.5599   31.6873   39.8934 H   0  0  0  0  0  0  0  0  0  0  0  0
   40.8214   30.0539   41.2882 H   0  0  0  0  0  0  0  0  0  0  0  0
  1  2  1  0
  1  5  1  0
  4  3  2  0
  5  4  1  0
  6  5  2  0
  6  7  1  0
  7  8  2  0
  8  3  1  0
  9  7  1  0
  9 10  2  0
 11 10  1  0
 12 11  2  0
 13 14  2  0
 13 12  1  0
 14  9  1  0
 15  1  1  0
 16 15  1  0
 17 16  1  0
 17 15  1  0
 18 17  1  0
 19 18  2  0
 20 19  1  0
 21 20  2  0
 21 22  1  0
 22 23  2  0
 23 18  1  0
  1 24  1  0
  2 25  1  0
  3 26  1  0
  4 27  1  0
 10 28  1  0
 11 29  1  0
 12 30  1  0
 13 31  1  0
 15 32  1  6
 16 33  1  0
 16 34  1  0
 17 35  1  6
 19 36  1  0
 20 37  1  0
 21 38  1  0
 22 39  1  0
M  ISO  8  24   8  25   3  26  14  27  14  28  14  29  14  30  14  31  14
M  ISO  8  32  13  33  13  34  13  35  13  36  14  37  14  38  14  39  14
M  END
>  <minimizedAffinity>  (1) 
-6.21660376

>  <minimizedRMSD>  (1) 
1.79047871

$$$$
