
     RDKit          3D

 41 45  0  0  0  0  0  0  0  0999 V2000
   35.6020   29.7660   49.6640 C   0  0  0  0  0  0  0  0  0  0  0  0
   36.5730   29.6720   50.6610 C   0  0  0  0  0  0  0  0  0  0  0  0
   37.7090   30.2000   50.0580 C   0  0  0  0  0  0  0  0  0  0  0  0
   37.3930   30.5760   48.7750 C   0  0  0  0  0  0  0  0  0  0  0  0
   36.1150   30.2980   48.5760 O   0  0  0  0  0  0  0  0  0  0  0  0
   38.7660   32.4480   47.9900 C   0  0  0  0  0  0  0  0  0  0  0  0
   38.2770   31.1740   47.7860 C   0  0  0  0  0  0  0  0  0  0  0  0
   38.6120   30.4470   46.6520 C   0  0  0  0  0  0  0  0  0  0  0  0
   39.4540   30.9930   45.6930 C   0  0  0  0  0  0  0  0  0  0  0  0
   39.9550   30.5630   44.5190 N   0  0  0  0  0  0  0  0  0  0  0  0
   40.7100   31.5290   44.0360 N   0  0  0  0  0  0  0  0  0  0  0  0
   40.7130   32.5880   44.8750 C   0  0  0  0  0  0  0  0  0  0  0  0
   39.9090   32.2650   45.9510 C   0  0  0  0  0  0  0  0  0  0  0  0
   39.6150   33.0400   47.0530 C   0  0  0  0  0  0  0  0  0  0  0  0
   34.2220   29.3280   49.8340 C   0  0  0  0  0  0  0  0  0  0  0  0
   33.6270   29.6290   50.8870 O   0  0  0  0  0  0  0  0  0  0  0  0
   31.8090   27.2020   48.1280 C   0  0  0  0  0  0  0  0  0  0  0  0
   32.3240   27.0980   46.8510 C   0  0  0  0  0  0  0  0  0  0  0  0
   33.4950   27.7400   46.5360 C   0  0  0  0  0  0  0  0  0  0  0  0
   34.0890   28.4560   47.5220 N   0  0  0  0  0  0  0  0  0  0  0  0
   33.5770   28.5540   48.7740 C   0  0  0  0  0  0  0  0  0  0  0  0
   32.4270   27.9170   49.0640 N   0  0  0  0  0  0  0  0  0  0  0  0
   34.1600   27.7250   45.2380 C   0  0  0  0  0  0  0  0  0  0  0  0
   34.2720   26.5770   44.4800 C   0  0  0  0  0  0  0  0  0  0  0  0
   34.8850   26.4880   43.2480 C   0  0  0  0  0  0  0  0  0  0  0  0
   35.4410   27.6490   42.7170 C   0  0  0  0  0  0  0  0  0  0  0  0
   35.3190   28.7830   43.4910 C   0  0  0  0  0  0  0  0  0  0  0  0
   34.7120   28.8320   44.6920 N   0  0  0  0  0  0  0  0  0  0  0  0
   36.4655   29.2748   51.6811 H   0  0  0  0  0  0  0  0  0  0  0  0
   38.6975   30.3001   50.5302 H   0  0  0  0  0  0  0  0  0  0  0  0
   38.4847   33.0016   48.8980 H   0  0  0  0  0  0  0  0  0  0  0  0
   38.2083   29.4333   46.5126 H   0  0  0  0  0  0  0  0  0  0  0  0
   39.7802   29.6479   44.0798 H   0  0  0  0  0  0  0  0  0  0  0  0
   41.2558   33.5335   44.7283 H   0  0  0  0  0  0  0  0  0  0  0  0
   40.0210   34.0538   47.1846 H   0  0  0  0  0  0  0  0  0  0  0  0
   30.8707   26.6842   48.3757 H   0  0  0  0  0  0  0  0  0  0  0  0
   31.7979   26.5032   46.0898 H   0  0  0  0  0  0  0  0  0  0  0  0
   33.8356   25.6557   44.8934 H   0  0  0  0  0  0  0  0  0  0  0  0
   34.9331   25.5333   42.7037 H   0  0  0  0  0  0  0  0  0  0  0  0
   35.9464   27.6605   41.7401 H   0  0  0  0  0  0  0  0  0  0  0  0
   35.7490   29.7164   43.0988 H   0  0  0  0  0  0  0  0  0  0  0  0
  1 15  1  0
  1  2  2  0
  3  2  1  0
  4  3  2  0
  5  4  1  0
  5  1  1  0
  7  6  2  0
  7  4  1  0
  8  7  1  0
  9 13  1  0
  9  8  2  0
 10  9  1  0
 11 10  1  0
 11 12  2  0
 12 13  1  0
 13 14  2  0
 14  6  1  0
 15 16  2  0
 17 22  2  0
 18 17  1  0
 19 18  2  0
 19 20  1  0
 20 21  2  0
 21 22  1  0
 21 15  1  0
 23 19  1  0
 24 23  2  0
 25 24  1  0
 26 25  2  0
 26 27  1  0
 27 28  2  0
 28 23  1  0
  2 29  1  0
  3 30  1  0
  6 31  1  0
  8 32  1  0
 10 33  1  0
 12 34  1  0
 14 35  1  0
 17 36  1  0
 18 37  1  0
 24 38  1  0
 25 39  1  0
 26 40  1  0
 27 41  1  0
M  ISO  8  29  14  30  14  31  14  32  14  33   9  34  14  35  14  36  14
M  ISO  5  37  14  38  14  39  14  40  14  41  14
M  END
>  <minimizedAffinity>  (1) 
-6.6371069

>  <minimizedRMSD>  (1) 
1.71523023

$$$$
