
     RDKit          3D

 48 51  0  0  0  0  0  0  0  0999 V2000
   38.1710   28.2260   51.3180 C   0  0  0  0  0  0  0  0  0  0  0  0
   37.1350   29.2940   51.5730 C   0  0  0  0  0  0  0  0  0  0  0  0
   37.4640   30.5170   51.0780 C   0  0  0  0  0  0  0  0  0  0  0  0
   37.4710   30.1890   49.7500 O   0  0  0  0  0  0  0  0  0  0  0  0
   38.0690   31.0450   48.8650 C   0  0  0  0  0  0  0  0  0  0  0  0
   38.3450   32.2730   49.4180 C   0  0  0  0  0  0  0  0  0  0  0  0
   38.9630   33.2570   48.6180 C   0  0  0  0  0  0  0  0  0  0  0  0
   39.2510   32.9230   47.3270 N   0  0  0  0  0  0  0  0  0  0  0  0
   38.9610   31.6890   46.8080 C   0  0  0  0  0  0  0  0  0  0  0  0
   38.3730   30.7690   47.5920 N   0  0  0  0  0  0  0  0  0  0  0  0
   39.8680   32.5560   44.7720 C   0  0  0  0  0  0  0  0  0  0  0  0
   40.0760   33.6970   45.2710 O   0  0  0  0  0  0  0  0  0  0  0  0
   39.3070   31.4530   45.4480 N   0  0  0  0  0  0  0  0  0  0  0  0
   38.6600   27.3030   52.7630 S   0  0  0  0  0  0  0  0  0  0  0  0
   40.4960   25.2190   53.3830 C   0  0  0  0  0  0  0  0  0  0  0  0
   39.8270   26.0220   52.4530 C   0  0  0  0  0  0  0  0  0  0  0  0
   40.1310   25.7670   51.1030 C   0  0  0  0  0  0  0  0  0  0  0  0
   41.0090   24.8120   50.7150 C   0  0  0  0  0  0  0  0  0  0  0  0
   41.4780   24.3600   49.5620 N   0  0  0  0  0  0  0  0  0  0  0  0
   42.3780   23.3470   49.7140 C   0  0  0  0  0  0  0  0  0  0  0  0
   42.4710   23.1590   51.0770 C   0  0  0  0  0  0  0  0  0  0  0  0
   41.6280   24.0610   51.6980 C   0  0  0  0  0  0  0  0  0  0  0  0
   41.3860   24.2470   53.0170 C   0  0  0  0  0  0  0  0  0  0  0  0
   42.0310   23.4630   54.0630 C   0  0  0  0  0  0  0  0  0  0  0  0
   43.1880   23.8250   54.6730 C   0  0  0  0  0  0  0  0  0  0  0  0
   43.8330   23.1170   55.6660 C   0  0  0  0  0  0  0  0  0  0  0  0
   43.2610   21.9190   56.0940 C   0  0  0  0  0  0  0  0  0  0  0  0
   42.0930   21.5890   55.4520 C   0  0  0  0  0  0  0  0  0  0  0  0
   41.4970   22.3070   54.4890 N   0  0  0  0  0  0  0  0  0  0  0  0
   37.7603   27.5188   50.5824 H   0  0  0  0  0  0  0  0  0  0  0  0
   39.0724   28.7460   50.9615 H   0  0  0  0  0  0  0  0  0  0  0  0
   36.1899   28.9763   51.1084 H   0  0  0  0  0  0  0  0  0  0  0  0
   37.0561   29.4047   52.6646 H   0  0  0  0  0  0  0  0  0  0  0  0
   36.7075   31.2797   51.3149 H   0  0  0  0  0  0  0  0  0  0  0  0
   38.3898   30.9635   51.4700 H   0  0  0  0  0  0  0  0  0  0  0  0
   38.0883   32.4847   50.4665 H   0  0  0  0  0  0  0  0  0  0  0  0
   39.2029   34.2529   49.0188 H   0  0  0  0  0  0  0  0  0  0  0  0
   40.1488   32.4097   43.7185 H   0  0  0  0  0  0  0  0  0  0  0  0
   39.1584   30.5423   44.9905 H   0  0  0  0  0  0  0  0  0  0  0  0
   40.2979   25.3759   54.4536 H   0  0  0  0  0  0  0  0  0  0  0  0
   39.6336   26.3699   50.3290 H   0  0  0  0  0  0  0  0  0  0  0  0
   41.1927   24.7346   48.6459 H   0  0  0  0  0  0  0  0  0  0  0  0
   42.9124   22.8000   48.9233 H   0  0  0  0  0  0  0  0  0  0  0  0
   43.1072   22.4180   51.5832 H   0  0  0  0  0  0  0  0  0  0  0  0
   43.6530   24.7669   54.3466 H   0  0  0  0  0  0  0  0  0  0  0  0
   44.7706   23.4863   56.1071 H   0  0  0  0  0  0  0  0  0  0  0  0
   43.7078   21.2917   56.8794 H   0  0  0  0  0  0  0  0  0  0  0  0
   41.6025   20.6521   55.7546 H   0  0  0  0  0  0  0  0  0  0  0  0
  1  2  1  0
  1 14  1  0
  3  2  1  0
  4  3  1  0
  5  6  2  0
  5  4  1  0
  7  6  1  0
  8  7  2  0
  9  8  1  0
  9 10  2  0
 10  5  1  0
 11 12  2  0
 11 13  1  0
 13  9  1  0
 16 14  1  0
 16 15  2  0
 17 16  1  0
 18 17  2  0
 18 22  1  0
 19 20  1  0
 19 18  1  0
 20 21  2  0
 21 22  1  0
 22 23  2  0
 23 15  1  0
 23 24  1  0
 24 29  1  0
 24 25  2  0
 25 26  1  0
 26 27  2  0
 28 27  1  0
 29 28  2  0
  1 30  1  0
  1 31  1  0
  2 32  1  0
  2 33  1  0
  3 34  1  0
  3 35  1  0
  6 36  1  0
  7 37  1  0
 11 38  1  0
 13 39  1  0
 15 40  1  0
 17 41  1  0
 19 42  1  0
 20 43  1  0
 21 44  1  0
 25 45  1  0
 26 46  1  0
 27 47  1  0
 28 48  1  0
M  ISO  8  30   8  31   8  32   8  33   8  34   8  35   8  36  14  37  14
M  ISO  8  38   6  40  14  41  14  42   9  43  14  44  14  45  14  46  14
M  ISO  2  47  14  48  14
M  END
>  <minimizedAffinity>  (1) 
-4.37927723

>  <minimizedRMSD>  (1) 
0.305884808

$$$$
