
     RDKit          3D

 29 31  0  0  0  0  0  0  0  0999 V2000
   38.1410   31.0250   48.3470 Cl  0  0  0  0  0  0  0  0  0  0  0  0
   36.9790   30.6020   47.1190 C   0  0  0  0  0  0  0  0  0  0  0  0
   35.8050   30.0320   47.4550 C   0  0  0  0  0  0  0  0  0  0  0  0
   34.9370   29.7250   46.4260 C   0  0  0  0  0  0  0  0  0  0  0  0
   35.1980   29.9660   45.1110 C   0  0  0  0  0  0  0  0  0  0  0  0
   36.3950   30.5450   44.7930 C   0  0  0  0  0  0  0  0  0  0  0  0
   37.2980   30.8700   45.7880 C   0  0  0  0  0  0  0  0  0  0  0  0
   36.1900   29.2260   51.1350 C   0  0  0  0  0  0  0  0  0  0  0  0
   36.4910   29.4690   49.7950 C   0  0  0  0  0  0  0  0  0  0  0  0
   35.5220   29.7750   48.8570 C   0  0  0  0  0  0  0  0  0  0  0  0
   34.2470   29.8230   49.3460 N   0  0  0  0  0  0  0  0  0  0  0  0
   33.9600   29.5890   50.6360 C   0  0  0  0  0  0  0  0  0  0  0  0
   34.9140   29.2960   51.5190 N   0  0  0  0  0  0  0  0  0  0  0  0
   38.5810   31.4870   45.4900 C   0  0  0  0  0  0  0  0  0  0  0  0
   39.7730   30.8430   45.5400 C   0  0  0  0  0  0  0  0  0  0  0  0
   40.9940   31.4260   45.2580 C   0  0  0  0  0  0  0  0  0  0  0  0
   41.0200   32.7720   44.8950 C   0  0  0  0  0  0  0  0  0  0  0  0
   39.8210   33.4120   44.8460 C   0  0  0  0  0  0  0  0  0  0  0  0
   38.6550   32.7980   45.1310 N   0  0  0  0  0  0  0  0  0  0  0  0
   33.9756   29.2570   46.6841 H   0  0  0  0  0  0  0  0  0  0  0  0
   34.4692   29.7032   44.3301 H   0  0  0  0  0  0  0  0  0  0  0  0
   36.6405   30.7531   43.7411 H   0  0  0  0  0  0  0  0  0  0  0  0
   36.9839   28.9829   51.8566 H   0  0  0  0  0  0  0  0  0  0  0  0
   37.5409   29.4151   49.4714 H   0  0  0  0  0  0  0  0  0  0  0  0
   32.9138   29.6402   50.9719 H   0  0  0  0  0  0  0  0  0  0  0  0
   39.7680   29.7807   45.8254 H   0  0  0  0  0  0  0  0  0  0  0  0
   41.9239   30.8415   45.3185 H   0  0  0  0  0  0  0  0  0  0  0  0
   41.9618   33.2896   44.6603 H   0  0  0  0  0  0  0  0  0  0  0  0
   39.8017   34.4746   44.5621 H   0  0  0  0  0  0  0  0  0  0  0  0
  2  3  2  0
  2  1  1  0
  3 10  1  0
  4  3  1  0
  5  4  2  0
  6  5  1  0
  6  7  2  0
  7  2  1  0
  8 13  2  0
  9  8  1  0
 10 11  1  0
 10  9  2  0
 11 12  2  0
 12 13  1  0
 14 15  2  0
 14  7  1  0
 16 15  1  0
 17 16  2  0
 18 17  1  0
 18 19  2  0
 19 14  1  0
  4 20  1  0
  5 21  1  0
  6 22  1  0
  8 23  1  0
  9 24  1  0
 12 25  1  0
 15 26  1  0
 16 27  1  0
 17 28  1  0
 18 29  1  0
M  ISO  8  20  14  21  14  22  14  23  14  24  14  25  14  26  14  27  14
M  ISO  2  28  14  29  14
M  END
>  <minimizedAffinity>  (1) 
-5.50630713

>  <minimizedRMSD>  (1) 
3.485852

$$$$
