
     RDKit          3D

 45 48  0  0  1  0  0  0  0  0999 V2000
   35.6740   30.2100   47.3160 C   0  0  1  0  0  0  0  0  0  0  0  0
   34.6640   29.0630   47.7300 C   0  0  0  0  0  0  0  0  0  0  0  0
   34.2070   29.2560   49.1740 C   0  0  0  0  0  0  0  0  0  0  0  0
   35.3740   29.5740   50.0610 C   0  0  0  0  0  0  0  0  0  0  0  0
   36.6160   29.1250   49.3750 C   0  0  0  0  0  0  0  0  0  0  0  0
   36.8750   30.0360   48.1920 C   0  0  2  0  0  0  0  0  0  0  0  0
   34.8280   29.8890   45.0310 C   0  0  0  0  0  0  0  0  0  0  0  0
   35.1260   29.8050   43.6840 C   0  0  0  0  0  0  0  0  0  0  0  0
   36.3880   29.8480   43.1520 C   0  0  0  0  0  0  0  0  0  0  0  0
   37.4770   29.9840   44.0160 C   0  0  0  0  0  0  0  0  0  0  0  0
   37.1800   30.0650   45.3730 C   0  0  0  0  0  0  0  0  0  0  0  0
   35.8990   30.0250   45.9100 C   0  0  0  0  0  0  0  0  0  0  0  0
   32.9030   28.4640   45.4950 C   0  0  0  0  0  0  0  0  0  0  0  0
   33.4500   29.7930   45.3710 C   0  0  0  0  0  0  0  0  0  0  0  0
   32.6030   30.8580   45.6140 C   0  0  0  0  0  0  0  0  0  0  0  0
   31.3130   30.6370   45.9600 N   0  0  0  0  0  0  0  0  0  0  0  0
   30.8090   29.3660   46.0760 C   0  0  0  0  0  0  0  0  0  0  0  0
   31.6090   28.3010   45.8410 N   0  0  0  0  0  0  0  0  0  0  0  0
   37.3750   31.3840   48.6870 C   0  0  0  0  0  0  0  0  0  0  0  0
   38.4960   31.9590   48.0890 C   0  0  0  0  0  0  0  0  0  0  0  0
   39.0380   33.1880   48.4580 C   0  0  0  0  0  0  0  0  0  0  0  0
   38.4170   33.8680   49.4820 C   0  0  0  0  0  0  0  0  0  0  0  0
   37.3280   33.2560   50.0300 C   0  0  0  0  0  0  0  0  0  0  0  0
   36.8220   32.0780   49.6640 N   0  0  0  0  0  0  0  0  0  0  0  0
   35.3309   31.2455   47.4575 H   0  0  0  0  0  0  0  0  0  0  0  0
   33.7883   29.0930   47.0650 H   0  0  0  0  0  0  0  0  0  0  0  0
   35.1707   28.0906   47.6417 H   0  0  0  0  0  0  0  0  0  0  0  0
   33.4847   30.0845   49.2165 H   0  0  0  0  0  0  0  0  0  0  0  0
   33.7396   28.3241   49.5248 H   0  0  0  0  0  0  0  0  0  0  0  0
   35.4197   30.6581   50.2418 H   0  0  0  0  0  0  0  0  0  0  0  0
   35.2672   29.0603   51.0278 H   0  0  0  0  0  0  0  0  0  0  0  0
   37.4639   29.1761   50.0739 H   0  0  0  0  0  0  0  0  0  0  0  0
   36.4989   28.0871   49.0298 H   0  0  0  0  0  0  0  0  0  0  0  0
   37.6449   29.5563   47.5698 H   0  0  0  0  0  0  0  0  0  0  0  0
   34.2843   29.6950   42.9844 H   0  0  0  0  0  0  0  0  0  0  0  0
   36.5406   29.7768   42.0650 H   0  0  0  0  0  0  0  0  0  0  0  0
   38.5116   30.0248   43.6445 H   0  0  0  0  0  0  0  0  0  0  0  0
   38.0222   30.1684   46.0730 H   0  0  0  0  0  0  0  0  0  0  0  0
   33.5389   27.5861   45.3081 H   0  0  0  0  0  0  0  0  0  0  0  0
   32.9783   31.8882   45.5260 H   0  0  0  0  0  0  0  0  0  0  0  0
   29.7571   29.2136   46.3594 H   0  0  0  0  0  0  0  0  0  0  0  0
   38.9839   31.4060   47.2728 H   0  0  0  0  0  0  0  0  0  0  0  0
   39.9248   33.5982   47.9527 H   0  0  0  0  0  0  0  0  0  0  0  0
   38.7772   34.8451   49.8364 H   0  0  0  0  0  0  0  0  0  0  0  0
   36.8198   33.7837   50.8505 H   0  0  0  0  0  0  0  0  0  0  0  0
  1  2  1  0
  1  6  1  0
  2  3  1  0
  3  4  1  0
  5  4  1  0
  6 19  1  0
  6  5  1  0
  7 14  1  0
  7 12  1  0
  8  7  2  0
  9  8  1  0
  9 10  2  0
 10 11  1  0
 11 12  2  0
 12  1  1  0
 13 18  2  0
 14 13  1  0
 14 15  2  0
 15 16  1  0
 16 17  2  0
 18 17  1  0
 19 24  2  0
 20 21  2  0
 20 19  1  0
 21 22  1  0
 22 23  2  0
 24 23  1  0
  1 25  1  6
  2 26  1  0
  2 27  1  0
  3 28  1  0
  3 29  1  0
  4 30  1  0
  4 31  1  0
  5 32  1  0
  5 33  1  0
  6 34  1  6
  8 35  1  0
  9 36  1  0
 10 37  1  0
 11 38  1  0
 13 39  1  0
 15 40  1  0
 17 41  1  0
 20 42  1  0
 21 43  1  0
 22 44  1  0
 23 45  1  0
M  ISO  8  25  13  26  13  27  13  28  13  29  13  30  13  31  13  32  13
M  ISO  8  33  13  34  13  35  14  36  14  37  14  38  14  39  14  40  14
M  ISO  5  41  14  42  14  43  14  44  14  45  14
M  END
>  <minimizedAffinity>  (1) 
-5.50297642

>  <minimizedRMSD>  (1) 
3.74023509

$$$$
