
     RDKit          3D

 41 44  0  0  1  0  0  0  0  0999 V2000
   37.9590   31.6150   45.2950 C   0  0  0  0  0  0  0  0  0  0  0  0
   36.9160   30.9360   45.4590 O   0  0  0  0  0  0  0  0  0  0  0  0
   38.4350   32.5070   46.3390 N   0  0  0  0  0  0  0  0  0  0  0  0
   38.7350   31.5320   44.0470 C   0  0  0  0  0  0  0  0  0  0  0  0
   39.7930   30.6710   43.9850 C   0  0  0  0  0  0  0  0  0  0  0  0
   40.5140   30.6030   42.8040 C   0  0  0  0  0  0  0  0  0  0  0  0
   40.1140   31.4140   41.7600 C   0  0  0  0  0  0  0  0  0  0  0  0
   39.0380   32.2910   41.8220 C   0  0  0  0  0  0  0  0  0  0  0  0
   38.3850   32.3060   42.9950 N   0  0  0  0  0  0  0  0  0  0  0  0
   38.6710   33.1180   40.6810 C   0  0  0  0  0  0  0  0  0  0  0  0
   38.3490   34.3110   40.8700 O   0  0  0  0  0  0  0  0  0  0  0  0
   38.6630   32.6120   39.3140 C   0  0  0  0  0  0  0  0  0  0  0  0
   37.6360   31.7660   38.9490 C   0  0  0  0  0  0  0  0  0  0  0  0
   37.5670   31.2490   37.6650 C   0  0  0  0  0  0  0  0  0  0  0  0
   38.5690   31.6230   36.7940 C   0  0  0  0  0  0  0  0  0  0  0  0
   39.6060   32.4670   37.1330 C   0  0  0  0  0  0  0  0  0  0  0  0
   39.6080   32.9370   38.4120 N   0  0  0  0  0  0  0  0  0  0  0  0
   38.4730   31.4730   48.5960 C   0  0  2  0  0  0  0  0  0  0  0  0
   38.7660   32.9190   48.7780 C   0  0  0  0  0  0  0  0  0  0  0  0
   37.8630   32.3510   47.6530 C   0  0  1  0  0  0  0  0  0  0  0  0
   35.6420   29.5450   50.0500 C   0  0  0  0  0  0  0  0  0  0  0  0
   36.0660   29.3970   51.4080 C   0  0  0  0  0  0  0  0  0  0  0  0
   37.3310   29.9820   51.8020 C   0  0  0  0  0  0  0  0  0  0  0  0
   38.0830   30.6580   50.8700 N   0  0  0  0  0  0  0  0  0  0  0  0
   37.6010   30.7480   49.5980 C   0  0  0  0  0  0  0  0  0  0  0  0
   36.3980   30.2120   49.1520 N   0  0  0  0  0  0  0  0  0  0  0  0
   39.1518   33.2215   46.1478 H   0  0  0  0  0  0  0  0  0  0  0  0
   40.0655   30.0480   44.8497 H   0  0  0  0  0  0  0  0  0  0  0  0
   41.3753   29.9265   42.7013 H   0  0  0  0  0  0  0  0  0  0  0  0
   40.6832   31.3624   40.8201 H   0  0  0  0  0  0  0  0  0  0  0  0
   36.8635   31.4989   39.6852 H   0  0  0  0  0  0  0  0  0  0  0  0
   36.7546   30.5748   37.3562 H   0  0  0  0  0  0  0  0  0  0  0  0
   38.5394   31.2249   35.7690 H   0  0  0  0  0  0  0  0  0  0  0  0
   40.3879   32.7452   36.4110 H   0  0  0  0  0  0  0  0  0  0  0  0
   39.1175   30.5870   48.4977 H   0  0  0  0  0  0  0  0  0  0  0  0
   38.3297   33.4782   49.6188 H   0  0  0  0  0  0  0  0  0  0  0  0
   39.6630   33.5525   48.8418 H   0  0  0  0  0  0  0  0  0  0  0  0
   36.8256   32.4552   47.3024 H   0  0  0  0  0  0  0  0  0  0  0  0
   34.6839   29.1081   49.7319 H   0  0  0  0  0  0  0  0  0  0  0  0
   35.4464   28.8521   52.1355 H   0  0  0  0  0  0  0  0  0  0  0  0
   37.6873   29.8864   52.8383 H   0  0  0  0  0  0  0  0  0  0  0  0
  1  2  2  0
  1  3  1  0
  3 20  1  0
  4  1  1  0
  5  4  2  0
  6  5  1  0
  7  8  1  0
  7  6  2  0
  8  9  2  0
  9  4  1  0
 10 11  2  0
 10  8  1  0
 12 10  1  0
 13 12  2  0
 14 13  1  0
 15 16  1  0
 15 14  2  0
 16 17  2  0
 17 12  1  0
 18 19  1  0
 18 25  1  0
 20 18  1  0
 20 19  1  0
 21 22  2  0
 22 23  1  0
 24 23  2  0
 25 24  1  0
 26 25  2  0
 26 21  1  0
  3 27  1  0
  5 28  1  0
  6 29  1  0
  7 30  1  0
 13 31  1  0
 14 32  1  0
 15 33  1  0
 16 34  1  0
 18 35  1  6
 19 36  1  0
 19 37  1  0
 20 38  1  6
 21 39  1  0
 22 40  1  0
 23 41  1  0
M  ISO  8  28  14  29  14  30  14  31  14  32  14  33  14  34  14  35  13
M  ISO  6  36  13  37  13  38  13  39  14  40  14  41  14
M  END
>  <minimizedAffinity>  (1) 
-5.43272448

>  <minimizedRMSD>  (1) 
1.33376157

$$$$
