
     RDKit          3D

 42 45  0  0  0  0  0  0  0  0999 V2000
   36.7690   32.2210   49.2400 O   0  0  0  0  0  0  0  0  0  0  0  0
   38.2340   32.2210   47.2580 C   0  0  0  0  0  0  0  0  0  0  0  0
   37.8650   32.6480   48.5270 C   0  0  0  0  0  0  0  0  0  0  0  0
   38.6290   33.5900   49.1880 C   0  0  0  0  0  0  0  0  0  0  0  0
   39.7660   34.1100   48.5860 C   0  0  0  0  0  0  0  0  0  0  0  0
   40.1290   33.6800   47.3190 C   0  0  0  0  0  0  0  0  0  0  0  0
   39.3480   32.7410   46.6880 C   0  0  0  0  0  0  0  0  0  0  0  0
   39.7470   32.2910   45.3380 C   0  0  0  0  0  0  0  0  0  0  0  0
   40.5770   31.2530   44.9710 C   0  0  0  0  0  0  0  0  0  0  0  0
   40.6390   31.2320   43.5800 C   0  0  0  0  0  0  0  0  0  0  0  0
   39.8220   32.2840   43.1850 C   0  0  0  0  0  0  0  0  0  0  0  0
   39.3070   32.8920   44.2410 O   0  0  0  0  0  0  0  0  0  0  0  0
   36.7250   30.4770   46.1250 N   0  0  0  0  0  0  0  0  0  0  0  0
   37.3970   31.2480   46.6390 C   0  0  0  0  0  0  0  0  0  0  0  0
   36.7670   31.1900   50.1120 C   0  0  0  0  0  0  0  0  0  0  0  0
   35.7310   30.2850   49.8760 C   0  0  0  0  0  0  0  0  0  0  0  0
   35.5600   29.1640   50.6630 C   0  0  0  0  0  0  0  0  0  0  0  0
   36.4430   28.9740   51.6820 N   0  0  0  0  0  0  0  0  0  0  0  0
   37.4540   29.8690   51.9030 C   0  0  0  0  0  0  0  0  0  0  0  0
   37.5900   30.9330   51.1320 N   0  0  0  0  0  0  0  0  0  0  0  0
   34.3180   29.2260   48.1640 C   0  0  0  0  0  0  0  0  0  0  0  0
   34.7270   27.9890   48.1840 O   0  0  0  0  0  0  0  0  0  0  0  0
   34.7740   30.3780   48.8540 N   0  0  0  0  0  0  0  0  0  0  0  0
   33.1710   29.4350   47.2490 C   0  0  0  0  0  0  0  0  0  0  0  0
   33.0690   30.5200   46.4050 C   0  0  0  0  0  0  0  0  0  0  0  0
   32.0100   30.7260   45.5520 C   0  0  0  0  0  0  0  0  0  0  0  0
   30.9870   29.8130   45.5220 C   0  0  0  0  0  0  0  0  0  0  0  0
   31.0800   28.7240   46.3620 C   0  0  0  0  0  0  0  0  0  0  0  0
   32.1460   28.5900   47.1690 N   0  0  0  0  0  0  0  0  0  0  0  0
   38.3358   33.9283   50.1928 H   0  0  0  0  0  0  0  0  0  0  0  0
   40.3761   34.8595   49.1114 H   0  0  0  0  0  0  0  0  0  0  0  0
   41.0265   34.0832   46.8271 H   0  0  0  0  0  0  0  0  0  0  0  0
   41.0968   30.5651   45.6542 H   0  0  0  0  0  0  0  0  0  0  0  0
   41.2058   30.5400   42.9397 H   0  0  0  0  0  0  0  0  0  0  0  0
   39.6302   32.5711   42.1406 H   0  0  0  0  0  0  0  0  0  0  0  0
   34.7427   28.4523   50.4745 H   0  0  0  0  0  0  0  0  0  0  0  0
   38.1597   29.7011   52.7299 H   0  0  0  0  0  0  0  0  0  0  0  0
   34.3951   31.3015   48.5999 H   0  0  0  0  0  0  0  0  0  0  0  0
   33.8802   31.2629   46.4142 H   0  0  0  0  0  0  0  0  0  0  0  0
   31.9838   31.6126   44.9015 H   0  0  0  0  0  0  0  0  0  0  0  0
   30.1243   29.9449   44.8524 H   0  0  0  0  0  0  0  0  0  0  0  0
   30.2829   27.9660   46.3717 H   0  0  0  0  0  0  0  0  0  0  0  0
  1 15  1  0
  2  3  2  0
  3  4  1  0
  3  1  1  0
  5  4  2  0
  6  5  1  0
  7  2  1  0
  7  6  2  0
  8  7  1  0
  9  8  2  0
 10  9  1  0
 11 10  2  0
 11 12  1  0
 12  8  1  0
 13 14  3  0
 14  2  1  0
 15 20  2  0
 16 15  1  0
 16 17  2  0
 17 18  1  0
 18 19  2  0
 20 19  1  0
 21 22  2  0
 21 23  1  0
 23 16  1  0
 24 21  1  0
 25 24  2  0
 26 25  1  0
 27 26  2  0
 27 28  1  0
 28 29  2  0
 29 24  1  0
  4 30  1  0
  5 31  1  0
  6 32  1  0
  9 33  1  0
 10 34  1  0
 11 35  1  0
 17 36  1  0
 19 37  1  0
 23 38  1  0
 25 39  1  0
 26 40  1  0
 27 41  1  0
 28 42  1  0
M  ISO  8  30  14  31  14  32  14  33  14  34  14  35  14  36  14  37  14
M  ISO  4  39  14  40  14  41  14  42  14
M  END
>  <minimizedAffinity>  (1) 
-6.10587454

>  <minimizedRMSD>  (1) 
0.498827755

$$$$
