
     RDKit          3D

 39 41  0  0  1  0  0  0  0  0999 V2000
   36.4080   30.7570   48.9990 C   0  0  2  0  0  0  0  0  0  0  0  0
   37.4250   31.5910   49.7200 C   0  0  0  0  0  0  0  0  0  0  0  0
   38.2960   30.7800   50.6560 C   0  0  0  0  0  0  0  0  0  0  0  0
   37.4280   30.0430   51.6740 C   0  0  0  0  0  0  0  0  0  0  0  0
   36.1470   29.4980   51.1030 C   0  0  0  0  0  0  0  0  0  0  0  0
   36.3000   29.3820   49.5750 C   0  0  1  0  0  0  0  0  0  0  0  0
   36.7330   30.6420   47.5550 C   0  0  0  0  0  0  0  0  0  0  0  0
   38.0910   30.8170   47.2230 C   0  0  0  0  0  0  0  0  0  0  0  0
   38.4220   30.7100   45.8680 C   0  0  0  0  0  0  0  0  0  0  0  0
   37.4260   30.4440   44.9570 N   0  0  0  0  0  0  0  0  0  0  0  0
   36.1160   30.2810   45.3370 C   0  0  0  0  0  0  0  0  0  0  0  0
   35.7950   30.3840   46.6380 N   0  0  0  0  0  0  0  0  0  0  0  0
   33.9550   28.4850   49.1940 C   0  0  0  0  0  0  0  0  0  0  0  0
   33.2080   29.2010   49.9490 O   0  0  0  0  0  0  0  0  0  0  0  0
   35.3520   28.5390   48.9440 N   0  0  0  0  0  0  0  0  0  0  0  0
   33.1530   27.4450   48.4990 C   0  0  0  0  0  0  0  0  0  0  0  0
   33.6880   26.4760   47.6830 C   0  0  0  0  0  0  0  0  0  0  0  0
   32.9540   25.5170   47.0400 C   0  0  0  0  0  0  0  0  0  0  0  0
   31.5980   25.4980   47.2030 C   0  0  0  0  0  0  0  0  0  0  0  0
   31.0380   26.4600   48.0170 C   0  0  0  0  0  0  0  0  0  0  0  0
   31.8160   27.3760   48.6210 N   0  0  0  0  0  0  0  0  0  0  0  0
   35.4444   31.2727   49.1236 H   0  0  0  0  0  0  0  0  0  0  0  0
   38.0703   32.0793   48.9749 H   0  0  0  0  0  0  0  0  0  0  0  0
   36.8775   32.3239   50.3308 H   0  0  0  0  0  0  0  0  0  0  0  0
   38.8737   30.0479   50.0726 H   0  0  0  0  0  0  0  0  0  0  0  0
   38.9797   31.4571   51.1889 H   0  0  0  0  0  0  0  0  0  0  0  0
   38.0100   29.2034   52.0819 H   0  0  0  0  0  0  0  0  0  0  0  0
   37.1473   30.7764   52.4442 H   0  0  0  0  0  0  0  0  0  0  0  0
   35.9431   28.5056   51.5314 H   0  0  0  0  0  0  0  0  0  0  0  0
   35.3111   30.1701   51.3469 H   0  0  0  0  0  0  0  0  0  0  0  0
   37.2349   28.8445   49.3581 H   0  0  0  0  0  0  0  0  0  0  0  0
   38.8515   31.0269   47.9895 H   0  0  0  0  0  0  0  0  0  0  0  0
   39.4630   30.8366   45.5359 H   0  0  0  0  0  0  0  0  0  0  0  0
   35.3402   30.0690   44.5866 H   0  0  0  0  0  0  0  0  0  0  0  0
   35.7153   27.8957   48.2263 H   0  0  0  0  0  0  0  0  0  0  0  0
   34.7783   26.4716   47.5376 H   0  0  0  0  0  0  0  0  0  0  0  0
   33.4491   24.7714   46.4005 H   0  0  0  0  0  0  0  0  0  0  0  0
   30.9748   24.7422   46.7027 H   0  0  0  0  0  0  0  0  0  0  0  0
   29.9493   26.4783   48.1732 H   0  0  0  0  0  0  0  0  0  0  0  0
  1  6  1  0
  1  2  1  0
  2  3  1  0
  3  4  1  0
  5  4  1  0
  6  5  1  0
  7  1  1  0
  8  7  2  0
  9  8  1  0
 10 11  1  0
 10  9  2  0
 11 12  2  0
 12  7  1  0
 13 14  2  0
 15 13  1  0
 15  6  1  0
 16 21  1  0
 16 13  1  0
 17 16  2  0
 18 19  2  0
 18 17  1  0
 19 20  1  0
 20 21  2  0
  1 22  1  6
  2 23  1  0
  2 24  1  0
  3 25  1  0
  3 26  1  0
  4 27  1  0
  4 28  1  0
  5 29  1  0
  5 30  1  0
  6 31  1  1
  8 32  1  0
  9 33  1  0
 11 34  1  0
 15 35  1  0
 17 36  1  0
 18 37  1  0
 19 38  1  0
 20 39  1  0
M  ISO  8  22  13  23  13  24  13  25  13  26  13  27  13  28  13  29  13
M  ISO  8  30  13  31  13  32  14  33  14  34  14  36  14  37  14  38  14
M  ISO  1  39  14
M  END
>  <minimizedAffinity>  (1) 
-6.08260059

>  <minimizedRMSD>  (1) 
0.704437137

$$$$
