
     RDKit          3D

 36 39  0  0  0  0  0  0  0  0999 V2000
   33.1490   28.3240   49.0630 C   0  0  0  0  0  0  0  0  0  0  0  0
   33.4310   28.9940   50.2000 C   0  0  0  0  0  0  0  0  0  0  0  0
   34.6730   29.5040   50.5220 C   0  0  0  0  0  0  0  0  0  0  0  0
   35.7180   29.3440   49.6630 C   0  0  0  0  0  0  0  0  0  0  0  0
   35.4370   28.6510   48.4800 C   0  0  0  0  0  0  0  0  0  0  0  0
   34.2080   28.1720   48.2110 N   0  0  0  0  0  0  0  0  0  0  0  0
   30.7420   27.8770   49.5530 C   0  0  0  0  0  0  0  0  0  0  0  0
   31.8650   27.7920   48.7190 C   0  0  0  0  0  0  0  0  0  0  0  0
   31.6770   27.1490   47.5090 C   0  0  0  0  0  0  0  0  0  0  0  0
   30.4480   26.6440   47.1900 N   0  0  0  0  0  0  0  0  0  0  0  0
   29.4030   26.7640   48.0500 C   0  0  0  0  0  0  0  0  0  0  0  0
   29.5370   27.3820   49.2410 N   0  0  0  0  0  0  0  0  0  0  0  0
   37.0320   29.7950   49.8360 O   0  0  0  0  0  0  0  0  0  0  0  0
   37.6120   30.6790   48.9390 C   0  0  0  0  0  0  0  0  0  0  0  0
   38.1880   31.8020   49.5380 C   0  0  0  0  0  0  0  0  0  0  0  0
   38.7300   32.5990   48.5210 C   0  0  0  0  0  0  0  0  0  0  0  0
   38.4610   31.9320   47.3790 N   0  0  0  0  0  0  0  0  0  0  0  0
   37.8140   30.8190   47.6140 N   0  0  0  0  0  0  0  0  0  0  0  0
   38.8250   32.3650   46.0680 C   0  0  0  0  0  0  0  0  0  0  0  0
   40.0730   32.9300   45.8940 C   0  0  0  0  0  0  0  0  0  0  0  0
   40.4220   33.3470   44.6280 C   0  0  0  0  0  0  0  0  0  0  0  0
   39.5880   33.2300   43.5130 C   0  0  0  0  0  0  0  0  0  0  0  0
   38.3480   32.6510   43.7750 C   0  0  0  0  0  0  0  0  0  0  0  0
   37.9910   32.2370   45.0170 N   0  0  0  0  0  0  0  0  0  0  0  0
   32.6139   29.1444   50.9209 H   0  0  0  0  0  0  0  0  0  0  0  0
   34.8186   30.0393   51.4719 H   0  0  0  0  0  0  0  0  0  0  0  0
   36.2436   28.4932   47.7489 H   0  0  0  0  0  0  0  0  0  0  0  0
   30.8571   28.3813   50.5238 H   0  0  0  0  0  0  0  0  0  0  0  0
   32.5154   27.0443   46.8046 H   0  0  0  0  0  0  0  0  0  0  0  0
   28.4248   26.3473   47.7681 H   0  0  0  0  0  0  0  0  0  0  0  0
   38.2118   32.0214   50.6156 H   0  0  0  0  0  0  0  0  0  0  0  0
   39.2585   33.5576   48.6295 H   0  0  0  0  0  0  0  0  0  0  0  0
   40.7670   33.0436   46.7399 H   0  0  0  0  0  0  0  0  0  0  0  0
   41.4151   33.7984   44.4868 H   0  0  0  0  0  0  0  0  0  0  0  0
   39.8863   33.5677   42.5095 H   0  0  0  0  0  0  0  0  0  0  0  0
   37.6345   32.5253   42.9473 H   0  0  0  0  0  0  0  0  0  0  0  0
  1  2  2  0
  2  3  1  0
  4 13  1  0
  4  3  2  0
  5  4  1  0
  6  5  2  0
  6  1  1  0
  8  1  1  0
  8  7  2  0
  9  8  1  0
 10  9  2  0
 10 11  1  0
 11 12  2  0
 12  7  1  0
 14 15  1  0
 14 13  1  0
 16 15  2  0
 17 18  1  0
 17 16  1  0
 18 14  2  0
 19 17  1  0
 20 19  2  0
 21 20  1  0
 22 23  1  0
 22 21  2  0
 23 24  2  0
 24 19  1  0
  2 25  1  0
  3 26  1  0
  5 27  1  0
  7 28  1  0
  9 29  1  0
 11 30  1  0
 15 31  1  0
 16 32  1  0
 20 33  1  0
 21 34  1  0
 22 35  1  0
 23 36  1  0
M  ISO  8  25  14  26  14  27  14  28  14  29  14  30  14  31  14  32  14
M  ISO  4  33  14  34  14  35  14  36  14
M  END
>  <minimizedAffinity>  (1) 
-5.96717072

>  <minimizedRMSD>  (1) 
1.78596699

$$$$
