
     RDKit          3D

 42 45  0  0  1  0  0  0  0  0999 V2000
   38.4780   31.1140   45.9340 C   0  0  0  0  0  0  0  0  0  0  0  0
   39.8160   31.0220   46.2010 C   0  0  0  0  0  0  0  0  0  0  0  0
   40.4330   31.3830   45.0010 C   0  0  0  0  0  0  0  0  0  0  0  0
   39.5030   31.6690   44.0860 N   0  0  0  0  0  0  0  0  0  0  0  0
   38.3010   31.5090   44.6430 N   0  0  0  0  0  0  0  0  0  0  0  0
   39.8230   30.8810   41.7950 C   0  0  2  0  0  0  0  0  0  0  0  0
   39.8350   32.0770   42.7420 C   0  0  1  0  0  0  0  0  0  0  0  0
   38.7280   32.8800   42.0960 C   0  0  0  0  0  0  0  0  0  0  0  0
   38.8210   32.6910   40.7380 O   0  0  0  0  0  0  0  0  0  0  0  0
   39.6620   31.6540   40.4720 C   0  0  0  0  0  0  0  0  0  0  0  0
   38.6520   30.1770   42.0430 O   0  0  0  0  0  0  0  0  0  0  0  0
   38.5640   28.8210   42.3160 C   0  0  0  0  0  0  0  0  0  0  0  0
   39.5990   27.9700   42.6540 C   0  0  0  0  0  0  0  0  0  0  0  0
   39.3700   26.6320   42.9030 C   0  0  0  0  0  0  0  0  0  0  0  0
   38.0620   26.1760   42.8000 C   0  0  0  0  0  0  0  0  0  0  0  0
   37.0290   27.0280   42.4620 C   0  0  0  0  0  0  0  0  0  0  0  0
   37.2860   28.3470   42.2220 N   0  0  0  0  0  0  0  0  0  0  0  0
   36.4990   30.6350   49.0780 C   0  0  0  0  0  0  0  0  0  0  0  0
   37.5650   30.9170   48.2360 C   0  0  0  0  0  0  0  0  0  0  0  0
   37.4160   30.8360   46.8720 C   0  0  0  0  0  0  0  0  0  0  0  0
   36.1960   30.4730   46.4040 N   0  0  0  0  0  0  0  0  0  0  0  0
   35.1580   30.2000   47.2510 C   0  0  0  0  0  0  0  0  0  0  0  0
   35.3010   30.2780   48.5620 N   0  0  0  0  0  0  0  0  0  0  0  0
   36.8410   30.7710   50.4290 O   0  0  0  0  0  0  0  0  0  0  0  0
   36.8750   29.6860   51.3320 C   0  0  0  0  0  0  0  0  0  0  0  0
   35.6050   29.2360   51.6320 F   0  0  0  0  0  0  0  0  0  0  0  0
   37.5440   30.0970   52.4600 F   0  0  0  0  0  0  0  0  0  0  0  0
   37.5960   28.6700   50.7470 F   0  0  0  0  0  0  0  0  0  0  0  0
   40.2971   30.7300   47.1461 H   0  0  0  0  0  0  0  0  0  0  0  0
   41.5196   31.4253   44.8348 H   0  0  0  0  0  0  0  0  0  0  0  0
   40.6690   30.1800   41.8484 H   0  0  0  0  0  0  0  0  0  0  0  0
   40.7926   32.6060   42.8572 H   0  0  0  0  0  0  0  0  0  0  0  0
   37.7498   32.5306   42.4580 H   0  0  0  0  0  0  0  0  0  0  0  0
   38.8250   33.9466   42.3469 H   0  0  0  0  0  0  0  0  0  0  0  0
   39.2300   31.0013   39.6991 H   0  0  0  0  0  0  0  0  0  0  0  0
   40.6320   32.0110   40.0957 H   0  0  0  0  0  0  0  0  0  0  0  0
   40.6228   28.3658   42.7258 H   0  0  0  0  0  0  0  0  0  0  0  0
   40.1920   25.9526   43.1727 H   0  0  0  0  0  0  0  0  0  0  0  0
   37.8446   25.1148   42.9915 H   0  0  0  0  0  0  0  0  0  0  0  0
   36.0008   26.6444   42.3863 H   0  0  0  0  0  0  0  0  0  0  0  0
   38.5362   31.2074   48.6630 H   0  0  0  0  0  0  0  0  0  0  0  0
   34.1833   29.9093   46.8320 H   0  0  0  0  0  0  0  0  0  0  0  0
  1  2  1  0
  1 20  1  0
  3  2  2  0
  4  5  1  0
  4  3  1  0
  5  1  2  0
  6 11  1  0
  6  7  1  0
  7  4  1  0
  8  7  1  0
  9  8  1  0
 10  9  1  0
 10  6  1  0
 11 12  1  0
 12 13  2  0
 13 14  1  0
 15 14  2  0
 16 15  1  0
 17 12  1  0
 17 16  2  0
 18 24  1  0
 19 18  2  0
 20 19  1  0
 21 20  2  0
 21 22  1  0
 22 23  2  0
 23 18  1  0
 24 25  1  0
 25 26  1  0
 25 27  1  0
 28 25  1  0
  2 29  1  0
  3 30  1  0
  6 31  1  6
  7 32  1  1
  8 33  1  0
  8 34  1  0
 10 35  1  0
 10 36  1  0
 13 37  1  0
 14 38  1  0
 15 39  1  0
 16 40  1  0
 19 41  1  0
 22 42  1  0
M  ISO  8  29  14  30  14  31  13  32  13  33  13  34  13  35  13  36  13
M  ISO  6  37  14  38  14  39  14  40  14  41  14  42  14
M  END
>  <minimizedAffinity>  (1) 
-6.27997255

>  <minimizedRMSD>  (1) 
0.287837565

$$$$
