
     RDKit          3D

 29 31  0  0  0  0  0  0  0  0999 V2000
   36.2880   29.2850   51.0560 C   0  0  0  0  0  0  0  0  0  0  0  0
   36.6250   29.5340   49.6990 C   0  0  0  0  0  0  0  0  0  0  0  0
   35.5950   29.8140   48.7930 C   0  0  0  0  0  0  0  0  0  0  0  0
   34.3350   29.8330   49.2640 N   0  0  0  0  0  0  0  0  0  0  0  0
   34.0120   29.5960   50.5540 C   0  0  0  0  0  0  0  0  0  0  0  0
   35.0020   29.3230   51.4440 N   0  0  0  0  0  0  0  0  0  0  0  0
   35.8690   30.0730   47.4350 N   0  0  0  0  0  0  0  0  0  0  0  0
   35.0110   29.7160   46.4590 C   0  0  0  0  0  0  0  0  0  0  0  0
   35.2890   29.9690   45.1210 C   0  0  0  0  0  0  0  0  0  0  0  0
   36.5020   30.6130   44.8150 C   0  0  0  0  0  0  0  0  0  0  0  0
   36.7990   30.8610   43.6260 O   0  0  0  0  0  0  0  0  0  0  0  0
   37.3620   30.9680   45.8170 N   0  0  0  0  0  0  0  0  0  0  0  0
   36.9890   30.6760   47.0660 C   0  0  0  0  0  0  0  0  0  0  0  0
   37.8110   31.0250   47.9520 O   0  0  0  0  0  0  0  0  0  0  0  0
   38.5930   31.6200   45.5080 C   0  0  0  0  0  0  0  0  0  0  0  0
   39.7010   30.7760   45.5970 C   0  0  0  0  0  0  0  0  0  0  0  0
   40.9520   31.2950   45.3190 C   0  0  0  0  0  0  0  0  0  0  0  0
   41.0000   32.6210   44.9750 C   0  0  0  0  0  0  0  0  0  0  0  0
   39.9080   33.4620   44.8850 C   0  0  0  0  0  0  0  0  0  0  0  0
   38.6890   32.9180   45.1650 N   0  0  0  0  0  0  0  0  0  0  0  0
   37.0781   29.0615   51.7880 H   0  0  0  0  0  0  0  0  0  0  0  0
   37.6733   29.5074   49.3668 H   0  0  0  0  0  0  0  0  0  0  0  0
   32.9617   29.6236   50.8797 H   0  0  0  0  0  0  0  0  0  0  0  0
   34.0700   29.2134   46.7272 H   0  0  0  0  0  0  0  0  0  0  0  0
   34.5849   29.6758   44.3284 H   0  0  0  0  0  0  0  0  0  0  0  0
   39.5815   29.7204   45.8822 H   0  0  0  0  0  0  0  0  0  0  0  0
   41.8603   30.6768   45.3711 H   0  0  0  0  0  0  0  0  0  0  0  0
   41.9882   33.0501   44.7526 H   0  0  0  0  0  0  0  0  0  0  0  0
   40.0162   34.5193   44.6013 H   0  0  0  0  0  0  0  0  0  0  0  0
  1  6  2  0
  2  1  1  0
  3  4  1  0
  3  2  2  0
  4  5  2  0
  5  6  1  0
  7  3  1  0
  8  7  1  0
  9  8  2  0
 10  9  1  0
 10 12  1  0
 11 10  2  0
 12 13  1  0
 13  7  1  0
 13 14  2  0
 15 16  2  0
 15 12  1  0
 17 16  1  0
 18 17  2  0
 19 18  1  0
 19 20  2  0
 20 15  1  0
  1 21  1  0
  2 22  1  0
  5 23  1  0
  8 24  1  0
  9 25  1  0
 16 26  1  0
 17 27  1  0
 18 28  1  0
 19 29  1  0
M  ISO  8  21  14  22  14  23  14  24  14  25  14  26  14  27  14  28  14
M  ISO  1  29  14
M  END
>  <minimizedAffinity>  (1) 
-5.75581455

>  <minimizedRMSD>  (1) 
3.65999532

$$$$
