
     RDKit          3D

 30 32  0  0  0  0  0  0  0  0999 V2000
   34.2480   30.1820   48.6190 F   0  0  0  0  0  0  0  0  0  0  0  0
   34.8380   30.1660   47.3620 C   0  0  0  0  0  0  0  0  0  0  0  0
   34.1260   29.8020   46.2370 C   0  0  0  0  0  0  0  0  0  0  0  0
   34.7720   29.8050   45.0120 C   0  0  0  0  0  0  0  0  0  0  0  0
   36.1150   30.1700   44.9110 C   0  0  0  0  0  0  0  0  0  0  0  0
   36.7660   30.5250   46.0900 C   0  0  0  0  0  0  0  0  0  0  0  0
   36.1600   30.5350   47.3310 C   0  0  0  0  0  0  0  0  0  0  0  0
   32.5540   28.2820   47.1410 C   0  0  0  0  0  0  0  0  0  0  0  0
   32.7650   29.4430   46.4270 C   0  0  0  0  0  0  0  0  0  0  0  0
   31.6270   30.1470   45.9640 C   0  0  0  0  0  0  0  0  0  0  0  0
   30.3930   29.6350   46.2520 N   0  0  0  0  0  0  0  0  0  0  0  0
   30.2410   28.4990   46.9530 C   0  0  0  0  0  0  0  0  0  0  0  0
   31.3120   27.8000   47.4100 N   0  0  0  0  0  0  0  0  0  0  0  0
   37.0530   31.0000   48.7970 S   0  0  0  0  0  0  0  0  0  0  0  0
   38.2780   32.2240   48.3450 C   0  0  0  0  0  0  0  0  0  0  0  0
   38.4730   33.1470   49.3710 C   0  0  0  0  0  0  0  0  0  0  0  0
   39.3850   34.1910   49.2350 C   0  0  0  0  0  0  0  0  0  0  0  0
   40.1170   34.3260   48.0670 C   0  0  0  0  0  0  0  0  0  0  0  0
   39.8560   33.3540   47.0940 C   0  0  0  0  0  0  0  0  0  0  0  0
   38.9810   32.3390   47.2030 N   0  0  0  0  0  0  0  0  0  0  0  0
   34.2189   29.5157   44.1063 H   0  0  0  0  0  0  0  0  0  0  0  0
   36.6367   30.1771   43.9426 H   0  0  0  0  0  0  0  0  0  0  0  0
   37.8255   30.8145   46.0291 H   0  0  0  0  0  0  0  0  0  0  0  0
   33.4273   27.7228   47.5080 H   0  0  0  0  0  0  0  0  0  0  0  0
   31.7331   31.0789   45.3892 H   0  0  0  0  0  0  0  0  0  0  0  0
   29.2270   28.1269   47.1613 H   0  0  0  0  0  0  0  0  0  0  0  0
   37.8973   33.0494   50.3033 H   0  0  0  0  0  0  0  0  0  0  0  0
   39.5241   34.9093   50.0564 H   0  0  0  0  0  0  0  0  0  0  0  0
   40.8472   35.1347   47.9156 H   0  0  0  0  0  0  0  0  0  0  0  0
   40.4195   33.4275   46.1522 H   0  0  0  0  0  0  0  0  0  0  0  0
  2  1  1  0
  3  9  1  0
  3  2  2  0
  4  3  1  0
  5  4  2  0
  5  6  1  0
  6  7  2  0
  7  2  1  0
  7 14  1  0
  8 13  2  0
  9  8  1  0
 10 11  1  0
 10  9  2  0
 11 12  2  0
 12 13  1  0
 15 14  1  0
 15 16  2  0
 17 16  1  0
 18 17  2  0
 19 20  2  0
 19 18  1  0
 20 15  1  0
  4 21  1  0
  5 22  1  0
  6 23  1  0
  8 24  1  0
 10 25  1  0
 12 26  1  0
 16 27  1  0
 17 28  1  0
 18 29  1  0
 19 30  1  0
M  ISO  8  21  14  22  14  23  14  24  14  25  14  26  14  27  14  28  14
M  ISO  2  29  14  30  14
M  END
>  <minimizedAffinity>  (1) 
-5.13754129

>  <minimizedRMSD>  (1) 
3.8010118

$$$$
