
     RDKit          3D

 38 41  0  0  1  0  0  0  0  0999 V2000
   38.4930   31.4780   45.3630 C   0  0  1  0  0  0  0  0  0  0  0  0
   38.8480   32.4480   46.4080 C   0  0  2  0  0  0  0  0  0  0  0  0
   40.2950   32.8130   46.0600 C   0  0  0  0  0  0  0  0  0  0  0  0
   40.7990   31.5930   45.6960 O   0  0  0  0  0  0  0  0  0  0  0  0
   39.8420   30.8570   45.0260 C   0  0  0  0  0  0  0  0  0  0  0  0
   37.5750   32.3780   48.6930 C   0  0  1  0  0  0  0  0  0  0  0  0
   38.7930   33.1290   48.8460 C   0  0  0  0  0  0  0  0  0  0  0  0
   38.7750   31.9600   47.8410 C   0  0  2  0  0  0  0  0  0  0  0  0
   35.5700   29.6960   50.3640 C   0  0  0  0  0  0  0  0  0  0  0  0
   35.9400   30.6720   49.4490 C   0  0  0  0  0  0  0  0  0  0  0  0
   37.1470   31.3230   49.6310 C   0  0  0  0  0  0  0  0  0  0  0  0
   37.9200   30.9650   50.7130 N   0  0  0  0  0  0  0  0  0  0  0  0
   37.5430   30.0100   51.5960 C   0  0  0  0  0  0  0  0  0  0  0  0
   36.3480   29.3610   51.4210 N   0  0  0  0  0  0  0  0  0  0  0  0
   37.6110   30.4750   45.7730 O   0  0  0  0  0  0  0  0  0  0  0  0
   36.3120   30.4840   45.2240 C   0  0  0  0  0  0  0  0  0  0  0  0
   35.2090   29.9880   45.8850 C   0  0  0  0  0  0  0  0  0  0  0  0
   33.9380   29.9940   45.3550 C   0  0  0  0  0  0  0  0  0  0  0  0
   33.7380   30.5200   44.0980 C   0  0  0  0  0  0  0  0  0  0  0  0
   34.8490   31.0070   43.4600 C   0  0  0  0  0  0  0  0  0  0  0  0
   36.0680   30.9870   44.0000 N   0  0  0  0  0  0  0  0  0  0  0  0
   37.9670   31.9715   44.5325 H   0  0  0  0  0  0  0  0  0  0  0  0
   38.1214   33.2739   46.4000 H   0  0  0  0  0  0  0  0  0  0  0  0
   40.3402   33.5318   45.2285 H   0  0  0  0  0  0  0  0  0  0  0  0
   40.8453   33.3023   46.8772 H   0  0  0  0  0  0  0  0  0  0  0  0
   39.8697   29.8086   45.3579 H   0  0  0  0  0  0  0  0  0  0  0  0
   40.0223   30.8702   43.9410 H   0  0  0  0  0  0  0  0  0  0  0  0
   36.5449   32.7365   48.5506 H   0  0  0  0  0  0  0  0  0  0  0  0
   38.8454   34.1642   48.4776 H   0  0  0  0  0  0  0  0  0  0  0  0
   39.4287   33.3950   49.7034 H   0  0  0  0  0  0  0  0  0  0  0  0
   39.2867   31.0042   47.6551 H   0  0  0  0  0  0  0  0  0  0  0  0
   34.6106   29.1760   50.2258 H   0  0  0  0  0  0  0  0  0  0  0  0
   35.2885   30.9221   48.5987 H   0  0  0  0  0  0  0  0  0  0  0  0
   38.1911   29.7567   52.4479 H   0  0  0  0  0  0  0  0  0  0  0  0
   35.3516   29.5645   46.8901 H   0  0  0  0  0  0  0  0  0  0  0  0
   33.0934   29.5840   45.9282 H   0  0  0  0  0  0  0  0  0  0  0  0
   32.7420   30.5477   43.6320 H   0  0  0  0  0  0  0  0  0  0  0  0
   34.7292   31.4351   42.4538 H   0  0  0  0  0  0  0  0  0  0  0  0
  1 15  1  0
  1  2  1  0
  2  8  1  0
  3  2  1  0
  4  3  1  0
  5  1  1  0
  5  4  1  0
  6  7  1  0
  6 11  1  0
  8  6  1  0
  8  7  1  0
  9 14  2  0
 10 11  2  0
 10  9  1  0
 11 12  1  0
 12 13  2  0
 14 13  1  0
 16 15  1  0
 16 17  2  0
 18 17  1  0
 19 18  2  0
 20 21  2  0
 20 19  1  0
 21 16  1  0
  1 22  1  6
  2 23  1  1
  3 24  1  0
  3 25  1  0
  5 26  1  0
  5 27  1  0
  6 28  1  6
  7 29  1  0
  7 30  1  0
  8 31  1  1
  9 32  1  0
 10 33  1  0
 13 34  1  0
 17 35  1  0
 18 36  1  0
 19 37  1  0
 20 38  1  0
M  ISO  8  22  13  23  13  24  13  25  13  26  13  27  13  28  13  29  13
M  ISO  8  30  13  31  13  32  14  33  14  34  14  35  14  36  14  37  14
M  ISO  1  38  14
M  END
>  <minimizedAffinity>  (1) 
-5.55842495

>  <minimizedRMSD>  (1) 
1.00838578

$$$$
