
     RDKit          3D

 37 39  0  0  0  0  0  0  0  0999 V2000
   37.1080   31.5780   47.8960 Br  0  0  0  0  0  0  0  0  0  0  0  0
   36.5020   30.6990   46.3130 C   0  0  0  0  0  0  0  0  0  0  0  0
   37.2770   30.6890   45.1780 C   0  0  0  0  0  0  0  0  0  0  0  0
   36.7890   30.0430   44.0690 C   0  0  0  0  0  0  0  0  0  0  0  0
   35.5510   29.4080   44.0580 C   0  0  0  0  0  0  0  0  0  0  0  0
   34.8060   29.4420   45.2180 C   0  0  0  0  0  0  0  0  0  0  0  0
   35.2870   30.0870   46.3360 C   0  0  0  0  0  0  0  0  0  0  0  0
   39.8410   33.2540   44.7390 C   0  0  0  0  0  0  0  0  0  0  0  0
   41.0500   32.5900   45.0770 C   0  0  0  0  0  0  0  0  0  0  0  0
   40.9540   31.2610   45.4530 C   0  0  0  0  0  0  0  0  0  0  0  0
   39.7270   30.6560   45.4820 N   0  0  0  0  0  0  0  0  0  0  0  0
   38.5850   31.3450   45.1450 C   0  0  0  0  0  0  0  0  0  0  0  0
   38.6620   32.6330   44.7790 N   0  0  0  0  0  0  0  0  0  0  0  0
   34.3790   30.0470   47.5240 C   0  0  0  0  0  0  0  0  0  0  0  0
   33.8760   28.6760   47.8480 C   0  0  0  0  0  0  0  0  0  0  0  0
   34.6610   28.0850   48.8940 N   0  0  0  0  0  0  0  0  0  0  0  0
   35.5320   28.6760   49.8210 C   0  0  0  0  0  0  0  0  0  0  0  0
   36.8850   28.8040   49.6700 C   0  0  0  0  0  0  0  0  0  0  0  0
   37.7630   29.3700   50.5680 C   0  0  0  0  0  0  0  0  0  0  0  0
   37.2180   29.8610   51.7530 C   0  0  0  0  0  0  0  0  0  0  0  0
   35.8570   29.7310   51.9050 C   0  0  0  0  0  0  0  0  0  0  0  0
   35.0710   29.1640   50.9730 N   0  0  0  0  0  0  0  0  0  0  0  0
   37.4000   30.0269   43.1545 H   0  0  0  0  0  0  0  0  0  0  0  0
   35.1801   28.8975   43.1570 H   0  0  0  0  0  0  0  0  0  0  0  0
   33.8221   28.9513   45.2506 H   0  0  0  0  0  0  0  0  0  0  0  0
   39.8784   34.3107   44.4356 H   0  0  0  0  0  0  0  0  0  0  0  0
   42.0195   33.1085   45.0416 H   0  0  0  0  0  0  0  0  0  0  0  0
   41.8572   30.6958   45.7263 H   0  0  0  0  0  0  0  0  0  0  0  0
   34.9298   30.4302   48.3956 H   0  0  0  0  0  0  0  0  0  0  0  0
   33.5011   30.6631   47.2796 H   0  0  0  0  0  0  0  0  0  0  0  0
   32.8282   28.7433   48.1761 H   0  0  0  0  0  0  0  0  0  0  0  0
   33.9529   28.0478   46.9483 H   0  0  0  0  0  0  0  0  0  0  0  0
   34.5702   27.0624   48.9774 H   0  0  0  0  0  0  0  0  0  0  0  0
   37.3165   28.4152   48.7358 H   0  0  0  0  0  0  0  0  0  0  0  0
   38.8414   29.4314   50.3600 H   0  0  0  0  0  0  0  0  0  0  0  0
   37.8441   30.3286   52.5272 H   0  0  0  0  0  0  0  0  0  0  0  0
   35.3919   30.1069   52.8283 H   0  0  0  0  0  0  0  0  0  0  0  0
  2  7  2  0
  2  1  1  0
  3  2  1  0
  4  3  2  0
  5  4  1  0
  5  6  2  0
  6  7  1  0
  7 14  1  0
  8 13  2  0
  8  9  1  0
  9 10  2  0
 10 11  1  0
 12  3  1  0
 12 11  2  0
 13 12  1  0
 14 15  1  0
 15 16  1  0
 16 17  1  0
 17 22  1  0
 18 17  2  0
 18 19  1  0
 19 20  2  0
 20 21  1  0
 22 21  2  0
  4 23  1  0
  5 24  1  0
  6 25  1  0
  8 26  1  0
  9 27  1  0
 10 28  1  0
 14 29  1  0
 14 30  1  0
 15 31  1  0
 15 32  1  0
 16 33  1  0
 18 34  1  0
 19 35  1  0
 20 36  1  0
 21 37  1  0
M  ISO  8  23  14  24  14  25  14  26  14  27  14  28  14  29   8  30   8
M  ISO  6  31   8  32   8  34  14  35  14  36  14  37  14
M  END
>  <minimizedAffinity>  (1) 
-4.59419537

>  <minimizedRMSD>  (1) 
1.7579205

$$$$
