
     RDKit          3D

 39 43  0  0  1  0  0  0  0  0999 V2000
   34.8100   28.9550   48.4400 C   0  0  0  0  0  0  0  0  0  0  0  0
   34.6860   29.8350   47.3560 C   0  0  0  0  0  0  0  0  0  0  0  0
   33.5290   29.8310   46.6050 C   0  0  0  0  0  0  0  0  0  0  0  0
   32.4540   29.0060   46.8450 C   0  0  0  0  0  0  0  0  0  0  0  0
   32.6030   28.1590   47.9070 C   0  0  0  0  0  0  0  0  0  0  0  0
   33.7190   28.1360   48.6620 C   0  0  0  0  0  0  0  0  0  0  0  0
   31.2780   27.0420   48.3170 S   0  0  0  0  0  0  0  0  0  0  0  0
   29.9980   27.3590   47.1190 C   0  0  0  0  0  0  0  0  0  0  0  0
   28.8570   26.6320   47.2040 C   0  0  0  0  0  0  0  0  0  0  0  0
   27.8090   26.8060   46.3220 C   0  0  0  0  0  0  0  0  0  0  0  0
   27.9510   27.7560   45.3330 C   0  0  0  0  0  0  0  0  0  0  0  0
   29.1350   28.4680   45.2940 C   0  0  0  0  0  0  0  0  0  0  0  0
   30.1990   28.3170   46.1580 C   0  0  0  0  0  0  0  0  0  0  0  0
   31.3380   29.1050   46.0040 N   0  0  0  0  0  0  0  0  0  0  0  0
   35.9790   29.0010   49.1500 O   0  0  0  0  0  0  0  0  0  0  0  0
   37.0200   30.7120   50.5720 C   0  0  1  0  0  0  0  0  0  0  0  0
   36.1820   29.5430   50.4240 C   0  0  2  0  0  0  0  0  0  0  0  0
   37.5680   29.3470   51.0070 C   0  0  0  0  0  0  0  0  0  0  0  0
   37.7800   31.2820   49.3910 C   0  0  0  0  0  0  0  0  0  0  0  0
   38.2020   32.6110   49.5120 C   0  0  0  0  0  0  0  0  0  0  0  0
   38.8770   33.1170   48.4190 C   0  0  0  0  0  0  0  0  0  0  0  0
   39.1070   32.3530   47.3050 N   0  0  0  0  0  0  0  0  0  0  0  0
   38.6750   31.0590   47.2370 C   0  0  0  0  0  0  0  0  0  0  0  0
   38.0050   30.5170   48.2890 N   0  0  0  0  0  0  0  0  0  0  0  0
   35.5060   30.5242   47.1059 H   0  0  0  0  0  0  0  0  0  0  0  0
   33.4613   30.5322   45.7601 H   0  0  0  0  0  0  0  0  0  0  0  0
   33.7642   27.4263   49.5012 H   0  0  0  0  0  0  0  0  0  0  0  0
   28.7631   25.8796   48.0009 H   0  0  0  0  0  0  0  0  0  0  0  0
   26.8907   26.2062   46.4057 H   0  0  0  0  0  0  0  0  0  0  0  0
   27.1507   27.9407   44.6012 H   0  0  0  0  0  0  0  0  0  0  0  0
   29.2379   29.2239   44.5016 H   0  0  0  0  0  0  0  0  0  0  0  0
   31.3604   29.7917   45.2366 H   0  0  0  0  0  0  0  0  0  0  0  0
   36.8122   31.6962   51.0171 H   0  0  0  0  0  0  0  0  0  0  0  0
   35.1542   29.3205   50.7469 H   0  0  0  0  0  0  0  0  0  0  0  0
   38.3552   28.8483   50.4224 H   0  0  0  0  0  0  0  0  0  0  0  0
   37.9931   28.9142   51.9246 H   0  0  0  0  0  0  0  0  0  0  0  0
   38.0095   33.2101   50.4142 H   0  0  0  0  0  0  0  0  0  0  0  0
   39.2379   34.1558   48.4430 H   0  0  0  0  0  0  0  0  0  0  0  0
   38.8681   30.4584   46.3359 H   0  0  0  0  0  0  0  0  0  0  0  0
  1  6  1  0
  1 15  1  0
  2  1  2  0
  3  4  2  0
  3  2  1  0
  4  5  1  0
  5  7  1  0
  5  6  2  0
  8  9  2  0
  8  7  1  0
 10  9  1  0
 11 10  2  0
 12 11  1  0
 12 13  2  0
 13  8  1  0
 14 13  1  0
 14  4  1  0
 15 17  1  0
 16 18  1  0
 17 16  1  0
 17 18  1  0
 19 20  2  0
 19 16  1  0
 21 20  1  0
 22 21  2  0
 23 22  1  0
 23 24  2  0
 24 19  1  0
  2 25  1  0
  3 26  1  0
  6 27  1  0
  9 28  1  0
 10 29  1  0
 11 30  1  0
 12 31  1  0
 14 32  1  0
 16 33  1  1
 17 34  1  1
 18 35  1  0
 18 36  1  0
 20 37  1  0
 21 38  1  0
 23 39  1  0
M  ISO  8  25  14  26  14  27  14  28  14  29  14  30  14  31  14  33  13
M  ISO  6  34  13  35  13  36  13  37  14  38  14  39  14
M  END
>  <minimizedAffinity>  (1) 
-6.54087019

>  <minimizedRMSD>  (1) 
4.09969425

$$$$
