
     RDKit          3D

 54 59  0  0  1  0  0  0  0  0999 V2000
   40.3290   30.6530   41.9020 C   0  0  2  0  0  0  0  0  0  0  0  0
   39.9560   31.9060   42.6960 C   0  0  1  0  0  0  0  0  0  0  0  0
   38.7620   32.3450   41.8910 C   0  0  0  0  0  0  0  0  0  0  0  0
   39.0340   32.0420   40.5770 O   0  0  0  0  0  0  0  0  0  0  0  0
   40.1260   31.2320   40.4980 C   0  0  0  0  0  0  0  0  0  0  0  0
   38.5650   31.0850   45.9090 C   0  0  0  0  0  0  0  0  0  0  0  0
   39.8950   31.0700   46.2160 C   0  0  0  0  0  0  0  0  0  0  0  0
   40.5380   31.3820   45.0190 C   0  0  0  0  0  0  0  0  0  0  0  0
   39.6270   31.5700   44.0570 N   0  0  0  0  0  0  0  0  0  0  0  0
   38.4190   31.3880   44.6030 N   0  0  0  0  0  0  0  0  0  0  0  0
   36.5630   30.6420   49.0510 C   0  0  0  0  0  0  0  0  0  0  0  0
   37.6130   30.9080   48.2020 C   0  0  0  0  0  0  0  0  0  0  0  0
   37.4970   30.8180   46.8390 C   0  0  0  0  0  0  0  0  0  0  0  0
   36.2760   30.4490   46.3590 N   0  0  0  0  0  0  0  0  0  0  0  0
   35.2390   30.1890   47.2080 C   0  0  0  0  0  0  0  0  0  0  0  0
   35.3610   30.2770   48.5150 N   0  0  0  0  0  0  0  0  0  0  0  0
   36.8730   30.7860   50.3940 O   0  0  0  0  0  0  0  0  0  0  0  0
   36.8960   29.6990   51.2940 C   0  0  0  0  0  0  0  0  0  0  0  0
   35.6270   29.2510   51.6130 F   0  0  0  0  0  0  0  0  0  0  0  0
   37.5700   30.0820   52.4230 F   0  0  0  0  0  0  0  0  0  0  0  0
   37.6000   28.6590   50.7140 F   0  0  0  0  0  0  0  0  0  0  0  0
   39.3530   29.7060   42.1620 O   0  0  0  0  0  0  0  0  0  0  0  0
   39.3600   28.3850   41.8070 C   0  0  0  0  0  0  0  0  0  0  0  0
   39.5560   27.9000   40.5310 C   0  0  0  0  0  0  0  0  0  0  0  0
   39.5380   26.5380   40.3150 C   0  0  0  0  0  0  0  0  0  0  0  0
   39.3350   25.5800   41.2870 C   0  0  0  0  0  0  0  0  0  0  0  0
   39.1460   26.0910   42.5350 C   0  0  0  0  0  0  0  0  0  0  0  0
   39.1570   27.4360   42.7880 C   0  0  0  0  0  0  0  0  0  0  0  0
   38.8730   24.9640   43.8890 S   0  0  0  0  0  0  0  0  0  0  0  0
   38.9240   23.3350   43.2020 C   0  0  0  0  0  0  0  0  0  0  0  0
   38.7460   22.2680   44.0110 C   0  0  0  0  0  0  0  0  0  0  0  0
   38.7770   20.9560   43.5220 C   0  0  0  0  0  0  0  0  0  0  0  0
   38.9970   20.7820   42.1720 C   0  0  0  0  0  0  0  0  0  0  0  0
   39.1720   21.9080   41.3960 C   0  0  0  0  0  0  0  0  0  0  0  0
   39.1460   23.2070   41.8560 C   0  0  0  0  0  0  0  0  0  0  0  0
   39.3440   24.2370   40.9150 N   0  0  0  0  0  0  0  0  0  0  0  0
   41.3079   30.1885   42.0916 H   0  0  0  0  0  0  0  0  0  0  0  0
   40.7384   32.6715   42.8053 H   0  0  0  0  0  0  0  0  0  0  0  0
   37.8621   31.8076   42.2249 H   0  0  0  0  0  0  0  0  0  0  0  0
   38.5760   33.4218   42.0169 H   0  0  0  0  0  0  0  0  0  0  0  0
   39.9497   30.4233   39.7735 H   0  0  0  0  0  0  0  0  0  0  0  0
   41.0138   31.7867   40.1602 H   0  0  0  0  0  0  0  0  0  0  0  0
   40.3570   30.8586   47.1916 H   0  0  0  0  0  0  0  0  0  0  0  0
   41.6270   31.4614   44.8858 H   0  0  0  0  0  0  0  0  0  0  0  0
   38.5809   31.2037   48.6329 H   0  0  0  0  0  0  0  0  0  0  0  0
   34.2672   29.8956   46.7844 H   0  0  0  0  0  0  0  0  0  0  0  0
   39.7251   28.5928   39.6935 H   0  0  0  0  0  0  0  0  0  0  0  0
   39.6984   26.1872   39.2849 H   0  0  0  0  0  0  0  0  0  0  0  0
   38.9965   27.7764   43.8216 H   0  0  0  0  0  0  0  0  0  0  0  0
   38.5718   22.4343   45.0843 H   0  0  0  0  0  0  0  0  0  0  0  0
   38.6311   20.0951   44.1910 H   0  0  0  0  0  0  0  0  0  0  0  0
   39.0318   19.7762   41.7280 H   0  0  0  0  0  0  0  0  0  0  0  0
   39.3469   21.7572   40.3205 H   0  0  0  0  0  0  0  0  0  0  0  0
   39.4994   23.9910   39.9269 H   0  0  0  0  0  0  0  0  0  0  0  0
  1 22  1  0
  1  2  1  0
  2  9  1  0
  3  2  1  0
  4  3  1  0
  5  4  1  0
  5  1  1  0
  6  7  1  0
  6 13  1  0
  8  7  2  0
  9 10  1  0
  9  8  1  0
 10  6  2  0
 11 17  1  0
 12 11  2  0
 13 12  1  0
 14 13  2  0
 14 15  1  0
 15 16  2  0
 16 11  1  0
 17 18  1  0
 18 19  1  0
 18 20  1  0
 21 18  1  0
 23 22  1  0
 23 28  1  0
 24 23  2  0
 25 24  1  0
 25 26  2  0
 26 27  1  0
 27 28  2  0
 27 29  1  0
 30 29  1  0
 30 31  2  0
 32 31  1  0
 33 32  2  0
 34 35  2  0
 34 33  1  0
 35 30  1  0
 36 26  1  0
 36 35  1  0
  1 37  1  6
  2 38  1  1
  3 39  1  0
  3 40  1  0
  5 41  1  0
  5 42  1  0
  7 43  1  0
  8 44  1  0
 12 45  1  0
 15 46  1  0
 24 47  1  0
 25 48  1  0
 28 49  1  0
 31 50  1  0
 32 51  1  0
 33 52  1  0
 34 53  1  0
 36 54  1  0
M  ISO  8  37  13  38  13  39  13  40  13  41  13  42  13  43  14  44  14
M  ISO  8  45  14  46  14  47  14  48  14  49  14  50  14  51  14  52  14
M  ISO  1  53  14
M  END
>  <minimizedAffinity>  (1) 
-6.87468338

>  <minimizedRMSD>  (1) 
2.05645967

$$$$
