
     RDKit          3D

 47 51  0  0  0  0  0  0  0  0999 V2000
   35.0930   29.1820   50.5300 C   0  0  0  0  0  0  0  0  0  0  0  0
   36.0710   29.9290   49.8430 C   0  0  0  0  0  0  0  0  0  0  0  0
   35.9680   30.0400   48.4650 C   0  0  0  0  0  0  0  0  0  0  0  0
   34.9230   29.4170   47.8440 N   0  0  0  0  0  0  0  0  0  0  0  0
   34.0120   28.7150   48.5160 C   0  0  0  0  0  0  0  0  0  0  0  0
   34.0930   28.5980   49.8420 N   0  0  0  0  0  0  0  0  0  0  0  0
   36.8000   30.7750   47.5440 C   0  0  0  0  0  0  0  0  0  0  0  0
   37.8500   31.6510   47.6420 C   0  0  0  0  0  0  0  0  0  0  0  0
   38.4330   32.2590   46.5570 C   0  0  0  0  0  0  0  0  0  0  0  0
   38.0010   32.0320   45.2680 C   0  0  0  0  0  0  0  0  0  0  0  0
   36.9510   31.1600   45.1030 C   0  0  0  0  0  0  0  0  0  0  0  0
   36.4070   30.5840   46.1990 C   0  0  0  0  0  0  0  0  0  0  0  0
   36.3820   30.8540   43.4420 S   0  0  0  0  0  0  0  0  0  0  0  0
   37.4150   31.8430   42.3800 C   0  0  0  0  0  0  0  0  0  0  0  0
   37.1090   31.7270   41.0460 C   0  0  0  0  0  0  0  0  0  0  0  0
   37.8610   32.4610   40.1280 C   0  0  0  0  0  0  0  0  0  0  0  0
   38.8720   33.2670   40.6050 C   0  0  0  0  0  0  0  0  0  0  0  0
   39.1040   33.3180   41.9640 C   0  0  0  0  0  0  0  0  0  0  0  0
   38.3930   32.6130   42.9140 C   0  0  0  0  0  0  0  0  0  0  0  0
   38.7090   32.7370   44.2700 N   0  0  0  0  0  0  0  0  0  0  0  0
   32.6310   30.4250   46.4390 Cl  0  0  0  0  0  0  0  0  0  0  0  0
   32.2160   28.7550   46.7990 C   0  0  0  0  0  0  0  0  0  0  0  0
   32.9190   28.0660   47.7760 C   0  0  0  0  0  0  0  0  0  0  0  0
   32.6280   26.7310   48.1010 C   0  0  0  0  0  0  0  0  0  0  0  0
   31.5930   26.1330   47.3870 C   0  0  0  0  0  0  0  0  0  0  0  0
   30.8840   26.7960   46.4170 C   0  0  0  0  0  0  0  0  0  0  0  0
   29.6070   25.9380   45.5910 Cl  0  0  0  0  0  0  0  0  0  0  0  0
   31.2070   28.1120   46.1320 C   0  0  0  0  0  0  0  0  0  0  0  0
   30.4490   28.8400   45.0850 C   0  0  0  0  0  0  0  0  0  0  0  0
   29.3420   28.0940   44.6790 F   0  0  0  0  0  0  0  0  0  0  0  0
   31.2190   29.1640   44.0110 F   0  0  0  0  0  0  0  0  0  0  0  0
   29.9390   30.0260   45.6170 F   0  0  0  0  0  0  0  0  0  0  0  0
   37.1590   30.5950   50.6040 C   0  0  0  0  0  0  0  0  0  0  0  0
   38.4080   30.2550   50.1220 F   0  0  0  0  0  0  0  0  0  0  0  0
   36.9960   31.9710   50.5190 F   0  0  0  0  0  0  0  0  0  0  0  0
   37.1170   30.2780   51.9530 F   0  0  0  0  0  0  0  0  0  0  0  0
   35.1461   29.0763   51.6236 H   0  0  0  0  0  0  0  0  0  0  0  0
   38.2466   31.8790   48.6424 H   0  0  0  0  0  0  0  0  0  0  0  0
   39.2727   32.9501   46.7224 H   0  0  0  0  0  0  0  0  0  0  0  0
   35.5690   29.8928   46.0257 H   0  0  0  0  0  0  0  0  0  0  0  0
   36.2917   31.0720   40.7098 H   0  0  0  0  0  0  0  0  0  0  0  0
   37.6520   32.3979   39.0499 H   0  0  0  0  0  0  0  0  0  0  0  0
   39.4854   33.8614   39.9118 H   0  0  0  0  0  0  0  0  0  0  0  0
   39.9169   33.9696   42.3171 H   0  0  0  0  0  0  0  0  0  0  0  0
   39.4801   33.3602   44.5492 H   0  0  0  0  0  0  0  0  0  0  0  0
   33.1871   26.1877   48.8770 H   0  0  0  0  0  0  0  0  0  0  0  0
   31.3333   25.0875   47.6093 H   0  0  0  0  0  0  0  0  0  0  0  0
  2  1  2  0
  2 33  1  0
  3  2  1  0
  4  3  2  0
  4  5  1  0
  5  6  2  0
  6  1  1  0
  7  8  2  0
  7  3  1  0
  9  8  1  0
 10  9  2  0
 11 10  1  0
 11 12  2  0
 12  7  1  0
 13 11  1  0
 14 19  2  0
 14 13  1  0
 15 14  1  0
 16 17  1  0
 16 15  2  0
 17 18  2  0
 18 19  1  0
 19 20  1  0
 20 10  1  0
 21 22  1  0
 22 23  2  0
 23 24  1  0
 23  5  1  0
 25 24  2  0
 26 25  1  0
 27 26  1  0
 28 26  2  0
 28 22  1  0
 29 32  1  0
 29 28  1  0
 30 29  1  0
 31 29  1  0
 33 36  1  0
 34 33  1  0
 35 33  1  0
  1 37  1  0
  8 38  1  0
  9 39  1  0
 12 40  1  0
 15 41  1  0
 16 42  1  0
 17 43  1  0
 18 44  1  0
 20 45  1  0
 24 46  1  0
 25 47  1  0
M  ISO  8  37  14  38  14  39  14  40  14  41  14  42  14  43  14  44  14
M  ISO  2  46  14  47  14
M  END
>  <minimizedAffinity>  (1) 
-7.7377305

>  <minimizedRMSD>  (1) 
1.66056764

$$$$
