
     RDKit          3D

 34 37  0  0  0  0  0  0  0  0999 V2000
   33.4600   27.7200   47.7580 C   0  0  0  0  0  0  0  0  0  0  0  0
   33.6310   26.3560   47.6380 C   0  0  0  0  0  0  0  0  0  0  0  0
   32.6810   25.6210   46.9610 C   0  0  0  0  0  0  0  0  0  0  0  0
   31.5470   26.1520   46.3820 C   0  0  0  0  0  0  0  0  0  0  0  0
   31.3880   27.5100   46.5080 C   0  0  0  0  0  0  0  0  0  0  0  0
   32.3270   28.2490   47.1780 C   0  0  0  0  0  0  0  0  0  0  0  0
   29.9570   28.2480   45.7870 S   0  0  0  0  0  0  0  0  0  0  0  0
   29.0200   26.9360   45.0240 C   0  0  0  0  0  0  0  0  0  0  0  0
   27.8640   27.3050   44.4050 C   0  0  0  0  0  0  0  0  0  0  0  0
   27.0980   26.3320   43.7990 C   0  0  0  0  0  0  0  0  0  0  0  0
   27.5260   25.0230   43.8400 C   0  0  0  0  0  0  0  0  0  0  0  0
   28.7100   24.7350   44.4870 C   0  0  0  0  0  0  0  0  0  0  0  0
   29.5190   25.6630   45.1120 C   0  0  0  0  0  0  0  0  0  0  0  0
   30.6910   25.2330   45.7310 N   0  0  0  0  0  0  0  0  0  0  0  0
   35.5150   29.1330   50.4410 C   0  0  0  0  0  0  0  0  0  0  0  0
   36.2570   30.1190   49.7610 C   0  0  0  0  0  0  0  0  0  0  0  0
   36.0420   30.2870   48.3870 C   0  0  0  0  0  0  0  0  0  0  0  0
   35.1160   29.4750   47.7850 N   0  0  0  0  0  0  0  0  0  0  0  0
   34.4310   28.5500   48.4610 C   0  0  0  0  0  0  0  0  0  0  0  0
   34.6090   28.3620   49.7730 N   0  0  0  0  0  0  0  0  0  0  0  0
   37.2350   30.9360   50.5450 C   0  0  0  0  0  0  0  0  0  0  0  0
   38.5140   30.8370   49.9930 F   0  0  0  0  0  0  0  0  0  0  0  0
   36.8490   32.2550   50.4630 F   0  0  0  0  0  0  0  0  0  0  0  0
   37.3050   30.5690   51.8610 F   0  0  0  0  0  0  0  0  0  0  0  0
   34.5115   25.8628   48.0756 H   0  0  0  0  0  0  0  0  0  0  0  0
   32.8383   24.5356   46.8767 H   0  0  0  0  0  0  0  0  0  0  0  0
   32.1665   29.3343   47.2583 H   0  0  0  0  0  0  0  0  0  0  0  0
   27.5479   28.3585   44.3890 H   0  0  0  0  0  0  0  0  0  0  0  0
   26.1593   26.5968   43.2904 H   0  0  0  0  0  0  0  0  0  0  0  0
   26.9360   24.2243   43.3668 H   0  0  0  0  0  0  0  0  0  0  0  0
   29.0348   23.6842   44.5064 H   0  0  0  0  0  0  0  0  0  0  0  0
   30.9373   24.2330   45.7143 H   0  0  0  0  0  0  0  0  0  0  0  0
   35.6675   28.9835   51.5201 H   0  0  0  0  0  0  0  0  0  0  0  0
   36.5963   31.0433   47.8118 H   0  0  0  0  0  0  0  0  0  0  0  0
  1 19  1  0
  2  1  2  0
  3  2  1  0
  4  5  1  0
  4  3  2  0
  5  6  2  0
  6  1  1  0
  7  5  1  0
  8 13  2  0
  8  7  1  0
  9  8  1  0
 10 11  1  0
 10  9  2  0
 11 12  2  0
 12 13  1  0
 13 14  1  0
 14  4  1  0
 16 15  2  0
 16 21  1  0
 17 16  1  0
 18 17  2  0
 18 19  1  0
 19 20  2  0
 20 15  1  0
 21 24  1  0
 22 21  1  0
 23 21  1  0
  2 25  1  0
  3 26  1  0
  6 27  1  0
  9 28  1  0
 10 29  1  0
 11 30  1  0
 12 31  1  0
 14 32  1  0
 15 33  1  0
 17 34  1  0
M  ISO  8  25  14  26  14  27  14  28  14  29  14  30  14  31  14  33  14
M  ISO  1  34  14
M  END
>  <minimizedAffinity>  (1) 
-6.11123896

>  <minimizedRMSD>  (1) 
0.548855126

$$$$
