
     RDKit          3D

 21 22  0  0  0  0  0  0  0  0999 V2000
   36.4750   29.0280   49.0310 O   0  0  0  0  0  0  0  0  0  0  0  0
   34.4140   27.9290   49.0150 C   0  0  0  0  0  0  0  0  0  0  0  0
   35.2160   28.9680   48.4750 C   0  0  0  0  0  0  0  0  0  0  0  0
   34.6520   29.7670   47.4890 C   0  0  0  0  0  0  0  0  0  0  0  0
   33.3890   29.5140   47.1030 N   0  0  0  0  0  0  0  0  0  0  0  0
   32.6520   28.5290   47.6260 C   0  0  0  0  0  0  0  0  0  0  0  0
   33.1410   27.7080   48.5970 N   0  0  0  0  0  0  0  0  0  0  0  0
   37.2720   30.2550   51.6790 Cl  0  0  0  0  0  0  0  0  0  0  0  0
   37.6610   30.8380   50.0720 C   0  0  0  0  0  0  0  0  0  0  0  0
   37.2430   30.1950   48.9330 C   0  0  0  0  0  0  0  0  0  0  0  0
   37.5580   30.6650   47.6690 C   0  0  0  0  0  0  0  0  0  0  0  0
   38.3190   31.8220   47.5590 C   0  0  0  0  0  0  0  0  0  0  0  0
   38.7630   32.5030   48.6780 C   0  0  0  0  0  0  0  0  0  0  0  0
   38.4170   31.9840   49.9210 C   0  0  0  0  0  0  0  0  0  0  0  0
   34.8372   27.2819   49.7974 H   0  0  0  0  0  0  0  0  0  0  0  0
   35.2254   30.5882   47.0341 H   0  0  0  0  0  0  0  0  0  0  0  0
   31.6247   28.3775   47.2632 H   0  0  0  0  0  0  0  0  0  0  0  0
   37.2126   30.1330   46.7703 H   0  0  0  0  0  0  0  0  0  0  0  0
   38.5741   32.2050   46.5599 H   0  0  0  0  0  0  0  0  0  0  0  0
   39.3658   33.4187   48.5883 H   0  0  0  0  0  0  0  0  0  0  0  0
   38.7607   32.5096   50.8241 H   0  0  0  0  0  0  0  0  0  0  0  0
  3  2  2  0
  3  1  1  0
  4  3  1  0
  5  4  2  0
  5  6  1  0
  6  7  2  0
  7  2  1  0
  9  8  1  0
 10  1  1  0
 10  9  2  0
 11 10  1  0
 12 11  2  0
 12 13  1  0
 13 14  2  0
 14  9  1  0
  2 15  1  0
  4 16  1  0
  6 17  1  0
 11 18  1  0
 12 19  1  0
 13 20  1  0
 14 21  1  0
M  ISO  7  15  14  16  14  17  14  18  14  19  14  20  14  21  14
M  END
>  <minimizedAffinity>  (1) 
-4.88405609

>  <minimizedRMSD>  (1) 
3.37534046

$$$$
