
     RDKit          3D

 47 50  0  0  1  0  0  0  0  0999 V2000
   39.3090   32.9040   43.6770 C   0  0  0  0  0  0  0  0  0  0  0  0
   39.3480   29.5520   42.5340 C   0  0  1  0  0  0  0  0  0  0  0  0
   39.0410   30.9710   42.1240 C   0  0  0  0  0  0  0  0  0  0  0  0
   39.9980   31.7550   42.9830 C   0  0  2  0  0  0  0  0  0  0  0  0
   40.5770   30.8850   43.8700 O   0  0  0  0  0  0  0  0  0  0  0  0
   39.7650   29.7680   43.9810 C   0  0  0  0  0  0  0  0  0  0  0  0
   38.2430   28.7330   42.4410 O   0  0  0  0  0  0  0  0  0  0  0  0
   35.4240   27.9370   42.3970 Cl  0  0  0  0  0  0  0  0  0  0  0  0
   36.8080   26.9050   42.7860 C   0  0  0  0  0  0  0  0  0  0  0  0
   38.0910   27.4220   42.7660 C   0  0  0  0  0  0  0  0  0  0  0  0
   39.0880   26.5290   43.0850 C   0  0  0  0  0  0  0  0  0  0  0  0
   38.9040   25.2090   43.4100 C   0  0  0  0  0  0  0  0  0  0  0  0
   37.6150   24.7110   43.4240 C   0  0  0  0  0  0  0  0  0  0  0  0
   36.5740   25.5710   43.1100 C   0  0  0  0  0  0  0  0  0  0  0  0
   40.3720   33.4280   45.0510 S   0  0  0  0  0  0  0  0  0  0  0  0
   37.7630   31.8010   47.5620 C   0  0  0  0  0  0  0  0  0  0  0  0
   38.0030   32.4550   48.7810 C   0  0  0  0  0  0  0  0  0  0  0  0
   38.9810   33.4240   48.8790 C   0  0  0  0  0  0  0  0  0  0  0  0
   39.6840   33.7000   47.7330 C   0  0  0  0  0  0  0  0  0  0  0  0
   39.4310   33.0520   46.5660 C   0  0  0  0  0  0  0  0  0  0  0  0
   38.4700   32.0940   46.4580 N   0  0  0  0  0  0  0  0  0  0  0  0
   36.7260   30.8000   47.5410 C   0  0  0  0  0  0  0  0  0  0  0  0
   36.2730   30.3770   46.4720 O   0  0  0  0  0  0  0  0  0  0  0  0
   37.0110   29.5710   49.6610 C   0  0  0  0  0  0  0  0  0  0  0  0
   36.1570   30.2330   48.7760 C   0  0  0  0  0  0  0  0  0  0  0  0
   34.7910   30.3400   49.0890 C   0  0  0  0  0  0  0  0  0  0  0  0
   34.3470   29.7820   50.2600 N   0  0  0  0  0  0  0  0  0  0  0  0
   35.1910   29.1510   51.0910 C   0  0  0  0  0  0  0  0  0  0  0  0
   36.4980   29.0460   50.8000 N   0  0  0  0  0  0  0  0  0  0  0  0
   38.3312   32.5785   44.0617 H   0  0  0  0  0  0  0  0  0  0  0  0
   39.1428   33.7359   42.9768 H   0  0  0  0  0  0  0  0  0  0  0  0
   40.0986   29.0504   41.9056 H   0  0  0  0  0  0  0  0  0  0  0  0
   39.2405   31.1306   41.0541 H   0  0  0  0  0  0  0  0  0  0  0  0
   37.9869   31.2550   42.2589 H   0  0  0  0  0  0  0  0  0  0  0  0
   40.7781   32.2137   42.3577 H   0  0  0  0  0  0  0  0  0  0  0  0
   38.8952   29.9657   44.6247 H   0  0  0  0  0  0  0  0  0  0  0  0
   40.2581   28.8986   44.4405 H   0  0  0  0  0  0  0  0  0  0  0  0
   40.1214   26.9059   43.0789 H   0  0  0  0  0  0  0  0  0  0  0  0
   39.7607   24.5634   43.6533 H   0  0  0  0  0  0  0  0  0  0  0  0
   37.4199   23.6586   43.6779 H   0  0  0  0  0  0  0  0  0  0  0  0
   35.5415   25.1917   43.1169 H   0  0  0  0  0  0  0  0  0  0  0  0
   37.4057   32.1925   49.6667 H   0  0  0  0  0  0  0  0  0  0  0  0
   39.1860   33.9470   49.8248 H   0  0  0  0  0  0  0  0  0  0  0  0
   40.4730   34.4660   47.7601 H   0  0  0  0  0  0  0  0  0  0  0  0
   38.0838   29.4772   49.4368 H   0  0  0  0  0  0  0  0  0  0  0  0
   34.0960   30.8581   48.4119 H   0  0  0  0  0  0  0  0  0  0  0  0
   34.8067   28.7134   52.0242 H   0  0  0  0  0  0  0  0  0  0  0  0
  1 15  1  0
  2  6  1  0
  3  2  1  0
  3  4  1  0
  4  1  1  0
  4  5  1  0
  5  6  1  0
  7  2  1  0
  7 10  1  0
  8  9  1  0
  9 14  2  0
 10  9  1  0
 10 11  2  0
 11 12  1  0
 12 13  2  0
 14 13  1  0
 15 20  1  0
 16 17  2  0
 17 18  1  0
 19 18  2  0
 20 19  1  0
 21 20  2  0
 21 16  1  0
 22 16  1  0
 22 25  1  0
 23 22  2  0
 24 29  2  0
 25 26  2  0
 25 24  1  0
 26 27  1  0
 27 28  2  0
 29 28  1  0
  1 30  1  0
  1 31  1  0
  2 32  1  6
  3 33  1  0
  3 34  1  0
  4 35  1  6
  6 36  1  0
  6 37  1  0
 11 38  1  0
 12 39  1  0
 13 40  1  0
 14 41  1  0
 17 42  1  0
 18 43  1  0
 19 44  1  0
 24 45  1  0
 26 46  1  0
 28 47  1  0
M  ISO  8  30   8  31   8  32  13  33  13  34  13  35  13  36  13  37  13
M  ISO  8  38  14  39  14  40  14  41  14  42  14  43  14  44  14  45  14
M  ISO  2  46  14  47  14
M  END
>  <minimizedAffinity>  (1) 
-5.64981985

>  <minimizedRMSD>  (1) 
1.50269926

$$$$
