
     RDKit          3D

 26 27  0  0  0  0  0  0  0  0999 V2000
   37.1850   33.5640   49.7150 O   0  0  0  0  0  0  0  0  0  0  0  0
   38.4490   32.9700   49.0670 P   0  0  1  0  0  0  0  0  0  0  0  0
   39.7520   33.9170   49.6340 O   0  0  0  0  0  0  0  0  0  0  0  0
   38.6460   31.4270   49.7210 O   0  0  0  0  0  0  0  0  0  0  0  0
   37.3650   30.3370   51.4060 C   0  0  0  0  0  0  0  0  0  0  0  0
   37.6830   30.5250   50.0540 C   0  0  0  0  0  0  0  0  0  0  0  0
   36.9770   29.7600   49.1320 C   0  0  0  0  0  0  0  0  0  0  0  0
   36.0270   28.8790   49.5740 N   0  0  0  0  0  0  0  0  0  0  0  0
   35.7590   28.7360   50.8820 C   0  0  0  0  0  0  0  0  0  0  0  0
   36.4270   29.4660   51.8090 N   0  0  0  0  0  0  0  0  0  0  0  0
   38.2390   33.0400   47.4330 O   0  0  0  0  0  0  0  0  0  0  0  0
   36.9450   30.6480   46.0560 Cl  0  0  0  0  0  0  0  0  0  0  0  0
   38.5440   31.2410   45.7150 C   0  0  0  0  0  0  0  0  0  0  0  0
   38.9030   32.3290   46.4640 C   0  0  0  0  0  0  0  0  0  0  0  0
   40.1750   32.8670   46.2510 C   0  0  0  0  0  0  0  0  0  0  0  0
   41.0510   32.3290   45.3190 C   0  0  0  0  0  0  0  0  0  0  0  0
   40.6650   31.2310   44.5750 C   0  0  0  0  0  0  0  0  0  0  0  0
   39.4170   30.7080   44.7880 C   0  0  0  0  0  0  0  0  0  0  0  0
   39.7531   33.9178   50.6240 H   0  0  0  0  0  0  0  0  0  0  0  0
   37.9037   30.9245   52.1640 H   0  0  0  0  0  0  0  0  0  0  0  0
   37.1803   29.8620   48.0558 H   0  0  0  0  0  0  0  0  0  0  0  0
   34.9896   28.0192   51.2048 H   0  0  0  0  0  0  0  0  0  0  0  0
   40.4907   33.7416   46.8387 H   0  0  0  0  0  0  0  0  0  0  0  0
   42.0464   32.7740   45.1736 H   0  0  0  0  0  0  0  0  0  0  0  0
   41.3426   30.7879   43.8304 H   0  0  0  0  0  0  0  0  0  0  0  0
   39.0998   29.8338   44.2005 H   0  0  0  0  0  0  0  0  0  0  0  0
  2  3  1  0
  2  1  2  0
  2  4  1  0
  4  6  1  0
  5 10  2  0
  6  5  1  0
  7  8  1  0
  7  6  2  0
  8  9  2  0
  9 10  1  0
 11  2  1  0
 13 12  1  0
 13 14  2  0
 14 11  1  0
 15 14  1  0
 16 15  2  0
 17 18  2  0
 17 16  1  0
 18 13  1  0
  3 19  1  0
  5 20  1  0
  7 21  1  0
  9 22  1  0
 15 23  1  0
 16 24  1  0
 17 25  1  0
 18 26  1  0
M  ISO  8  19   3  20  14  21  14  22  14  23  14  24  14  25  14  26  14
M  END
>  <minimizedAffinity>  (1) 
-4.8804183

>  <minimizedRMSD>  (1) 
1.34100068

$$$$
