
     RDKit          3D

 30 32  0  0  0  0  0  0  0  0999 V2000
   37.1380   31.2970   49.2330 C   0  0  0  0  0  0  0  0  0  0  0  0
   37.3300   32.5540   49.8150 C   0  0  0  0  0  0  0  0  0  0  0  0
   38.2730   33.3570   49.2140 C   0  0  0  0  0  0  0  0  0  0  0  0
   38.9440   32.9060   48.1260 N   0  0  0  0  0  0  0  0  0  0  0  0
   38.7450   31.6850   47.5750 C   0  0  0  0  0  0  0  0  0  0  0  0
   37.8120   30.8630   48.1540 N   0  0  0  0  0  0  0  0  0  0  0  0
   36.0920   30.4010   49.8470 C   0  0  0  0  0  0  0  0  0  0  0  0
   36.0850   28.9730   49.6560 C   0  0  0  0  0  0  0  0  0  0  0  0
   36.6660   29.5030   50.9520 C   0  0  0  0  0  0  0  0  0  0  0  0
   39.4370   31.1660   46.3980 C   0  0  0  0  0  0  0  0  0  0  0  0
   40.0830   33.7200   44.8700 Cl  0  0  0  0  0  0  0  0  0  0  0  0
   38.9290   32.5230   44.3210 C   0  0  0  0  0  0  0  0  0  0  0  0
   38.7420   31.4160   45.1220 C   0  0  0  0  0  0  0  0  0  0  0  0
   37.8060   30.5100   44.6150 C   0  0  0  0  0  0  0  0  0  0  0  0
   37.0950   30.6360   43.4370 C   0  0  0  0  0  0  0  0  0  0  0  0
   37.3420   31.7790   42.6880 C   0  0  0  0  0  0  0  0  0  0  0  0
   38.2620   32.7260   43.1310 C   0  0  0  0  0  0  0  0  0  0  0  0
   36.7624   32.8810   50.6987 H   0  0  0  0  0  0  0  0  0  0  0  0
   38.4810   34.3600   49.6149 H   0  0  0  0  0  0  0  0  0  0  0  0
   35.2903   31.1418   49.7112 H   0  0  0  0  0  0  0  0  0  0  0  0
   35.1298   28.4277   49.6721 H   0  0  0  0  0  0  0  0  0  0  0  0
   36.4634   28.3071   48.8664 H   0  0  0  0  0  0  0  0  0  0  0  0
   37.7498   29.4655   51.1363 H   0  0  0  0  0  0  0  0  0  0  0  0
   36.4917   29.3493   52.0272 H   0  0  0  0  0  0  0  0  0  0  0  0
   40.4296   31.6374   46.3470 H   0  0  0  0  0  0  0  0  0  0  0  0
   39.4861   30.0738   46.5195 H   0  0  0  0  0  0  0  0  0  0  0  0
   37.6166   29.6067   45.2135 H   0  0  0  0  0  0  0  0  0  0  0  0
   36.3731   29.8730   43.1105 H   0  0  0  0  0  0  0  0  0  0  0  0
   36.8080   31.9373   41.7394 H   0  0  0  0  0  0  0  0  0  0  0  0
   38.4555   33.6304   42.5355 H   0  0  0  0  0  0  0  0  0  0  0  0
  1  2  2  0
  1  7  1  0
  3  2  1  0
  4  3  2  0
  5  4  1  0
  5  6  2  0
  6  1  1  0
  7  9  1  0
  8  7  1  0
  8  9  1  0
 10  5  1  0
 12 11  1  0
 12 13  2  0
 13 10  1  0
 14 13  1  0
 15 14  2  0
 16 17  2  0
 16 15  1  0
 17 12  1  0
  2 18  1  0
  3 19  1  0
  7 20  1  0
  8 21  1  0
  8 22  1  0
  9 23  1  0
  9 24  1  0
 10 25  1  0
 10 26  1  0
 14 27  1  0
 15 28  1  0
 16 29  1  0
 17 30  1  0
M  ISO  8  18  14  19  14  20  13  21  13  22  13  23  13  24  13  25   8
M  ISO  5  26   8  27  14  28  14  29  14  30  14
M  END
>  <minimizedAffinity>  (1) 
-5.64083338

>  <minimizedRMSD>  (1) 
0.699618697

$$$$
