
     RDKit          3D

 33 35  0  0  0  0  0  0  0  0999 V2000
   37.3880   31.0570   47.1360 N   0  0  0  0  0  0  0  0  0  0  0  0
   36.8080   30.7220   45.9520 C   0  0  0  0  0  0  0  0  0  0  0  0
   37.2690   31.1960   44.7340 C   0  0  0  0  0  0  0  0  0  0  0  0
   38.3820   32.0540   44.7670 C   0  0  0  0  0  0  0  0  0  0  0  0
   38.8380   32.5090   43.6950 O   0  0  0  0  0  0  0  0  0  0  0  0
   38.9680   32.3930   45.9550 N   0  0  0  0  0  0  0  0  0  0  0  0
   38.4270   31.8680   47.0610 C   0  0  0  0  0  0  0  0  0  0  0  0
   38.9880   32.2040   48.1250 O   0  0  0  0  0  0  0  0  0  0  0  0
   37.2370   29.4820   50.4930 C   0  0  0  0  0  0  0  0  0  0  0  0
   37.7370   29.9600   49.2670 C   0  0  0  0  0  0  0  0  0  0  0  0
   36.9110   30.5710   48.3570 C   0  0  0  0  0  0  0  0  0  0  0  0
   35.5890   30.7020   48.6720 N   0  0  0  0  0  0  0  0  0  0  0  0
   35.0860   30.2460   49.8550 C   0  0  0  0  0  0  0  0  0  0  0  0
   35.9060   29.6390   50.7590 N   0  0  0  0  0  0  0  0  0  0  0  0
   38.3780   28.7840   43.2800 Cl  0  0  0  0  0  0  0  0  0  0  0  0
   37.0210   29.7510   42.6830 C   0  0  0  0  0  0  0  0  0  0  0  0
   36.6340   30.8260   43.4720 C   0  0  0  0  0  0  0  0  0  0  0  0
   35.5770   31.6280   43.0640 C   0  0  0  0  0  0  0  0  0  0  0  0
   34.8930   31.3720   41.8730 C   0  0  0  0  0  0  0  0  0  0  0  0
   35.3010   30.2890   41.1030 C   0  0  0  0  0  0  0  0  0  0  0  0
   36.3430   29.4890   41.4950 C   0  0  0  0  0  0  0  0  0  0  0  0
   40.1100   33.2740   45.9760 C   0  0  0  0  0  0  0  0  0  0  0  0
   39.9640   34.2570   45.0470 F   0  0  0  0  0  0  0  0  0  0  0  0
   41.3030   32.6240   45.7040 F   0  0  0  0  0  0  0  0  0  0  0  0
   40.1760   33.8840   47.2300 F   0  0  0  0  0  0  0  0  0  0  0  0
   35.9386   30.0482   45.9617 H   0  0  0  0  0  0  0  0  0  0  0  0
   37.9024   28.9934   51.2200 H   0  0  0  0  0  0  0  0  0  0  0  0
   38.8057   29.8421   49.0348 H   0  0  0  0  0  0  0  0  0  0  0  0
   34.0162   30.3684   50.0800 H   0  0  0  0  0  0  0  0  0  0  0  0
   35.2726   32.4801   43.6895 H   0  0  0  0  0  0  0  0  0  0  0  0
   34.0553   32.0094   41.5536 H   0  0  0  0  0  0  0  0  0  0  0  0
   34.7776   30.0696   40.1607 H   0  0  0  0  0  0  0  0  0  0  0  0
   36.6448   28.6366   40.8686 H   0  0  0  0  0  0  0  0  0  0  0  0
  1 11  1  0
  2  1  1  0
  3  4  1  0
  3  2  2  0
  4  6  1  0
  5  4  2  0
  6 22  1  0
  6  7  1  0
  7  1  1  0
  7  8  2  0
  9 14  2  0
 10  9  1  0
 11 12  1  0
 11 10  2  0
 12 13  2  0
 13 14  1  0
 16 15  1  0
 16 17  2  0
 17  3  1  0
 18 17  1  0
 19 18  2  0
 20 21  2  0
 20 19  1  0
 21 16  1  0
 22 25  1  0
 23 22  1  0
 24 22  1  0
  2 26  1  0
  9 27  1  0
 10 28  1  0
 13 29  1  0
 18 30  1  0
 19 31  1  0
 20 32  1  0
 21 33  1  0
M  ISO  8  26  14  27  14  28  14  29  14  30  14  31  14  32  14  33  14
M  END
>  <minimizedAffinity>  (1) 
-6.24819994

>  <minimizedRMSD>  (1) 
0.2746647

$$$$
