
     RDKit          3D

 39 41  0  0  0  0  0  0  0  0999 V2000
   34.6290   29.2400   45.4790 C   0  0  0  0  0  0  0  0  0  0  0  0
   34.5910   29.2140   46.8400 C   0  0  0  0  0  0  0  0  0  0  0  0
   33.5230   28.6010   47.4850 C   0  0  0  0  0  0  0  0  0  0  0  0
   32.4790   28.0120   46.8060 C   0  0  0  0  0  0  0  0  0  0  0  0
   32.4830   28.0230   45.4360 C   0  0  0  0  0  0  0  0  0  0  0  0
   33.5510   28.6350   44.8240 C   0  0  0  0  0  0  0  0  0  0  0  0
   37.2510   31.5340   47.8630 C   0  0  0  0  0  0  0  0  0  0  0  0
   36.2450   30.9170   47.1320 C   0  0  0  0  0  0  0  0  0  0  0  0
   35.6080   29.8310   47.6250 C   0  0  0  0  0  0  0  0  0  0  0  0
   35.9970   29.3920   48.8540 N   0  0  0  0  0  0  0  0  0  0  0  0
   36.9580   29.9790   49.5680 C   0  0  0  0  0  0  0  0  0  0  0  0
   37.5810   31.0460   49.0650 N   0  0  0  0  0  0  0  0  0  0  0  0
   37.2270   29.4340   50.9270 C   0  0  0  0  0  0  0  0  0  0  0  0
   37.7540   30.3870   51.7740 F   0  0  0  0  0  0  0  0  0  0  0  0
   35.9590   29.1290   51.5570 F   0  0  0  0  0  0  0  0  0  0  0  0
   37.8880   28.3030   51.0000 F   0  0  0  0  0  0  0  0  0  0  0  0
   35.9130   29.9210   44.5640 S   0  0  0  0  0  0  0  0  0  0  0  0
   35.5960   31.3150   44.1520 O   0  0  0  0  0  0  0  0  0  0  0  0
   35.6020   29.2770   43.2340 O   0  0  0  0  0  0  0  0  0  0  0  0
   37.4950   29.3520   44.3760 C   0  0  0  0  0  0  0  0  0  0  0  0
   38.2170   31.1160   41.9110 Cl  0  0  0  0  0  0  0  0  0  0  0  0
   39.0430   31.1320   43.4530 C   0  0  0  0  0  0  0  0  0  0  0  0
   38.6120   30.2590   44.4420 C   0  0  0  0  0  0  0  0  0  0  0  0
   39.4060   30.3900   45.5920 C   0  0  0  0  0  0  0  0  0  0  0  0
   40.4520   31.2420   45.7490 C   0  0  0  0  0  0  0  0  0  0  0  0
   40.7920   32.0600   44.7120 C   0  0  0  0  0  0  0  0  0  0  0  0
   40.0830   32.0110   43.5440 C   0  0  0  0  0  0  0  0  0  0  0  0
   33.5110   28.5856   48.5848 H   0  0  0  0  0  0  0  0  0  0  0  0
   31.6527   27.5389   47.3568 H   0  0  0  0  0  0  0  0  0  0  0  0
   31.6705   27.5641   44.8536 H   0  0  0  0  0  0  0  0  0  0  0  0
   33.5586   28.6503   43.7241 H   0  0  0  0  0  0  0  0  0  0  0  0
   37.7715   32.4147   47.4587 H   0  0  0  0  0  0  0  0  0  0  0  0
   35.9643   31.3141   46.1454 H   0  0  0  0  0  0  0  0  0  0  0  0
   37.5403   28.8679   43.3893 H   0  0  0  0  0  0  0  0  0  0  0  0
   37.6373   28.7201   45.2651 H   0  0  0  0  0  0  0  0  0  0  0  0
   39.1580   29.7422   46.4457 H   0  0  0  0  0  0  0  0  0  0  0  0
   41.0140   31.2717   46.6941 H   0  0  0  0  0  0  0  0  0  0  0  0
   41.6356   32.7583   44.8152 H   0  0  0  0  0  0  0  0  0  0  0  0
   40.3444   32.6641   42.6983 H   0  0  0  0  0  0  0  0  0  0  0  0
  1  2  1  0
  2  3  2  0
  2  9  1  0
  4  3  1  0
  5  4  2  0
  6  5  1  0
  6  1  2  0
  7 12  2  0
  8  9  2  0
  8  7  1  0
  9 10  1  0
 10 11  2  0
 11 13  1  0
 12 11  1  0
 13 16  1  0
 13 15  1  0
 13 14  1  0
 17  1  1  0
 18 17  2  0
 19 17  2  0
 20 23  1  0
 20 17  1  0
 21 22  1  0
 22 27  2  0
 22 23  1  0
 23 24  2  0
 24 25  1  0
 26 25  2  0
 27 26  1  0
  3 28  1  0
  4 29  1  0
  5 30  1  0
  6 31  1  0
  7 32  1  0
  8 33  1  0
 20 34  1  0
 20 35  1  0
 24 36  1  0
 25 37  1  0
 26 38  1  0
 27 39  1  0
M  ISO  8  28  14  29  14  30  14  31  14  32  14  33  14  34   8  35   8
M  ISO  4  36  14  37  14  38  14  39  14
M  END
>  <minimizedAffinity>  (1) 
-5.42519188

>  <minimizedRMSD>  (1) 
3.8160181

$$$$
