
     RDKit          3D

 42 44  0  0  1  0  0  0  0  0999 V2000
   34.2120   29.4310   48.7790 C   0  0  1  0  0  0  0  0  0  0  0  0
   33.9110   29.9850   50.0820 C   0  0  0  0  0  0  0  0  0  0  0  0
   34.7580   29.4960   51.2410 C   0  0  0  0  0  0  0  0  0  0  0  0
   36.1950   29.2760   50.9420 C   0  0  0  0  0  0  0  0  0  0  0  0
   36.5290   28.7280   49.6010 C   0  0  0  0  0  0  0  0  0  0  0  0
   35.6950   29.3220   48.5240 C   0  0  2  0  0  0  0  0  0  0  0  0
   32.1670   27.8920   48.8330 C   0  0  0  0  0  0  0  0  0  0  0  0
   33.4930   28.1980   48.3990 C   0  0  0  0  0  0  0  0  0  0  0  0
   34.0950   27.2500   47.5860 C   0  0  0  0  0  0  0  0  0  0  0  0
   33.4070   26.1060   47.2500 N   0  0  0  0  0  0  0  0  0  0  0  0
   32.1580   25.8780   47.6920 C   0  0  0  0  0  0  0  0  0  0  0  0
   31.5360   26.7790   48.4880 N   0  0  0  0  0  0  0  0  0  0  0  0
   36.1700   30.7900   48.4050 C   0  0  0  0  0  0  0  0  0  0  0  0
   37.4580   30.8490   47.5800 C   0  0  0  0  0  0  0  0  0  0  0  0
   36.9960   32.3670   50.1880 Cl  0  0  0  0  0  0  0  0  0  0  0  0
   38.1940   32.8410   48.9970 C   0  0  0  0  0  0  0  0  0  0  0  0
   38.2670   32.0480   47.8760 C   0  0  0  0  0  0  0  0  0  0  0  0
   39.2100   32.4010   46.9030 C   0  0  0  0  0  0  0  0  0  0  0  0
   40.0410   33.5000   47.0510 C   0  0  0  0  0  0  0  0  0  0  0  0
   39.9300   34.2760   48.2070 C   0  0  0  0  0  0  0  0  0  0  0  0
   39.0040   33.9450   49.1830 C   0  0  0  0  0  0  0  0  0  0  0  0
   33.7966   30.1866   48.0960 H   0  0  0  0  0  0  0  0  0  0  0  0
   34.0331   31.0763   50.0168 H   0  0  0  0  0  0  0  0  0  0  0  0
   32.8881   29.6506   50.3096 H   0  0  0  0  0  0  0  0  0  0  0  0
   34.6911   30.2421   52.0465 H   0  0  0  0  0  0  0  0  0  0  0  0
   34.3542   28.5091   51.5112 H   0  0  0  0  0  0  0  0  0  0  0  0
   36.7068   30.2446   51.0416 H   0  0  0  0  0  0  0  0  0  0  0  0
   36.5203   28.5043   51.6552 H   0  0  0  0  0  0  0  0  0  0  0  0
   37.5869   28.9394   49.3862 H   0  0  0  0  0  0  0  0  0  0  0  0
   36.3310   27.6462   49.6213 H   0  0  0  0  0  0  0  0  0  0  0  0
   35.8173   28.6603   47.6538 H   0  0  0  0  0  0  0  0  0  0  0  0
   31.6468   28.6118   49.4821 H   0  0  0  0  0  0  0  0  0  0  0  0
   35.1167   27.4111   47.2115 H   0  0  0  0  0  0  0  0  0  0  0  0
   31.6377   24.9524   47.4047 H   0  0  0  0  0  0  0  0  0  0  0  0
   35.3906   31.3877   47.9097 H   0  0  0  0  0  0  0  0  0  0  0  0
   36.3617   31.1940   49.4100 H   0  0  0  0  0  0  0  0  0  0  0  0
   37.1926   30.8577   46.5125 H   0  0  0  0  0  0  0  0  0  0  0  0
   38.0615   29.9670   47.8407 H   0  0  0  0  0  0  0  0  0  0  0  0
   39.2937   31.7875   45.9938 H   0  0  0  0  0  0  0  0  0  0  0  0
   40.7745   33.7565   46.2724 H   0  0  0  0  0  0  0  0  0  0  0  0
   40.5800   35.1529   48.3430 H   0  0  0  0  0  0  0  0  0  0  0  0
   38.9147   34.5537   50.0949 H   0  0  0  0  0  0  0  0  0  0  0  0
  1  2  1  0
  2  3  1  0
  4  3  1  0
  5  4  1  0
  6  1  1  0
  6  5  1  0
  8  1  1  0
  8  7  2  0
  9  8  1  0
 10  9  2  0
 10 11  1  0
 11 12  2  0
 12  7  1  0
 13  6  1  0
 14 17  1  0
 14 13  1  0
 16 21  2  0
 16 15  1  0
 17 16  1  0
 18 19  1  0
 18 17  2  0
 19 20  2  0
 20 21  1  0
  1 22  1  6
  2 23  1  0
  2 24  1  0
  3 25  1  0
  3 26  1  0
  4 27  1  0
  4 28  1  0
  5 29  1  0
  5 30  1  0
  6 31  1  6
  7 32  1  0
  9 33  1  0
 11 34  1  0
 13 35  1  0
 13 36  1  0
 14 37  1  0
 14 38  1  0
 18 39  1  0
 19 40  1  0
 20 41  1  0
 21 42  1  0
M  ISO  8  22  13  23  13  24  13  25  13  26  13  27  13  28  13  29  13
M  ISO  8  30  13  31  13  32  14  33  14  34  14  35   8  36   8  37   8
M  ISO  5  38   8  39  14  40  14  41  14  42  14
M  END
>  <minimizedAffinity>  (1) 
-6.00231409

>  <minimizedRMSD>  (1) 
2.87136841

$$$$
