
     RDKit          3D

 41 44  0  0  1  0  0  0  0  0999 V2000
   34.8840   29.9530   47.2590 C   0  0  0  0  0  0  0  0  0  0  0  0
   35.5820   30.0410   46.0420 C   0  0  0  0  0  0  0  0  0  0  0  0
   36.7850   30.7060   46.2830 C   0  0  0  0  0  0  0  0  0  0  0  0
   36.7700   30.9860   47.5980 N   0  0  0  0  0  0  0  0  0  0  0  0
   35.6480   30.5370   48.1470 N   0  0  0  0  0  0  0  0  0  0  0  0
   38.4770   32.6870   47.6290 N   0  0  0  0  0  0  0  0  0  0  0  0
   39.1080   33.5060   48.6470 C   0  0  0  0  0  0  0  0  0  0  0  0
   38.4120   33.2230   49.9630 C   0  0  0  0  0  0  0  0  0  0  0  0
   37.1700   32.4610   49.4930 C   0  0  0  0  0  0  0  0  0  0  0  0
   37.7580   31.6590   48.3770 C   0  0  1  0  0  0  0  0  0  0  0  0
   38.6660   30.6870   48.9290 N   0  0  0  0  0  0  0  0  0  0  0  0
   33.3360   28.2670   48.2490 C   0  0  0  0  0  0  0  0  0  0  0  0
   33.5860   29.3070   47.3250 C   0  0  0  0  0  0  0  0  0  0  0  0
   32.5580   29.6990   46.4750 C   0  0  0  0  0  0  0  0  0  0  0  0
   31.3770   29.0490   46.5950 N   0  0  0  0  0  0  0  0  0  0  0  0
   31.1480   28.0600   47.4790 C   0  0  0  0  0  0  0  0  0  0  0  0
   32.1590   27.6570   48.3310 N   0  0  0  0  0  0  0  0  0  0  0  0
   29.7680   28.4950   50.0950 Cl  0  0  0  0  0  0  0  0  0  0  0  0
   29.1620   27.5330   48.7730 C   0  0  0  0  0  0  0  0  0  0  0  0
   29.8640   27.3770   47.5850 C   0  0  0  0  0  0  0  0  0  0  0  0
   29.3650   26.6070   46.5420 C   0  0  0  0  0  0  0  0  0  0  0  0
   28.1500   25.9670   46.6520 C   0  0  0  0  0  0  0  0  0  0  0  0
   27.4620   26.1260   47.8340 C   0  0  0  0  0  0  0  0  0  0  0  0
   27.9380   26.8860   48.8830 C   0  0  0  0  0  0  0  0  0  0  0  0
   35.2402   29.6539   45.0708 H   0  0  0  0  0  0  0  0  0  0  0  0
   37.5737   30.9483   45.5556 H   0  0  0  0  0  0  0  0  0  0  0  0
   39.1853   32.2611   47.0143 H   0  0  0  0  0  0  0  0  0  0  0  0
   40.1751   33.2505   48.7250 H   0  0  0  0  0  0  0  0  0  0  0  0
   39.0257   34.5722   48.3892 H   0  0  0  0  0  0  0  0  0  0  0  0
   39.0372   32.6042   50.6234 H   0  0  0  0  0  0  0  0  0  0  0  0
   38.1890   34.1227   50.5553 H   0  0  0  0  0  0  0  0  0  0  0  0
   36.7625   31.8173   50.2865 H   0  0  0  0  0  0  0  0  0  0  0  0
   36.3197   33.0971   49.2058 H   0  0  0  0  0  0  0  0  0  0  0  0
   38.6284   30.7273   49.9575 H   0  0  0  0  0  0  0  0  0  0  0  0
   38.3950   29.7452   48.6121 H   0  0  0  0  0  0  0  0  0  0  0  0
   34.1450   27.9516   48.9242 H   0  0  0  0  0  0  0  0  0  0  0  0
   32.6984   30.5025   45.7370 H   0  0  0  0  0  0  0  0  0  0  0  0
   29.9484   26.5068   45.6149 H   0  0  0  0  0  0  0  0  0  0  0  0
   27.7470   25.3555   45.8312 H   0  0  0  0  0  0  0  0  0  0  0  0
   26.4894   25.6248   47.9473 H   0  0  0  0  0  0  0  0  0  0  0  0
   27.3478   26.9794   49.8065 H   0  0  0  0  0  0  0  0  0  0  0  0
  1 13  1  0
  1  5  2  0
  2  3  2  0
  2  1  1  0
  3  4  1  0
  4  5  1  0
  4 10  1  0
  6 10  1  0
  6  7  1  0
  7  8  1  0
  9  8  1  0
 10 11  1  1
 10  9  1  0
 12 17  2  0
 13 12  1  0
 14 15  1  0
 14 13  2  0
 15 16  2  0
 16 20  1  0
 16 17  1  0
 19 24  2  0
 19 18  1  0
 20 19  1  0
 21 22  1  0
 21 20  2  0
 22 23  2  0
 23 24  1  0
  2 25  1  0
  3 26  1  0
  6 27  1  0
  7 28  1  0
  7 29  1  0
  8 30  1  0
  8 31  1  0
  9 32  1  0
  9 33  1  0
 11 34  1  0
 11 35  1  0
 12 36  1  0
 14 37  1  0
 21 38  1  0
 22 39  1  0
 23 40  1  0
 24 41  1  0
M  ISO  8  25  14  26  14  27   5  28  13  29  13  30  13  31  13  32  13
M  ISO  8  33  13  34   5  35   5  36  14  37  14  38  14  39  14  40  14
M  ISO  1  41  14
M  END
>  <minimizedAffinity>  (1) 
-5.93723583

>  <minimizedRMSD>  (1) 
0.835849345

$$$$
