
     RDKit          3D

 34 36  0  0  0  0  0  0  0  0999 V2000
   35.4730   29.3330   48.6470 C   0  0  0  0  0  0  0  0  0  0  0  0
   35.8240   29.0590   49.9660 C   0  0  0  0  0  0  0  0  0  0  0  0
   36.9700   29.4290   50.5900 C   0  0  0  0  0  0  0  0  0  0  0  0
   37.8970   30.1340   49.9130 C   0  0  0  0  0  0  0  0  0  0  0  0
   37.5880   30.4130   48.6370 C   0  0  0  0  0  0  0  0  0  0  0  0
   36.4560   30.0140   48.1170 N   0  0  0  0  0  0  0  0  0  0  0  0
   33.4210   28.2830   49.1670 C   0  0  0  0  0  0  0  0  0  0  0  0
   34.1870   28.9040   48.1300 C   0  0  0  0  0  0  0  0  0  0  0  0
   33.5990   28.9960   46.8960 C   0  0  0  0  0  0  0  0  0  0  0  0
   32.3330   28.4890   46.7570 N   0  0  0  0  0  0  0  0  0  0  0  0
   31.6320   27.9130   47.7310 C   0  0  0  0  0  0  0  0  0  0  0  0
   32.1970   27.8190   48.9370 N   0  0  0  0  0  0  0  0  0  0  0  0
   30.3460   27.4530   47.4000 N   0  0  0  0  0  0  0  0  0  0  0  0
   34.3300   29.6230   45.7960 C   0  0  0  0  0  0  0  0  0  0  0  0
   35.3100   28.8220   45.4250 F   0  0  0  0  0  0  0  0  0  0  0  0
   33.5420   29.9520   44.7110 F   0  0  0  0  0  0  0  0  0  0  0  0
   34.9180   30.8560   46.2060 F   0  0  0  0  0  0  0  0  0  0  0  0
   38.4980   33.3300   49.2940 Cl  0  0  0  0  0  0  0  0  0  0  0  0
   38.8610   32.4650   47.8370 C   0  0  0  0  0  0  0  0  0  0  0  0
   38.4070   31.1890   47.6730 C   0  0  0  0  0  0  0  0  0  0  0  0
   38.8210   30.6380   46.4810 C   0  0  0  0  0  0  0  0  0  0  0  0
   39.5980   31.2730   45.5430 C   0  0  0  0  0  0  0  0  0  0  0  0
   40.0210   32.5590   45.7690 C   0  0  0  0  0  0  0  0  0  0  0  0
   39.6340   33.1550   46.9490 C   0  0  0  0  0  0  0  0  0  0  0  0
   35.0992   28.4849   50.5619 H   0  0  0  0  0  0  0  0  0  0  0  0
   37.1413   29.1553   51.6416 H   0  0  0  0  0  0  0  0  0  0  0  0
   38.8416   30.4585   50.3739 H   0  0  0  0  0  0  0  0  0  0  0  0
   33.8536   28.1878   50.1739 H   0  0  0  0  0  0  0  0  0  0  0  0
   29.7610   26.9995   48.1163 H   0  0  0  0  0  0  0  0  0  0  0  0
   29.9884   27.5693   46.4411 H   0  0  0  0  0  0  0  0  0  0  0  0
   38.5044   29.6075   46.2625 H   0  0  0  0  0  0  0  0  0  0  0  0
   39.8798   30.7534   44.6153 H   0  0  0  0  0  0  0  0  0  0  0  0
   40.6445   33.0927   45.0366 H   0  0  0  0  0  0  0  0  0  0  0  0
   39.9474   34.1849   47.1750 H   0  0  0  0  0  0  0  0  0  0  0  0
  1  2  2  0
  2  3  1  0
  4  3  2  0
  5  4  1  0
  6  5  2  0
  6  1  1  0
  8  1  1  0
  8  7  2  0
  9  8  1  0
 10  9  2  0
 10 11  1  0
 11 12  2  0
 12  7  1  0
 13 11  1  0
 14 17  1  0
 14  9  1  0
 15 14  1  0
 16 14  1  0
 19 18  1  0
 20 19  2  0
 20  5  1  0
 21 20  1  0
 22 23  1  0
 22 21  2  0
 23 24  2  0
 24 19  1  0
  2 25  1  0
  3 26  1  0
  4 27  1  0
  7 28  1  0
 13 29  1  0
 13 30  1  0
 21 31  1  0
 22 32  1  0
 23 33  1  0
 24 34  1  0
M  ISO  8  25  14  26  14  27  14  28  14  31  14  32  14  33  14  34  14
M  END
>  <minimizedAffinity>  (1) 
-6.72570944

>  <minimizedRMSD>  (1) 
4.05537987

$$$$
