
     RDKit          3D

 27 29  0  0  0  0  0  0  0  0999 V2000
   37.7000   31.2120   48.2590 C   0  0  0  0  0  0  0  0  0  0  0  0
   38.5640   32.2220   48.1280 C   0  0  0  0  0  0  0  0  0  0  0  0
   38.9540   32.6530   46.9200 C   0  0  0  0  0  0  0  0  0  0  0  0
   38.4150   32.0000   45.8200 C   0  0  0  0  0  0  0  0  0  0  0  0
   37.3270   30.7400   46.6100 S   0  0  0  0  0  0  0  0  0  0  0  0
   37.1740   29.9450   51.7560 C   0  0  0  0  0  0  0  0  0  0  0  0
   37.7920   30.5840   50.6690 C   0  0  0  0  0  0  0  0  0  0  0  0
   37.1340   30.5740   49.4400 C   0  0  0  0  0  0  0  0  0  0  0  0
   35.9440   29.9610   49.3370 N   0  0  0  0  0  0  0  0  0  0  0  0
   35.3680   29.3510   50.3980 C   0  0  0  0  0  0  0  0  0  0  0  0
   35.9860   29.3480   51.5940 N   0  0  0  0  0  0  0  0  0  0  0  0
   41.1290   31.2600   44.7520 Cl  0  0  0  0  0  0  0  0  0  0  0  0
   39.7660   31.8220   43.8160 C   0  0  0  0  0  0  0  0  0  0  0  0
   38.5590   32.1380   44.3960 C   0  0  0  0  0  0  0  0  0  0  0  0
   37.4350   32.5840   43.7520 C   0  0  0  0  0  0  0  0  0  0  0  0
   37.5080   32.7400   42.3630 C   0  0  0  0  0  0  0  0  0  0  0  0
   38.7010   32.4390   41.7160 C   0  0  0  0  0  0  0  0  0  0  0  0
   39.8030   31.9900   42.4280 C   0  0  0  0  0  0  0  0  0  0  0  0
   38.9635   32.7099   49.0293 H   0  0  0  0  0  0  0  0  0  0  0  0
   39.6663   33.4835   46.8060 H   0  0  0  0  0  0  0  0  0  0  0  0
   37.6653   29.9347   52.7401 H   0  0  0  0  0  0  0  0  0  0  0  0
   38.7678   31.0785   50.7840 H   0  0  0  0  0  0  0  0  0  0  0  0
   34.3923   28.8562   50.2833 H   0  0  0  0  0  0  0  0  0  0  0  0
   36.5114   32.8106   44.3049 H   0  0  0  0  0  0  0  0  0  0  0  0
   36.6365   33.0946   41.7932 H   0  0  0  0  0  0  0  0  0  0  0  0
   38.7718   32.5586   40.6248 H   0  0  0  0  0  0  0  0  0  0  0  0
   40.7321   31.7596   41.8861 H   0  0  0  0  0  0  0  0  0  0  0  0
  1  8  1  0
  2  1  2  0
  3  2  1  0
  4  5  1  0
  4  3  2  0
  5  1  1  0
  7  6  2  0
  8  7  1  0
  9  8  2  0
  9 10  1  0
 10 11  2  0
 11  6  1  0
 13 14  2  0
 13 12  1  0
 14  4  1  0
 15 14  1  0
 16 15  2  0
 17 16  1  0
 17 18  2  0
 18 13  1  0
  2 19  1  0
  3 20  1  0
  6 21  1  0
  7 22  1  0
 10 23  1  0
 15 24  1  0
 16 25  1  0
 17 26  1  0
 18 27  1  0
M  ISO  8  19  14  20  14  21  14  22  14  23  14  24  14  25  14  26  14
M  ISO  1  27  14
M  END
>  <minimizedAffinity>  (1) 
-5.50940132

>  <minimizedRMSD>  (1) 
0.611868739

$$$$
