
     RDKit          3D

 45 48  0  0  0  0  0  0  0  0999 V2000
   34.2290   29.4020   48.1080 C   0  0  0  0  0  0  0  0  0  0  0  0
   34.0910   27.9590   48.5000 C   0  0  0  0  0  0  0  0  0  0  0  0
   32.7230   27.4390   48.2680 C   0  0  0  0  0  0  0  0  0  0  0  0
   32.5210   26.5700   47.2120 C   0  0  0  0  0  0  0  0  0  0  0  0
   31.3070   26.0330   46.9110 C   0  0  0  0  0  0  0  0  0  0  0  0
   30.2560   26.3600   47.6680 N   0  0  0  0  0  0  0  0  0  0  0  0
   30.4500   27.2110   48.7030 C   0  0  0  0  0  0  0  0  0  0  0  0
   31.6420   27.7640   49.0330 N   0  0  0  0  0  0  0  0  0  0  0  0
   28.6170   29.3720   47.5680 Cl  0  0  0  0  0  0  0  0  0  0  0  0
   28.3760   28.5160   49.0760 C   0  0  0  0  0  0  0  0  0  0  0  0
   29.2750   27.5420   49.5070 C   0  0  0  0  0  0  0  0  0  0  0  0
   29.0530   26.8880   50.7000 C   0  0  0  0  0  0  0  0  0  0  0  0
   27.9410   27.1850   51.4830 C   0  0  0  0  0  0  0  0  0  0  0  0
   27.0260   28.1390   51.0970 C   0  0  0  0  0  0  0  0  0  0  0  0
   27.3010   28.7510   49.9090 C   0  0  0  0  0  0  0  0  0  0  0  0
   34.3970   30.2130   49.2680 O   0  0  0  0  0  0  0  0  0  0  0  0
   37.3390   30.0350   51.3530 C   0  0  0  0  0  0  0  0  0  0  0  0
   38.2520   30.7560   50.5540 C   0  0  0  0  0  0  0  0  0  0  0  0
   37.8040   31.2640   49.3380 C   0  0  0  0  0  0  0  0  0  0  0  0
   36.4840   31.0090   49.0290 N   0  0  0  0  0  0  0  0  0  0  0  0
   35.6480   30.3300   49.7940 C   0  0  0  0  0  0  0  0  0  0  0  0
   36.0830   29.8340   50.9790 N   0  0  0  0  0  0  0  0  0  0  0  0
   38.9320   33.9020   49.6910 F   0  0  0  0  0  0  0  0  0  0  0  0
   39.1130   33.2580   48.5370 C   0  0  0  0  0  0  0  0  0  0  0  0
   38.5730   32.0180   48.3940 C   0  0  0  0  0  0  0  0  0  0  0  0
   38.8260   31.4510   47.1550 C   0  0  0  0  0  0  0  0  0  0  0  0
   39.5520   32.0770   46.1670 C   0  0  0  0  0  0  0  0  0  0  0  0
   40.0760   33.3310   46.3610 C   0  0  0  0  0  0  0  0  0  0  0  0
   39.8460   33.9310   47.5840 C   0  0  0  0  0  0  0  0  0  0  0  0
   35.1051   29.5185   47.4531 H   0  0  0  0  0  0  0  0  0  0  0  0
   33.3189   29.7185   47.5773 H   0  0  0  0  0  0  0  0  0  0  0  0
   34.8007   27.3626   47.9079 H   0  0  0  0  0  0  0  0  0  0  0  0
   34.3007   27.8825   49.5771 H   0  0  0  0  0  0  0  0  0  0  0  0
   33.3831   26.2994   46.5846 H   0  0  0  0  0  0  0  0  0  0  0  0
   31.1936   25.3436   46.0614 H   0  0  0  0  0  0  0  0  0  0  0  0
   29.7647   26.1205   51.0381 H   0  0  0  0  0  0  0  0  0  0  0  0
   27.7900   26.6463   52.4301 H   0  0  0  0  0  0  0  0  0  0  0  0
   26.1408   28.3886   51.7005 H   0  0  0  0  0  0  0  0  0  0  0  0
   26.5854   29.5180   49.5779 H   0  0  0  0  0  0  0  0  0  0  0  0
   37.6801   29.6271   52.3160 H   0  0  0  0  0  0  0  0  0  0  0  0
   39.2898   30.9123   50.8834 H   0  0  0  0  0  0  0  0  0  0  0  0
   38.4253   30.4473   46.9501 H   0  0  0  0  0  0  0  0  0  0  0  0
   39.7148   31.5646   45.2074 H   0  0  0  0  0  0  0  0  0  0  0  0
   40.6553   33.8373   45.5748 H   0  0  0  0  0  0  0  0  0  0  0  0
   40.2436   34.9348   47.7946 H   0  0  0  0  0  0  0  0  0  0  0  0
  1  2  1  0
  1 16  1  0
  3  2  1  0
  3  8  1  0
  4  3  2  0
  5  4  1  0
  5  6  2  0
  6  7  1  0
  7  8  2  0
  7 11  1  0
  9 10  1  0
 10 11  2  0
 10 15  1  0
 11 12  1  0
 12 13  2  0
 14 13  1  0
 15 14  2  0
 16 21  1  0
 18 17  2  0
 19 18  1  0
 20 19  2  0
 20 21  1  0
 21 22  2  0
 22 17  1  0
 24 23  1  0
 25 24  2  0
 25 19  1  0
 26 25  1  0
 27 28  1  0
 27 26  2  0
 28 29  2  0
 29 24  1  0
  1 30  1  0
  1 31  1  0
  2 32  1  0
  2 33  1  0
  4 34  1  0
  5 35  1  0
 12 36  1  0
 13 37  1  0
 14 38  1  0
 15 39  1  0
 17 40  1  0
 18 41  1  0
 26 42  1  0
 27 43  1  0
 28 44  1  0
 29 45  1  0
M  ISO  8  30   8  31   8  32   8  33   8  34  14  35  14  36  14  37  14
M  ISO  8  38  14  39  14  40  14  41  14  42  14  43  14  44  14  45  14
M  END
>  <minimizedAffinity>  (1) 
-7.99996901

>  <minimizedRMSD>  (1) 
3.29821491

$$$$
