
     RDKit          3D

 31 33  0  0  0  0  0  0  0  0999 V2000
   36.7210   30.5140   47.4310 C   0  0  0  0  0  0  0  0  0  0  0  0
   37.1310   30.7180   46.1320 C   0  0  0  0  0  0  0  0  0  0  0  0
   36.2840   30.3780   45.0840 C   0  0  0  0  0  0  0  0  0  0  0  0
   35.0440   29.8360   45.4700 C   0  0  0  0  0  0  0  0  0  0  0  0
   34.6640   29.6430   46.7710 C   0  0  0  0  0  0  0  0  0  0  0  0
   35.5170   29.9880   47.7620 N   0  0  0  0  0  0  0  0  0  0  0  0
   34.6790   27.9240   49.1620 Cl  0  0  0  0  0  0  0  0  0  0  0  0
   33.2410   28.2430   48.2120 C   0  0  0  0  0  0  0  0  0  0  0  0
   33.3610   29.0760   47.0990 C   0  0  0  0  0  0  0  0  0  0  0  0
   32.2130   29.2850   46.4040 C   0  0  0  0  0  0  0  0  0  0  0  0
   31.0140   28.6960   46.7970 C   0  0  0  0  0  0  0  0  0  0  0  0
   30.9360   27.8830   47.8990 C   0  0  0  0  0  0  0  0  0  0  0  0
   32.0790   27.6390   48.6400 C   0  0  0  0  0  0  0  0  0  0  0  0
   37.6570   30.9010   48.4870 C   0  0  0  0  0  0  0  0  0  0  0  0
   37.8090   30.2310   49.5090 O   0  0  0  0  0  0  0  0  0  0  0  0
   39.1660   32.3870   47.1960 C   0  0  0  0  0  0  0  0  0  0  0  0
   38.4740   32.1230   48.3810 C   0  0  0  0  0  0  0  0  0  0  0  0
   38.5880   33.0370   49.4260 C   0  0  0  0  0  0  0  0  0  0  0  0
   39.3630   34.1480   49.2530 N   0  0  0  0  0  0  0  0  0  0  0  0
   40.0200   34.3760   48.0960 C   0  0  0  0  0  0  0  0  0  0  0  0
   39.9210   33.5180   47.1000 N   0  0  0  0  0  0  0  0  0  0  0  0
   38.1225   31.1473   45.9254 H   0  0  0  0  0  0  0  0  0  0  0  0
   36.5625   30.5220   44.0296 H   0  0  0  0  0  0  0  0  0  0  0  0
   34.3366   29.5498   44.6777 H   0  0  0  0  0  0  0  0  0  0  0  0
   32.2307   29.9315   45.5142 H   0  0  0  0  0  0  0  0  0  0  0  0
   30.1050   28.8878   46.2079 H   0  0  0  0  0  0  0  0  0  0  0  0
   29.9766   27.4305   48.1902 H   0  0  0  0  0  0  0  0  0  0  0  0
   32.0607   26.9925   49.5298 H   0  0  0  0  0  0  0  0  0  0  0  0
   39.1021   31.6887   46.3485 H   0  0  0  0  0  0  0  0  0  0  0  0
   38.0615   32.8663   50.3766 H   0  0  0  0  0  0  0  0  0  0  0  0
   40.6386   35.2787   47.9841 H   0  0  0  0  0  0  0  0  0  0  0  0
  1  6  1  0
  1 14  1  0
  2  1  2  0
  3  4  2  0
  3  2  1  0
  4  5  1  0
  5  9  1  0
  5  6  2  0
  8 13  2  0
  8  7  1  0
  9  8  1  0
 10 11  1  0
 10  9  2  0
 11 12  2  0
 12 13  1  0
 14 15  2  0
 16 17  2  0
 17 14  1  0
 17 18  1  0
 19 18  2  0
 20 19  1  0
 21 16  1  0
 21 20  2  0
  2 22  1  0
  3 23  1  0
  4 24  1  0
 10 25  1  0
 11 26  1  0
 12 27  1  0
 13 28  1  0
 16 29  1  0
 18 30  1  0
 20 31  1  0
M  ISO  8  22  14  23  14  24  14  25  14  26  14  27  14  28  14  29  14
M  ISO  2  30  14  31  14
M  END
>  <minimizedAffinity>  (1) 
-5.57076168

>  <minimizedRMSD>  (1) 
7.87260294

$$$$
