
     RDKit          3D

 38 41  0  0  0  0  0  0  0  0999 V2000
   37.1510   29.6010   51.2630 Br  0  0  0  0  0  0  0  0  0  0  0  0
   35.9820   29.3380   49.7900 C   0  0  0  0  0  0  0  0  0  0  0  0
   36.0950   30.1190   48.6430 C   0  0  0  0  0  0  0  0  0  0  0  0
   35.2130   29.8690   47.6180 C   0  0  0  0  0  0  0  0  0  0  0  0
   34.2370   28.9030   47.6650 C   0  0  0  0  0  0  0  0  0  0  0  0
   34.1470   28.1470   48.8080 C   0  0  0  0  0  0  0  0  0  0  0  0
   35.0180   28.3710   49.8550 C   0  0  0  0  0  0  0  0  0  0  0  0
   37.9590   33.1590   49.3890 C   0  0  0  0  0  0  0  0  0  0  0  0
   39.0030   33.1540   48.4200 C   0  0  0  0  0  0  0  0  0  0  0  0
   39.0390   32.0950   47.5250 C   0  0  0  0  0  0  0  0  0  0  0  0
   38.0860   31.1290   47.6220 N   0  0  0  0  0  0  0  0  0  0  0  0
   37.1120   31.1550   48.5440 C   0  0  0  0  0  0  0  0  0  0  0  0
   37.0500   32.1780   49.4330 N   0  0  0  0  0  0  0  0  0  0  0  0
   33.3020   28.6380   46.5800 C   0  0  0  0  0  0  0  0  0  0  0  0
   33.4930   27.6940   45.5910 C   0  0  0  0  0  0  0  0  0  0  0  0
   32.5670   27.4830   44.5790 C   0  0  0  0  0  0  0  0  0  0  0  0
   31.4410   28.2180   44.5470 N   0  0  0  0  0  0  0  0  0  0  0  0
   31.2540   29.1420   45.5110 C   0  0  0  0  0  0  0  0  0  0  0  0
   32.1490   29.3320   46.4740 N   0  0  0  0  0  0  0  0  0  0  0  0
   31.2760   31.6380   43.7510 Cl  0  0  0  0  0  0  0  0  0  0  0  0
   29.9160   31.0760   44.6980 C   0  0  0  0  0  0  0  0  0  0  0  0
   30.0250   29.9290   45.4570 C   0  0  0  0  0  0  0  0  0  0  0  0
   28.9230   29.5060   46.2030 C   0  0  0  0  0  0  0  0  0  0  0  0
   27.7830   30.2870   46.1170 C   0  0  0  0  0  0  0  0  0  0  0  0
   27.6710   31.4340   45.3580 C   0  0  0  0  0  0  0  0  0  0  0  0
   28.7790   31.8530   44.6140 C   0  0  0  0  0  0  0  0  0  0  0  0
   35.2936   30.4788   46.7060 H   0  0  0  0  0  0  0  0  0  0  0  0
   33.3803   27.3624   48.8891 H   0  0  0  0  0  0  0  0  0  0  0  0
   34.9344   27.7566   50.7636 H   0  0  0  0  0  0  0  0  0  0  0  0
   37.8989   33.9840   50.1141 H   0  0  0  0  0  0  0  0  0  0  0  0
   39.7518   33.9589   48.3829 H   0  0  0  0  0  0  0  0  0  0  0  0
   39.8211   32.0375   46.7536 H   0  0  0  0  0  0  0  0  0  0  0  0
   34.4109   27.0880   45.6055 H   0  0  0  0  0  0  0  0  0  0  0  0
   32.7526   26.7201   43.8086 H   0  0  0  0  0  0  0  0  0  0  0  0
   28.9587   28.6002   46.8261 H   0  0  0  0  0  0  0  0  0  0  0  0
   26.9028   29.9702   46.6956 H   0  0  0  0  0  0  0  0  0  0  0  0
   26.7316   32.0059   45.3385 H   0  0  0  0  0  0  0  0  0  0  0  0
   28.7454   32.7592   43.9914 H   0  0  0  0  0  0  0  0  0  0  0  0
  2  7  2  0
  2  1  1  0
  3  2  1  0
  4  5  1  0
  4  3  2  0
  5  6  2  0
  6  7  1  0
  8 13  2  0
  9  8  1  0
 10 11  1  0
 10  9  2  0
 11 12  2  0
 12  3  1  0
 12 13  1  0
 14  5  1  0
 15 14  2  0
 16 15  1  0
 17 16  2  0
 17 18  1  0
 18 19  2  0
 19 14  1  0
 20 21  1  0
 21 22  2  0
 22 18  1  0
 22 23  1  0
 24 23  2  0
 25 24  1  0
 26 21  1  0
 26 25  2  0
  4 27  1  0
  6 28  1  0
  7 29  1  0
  8 30  1  0
  9 31  1  0
 10 32  1  0
 15 33  1  0
 16 34  1  0
 23 35  1  0
 24 36  1  0
 25 37  1  0
 26 38  1  0
M  ISO  8  27  14  28  14  29  14  30  14  31  14  32  14  33  14  34  14
M  ISO  4  35  14  36  14  37  14  38  14
M  END
>  <minimizedAffinity>  (1) 
-6.6051178

>  <minimizedRMSD>  (1) 
1.84759259

$$$$
