
     RDKit          3D

 43 47  0  0  0  0  0  0  0  0999 V2000
   37.1880   30.8000   49.6460 C   0  0  0  0  0  0  0  0  0  0  0  0
   37.4110   30.5060   50.9730 C   0  0  0  0  0  0  0  0  0  0  0  0
   36.5870   29.6190   51.5900 C   0  0  0  0  0  0  0  0  0  0  0  0
   35.5650   29.0340   50.9090 N   0  0  0  0  0  0  0  0  0  0  0  0
   35.3800   29.3440   49.6250 C   0  0  0  0  0  0  0  0  0  0  0  0
   36.1780   30.2230   48.9740 N   0  0  0  0  0  0  0  0  0  0  0  0
   34.2920   28.7180   48.8760 C   0  0  0  0  0  0  0  0  0  0  0  0
   34.4430   28.3350   47.5770 C   0  0  0  0  0  0  0  0  0  0  0  0
   33.5130   27.7320   46.7670 C   0  0  0  0  0  0  0  0  0  0  0  0
   32.2960   27.5040   47.3750 C   0  0  0  0  0  0  0  0  0  0  0  0
   31.3180   26.9020   46.6440 N   0  0  0  0  0  0  0  0  0  0  0  0
   30.0970   26.6350   47.1660 C   0  0  0  0  0  0  0  0  0  0  0  0
   29.8220   26.9800   48.4760 C   0  0  0  0  0  0  0  0  0  0  0  0
   30.8110   27.5900   49.2170 C   0  0  0  0  0  0  0  0  0  0  0  0
   32.0760   27.8680   48.6810 C   0  0  0  0  0  0  0  0  0  0  0  0
   33.0670   28.4710   49.4270 C   0  0  0  0  0  0  0  0  0  0  0  0
   39.2880   33.7020   48.8120 C   0  0  0  0  0  0  0  0  0  0  0  0
   39.6590   33.4280   47.4930 C   0  0  0  0  0  0  0  0  0  0  0  0
   39.1830   32.2520   46.8880 C   0  0  0  0  0  0  0  0  0  0  0  0
   38.3930   31.4780   47.6640 N   0  0  0  0  0  0  0  0  0  0  0  0
   38.0380   31.7390   48.9260 C   0  0  0  0  0  0  0  0  0  0  0  0
   38.4940   32.8510   49.4800 N   0  0  0  0  0  0  0  0  0  0  0  0
   40.1460   34.1380   44.5770 Cl  0  0  0  0  0  0  0  0  0  0  0  0
   39.8700   32.4240   44.4430 C   0  0  0  0  0  0  0  0  0  0  0  0
   39.4450   31.7520   45.5570 C   0  0  0  0  0  0  0  0  0  0  0  0
   39.2350   30.4220   45.3150 C   0  0  0  0  0  0  0  0  0  0  0  0
   39.4300   29.8220   44.0930 C   0  0  0  0  0  0  0  0  0  0  0  0
   39.8600   30.5500   43.0170 C   0  0  0  0  0  0  0  0  0  0  0  0
   40.0860   31.8960   43.2000 C   0  0  0  0  0  0  0  0  0  0  0  0
   38.2386   30.9792   51.5217 H   0  0  0  0  0  0  0  0  0  0  0  0
   36.7478   29.3718   52.6497 H   0  0  0  0  0  0  0  0  0  0  0  0
   35.4258   28.5322   47.1241 H   0  0  0  0  0  0  0  0  0  0  0  0
   33.7205   27.4545   45.7230 H   0  0  0  0  0  0  0  0  0  0  0  0
   29.3278   26.1459   46.5503 H   0  0  0  0  0  0  0  0  0  0  0  0
   28.8359   26.7723   48.9171 H   0  0  0  0  0  0  0  0  0  0  0  0
   30.6013   27.8671   50.2607 H   0  0  0  0  0  0  0  0  0  0  0  0
   32.8697   28.7545   50.4714 H   0  0  0  0  0  0  0  0  0  0  0  0
   39.6477   34.6177   49.3041 H   0  0  0  0  0  0  0  0  0  0  0  0
   40.3110   34.1193   46.9389 H   0  0  0  0  0  0  0  0  0  0  0  0
   38.8889   29.7939   46.1491 H   0  0  0  0  0  0  0  0  0  0  0  0
   39.2382   28.7448   43.9792 H   0  0  0  0  0  0  0  0  0  0  0  0
   40.0199   30.0754   42.0376 H   0  0  0  0  0  0  0  0  0  0  0  0
   40.4308   32.5292   42.3692 H   0  0  0  0  0  0  0  0  0  0  0  0
  1  2  2  0
  2  3  1  0
  4  3  2  0
  5  4  1  0
  6  5  2  0
  6  1  1  0
  7 16  1  0
  7  5  1  0
  8  7  2  0
  9 10  2  0
  9  8  1  0
 10 15  1  0
 11 12  2  0
 11 10  1  0
 12 13  1  0
 13 14  2  0
 15 14  1  0
 15 16  2  0
 17 22  2  0
 18 17  1  0
 19 18  2  0
 19 20  1  0
 20 21  2  0
 21 22  1  0
 21  1  1  0
 24 23  1  0
 24 25  2  0
 25 19  1  0
 26 25  1  0
 27 26  2  0
 28 29  2  0
 28 27  1  0
 29 24  1  0
  2 30  1  0
  3 31  1  0
  8 32  1  0
  9 33  1  0
 12 34  1  0
 13 35  1  0
 14 36  1  0
 16 37  1  0
 17 38  1  0
 18 39  1  0
 26 40  1  0
 27 41  1  0
 28 42  1  0
 29 43  1  0
M  END
>  <minimizedAffinity>  (1) 
-7.73048687

>  <minimizedRMSD>  (1) 
0.786169827

$$$$
