
     RDKit          3D

 30 32  0  0  0  0  0  0  0  0999 V2000
   37.0870   30.0540   46.2610 Cl  0  0  0  0  0  0  0  0  0  0  0  0
   37.5850   31.2250   47.4630 C   0  0  0  0  0  0  0  0  0  0  0  0
   38.5660   32.1240   47.0790 C   0  0  0  0  0  0  0  0  0  0  0  0
   38.9790   33.0650   48.0200 C   0  0  0  0  0  0  0  0  0  0  0  0
   38.4090   33.0670   49.2720 C   0  0  0  0  0  0  0  0  0  0  0  0
   37.4440   32.1520   49.5890 C   0  0  0  0  0  0  0  0  0  0  0  0
   37.0000   31.2090   48.7140 C   0  0  0  0  0  0  0  0  0  0  0  0
   39.0670   32.8680   43.5440 C   0  0  0  0  0  0  0  0  0  0  0  0
   40.1480   32.0710   43.1710 C   0  0  0  0  0  0  0  0  0  0  0  0
   40.7120   31.2640   44.1620 C   0  0  0  0  0  0  0  0  0  0  0  0
   40.1820   31.2960   45.4250 N   0  0  0  0  0  0  0  0  0  0  0  0
   39.1400   32.0800   45.7370 C   0  0  0  0  0  0  0  0  0  0  0  0
   38.5880   32.8630   44.7860 N   0  0  0  0  0  0  0  0  0  0  0  0
   37.5290   29.0010   50.7560 Cl  0  0  0  0  0  0  0  0  0  0  0  0
   36.0380   29.1410   49.8780 C   0  0  0  0  0  0  0  0  0  0  0  0
   35.9620   30.1940   48.9940 C   0  0  0  0  0  0  0  0  0  0  0  0
   34.8350   30.4190   48.2340 C   0  0  0  0  0  0  0  0  0  0  0  0
   33.7400   29.5740   48.3490 C   0  0  0  0  0  0  0  0  0  0  0  0
   33.7960   28.5040   49.2350 C   0  0  0  0  0  0  0  0  0  0  0  0
   34.9370   28.3060   49.9810 C   0  0  0  0  0  0  0  0  0  0  0  0
   39.7553   33.8010   47.7636 H   0  0  0  0  0  0  0  0  0  0  0  0
   38.7305   33.8067   50.0200 H   0  0  0  0  0  0  0  0  0  0  0  0
   37.0063   32.1792   50.5978 H   0  0  0  0  0  0  0  0  0  0  0  0
   38.5971   33.5186   42.7918 H   0  0  0  0  0  0  0  0  0  0  0  0
   40.5392   32.0772   42.1429 H   0  0  0  0  0  0  0  0  0  0  0  0
   41.5683   30.6130   43.9319 H   0  0  0  0  0  0  0  0  0  0  0  0
   34.8031   31.2685   47.5359 H   0  0  0  0  0  0  0  0  0  0  0  0
   32.8372   29.7490   47.7454 H   0  0  0  0  0  0  0  0  0  0  0  0
   32.9385   27.8229   49.3391 H   0  0  0  0  0  0  0  0  0  0  0  0
   34.9753   27.4581   50.6807 H   0  0  0  0  0  0  0  0  0  0  0  0
  1  2  1  0
  2  7  2  0
  3  2  1  0
  3  4  2  0
  4  5  1  0
  5  6  2  0
  7 16  1  0
  7  6  1  0
  8 13  2  0
  9  8  1  0
  9 10  2  0
 10 11  1  0
 11 12  2  0
 12  3  1  0
 13 12  1  0
 15 20  2  0
 15 14  1  0
 16 15  1  0
 17 18  1  0
 17 16  2  0
 18 19  2  0
 19 20  1  0
  4 21  1  0
  5 22  1  0
  6 23  1  0
  8 24  1  0
  9 25  1  0
 10 26  1  0
 17 27  1  0
 18 28  1  0
 19 29  1  0
 20 30  1  0
M  ISO  8  21  14  22  14  23  14  24  14  25  14  26  14  27  14  28  14
M  ISO  2  29  14  30  14
M  END
>  <minimizedAffinity>  (1) 
-6.59376907

>  <minimizedRMSD>  (1) 
2.19116998

$$$$
