
     RDKit          3D

 35 37  0  0  0  0  0  0  0  0999 V2000
   37.3220   30.1580   51.5730 C   0  0  0  0  0  0  0  0  0  0  0  0
   38.0480   30.8450   50.5970 C   0  0  0  0  0  0  0  0  0  0  0  0
   37.7240   30.6820   49.2720 C   0  0  0  0  0  0  0  0  0  0  0  0
   36.6830   29.8300   49.0370 N   0  0  0  0  0  0  0  0  0  0  0  0
   35.9920   29.1750   49.9590 C   0  0  0  0  0  0  0  0  0  0  0  0
   36.3220   29.3480   51.2450 N   0  0  0  0  0  0  0  0  0  0  0  0
   38.9360   33.5910   49.3070 Cl  0  0  0  0  0  0  0  0  0  0  0  0
   38.9100   32.5070   47.9530 C   0  0  0  0  0  0  0  0  0  0  0  0
   38.3420   31.2760   48.1040 C   0  0  0  0  0  0  0  0  0  0  0  0
   38.3740   30.5370   46.9440 C   0  0  0  0  0  0  0  0  0  0  0  0
   38.9160   30.9790   45.7620 C   0  0  0  0  0  0  0  0  0  0  0  0
   39.4770   32.2310   45.6690 C   0  0  0  0  0  0  0  0  0  0  0  0
   39.4680   33.0070   46.8020 C   0  0  0  0  0  0  0  0  0  0  0  0
   34.9980   28.3830   49.4450 O   0  0  0  0  0  0  0  0  0  0  0  0
   34.4640   28.6840   48.1670 C   0  0  0  0  0  0  0  0  0  0  0  0
   33.6050   27.5830   47.6490 C   0  0  0  0  0  0  0  0  0  0  0  0
   32.1500   27.9300   47.6560 C   0  0  0  0  0  0  0  0  0  0  0  0
   31.4000   27.4960   48.7430 C   0  0  0  0  0  0  0  0  0  0  0  0
   30.0560   27.7680   48.8420 C   0  0  0  0  0  0  0  0  0  0  0  0
   29.4490   28.4620   47.8790 N   0  0  0  0  0  0  0  0  0  0  0  0
   30.2010   28.8810   46.8180 C   0  0  0  0  0  0  0  0  0  0  0  0
   31.5070   28.6390   46.6840 N   0  0  0  0  0  0  0  0  0  0  0  0
   37.5836   30.2905   52.6332 H   0  0  0  0  0  0  0  0  0  0  0  0
   38.8733   31.5118   50.8874 H   0  0  0  0  0  0  0  0  0  0  0  0
   37.9375   29.5275   46.9645 H   0  0  0  0  0  0  0  0  0  0  0  0
   38.9011   30.3234   44.8788 H   0  0  0  0  0  0  0  0  0  0  0  0
   39.9142   32.5953   44.7276 H   0  0  0  0  0  0  0  0  0  0  0  0
   39.9027   34.0174   46.7878 H   0  0  0  0  0  0  0  0  0  0  0  0
   33.8606   29.6007   48.2410 H   0  0  0  0  0  0  0  0  0  0  0  0
   35.3044   28.8167   47.4697 H   0  0  0  0  0  0  0  0  0  0  0  0
   33.7570   26.6933   48.2777 H   0  0  0  0  0  0  0  0  0  0  0  0
   33.8964   27.3994   46.6043 H   0  0  0  0  0  0  0  0  0  0  0  0
   31.8928   26.9222   49.5417 H   0  0  0  0  0  0  0  0  0  0  0  0
   29.4837   27.4144   49.7123 H   0  0  0  0  0  0  0  0  0  0  0  0
   29.6988   29.4537   46.0244 H   0  0  0  0  0  0  0  0  0  0  0  0
  2  1  2  0
  3  2  1  0
  4  3  2  0
  4  5  1  0
  5  6  2  0
  6  1  1  0
  8  9  2  0
  8  7  1  0
  9  3  1  0
 10  9  1  0
 11 10  2  0
 12 11  1  0
 12 13  2  0
 13  8  1  0
 14  5  1  0
 15 14  1  0
 16 17  1  0
 16 15  1  0
 17 18  2  0
 18 19  1  0
 20 19  2  0
 21 20  1  0
 22 21  2  0
 22 17  1  0
  1 23  1  0
  2 24  1  0
 10 25  1  0
 11 26  1  0
 12 27  1  0
 13 28  1  0
 15 29  1  0
 15 30  1  0
 16 31  1  0
 16 32  1  0
 18 33  1  0
 19 34  1  0
 21 35  1  0
M  ISO  8  23  14  24  14  25  14  26  14  27  14  28  14  29   8  30   8
M  ISO  5  31   8  32   8  33  14  34  14  35  14
M  END
>  <minimizedAffinity>  (1) 
-6.3430295

>  <minimizedRMSD>  (1) 
1.12208259

$$$$
