
     RDKit          3D

 30 32  0  0  0  0  0  0  0  0999 V2000
   38.1760   30.8180   47.8160 Cl  0  0  0  0  0  0  0  0  0  0  0  0
   36.8500   30.5200   46.7240 C   0  0  0  0  0  0  0  0  0  0  0  0
   35.6630   30.0350   47.1800 C   0  0  0  0  0  0  0  0  0  0  0  0
   34.6840   29.8340   46.2460 C   0  0  0  0  0  0  0  0  0  0  0  0
   34.8260   30.0860   44.9130 C   0  0  0  0  0  0  0  0  0  0  0  0
   36.0260   30.5720   44.4760 C   0  0  0  0  0  0  0  0  0  0  0  0
   37.0610   30.7990   45.3720 C   0  0  0  0  0  0  0  0  0  0  0  0
   36.4420   29.1280   50.7750 C   0  0  0  0  0  0  0  0  0  0  0  0
   36.6040   29.3760   49.4030 C   0  0  0  0  0  0  0  0  0  0  0  0
   35.5240   29.7690   48.6120 C   0  0  0  0  0  0  0  0  0  0  0  0
   34.3230   29.8970   49.2320 N   0  0  0  0  0  0  0  0  0  0  0  0
   34.1920   29.6530   50.5490 C   0  0  0  0  0  0  0  0  0  0  0  0
   35.2290   29.2750   51.3110 N   0  0  0  0  0  0  0  0  0  0  0  0
   39.0130   28.8710   44.0290 Cl  0  0  0  0  0  0  0  0  0  0  0  0
   39.3390   30.5750   44.3050 C   0  0  0  0  0  0  0  0  0  0  0  0
   38.3570   31.3210   44.9250 C   0  0  0  0  0  0  0  0  0  0  0  0
   38.5040   32.6680   45.1930 C   0  0  0  0  0  0  0  0  0  0  0  0
   39.6800   33.3240   44.8320 C   0  0  0  0  0  0  0  0  0  0  0  0
   40.6540   32.5690   44.2130 C   0  0  0  0  0  0  0  0  0  0  0  0
   40.5200   31.2240   43.9400 C   0  0  0  0  0  0  0  0  0  0  0  0
   33.7165   29.4426   46.5935 H   0  0  0  0  0  0  0  0  0  0  0  0
   33.9992   29.9034   44.2108 H   0  0  0  0  0  0  0  0  0  0  0  0
   36.1725   30.7847   43.4068 H   0  0  0  0  0  0  0  0  0  0  0  0
   37.2966   28.8191   51.3949 H   0  0  0  0  0  0  0  0  0  0  0  0
   37.5971   29.2588   48.9447 H   0  0  0  0  0  0  0  0  0  0  0  0
   33.2024   29.7673   51.0156 H   0  0  0  0  0  0  0  0  0  0  0  0
   37.6945   33.2222   45.6905 H   0  0  0  0  0  0  0  0  0  0  0  0
   39.8245   34.3960   45.0320 H   0  0  0  0  0  0  0  0  0  0  0  0
   41.5900   33.0675   43.9207 H   0  0  0  0  0  0  0  0  0  0  0  0
   41.3306   30.6713   43.4426 H   0  0  0  0  0  0  0  0  0  0  0  0
  2  3  2  0
  2  1  1  0
  3 10  1  0
  4  3  1  0
  5  4  2  0
  6  5  1  0
  6  7  2  0
  7  2  1  0
  8 13  2  0
  9  8  1  0
 10 11  1  0
 10  9  2  0
 11 12  2  0
 12 13  1  0
 14 15  1  0
 15 16  2  0
 16 17  1  0
 16  7  1  0
 18 17  2  0
 19 18  1  0
 20 19  2  0
 20 15  1  0
  4 21  1  0
  5 22  1  0
  6 23  1  0
  8 24  1  0
  9 25  1  0
 12 26  1  0
 17 27  1  0
 18 28  1  0
 19 29  1  0
 20 30  1  0
M  ISO  8  21  14  22  14  23  14  24  14  25  14  26  14  27  14  28  14
M  ISO  2  29  14  30  14
M  END
>  <minimizedAffinity>  (1) 
-5.5371871

>  <minimizedRMSD>  (1) 
4.01509333

$$$$
