
     RDKit          3D

 36 38  0  0  1  0  0  0  0  0999 V2000
   34.9530   30.4860   48.2770 C   0  0  1  0  0  0  0  0  0  0  0  0
   33.7990   30.3350   47.3980 C   0  0  0  0  0  0  0  0  0  0  0  0
   33.3820   28.9390   47.0290 C   0  0  0  0  0  0  0  0  0  0  0  0
   33.5120   27.9530   48.1420 C   0  0  2  0  0  0  0  0  0  0  0  0
   34.6780   28.0670   49.0360 C   0  0  0  0  0  0  0  0  0  0  0  0
   34.9370   29.4990   49.4150 C   0  0  0  0  0  0  0  0  0  0  0  0
   36.4220   30.5210   46.2340 C   0  0  0  0  0  0  0  0  0  0  0  0
   36.2830   30.5980   47.6320 C   0  0  0  0  0  0  0  0  0  0  0  0
   37.4360   30.7840   48.3710 C   0  0  0  0  0  0  0  0  0  0  0  0
   38.6370   30.8840   47.7260 N   0  0  0  0  0  0  0  0  0  0  0  0
   38.7230   30.8040   46.3820 C   0  0  0  0  0  0  0  0  0  0  0  0
   37.6030   30.6220   45.6300 N   0  0  0  0  0  0  0  0  0  0  0  0
   30.7530   26.6500   48.7080 Cl  0  0  0  0  0  0  0  0  0  0  0  0
   32.0220   25.9210   47.7920 C   0  0  0  0  0  0  0  0  0  0  0  0
   33.2080   26.6050   47.6230 C   0  0  0  0  0  0  0  0  0  0  0  0
   34.1340   25.8690   46.8690 C   0  0  0  0  0  0  0  0  0  0  0  0
   33.9550   24.6140   46.3300 C   0  0  0  0  0  0  0  0  0  0  0  0
   32.7360   24.0150   46.5550 C   0  0  0  0  0  0  0  0  0  0  0  0
   31.7650   24.6650   47.2870 C   0  0  0  0  0  0  0  0  0  0  0  0
   34.8123   31.4942   48.6938 H   0  0  0  0  0  0  0  0  0  0  0  0
   32.9423   30.8137   47.8949 H   0  0  0  0  0  0  0  0  0  0  0  0
   34.1104   30.7934   46.4478 H   0  0  0  0  0  0  0  0  0  0  0  0
   32.3293   28.9650   46.7110 H   0  0  0  0  0  0  0  0  0  0  0  0
   34.0581   28.6059   46.2278 H   0  0  0  0  0  0  0  0  0  0  0  0
   32.7518   28.2205   48.8907 H   0  0  0  0  0  0  0  0  0  0  0  0
   34.4882   27.4833   49.9488 H   0  0  0  0  0  0  0  0  0  0  0  0
   35.5616   27.6827   48.5054 H   0  0  0  0  0  0  0  0  0  0  0  0
   35.9160   29.5441   49.9146 H   0  0  0  0  0  0  0  0  0  0  0  0
   34.0935   29.7956   50.0557 H   0  0  0  0  0  0  0  0  0  0  0  0
   35.5224   30.3720   45.6188 H   0  0  0  0  0  0  0  0  0  0  0  0
   37.3876   30.8509   49.4679 H   0  0  0  0  0  0  0  0  0  0  0  0
   39.7039   30.8863   45.8910 H   0  0  0  0  0  0  0  0  0  0  0  0
   35.1088   26.3457   46.6886 H   0  0  0  0  0  0  0  0  0  0  0  0
   34.7456   24.1159   45.7495 H   0  0  0  0  0  0  0  0  0  0  0  0
   32.5356   23.0126   46.1487 H   0  0  0  0  0  0  0  0  0  0  0  0
   30.7920   24.1843   47.4666 H   0  0  0  0  0  0  0  0  0  0  0  0
  1  6  1  0
  2  1  1  0
  3  2  1  0
  3  4  1  0
  4  5  1  0
  5  6  1  0
  7  8  2  0
  8  1  1  0
  8  9  1  0
 10  9  2  0
 11 10  1  0
 12  7  1  0
 12 11  2  0
 14 13  1  0
 15 14  2  0
 15  4  1  0
 16 15  1  0
 17 18  1  0
 17 16  2  0
 18 19  2  0
 19 14  1  0
  1 20  1  1
  2 21  1  0
  2 22  1  0
  3 23  1  0
  3 24  1  0
  4 25  1  1
  5 26  1  0
  5 27  1  0
  6 28  1  0
  6 29  1  0
  7 30  1  0
  9 31  1  0
 11 32  1  0
 16 33  1  0
 17 34  1  0
 18 35  1  0
 19 36  1  0
M  ISO  8  20  13  21  13  22  13  23  13  24  13  25  13  26  13  27  13
M  ISO  8  28  13  29  13  30  14  31  14  32  14  33  14  34  14  35  14
M  ISO  1  36  14
M  END
>  <minimizedAffinity>  (1) 
-4.88216305

>  <minimizedRMSD>  (1) 
2.3832252

$$$$
