
     RDKit          3D

 36 38  0  0  1  0  0  0  0  0999 V2000
   33.3920   28.1880   47.4100 C   0  0  1  0  0  0  0  0  0  0  0  0
   33.9440   27.6030   46.1630 C   0  0  0  0  0  0  0  0  0  0  0  0
   33.8490   28.4240   44.9310 C   0  0  0  0  0  0  0  0  0  0  0  0
   33.9680   29.8830   45.0720 C   0  0  0  0  0  0  0  0  0  0  0  0
   33.4450   30.4640   46.3150 C   0  0  0  0  0  0  0  0  0  0  0  0
   33.6670   29.6390   47.5540 C   0  0  2  0  0  0  0  0  0  0  0  0
   31.0140   27.6120   46.7050 C   0  0  0  0  0  0  0  0  0  0  0  0
   31.9850   27.8150   47.7060 C   0  0  0  0  0  0  0  0  0  0  0  0
   31.5710   27.6690   49.0140 C   0  0  0  0  0  0  0  0  0  0  0  0
   30.2830   27.3470   49.3000 N   0  0  0  0  0  0  0  0  0  0  0  0
   29.3860   27.1640   48.2910 C   0  0  0  0  0  0  0  0  0  0  0  0
   29.7550   27.2960   47.0070 N   0  0  0  0  0  0  0  0  0  0  0  0
   33.8800   29.6290   50.6770 Cl  0  0  0  0  0  0  0  0  0  0  0  0
   35.2020   29.9320   49.5740 C   0  0  0  0  0  0  0  0  0  0  0  0
   34.9850   29.9260   48.2100 C   0  0  0  0  0  0  0  0  0  0  0  0
   36.1350   30.1970   47.5120 C   0  0  0  0  0  0  0  0  0  0  0  0
   37.3670   30.4480   48.0670 C   0  0  0  0  0  0  0  0  0  0  0  0
   37.5130   30.4380   49.4330 C   0  0  0  0  0  0  0  0  0  0  0  0
   36.4020   30.1730   50.2050 C   0  0  0  0  0  0  0  0  0  0  0  0
   33.9659   27.6986   48.2107 H   0  0  0  0  0  0  0  0  0  0  0  0
   35.0091   27.3921   46.3392 H   0  0  0  0  0  0  0  0  0  0  0  0
   33.3212   26.7184   45.9639 H   0  0  0  0  0  0  0  0  0  0  0  0
   32.8708   28.2168   44.4725 H   0  0  0  0  0  0  0  0  0  0  0  0
   34.7236   28.1299   44.3323 H   0  0  0  0  0  0  0  0  0  0  0  0
   35.0356   30.1395   45.0060 H   0  0  0  0  0  0  0  0  0  0  0  0
   33.3472   30.3056   44.2683 H   0  0  0  0  0  0  0  0  0  0  0  0
   33.9307   31.4395   46.4648 H   0  0  0  0  0  0  0  0  0  0  0  0
   32.3547   30.5297   46.1848 H   0  0  0  0  0  0  0  0  0  0  0  0
   32.8840   29.9809   48.2468 H   0  0  0  0  0  0  0  0  0  0  0  0
   31.3023   27.7169   45.6486 H   0  0  0  0  0  0  0  0  0  0  0  0
   32.2909   27.8148   49.8328 H   0  0  0  0  0  0  0  0  0  0  0  0
   28.3446   26.9044   48.5319 H   0  0  0  0  0  0  0  0  0  0  0  0
   36.0648   30.2149   46.4144 H   0  0  0  0  0  0  0  0  0  0  0  0
   38.2322   30.6560   47.4204 H   0  0  0  0  0  0  0  0  0  0  0  0
   38.4899   30.6361   49.8982 H   0  0  0  0  0  0  0  0  0  0  0  0
   36.4726   30.1544   51.3026 H   0  0  0  0  0  0  0  0  0  0  0  0
  1  6  1  0
  1  8  1  0
  2  1  1  0
  3  4  1  0
  3  2  1  0
  4  5  1  0
  5  6  1  0
  6 15  1  0
  7 12  2  0
  7  8  1  0
  8  9  2  0
  9 10  1  0
 11 10  2  0
 12 11  1  0
 14 19  2  0
 14 13  1  0
 15 14  1  0
 16 17  1  0
 16 15  2  0
 17 18  2  0
 18 19  1  0
  1 20  1  1
  2 21  1  0
  2 22  1  0
  3 23  1  0
  3 24  1  0
  4 25  1  0
  4 26  1  0
  5 27  1  0
  5 28  1  0
  6 29  1  1
  7 30  1  0
  9 31  1  0
 11 32  1  0
 16 33  1  0
 17 34  1  0
 18 35  1  0
 19 36  1  0
M  ISO  8  20  13  21  13  22  13  23  13  24  13  25  13  26  13  27  13
M  ISO  8  28  13  29  13  30  14  31  14  32  14  33  14  34  14  35  14
M  ISO  1  36  14
M  END
>  <minimizedAffinity>  (1) 
-5.04325676

>  <minimizedRMSD>  (1) 
5.82549143

$$$$
