
     RDKit          3D

 34 36  0  0  0  0  0  0  0  0999 V2000
   38.3500   30.2580   47.3540 F   0  0  0  0  0  0  0  0  0  0  0  0
   38.6340   31.5080   47.7990 C   0  0  0  0  0  0  0  0  0  0  0  0
   38.0840   31.9780   48.9660 C   0  0  0  0  0  0  0  0  0  0  0  0
   38.4150   33.2460   49.3530 C   0  0  0  0  0  0  0  0  0  0  0  0
   39.2660   34.0500   48.6210 C   0  0  0  0  0  0  0  0  0  0  0  0
   39.8080   33.5640   47.4550 C   0  0  0  0  0  0  0  0  0  0  0  0
   39.4940   32.2840   47.0360 C   0  0  0  0  0  0  0  0  0  0  0  0
   36.7240   29.5630   51.5460 C   0  0  0  0  0  0  0  0  0  0  0  0
   37.5890   30.4190   50.8570 C   0  0  0  0  0  0  0  0  0  0  0  0
   37.1920   31.0820   49.6950 C   0  0  0  0  0  0  0  0  0  0  0  0
   35.9170   30.8520   49.2680 N   0  0  0  0  0  0  0  0  0  0  0  0
   35.0920   30.0230   49.9430 C   0  0  0  0  0  0  0  0  0  0  0  0
   35.4890   29.3960   51.0550 N   0  0  0  0  0  0  0  0  0  0  0  0
   39.1730   31.8880   44.6900 C   0  0  0  0  0  0  0  0  0  0  0  0
   38.0470   32.4590   44.9310 O   0  0  0  0  0  0  0  0  0  0  0  0
   40.0350   31.7270   45.8230 N   0  0  0  0  0  0  0  0  0  0  0  0
   38.0780   33.3060   42.3200 Cl  0  0  0  0  0  0  0  0  0  0  0  0
   39.2350   32.0040   42.3000 C   0  0  0  0  0  0  0  0  0  0  0  0
   39.7200   31.3710   43.4230 C   0  0  0  0  0  0  0  0  0  0  0  0
   40.6470   30.3330   43.3500 C   0  0  0  0  0  0  0  0  0  0  0  0
   41.0850   29.9360   42.1030 C   0  0  0  0  0  0  0  0  0  0  0  0
   40.6060   30.5630   40.9650 C   0  0  0  0  0  0  0  0  0  0  0  0
   39.6900   31.5900   41.0600 C   0  0  0  0  0  0  0  0  0  0  0  0
   37.9862   33.6422   50.2853 H   0  0  0  0  0  0  0  0  0  0  0  0
   39.5071   35.0662   48.9664 H   0  0  0  0  0  0  0  0  0  0  0  0
   40.4879   34.1899   46.8583 H   0  0  0  0  0  0  0  0  0  0  0  0
   37.0470   29.0442   52.4606 H   0  0  0  0  0  0  0  0  0  0  0  0
   38.6082   30.5736   51.2407 H   0  0  0  0  0  0  0  0  0  0  0  0
   34.0703   29.8599   49.5695 H   0  0  0  0  0  0  0  0  0  0  0  0
   40.9513   31.2590   45.7748 H   0  0  0  0  0  0  0  0  0  0  0  0
   41.0196   29.8433   44.2618 H   0  0  0  0  0  0  0  0  0  0  0  0
   41.8165   29.1194   42.0128 H   0  0  0  0  0  0  0  0  0  0  0  0
   40.9596   30.2388   39.9751 H   0  0  0  0  0  0  0  0  0  0  0  0
   39.3201   32.0813   40.1479 H   0  0  0  0  0  0  0  0  0  0  0  0
  1  2  1  0
  2  3  2  0
  3  4  1  0
  3 10  1  0
  5  4  2  0
  6  5  1  0
  7  6  2  0
  7  2  1  0
  9  8  2  0
 10  9  1  0
 11 10  2  0
 11 12  1  0
 12 13  2  0
 13  8  1  0
 14 15  2  0
 14 16  1  0
 16  7  1  0
 18 17  1  0
 18 19  2  0
 19 14  1  0
 20 19  1  0
 21 20  2  0
 22 23  2  0
 22 21  1  0
 23 18  1  0
  4 24  1  0
  5 25  1  0
  6 26  1  0
  8 27  1  0
  9 28  1  0
 12 29  1  0
 16 30  1  0
 20 31  1  0
 21 32  1  0
 22 33  1  0
 23 34  1  0
M  ISO  8  24  14  25  14  26  14  27  14  28  14  29  14  31  14  32  14
M  ISO  2  33  14  34  14
M  END
>  <minimizedAffinity>  (1) 
-6.74732065

>  <minimizedRMSD>  (1) 
0.294294149

$$$$
