
     RDKit          3D

 31 33  0  0  1  0  0  0  0  0999 V2000
   37.4780   30.1400   44.0980 C   0  0  2  0  0  0  0  0  0  0  0  0
   36.4320   31.1470   43.9630 C   0  0  0  0  0  0  0  0  0  0  0  0
   37.3860   31.1150   45.1740 C   0  0  1  0  0  0  0  0  0  0  0  0
   40.2160   31.1800   41.8320 C   0  0  0  0  0  0  0  0  0  0  0  0
   40.9150   29.9580   41.6390 C   0  0  0  0  0  0  0  0  0  0  0  0
   40.4210   28.7880   42.3100 C   0  0  0  0  0  0  0  0  0  0  0  0
   39.3260   28.8990   43.0830 N   0  0  0  0  0  0  0  0  0  0  0  0
   38.6940   30.0950   43.2320 C   0  0  0  0  0  0  0  0  0  0  0  0
   39.1110   31.2280   42.6290 N   0  0  0  0  0  0  0  0  0  0  0  0
   37.2590   31.2300   47.6320 C   0  0  0  0  0  0  0  0  0  0  0  0
   38.1040   32.1620   47.6120 O   0  0  0  0  0  0  0  0  0  0  0  0
   36.7350   30.6750   46.4080 N   0  0  0  0  0  0  0  0  0  0  0  0
   34.3190   30.3910   47.8060 Cl  0  0  0  0  0  0  0  0  0  0  0  0
   35.4620   30.1790   49.1100 C   0  0  0  0  0  0  0  0  0  0  0  0
   36.7250   30.6190   48.8420 C   0  0  0  0  0  0  0  0  0  0  0  0
   37.7300   30.5130   49.7860 C   0  0  0  0  0  0  0  0  0  0  0  0
   37.5120   29.9580   51.0450 C   0  0  0  0  0  0  0  0  0  0  0  0
   36.2150   29.5120   51.3070 C   0  0  0  0  0  0  0  0  0  0  0  0
   35.2290   29.6270   50.3560 C   0  0  0  0  0  0  0  0  0  0  0  0
   37.4502   29.0417   44.0426 H   0  0  0  0  0  0  0  0  0  0  0  0
   36.5198   31.9415   43.2073 H   0  0  0  0  0  0  0  0  0  0  0  0
   35.3419   31.1386   43.8160 H   0  0  0  0  0  0  0  0  0  0  0  0
   38.1012   31.7942   45.6611 H   0  0  0  0  0  0  0  0  0  0  0  0
   40.5695   32.0950   41.3341 H   0  0  0  0  0  0  0  0  0  0  0  0
   41.8062   29.9096   40.9961 H   0  0  0  0  0  0  0  0  0  0  0  0
   40.9288   27.8192   42.1938 H   0  0  0  0  0  0  0  0  0  0  0  0
   35.9495   30.0088   46.4031 H   0  0  0  0  0  0  0  0  0  0  0  0
   38.7361   30.8795   49.5341 H   0  0  0  0  0  0  0  0  0  0  0  0
   38.3164   29.8757   51.7908 H   0  0  0  0  0  0  0  0  0  0  0  0
   35.9799   29.0643   52.2839 H   0  0  0  0  0  0  0  0  0  0  0  0
   34.2176   29.2666   50.5951 H   0  0  0  0  0  0  0  0  0  0  0  0
  1  3  1  0
  2  1  1  0
  2  3  1  0
  3 12  1  0
  4  9  2  0
  5  4  1  0
  5  6  2  0
  6  7  1  0
  7  8  2  0
  8  1  1  0
  9  8  1  0
 10 15  1  0
 11 10  2  0
 12 10  1  0
 13 14  1  0
 14 19  2  0
 15 14  1  0
 15 16  2  0
 16 17  1  0
 17 18  2  0
 19 18  1  0
  1 20  1  1
  2 21  1  0
  2 22  1  0
  3 23  1  1
  4 24  1  0
  5 25  1  0
  6 26  1  0
 12 27  1  0
 16 28  1  0
 17 29  1  0
 18 30  1  0
 19 31  1  0
M  ISO  8  20  13  21  13  22  13  23  13  24  14  25  14  26  14  28  14
M  ISO  3  29  14  30  14  31  14
M  END
>  <minimizedAffinity>  (1) 
-5.56774044

>  <minimizedRMSD>  (1) 
3.86393642

$$$$
