
     RDKit          3D

 36 38  0  0  1  0  0  0  0  0999 V2000
   34.5970   29.2670   48.0540 C   0  0  0  0  0  0  0  0  0  0  0  0
   34.2340   30.1750   47.0610 C   0  0  0  0  0  0  0  0  0  0  0  0
   33.0230   29.9660   46.4090 C   0  0  0  0  0  0  0  0  0  0  0  0
   32.2820   28.8790   46.8010 N   0  0  0  0  0  0  0  0  0  0  0  0
   32.6560   28.0340   47.7500 C   0  0  0  0  0  0  0  0  0  0  0  0
   33.8210   28.2220   48.3870 N   0  0  0  0  0  0  0  0  0  0  0  0
   35.8510   29.4870   48.7280 N   0  0  0  0  0  0  0  0  0  0  0  0
   36.9790   30.2080   48.2230 C   0  0  0  0  0  0  0  0  0  0  0  0
   37.6280   30.7380   49.5080 C   0  0  2  0  0  0  0  0  0  0  0  0
   36.7120   30.3220   50.6360 C   0  0  0  0  0  0  0  0  0  0  0  0
   36.2050   29.0130   50.0490 C   0  0  0  0  0  0  0  0  0  0  0  0
   37.8820   32.2100   49.4670 C   0  0  0  0  0  0  0  0  0  0  0  0
   36.7760   32.8120   50.0450 F   0  0  0  0  0  0  0  0  0  0  0  0
   37.8790   32.5920   48.1400 F   0  0  0  0  0  0  0  0  0  0  0  0
   39.0510   32.5920   50.0470 F   0  0  0  0  0  0  0  0  0  0  0  0
   31.6340   26.6440   48.1930 S   0  0  0  0  0  0  0  0  0  0  0  0
   29.0700   25.9970   46.3860 Cl  0  0  0  0  0  0  0  0  0  0  0  0
   28.8620   26.8470   47.8870 C   0  0  0  0  0  0  0  0  0  0  0  0
   29.9910   27.1090   48.6390 C   0  0  0  0  0  0  0  0  0  0  0  0
   29.8370   27.7860   49.8400 C   0  0  0  0  0  0  0  0  0  0  0  0
   28.5650   28.1790   50.2450 C   0  0  0  0  0  0  0  0  0  0  0  0
   27.4210   27.9240   49.5000 C   0  0  0  0  0  0  0  0  0  0  0  0
   27.5890   27.2420   48.2970 C   0  0  0  0  0  0  0  0  0  0  0  0
   34.8814   31.0258   46.8022 H   0  0  0  0  0  0  0  0  0  0  0  0
   32.6746   30.6421   45.6143 H   0  0  0  0  0  0  0  0  0  0  0  0
   37.6638   29.5440   47.6751 H   0  0  0  0  0  0  0  0  0  0  0  0
   36.7124   30.9978   47.5053 H   0  0  0  0  0  0  0  0  0  0  0  0
   38.6326   30.3120   49.6469 H   0  0  0  0  0  0  0  0  0  0  0  0
   37.2588   30.1688   51.5781 H   0  0  0  0  0  0  0  0  0  0  0  0
   35.9368   31.0514   50.9136 H   0  0  0  0  0  0  0  0  0  0  0  0
   35.3335   28.6244   50.5963 H   0  0  0  0  0  0  0  0  0  0  0  0
   36.9138   28.1723   50.0786 H   0  0  0  0  0  0  0  0  0  0  0  0
   30.7128   28.0102   50.4667 H   0  0  0  0  0  0  0  0  0  0  0  0
   28.4608   28.7164   51.1991 H   0  0  0  0  0  0  0  0  0  0  0  0
   26.4271   28.2460   49.8443 H   0  0  0  0  0  0  0  0  0  0  0  0
   26.7152   27.0144   47.6688 H   0  0  0  0  0  0  0  0  0  0  0  0
  1  6  1  0
  1  7  1  0
  2  1  2  0
  3  4  2  0
  3  2  1  0
  4  5  1  0
  5 16  1  0
  5  6  2  0
  7 11  1  0
  8  7  1  0
  8  9  1  0
  9 10  1  0
 11 10  1  0
 12  9  1  0
 12 13  1  0
 12 15  1  0
 14 12  1  0
 16 19  1  0
 17 18  1  0
 18 23  2  0
 18 19  1  0
 19 20  2  0
 20 21  1  0
 22 21  2  0
 23 22  1  0
  2 24  1  0
  3 25  1  0
  8 26  1  0
  8 27  1  0
  9 28  1  1
 10 29  1  0
 10 30  1  0
 11 31  1  0
 11 32  1  0
 20 33  1  0
 21 34  1  0
 22 35  1  0
 23 36  1  0
M  ISO  8  24  14  25  14  26  13  27  13  28  13  29  13  30  13  31  13
M  ISO  5  32  13  33  14  34  14  35  14  36  14
M  END
>  <minimizedAffinity>  (1) 
-6.52397203

>  <minimizedRMSD>  (1) 
1.51894736

$$$$
