
     RDKit          3D

 37 40  0  0  0  0  0  0  0  0999 V2000
   33.4210   28.4610   48.4060 C   0  0  0  0  0  0  0  0  0  0  0  0
   34.3170   28.0240   49.3170 C   0  0  0  0  0  0  0  0  0  0  0  0
   35.5190   28.6290   49.6110 C   0  0  0  0  0  0  0  0  0  0  0  0
   35.8670   29.7700   48.9430 C   0  0  0  0  0  0  0  0  0  0  0  0
   34.9550   30.2300   48.0040 C   0  0  0  0  0  0  0  0  0  0  0  0
   33.7930   29.5900   47.7630 N   0  0  0  0  0  0  0  0  0  0  0  0
   31.1290   27.6460   49.0470 C   0  0  0  0  0  0  0  0  0  0  0  0
   32.1770   27.8080   48.1220 C   0  0  0  0  0  0  0  0  0  0  0  0
   31.9520   27.2870   46.8570 C   0  0  0  0  0  0  0  0  0  0  0  0
   30.7690   26.6650   46.5800 N   0  0  0  0  0  0  0  0  0  0  0  0
   29.8100   26.5460   47.5160 C   0  0  0  0  0  0  0  0  0  0  0  0
   29.9770   27.0350   48.7650 N   0  0  0  0  0  0  0  0  0  0  0  0
   37.0380   30.5120   49.1110 O   0  0  0  0  0  0  0  0  0  0  0  0
   37.6640   31.1220   48.0300 C   0  0  0  0  0  0  0  0  0  0  0  0
   38.5040   32.1820   48.4030 C   0  0  0  0  0  0  0  0  0  0  0  0
   39.0710   32.7130   47.2500 C   0  0  0  0  0  0  0  0  0  0  0  0
   38.5680   31.9770   46.2440 N   0  0  0  0  0  0  0  0  0  0  0  0
   37.7520   31.0540   46.6910 N   0  0  0  0  0  0  0  0  0  0  0  0
   41.2720   31.0900   45.3740 Cl  0  0  0  0  0  0  0  0  0  0  0  0
   40.0310   31.7090   44.3040 C   0  0  0  0  0  0  0  0  0  0  0  0
   38.8110   32.0870   44.8450 C   0  0  0  0  0  0  0  0  0  0  0  0
   37.8520   32.5710   43.9780 C   0  0  0  0  0  0  0  0  0  0  0  0
   38.0150   32.7050   42.6160 C   0  0  0  0  0  0  0  0  0  0  0  0
   39.2570   32.3120   42.1140 C   0  0  0  0  0  0  0  0  0  0  0  0
   40.2540   31.8220   42.9320 C   0  0  0  0  0  0  0  0  0  0  0  0
   34.0657   27.1075   49.8710 H   0  0  0  0  0  0  0  0  0  0  0  0
   36.1886   28.2008   50.3715 H   0  0  0  0  0  0  0  0  0  0  0  0
   35.1871   31.1448   47.4389 H   0  0  0  0  0  0  0  0  0  0  0  0
   31.2677   28.0466   50.0620 H   0  0  0  0  0  0  0  0  0  0  0  0
   32.7246   27.3747   46.0789 H   0  0  0  0  0  0  0  0  0  0  0  0
   28.8682   26.0390   47.2589 H   0  0  0  0  0  0  0  0  0  0  0  0
   38.6830   32.5324   49.4302 H   0  0  0  0  0  0  0  0  0  0  0  0
   39.7776   33.5528   47.1769 H   0  0  0  0  0  0  0  0  0  0  0  0
   36.8848   32.8725   44.4065 H   0  0  0  0  0  0  0  0  0  0  0  0
   37.2181   33.0963   41.9665 H   0  0  0  0  0  0  0  0  0  0  0  0
   39.4464   32.3956   41.0336 H   0  0  0  0  0  0  0  0  0  0  0  0
   41.2215   31.5215   42.5035 H   0  0  0  0  0  0  0  0  0  0  0  0
  1  2  2  0
  2  3  1  0
  4 13  1  0
  4  3  2  0
  5  4  1  0
  6  5  2  0
  6  1  1  0
  8  1  1  0
  8  7  2  0
  9  8  1  0
 10  9  2  0
 10 11  1  0
 11 12  2  0
 12  7  1  0
 14 15  1  0
 14 13  1  0
 16 15  2  0
 17 18  1  0
 17 16  1  0
 18 14  2  0
 20 21  2  0
 20 19  1  0
 21 17  1  0
 22 21  1  0
 23 22  2  0
 24 23  1  0
 24 25  2  0
 25 20  1  0
  2 26  1  0
  3 27  1  0
  5 28  1  0
  7 29  1  0
  9 30  1  0
 11 31  1  0
 15 32  1  0
 16 33  1  0
 22 34  1  0
 23 35  1  0
 24 36  1  0
 25 37  1  0
M  ISO  8  26  14  27  14  28  14  29  14  30  14  31  14  32  14  33  14
M  ISO  4  34  14  35  14  36  14  37  14
M  END
>  <minimizedAffinity>  (1) 
-6.03972435

>  <minimizedRMSD>  (1) 
2.61892915

$$$$
