
     RDKit          3D

 26 27  0  0  0  0  0  0  0  0999 V2000
   32.3760   28.0030   48.8720 O   0  0  0  0  0  0  0  0  0  0  0  0
   33.8090   28.2900   48.4150 P   0  0  2  0  0  0  0  0  0  0  0  0
   34.1750   27.1410   47.2520 O   0  0  0  0  0  0  0  0  0  0  0  0
   34.8050   28.1430   49.7930 O   0  0  0  0  0  0  0  0  0  0  0  0
   37.2440   30.3020   51.4380 C   0  0  0  0  0  0  0  0  0  0  0  0
   38.0330   30.6910   50.3150 C   0  0  0  0  0  0  0  0  0  0  0  0
   37.6610   30.1760   49.0660 C   0  0  0  0  0  0  0  0  0  0  0  0
   36.5880   29.3500   49.0040 N   0  0  0  0  0  0  0  0  0  0  0  0
   35.8570   28.9970   50.0850 C   0  0  0  0  0  0  0  0  0  0  0  0
   36.1850   29.4730   51.3060 N   0  0  0  0  0  0  0  0  0  0  0  0
   33.8330   29.8130   47.7420 O   0  0  0  0  0  0  0  0  0  0  0  0
   31.4420   30.0020   46.1020 Cl  0  0  0  0  0  0  0  0  0  0  0  0
   33.1090   30.0990   45.5640 C   0  0  0  0  0  0  0  0  0  0  0  0
   34.2060   29.9980   46.4190 C   0  0  0  0  0  0  0  0  0  0  0  0
   35.4980   30.0800   45.9480 C   0  0  0  0  0  0  0  0  0  0  0  0
   35.6850   30.2680   44.5820 C   0  0  0  0  0  0  0  0  0  0  0  0
   34.5910   30.3670   43.7400 C   0  0  0  0  0  0  0  0  0  0  0  0
   33.2880   30.2860   44.2010 C   0  0  0  0  0  0  0  0  0  0  0  0
   34.4438   26.2973   47.6948 H   0  0  0  0  0  0  0  0  0  0  0  0
   37.5039   30.6861   52.4355 H   0  0  0  0  0  0  0  0  0  0  0  0
   38.8951   31.3653   50.4246 H   0  0  0  0  0  0  0  0  0  0  0  0
   38.2257   30.4356   48.1584 H   0  0  0  0  0  0  0  0  0  0  0  0
   36.3562   29.9993   46.6314 H   0  0  0  0  0  0  0  0  0  0  0  0
   36.7030   30.3380   44.1711 H   0  0  0  0  0  0  0  0  0  0  0  0
   34.7633   30.5157   42.6638 H   0  0  0  0  0  0  0  0  0  0  0  0
   32.4312   30.3665   43.5158 H   0  0  0  0  0  0  0  0  0  0  0  0
  2  1  2  0
  2  4  1  0
  3  2  1  0
  4  9  1  0
  6  5  2  0
  7  6  1  0
  8  7  2  0
  8  9  1  0
  9 10  2  0
 10  5  1  0
 11  2  1  0
 13 12  1  0
 13 14  2  0
 14 11  1  0
 15 14  1  0
 16 15  2  0
 17 18  2  0
 17 16  1  0
 18 13  1  0
  3 19  1  0
  5 20  1  0
  6 21  1  0
  7 22  1  0
 15 23  1  0
 16 24  1  0
 17 25  1  0
 18 26  1  0
M  ISO  8  19   3  20  14  21  14  22  14  23  14  24  14  25  14  26  14
M  END
>  <minimizedAffinity>  (1) 
-4.38230848

>  <minimizedRMSD>  (1) 
2.18750572

$$$$
