
     RDKit          3D

 42 45  0  0  0  0  0  0  0  0999 V2000
   37.6200   30.2650   50.9510 C   0  0  0  0  0  0  0  0  0  0  0  0
   38.1200   30.7960   49.7570 C   0  0  0  0  0  0  0  0  0  0  0  0
   37.3750   30.6120   48.6120 C   0  0  0  0  0  0  0  0  0  0  0  0
   36.2210   29.9380   48.7150 N   0  0  0  0  0  0  0  0  0  0  0  0
   35.7440   29.4300   49.8660 C   0  0  0  0  0  0  0  0  0  0  0  0
   36.4500   29.5970   50.9820 N   0  0  0  0  0  0  0  0  0  0  0  0
   37.7820   31.1200   47.3160 C   0  0  0  0  0  0  0  0  0  0  0  0
   37.0760   30.7740   46.1650 C   0  0  0  0  0  0  0  0  0  0  0  0
   37.4150   31.2300   44.9110 C   0  0  0  0  0  0  0  0  0  0  0  0
   38.4860   32.0560   44.7880 N   0  0  0  0  0  0  0  0  0  0  0  0
   39.1540   32.3780   45.9070 C   0  0  0  0  0  0  0  0  0  0  0  0
   38.8390   31.9440   47.1430 N   0  0  0  0  0  0  0  0  0  0  0  0
   40.3250   33.2780   45.7910 C   0  0  0  0  0  0  0  0  0  0  0  0
   40.4040   34.0100   46.9980 F   0  0  0  0  0  0  0  0  0  0  0  0
   41.4730   32.5920   45.5380 F   0  0  0  0  0  0  0  0  0  0  0  0
   40.1310   34.2530   44.8260 F   0  0  0  0  0  0  0  0  0  0  0  0
   34.5300   28.7580   49.7920 O   0  0  0  0  0  0  0  0  0  0  0  0
   33.6240   26.5820   46.9840 N   0  0  0  0  0  0  0  0  0  0  0  0
   34.0930   26.9010   48.2010 C   0  0  0  0  0  0  0  0  0  0  0  0
   34.1030   28.2130   48.6100 C   0  0  0  0  0  0  0  0  0  0  0  0
   33.6160   29.1900   47.7290 C   0  0  0  0  0  0  0  0  0  0  0  0
   33.5280   30.4420   47.8860 O   0  0  0  0  0  0  0  0  0  0  0  0
   33.1550   28.7980   46.5080 N   0  0  0  0  0  0  0  0  0  0  0  0
   33.1600   27.5070   46.1430 C   0  0  0  0  0  0  0  0  0  0  0  0
   32.7390   27.1090   45.0160 O   0  0  0  0  0  0  0  0  0  0  0  0
   30.1840   29.4310   46.4230 Cl  0  0  0  0  0  0  0  0  0  0  0  0
   31.3480   30.1140   45.3260 C   0  0  0  0  0  0  0  0  0  0  0  0
   32.6390   29.6970   45.5340 C   0  0  0  0  0  0  0  0  0  0  0  0
   33.6520   30.1880   44.7030 C   0  0  0  0  0  0  0  0  0  0  0  0
   33.3850   31.0830   43.6770 C   0  0  0  0  0  0  0  0  0  0  0  0
   32.0720   31.4970   43.4780 C   0  0  0  0  0  0  0  0  0  0  0  0
   31.0810   31.0030   44.3060 C   0  0  0  0  0  0  0  0  0  0  0  0
   38.1923   30.3952   51.8813 H   0  0  0  0  0  0  0  0  0  0  0  0
   39.0749   31.3416   49.7329 H   0  0  0  0  0  0  0  0  0  0  0  0
   36.2078   30.1057   46.2632 H   0  0  0  0  0  0  0  0  0  0  0  0
   36.8310   30.9318   44.0278 H   0  0  0  0  0  0  0  0  0  0  0  0
   33.6226   25.5944   46.6916 H   0  0  0  0  0  0  0  0  0  0  0  0
   34.4689   26.1129   48.8701 H   0  0  0  0  0  0  0  0  0  0  0  0
   34.6876   29.8556   44.8675 H   0  0  0  0  0  0  0  0  0  0  0  0
   34.1951   31.4576   43.0340 H   0  0  0  0  0  0  0  0  0  0  0  0
   31.8259   32.2065   42.6742 H   0  0  0  0  0  0  0  0  0  0  0  0
   30.0432   31.3305   44.1456 H   0  0  0  0  0  0  0  0  0  0  0  0
  1  6  2  0
  2  1  1  0
  3  4  1  0
  3  2  2  0
  4  5  2  0
  5  6  1  0
  7  3  1  0
  8  7  2  0
  9  8  1  0
 10  9  2  0
 10 11  1  0
 11 12  2  0
 12  7  1  0
 13 11  1  0
 13 14  1  0
 15 13  1  0
 16 13  1  0
 17  5  1  0
 18 19  1  0
 19 20  2  0
 20 17  1  0
 21 22  2  0
 21 20  1  0
 23 21  1  0
 24 23  1  0
 24 18  1  0
 25 24  2  0
 27 28  2  0
 27 26  1  0
 28 23  1  0
 29 28  1  0
 30 29  2  0
 31 30  1  0
 31 32  2  0
 32 27  1  0
  1 33  1  0
  2 34  1  0
  8 35  1  0
  9 36  1  0
 18 37  1  0
 19 38  1  0
 29 39  1  0
 30 40  1  0
 31 41  1  0
 32 42  1  0
M  ISO  8  33  14  34  14  35  14  36  14  37   9  38  14  39  14  40  14
M  ISO  2  41  14  42  14
M  END
>  <minimizedAffinity>  (1) 
-6.67686319

>  <minimizedRMSD>  (1) 
1.54638267

$$$$
