
     RDKit          3D

 36 38  0  0  0  0  0  0  0  0999 V2000
   36.4110   30.6850   45.9070 Cl  0  0  0  0  0  0  0  0  0  0  0  0
   36.7230   30.7140   47.6200 C   0  0  0  0  0  0  0  0  0  0  0  0
   37.9670   31.1490   48.0180 C   0  0  0  0  0  0  0  0  0  0  0  0
   38.2400   31.1830   49.3910 C   0  0  0  0  0  0  0  0  0  0  0  0
   37.2760   30.7880   50.2840 C   0  0  0  0  0  0  0  0  0  0  0  0
   36.0460   30.3610   49.8080 C   0  0  0  0  0  0  0  0  0  0  0  0
   35.7120   30.3040   48.4810 C   0  0  0  0  0  0  0  0  0  0  0  0
   40.1780   33.3240   46.1020 C   0  0  0  0  0  0  0  0  0  0  0  0
   40.8400   32.4460   45.2050 C   0  0  0  0  0  0  0  0  0  0  0  0
   40.4920   31.0860   45.2910 C   0  0  0  0  0  0  0  0  0  0  0  0
   39.5620   30.7040   46.2100 N   0  0  0  0  0  0  0  0  0  0  0  0
   38.9710   31.5670   47.0270 C   0  0  0  0  0  0  0  0  0  0  0  0
   39.2780   32.8760   46.9740 N   0  0  0  0  0  0  0  0  0  0  0  0
   34.1480   29.7640   47.8540 S   0  0  0  0  0  0  0  0  0  0  0  0
   32.4540   25.4940   47.7510 N   0  0  0  0  0  0  0  0  0  0  0  0
   33.7280   25.7690   47.1340 C   0  0  0  0  0  0  0  0  0  0  0  0
   33.8300   27.2460   46.7270 C   0  0  0  0  0  0  0  0  0  0  0  0
   33.8520   28.0070   48.0200 C   0  0  0  0  0  0  0  0  0  0  0  0
   32.5270   27.7860   48.6870 C   0  0  0  0  0  0  0  0  0  0  0  0
   31.7080   26.6750   48.0870 C   0  0  0  0  0  0  0  0  0  0  0  0
   39.2216   31.5244   49.7516 H   0  0  0  0  0  0  0  0  0  0  0  0
   37.4769   30.8099   51.3653 H   0  0  0  0  0  0  0  0  0  0  0  0
   35.2899   30.0480   50.5431 H   0  0  0  0  0  0  0  0  0  0  0  0
   40.4138   34.3981   46.0760 H   0  0  0  0  0  0  0  0  0  0  0  0
   41.5849   32.8093   44.4817 H   0  0  0  0  0  0  0  0  0  0  0  0
   40.9622   30.3445   44.6283 H   0  0  0  0  0  0  0  0  0  0  0  0
   32.6199   24.9576   48.6145 H   0  0  0  0  0  0  0  0  0  0  0  0
   34.5320   25.5353   47.8474 H   0  0  0  0  0  0  0  0  0  0  0  0
   33.8238   25.1475   46.2315 H   0  0  0  0  0  0  0  0  0  0  0  0
   34.7532   27.4266   46.1568 H   0  0  0  0  0  0  0  0  0  0  0  0
   32.9944   27.5543   46.0814 H   0  0  0  0  0  0  0  0  0  0  0  0
   34.6998   27.6283   48.6098 H   0  0  0  0  0  0  0  0  0  0  0  0
   32.7098   27.5463   49.7449 H   0  0  0  0  0  0  0  0  0  0  0  0
   31.9484   28.7117   48.5516 H   0  0  0  0  0  0  0  0  0  0  0  0
   31.2356   27.0547   47.1690 H   0  0  0  0  0  0  0  0  0  0  0  0
   30.9805   26.3750   48.8556 H   0  0  0  0  0  0  0  0  0  0  0  0
  1  2  1  0
  2  3  2  0
  2  7  1  0
  3  4  1  0
  4  5  2  0
  6  5  1  0
  7  6  2  0
  8 13  2  0
  9 10  2  0
  9  8  1  0
 10 11  1  0
 11 12  2  0
 12  3  1  0
 13 12  1  0
 14 18  1  0
 14  7  1  0
 15 20  1  0
 16 15  1  0
 17 16  1  0
 17 18  1  0
 18 19  1  0
 20 19  1  0
  4 21  1  0
  5 22  1  0
  6 23  1  0
  8 24  1  0
  9 25  1  0
 10 26  1  0
 15 27  1  0
 16 28  1  0
 16 29  1  0
 17 30  1  0
 17 31  1  0
 18 32  1  0
 19 33  1  0
 19 34  1  0
 20 35  1  0
 20 36  1  0
M  ISO  8  21  14  22  14  23  14  24  14  25  14  26  14  27   5  28  13
M  ISO  8  29  13  30  13  31  13  32  13  33  13  34  13  35  13  36  13
M  END
>  <minimizedAffinity>  (1) 
-5.88806105

>  <minimizedRMSD>  (1) 
1.14199245

$$$$
