
     RDKit          3D

 52 55  0  0  1  0  0  0  0  0999 V2000
   39.4560   33.1330   43.9410 C   0  0  0  0  0  0  0  0  0  0  0  0
   38.9690   29.9100   42.5820 C   0  0  1  0  0  0  0  0  0  0  0  0
   38.8260   31.3820   42.2860 C   0  0  0  0  0  0  0  0  0  0  0  0
   39.9450   31.9490   43.1300 C   0  0  2  0  0  0  0  0  0  0  0  0
   40.4450   30.9580   43.9170 O   0  0  0  0  0  0  0  0  0  0  0  0
   39.5000   29.9520   44.0080 C   0  0  0  0  0  0  0  0  0  0  0  0
   37.7710   29.2280   42.5100 O   0  0  0  0  0  0  0  0  0  0  0  0
   39.7070   26.0120   41.1150 N   0  0  0  0  0  0  0  0  0  0  0  0
   40.1930   27.3770   41.1380 C   0  0  0  0  0  0  0  0  0  0  0  0
   38.9710   28.2350   40.7940 C   0  0  0  0  0  0  0  0  0  0  0  0
   37.8770   28.0220   41.8190 C   0  0  0  0  0  0  0  0  0  0  0  0
   38.1560   26.9430   42.8050 C   0  0  0  0  0  0  0  0  0  0  0  0
   38.9320   25.7720   42.2890 C   0  0  0  0  0  0  0  0  0  0  0  0
   40.5480   33.3110   45.3680 S   0  0  0  0  0  0  0  0  0  0  0  0
   37.7620   31.8200   47.7810 C   0  0  0  0  0  0  0  0  0  0  0  0
   37.9330   32.5520   48.9700 C   0  0  0  0  0  0  0  0  0  0  0  0
   38.8990   33.5240   49.0840 C   0  0  0  0  0  0  0  0  0  0  0  0
   39.6840   33.7370   47.9730 C   0  0  0  0  0  0  0  0  0  0  0  0
   39.5060   33.0250   46.8360 C   0  0  0  0  0  0  0  0  0  0  0  0
   38.5520   32.0590   46.7120 N   0  0  0  0  0  0  0  0  0  0  0  0
   36.7320   30.8200   47.7360 C   0  0  0  0  0  0  0  0  0  0  0  0
   36.2980   30.3980   46.6680 O   0  0  0  0  0  0  0  0  0  0  0  0
   37.0060   29.6250   49.8850 C   0  0  0  0  0  0  0  0  0  0  0  0
   36.1460   30.2500   48.9600 C   0  0  0  0  0  0  0  0  0  0  0  0
   34.7770   30.3050   49.2370 C   0  0  0  0  0  0  0  0  0  0  0  0
   34.3180   29.7520   50.3970 N   0  0  0  0  0  0  0  0  0  0  0  0
   35.1640   29.1580   51.2680 C   0  0  0  0  0  0  0  0  0  0  0  0
   36.4690   29.1010   51.0090 N   0  0  0  0  0  0  0  0  0  0  0  0
   38.4244   32.9551   44.2788 H   0  0  0  0  0  0  0  0  0  0  0  0
   39.4674   34.0483   43.3311 H   0  0  0  0  0  0  0  0  0  0  0  0
   39.6098   29.3781   41.8634 H   0  0  0  0  0  0  0  0  0  0  0  0
   38.9757   31.5968   41.2176 H   0  0  0  0  0  0  0  0  0  0  0  0
   37.8319   31.7974   42.5080 H   0  0  0  0  0  0  0  0  0  0  0  0
   40.7532   32.3238   42.4847 H   0  0  0  0  0  0  0  0  0  0  0  0
   38.7067   30.2087   44.7255 H   0  0  0  0  0  0  0  0  0  0  0  0
   39.8980   28.9920   44.3684 H   0  0  0  0  0  0  0  0  0  0  0  0
   39.1214   25.8685   40.2799 H   0  0  0  0  0  0  0  0  0  0  0  0
   40.5782   27.6341   42.1357 H   0  0  0  0  0  0  0  0  0  0  0  0
   41.0218   27.5340   40.4320 H   0  0  0  0  0  0  0  0  0  0  0  0
   39.2619   29.2958   40.7882 H   0  0  0  0  0  0  0  0  0  0  0  0
   38.5953   27.9431   39.8022 H   0  0  0  0  0  0  0  0  0  0  0  0
   36.9624   27.7141   41.2910 H   0  0  0  0  0  0  0  0  0  0  0  0
   38.7250   27.3847   43.6363 H   0  0  0  0  0  0  0  0  0  0  0  0
   37.1732   26.5442   43.0966 H   0  0  0  0  0  0  0  0  0  0  0  0
   38.2179   24.9662   42.0637 H   0  0  0  0  0  0  0  0  0  0  0  0
   39.6547   25.5197   43.0789 H   0  0  0  0  0  0  0  0  0  0  0  0
   37.2786   32.3419   49.8288 H   0  0  0  0  0  0  0  0  0  0  0  0
   39.0370   34.0994   50.0113 H   0  0  0  0  0  0  0  0  0  0  0  0
   40.4730   34.5026   48.0104 H   0  0  0  0  0  0  0  0  0  0  0  0
   38.0881   29.5651   49.6967 H   0  0  0  0  0  0  0  0  0  0  0  0
   34.0821   30.7855   48.5325 H   0  0  0  0  0  0  0  0  0  0  0  0
   34.7718   28.7187   52.1971 H   0  0  0  0  0  0  0  0  0  0  0  0
  1 14  1  0
  2  6  1  0
  3  2  1  0
  3  4  1  0
  4  5  1  0
  4  1  1  0
  5  6  1  0
  7  2  1  0
  8  9  1  0
  8 13  1  0
 10  9  1  0
 10 11  1  0
 11  7  1  0
 11 12  1  0
 13 12  1  0
 14 19  1  0
 15 16  2  0
 16 17  1  0
 18 17  2  0
 19 18  1  0
 20 19  2  0
 20 15  1  0
 21 15  1  0
 21 24  1  0
 22 21  2  0
 23 28  2  0
 24 25  2  0
 24 23  1  0
 25 26  1  0
 26 27  2  0
 28 27  1  0
  1 29  1  0
  1 30  1  0
  2 31  1  6
  3 32  1  0
  3 33  1  0
  4 34  1  6
  6 35  1  0
  6 36  1  0
  8 37  1  0
  9 38  1  0
  9 39  1  0
 10 40  1  0
 10 41  1  0
 11 42  1  0
 12 43  1  0
 12 44  1  0
 13 45  1  0
 13 46  1  0
 16 47  1  0
 17 48  1  0
 18 49  1  0
 23 50  1  0
 25 51  1  0
 27 52  1  0
M  ISO  8  29   8  30   8  31  13  32  13  33  13  34  13  35  13  36  13
M  ISO  8  37   5  38  13  39  13  40  13  41  13  42  13  43  13  44  13
M  ISO  8  45  13  46  13  47  14  48  14  49  14  50  14  51  14  52  14
M  END
>  <minimizedAffinity>  (1) 
-5.58692503

>  <minimizedRMSD>  (1) 
0.526505768

$$$$
