
     RDKit          3D

 53 56  0  0  0  0  0  0  0  0999 V2000
   39.0200   32.8550   47.9500 C   0  0  0  0  0  0  0  0  0  0  0  0
   39.3030   32.1480   46.7680 C   0  0  0  0  0  0  0  0  0  0  0  0
   38.7580   30.9060   46.6530 C   0  0  0  0  0  0  0  0  0  0  0  0
   37.9900   30.4230   47.6600 N   0  0  0  0  0  0  0  0  0  0  0  0
   37.7460   31.1030   48.7460 C   0  0  0  0  0  0  0  0  0  0  0  0
   38.2560   32.3650   48.9420 N   0  0  0  0  0  0  0  0  0  0  0  0
   40.0860   32.7500   45.8440 O   0  0  0  0  0  0  0  0  0  0  0  0
   40.0960   32.2560   44.5450 C   0  0  0  0  0  0  0  0  0  0  0  0
   40.6550   31.0890   44.0780 C   0  0  0  0  0  0  0  0  0  0  0  0
   40.5620   30.7750   42.7700 C   0  0  0  0  0  0  0  0  0  0  0  0
   39.9130   31.6270   41.9360 C   0  0  0  0  0  0  0  0  0  0  0  0
   39.3430   32.8150   42.4050 C   0  0  0  0  0  0  0  0  0  0  0  0
   39.4490   33.1090   43.7290 N   0  0  0  0  0  0  0  0  0  0  0  0
   38.6270   33.7420   41.4540 C   0  0  0  0  0  0  0  0  0  0  0  0
   36.6870   30.2050   49.9200 S   0  0  0  0  0  0  0  0  0  0  0  0
   35.0060   30.7470   49.5080 C   0  0  0  0  0  0  0  0  0  0  0  0
   33.1530   28.8570   50.2440 F   0  0  0  0  0  0  0  0  0  0  0  0
   33.5580   28.8940   48.9380 C   0  0  0  0  0  0  0  0  0  0  0  0
   34.4940   29.8100   48.4470 C   0  0  0  0  0  0  0  0  0  0  0  0
   34.8700   29.8170   47.1420 C   0  0  0  0  0  0  0  0  0  0  0  0
   34.3160   28.8870   46.2510 C   0  0  0  0  0  0  0  0  0  0  0  0
   33.3940   27.9810   46.7210 C   0  0  0  0  0  0  0  0  0  0  0  0
   33.0210   27.9840   48.0430 C   0  0  0  0  0  0  0  0  0  0  0  0
   32.0960   27.0540   48.4560 O   0  0  0  0  0  0  0  0  0  0  0  0
   29.0750   29.0080   49.3140 N   0  0  0  0  0  0  0  0  0  0  0  0
   29.8730   28.0400   50.0600 C   0  0  0  0  0  0  0  0  0  0  0  0
   29.8290   26.7660   49.2640 C   0  0  0  0  0  0  0  0  0  0  0  0
   30.7730   26.9170   48.0900 C   0  0  0  0  0  0  0  0  0  0  0  0
   30.3460   28.2210   47.4010 C   0  0  0  0  0  0  0  0  0  0  0  0
   29.0120   28.7160   47.9150 C   0  0  0  0  0  0  0  0  0  0  0  0
   39.4461   33.8621   48.0694 H   0  0  0  0  0  0  0  0  0  0  0  0
   38.9389   30.3008   45.7525 H   0  0  0  0  0  0  0  0  0  0  0  0
   41.1772   30.4128   44.7708 H   0  0  0  0  0  0  0  0  0  0  0  0
   41.0045   29.8443   42.3853 H   0  0  0  0  0  0  0  0  0  0  0  0
   39.8336   31.3775   40.8676 H   0  0  0  0  0  0  0  0  0  0  0  0
   38.0534   34.4846   42.0280 H   0  0  0  0  0  0  0  0  0  0  0  0
   39.3636   34.2576   40.8203 H   0  0  0  0  0  0  0  0  0  0  0  0
   37.9420   33.1596   40.8203 H   0  0  0  0  0  0  0  0  0  0  0  0
   34.3631   30.6973   50.3992 H   0  0  0  0  0  0  0  0  0  0  0  0
   35.0035   31.7872   49.1502 H   0  0  0  0  0  0  0  0  0  0  0  0
   35.6076   30.5507   46.7848 H   0  0  0  0  0  0  0  0  0  0  0  0
   34.6142   28.8820   45.1922 H   0  0  0  0  0  0  0  0  0  0  0  0
   32.9511   27.2471   46.0317 H   0  0  0  0  0  0  0  0  0  0  0  0
   28.1175   29.0069   49.6936 H   0  0  0  0  0  0  0  0  0  0  0  0
   30.9099   28.3939   50.1579 H   0  0  0  0  0  0  0  0  0  0  0  0
   29.4811   27.8933   51.0773 H   0  0  0  0  0  0  0  0  0  0  0  0
   30.1470   25.9214   49.8929 H   0  0  0  0  0  0  0  0  0  0  0  0
   28.8060   26.5709   48.9100 H   0  0  0  0  0  0  0  0  0  0  0  0
   30.7121   26.0161   47.4617 H   0  0  0  0  0  0  0  0  0  0  0  0
   30.2667   28.0425   46.3185 H   0  0  0  0  0  0  0  0  0  0  0  0
   31.1034   28.9880   47.6203 H   0  0  0  0  0  0  0  0  0  0  0  0
   28.7335   29.6297   47.3695 H   0  0  0  0  0  0  0  0  0  0  0  0
   28.2620   27.9271   47.7563 H   0  0  0  0  0  0  0  0  0  0  0  0
  1  6  2  0
  2  1  1  0
  3  2  2  0
  3  4  1  0
  4  5  2  0
  5  6  1  0
  5 15  1  0
  7  2  1  0
  8  7  1  0
  9  8  2  0
 10  9  1  0
 11 12  1  0
 11 10  2  0
 12 13  2  0
 13  8  1  0
 14 12  1  0
 16 15  1  0
 18 17  1  0
 19 18  2  0
 19 16  1  0
 20 19  1  0
 21 22  1  0
 21 20  2  0
 22 23  2  0
 23 24  1  0
 23 18  1  0
 25 26  1  0
 27 26  1  0
 28 24  1  0
 28 27  1  0
 29 30  1  0
 29 28  1  0
 30 25  1  0
  1 31  1  0
  3 32  1  0
  9 33  1  0
 10 34  1  0
 11 35  1  0
 14 36  1  0
 14 37  1  0
 14 38  1  0
 16 39  1  0
 16 40  1  0
 20 41  1  0
 21 42  1  0
 22 43  1  0
 25 44  1  0
 26 45  1  0
 26 46  1  0
 27 47  1  0
 27 48  1  0
 28 49  1  0
 29 50  1  0
 29 51  1  0
 30 52  1  0
 30 53  1  0
M  ISO  8  31  14  32  14  33  14  34  14  35  14  36   8  37   8  38   8
M  ISO  8  39   8  40   8  41  14  42  14  43  14  44   5  45  13  46  13
M  ISO  7  47  13  48  13  49  13  50  13  51  13  52  13  53  13
M  END
>  <minimizedAffinity>  (1) 
-6.58724833

>  <minimizedRMSD>  (1) 
2.48093677

$$$$
