
     RDKit          3D

 44 46  0  0  1  0  0  0  0  0999 V2000
   37.0270   29.9280   48.9130 C   0  0  0  0  0  0  0  0  0  0  0  0
   38.0210   30.5110   48.0900 C   0  0  0  0  0  0  0  0  0  0  0  0
   37.6420   30.9320   46.8120 C   0  0  0  0  0  0  0  0  0  0  0  0
   36.3610   30.7620   46.4330 N   0  0  0  0  0  0  0  0  0  0  0  0
   35.4220   30.1960   47.2440 C   0  0  0  0  0  0  0  0  0  0  0  0
   35.7720   29.7850   48.4790 N   0  0  0  0  0  0  0  0  0  0  0  0
   38.5780   31.5210   45.9420 N   0  0  0  0  0  0  0  0  0  0  0  0
   39.7530   32.2880   46.3730 C   0  0  0  0  0  0  0  0  0  0  0  0
   40.3130   32.9270   45.1430 C   0  0  0  0  0  0  0  0  0  0  0  0
   39.1810   32.8700   44.1870 C   0  0  0  0  0  0  0  0  0  0  0  0
   38.5960   31.5050   44.5090 C   0  0  2  0  0  0  0  0  0  0  0  0
   37.3330   31.2430   43.7950 C   0  0  0  0  0  0  0  0  0  0  0  0
   36.5160   32.3420   44.0150 F   0  0  0  0  0  0  0  0  0  0  0  0
   36.6330   30.1550   44.1940 F   0  0  0  0  0  0  0  0  0  0  0  0
   37.6370   31.2650   42.4410 F   0  0  0  0  0  0  0  0  0  0  0  0
   39.5800   30.4380   44.1400 C   0  0  0  0  0  0  0  0  0  0  0  0
   38.9730   29.3790   44.1130 O   0  0  0  0  0  0  0  0  0  0  0  0
   38.8850   27.5550   40.5420 N   0  0  0  0  0  0  0  0  0  0  0  0
   40.1500   27.4820   41.2460 C   0  0  0  0  0  0  0  0  0  0  0  0
   40.2260   28.6130   42.2560 C   0  0  0  0  0  0  0  0  0  0  0  0
   39.2840   28.2600   43.3850 C   0  0  0  0  0  0  0  0  0  0  0  0
   38.0400   27.6860   42.7850 C   0  0  0  0  0  0  0  0  0  0  0  0
   37.8270   28.1360   41.3430 C   0  0  0  0  0  0  0  0  0  0  0  0
   37.2924   29.5878   49.9248 H   0  0  0  0  0  0  0  0  0  0  0  0
   39.0558   30.6286   48.4442 H   0  0  0  0  0  0  0  0  0  0  0  0
   34.3865   30.0758   46.8928 H   0  0  0  0  0  0  0  0  0  0  0  0
   39.4587   33.0578   47.1016 H   0  0  0  0  0  0  0  0  0  0  0  0
   40.4964   31.6396   46.8598 H   0  0  0  0  0  0  0  0  0  0  0  0
   40.6113   33.9673   45.3397 H   0  0  0  0  0  0  0  0  0  0  0  0
   41.2184   32.4258   44.7702 H   0  0  0  0  0  0  0  0  0  0  0  0
   39.5294   32.9243   43.1450 H   0  0  0  0  0  0  0  0  0  0  0  0
   38.4674   33.7019   44.2800 H   0  0  0  0  0  0  0  0  0  0  0  0
   40.0119   30.6498   43.1508 H   0  0  0  0  0  0  0  0  0  0  0  0
   40.4026   30.3973   44.8691 H   0  0  0  0  0  0  0  0  0  0  0  0
   39.0117   28.1307   39.6973 H   0  0  0  0  0  0  0  0  0  0  0  0
   40.2251   26.5168   41.7683 H   0  0  0  0  0  0  0  0  0  0  0  0
   40.9781   27.5722   40.5276 H   0  0  0  0  0  0  0  0  0  0  0  0
   41.2531   28.7108   42.6373 H   0  0  0  0  0  0  0  0  0  0  0  0
   39.9451   29.5713   41.7948 H   0  0  0  0  0  0  0  0  0  0  0  0
   39.7600   27.5323   44.0587 H   0  0  0  0  0  0  0  0  0  0  0  0
   38.1122   26.5886   42.8053 H   0  0  0  0  0  0  0  0  0  0  0  0
   37.1858   28.0455   43.3775 H   0  0  0  0  0  0  0  0  0  0  0  0
   37.8702   29.2335   41.2823 H   0  0  0  0  0  0  0  0  0  0  0  0
   36.8422   27.8093   40.9778 H   0  0  0  0  0  0  0  0  0  0  0  0
  2  1  2  0
  3  2  1  0
  4  3  2  0
  4  5  1  0
  5  6  2  0
  6  1  1  0
  7  8  1  0
  7  3  1  0
  9  8  1  0
 10 11  1  0
 10  9  1  0
 11 12  1  6
 11  7  1  0
 12 13  1  0
 12 14  1  0
 15 12  1  0
 16 11  1  0
 17 16  1  0
 18 19  1  0
 18 23  1  0
 19 20  1  0
 20 21  1  0
 21 17  1  0
 22 21  1  0
 23 22  1  0
  1 24  1  0
  2 25  1  0
  5 26  1  0
  8 27  1  0
  8 28  1  0
  9 29  1  0
  9 30  1  0
 10 31  1  0
 10 32  1  0
 16 33  1  0
 16 34  1  0
 18 35  1  0
 19 36  1  0
 19 37  1  0
 20 38  1  0
 20 39  1  0
 21 40  1  0
 22 41  1  0
 22 42  1  0
 23 43  1  0
 23 44  1  0
M  ISO  8  24  14  25  14  26  14  27  13  28  13  29  13  30  13  31  13
M  ISO  8  32  13  33   8  34   8  35   5  36  13  37  13  38  13  39  13
M  ISO  5  40  13  41  13  42  13  43  13  44  13
M  END
>  <minimizedAffinity>  (1) 
-4.74985695

>  <minimizedRMSD>  (1) 
1.24417949

$$$$
