
     RDKit          3D

 52 54  0  0  1  0  0  0  0  0999 V2000
   38.3070   31.7320   44.3590 C   0  0  2  0  0  0  0  0  0  0  0  0
   39.6150   31.5120   43.7570 C   0  0  0  0  0  0  0  0  0  0  0  0
   40.6970   31.2030   44.7890 C   0  0  0  0  0  0  0  0  0  0  0  0
   40.8210   32.2670   45.8240 C   0  0  0  0  0  0  0  0  0  0  0  0
   39.5220   32.8670   46.2440 C   0  0  0  0  0  0  0  0  0  0  0  0
   38.3420   31.9780   45.8450 C   0  0  2  0  0  0  0  0  0  0  0  0
   37.3190   30.6770   44.1230 C   0  0  0  0  0  0  0  0  0  0  0  0
   37.7890   29.6000   43.3630 C   0  0  0  0  0  0  0  0  0  0  0  0
   36.8960   28.5690   43.1190 C   0  0  0  0  0  0  0  0  0  0  0  0
   35.6300   28.6430   43.6170 N   0  0  0  0  0  0  0  0  0  0  0  0
   35.2120   29.6930   44.3420 C   0  0  0  0  0  0  0  0  0  0  0  0
   36.0650   30.6550   44.5610 N   0  0  0  0  0  0  0  0  0  0  0  0
   38.3470   30.9070   46.7210 N   0  0  0  0  0  0  0  0  0  0  0  0
   37.2940   30.9570   48.0540 S   0  0  1  0  0  0  0  0  0  0  0  0
   37.4050   32.4140   48.5470 O   0  0  0  0  0  0  0  0  0  0  0  0
   35.9260   30.6960   47.7200 O   0  0  0  0  0  0  0  0  0  0  0  0
   34.9070   28.5120   50.2160 N   0  0  0  0  0  0  0  0  0  0  0  0
   34.0450   29.6420   50.3460 C   0  0  0  0  0  0  0  0  0  0  0  0
   34.4160   30.8270   49.4890 C   0  0  0  0  0  0  0  0  0  0  0  0
   34.6960   30.4540   48.0570 C   0  0  0  0  0  0  0  0  0  0  0  0
   34.2960   28.9690   47.9870 C   0  0  0  0  0  0  0  0  0  0  0  0
   35.2320   28.1880   48.8490 C   0  0  0  0  0  0  0  0  0  0  0  0
   37.8420   30.0290   49.3240 O   0  0  0  0  0  0  0  0  0  0  0  0
   37.9110   30.7290   50.5130 C   0  0  0  0  0  0  0  0  0  0  0  0
   39.0560   31.4760   50.5520 F   0  0  0  0  0  0  0  0  0  0  0  0
   36.8740   31.6270   50.5120 F   0  0  0  0  0  0  0  0  0  0  0  0
   37.7550   29.9330   51.6380 F   0  0  0  0  0  0  0  0  0  0  0  0
   37.9899   32.6425   43.8294 H   0  0  0  0  0  0  0  0  0  0  0  0
   39.5427   30.6648   43.0592 H   0  0  0  0  0  0  0  0  0  0  0  0
   39.9033   32.4407   43.2429 H   0  0  0  0  0  0  0  0  0  0  0  0
   40.4484   30.2542   45.2870 H   0  0  0  0  0  0  0  0  0  0  0  0
   41.6577   31.1419   44.2568 H   0  0  0  0  0  0  0  0  0  0  0  0
   41.3020   31.8302   46.7116 H   0  0  0  0  0  0  0  0  0  0  0  0
   41.4123   33.0779   45.3737 H   0  0  0  0  0  0  0  0  0  0  0  0
   39.5223   32.9924   47.3368 H   0  0  0  0  0  0  0  0  0  0  0  0
   39.4100   33.8383   45.7400 H   0  0  0  0  0  0  0  0  0  0  0  0
   37.3542   32.4465   45.9665 H   0  0  0  0  0  0  0  0  0  0  0  0
   38.8189   29.5732   42.9775 H   0  0  0  0  0  0  0  0  0  0  0  0
   37.2074   27.6959   42.5267 H   0  0  0  0  0  0  0  0  0  0  0  0
   34.1865   29.7402   44.7372 H   0  0  0  0  0  0  0  0  0  0  0  0
   38.1107   30.0654   46.1762 H   0  0  0  0  0  0  0  0  0  0  0  0
   37.4061   32.4283   49.5369 H   0  0  0  0  0  0  0  0  0  0  0  0
   35.7827   28.7107   50.7206 H   0  0  0  0  0  0  0  0  0  0  0  0
   33.0268   29.3281   50.0725 H   0  0  0  0  0  0  0  0  0  0  0  0
   34.1321   29.9775   51.3900 H   0  0  0  0  0  0  0  0  0  0  0  0
   33.5844   31.5468   49.5074 H   0  0  0  0  0  0  0  0  0  0  0  0
   35.3402   31.2560   49.9036 H   0  0  0  0  0  0  0  0  0  0  0  0
   34.1297   31.0526   47.3283 H   0  0  0  0  0  0  0  0  0  0  0  0
   33.2651   28.8444   48.3499 H   0  0  0  0  0  0  0  0  0  0  0  0
   34.3510   28.6112   46.9483 H   0  0  0  0  0  0  0  0  0  0  0  0
   35.0989   27.1103   48.6732 H   0  0  0  0  0  0  0  0  0  0  0  0
   36.2790   28.4375   48.6222 H   0  0  0  0  0  0  0  0  0  0  0  0
  1  6  1  0
  2  1  1  0
  2  3  1  0
  3  4  1  0
  4  5  1  0
  6  5  1  0
  6 13  1  0
  7  1  1  0
  7 12  1  0
  8  7  2  0
  9  8  1  0
  9 10  2  0
 10 11  1  0
 11 12  2  0
 13 14  1  0
 14 16  1  6
 14 15  1  0
 14 23  1  0
 16 20  1  0
 17 18  1  0
 19 18  1  0
 20 19  1  0
 21 20  1  0
 21 22  1  0
 22 17  1  0
 23 24  1  0
 24 25  1  0
 24 27  1  0
 26 24  1  0
  1 28  1  6
  2 29  1  0
  2 30  1  0
  3 31  1  0
  3 32  1  0
  4 33  1  0
  4 34  1  0
  5 35  1  0
  5 36  1  0
  6 37  1  1
  8 38  1  0
  9 39  1  0
 11 40  1  0
 13 41  1  0
 15 42  1  0
 17 43  1  0
 18 44  1  0
 18 45  1  0
 19 46  1  0
 19 47  1  0
 20 48  1  0
 21 49  1  0
 21 50  1  0
 22 51  1  0
 22 52  1  0
M  ISO  8  28  13  29  13  30  13  31  13  32  13  33  13  34  13  35  13
M  ISO  8  36  13  37  13  38  14  39  14  40  14  41   5  42   3  43   5
M  ISO  8  44  13  45  13  46  13  47  13  48  13  49  13  50  13  51  13
M  ISO  1  52  13
M  END
>  <minimizedAffinity>  (1) 
-5.84992552

>  <minimizedRMSD>  (1) 
2.1505785

$$$$
