
     RDKit          3D

 39 42  0  0  0  0  0  0  0  0999 V2000
   36.1620   30.1790   46.8310 C   0  0  0  0  0  0  0  0  0  0  0  0
   37.0330   30.7480   47.7550 C   0  0  0  0  0  0  0  0  0  0  0  0
   38.0070   31.6530   47.3510 C   0  0  0  0  0  0  0  0  0  0  0  0
   38.0490   31.9430   45.9870 C   0  0  0  0  0  0  0  0  0  0  0  0
   38.9170   32.8000   45.3540 N   0  0  0  0  0  0  0  0  0  0  0  0
   38.5850   32.7600   44.0560 C   0  0  0  0  0  0  0  0  0  0  0  0
   37.5660   31.9300   43.8500 N   0  0  0  0  0  0  0  0  0  0  0  0
   37.2110   31.4070   45.0420 C   0  0  0  0  0  0  0  0  0  0  0  0
   36.2460   30.5020   45.4830 C   0  0  0  0  0  0  0  0  0  0  0  0
   37.5500   30.1960   51.4440 C   0  0  0  0  0  0  0  0  0  0  0  0
   37.7920   30.6120   50.1440 C   0  0  0  0  0  0  0  0  0  0  0  0
   36.8800   30.3580   49.1430 C   0  0  0  0  0  0  0  0  0  0  0  0
   35.7480   29.6870   49.4980 N   0  0  0  0  0  0  0  0  0  0  0  0
   35.5240   29.2850   50.7740 C   0  0  0  0  0  0  0  0  0  0  0  0
   36.4150   29.5400   51.7260 N   0  0  0  0  0  0  0  0  0  0  0  0
   39.2810   33.5280   43.1200 O   0  0  0  0  0  0  0  0  0  0  0  0
   37.5700   31.9210   39.7090 N   0  0  0  0  0  0  0  0  0  0  0  0
   38.9540   31.5890   39.9710 C   0  0  0  0  0  0  0  0  0  0  0  0
   39.2180   31.7620   41.4680 C   0  0  0  0  0  0  0  0  0  0  0  0
   39.2940   33.2410   41.7390 C   0  0  0  0  0  0  0  0  0  0  0  0
   38.1940   33.9210   40.9890 C   0  0  0  0  0  0  0  0  0  0  0  0
   37.0840   32.9750   40.5660 C   0  0  0  0  0  0  0  0  0  0  0  0
   35.3980   29.4650   47.1723 H   0  0  0  0  0  0  0  0  0  0  0  0
   38.7047   32.1142   48.0655 H   0  0  0  0  0  0  0  0  0  0  0  0
   39.6671   33.3574   45.7871 H   0  0  0  0  0  0  0  0  0  0  0  0
   35.5515   30.0441   44.7633 H   0  0  0  0  0  0  0  0  0  0  0  0
   38.2831   30.4023   52.2378 H   0  0  0  0  0  0  0  0  0  0  0  0
   38.7219   31.1506   49.9091 H   0  0  0  0  0  0  0  0  0  0  0  0
   34.5987   28.7444   51.0222 H   0  0  0  0  0  0  0  0  0  0  0  0
   37.4830   32.2254   38.7289 H   0  0  0  0  0  0  0  0  0  0  0  0
   39.1478   30.5467   39.6778 H   0  0  0  0  0  0  0  0  0  0  0  0
   39.6167   32.2490   39.3920 H   0  0  0  0  0  0  0  0  0  0  0  0
   38.3987   31.3140   42.0494 H   0  0  0  0  0  0  0  0  0  0  0  0
   40.1540   31.2631   41.7595 H   0  0  0  0  0  0  0  0  0  0  0  0
   40.2567   33.6331   41.3792 H   0  0  0  0  0  0  0  0  0  0  0  0
   37.7619   34.7010   41.6332 H   0  0  0  0  0  0  0  0  0  0  0  0
   38.6340   34.3393   40.0717 H   0  0  0  0  0  0  0  0  0  0  0  0
   36.3164   33.5475   40.0246 H   0  0  0  0  0  0  0  0  0  0  0  0
   36.6685   32.5114   41.4729 H   0  0  0  0  0  0  0  0  0  0  0  0
  1  2  2  0
  2 12  1  0
  3  2  1  0
  4  3  2  0
  5  4  1  0
  6  5  1  0
  7  6  2  0
  7  8  1  0
  8  9  2  0
  8  4  1  0
  9  1  1  0
 10 15  2  0
 11 10  1  0
 12 13  1  0
 12 11  2  0
 13 14  2  0
 14 15  1  0
 16  6  1  0
 17 18  1  0
 17 22  1  0
 18 19  1  0
 19 20  1  0
 20 16  1  0
 21 20  1  0
 22 21  1  0
  1 23  1  0
  3 24  1  0
  5 25  1  0
  9 26  1  0
 10 27  1  0
 11 28  1  0
 14 29  1  0
 17 30  1  0
 18 31  1  0
 18 32  1  0
 19 33  1  0
 19 34  1  0
 20 35  1  0
 21 36  1  0
 21 37  1  0
 22 38  1  0
 22 39  1  0
M  ISO  8  23  14  24  14  25   9  26  14  27  14  28  14  29  14  30   5
M  ISO  8  31  13  32  13  33  13  34  13  35  13  36  13  37  13  38  13
M  ISO  1  39  13
M  END
>  <minimizedAffinity>  (1) 
-5.41481972

>  <minimizedRMSD>  (1) 
1.5451858

$$$$
