
     RDKit          3D

 36 38  0  0  0  0  0  0  0  0999 V2000
   36.0220   30.5000   49.7330 C   0  0  0  0  0  0  0  0  0  0  0  0
   36.8660   30.9490   48.7210 C   0  0  0  0  0  0  0  0  0  0  0  0
   36.5280   30.7060   47.4070 C   0  0  0  0  0  0  0  0  0  0  0  0
   35.3790   30.0350   47.1830 N   0  0  0  0  0  0  0  0  0  0  0  0
   34.5680   29.6040   48.1670 C   0  0  0  0  0  0  0  0  0  0  0  0
   34.8920   29.8380   49.4520 N   0  0  0  0  0  0  0  0  0  0  0  0
   33.3700   28.9030   47.8600 N   0  0  0  0  0  0  0  0  0  0  0  0
   32.8220   27.9070   48.7610 C   0  0  0  0  0  0  0  0  0  0  0  0
   32.5570   26.6850   47.9080 C   0  0  0  0  0  0  0  0  0  0  0  0
   31.5730   26.9650   46.8160 C   0  0  0  0  0  0  0  0  0  0  0  0
   31.3120   28.4500   46.6830 C   0  0  0  0  0  0  0  0  0  0  0  0
   32.6610   29.1710   46.6240 C   0  0  0  0  0  0  0  0  0  0  0  0
   37.3220   31.1300   46.2630 C   0  0  0  0  0  0  0  0  0  0  0  0
   37.0230   30.7110   44.9780 C   0  0  0  0  0  0  0  0  0  0  0  0
   37.7590   31.1010   43.8760 C   0  0  0  0  0  0  0  0  0  0  0  0
   38.8160   31.9250   44.0510 N   0  0  0  0  0  0  0  0  0  0  0  0
   39.0890   32.3190   45.2970 C   0  0  0  0  0  0  0  0  0  0  0  0
   38.3800   31.9450   46.3660 N   0  0  0  0  0  0  0  0  0  0  0  0
   40.2510   33.2310   45.5300 C   0  0  0  0  0  0  0  0  0  0  0  0
   40.1550   33.7310   46.8250 F   0  0  0  0  0  0  0  0  0  0  0  0
   41.4470   32.5610   45.3280 F   0  0  0  0  0  0  0  0  0  0  0  0
   40.2240   34.3120   44.6920 F   0  0  0  0  0  0  0  0  0  0  0  0
   36.2880   30.6925   50.7828 H   0  0  0  0  0  0  0  0  0  0  0  0
   37.7911   31.4909   48.9669 H   0  0  0  0  0  0  0  0  0  0  0  0
   33.5442   27.6704   49.5562 H   0  0  0  0  0  0  0  0  0  0  0  0
   31.9058   28.2650   49.2533 H   0  0  0  0  0  0  0  0  0  0  0  0
   33.5042   26.3553   47.4563 H   0  0  0  0  0  0  0  0  0  0  0  0
   32.1317   25.9046   48.5561 H   0  0  0  0  0  0  0  0  0  0  0  0
   31.9742   26.5845   45.8651 H   0  0  0  0  0  0  0  0  0  0  0  0
   30.6251   26.4652   47.0643 H   0  0  0  0  0  0  0  0  0  0  0  0
   30.7443   28.6469   45.7617 H   0  0  0  0  0  0  0  0  0  0  0  0
   30.7265   28.8106   47.5416 H   0  0  0  0  0  0  0  0  0  0  0  0
   33.2460   28.7981   45.7703 H   0  0  0  0  0  0  0  0  0  0  0  0
   32.5093   30.2533   46.4989 H   0  0  0  0  0  0  0  0  0  0  0  0
   36.1642   30.0401   44.8283 H   0  0  0  0  0  0  0  0  0  0  0  0
   37.4887   30.7461   42.8705 H   0  0  0  0  0  0  0  0  0  0  0  0
  2  1  2  0
  3  2  1  0
  4  3  2  0
  4  5  1  0
  5  6  2  0
  6  1  1  0
  7  5  1  0
  7  8  1  0
  9  8  1  0
 10  9  1  0
 11 10  1  0
 12 11  1  0
 12  7  1  0
 13 18  1  0
 13  3  1  0
 14 13  2  0
 15 16  2  0
 15 14  1  0
 16 17  1  0
 17 19  1  0
 17 18  2  0
 19 20  1  0
 21 19  1  0
 22 19  1  0
  1 23  1  0
  2 24  1  0
  8 25  1  0
  8 26  1  0
  9 27  1  0
  9 28  1  0
 10 29  1  0
 10 30  1  0
 11 31  1  0
 11 32  1  0
 12 33  1  0
 12 34  1  0
 14 35  1  0
 15 36  1  0
M  ISO  8  23  14  24  14  25  13  26  13  27  13  28  13  29  13  30  13
M  ISO  6  31  13  32  13  33  13  34  13  35  14  36  14
M  END
>  <minimizedAffinity>  (1) 
-6.0666995

>  <minimizedRMSD>  (1) 
2.16611505

$$$$
