
     RDKit          3D

 39 41  0  0  1  0  0  0  0  0999 V2000
   36.6140   30.0900   48.8770 N   0  0  0  0  0  0  0  0  0  0  0  0
   35.5280   29.7580   47.9800 C   0  0  0  0  0  0  0  0  0  0  0  0
   34.2570   29.3690   48.6370 C   0  0  2  0  0  0  0  0  0  0  0  0
   34.3430   28.7800   49.9380 N   0  0  0  0  0  0  0  0  0  0  0  0
   35.3970   29.3470   50.7610 C   0  0  0  0  0  0  0  0  0  0  0  0
   36.6710   29.1540   49.9390 C   0  0  0  0  0  0  0  0  0  0  0  0
   37.4710   31.2040   48.6760 C   0  0  0  0  0  0  0  0  0  0  0  0
   37.5270   32.2820   49.5560 C   0  0  0  0  0  0  0  0  0  0  0  0
   38.3930   33.3400   49.2930 C   0  0  0  0  0  0  0  0  0  0  0  0
   39.1620   33.2670   48.1580 N   0  0  0  0  0  0  0  0  0  0  0  0
   39.0830   32.2060   47.3230 C   0  0  0  0  0  0  0  0  0  0  0  0
   38.2470   31.1780   47.5740 N   0  0  0  0  0  0  0  0  0  0  0  0
   33.5760   28.4450   47.8030 N   0  0  0  0  0  0  0  0  0  0  0  0
   33.8800   27.0920   47.8460 C   0  0  0  0  0  0  0  0  0  0  0  0
   33.5060   26.4290   46.5190 C   0  0  0  0  0  0  0  0  0  0  0  0
   33.8460   27.3040   45.3460 C   0  0  0  0  0  0  0  0  0  0  0  0
   33.2720   28.6830   45.4490 C   0  0  0  0  0  0  0  0  0  0  0  0
   32.7130   28.9490   46.8210 C   0  0  0  0  0  0  0  0  0  0  0  0
   35.8542   28.9187   47.3482 H   0  0  0  0  0  0  0  0  0  0  0  0
   35.3090   30.6767   47.4161 H   0  0  0  0  0  0  0  0  0  0  0  0
   33.7342   30.3259   48.7823 H   0  0  0  0  0  0  0  0  0  0  0  0
   33.4430   28.9190   50.4192 H   0  0  0  0  0  0  0  0  0  0  0  0
   35.2126   30.4153   50.9471 H   0  0  0  0  0  0  0  0  0  0  0  0
   35.4601   28.8669   51.7487 H   0  0  0  0  0  0  0  0  0  0  0  0
   36.7137   28.1298   49.5401 H   0  0  0  0  0  0  0  0  0  0  0  0
   37.5682   29.3089   50.5562 H   0  0  0  0  0  0  0  0  0  0  0  0
   36.8909   32.2975   50.4533 H   0  0  0  0  0  0  0  0  0  0  0  0
   38.4587   34.2039   49.9707 H   0  0  0  0  0  0  0  0  0  0  0  0
   39.7129   32.1811   46.4216 H   0  0  0  0  0  0  0  0  0  0  0  0
   34.9581   26.9664   48.0248 H   0  0  0  0  0  0  0  0  0  0  0  0
   33.3093   26.6195   48.6591 H   0  0  0  0  0  0  0  0  0  0  0  0
   34.0551   25.4803   46.4272 H   0  0  0  0  0  0  0  0  0  0  0  0
   32.4195   26.2573   46.5154 H   0  0  0  0  0  0  0  0  0  0  0  0
   33.4557   26.8308   44.4329 H   0  0  0  0  0  0  0  0  0  0  0  0
   34.9409   27.4079   45.3239 H   0  0  0  0  0  0  0  0  0  0  0  0
   34.0644   29.4162   45.2380 H   0  0  0  0  0  0  0  0  0  0  0  0
   32.4524   28.7700   44.7205 H   0  0  0  0  0  0  0  0  0  0  0  0
   32.5970   30.0338   46.9617 H   0  0  0  0  0  0  0  0  0  0  0  0
   31.7365   28.4510   46.9126 H   0  0  0  0  0  0  0  0  0  0  0  0
  1  6  1  0
  2  3  1  0
  2  1  1  0
  3  4  1  0
  4  5  1  0
  6  5  1  0
  7  1  1  0
  7  8  2  0
  9  8  1  0
 10  9  2  0
 11 12  2  0
 11 10  1  0
 12  7  1  0
 13 14  1  0
 13  3  1  0
 15 14  1  0
 16 17  1  0
 16 15  1  0
 17 18  1  0
 18 13  1  0
  2 19  1  0
  2 20  1  0
  3 21  1  1
  4 22  1  0
  5 23  1  0
  5 24  1  0
  6 25  1  0
  6 26  1  0
  8 27  1  0
  9 28  1  0
 11 29  1  0
 14 30  1  0
 14 31  1  0
 15 32  1  0
 15 33  1  0
 16 34  1  0
 16 35  1  0
 17 36  1  0
 17 37  1  0
 18 38  1  0
 18 39  1  0
M  ISO  8  19  13  20  13  21  13  22   5  23  13  24  13  25  13  26  13
M  ISO  8  27  14  28  14  29  14  30  13  31  13  32  13  33  13  34  13
M  ISO  5  35  13  36  13  37  13  38  13  39  13
M  END
>  <minimizedAffinity>  (1) 
-5.09317446

>  <minimizedRMSD>  (1) 
6.37814331

$$$$
