
     RDKit          3D

 39 41  0  0  0  0  0  0  0  0999 V2000
   37.1700   31.4140   48.5460 C   0  0  0  0  0  0  0  0  0  0  0  0
   37.2210   32.4170   49.5060 C   0  0  0  0  0  0  0  0  0  0  0  0
   38.1810   33.4130   49.3830 C   0  0  0  0  0  0  0  0  0  0  0  0
   39.0650   33.3870   48.3110 C   0  0  0  0  0  0  0  0  0  0  0  0
   38.9750   32.3750   47.3900 C   0  0  0  0  0  0  0  0  0  0  0  0
   38.0420   31.4320   47.5350 N   0  0  0  0  0  0  0  0  0  0  0  0
   39.8370   32.2730   46.2680 N   0  0  0  0  0  0  0  0  0  0  0  0
   40.5250   31.1140   45.7570 C   0  0  0  0  0  0  0  0  0  0  0  0
   39.8850   30.7210   44.4530 C   0  0  0  0  0  0  0  0  0  0  0  0
   39.8540   31.8590   43.4630 C   0  0  0  0  0  0  0  0  0  0  0  0
   39.5620   33.1870   44.0640 C   0  0  0  0  0  0  0  0  0  0  0  0
   40.1580   33.4130   45.4340 C   0  0  0  0  0  0  0  0  0  0  0  0
   35.1930   28.6300   50.1280 C   0  0  0  0  0  0  0  0  0  0  0  0
   36.2420   29.5610   49.8860 C   0  0  0  0  0  0  0  0  0  0  0  0
   36.1100   30.4480   48.8170 C   0  0  0  0  0  0  0  0  0  0  0  0
   34.9780   30.3790   48.0530 N   0  0  0  0  0  0  0  0  0  0  0  0
   34.0010   29.4650   48.3300 C   0  0  0  0  0  0  0  0  0  0  0  0
   34.0970   28.6060   49.3410 N   0  0  0  0  0  0  0  0  0  0  0  0
   32.9240   29.5820   47.4020 N   0  0  0  0  0  0  0  0  0  0  0  0
   37.4290   29.5420   50.7880 C   0  0  0  0  0  0  0  0  0  0  0  0
   38.5910   29.8370   50.0940 F   0  0  0  0  0  0  0  0  0  0  0  0
   37.2500   30.4920   51.7570 F   0  0  0  0  0  0  0  0  0  0  0  0
   37.6060   28.3300   51.4170 F   0  0  0  0  0  0  0  0  0  0  0  0
   36.5137   32.4222   50.3484 H   0  0  0  0  0  0  0  0  0  0  0  0
   38.2413   34.2181   50.1301 H   0  0  0  0  0  0  0  0  0  0  0  0
   39.8294   34.1705   48.2023 H   0  0  0  0  0  0  0  0  0  0  0  0
   41.5860   31.3535   45.5932 H   0  0  0  0  0  0  0  0  0  0  0  0
   40.4575   30.2852   46.4771 H   0  0  0  0  0  0  0  0  0  0  0  0
   40.4553   29.8879   44.0162 H   0  0  0  0  0  0  0  0  0  0  0  0
   38.8452   30.4303   44.6633 H   0  0  0  0  0  0  0  0  0  0  0  0
   39.0784   31.6423   42.7137 H   0  0  0  0  0  0  0  0  0  0  0  0
   40.8625   31.9254   43.0288 H   0  0  0  0  0  0  0  0  0  0  0  0
   39.9555   33.9611   43.3888 H   0  0  0  0  0  0  0  0  0  0  0  0
   38.4705   33.2331   44.1922 H   0  0  0  0  0  0  0  0  0  0  0  0
   41.2500   33.5166   45.3512 H   0  0  0  0  0  0  0  0  0  0  0  0
   39.7470   34.3321   45.8771 H   0  0  0  0  0  0  0  0  0  0  0  0
   35.2766   27.9222   50.9658 H   0  0  0  0  0  0  0  0  0  0  0  0
   32.1076   28.9588   47.4793 H   0  0  0  0  0  0  0  0  0  0  0  0
   32.9628   30.2897   46.6546 H   0  0  0  0  0  0  0  0  0  0  0  0
  1 15  1  0
  1  2  2  0
  3  2  1  0
  4  3  2  0
  5  6  2  0
  5  4  1  0
  6  1  1  0
  7  5  1  0
  8  7  1  0
  9  8  1  0
 10 11  1  0
 10  9  1  0
 11 12  1  0
 12  7  1  0
 14 13  2  0
 14 20  1  0
 15 14  1  0
 16 17  1  0
 16 15  2  0
 17 18  2  0
 18 13  1  0
 19 17  1  0
 20 23  1  0
 20 22  1  0
 21 20  1  0
  2 24  1  0
  3 25  1  0
  4 26  1  0
  8 27  1  0
  8 28  1  0
  9 29  1  0
  9 30  1  0
 10 31  1  0
 10 32  1  0
 11 33  1  0
 11 34  1  0
 12 35  1  0
 12 36  1  0
 13 37  1  0
 19 38  1  0
 19 39  1  0
M  ISO  8  24  14  25  14  26  14  27  13  28  13  29  13  30  13  31  13
M  ISO  6  32  13  33  13  34  13  35  13  36  13  37  14
M  END
>  <minimizedAffinity>  (1) 
-7.97214174

>  <minimizedRMSD>  (1) 
0.284344167

$$$$
