
     RDKit          3D

 42 44  0  0  1  0  0  0  0  0999 V2000
   36.8990   30.5980   48.9710 C   0  0  0  0  0  0  0  0  0  0  0  0
   36.9810   31.7220   49.8010 C   0  0  0  0  0  0  0  0  0  0  0  0
   37.7190   32.8270   49.3450 C   0  0  0  0  0  0  0  0  0  0  0  0
   38.3160   32.7370   48.1090 N   0  0  0  0  0  0  0  0  0  0  0  0
   38.1980   31.6250   47.3550 C   0  0  0  0  0  0  0  0  0  0  0  0
   37.5020   30.5670   47.7730 N   0  0  0  0  0  0  0  0  0  0  0  0
   38.8450   31.6470   46.0860 N   0  0  0  0  0  0  0  0  0  0  0  0
   40.2280   31.1780   46.0020 C   0  0  0  0  0  0  0  0  0  0  0  0
   41.0620   32.0740   45.1200 C   0  0  0  0  0  0  0  0  0  0  0  0
   40.4180   32.3940   43.8990 N   0  0  0  0  0  0  0  0  0  0  0  0
   39.1260   31.8040   43.7230 C   0  0  0  0  0  0  0  0  0  0  0  0
   38.1640   32.1250   44.8660 C   0  0  1  0  0  0  0  0  0  0  0  0
   36.9530   31.3470   44.6510 N   0  0  0  0  0  0  0  0  0  0  0  0
   37.3540   30.0490   44.1380 C   0  0  0  0  0  0  0  0  0  0  0  0
   36.2030   29.1900   43.6930 C   0  0  0  0  0  0  0  0  0  0  0  0
   35.2600   29.9300   42.7720 C   0  0  0  0  0  0  0  0  0  0  0  0
   35.9800   31.2120   42.4010 C   0  0  0  0  0  0  0  0  0  0  0  0
   36.0720   32.0140   43.7040 C   0  0  0  0  0  0  0  0  0  0  0  0
   36.1120   29.4290   49.4530 C   0  0  0  0  0  0  0  0  0  0  0  0
   35.1950   29.8570   50.4260 F   0  0  0  0  0  0  0  0  0  0  0  0
   35.5290   28.8390   48.3900 F   0  0  0  0  0  0  0  0  0  0  0  0
   36.9920   28.5900   50.1260 F   0  0  0  0  0  0  0  0  0  0  0  0
   36.4824   31.7396   50.7813 H   0  0  0  0  0  0  0  0  0  0  0  0
   37.8164   33.7357   49.9572 H   0  0  0  0  0  0  0  0  0  0  0  0
   40.6632   31.1651   47.0122 H   0  0  0  0  0  0  0  0  0  0  0  0
   40.2247   30.1687   45.5647 H   0  0  0  0  0  0  0  0  0  0  0  0
   41.2698   33.0076   45.6633 H   0  0  0  0  0  0  0  0  0  0  0  0
   41.9867   31.5309   44.8750 H   0  0  0  0  0  0  0  0  0  0  0  0
   40.3107   33.4174   43.8531 H   0  0  0  0  0  0  0  0  0  0  0  0
   38.6934   32.1803   42.7842 H   0  0  0  0  0  0  0  0  0  0  0  0
   39.2619   30.7126   43.7031 H   0  0  0  0  0  0  0  0  0  0  0  0
   37.9057   33.1920   44.9355 H   0  0  0  0  0  0  0  0  0  0  0  0
   38.0214   30.2071   43.2780 H   0  0  0  0  0  0  0  0  0  0  0  0
   37.8497   29.5175   44.9637 H   0  0  0  0  0  0  0  0  0  0  0  0
   36.6006   28.3125   43.1621 H   0  0  0  0  0  0  0  0  0  0  0  0
   35.6369   28.8940   44.5885 H   0  0  0  0  0  0  0  0  0  0  0  0
   35.0522   29.3316   41.8727 H   0  0  0  0  0  0  0  0  0  0  0  0
   34.2917   30.1303   43.2540 H   0  0  0  0  0  0  0  0  0  0  0  0
   36.9851   30.9911   42.0124 H   0  0  0  0  0  0  0  0  0  0  0  0
   35.4500   31.7676   41.6133 H   0  0  0  0  0  0  0  0  0  0  0  0
   36.4682   33.0165   43.4850 H   0  0  0  0  0  0  0  0  0  0  0  0
   35.0677   32.0918   44.1459 H   0  0  0  0  0  0  0  0  0  0  0  0
  1 19  1  0
  1  2  2  0
  3  2  1  0
  4  3  2  0
  5  6  2  0
  5  4  1  0
  6  1  1  0
  7  5  1  0
  8  7  1  0
  9  8  1  0
 10  9  1  0
 11 10  1  0
 11 12  1  0
 12  7  1  0
 13 12  1  0
 14 13  1  0
 15 14  1  0
 16 15  1  0
 17 16  1  0
 17 18  1  0
 18 13  1  0
 19 22  1  0
 19 20  1  0
 21 19  1  0
  2 23  1  0
  3 24  1  0
  8 25  1  0
  8 26  1  0
  9 27  1  0
  9 28  1  0
 10 29  1  0
 11 30  1  0
 11 31  1  0
 12 32  1  1
 14 33  1  0
 14 34  1  0
 15 35  1  0
 15 36  1  0
 16 37  1  0
 16 38  1  0
 17 39  1  0
 17 40  1  0
 18 41  1  0
 18 42  1  0
M  ISO  8  23  14  24  14  25  13  26  13  27  13  28  13  29   5  30  13
M  ISO  8  31  13  32  13  33  13  34  13  35  13  36  13  37  13  38  13
M  ISO  4  39  13  40  13  41  13  42  13
M  END
>  <minimizedAffinity>  (1) 
-5.88722467

>  <minimizedRMSD>  (1) 
1.70670784

$$$$
