
     RDKit          3D

 36 38  0  0  0  0  0  0  0  0999 V2000
   37.4690   31.4670   47.4770 C   0  0  0  0  0  0  0  0  0  0  0  0
   37.8150   32.2030   48.5820 C   0  0  0  0  0  0  0  0  0  0  0  0
   38.9040   33.0510   48.5310 C   0  0  0  0  0  0  0  0  0  0  0  0
   39.5880   33.0940   47.3260 C   0  0  0  0  0  0  0  0  0  0  0  0
   39.2300   32.3530   46.2320 C   0  0  0  0  0  0  0  0  0  0  0  0
   38.1580   31.5320   46.3170 N   0  0  0  0  0  0  0  0  0  0  0  0
   39.8900   32.3540   44.9750 N   0  0  0  0  0  0  0  0  0  0  0  0
   40.7470   31.2900   44.4950 C   0  0  0  0  0  0  0  0  0  0  0  0
   40.5740   30.9960   43.0250 C   0  0  0  0  0  0  0  0  0  0  0  0
   39.1800   31.3930   42.5870 C   0  0  0  0  0  0  0  0  0  0  0  0
   39.1160   32.9020   42.7170 C   0  0  0  0  0  0  0  0  0  0  0  0
   39.8420   33.3680   43.9670 C   0  0  0  0  0  0  0  0  0  0  0  0
   36.3040   30.5930   47.6010 C   0  0  0  0  0  0  0  0  0  0  0  0
   35.6640   30.2310   46.6090 O   0  0  0  0  0  0  0  0  0  0  0  0
   36.7400   29.4780   49.7590 C   0  0  0  0  0  0  0  0  0  0  0  0
   35.8390   30.1040   48.8950 C   0  0  0  0  0  0  0  0  0  0  0  0
   34.5170   30.2340   49.3190 C   0  0  0  0  0  0  0  0  0  0  0  0
   34.1460   29.7550   50.5420 N   0  0  0  0  0  0  0  0  0  0  0  0
   35.0580   29.1520   51.3470 C   0  0  0  0  0  0  0  0  0  0  0  0
   36.3320   29.0130   50.9660 N   0  0  0  0  0  0  0  0  0  0  0  0
   37.2260   32.1178   49.5071 H   0  0  0  0  0  0  0  0  0  0  0  0
   39.2107   33.6570   49.3963 H   0  0  0  0  0  0  0  0  0  0  0  0
   40.4622   33.7567   47.2448 H   0  0  0  0  0  0  0  0  0  0  0  0
   41.7935   31.5791   44.6716 H   0  0  0  0  0  0  0  0  0  0  0  0
   40.4686   30.3777   45.0429 H   0  0  0  0  0  0  0  0  0  0  0  0
   41.3156   31.5677   42.4478 H   0  0  0  0  0  0  0  0  0  0  0  0
   40.7192   29.9200   42.8486 H   0  0  0  0  0  0  0  0  0  0  0  0
   38.4267   30.9211   43.2350 H   0  0  0  0  0  0  0  0  0  0  0  0
   38.9731   31.0679   41.5567 H   0  0  0  0  0  0  0  0  0  0  0  0
   39.5870   33.3601   41.8348 H   0  0  0  0  0  0  0  0  0  0  0  0
   38.0610   33.2048   42.7891 H   0  0  0  0  0  0  0  0  0  0  0  0
   40.8710   33.6465   43.6957 H   0  0  0  0  0  0  0  0  0  0  0  0
   39.2895   34.2259   44.3778 H   0  0  0  0  0  0  0  0  0  0  0  0
   37.7914   29.3608   49.4576 H   0  0  0  0  0  0  0  0  0  0  0  0
   33.7750   30.7214   48.6694 H   0  0  0  0  0  0  0  0  0  0  0  0
   34.7432   28.7712   52.3298 H   0  0  0  0  0  0  0  0  0  0  0  0
  1 13  1  0
  1  2  2  0
  3  2  1  0
  4  3  2  0
  5  6  2  0
  5  4  1  0
  6  1  1  0
  7  5  1  0
  8  7  1  0
  9  8  1  0
 10 11  1  0
 10  9  1  0
 11 12  1  0
 12  7  1  0
 13 16  1  0
 14 13  2  0
 15 20  2  0
 16 17  2  0
 16 15  1  0
 17 18  1  0
 18 19  2  0
 20 19  1  0
  2 21  1  0
  3 22  1  0
  4 23  1  0
  8 24  1  0
  8 25  1  0
  9 26  1  0
  9 27  1  0
 10 28  1  0
 10 29  1  0
 11 30  1  0
 11 31  1  0
 12 32  1  0
 12 33  1  0
 15 34  1  0
 17 35  1  0
 19 36  1  0
M  ISO  8  21  14  22  14  23  14  24  13  25  13  26  13  27  13  28  13
M  ISO  8  29  13  30  13  31  13  32  13  33  13  34  14  35  14  36  14
M  END
>  <minimizedAffinity>  (1) 
-5.64420938

>  <minimizedRMSD>  (1) 
1.92389274

$$$$
