
     RDKit          3D

 31 32  0  0  0  0  0  0  0  0999 V2000
   38.0740   30.6050   47.6420 C   0  0  0  0  0  0  0  0  0  0  0  0
   37.3680   30.2470   51.3460 C   0  0  0  0  0  0  0  0  0  0  0  0
   38.0330   30.6670   50.1730 C   0  0  0  0  0  0  0  0  0  0  0  0
   37.4950   30.2460   48.9690 C   0  0  0  0  0  0  0  0  0  0  0  0
   36.3680   29.4580   48.9790 N   0  0  0  0  0  0  0  0  0  0  0  0
   35.7710   29.0830   50.1200 C   0  0  0  0  0  0  0  0  0  0  0  0
   36.2640   29.4730   51.3160 N   0  0  0  0  0  0  0  0  0  0  0  0
   38.5910   32.0430   47.6900 C   0  0  0  0  0  0  0  0  0  0  0  0
   38.7740   32.5830   46.3690 N   0  0  0  0  0  0  0  0  0  0  0  0
   38.1030   31.8140   45.3460 C   0  0  0  0  0  0  0  0  0  0  0  0
   38.2210   32.6050   44.0570 C   0  0  0  0  0  0  0  0  0  0  0  0
   39.6770   32.5200   43.5940 C   0  0  0  0  0  0  0  0  0  0  0  0
   40.6040   32.2820   44.7660 C   0  0  0  0  0  0  0  0  0  0  0  0
   40.0930   32.9840   46.0310 C   0  0  0  0  0  0  0  0  0  0  0  0
   37.2982   30.5189   46.8669 H   0  0  0  0  0  0  0  0  0  0  0  0
   38.9033   29.9225   47.4044 H   0  0  0  0  0  0  0  0  0  0  0  0
   37.7658   30.5633   52.3216 H   0  0  0  0  0  0  0  0  0  0  0  0
   38.9336   31.2973   50.2141 H   0  0  0  0  0  0  0  0  0  0  0  0
   34.8710   28.4516   50.0817 H   0  0  0  0  0  0  0  0  0  0  0  0
   37.8649   32.6657   48.2331 H   0  0  0  0  0  0  0  0  0  0  0  0
   39.5656   32.0420   48.2000 H   0  0  0  0  0  0  0  0  0  0  0  0
   38.5848   30.8316   45.2332 H   0  0  0  0  0  0  0  0  0  0  0  0
   37.0489   31.6414   45.6088 H   0  0  0  0  0  0  0  0  0  0  0  0
   37.5582   32.1756   43.2913 H   0  0  0  0  0  0  0  0  0  0  0  0
   37.9273   33.6527   44.2183 H   0  0  0  0  0  0  0  0  0  0  0  0
   39.7797   31.6900   42.8794 H   0  0  0  0  0  0  0  0  0  0  0  0
   39.9503   33.4733   43.1180 H   0  0  0  0  0  0  0  0  0  0  0  0
   40.6694   31.2008   44.9576 H   0  0  0  0  0  0  0  0  0  0  0  0
   41.5932   32.6929   44.5159 H   0  0  0  0  0  0  0  0  0  0  0  0
   40.7635   32.7390   46.8679 H   0  0  0  0  0  0  0  0  0  0  0  0
   40.0780   34.0663   45.8349 H   0  0  0  0  0  0  0  0  0  0  0  0
  1  8  1  0
  1  4  1  0
  3  2  2  0
  4  5  2  0
  4  3  1  0
  5  6  1  0
  6  7  2  0
  7  2  1  0
  9  8  1  0
 10  9  1  0
 11 10  1  0
 12 11  1  0
 12 13  1  0
 13 14  1  0
 14  9  1  0
  1 15  1  0
  1 16  1  0
  2 17  1  0
  3 18  1  0
  6 19  1  0
  8 20  1  0
  8 21  1  0
 10 22  1  0
 10 23  1  0
 11 24  1  0
 11 25  1  0
 12 26  1  0
 12 27  1  0
 13 28  1  0
 13 29  1  0
 14 30  1  0
 14 31  1  0
M  ISO  8  15   8  16   8  17  14  18  14  19  14  20   8  21   8  22  13
M  ISO  8  23  13  24  13  25  13  26  13  27  13  28  13  29  13  30  13
M  ISO  1  31  13
M  END
>  <minimizedAffinity>  (1) 
-4.98884583

>  <minimizedRMSD>  (1) 
1.87753153

$$$$
