
     RDKit          3D

 39 41  0  0  1  0  0  0  0  0999 V2000
   37.0180   31.3220   48.4590 C   0  0  0  0  0  0  0  0  0  0  0  0
   36.7290   31.8540   49.7180 C   0  0  0  0  0  0  0  0  0  0  0  0
   37.4150   32.9650   50.2320 C   0  0  0  0  0  0  0  0  0  0  0  0
   38.4280   33.5580   49.4460 C   0  0  0  0  0  0  0  0  0  0  0  0
   38.7030   33.0130   48.1900 C   0  0  0  0  0  0  0  0  0  0  0  0
   38.0010   31.9160   47.7240 C   0  0  0  0  0  0  0  0  0  0  0  0
   38.4430   31.5050   46.4450 N   0  0  0  0  0  0  0  0  0  0  0  0
   39.2710   30.3980   46.0020 C   0  0  0  0  0  0  0  0  0  0  0  0
   40.5800   31.0150   45.5810 C   0  0  0  0  0  0  0  0  0  0  0  0
   40.4840   32.1940   44.7020 C   0  0  0  0  0  0  0  0  0  0  0  0
   39.1920   32.8780   44.5480 C   0  0  0  0  0  0  0  0  0  0  0  0
   38.0280   32.3140   45.2890 C   0  0  0  0  0  0  0  0  0  0  0  0
   36.2550   30.1790   48.0050 C   0  0  0  0  0  0  0  0  0  0  0  0
   36.5030   29.0940   48.6560 O   0  0  0  0  0  0  0  0  0  0  0  0
   33.0090   30.4630   46.3930 C   0  0  0  0  0  0  0  0  0  0  0  0
   33.2830   30.2590   45.0490 C   0  0  0  0  0  0  0  0  0  0  0  0
   34.5900   30.0170   44.6830 C   0  0  0  0  0  0  0  0  0  0  0  0
   35.5580   29.9850   45.6350 N   0  0  0  0  0  0  0  0  0  0  0  0
   35.2790   30.1840   46.9190 C   0  0  0  0  0  0  0  0  0  0  0  0
   34.0100   30.4190   47.2750 N   0  0  0  0  0  0  0  0  0  0  0  0
   35.9392   31.3875   50.3252 H   0  0  0  0  0  0  0  0  0  0  0  0
   37.1690   33.3659   51.2264 H   0  0  0  0  0  0  0  0  0  0  0  0
   38.9879   34.4299   49.8152 H   0  0  0  0  0  0  0  0  0  0  0  0
   39.4878   33.4618   47.5633 H   0  0  0  0  0  0  0  0  0  0  0  0
   39.4296   29.6841   46.8237 H   0  0  0  0  0  0  0  0  0  0  0  0
   38.7999   29.8409   45.1788 H   0  0  0  0  0  0  0  0  0  0  0  0
   41.1184   31.3167   46.4915 H   0  0  0  0  0  0  0  0  0  0  0  0
   41.0950   30.2441   44.9889 H   0  0  0  0  0  0  0  0  0  0  0  0
   41.1966   32.9387   45.0863 H   0  0  0  0  0  0  0  0  0  0  0  0
   40.6818   31.7861   43.6997 H   0  0  0  0  0  0  0  0  0  0  0  0
   39.3258   33.9168   44.8840 H   0  0  0  0  0  0  0  0  0  0  0  0
   38.9346   32.7600   43.4851 H   0  0  0  0  0  0  0  0  0  0  0  0
   37.3992   33.1435   45.6448 H   0  0  0  0  0  0  0  0  0  0  0  0
   37.4750   31.6587   44.5999 H   0  0  0  0  0  0  0  0  0  0  0  0
   37.0522   29.9314   47.2886 H   0  0  0  0  0  0  0  0  0  0  0  0
   36.4615   29.2757   49.6283 H   0  0  0  0  0  0  0  0  0  0  0  0
   31.9797   30.6586   46.7281 H   0  0  0  0  0  0  0  0  0  0  0  0
   32.4809   30.2894   44.2968 H   0  0  0  0  0  0  0  0  0  0  0  0
   34.8472   29.8509   43.6265 H   0  0  0  0  0  0  0  0  0  0  0  0
  1  2  2  0
  2  3  1  0
  4  3  2  0
  5  4  1  0
  6  5  2  0
  6  1  1  0
  7  6  1  0
  8  7  1  0
  9  8  1  0
 10  9  1  0
 11 10  1  0
 11 12  1  0
 12  7  1  0
 13  1  1  0
 13 14  1  0
 15 20  2  0
 16 15  1  0
 17 16  2  0
 17 18  1  0
 18 19  2  0
 19 20  1  0
 19 13  1  0
  2 21  1  0
  3 22  1  0
  4 23  1  0
  5 24  1  0
  8 25  1  0
  8 26  1  0
  9 27  1  0
  9 28  1  0
 10 29  1  0
 10 30  1  0
 11 31  1  0
 11 32  1  0
 12 33  1  0
 12 34  1  0
 13 35  1  0
 14 36  1  0
 15 37  1  0
 16 38  1  0
 17 39  1  0
M  ISO  8  21  14  22  14  23  14  24  14  25  13  26  13  27  13  28  13
M  ISO  8  29  13  30  13  31  13  32  13  33  13  34  13  35   8  36   3
M  ISO  3  37  14  38  14  39  14
M  END
>  <minimizedAffinity>  (1) 
-5.5713439

>  <minimizedRMSD>  (1) 
2.26108479

$$$$
