
     RDKit          3D

 52 55  0  0  1  0  0  0  0  0999 V2000
   35.2430   29.9790   49.8090 C   0  0  2  0  0  0  0  0  0  0  0  0
   36.1560   31.0470   49.3250 C   0  0  0  0  0  0  0  0  0  0  0  0
   37.6320   30.7200   49.5530 C   0  0  2  0  0  0  0  0  0  0  0  0
   37.8770   30.6040   51.0380 C   0  0  0  0  0  0  0  0  0  0  0  0
   36.8610   29.7000   51.7130 C   0  0  0  0  0  0  0  0  0  0  0  0
   35.9700   29.0090   50.7160 C   0  0  0  0  0  0  0  0  0  0  0  0
   38.5290   31.6390   48.8410 C   0  0  2  0  0  0  0  0  0  0  0  0
   38.7620   32.9840   49.4700 C   0  0  0  0  0  0  0  0  0  0  0  0
   39.4540   33.6790   48.2940 C   0  0  0  0  0  0  0  0  0  0  0  0
   38.8650   33.1900   47.1590 O   0  0  0  0  0  0  0  0  0  0  0  0
   38.1420   32.0400   47.4690 C   0  0  1  0  0  0  0  0  0  0  0  0
   38.5080   31.0630   46.4550 N   0  0  0  0  0  0  0  0  0  0  0  0
   37.5300   31.1560   45.3870 C   0  0  0  0  0  0  0  0  0  0  0  0
   37.7210   30.0730   44.3520 C   0  0  0  0  0  0  0  0  0  0  0  0
   39.1720   29.6530   44.2470 C   0  0  0  0  0  0  0  0  0  0  0  0
   40.0040   30.8850   44.5320 C   0  0  0  0  0  0  0  0  0  0  0  0
   39.8690   31.1930   46.0050 C   0  0  0  0  0  0  0  0  0  0  0  0
   34.6490   29.1840   48.7110 C   0  0  0  0  0  0  0  0  0  0  0  0
   34.7200   29.7590   47.4420 C   0  0  0  0  0  0  0  0  0  0  0  0
   34.2020   29.0580   46.3750 C   0  0  0  0  0  0  0  0  0  0  0  0
   33.6340   27.8180   46.6000 N   0  0  0  0  0  0  0  0  0  0  0  0
   33.5820   27.2890   47.8490 C   0  0  0  0  0  0  0  0  0  0  0  0
   34.0860   27.9770   48.8690 N   0  0  0  0  0  0  0  0  0  0  0  0
   34.4440   30.5082   50.3489 H   0  0  0  0  0  0  0  0  0  0  0  0
   35.9174   31.9798   49.8570 H   0  0  0  0  0  0  0  0  0  0  0  0
   36.0041   31.1428   48.2398 H   0  0  0  0  0  0  0  0  0  0  0  0
   37.8776   29.7453   49.1062 H   0  0  0  0  0  0  0  0  0  0  0  0
   38.8834   30.1909   51.2007 H   0  0  0  0  0  0  0  0  0  0  0  0
   37.7833   31.6081   51.4773 H   0  0  0  0  0  0  0  0  0  0  0  0
   37.3970   28.9381   52.2980 H   0  0  0  0  0  0  0  0  0  0  0  0
   36.2269   30.3249   52.3591 H   0  0  0  0  0  0  0  0  0  0  0  0
   35.2246   28.4138   51.2639 H   0  0  0  0  0  0  0  0  0  0  0  0
   36.6094   28.3776   50.0816 H   0  0  0  0  0  0  0  0  0  0  0  0
   39.4076   30.9777   48.8693 H   0  0  0  0  0  0  0  0  0  0  0  0
   37.8195   33.4796   49.7459 H   0  0  0  0  0  0  0  0  0  0  0  0
   39.3268   32.9744   50.4139 H   0  0  0  0  0  0  0  0  0  0  0  0
   39.3122   34.7679   48.3580 H   0  0  0  0  0  0  0  0  0  0  0  0
   40.5372   33.4873   48.2971 H   0  0  0  0  0  0  0  0  0  0  0  0
   37.0490   32.1639   47.4616 H   0  0  0  0  0  0  0  0  0  0  0  0
   36.5225   31.0619   45.8183 H   0  0  0  0  0  0  0  0  0  0  0  0
   37.6596   32.1288   44.8901 H   0  0  0  0  0  0  0  0  0  0  0  0
   37.1157   29.1989   44.6339 H   0  0  0  0  0  0  0  0  0  0  0  0
   37.4060   30.4702   43.3758 H   0  0  0  0  0  0  0  0  0  0  0  0
   39.3934   28.8673   44.9843 H   0  0  0  0  0  0  0  0  0  0  0  0
   39.3950   29.2475   43.2491 H   0  0  0  0  0  0  0  0  0  0  0  0
   41.0581   30.6921   44.2837 H   0  0  0  0  0  0  0  0  0  0  0  0
   39.6585   31.7349   43.9251 H   0  0  0  0  0  0  0  0  0  0  0  0
   40.5006   30.4950   46.5742 H   0  0  0  0  0  0  0  0  0  0  0  0
   40.1852   32.2340   46.1673 H   0  0  0  0  0  0  0  0  0  0  0  0
   35.1785   30.7483   47.2967 H   0  0  0  0  0  0  0  0  0  0  0  0
   34.2398   29.4787   45.3593 H   0  0  0  0  0  0  0  0  0  0  0  0
   33.1275   26.3012   48.0156 H   0  0  0  0  0  0  0  0  0  0  0  0
  1  6  1  0
  2  3  1  0
  2  1  1  0
  3  4  1  0
  4  5  1  0
  6  5  1  0
  7  8  1  0
  7  3  1  0
  9  8  1  0
 10 11  1  0
 10  9  1  0
 11  7  1  0
 12 11  1  0
 13 12  1  0
 14 13  1  0
 15 14  1  0
 15 16  1  0
 16 17  1  0
 17 12  1  0
 18 23  1  0
 18  1  1  0
 19 18  2  0
 20 21  2  0
 20 19  1  0
 21 22  1  0
 22 23  2  0
  1 24  1  1
  2 25  1  0
  2 26  1  0
  3 27  1  6
  4 28  1  0
  4 29  1  0
  5 30  1  0
  5 31  1  0
  6 32  1  0
  6 33  1  0
  7 34  1  6
  8 35  1  0
  8 36  1  0
  9 37  1  0
  9 38  1  0
 11 39  1  1
 13 40  1  0
 13 41  1  0
 14 42  1  0
 14 43  1  0
 15 44  1  0
 15 45  1  0
 16 46  1  0
 16 47  1  0
 17 48  1  0
 17 49  1  0
 19 50  1  0
 20 51  1  0
 22 52  1  0
M  ISO  8  24  13  25  13  26  13  27  13  28  13  29  13  30  13  31  13
M  ISO  8  32  13  33  13  34  13  35  13  36  13  37  13  38  13  39  13
M  ISO  8  40  13  41  13  42  13  43  13  44  13  45  13  46  13  47  13
M  ISO  5  48  13  49  13  50  14  51  14  52  14
M  END
>  <minimizedAffinity>  (1) 
-6.97145987

>  <minimizedRMSD>  (1) 
1.45826948

$$$$
