
     RDKit          3D

 47 50  0  0  1  0  0  0  0  0999 V2000
   38.9410   32.4680   47.6600 C   0  0  2  0  0  0  0  0  0  0  0  0
   37.9700   32.6300   48.8740 C   0  0  2  0  0  0  0  0  0  0  0  0
   38.8430   33.2950   49.8310 C   0  0  0  0  0  0  0  0  0  0  0  0
   39.6540   34.1700   49.1310 O   0  0  0  0  0  0  0  0  0  0  0  0
   39.5800   33.8770   47.8110 C   0  0  0  0  0  0  0  0  0  0  0  0
   37.3300   29.3050   50.5170 C   0  0  0  0  0  0  0  0  0  0  0  0
   37.9910   30.5290   50.2030 C   0  0  0  0  0  0  0  0  0  0  0  0
   37.3550   31.3790   49.2490 C   0  0  0  0  0  0  0  0  0  0  0  0
   36.1580   30.9920   48.6850 N   0  0  0  0  0  0  0  0  0  0  0  0
   35.5860   29.8320   49.0200 C   0  0  0  0  0  0  0  0  0  0  0  0
   36.1510   28.9830   49.9250 N   0  0  0  0  0  0  0  0  0  0  0  0
   38.2800   32.4090   46.4820 O   0  0  0  0  0  0  0  0  0  0  0  0
   40.7000   32.2720   44.5700 Cl  0  0  0  0  0  0  0  0  0  0  0  0
   39.2200   31.3740   44.3950 C   0  0  0  0  0  0  0  0  0  0  0  0
   38.2860   31.6140   45.3900 C   0  0  0  0  0  0  0  0  0  0  0  0
   37.1030   30.9000   45.2570 C   0  0  0  0  0  0  0  0  0  0  0  0
   36.8650   30.0220   44.2270 C   0  0  0  0  0  0  0  0  0  0  0  0
   37.8440   29.8340   43.2710 C   0  0  0  0  0  0  0  0  0  0  0  0
   39.0530   30.5120   43.3370 C   0  0  0  0  0  0  0  0  0  0  0  0
   40.1270   30.3950   42.4090 N   0  0  0  0  0  0  0  0  0  0  0  0
   41.2130   29.4570   42.5060 C   0  0  0  0  0  0  0  0  0  0  0  0
   41.6760   29.1550   41.0820 C   0  0  0  0  0  0  0  0  0  0  0  0
   40.4580   29.1360   40.1770 C   0  0  0  0  0  0  0  0  0  0  0  0
   39.8190   30.4800   40.0330 C   0  0  0  0  0  0  0  0  0  0  0  0
   40.1240   31.3030   41.2630 C   0  0  0  0  0  0  0  0  0  0  0  0
   39.5857   31.5767   47.6576 H   0  0  0  0  0  0  0  0  0  0  0  0
   37.0561   33.2205   48.7127 H   0  0  0  0  0  0  0  0  0  0  0  0
   38.2395   33.8502   50.5642 H   0  0  0  0  0  0  0  0  0  0  0  0
   39.4532   32.5558   50.3706 H   0  0  0  0  0  0  0  0  0  0  0  0
   40.5889   33.8770   47.3727 H   0  0  0  0  0  0  0  0  0  0  0  0
   38.9693   34.6285   47.2892 H   0  0  0  0  0  0  0  0  0  0  0  0
   37.7796   28.6148   51.2460 H   0  0  0  0  0  0  0  0  0  0  0  0
   38.9460   30.8050   50.6739 H   0  0  0  0  0  0  0  0  0  0  0  0
   34.6305   29.5535   48.5516 H   0  0  0  0  0  0  0  0  0  0  0  0
   36.3174   31.0441   46.0133 H   0  0  0  0  0  0  0  0  0  0  0  0
   35.9109   29.4781   44.1649 H   0  0  0  0  0  0  0  0  0  0  0  0
   37.6620   29.1341   42.4422 H   0  0  0  0  0  0  0  0  0  0  0  0
   42.0387   29.8948   43.0861 H   0  0  0  0  0  0  0  0  0  0  0  0
   40.8907   28.5370   43.0157 H   0  0  0  0  0  0  0  0  0  0  0  0
   42.3766   29.9337   40.7460 H   0  0  0  0  0  0  0  0  0  0  0  0
   42.1871   28.1815   41.0489 H   0  0  0  0  0  0  0  0  0  0  0  0
   40.7663   28.7854   39.1810 H   0  0  0  0  0  0  0  0  0  0  0  0
   39.7164   28.4654   40.6357 H   0  0  0  0  0  0  0  0  0  0  0  0
   40.2198   30.9856   39.1421 H   0  0  0  0  0  0  0  0  0  0  0  0
   38.7306   30.3646   39.9230 H   0  0  0  0  0  0  0  0  0  0  0  0
   41.1092   31.7814   41.1601 H   0  0  0  0  0  0  0  0  0  0  0  0
   39.3711   32.0937   41.3969 H   0  0  0  0  0  0  0  0  0  0  0  0
  1  5  1  0
  1  2  1  0
  2  8  1  0
  2  3  1  0
  4  3  1  0
  5  4  1  0
  7  6  2  0
  8  7  1  0
  9 10  1  0
  9  8  2  0
 10 11  2  0
 11  6  1  0
 12  1  1  0
 14 13  1  0
 14 15  2  0
 15 12  1  0
 16 15  1  0
 17 16  2  0
 18 19  2  0
 18 17  1  0
 19 14  1  0
 20 21  1  0
 20 19  1  0
 22 21  1  0
 23 22  1  0
 24 23  1  0
 24 25  1  0
 25 20  1  0
  1 26  1  1
  2 27  1  6
  3 28  1  0
  3 29  1  0
  5 30  1  0
  5 31  1  0
  6 32  1  0
  7 33  1  0
 10 34  1  0
 16 35  1  0
 17 36  1  0
 18 37  1  0
 21 38  1  0
 21 39  1  0
 22 40  1  0
 22 41  1  0
 23 42  1  0
 23 43  1  0
 24 44  1  0
 24 45  1  0
 25 46  1  0
 25 47  1  0
M  ISO  8  26  13  27  13  28  13  29  13  30  13  31  13  32  14  33  14
M  ISO  8  34  14  35  14  36  14  37  14  38  13  39  13  40  13  41  13
M  ISO  6  42  13  43  13  44  13  45  13  46  13  47  13
M  END
>  <minimizedAffinity>  (1) 
-6.15331268

>  <minimizedRMSD>  (1) 
1.34431052

$$$$
