
     RDKit          3D

 48 51  0  0  0  0  0  0  0  0999 V2000
   34.4950   29.3440   50.2030 C   0  0  0  0  0  0  0  0  0  0  0  0
   35.8110   30.0070   50.1840 C   0  0  0  0  0  0  0  0  0  0  0  0
   36.7460   29.8040   51.2050 C   0  0  0  0  0  0  0  0  0  0  0  0
   37.8560   30.5450   50.9110 C   0  0  0  0  0  0  0  0  0  0  0  0
   37.6050   31.1720   49.7600 N   0  0  0  0  0  0  0  0  0  0  0  0
   36.3960   30.8380   49.3570 N   0  0  0  0  0  0  0  0  0  0  0  0
   38.3850   32.0740   48.9710 C   0  0  0  0  0  0  0  0  0  0  0  0
   38.7640   33.2410   49.5980 C   0  0  0  0  0  0  0  0  0  0  0  0
   39.5230   34.2380   48.9890 C   0  0  0  0  0  0  0  0  0  0  0  0
   39.8970   33.9930   47.6730 C   0  0  0  0  0  0  0  0  0  0  0  0
   39.5210   32.8250   47.0330 C   0  0  0  0  0  0  0  0  0  0  0  0
   38.7650   31.8550   47.6690 C   0  0  0  0  0  0  0  0  0  0  0  0
   34.3800   28.2450   49.2080 C   0  0  0  0  0  0  0  0  0  0  0  0
   33.8880   28.5640   47.9050 C   0  0  0  0  0  0  0  0  0  0  0  0
   32.6110   28.2530   47.5300 C   0  0  0  0  0  0  0  0  0  0  0  0
   32.0870   28.5500   46.2570 C   0  0  0  0  0  0  0  0  0  0  0  0
   32.9790   29.1890   45.4080 N   0  0  0  0  0  0  0  0  0  0  0  0
   34.2340   29.4800   45.8180 C   0  0  0  0  0  0  0  0  0  0  0  0
   34.6910   29.1780   47.0400 N   0  0  0  0  0  0  0  0  0  0  0  0
   35.0560   30.1370   44.8550 N   0  0  0  0  0  0  0  0  0  0  0  0
   34.5020   30.4360   43.5490 C   0  0  0  0  0  0  0  0  0  0  0  0
   35.3540   29.6750   42.5340 C   0  0  0  0  0  0  0  0  0  0  0  0
   36.7990   30.0270   42.6800 C   0  0  0  0  0  0  0  0  0  0  0  0
   37.3160   29.8860   44.0810 C   0  0  0  0  0  0  0  0  0  0  0  0
   36.4230   30.5230   45.1170 C   0  0  0  0  0  0  0  0  0  0  0  0
   34.3282   28.9261   51.2068 H   0  0  0  0  0  0  0  0  0  0  0  0
   33.7423   30.1024   49.9418 H   0  0  0  0  0  0  0  0  0  0  0  0
   36.6114   29.1618   52.0879 H   0  0  0  0  0  0  0  0  0  0  0  0
   38.7778   30.6117   51.5075 H   0  0  0  0  0  0  0  0  0  0  0  0
   38.4488   33.3945   50.6406 H   0  0  0  0  0  0  0  0  0  0  0  0
   39.8081   35.1604   49.5161 H   0  0  0  0  0  0  0  0  0  0  0  0
   40.5001   34.7376   47.1328 H   0  0  0  0  0  0  0  0  0  0  0  0
   39.8313   32.6628   45.9902 H   0  0  0  0  0  0  0  0  0  0  0  0
   38.4758   30.9321   47.1450 H   0  0  0  0  0  0  0  0  0  0  0  0
   35.3837   27.8132   49.0812 H   0  0  0  0  0  0  0  0  0  0  0  0
   33.6186   27.5728   49.6304 H   0  0  0  0  0  0  0  0  0  0  0  0
   31.9608   27.7459   48.2581 H   0  0  0  0  0  0  0  0  0  0  0  0
   31.0582   28.2969   45.9611 H   0  0  0  0  0  0  0  0  0  0  0  0
   33.4555   30.1015   43.4941 H   0  0  0  0  0  0  0  0  0  0  0  0
   34.5145   31.5176   43.3488 H   0  0  0  0  0  0  0  0  0  0  0  0
   35.0211   29.9341   41.5181 H   0  0  0  0  0  0  0  0  0  0  0  0
   35.2352   28.5963   42.7139 H   0  0  0  0  0  0  0  0  0  0  0  0
   37.3853   29.3654   42.0254 H   0  0  0  0  0  0  0  0  0  0  0  0
   36.9006   31.0873   42.4053 H   0  0  0  0  0  0  0  0  0  0  0  0
   37.4087   28.8146   44.3121 H   0  0  0  0  0  0  0  0  0  0  0  0
   38.2843   30.4062   44.1233 H   0  0  0  0  0  0  0  0  0  0  0  0
   36.5150   31.6177   45.0614 H   0  0  0  0  0  0  0  0  0  0  0  0
   36.7194   30.1884   46.1221 H   0  0  0  0  0  0  0  0  0  0  0  0
  2  1  1  0
  2  3  1  0
  4  3  2  0
  5  4  1  0
  6  5  1  0
  6  2  2  0
  7  8  2  0
  7  5  1  0
  9  8  1  0
 10  9  2  0
 11 12  2  0
 11 10  1  0
 12  7  1  0
 13  1  1  0
 14 13  1  0
 15 14  2  0
 16 15  1  0
 17 18  1  0
 17 16  2  0
 18 19  2  0
 19 14  1  0
 20 25  1  0
 20 18  1  0
 21 20  1  0
 22 23  1  0
 22 21  1  0
 23 24  1  0
 24 25  1  0
  1 26  1  0
  1 27  1  0
  3 28  1  0
  4 29  1  0
  8 30  1  0
  9 31  1  0
 10 32  1  0
 11 33  1  0
 12 34  1  0
 13 35  1  0
 13 36  1  0
 15 37  1  0
 16 38  1  0
 21 39  1  0
 21 40  1  0
 22 41  1  0
 22 42  1  0
 23 43  1  0
 23 44  1  0
 24 45  1  0
 24 46  1  0
 25 47  1  0
 25 48  1  0
M  ISO  8  26   8  27   8  28  14  29  14  30  14  31  14  32  14  33  14
M  ISO  8  34  14  35   8  36   8  37  14  38  14  39  13  40  13  41  13
M  ISO  7  42  13  43  13  44  13  45  13  46  13  47  13  48  13
M  END
>  <minimizedAffinity>  (1) 
-6.34049368

>  <minimizedRMSD>  (1) 
1.52280664

$$$$
