
     RDKit          3D

 49 51  0  0  0  0  0  0  0  0999 V2000
   35.3030   30.2060   49.3550 C   0  0  0  0  0  0  0  0  0  0  0  0
   38.1800   31.4130   48.9410 Br  0  0  0  0  0  0  0  0  0  0  0  0
   36.9610   30.8360   47.5790 C   0  0  0  0  0  0  0  0  0  0  0  0
   37.3000   30.9150   46.2440 C   0  0  0  0  0  0  0  0  0  0  0  0
   36.3870   30.4940   45.3220 C   0  0  0  0  0  0  0  0  0  0  0  0
   35.1470   29.9970   45.6800 C   0  0  0  0  0  0  0  0  0  0  0  0
   34.8310   29.9280   47.0360 C   0  0  0  0  0  0  0  0  0  0  0  0
   35.7440   30.3480   47.9690 C   0  0  0  0  0  0  0  0  0  0  0  0
   39.8130   33.2850   45.0550 C   0  0  0  0  0  0  0  0  0  0  0  0
   41.0120   32.5220   45.0330 C   0  0  0  0  0  0  0  0  0  0  0  0
   40.9210   31.2130   45.4290 C   0  0  0  0  0  0  0  0  0  0  0  0
   39.7140   30.6860   45.8260 N   0  0  0  0  0  0  0  0  0  0  0  0
   38.6060   31.4510   45.8290 C   0  0  0  0  0  0  0  0  0  0  0  0
   38.6680   32.7360   45.4450 N   0  0  0  0  0  0  0  0  0  0  0  0
   34.1480   29.3050   49.6040 C   0  0  0  0  0  0  0  0  0  0  0  0
   34.4880   27.9790   49.2630 N   0  0  0  0  0  0  0  0  0  0  0  0
   33.5380   27.2030   48.5580 C   0  0  0  0  0  0  0  0  0  0  0  0
   32.2050   27.8610   48.6960 C   0  0  0  0  0  0  0  0  0  0  0  0
   31.1770   26.8720   48.3280 N   0  0  0  0  0  0  0  0  0  0  0  0
   31.3350   26.3330   47.0500 C   0  0  0  0  0  0  0  0  0  0  0  0
   30.1520   26.3250   46.1410 C   0  0  0  0  0  0  0  0  0  0  0  0
   28.8420   26.1950   46.8800 C   0  0  0  0  0  0  0  0  0  0  0  0
   28.7290   27.1470   48.0230 C   0  0  0  0  0  0  0  0  0  0  0  0
   29.9230   27.0550   48.9020 C   0  0  0  0  0  0  0  0  0  0  0  0
   35.0288   31.2066   49.7206 H   0  0  0  0  0  0  0  0  0  0  0  0
   36.1497   29.7383   49.8788 H   0  0  0  0  0  0  0  0  0  0  0  0
   36.6466   30.5519   44.2546 H   0  0  0  0  0  0  0  0  0  0  0  0
   34.4294   29.6651   44.9153 H   0  0  0  0  0  0  0  0  0  0  0  0
   33.8534   29.5383   47.3562 H   0  0  0  0  0  0  0  0  0  0  0  0
   39.8335   34.3405   44.7460 H   0  0  0  0  0  0  0  0  0  0  0  0
   41.9683   32.9615   44.7131 H   0  0  0  0  0  0  0  0  0  0  0  0
   41.8200   30.5791   45.4293 H   0  0  0  0  0  0  0  0  0  0  0  0
   33.8748   29.3487   50.6686 H   0  0  0  0  0  0  0  0  0  0  0  0
   33.2973   29.6297   48.9869 H   0  0  0  0  0  0  0  0  0  0  0  0
   35.3379   28.0218   48.6827 H   0  0  0  0  0  0  0  0  0  0  0  0
   33.4982   26.1883   48.9809 H   0  0  0  0  0  0  0  0  0  0  0  0
   33.8183   27.1303   47.4968 H   0  0  0  0  0  0  0  0  0  0  0  0
   32.0547   28.1886   49.7353 H   0  0  0  0  0  0  0  0  0  0  0  0
   32.1417   28.7438   48.0428 H   0  0  0  0  0  0  0  0  0  0  0  0
   32.1284   26.9070   46.5489 H   0  0  0  0  0  0  0  0  0  0  0  0
   31.5529   25.2692   47.2260 H   0  0  0  0  0  0  0  0  0  0  0  0
   30.2488   25.4771   45.4470 H   0  0  0  0  0  0  0  0  0  0  0  0
   30.1371   27.2890   45.6114 H   0  0  0  0  0  0  0  0  0  0  0  0
   28.0198   26.3911   46.1760 H   0  0  0  0  0  0  0  0  0  0  0  0
   28.7917   25.1756   47.2903 H   0  0  0  0  0  0  0  0  0  0  0  0
   28.6460   28.1720   47.6325 H   0  0  0  0  0  0  0  0  0  0  0  0
   27.8358   26.8896   48.6111 H   0  0  0  0  0  0  0  0  0  0  0  0
   29.7553   26.2084   49.5840 H   0  0  0  0  0  0  0  0  0  0  0  0
   29.9883   28.0534   49.3592 H   0  0  0  0  0  0  0  0  0  0  0  0
  1 15  1  0
  3  8  2  0
  3  2  1  0
  4  3  1  0
  5  6  1  0
  5  4  2  0
  6  7  2  0
  7  8  1  0
  8  1  1  0
  9 14  2  0
 10  9  1  0
 10 11  2  0
 11 12  1  0
 12 13  2  0
 13  4  1  0
 14 13  1  0
 16 15  1  0
 17 18  1  0
 17 16  1  0
 19 18  1  0
 19 24  1  0
 20 19  1  0
 21 22  1  0
 21 20  1  0
 22 23  1  0
 23 24  1  0
  1 25  1  0
  1 26  1  0
  5 27  1  0
  6 28  1  0
  7 29  1  0
  9 30  1  0
 10 31  1  0
 11 32  1  0
 15 33  1  0
 15 34  1  0
 16 35  1  0
 17 36  1  0
 17 37  1  0
 18 38  1  0
 18 39  1  0
 20 40  1  0
 20 41  1  0
 21 42  1  0
 21 43  1  0
 22 44  1  0
 22 45  1  0
 23 46  1  0
 23 47  1  0
 24 48  1  0
 24 49  1  0
M  ISO  8  25   8  26   8  27  14  28  14  29  14  30  14  31  14  32  14
M  ISO  8  33   8  34   8  35   5  36   8  37   8  38   8  39   8  40  13
M  ISO  8  41  13  42  13  43  13  44  13  45  13  46  13  47  13  48  13
M  ISO  1  49  13
M  END
>  <minimizedAffinity>  (1) 
-5.35006905

>  <minimizedRMSD>  (1) 
0.735425234

$$$$
