
     RDKit          3D

 35 37  0  0  0  0  0  0  0  0999 V2000
   38.2870   31.0010   47.9450 Br  0  0  0  0  0  0  0  0  0  0  0  0
   36.9180   30.5720   46.6890 C   0  0  0  0  0  0  0  0  0  0  0  0
   35.7290   30.0350   47.1130 C   0  0  0  0  0  0  0  0  0  0  0  0
   34.7680   29.7430   46.1580 C   0  0  0  0  0  0  0  0  0  0  0  0
   35.0110   29.9870   44.8220 C   0  0  0  0  0  0  0  0  0  0  0  0
   36.2220   30.5350   44.3880 C   0  0  0  0  0  0  0  0  0  0  0  0
   37.1830   30.8250   45.3560 C   0  0  0  0  0  0  0  0  0  0  0  0
   36.4190   29.1290   50.7240 C   0  0  0  0  0  0  0  0  0  0  0  0
   36.5950   29.3360   49.3510 C   0  0  0  0  0  0  0  0  0  0  0  0
   35.5660   29.8140   48.5370 C   0  0  0  0  0  0  0  0  0  0  0  0
   34.4010   30.0560   49.1930 N   0  0  0  0  0  0  0  0  0  0  0  0
   34.2270   29.8600   50.5030 C   0  0  0  0  0  0  0  0  0  0  0  0
   35.2300   29.4000   51.2590 N   0  0  0  0  0  0  0  0  0  0  0  0
   38.3720   31.3720   44.8440 N   0  0  0  0  0  0  0  0  0  0  0  0
   39.5640   30.6060   44.5780 C   0  0  0  0  0  0  0  0  0  0  0  0
   40.4120   31.1170   43.4710 C   0  0  0  0  0  0  0  0  0  0  0  0
   39.7690   32.0230   42.4910 C   0  0  0  0  0  0  0  0  0  0  0  0
   38.6910   32.9030   43.0430 C   0  0  0  0  0  0  0  0  0  0  0  0
   38.5110   32.7710   44.5320 C   0  0  0  0  0  0  0  0  0  0  0  0
   33.8039   29.3133   46.4677 H   0  0  0  0  0  0  0  0  0  0  0  0
   34.2345   29.7450   44.0815 H   0  0  0  0  0  0  0  0  0  0  0  0
   36.4098   30.7302   43.3219 H   0  0  0  0  0  0  0  0  0  0  0  0
   37.2435   28.7513   51.3466 H   0  0  0  0  0  0  0  0  0  0  0  0
   37.5735   29.1155   48.8995 H   0  0  0  0  0  0  0  0  0  0  0  0
   33.2520   30.0784   50.9631 H   0  0  0  0  0  0  0  0  0  0  0  0
   40.1721   30.5942   45.4945 H   0  0  0  0  0  0  0  0  0  0  0  0
   39.2215   29.6090   44.2640 H   0  0  0  0  0  0  0  0  0  0  0  0
   41.2540   31.6617   43.9230 H   0  0  0  0  0  0  0  0  0  0  0  0
   40.6923   30.2246   42.8921 H   0  0  0  0  0  0  0  0  0  0  0  0
   39.3283   31.4046   41.6951 H   0  0  0  0  0  0  0  0  0  0  0  0
   40.5613   32.6990   42.1371 H   0  0  0  0  0  0  0  0  0  0  0  0
   38.9442   33.9488   42.8143 H   0  0  0  0  0  0  0  0  0  0  0  0
   37.7464   32.5901   42.5741 H   0  0  0  0  0  0  0  0  0  0  0  0
   39.3885   33.1834   45.0516 H   0  0  0  0  0  0  0  0  0  0  0  0
   37.6182   33.3246   44.8583 H   0  0  0  0  0  0  0  0  0  0  0  0
  2  3  2  0
  2  1  1  0
  3 10  1  0
  4  3  1  0
  5  4  2  0
  6  5  1  0
  6  7  2  0
  7  2  1  0
  8 13  2  0
  9  8  1  0
 10 11  1  0
 10  9  2  0
 11 12  2  0
 12 13  1  0
 14  7  1  0
 15 14  1  0
 16 15  1  0
 17 18  1  0
 17 16  1  0
 18 19  1  0
 19 14  1  0
  4 20  1  0
  5 21  1  0
  6 22  1  0
  8 23  1  0
  9 24  1  0
 12 25  1  0
 15 26  1  0
 15 27  1  0
 16 28  1  0
 16 29  1  0
 17 30  1  0
 17 31  1  0
 18 32  1  0
 18 33  1  0
 19 34  1  0
 19 35  1  0
M  ISO  8  20  14  21  14  22  14  23  14  24  14  25  14  26  13  27  13
M  ISO  8  28  13  29  13  30  13  31  13  32  13  33  13  34  13  35  13
M  END
>  <minimizedAffinity>  (1) 
-5.06830788

>  <minimizedRMSD>  (1) 
4.14562893

$$$$
