
     RDKit          3D

 21 22  0  0  0  0  0  0  0  0999 V2000
   37.7790   30.1380   48.9990 O   0  0  0  0  0  0  0  0  0  0  0  0
   35.9780   28.8440   49.7380 C   0  0  0  0  0  0  0  0  0  0  0  0
   36.4660   29.7930   48.8170 C   0  0  0  0  0  0  0  0  0  0  0  0
   35.5840   30.2670   47.8420 C   0  0  0  0  0  0  0  0  0  0  0  0
   34.3180   29.7970   47.8340 N   0  0  0  0  0  0  0  0  0  0  0  0
   33.8740   28.8880   48.7260 C   0  0  0  0  0  0  0  0  0  0  0  0
   34.6930   28.4000   49.6870 N   0  0  0  0  0  0  0  0  0  0  0  0
   38.9170   30.6140   46.4730 F   0  0  0  0  0  0  0  0  0  0  0  0
   38.9500   31.6320   47.3600 C   0  0  0  0  0  0  0  0  0  0  0  0
   38.3720   31.3180   48.5740 C   0  0  0  0  0  0  0  0  0  0  0  0
   38.3420   32.2850   49.5800 C   0  0  0  0  0  0  0  0  0  0  0  0
   38.8670   33.5420   49.4070 C   0  0  0  0  0  0  0  0  0  0  0  0
   39.4440   33.8390   48.1800 C   0  0  0  0  0  0  0  0  0  0  0  0
   39.4820   32.8890   47.1680 C   0  0  0  0  0  0  0  0  0  0  0  0
   36.6513   28.4537   50.5154 H   0  0  0  0  0  0  0  0  0  0  0  0
   35.9137   31.0066   47.0975 H   0  0  0  0  0  0  0  0  0  0  0  0
   32.8324   28.5385   48.6719 H   0  0  0  0  0  0  0  0  0  0  0  0
   37.8813   32.0311   50.5461 H   0  0  0  0  0  0  0  0  0  0  0  0
   38.8315   34.2887   50.2139 H   0  0  0  0  0  0  0  0  0  0  0  0
   39.8752   34.8362   48.0077 H   0  0  0  0  0  0  0  0  0  0  0  0
   39.9421   33.1426   46.2016 H   0  0  0  0  0  0  0  0  0  0  0  0
  3  1  1  0
  3  2  2  0
  4  3  1  0
  5  4  2  0
  5  6  1  0
  6  7  2  0
  7  2  1  0
  8  9  1  0
  9 10  2  0
 10  1  1  0
 10 11  1  0
 12 11  2  0
 13 12  1  0
 14  9  1  0
 14 13  2  0
  2 15  1  0
  4 16  1  0
  6 17  1  0
 11 18  1  0
 12 19  1  0
 13 20  1  0
 14 21  1  0
M  ISO  7  15  14  16  14  17  14  18  14  19  14  20  14  21  14
M  END
>  <minimizedAffinity>  (1) 
-4.8096447

>  <minimizedRMSD>  (1) 
2.35039735

$$$$
