
     RDKit          3D

 31 32  0  0  1  0  0  0  0  0999 V2000
   37.7190   30.9040   48.6130 C   0  0  2  0  0  0  0  0  0  0  0  0
   39.1570   31.5110   46.1770 F   0  0  0  0  0  0  0  0  0  0  0  0
   39.2550   32.4250   47.1900 C   0  0  0  0  0  0  0  0  0  0  0  0
   38.5380   32.0240   48.2930 C   0  0  0  0  0  0  0  0  0  0  0  0
   38.5670   32.8700   49.3940 C   0  0  0  0  0  0  0  0  0  0  0  0
   39.2850   34.0760   49.3990 C   0  0  0  0  0  0  0  0  0  0  0  0
   39.9970   34.4400   48.2580 C   0  0  0  0  0  0  0  0  0  0  0  0
   39.9850   33.6050   47.1340 C   0  0  0  0  0  0  0  0  0  0  0  0
   35.5110   30.3170   47.9060 C   0  0  0  0  0  0  0  0  0  0  0  0
   36.7820   30.4310   47.5790 C   0  0  0  0  0  0  0  0  0  0  0  0
   33.7850   29.4310   44.7390 C   0  0  0  0  0  0  0  0  0  0  0  0
   34.7160   29.9260   45.6440 C   0  0  0  0  0  0  0  0  0  0  0  0
   34.5120   29.8160   47.0050 C   0  0  0  0  0  0  0  0  0  0  0  0
   33.3790   29.2110   47.4190 N   0  0  0  0  0  0  0  0  0  0  0  0
   32.4960   28.7420   46.5270 C   0  0  0  0  0  0  0  0  0  0  0  0
   32.6870   28.8460   45.2030 N   0  0  0  0  0  0  0  0  0  0  0  0
   36.7480   31.1390   50.1540 S   0  0  0  0  0  0  0  0  0  0  0  0
   36.9540   29.7260   51.2290 C   0  0  0  0  0  0  0  0  0  0  0  0
   37.6050   28.6580   50.6100 F   0  0  0  0  0  0  0  0  0  0  0  0
   37.5360   30.0660   52.4280 F   0  0  0  0  0  0  0  0  0  0  0  0
   35.6450   29.2680   51.5390 F   0  0  0  0  0  0  0  0  0  0  0  0
   38.4900   30.1278   48.7273 H   0  0  0  0  0  0  0  0  0  0  0  0
   38.0062   32.5842   50.2961 H   0  0  0  0  0  0  0  0  0  0  0  0
   39.2856   34.7229   50.2887 H   0  0  0  0  0  0  0  0  0  0  0  0
   40.5669   35.3807   48.2402 H   0  0  0  0  0  0  0  0  0  0  0  0
   40.5422   33.8780   46.2257 H   0  0  0  0  0  0  0  0  0  0  0  0
   35.2006   30.6199   48.9169 H   0  0  0  0  0  0  0  0  0  0  0  0
   37.1324   30.1811   46.5667 H   0  0  0  0  0  0  0  0  0  0  0  0
   33.9548   29.5223   43.6560 H   0  0  0  0  0  0  0  0  0  0  0  0
   35.6290   30.4127   45.2705 H   0  0  0  0  0  0  0  0  0  0  0  0
   31.5810   28.2538   46.8936 H   0  0  0  0  0  0  0  0  0  0  0  0
  1 17  1  0
  2  3  1  0
  3  4  2  0
  4  1  1  0
  4  5  1  0
  5  6  2  0
  7  6  1  0
  8  3  1  0
  8  7  2  0
 10  9  2  0
 10  1  1  0
 11 16  2  0
 11 12  1  0
 12 13  2  0
 13 14  1  0
 13  9  1  0
 15 14  2  0
 16 15  1  0
 17 18  1  0
 18 21  1  0
 18 20  1  0
 19 18  1  0
  1 22  1  1
  5 23  1  0
  6 24  1  0
  7 25  1  0
  8 26  1  0
  9 27  1  0
 10 28  1  0
 11 29  1  0
 12 30  1  0
 15 31  1  0
M  ISO  8  22   8  23  14  24  14  25  14  26  14  29  14  30  14  31  14
M  END
>  <minimizedAffinity>  (1) 
-6.27086639

>  <minimizedRMSD>  (1) 
4.78680277

$$$$
