
     RDKit          3D

 43 46  0  0  0  0  0  0  0  0999 V2000
   38.4440   31.3830   48.7480 C   0  0  0  0  0  0  0  0  0  0  0  0
   38.4720   32.6090   49.3640 C   0  0  0  0  0  0  0  0  0  0  0  0
   39.0680   33.5040   48.4740 C   0  0  0  0  0  0  0  0  0  0  0  0
   39.3750   32.8210   47.3760 N   0  0  0  0  0  0  0  0  0  0  0  0
   39.0070   31.5920   47.5510 N   0  0  0  0  0  0  0  0  0  0  0  0
   40.0090   33.3130   46.1810 C   0  0  0  0  0  0  0  0  0  0  0  0
   40.3740   32.1600   45.3060 C   0  0  0  0  0  0  0  0  0  0  0  0
   41.2810   30.1620   43.5290 F   0  0  0  0  0  0  0  0  0  0  0  0
   40.4450   31.1790   43.1360 C   0  0  0  0  0  0  0  0  0  0  0  0
   39.9400   32.2180   43.9180 C   0  0  0  0  0  0  0  0  0  0  0  0
   39.1140   33.1200   43.2790 C   0  0  0  0  0  0  0  0  0  0  0  0
   38.7830   33.0330   41.9490 C   0  0  0  0  0  0  0  0  0  0  0  0
   39.2890   32.0050   41.1950 C   0  0  0  0  0  0  0  0  0  0  0  0
   40.1200   31.0770   41.7910 C   0  0  0  0  0  0  0  0  0  0  0  0
   37.8810   30.3670   49.4950 O   0  0  0  0  0  0  0  0  0  0  0  0
   34.1370   28.8510   48.3120 C   0  0  0  0  0  0  0  0  0  0  0  0
   34.7590   28.4040   49.4420 C   0  0  0  0  0  0  0  0  0  0  0  0
   35.9730   28.8540   49.8840 C   0  0  0  0  0  0  0  0  0  0  0  0
   36.6570   29.8050   49.1970 C   0  0  0  0  0  0  0  0  0  0  0  0
   36.0290   30.2730   48.0330 C   0  0  0  0  0  0  0  0  0  0  0  0
   34.8330   29.8130   47.6220 N   0  0  0  0  0  0  0  0  0  0  0  0
   32.0140   27.5790   48.5790 C   0  0  0  0  0  0  0  0  0  0  0  0
   32.8710   28.4000   47.8280 C   0  0  0  0  0  0  0  0  0  0  0  0
   32.4360   28.7610   46.5830 C   0  0  0  0  0  0  0  0  0  0  0  0
   31.2250   28.3290   46.1240 N   0  0  0  0  0  0  0  0  0  0  0  0
   30.4350   27.5300   46.9020 C   0  0  0  0  0  0  0  0  0  0  0  0
   30.8160   27.1460   48.1350 N   0  0  0  0  0  0  0  0  0  0  0  0
   38.0953   32.8427   50.3707 H   0  0  0  0  0  0  0  0  0  0  0  0
   39.2497   34.5747   48.6488 H   0  0  0  0  0  0  0  0  0  0  0  0
   39.3157   33.9769   45.6439 H   0  0  0  0  0  0  0  0  0  0  0  0
   40.9164   33.8738   46.4493 H   0  0  0  0  0  0  0  0  0  0  0  0
   41.4709   32.0773   45.3071 H   0  0  0  0  0  0  0  0  0  0  0  0
   39.8424   31.2977   45.7347 H   0  0  0  0  0  0  0  0  0  0  0  0
   38.6988   33.9526   43.8659 H   0  0  0  0  0  0  0  0  0  0  0  0
   38.1181   33.7810   41.4925 H   0  0  0  0  0  0  0  0  0  0  0  0
   39.0358   31.9208   40.1279 H   0  0  0  0  0  0  0  0  0  0  0  0
   40.5284   30.2486   41.1934 H   0  0  0  0  0  0  0  0  0  0  0  0
   34.2504   27.6308   50.0365 H   0  0  0  0  0  0  0  0  0  0  0  0
   36.4010   28.4397   50.8088 H   0  0  0  0  0  0  0  0  0  0  0  0
   36.5334   31.0452   47.4336 H   0  0  0  0  0  0  0  0  0  0  0  0
   32.3374   27.2722   49.5846 H   0  0  0  0  0  0  0  0  0  0  0  0
   33.0648   29.4026   45.9482 H   0  0  0  0  0  0  0  0  0  0  0  0
   29.4638   27.1923   46.5112 H   0  0  0  0  0  0  0  0  0  0  0  0
  1  2  1  0
  1 15  1  0
  3  2  2  0
  4  5  1  0
  4  3  1  0
  5  1  2  0
  6  4  1  0
  7  6  1  0
  9  8  1  0
  9 10  2  0
 10  7  1  0
 11 10  1  0
 12 11  2  0
 13 14  2  0
 13 12  1  0
 14  9  1  0
 16 17  2  0
 17 18  1  0
 19 15  1  0
 19 18  2  0
 20 19  1  0
 21 20  2  0
 21 16  1  0
 23 16  1  0
 23 22  2  0
 24 23  1  0
 25 24  2  0
 25 26  1  0
 26 27  2  0
 27 22  1  0
  2 28  1  0
  3 29  1  0
  6 30  1  0
  6 31  1  0
  7 32  1  0
  7 33  1  0
 11 34  1  0
 12 35  1  0
 13 36  1  0
 14 37  1  0
 17 38  1  0
 18 39  1  0
 20 40  1  0
 22 41  1  0
 24 42  1  0
 26 43  1  0
M  ISO  8  28  14  29  14  30   8  31   8  32   8  33   8  34  14  35  14
M  ISO  8  36  14  37  14  38  14  39  14  40  14  41  14  42  14  43  14
M  END
>  <minimizedAffinity>  (1) 
-6.39940023

>  <minimizedRMSD>  (1) 
1.68535066

$$$$
