
     RDKit          3D

 31 33  0  0  0  0  0  0  0  0999 V2000
   38.5110   32.3740   46.9320 C   0  0  0  0  0  0  0  0  0  0  0  0
   38.3330   32.0950   45.5650 C   0  0  0  0  0  0  0  0  0  0  0  0
   37.3650   31.1550   45.1980 C   0  0  0  0  0  0  0  0  0  0  0  0
   36.6340   30.5500   46.1910 N   0  0  0  0  0  0  0  0  0  0  0  0
   36.8360   30.8460   47.4940 C   0  0  0  0  0  0  0  0  0  0  0  0
   37.7800   31.7650   47.8690 N   0  0  0  0  0  0  0  0  0  0  0  0
   38.2430   30.9300   50.2800 Br  0  0  0  0  0  0  0  0  0  0  0  0
   36.5530   30.1690   49.8450 C   0  0  0  0  0  0  0  0  0  0  0  0
   36.0670   30.2120   48.5640 C   0  0  0  0  0  0  0  0  0  0  0  0
   34.8340   29.6370   48.3370 C   0  0  0  0  0  0  0  0  0  0  0  0
   34.0660   29.0260   49.3010 C   0  0  0  0  0  0  0  0  0  0  0  0
   34.5910   29.0040   50.5760 C   0  0  0  0  0  0  0  0  0  0  0  0
   35.8410   29.5780   50.8470 C   0  0  0  0  0  0  0  0  0  0  0  0
   39.0970   32.7340   44.6040 O   0  0  0  0  0  0  0  0  0  0  0  0
   38.4290   33.3870   42.0290 F   0  0  0  0  0  0  0  0  0  0  0  0
   39.2550   32.3490   42.3190 C   0  0  0  0  0  0  0  0  0  0  0  0
   39.6480   31.9480   43.6000 C   0  0  0  0  0  0  0  0  0  0  0  0
   40.4970   30.8680   43.7310 C   0  0  0  0  0  0  0  0  0  0  0  0
   40.9490   30.1990   42.6130 C   0  0  0  0  0  0  0  0  0  0  0  0
   40.5720   30.5820   41.3320 C   0  0  0  0  0  0  0  0  0  0  0  0
   39.7120   31.6740   41.2020 C   0  0  0  0  0  0  0  0  0  0  0  0
   39.2694   33.1104   47.2361 H   0  0  0  0  0  0  0  0  0  0  0  0
   37.1932   30.9063   44.1403 H   0  0  0  0  0  0  0  0  0  0  0  0
   34.4364   29.6693   47.3119 H   0  0  0  0  0  0  0  0  0  0  0  0
   33.0879   28.5800   49.0679 H   0  0  0  0  0  0  0  0  0  0  0  0
   34.0223   28.5305   51.3899 H   0  0  0  0  0  0  0  0  0  0  0  0
   36.2479   29.5517   51.8686 H   0  0  0  0  0  0  0  0  0  0  0  0
   40.8146   30.5393   44.7316 H   0  0  0  0  0  0  0  0  0  0  0  0
   41.6251   29.3405   42.7387 H   0  0  0  0  0  0  0  0  0  0  0  0
   40.9398   30.0415   40.4473 H   0  0  0  0  0  0  0  0  0  0  0  0
   39.3947   32.0008   40.2008 H   0  0  0  0  0  0  0  0  0  0  0  0
  1  6  2  0
  2  1  1  0
  3  2  2  0
  3  4  1  0
  4  5  2  0
  5  6  1  0
  5  9  1  0
  8  7  1  0
  8 13  2  0
  9  8  1  0
 10  9  2  0
 10 11  1  0
 11 12  2  0
 12 13  1  0
 14  2  1  0
 15 16  1  0
 16 17  2  0
 17 18  1  0
 17 14  1  0
 19 18  2  0
 20 19  1  0
 21 20  2  0
 21 16  1  0
  1 22  1  0
  3 23  1  0
 10 24  1  0
 11 25  1  0
 12 26  1  0
 13 27  1  0
 18 28  1  0
 19 29  1  0
 20 30  1  0
 21 31  1  0
M  ISO  8  22  14  23  14  24  14  25  14  26  14  27  14  28  14  29  14
M  ISO  2  30  14  31  14
M  END
>  <minimizedAffinity>  (1) 
-6.12244034

>  <minimizedRMSD>  (1) 
4.78077126

$$$$
