
     RDKit          3D

 44 46  0  0  0  0  0  0  0  0999 V2000
   35.3380   30.3410   49.4420 C   0  0  0  0  0  0  0  0  0  0  0  0
   38.2150   31.5400   48.9490 Br  0  0  0  0  0  0  0  0  0  0  0  0
   36.9720   30.9100   47.6240 C   0  0  0  0  0  0  0  0  0  0  0  0
   37.2940   30.9490   46.2880 C   0  0  0  0  0  0  0  0  0  0  0  0
   36.3700   30.4970   45.3910 C   0  0  0  0  0  0  0  0  0  0  0  0
   35.1310   30.0070   45.7820 C   0  0  0  0  0  0  0  0  0  0  0  0
   34.8380   29.9830   47.1480 C   0  0  0  0  0  0  0  0  0  0  0  0
   35.7610   30.4330   48.0500 C   0  0  0  0  0  0  0  0  0  0  0  0
   39.7970   33.2750   45.0060 C   0  0  0  0  0  0  0  0  0  0  0  0
   40.9930   32.5140   44.9810 C   0  0  0  0  0  0  0  0  0  0  0  0
   40.9040   31.2030   45.4110 C   0  0  0  0  0  0  0  0  0  0  0  0
   39.6970   30.6940   45.8380 N   0  0  0  0  0  0  0  0  0  0  0  0
   38.5940   31.4660   45.8390 C   0  0  0  0  0  0  0  0  0  0  0  0
   38.6580   32.7410   45.4250 N   0  0  0  0  0  0  0  0  0  0  0  0
   34.2280   29.4060   49.7520 C   0  0  0  0  0  0  0  0  0  0  0  0
   34.5990   28.0940   49.3800 N   0  0  0  0  0  0  0  0  0  0  0  0
   33.6590   27.3190   48.6580 C   0  0  0  0  0  0  0  0  0  0  0  0
   32.3020   27.9030   48.8930 C   0  0  0  0  0  0  0  0  0  0  0  0
   29.4410   28.1250   48.8370 F   0  0  0  0  0  0  0  0  0  0  0  0
   30.0190   27.2520   47.9900 C   0  0  0  0  0  0  0  0  0  0  0  0
   31.3950   27.0890   47.9610 C   0  0  0  0  0  0  0  0  0  0  0  0
   31.9170   26.1770   47.0690 C   0  0  0  0  0  0  0  0  0  0  0  0
   31.1020   25.4500   46.2320 C   0  0  0  0  0  0  0  0  0  0  0  0
   29.7340   25.6180   46.2690 C   0  0  0  0  0  0  0  0  0  0  0  0
   29.1960   26.5270   47.1550 C   0  0  0  0  0  0  0  0  0  0  0  0
   35.0229   31.3460   49.7594 H   0  0  0  0  0  0  0  0  0  0  0  0
   36.2091   29.9353   49.9774 H   0  0  0  0  0  0  0  0  0  0  0  0
   36.6158   30.5218   44.3191 H   0  0  0  0  0  0  0  0  0  0  0  0
   34.4028   29.6488   45.0394 H   0  0  0  0  0  0  0  0  0  0  0  0
   33.8665   29.6027   47.4967 H   0  0  0  0  0  0  0  0  0  0  0  0
   39.8143   34.3233   44.6731 H   0  0  0  0  0  0  0  0  0  0  0  0
   41.9445   32.9452   44.6366 H   0  0  0  0  0  0  0  0  0  0  0  0
   41.7996   30.5644   45.4122 H   0  0  0  0  0  0  0  0  0  0  0  0
   34.0149   29.4348   50.8308 H   0  0  0  0  0  0  0  0  0  0  0  0
   33.3295   29.7054   49.1925 H   0  0  0  0  0  0  0  0  0  0  0  0
   35.4463   28.1679   48.7991 H   0  0  0  0  0  0  0  0  0  0  0  0
   33.6837   26.2776   49.0112 H   0  0  0  0  0  0  0  0  0  0  0  0
   33.8990   27.3289   47.5846 H   0  0  0  0  0  0  0  0  0  0  0  0
   31.9978   27.7806   49.9430 H   0  0  0  0  0  0  0  0  0  0  0  0
   32.2607   28.9841   48.6940 H   0  0  0  0  0  0  0  0  0  0  0  0
   33.0059   26.0275   47.0254 H   0  0  0  0  0  0  0  0  0  0  0  0
   31.5450   24.7297   45.5284 H   0  0  0  0  0  0  0  0  0  0  0  0
   29.0817   25.0356   45.6017 H   0  0  0  0  0  0  0  0  0  0  0  0
   28.1067   26.6742   47.1957 H   0  0  0  0  0  0  0  0  0  0  0  0
  1 15  1  0
  3  8  2  0
  3  2  1  0
  4  3  1  0
  5  6  1  0
  5  4  2  0
  6  7  2  0
  7  8  1  0
  8  1  1  0
  9 14  2  0
 10  9  1  0
 10 11  2  0
 11 12  1  0
 12 13  2  0
 13  4  1  0
 14 13  1  0
 16 15  1  0
 17 18  1  0
 17 16  1  0
 20 19  1  0
 21 20  2  0
 21 18  1  0
 22 21  1  0
 23 24  1  0
 23 22  2  0
 24 25  2  0
 25 20  1  0
  1 26  1  0
  1 27  1  0
  5 28  1  0
  6 29  1  0
  7 30  1  0
  9 31  1  0
 10 32  1  0
 11 33  1  0
 15 34  1  0
 15 35  1  0
 16 36  1  0
 17 37  1  0
 17 38  1  0
 18 39  1  0
 18 40  1  0
 22 41  1  0
 23 42  1  0
 24 43  1  0
 25 44  1  0
M  ISO  8  26   8  27   8  28  14  29  14  30  14  31  14  32  14  33  14
M  ISO  8  34   8  35   8  36   5  37   8  38   8  39   8  40   8  41  14
M  ISO  3  42  14  43  14  44  14
M  END
>  <minimizedAffinity>  (1) 
-5.53751802

>  <minimizedRMSD>  (1) 
0.604939997

$$$$
