
     RDKit          3D

 44 47  0  0  0  0  0  0  0  0999 V2000
   34.4730   27.6570   49.4450 Cl  0  0  0  0  0  0  0  0  0  0  0  0
   33.7810   28.5810   48.1420 C   0  0  0  0  0  0  0  0  0  0  0  0
   34.3030   29.8070   47.8390 C   0  0  0  0  0  0  0  0  0  0  0  0
   33.7800   30.5700   46.8110 C   0  0  0  0  0  0  0  0  0  0  0  0
   32.7140   30.1100   46.0640 C   0  0  0  0  0  0  0  0  0  0  0  0
   32.1720   28.8780   46.3510 C   0  0  0  0  0  0  0  0  0  0  0  0
   30.8200   28.1910   45.4730 Cl  0  0  0  0  0  0  0  0  0  0  0  0
   32.7260   28.1520   47.3870 C   0  0  0  0  0  0  0  0  0  0  0  0
   33.8340   29.8450   43.5870 F   0  0  0  0  0  0  0  0  0  0  0  0
   32.7750   30.6960   43.7640 C   0  0  0  0  0  0  0  0  0  0  0  0
   32.1450   30.8960   44.9740 C   0  0  0  0  0  0  0  0  0  0  0  0
   31.0780   31.7740   45.0760 C   0  0  0  0  0  0  0  0  0  0  0  0
   30.6640   32.4410   43.9400 C   0  0  0  0  0  0  0  0  0  0  0  0
   31.2970   32.2410   42.7250 C   0  0  0  0  0  0  0  0  0  0  0  0
   32.3730   31.3580   42.6060 C   0  0  0  0  0  0  0  0  0  0  0  0
   36.5810   30.5770   50.6090 C   0  0  0  0  0  0  0  0  0  0  0  0
   37.5840   31.3270   50.0000 C   0  0  0  0  0  0  0  0  0  0  0  0
   37.4560   31.5560   48.6380 C   0  0  0  0  0  0  0  0  0  0  0  0
   36.3880   31.0500   47.9810 N   0  0  0  0  0  0  0  0  0  0  0  0
   35.4360   30.3250   48.6130 C   0  0  0  0  0  0  0  0  0  0  0  0
   35.5520   30.1030   49.9170 N   0  0  0  0  0  0  0  0  0  0  0  0
   38.4440   32.3320   47.8750 C   0  0  0  0  0  0  0  0  0  0  0  0
   39.1180   33.4170   48.3760 C   0  0  0  0  0  0  0  0  0  0  0  0
   39.9650   33.9370   47.4540 N   0  0  0  0  0  0  0  0  0  0  0  0
   39.8220   33.1720   46.3620 C   0  0  0  0  0  0  0  0  0  0  0  0
   38.9130   32.2260   46.6380 N   0  0  0  0  0  0  0  0  0  0  0  0
   40.6080   31.9960   44.3800 C   0  0  0  0  0  0  0  0  0  0  0  0
   40.2110   30.9260   44.8910 O   0  0  0  0  0  0  0  0  0  0  0  0
   40.4400   33.2270   45.0930 N   0  0  0  0  0  0  0  0  0  0  0  0
   32.1570   26.8100   47.7190 C   0  0  0  0  0  0  0  0  0  0  0  0
   33.1630   25.8530   47.7850 F   0  0  0  0  0  0  0  0  0  0  0  0
   31.3590   26.3630   46.6460 F   0  0  0  0  0  0  0  0  0  0  0  0
   31.3670   26.8230   48.8330 F   0  0  0  0  0  0  0  0  0  0  0  0
   34.2179   31.5537   46.5862 H   0  0  0  0  0  0  0  0  0  0  0  0
   30.5725   31.9359   46.0395 H   0  0  0  0  0  0  0  0  0  0  0  0
   29.8184   33.1419   44.0013 H   0  0  0  0  0  0  0  0  0  0  0  0
   30.9462   32.7874   41.8371 H   0  0  0  0  0  0  0  0  0  0  0  0
   32.8790   31.1932   41.6433 H   0  0  0  0  0  0  0  0  0  0  0  0
   36.6428   30.3727   51.6881 H   0  0  0  0  0  0  0  0  0  0  0  0
   38.4376   31.7193   50.5722 H   0  0  0  0  0  0  0  0  0  0  0  0
   38.9880   33.8135   49.3938 H   0  0  0  0  0  0  0  0  0  0  0  0
   40.5878   34.7494   47.5683 H   0  0  0  0  0  0  0  0  0  0  0  0
   41.0837   31.9920   43.3882 H   0  0  0  0  0  0  0  0  0  0  0  0
   40.7589   34.1215   44.6941 H   0  0  0  0  0  0  0  0  0  0  0  0
  2  1  1  0
  3  2  2  0
  3 20  1  0
  4  3  1  0
  5  6  1  0
  5  4  2  0
  6  8  2  0
  7  6  1  0
  8 30  1  0
  8  2  1  0
  9 10  1  0
 10 11  2  0
 11 12  1  0
 11  5  1  0
 13 12  2  0
 14 13  1  0
 15 14  2  0
 15 10  1  0
 17 16  2  0
 18 17  1  0
 19 20  1  0
 19 18  2  0
 20 21  2  0
 21 16  1  0
 22 23  2  0
 22 18  1  0
 24 23  1  0
 25 26  2  0
 25 24  1  0
 26 22  1  0
 27 28  2  0
 27 29  1  0
 29 25  1  0
 30 31  1  0
 30 33  1  0
 32 30  1  0
  4 34  1  0
 12 35  1  0
 13 36  1  0
 14 37  1  0
 15 38  1  0
 16 39  1  0
 17 40  1  0
 23 41  1  0
 24 42  1  0
 27 43  1  0
 29 44  1  0
M  ISO  8  34  14  35  14  36  14  37  14  38  14  39  14  40  14  41  14
M  ISO  2  42   9  43   6
M  END
>  <minimizedAffinity>  (1) 
-6.92261505

>  <minimizedRMSD>  (1) 
0.859023869

$$$$
