
     RDKit          3D

 47 51  0  0  0  0  0  0  0  0999 V2000
   39.1000   31.8820   44.9920 C   0  0  0  0  0  0  0  0  0  0  0  0
   37.9990   32.4660   45.1610 O   0  0  0  0  0  0  0  0  0  0  0  0
   39.8630   31.6690   46.1860 N   0  0  0  0  0  0  0  0  0  0  0  0
   38.8170   32.0570   42.6350 C   0  0  0  0  0  0  0  0  0  0  0  0
   39.5150   31.4780   43.6720 C   0  0  0  0  0  0  0  0  0  0  0  0
   40.5340   30.5830   43.4820 C   0  0  0  0  0  0  0  0  0  0  0  0
   40.8890   30.2330   42.1980 C   0  0  0  0  0  0  0  0  0  0  0  0
   41.8230   29.4020   41.6960 N   0  0  0  0  0  0  0  0  0  0  0  0
   41.7270   29.4450   40.3660 C   0  0  0  0  0  0  0  0  0  0  0  0
   40.7510   30.2870   40.0130 N   0  0  0  0  0  0  0  0  0  0  0  0
   40.2030   30.8010   41.1540 C   0  0  0  0  0  0  0  0  0  0  0  0
   39.1690   31.7090   41.3190 C   0  0  0  0  0  0  0  0  0  0  0  0
   39.0680   34.4650   40.6310 F   0  0  0  0  0  0  0  0  0  0  0  0
   38.3740   33.6250   39.8160 C   0  0  0  0  0  0  0  0  0  0  0  0
   38.4490   32.3030   40.1840 C   0  0  0  0  0  0  0  0  0  0  0  0
   37.7900   31.3190   39.4460 C   0  0  0  0  0  0  0  0  0  0  0  0
   37.0460   31.6430   38.3310 C   0  0  0  0  0  0  0  0  0  0  0  0
   36.9840   32.9950   37.9770 C   0  0  0  0  0  0  0  0  0  0  0  0
   37.6360   33.9680   38.7070 C   0  0  0  0  0  0  0  0  0  0  0  0
   38.0450   30.1630   47.5300 F   0  0  0  0  0  0  0  0  0  0  0  0
   38.3270   31.3980   48.0420 C   0  0  0  0  0  0  0  0  0  0  0  0
   37.6910   31.8090   49.1850 C   0  0  0  0  0  0  0  0  0  0  0  0
   38.0230   33.0540   49.6360 C   0  0  0  0  0  0  0  0  0  0  0  0
   38.9310   33.8760   49.0170 C   0  0  0  0  0  0  0  0  0  0  0  0
   39.5470   33.4220   47.8680 C   0  0  0  0  0  0  0  0  0  0  0  0
   39.2480   32.1770   47.3720 C   0  0  0  0  0  0  0  0  0  0  0  0
   36.0710   29.3160   51.5220 C   0  0  0  0  0  0  0  0  0  0  0  0
   37.0370   30.1780   50.9440 C   0  0  0  0  0  0  0  0  0  0  0  0
   36.7320   30.9100   49.8170 C   0  0  0  0  0  0  0  0  0  0  0  0
   35.4780   30.7700   49.2910 N   0  0  0  0  0  0  0  0  0  0  0  0
   34.5680   29.9470   49.8500 C   0  0  0  0  0  0  0  0  0  0  0  0
   34.8640   29.2420   50.9370 N   0  0  0  0  0  0  0  0  0  0  0  0
   40.7755   31.1913   46.1893 H   0  0  0  0  0  0  0  0  0  0  0  0
   38.0054   32.7730   42.8315 H   0  0  0  0  0  0  0  0  0  0  0  0
   41.0622   30.1492   44.3438 H   0  0  0  0  0  0  0  0  0  0  0  0
   42.4900   28.8363   42.2401 H   0  0  0  0  0  0  0  0  0  0  0  0
   42.3555   28.8743   39.6665 H   0  0  0  0  0  0  0  0  0  0  0  0
   37.8652   30.2671   39.7589 H   0  0  0  0  0  0  0  0  0  0  0  0
   36.5240   30.8719   37.7454 H   0  0  0  0  0  0  0  0  0  0  0  0
   36.3999   33.2905   37.0930 H   0  0  0  0  0  0  0  0  0  0  0  0
   37.5652   35.0221   38.4007 H   0  0  0  0  0  0  0  0  0  0  0  0
   37.5334   33.4203   50.5504 H   0  0  0  0  0  0  0  0  0  0  0  0
   39.1620   34.8708   49.4258 H   0  0  0  0  0  0  0  0  0  0  0  0
   40.2786   34.0587   47.3489 H   0  0  0  0  0  0  0  0  0  0  0  0
   36.3026   28.7263   52.4212 H   0  0  0  0  0  0  0  0  0  0  0  0
   38.0355   30.2629   51.3977 H   0  0  0  0  0  0  0  0  0  0  0  0
   33.5679   29.8580   49.4007 H   0  0  0  0  0  0  0  0  0  0  0  0
  1  2  2  0
  1  3  1  0
  3 26  1  0
  4  5  2  0
  5  1  1  0
  6  5  1  0
  7  6  2  0
  8  7  1  0
  9  8  1  0
 10  9  2  0
 10 11  1  0
 11 12  2  0
 11  7  1  0
 12  4  1  0
 14 15  2  0
 14 13  1  0
 15 12  1  0
 16 15  1  0
 17 16  2  0
 18 17  1  0
 18 19  2  0
 19 14  1  0
 20 21  1  0
 21 22  2  0
 22 23  1  0
 22 29  1  0
 24 23  2  0
 25 24  1  0
 26 25  2  0
 26 21  1  0
 28 27  2  0
 29 28  1  0
 30 29  2  0
 30 31  1  0
 31 32  2  0
 32 27  1  0
  3 33  1  0
  4 34  1  0
  6 35  1  0
  8 36  1  0
  9 37  1  0
 16 38  1  0
 17 39  1  0
 18 40  1  0
 19 41  1  0
 23 42  1  0
 24 43  1  0
 25 44  1  0
 27 45  1  0
 28 46  1  0
 31 47  1  0
M  END
>  <minimizedAffinity>  (1) 
-7.41279125

>  <minimizedRMSD>  (1) 
0.46723786

$$$$
