
     RDKit          3D

 46 49  0  0  1  0  0  0  0  0999 V2000
   35.5740   30.1330   47.5040 C   0  0  1  0  0  0  0  0  0  0  0  0
   34.7770   28.8130   47.7810 C   0  0  0  0  0  0  0  0  0  0  0  0
   34.2410   28.7860   49.2070 C   0  0  0  0  0  0  0  0  0  0  0  0
   35.3150   29.1320   50.1640 C   0  0  0  0  0  0  0  0  0  0  0  0
   36.6400   29.1570   49.5380 C   0  0  0  0  0  0  0  0  0  0  0  0
   36.7670   30.0810   48.4060 C   0  0  2  0  0  0  0  0  0  0  0  0
   34.8220   30.1140   45.1800 C   0  0  0  0  0  0  0  0  0  0  0  0
   35.1470   30.2200   43.8200 C   0  0  0  0  0  0  0  0  0  0  0  0
   36.4460   30.3060   43.3570 C   0  0  0  0  0  0  0  0  0  0  0  0
   37.5050   30.2860   44.2770 C   0  0  0  0  0  0  0  0  0  0  0  0
   37.1530   30.1820   45.6050 C   0  0  0  0  0  0  0  0  0  0  0  0
   35.8660   30.1000   46.0910 C   0  0  0  0  0  0  0  0  0  0  0  0
   32.9510   28.5510   45.3860 C   0  0  0  0  0  0  0  0  0  0  0  0
   33.4390   29.9090   45.4570 C   0  0  0  0  0  0  0  0  0  0  0  0
   32.5290   30.8600   45.8040 C   0  0  0  0  0  0  0  0  0  0  0  0
   31.2520   30.5060   46.0640 N   0  0  0  0  0  0  0  0  0  0  0  0
   30.8130   29.2090   45.9910 C   0  0  0  0  0  0  0  0  0  0  0  0
   31.6830   28.2050   45.6430 N   0  0  0  0  0  0  0  0  0  0  0  0
   36.1300   32.1690   50.3540 F   0  0  0  0  0  0  0  0  0  0  0  0
   37.1790   32.3350   49.5210 C   0  0  0  0  0  0  0  0  0  0  0  0
   37.4800   31.3610   48.5960 C   0  0  0  0  0  0  0  0  0  0  0  0
   38.5990   31.7570   47.8350 C   0  0  0  0  0  0  0  0  0  0  0  0
   39.3240   32.8970   47.9310 C   0  0  0  0  0  0  0  0  0  0  0  0
   38.9300   33.7990   48.8950 C   0  0  0  0  0  0  0  0  0  0  0  0
   37.8490   33.5250   49.7020 C   0  0  0  0  0  0  0  0  0  0  0  0
   35.0572   31.0810   47.7141 H   0  0  0  0  0  0  0  0  0  0  0  0
   33.9330   28.7486   47.0785 H   0  0  0  0  0  0  0  0  0  0  0  0
   35.4572   27.9590   47.6468 H   0  0  0  0  0  0  0  0  0  0  0  0
   33.4221   29.5144   49.3011 H   0  0  0  0  0  0  0  0  0  0  0  0
   33.8721   27.7745   49.4323 H   0  0  0  0  0  0  0  0  0  0  0  0
   35.1052   30.1264   50.5849 H   0  0  0  0  0  0  0  0  0  0  0  0
   35.3292   28.3566   50.9441 H   0  0  0  0  0  0  0  0  0  0  0  0
   37.3746   29.4495   50.3028 H   0  0  0  0  0  0  0  0  0  0  0  0
   36.8119   28.1479   49.1354 H   0  0  0  0  0  0  0  0  0  0  0  0
   37.5434   29.5563   47.8300 H   0  0  0  0  0  0  0  0  0  0  0  0
   34.3279   30.2354   43.0860 H   0  0  0  0  0  0  0  0  0  0  0  0
   36.6476   30.3892   42.2788 H   0  0  0  0  0  0  0  0  0  0  0  0
   38.5554   30.3497   43.9567 H   0  0  0  0  0  0  0  0  0  0  0  0
   37.9701   30.1627   46.3412 H   0  0  0  0  0  0  0  0  0  0  0  0
   33.6597   27.7579   45.1055 H   0  0  0  0  0  0  0  0  0  0  0  0
   32.8332   31.9149   45.8725 H   0  0  0  0  0  0  0  0  0  0  0  0
   29.7617   28.9722   46.2117 H   0  0  0  0  0  0  0  0  0  0  0  0
   38.9262   31.0466   47.0616 H   0  0  0  0  0  0  0  0  0  0  0  0
   40.1835   33.0927   47.2729 H   0  0  0  0  0  0  0  0  0  0  0  0
   39.4817   34.7423   49.0204 H   0  0  0  0  0  0  0  0  0  0  0  0
   37.5275   34.2399   50.4737 H   0  0  0  0  0  0  0  0  0  0  0  0
  1  2  1  0
  1  6  1  0
  2  3  1  0
  3  4  1  0
  5  4  1  0
  6 21  1  0
  6  5  1  0
  7 14  1  0
  7 12  1  0
  8  7  2  0
  9  8  1  0
  9 10  2  0
 10 11  1  0
 11 12  2  0
 12  1  1  0
 13 14  2  0
 13 18  1  0
 14 15  1  0
 15 16  2  0
 17 16  1  0
 18 17  2  0
 20 25  2  0
 20 19  1  0
 21 20  1  0
 22 23  1  0
 22 21  2  0
 23 24  2  0
 24 25  1  0
  1 26  1  6
  2 27  1  0
  2 28  1  0
  3 29  1  0
  3 30  1  0
  4 31  1  0
  4 32  1  0
  5 33  1  0
  5 34  1  0
  6 35  1  6
  8 36  1  0
  9 37  1  0
 10 38  1  0
 11 39  1  0
 13 40  1  0
 15 41  1  0
 17 42  1  0
 22 43  1  0
 23 44  1  0
 24 45  1  0
 25 46  1  0
M  ISO  8  26  13  27  13  28  13  29  13  30  13  31  13  32  13  33  13
M  ISO  8  34  13  35  13  36  14  37  14  38  14  39  14  40  14  41  14
M  ISO  5  42  14  43  14  44  14  45  14  46  14
M  END
>  <minimizedAffinity>  (1) 
-6.49880505

>  <minimizedRMSD>  (1) 
3.50513816

$$$$
