
     RDKit          3D

 44 47  0  0  0  0  0  0  0  0999 V2000
   33.1290   28.0300   47.8740 C   0  0  0  0  0  0  0  0  0  0  0  0
   33.5540   26.8940   47.0030 C   0  0  0  0  0  0  0  0  0  0  0  0
   33.7450   25.6100   47.4780 C   0  0  0  0  0  0  0  0  0  0  0  0
   34.1410   24.6040   46.6090 C   0  0  0  0  0  0  0  0  0  0  0  0
   34.3530   24.8530   45.2660 C   0  0  0  0  0  0  0  0  0  0  0  0
   34.1640   26.1160   44.8100 C   0  0  0  0  0  0  0  0  0  0  0  0
   33.7720   27.1240   45.6570 C   0  0  0  0  0  0  0  0  0  0  0  0
   31.3160   28.3910   44.9700 F   0  0  0  0  0  0  0  0  0  0  0  0
   32.4380   29.1010   44.7030 C   0  0  0  0  0  0  0  0  0  0  0  0
   33.5990   28.4430   45.0540 C   0  0  0  0  0  0  0  0  0  0  0  0
   34.8350   29.0620   44.8310 C   0  0  0  0  0  0  0  0  0  0  0  0
   34.9200   30.3150   44.2700 C   0  0  0  0  0  0  0  0  0  0  0  0
   33.7510   30.9540   43.9270 C   0  0  0  0  0  0  0  0  0  0  0  0
   32.5250   30.3580   44.1390 C   0  0  0  0  0  0  0  0  0  0  0  0
   34.9950   28.3640   49.4740 C   0  0  0  0  0  0  0  0  0  0  0  0
   34.2560   28.7500   48.4850 C   0  0  0  0  0  0  0  0  0  0  0  0
   37.3930   30.1720   51.5690 C   0  0  0  0  0  0  0  0  0  0  0  0
   38.0880   30.9380   50.6130 C   0  0  0  0  0  0  0  0  0  0  0  0
   37.7070   30.8060   49.2630 C   0  0  0  0  0  0  0  0  0  0  0  0
   36.6830   29.9460   48.9430 N   0  0  0  0  0  0  0  0  0  0  0  0
   36.0660   29.2470   49.9190 C   0  0  0  0  0  0  0  0  0  0  0  0
   36.4040   29.3490   51.2090 N   0  0  0  0  0  0  0  0  0  0  0  0
   38.3610   31.5530   48.1870 C   0  0  0  0  0  0  0  0  0  0  0  0
   38.5560   31.0200   46.9340 C   0  0  0  0  0  0  0  0  0  0  0  0
   39.2020   31.9930   46.1570 C   0  0  0  0  0  0  0  0  0  0  0  0
   39.3690   33.0670   46.9700 N   0  0  0  0  0  0  0  0  0  0  0  0
   38.8690   32.8050   48.1750 N   0  0  0  0  0  0  0  0  0  0  0  0
   32.4914   27.6335   48.6779 H   0  0  0  0  0  0  0  0  0  0  0  0
   32.5936   28.7472   47.2345 H   0  0  0  0  0  0  0  0  0  0  0  0
   33.5833   25.3865   48.5428 H   0  0  0  0  0  0  0  0  0  0  0  0
   34.2896   23.5856   46.9972 H   0  0  0  0  0  0  0  0  0  0  0  0
   34.6667   24.0480   44.5852 H   0  0  0  0  0  0  0  0  0  0  0  0
   34.3272   26.3369   43.7448 H   0  0  0  0  0  0  0  0  0  0  0  0
   35.7588   28.5344   45.1107 H   0  0  0  0  0  0  0  0  0  0  0  0
   35.8960   30.7930   44.1003 H   0  0  0  0  0  0  0  0  0  0  0  0
   33.7945   31.9565   43.4764 H   0  0  0  0  0  0  0  0  0  0  0  0
   31.6055   30.8909   43.8552 H   0  0  0  0  0  0  0  0  0  0  0  0
   34.8200   27.3958   49.9658 H   0  0  0  0  0  0  0  0  0  0  0  0
   34.4990   29.7309   48.0506 H   0  0  0  0  0  0  0  0  0  0  0  0
   37.6693   30.2528   52.6307 H   0  0  0  0  0  0  0  0  0  0  0  0
   38.9011   31.6166   50.9104 H   0  0  0  0  0  0  0  0  0  0  0  0
   38.2594   30.0142   46.6018 H   0  0  0  0  0  0  0  0  0  0  0  0
   39.5100   31.9039   45.1048 H   0  0  0  0  0  0  0  0  0  0  0  0
   39.8163   33.9531   46.6951 H   0  0  0  0  0  0  0  0  0  0  0  0
  1 16  1  0
  2  3  2  0
  2  1  1  0
  4  3  1  0
  5  4  2  0
  6  5  1  0
  6  7  2  0
  7  2  1  0
  9  8  1  0
  9 10  2  0
 10  7  1  0
 11 10  1  0
 12 11  2  0
 13 14  2  0
 13 12  1  0
 14  9  1  0
 15 21  1  0
 16 15  2  0
 18 17  2  0
 19 18  1  0
 20 19  2  0
 20 21  1  0
 21 22  2  0
 22 17  1  0
 23 19  1  0
 24 23  1  0
 25 24  2  0
 25 26  1  0
 26 27  1  0
 27 23  2  0
  1 28  1  0
  1 29  1  0
  3 30  1  0
  4 31  1  0
  5 32  1  0
  6 33  1  0
 11 34  1  0
 12 35  1  0
 13 36  1  0
 14 37  1  0
 15 38  1  0
 16 39  1  0
 17 40  1  0
 18 41  1  0
 24 42  1  0
 25 43  1  0
 26 44  1  0
M  ISO  8  28   8  29   8  30  14  31  14  32  14  33  14  34  14  35  14
M  ISO  7  36  14  37  14  40  14  41  14  42  14  43  14  44   9
M  END
>  <minimizedAffinity>  (1) 
-6.43407583

>  <minimizedRMSD>  (1) 
0.670117021

$$$$
