
     RDKit          3D

 44 47  0  0  1  0  0  0  0  0999 V2000
   31.6280   27.4950   48.6410 N   0  0  0  0  0  0  0  0  0  0  0  0
   32.7290   28.2940   49.1730 C   0  0  0  0  0  0  0  0  0  0  0  0
   33.7570   28.6400   48.1900 C   0  0  2  0  0  0  0  0  0  0  0  0
   34.1180   27.4950   47.3080 N   0  0  0  0  0  0  0  0  0  0  0  0
   32.8620   27.0080   46.7100 C   0  0  0  0  0  0  0  0  0  0  0  0
   32.1360   26.3960   47.8930 C   0  0  0  0  0  0  0  0  0  0  0  0
   35.5670   30.3100   46.5240 Cl  0  0  0  0  0  0  0  0  0  0  0  0
   35.8570   29.9300   48.2190 C   0  0  0  0  0  0  0  0  0  0  0  0
   34.9540   29.1230   48.8550 C   0  0  0  0  0  0  0  0  0  0  0  0
   35.0500   28.7370   50.2010 C   0  0  0  0  0  0  0  0  0  0  0  0
   36.1680   29.2360   50.8870 C   0  0  0  0  0  0  0  0  0  0  0  0
   37.0990   30.0590   50.2410 C   0  0  0  0  0  0  0  0  0  0  0  0
   36.9300   30.3910   48.9280 C   0  0  0  0  0  0  0  0  0  0  0  0
   37.5680   33.0920   49.5520 F   0  0  0  0  0  0  0  0  0  0  0  0
   38.1990   32.5620   48.4760 C   0  0  0  0  0  0  0  0  0  0  0  0
   37.8640   31.2470   48.2030 C   0  0  0  0  0  0  0  0  0  0  0  0
   38.4500   30.6100   47.1290 C   0  0  0  0  0  0  0  0  0  0  0  0
   39.3680   31.2550   46.3140 C   0  0  0  0  0  0  0  0  0  0  0  0
   39.7020   32.5830   46.5960 C   0  0  0  0  0  0  0  0  0  0  0  0
   39.1120   33.2140   47.6720 C   0  0  0  0  0  0  0  0  0  0  0  0
   30.2700   27.8120   48.8820 C   0  0  0  0  0  0  0  0  0  0  0  0
   29.4740   28.4390   47.9280 C   0  0  0  0  0  0  0  0  0  0  0  0
   28.1470   28.7130   48.2360 C   0  0  0  0  0  0  0  0  0  0  0  0
   27.6760   28.3480   49.4850 N   0  0  0  0  0  0  0  0  0  0  0  0
   28.4980   27.7370   50.3820 C   0  0  0  0  0  0  0  0  0  0  0  0
   29.7570   27.4740   50.0950 N   0  0  0  0  0  0  0  0  0  0  0  0
   32.3118   29.2280   49.5774 H   0  0  0  0  0  0  0  0  0  0  0  0
   33.2225   27.6771   49.9384 H   0  0  0  0  0  0  0  0  0  0  0  0
   33.3281   29.4312   47.5575 H   0  0  0  0  0  0  0  0  0  0  0  0
   34.7654   27.8061   46.5697 H   0  0  0  0  0  0  0  0  0  0  0  0
   32.2831   27.8368   46.2764 H   0  0  0  0  0  0  0  0  0  0  0  0
   33.0213   26.2985   45.8847 H   0  0  0  0  0  0  0  0  0  0  0  0
   31.3127   25.7534   47.5476 H   0  0  0  0  0  0  0  0  0  0  0  0
   32.8039   25.7657   48.4985 H   0  0  0  0  0  0  0  0  0  0  0  0
   34.3027   28.0899   50.6835 H   0  0  0  0  0  0  0  0  0  0  0  0
   36.3150   28.9773   51.9460 H   0  0  0  0  0  0  0  0  0  0  0  0
   37.9703   30.4395   50.7943 H   0  0  0  0  0  0  0  0  0  0  0  0
   38.1826   29.5649   46.9138 H   0  0  0  0  0  0  0  0  0  0  0  0
   39.8250   30.7314   45.4613 H   0  0  0  0  0  0  0  0  0  0  0  0
   40.4275   33.1192   45.9667 H   0  0  0  0  0  0  0  0  0  0  0  0
   39.3749   34.2589   47.8937 H   0  0  0  0  0  0  0  0  0  0  0  0
   29.8884   28.7131   46.9466 H   0  0  0  0  0  0  0  0  0  0  0  0
   27.4884   29.2069   47.5064 H   0  0  0  0  0  0  0  0  0  0  0  0
   28.1021   27.4564   51.3692 H   0  0  0  0  0  0  0  0  0  0  0  0
  1 21  1  0
  1  2  1  0
  3  9  1  0
  3  2  1  0
  4  3  1  0
  5  4  1  0
  5  6  1  0
  6  1  1  0
  7  8  1  0
  8  9  2  0
  8 13  1  0
  9 10  1  0
 10 11  2  0
 12 11  1  0
 13 12  2  0
 15 14  1  0
 16 15  2  0
 16 13  1  0
 17 16  1  0
 18 19  1  0
 18 17  2  0
 19 20  2  0
 20 15  1  0
 21 26  2  0
 22 23  2  0
 22 21  1  0
 23 24  1  0
 24 25  2  0
 26 25  1  0
  2 27  1  0
  2 28  1  0
  3 29  1  6
  4 30  1  0
  5 31  1  0
  5 32  1  0
  6 33  1  0
  6 34  1  0
 10 35  1  0
 11 36  1  0
 12 37  1  0
 17 38  1  0
 18 39  1  0
 19 40  1  0
 20 41  1  0
 22 42  1  0
 23 43  1  0
 25 44  1  0
M  ISO  8  27  13  28  13  29  13  30   5  31  13  32  13  33  13  34  13
M  ISO  8  35  14  36  14  37  14  38  14  39  14  40  14  41  14  42  14
M  ISO  2  43  14  44  14
M  END
>  <minimizedAffinity>  (1) 
-7.64188957

>  <minimizedRMSD>  (1) 
4.57912683

$$$$
