
     RDKit          3D

 44 48  0  0  0  0  0  0  0  0999 V2000
   34.4320   28.1800   48.1030 C   0  0  0  0  0  0  0  0  0  0  0  0
   32.9640   28.2500   47.7600 C   0  0  0  0  0  0  0  0  0  0  0  0
   31.9600   27.4320   48.2180 C   0  0  0  0  0  0  0  0  0  0  0  0
   30.7620   27.8400   47.6570 C   0  0  0  0  0  0  0  0  0  0  0  0
   31.0760   28.8990   46.8700 N   0  0  0  0  0  0  0  0  0  0  0  0
   32.3710   29.1350   46.9340 N   0  0  0  0  0  0  0  0  0  0  0  0
   28.7070   29.2900   46.1800 N   0  0  0  0  0  0  0  0  0  0  0  0
   30.0230   29.5290   46.1570 C   0  0  0  0  0  0  0  0  0  0  0  0
   30.2160   30.5450   45.2820 N   0  0  0  0  0  0  0  0  0  0  0  0
   29.0440   30.9420   44.7590 C   0  0  0  0  0  0  0  0  0  0  0  0
   28.7420   31.9190   43.8440 C   0  0  0  0  0  0  0  0  0  0  0  0
   27.4590   32.1110   43.4880 N   0  0  0  0  0  0  0  0  0  0  0  0
   26.5130   31.3320   44.0440 C   0  0  0  0  0  0  0  0  0  0  0  0
   26.7790   30.3600   44.9490 N   0  0  0  0  0  0  0  0  0  0  0  0
   28.0630   30.1410   45.3290 C   0  0  0  0  0  0  0  0  0  0  0  0
   34.5140   28.3270   49.5940 C   0  0  0  0  0  0  0  0  0  0  0  0
   37.1530   29.9940   51.5750 C   0  0  0  0  0  0  0  0  0  0  0  0
   37.8740   30.6680   50.5750 C   0  0  0  0  0  0  0  0  0  0  0  0
   37.4520   30.5440   49.2420 C   0  0  0  0  0  0  0  0  0  0  0  0
   36.3710   29.7860   48.9720 N   0  0  0  0  0  0  0  0  0  0  0  0
   35.6900   29.1420   49.9690 C   0  0  0  0  0  0  0  0  0  0  0  0
   36.0930   29.2610   51.2320 N   0  0  0  0  0  0  0  0  0  0  0  0
   38.4700   33.1950   49.5480 F   0  0  0  0  0  0  0  0  0  0  0  0
   38.6850   32.5240   48.4040 C   0  0  0  0  0  0  0  0  0  0  0  0
   38.2090   31.2450   48.2220 C   0  0  0  0  0  0  0  0  0  0  0  0
   38.5220   30.7160   46.9940 C   0  0  0  0  0  0  0  0  0  0  0  0
   39.2380   31.3710   46.0170 C   0  0  0  0  0  0  0  0  0  0  0  0
   39.6920   32.6510   46.2520 C   0  0  0  0  0  0  0  0  0  0  0  0
   39.4080   33.2410   47.4750 C   0  0  0  0  0  0  0  0  0  0  0  0
   34.9799   28.9951   47.6076 H   0  0  0  0  0  0  0  0  0  0  0  0
   34.8807   27.2341   47.7654 H   0  0  0  0  0  0  0  0  0  0  0  0
   32.0870   26.5911   48.9157 H   0  0  0  0  0  0  0  0  0  0  0  0
   29.7669   27.3990   47.8158 H   0  0  0  0  0  0  0  0  0  0  0  0
   28.2473   28.5698   46.7552 H   0  0  0  0  0  0  0  0  0  0  0  0
   29.5395   32.5378   43.4068 H   0  0  0  0  0  0  0  0  0  0  0  0
   25.4662   31.4935   43.7472 H   0  0  0  0  0  0  0  0  0  0  0  0
   33.6008   28.8188   49.9603 H   0  0  0  0  0  0  0  0  0  0  0  0
   34.6136   27.3289   50.0455 H   0  0  0  0  0  0  0  0  0  0  0  0
   37.4593   30.0701   52.6287 H   0  0  0  0  0  0  0  0  0  0  0  0
   38.7511   31.2803   50.8314 H   0  0  0  0  0  0  0  0  0  0  0  0
   38.1757   29.6952   46.7749 H   0  0  0  0  0  0  0  0  0  0  0  0
   39.4460   30.8766   45.0566 H   0  0  0  0  0  0  0  0  0  0  0  0
   40.2669   33.1928   45.4866 H   0  0  0  0  0  0  0  0  0  0  0  0
   39.7531   34.2612   47.6990 H   0  0  0  0  0  0  0  0  0  0  0  0
  1 16  1  0
  2  1  1  0
  2  3  1  0
  4  3  2  0
  5  6  1  0
  5  4  1  0
  6  2  2  0
  8  7  1  0
  8  5  1  0
  9  8  2  0
 10  9  1  0
 10 15  2  0
 11 10  1  0
 12 11  2  0
 12 13  1  0
 13 14  2  0
 14 15  1  0
 15  7  1  0
 16 21  1  0
 18 17  2  0
 19 18  1  0
 20 19  2  0
 20 21  1  0
 21 22  2  0
 22 17  1  0
 24 23  1  0
 25 24  2  0
 25 19  1  0
 26 25  1  0
 27 28  1  0
 27 26  2  0
 28 29  2  0
 29 24  1  0
  1 30  1  0
  1 31  1  0
  3 32  1  0
  4 33  1  0
  7 34  1  0
 11 35  1  0
 13 36  1  0
 16 37  1  0
 16 38  1  0
 17 39  1  0
 18 40  1  0
 26 41  1  0
 27 42  1  0
 28 43  1  0
 29 44  1  0
M  ISO  8  30   8  31   8  32  14  33  14  34   9  35  14  36  14  37   8
M  ISO  7  38   8  39  14  40  14  41  14  42  14  43  14  44  14
M  END
>  <minimizedAffinity>  (1) 
-7.50034046

>  <minimizedRMSD>  (1) 
0.699858665

$$$$
