
     RDKit          3D

 36 38  0  0  1  0  0  0  0  0999 V2000
   37.3560   30.0940   46.7810 C   0  0  1  0  0  0  0  0  0  0  0  0
   36.6910   30.6290   45.5890 C   0  0  0  0  0  0  0  0  0  0  0  0
   37.3840   30.0760   44.3660 C   0  0  0  0  0  0  0  0  0  0  0  0
   38.8520   30.1110   44.5340 C   0  0  0  0  0  0  0  0  0  0  0  0
   39.4130   30.9020   45.6550 C   0  0  0  0  0  0  0  0  0  0  0  0
   38.6920   30.7130   46.9660 C   0  0  1  0  0  0  0  0  0  0  0  0
   36.4160   29.4070   50.3050 C   0  0  0  0  0  0  0  0  0  0  0  0
   37.1370   29.3710   49.0840 C   0  0  0  0  0  0  0  0  0  0  0  0
   36.6150   30.1300   48.0380 C   0  0  0  0  0  0  0  0  0  0  0  0
   35.4600   30.8630   48.2080 N   0  0  0  0  0  0  0  0  0  0  0  0
   34.8100   30.8630   49.3890 C   0  0  0  0  0  0  0  0  0  0  0  0
   35.2810   30.1400   50.4370 N   0  0  0  0  0  0  0  0  0  0  0  0
   39.7360   33.2710   46.1510 F   0  0  0  0  0  0  0  0  0  0  0  0
   39.3840   33.1030   47.4710 C   0  0  0  0  0  0  0  0  0  0  0  0
   38.8590   31.8540   47.8520 C   0  0  0  0  0  0  0  0  0  0  0  0
   38.5490   31.8890   49.1930 C   0  0  0  0  0  0  0  0  0  0  0  0
   38.7100   32.9490   50.0590 C   0  0  0  0  0  0  0  0  0  0  0  0
   39.2360   34.1270   49.5770 C   0  0  0  0  0  0  0  0  0  0  0  0
   39.5800   34.2100   48.2650 C   0  0  0  0  0  0  0  0  0  0  0  0
   37.4371   29.0213   46.5512 H   0  0  0  0  0  0  0  0  0  0  0  0
   35.6338   30.3252   45.5858 H   0  0  0  0  0  0  0  0  0  0  0  0
   36.7442   31.7277   45.5884 H   0  0  0  0  0  0  0  0  0  0  0  0
   37.1067   30.6807   43.4900 H   0  0  0  0  0  0  0  0  0  0  0  0
   37.0700   29.0313   44.2249 H   0  0  0  0  0  0  0  0  0  0  0  0
   39.1892   29.0725   44.6676 H   0  0  0  0  0  0  0  0  0  0  0  0
   39.2160   30.6238   43.6315 H   0  0  0  0  0  0  0  0  0  0  0  0
   40.4637   30.6072   45.7934 H   0  0  0  0  0  0  0  0  0  0  0  0
   39.3003   31.9616   45.3819 H   0  0  0  0  0  0  0  0  0  0  0  0
   39.1773   29.9349   47.5735 H   0  0  0  0  0  0  0  0  0  0  0  0
   36.7849   28.8279   51.1644 H   0  0  0  0  0  0  0  0  0  0  0  0
   38.0561   28.7776   48.9691 H   0  0  0  0  0  0  0  0  0  0  0  0
   33.8896   31.4542   49.5045 H   0  0  0  0  0  0  0  0  0  0  0  0
   38.1256   30.9683   49.6209 H   0  0  0  0  0  0  0  0  0  0  0  0
   38.4233   32.8557   51.1169 H   0  0  0  0  0  0  0  0  0  0  0  0
   39.3758   34.9894   50.2453 H   0  0  0  0  0  0  0  0  0  0  0  0
   40.0033   35.1362   47.8491 H   0  0  0  0  0  0  0  0  0  0  0  0
  1  6  1  0
  1  9  1  0
  2  1  1  0
  3  4  1  0
  3  2  1  0
  4  5  1  0
  5  6  1  0
  6 15  1  0
  7 12  2  0
  8  7  1  0
  9 10  1  0
  9  8  2  0
 10 11  2  0
 11 12  1  0
 13 14  1  0
 14 15  2  0
 14 19  1  0
 15 16  1  0
 16 17  2  0
 18 17  1  0
 19 18  2  0
  1 20  1  6
  2 21  1  0
  2 22  1  0
  3 23  1  0
  3 24  1  0
  4 25  1  0
  4 26  1  0
  5 27  1  0
  5 28  1  0
  6 29  1  1
  7 30  1  0
  8 31  1  0
 11 32  1  0
 16 33  1  0
 17 34  1  0
 18 35  1  0
 19 36  1  0
M  ISO  8  20  13  21  13  22  13  23  13  24  13  25  13  26  13  27  13
M  ISO  8  28  13  29  13  30  14  31  14  32  14  33  14  34  14  35  14
M  ISO  1  36  14
M  END
>  <minimizedAffinity>  (1) 
-5.13548374

>  <minimizedRMSD>  (1) 
2.16330814

$$$$
