
     RDKit          3D

 41 45  0  0  1  0  0  0  0  0999 V2000
   31.8710   28.5040   46.7620 C   0  0  1  0  0  0  0  0  0  0  0  0
   32.5510   27.5530   45.7150 C   0  0  0  0  0  0  0  0  0  0  0  0
   32.7750   29.0210   45.7180 C   0  0  2  0  0  0  0  0  0  0  0  0
   28.3320   29.0370   47.1960 C   0  0  0  0  0  0  0  0  0  0  0  0
   28.3890   28.8530   45.8240 C   0  0  0  0  0  0  0  0  0  0  0  0
   29.7300   28.6250   45.4670 C   0  0  0  0  0  0  0  0  0  0  0  0
   30.4350   28.6790   46.6140 N   0  0  0  0  0  0  0  0  0  0  0  0
   29.5870   28.9190   47.5910 N   0  0  0  0  0  0  0  0  0  0  0  0
   26.2910   28.2740   48.4280 C   0  0  0  0  0  0  0  0  0  0  0  0
   27.1140   29.2940   47.9150 C   0  0  0  0  0  0  0  0  0  0  0  0
   26.6980   30.5930   48.1340 C   0  0  0  0  0  0  0  0  0  0  0  0
   25.5470   30.8310   48.8140 N   0  0  0  0  0  0  0  0  0  0  0  0
   24.7890   29.8120   49.2870 C   0  0  0  0  0  0  0  0  0  0  0  0
   25.1650   28.5150   49.0920 N   0  0  0  0  0  0  0  0  0  0  0  0
   34.1120   29.5720   46.1100 C   0  0  0  0  0  0  0  0  0  0  0  0
   35.0650   30.0410   45.2040 C   0  0  0  0  0  0  0  0  0  0  0  0
   36.1440   30.4540   45.9190 N   0  0  0  0  0  0  0  0  0  0  0  0
   35.8720   30.2460   47.2360 C   0  0  0  0  0  0  0  0  0  0  0  0
   34.6340   29.7090   47.3580 N   0  0  0  0  0  0  0  0  0  0  0  0
   36.1070   28.6010   49.4370 F   0  0  0  0  0  0  0  0  0  0  0  0
   36.8710   29.7190   49.4450 C   0  0  0  0  0  0  0  0  0  0  0  0
   36.7620   30.5490   48.3500 C   0  0  0  0  0  0  0  0  0  0  0  0
   37.5250   31.6990   48.3230 C   0  0  0  0  0  0  0  0  0  0  0  0
   38.3780   32.0170   49.3600 C   0  0  0  0  0  0  0  0  0  0  0  0
   38.4250   31.1330   50.4120 C   0  0  0  0  0  0  0  0  0  0  0  0
   37.6940   29.9610   50.5160 C   0  0  0  0  0  0  0  0  0  0  0  0
   31.8274   28.6041   47.8566 H   0  0  0  0  0  0  0  0  0  0  0  0
   31.9536   27.0830   44.9199 H   0  0  0  0  0  0  0  0  0  0  0  0
   33.1858   26.6556   45.7562 H   0  0  0  0  0  0  0  0  0  0  0  0
   32.6724   29.7969   44.9451 H   0  0  0  0  0  0  0  0  0  0  0  0
   27.5333   28.8805   45.1333 H   0  0  0  0  0  0  0  0  0  0  0  0
   30.1235   28.4401   44.4566 H   0  0  0  0  0  0  0  0  0  0  0  0
   26.5939   27.2281   48.2721 H   0  0  0  0  0  0  0  0  0  0  0  0
   27.2988   31.4341   47.7577 H   0  0  0  0  0  0  0  0  0  0  0  0
   23.8606   30.0329   49.8340 H   0  0  0  0  0  0  0  0  0  0  0  0
   34.9611   30.0708   44.1093 H   0  0  0  0  0  0  0  0  0  0  0  0
   37.0119   30.8528   45.5335 H   0  0  0  0  0  0  0  0  0  0  0  0
   37.4516   32.3749   47.4582 H   0  0  0  0  0  0  0  0  0  0  0  0
   38.9894   32.9314   49.3457 H   0  0  0  0  0  0  0  0  0  0  0  0
   39.1022   31.3778   51.2436 H   0  0  0  0  0  0  0  0  0  0  0  0
   37.7668   29.2845   51.3803 H   0  0  0  0  0  0  0  0  0  0  0  0
  2  3  1  0
  2  1  1  0
  3 15  1  0
  3  1  1  0
  4  8  2  0
  4 10  1  0
  5  4  1  0
  6  5  2  0
  6  7  1  0
  7  1  1  0
  7  8  1  0
  9 14  2  0
 10 11  2  0
 10  9  1  0
 11 12  1  0
 12 13  2  0
 14 13  1  0
 15 19  1  0
 16 17  1  0
 16 15  2  0
 17 18  1  0
 18 19  2  0
 18 22  1  0
 20 21  1  0
 21 26  2  0
 22 21  1  0
 23 22  2  0
 23 24  1  0
 24 25  2  0
 25 26  1  0
  1 27  1  1
  2 28  1  0
  2 29  1  0
  3 30  1  6
  5 31  1  0
  6 32  1  0
  9 33  1  0
 11 34  1  0
 13 35  1  0
 16 36  1  0
 17 37  1  0
 23 38  1  0
 24 39  1  0
 25 40  1  0
 26 41  1  0
M  ISO  8  27  13  28  13  29  13  30  13  31  14  32  14  33  14  34  14
M  ISO  7  35  14  36  14  37   9  38  14  39  14  40  14  41  14
M  END
>  <minimizedAffinity>  (1) 
-6.9693594

>  <minimizedRMSD>  (1) 
5.72904682

$$$$
