
     RDKit          3D

 26 27  0  0  0  0  0  0  0  0999 V2000
   38.6560   32.3810   46.7580 C   0  0  0  0  0  0  0  0  0  0  0  0
   37.7730   31.5130   47.3960 C   0  0  0  0  0  0  0  0  0  0  0  0
   37.5600   31.6220   48.7430 C   0  0  0  0  0  0  0  0  0  0  0  0
   38.2310   32.5890   49.4030 N   0  0  0  0  0  0  0  0  0  0  0  0
   39.0870   33.4330   48.7860 C   0  0  0  0  0  0  0  0  0  0  0  0
   39.3040   33.3300   47.4470 N   0  0  0  0  0  0  0  0  0  0  0  0
   38.0650   30.4650   51.3760 F   0  0  0  0  0  0  0  0  0  0  0  0
   36.8840   30.2320   50.7640 C   0  0  0  0  0  0  0  0  0  0  0  0
   36.6750   30.7880   49.5280 C   0  0  0  0  0  0  0  0  0  0  0  0
   35.4330   30.4780   49.0100 C   0  0  0  0  0  0  0  0  0  0  0  0
   34.5110   29.6930   49.6680 C   0  0  0  0  0  0  0  0  0  0  0  0
   34.7830   29.1640   50.9110 C   0  0  0  0  0  0  0  0  0  0  0  0
   36.0150   29.4550   51.4560 C   0  0  0  0  0  0  0  0  0  0  0  0
   38.9510   32.3580   45.3940 O   0  0  0  0  0  0  0  0  0  0  0  0
   41.4380   31.3120   45.4660 O   0  0  0  0  0  0  0  0  0  0  0  0
   40.0940   31.2520   44.7390 P   0  0  0  0  0  0  0  0  0  0  0  0
   39.4010   29.7060   44.8930 O   0  0  0  0  0  0  0  0  0  0  0  0
   40.4090   31.6270   43.1270 O   0  0  0  0  0  0  0  0  0  0  0  0
   37.2469   30.7399   46.8168 H   0  0  0  0  0  0  0  0  0  0  0  0
   39.6101   34.2059   49.3683 H   0  0  0  0  0  0  0  0  0  0  0  0
   35.1657   30.8784   48.0209 H   0  0  0  0  0  0  0  0  0  0  0  0
   33.5410   29.4851   49.1927 H   0  0  0  0  0  0  0  0  0  0  0  0
   34.0511   28.5387   51.4433 H   0  0  0  0  0  0  0  0  0  0  0  0
   36.2910   29.0599   52.4448 H   0  0  0  0  0  0  0  0  0  0  0  0
   39.3011   29.4832   45.8524 H   0  0  0  0  0  0  0  0  0  0  0  0
   41.0451   32.3843   43.0826 H   0  0  0  0  0  0  0  0  0  0  0  0
  1  2  2  0
  1  6  1  0
  2  3  1  0
  3  4  2  0
  3  9  1  0
  5  4  1  0
  6  5  2  0
  8  7  1  0
  8 13  2  0
  9  8  1  0
 10  9  2  0
 10 11  1  0
 11 12  2  0
 12 13  1  0
 14  1  1  0
 16 17  1  0
 16 14  1  0
 16 15  2  0
 18 16  1  0
  2 19  1  0
  5 20  1  0
 10 21  1  0
 11 22  1  0
 12 23  1  0
 13 24  1  0
 17 25  1  0
 18 26  1  0
M  ISO  8  19  14  20  14  21  14  22  14  23  14  24  14  25   3  26   3
M  END
>  <minimizedAffinity>  (1) 
-6.15290356

>  <minimizedRMSD>  (1) 
5.09205055

$$$$
