
     RDKit          3D

 40 42  0  0  1  0  0  0  0  0999 V2000
   35.6550   29.8920   48.0520 C   0  0  0  0  0  0  0  0  0  0  0  0
   36.7410   30.4700   47.6500 C   0  0  0  0  0  0  0  0  0  0  0  0
   33.6420   29.6660   44.9250 C   0  0  0  0  0  0  0  0  0  0  0  0
   34.6660   29.9130   45.8260 C   0  0  0  0  0  0  0  0  0  0  0  0
   34.5530   29.6080   47.1610 C   0  0  0  0  0  0  0  0  0  0  0  0
   33.3980   29.0580   47.5580 N   0  0  0  0  0  0  0  0  0  0  0  0
   32.4030   28.8150   46.7060 C   0  0  0  0  0  0  0  0  0  0  0  0
   32.5060   29.1090   45.3990 N   0  0  0  0  0  0  0  0  0  0  0  0
   32.1450   27.7860   49.2650 F   0  0  0  0  0  0  0  0  0  0  0  0
   31.0580   27.7060   48.4650 C   0  0  0  0  0  0  0  0  0  0  0  0
   31.1560   28.2130   47.1740 C   0  0  0  0  0  0  0  0  0  0  0  0
   30.0370   28.1250   46.3630 C   0  0  0  0  0  0  0  0  0  0  0  0
   28.8970   27.5440   46.8750 C   0  0  0  0  0  0  0  0  0  0  0  0
   28.7840   27.0380   48.1470 C   0  0  0  0  0  0  0  0  0  0  0  0
   29.9030   27.1180   48.9800 C   0  0  0  0  0  0  0  0  0  0  0  0
   37.8140   30.7220   48.6690 C   0  0  1  0  0  0  0  0  0  0  0  0
   38.5910   31.9070   48.2800 C   0  0  0  0  0  0  0  0  0  0  0  0
   38.6730   32.8800   49.3120 C   0  0  0  0  0  0  0  0  0  0  0  0
   39.3470   34.0720   49.1850 C   0  0  0  0  0  0  0  0  0  0  0  0
   40.0090   34.3920   47.9870 C   0  0  0  0  0  0  0  0  0  0  0  0
   39.8800   33.3910   47.0340 C   0  0  0  0  0  0  0  0  0  0  0  0
   39.2280   32.2220   47.1330 N   0  0  0  0  0  0  0  0  0  0  0  0
   36.9810   31.1470   50.2360 S   0  0  0  0  0  0  0  0  0  0  0  0
   36.9590   29.7540   51.3490 C   0  0  0  0  0  0  0  0  0  0  0  0
   37.6110   29.9980   52.5460 F   0  0  0  0  0  0  0  0  0  0  0  0
   35.6750   29.2820   51.5510 F   0  0  0  0  0  0  0  0  0  0  0  0
   37.6400   28.7090   50.6930 F   0  0  0  0  0  0  0  0  0  0  0  0
   35.5675   29.6064   49.1107 H   0  0  0  0  0  0  0  0  0  0  0  0
   36.8730   30.7661   46.5989 H   0  0  0  0  0  0  0  0  0  0  0  0
   33.7507   29.9153   43.8591 H   0  0  0  0  0  0  0  0  0  0  0  0
   35.5987   30.3676   45.4607 H   0  0  0  0  0  0  0  0  0  0  0  0
   30.0576   28.5103   45.3329 H   0  0  0  0  0  0  0  0  0  0  0  0
   28.0161   27.4811   46.2192 H   0  0  0  0  0  0  0  0  0  0  0  0
   27.8448   26.5853   48.4978 H   0  0  0  0  0  0  0  0  0  0  0  0
   29.8739   26.7297   50.0088 H   0  0  0  0  0  0  0  0  0  0  0  0
   38.4648   29.8394   48.7550 H   0  0  0  0  0  0  0  0  0  0  0  0
   38.1689   32.6679   50.2664 H   0  0  0  0  0  0  0  0  0  0  0  0
   39.3682   34.7799   50.0267 H   0  0  0  0  0  0  0  0  0  0  0  0
   40.5648   35.3271   47.8237 H   0  0  0  0  0  0  0  0  0  0  0  0
   40.3774   33.5807   46.0714 H   0  0  0  0  0  0  0  0  0  0  0  0
  2  1  2  0
  2 16  1  0
  3  8  2  0
  3  4  1  0
  4  5  2  0
  5  6  1  0
  5  1  1  0
  7 11  1  0
  7  6  2  0
  8  7  1  0
 10 15  2  0
 10  9  1  0
 11 10  1  0
 12 13  1  0
 12 11  2  0
 13 14  2  0
 14 15  1  0
 16 23  1  0
 17 16  1  0
 17 18  2  0
 19 18  1  0
 20 19  2  0
 21 22  2  0
 21 20  1  0
 22 17  1  0
 23 24  1  0
 24 26  1  0
 24 25  1  0
 27 24  1  0
  1 28  1  0
  2 29  1  0
  3 30  1  0
  4 31  1  0
 12 32  1  0
 13 33  1  0
 14 34  1  0
 15 35  1  0
 16 36  1  1
 18 37  1  0
 19 38  1  0
 20 39  1  0
 21 40  1  0
M  ISO  8  30  14  31  14  32  14  33  14  34  14  35  14  36   8  37  14
M  ISO  3  38  14  39  14  40  14
M  END
>  <minimizedAffinity>  (1) 
-6.89421988

>  <minimizedRMSD>  (1) 
0.51806277

$$$$
