
     RDKit          3D

 44 47  0  0  1  0  0  0  0  0999 V2000
   31.4170   28.4050   47.3520 C   0  0  2  0  0  0  0  0  0  0  0  0
   32.5470   27.9260   48.2150 C   0  0  1  0  0  0  0  0  0  0  0  0
   32.5180   26.5650   48.2270 O   0  0  0  0  0  0  0  0  0  0  0  0
   31.6580   26.1140   47.2300 C   0  0  0  0  0  0  0  0  0  0  0  0
   31.4280   27.2670   46.2810 C   0  0  1  0  0  0  0  0  0  0  0  0
   31.7550   29.6240   46.7270 O   0  0  0  0  0  0  0  0  0  0  0  0
   34.1160   28.4580   47.4200 S   0  0  0  0  0  0  0  0  0  0  0  0
   35.9360   29.4070   50.8090 C   0  0  0  0  0  0  0  0  0  0  0  0
   36.6290   30.5840   50.5270 C   0  0  0  0  0  0  0  0  0  0  0  0
   36.5320   31.1110   49.2330 C   0  0  0  0  0  0  0  0  0  0  0  0
   35.7680   30.4480   48.3210 N   0  0  0  0  0  0  0  0  0  0  0  0
   35.1130   29.3090   48.6390 C   0  0  0  0  0  0  0  0  0  0  0  0
   35.1850   28.7740   49.8780 N   0  0  0  0  0  0  0  0  0  0  0  0
   30.1910   27.1270   45.7030 O   0  0  0  0  0  0  0  0  0  0  0  0
   29.3340   29.6580   44.4620 Cl  0  0  0  0  0  0  0  0  0  0  0  0
   28.5360   28.7290   45.7090 C   0  0  0  0  0  0  0  0  0  0  0  0
   29.0330   27.5460   46.2040 C   0  0  0  0  0  0  0  0  0  0  0  0
   28.2890   26.8820   47.1830 C   0  0  0  0  0  0  0  0  0  0  0  0
   27.0970   27.4030   47.6340 C   0  0  0  0  0  0  0  0  0  0  0  0
   26.5880   28.5930   47.1420 C   0  0  0  0  0  0  0  0  0  0  0  0
   27.3210   29.2520   46.1740 C   0  0  0  0  0  0  0  0  0  0  0  0
   26.9100   31.6200   47.6620 F   0  0  0  0  0  0  0  0  0  0  0  0
   26.5860   31.6750   46.3490 C   0  0  0  0  0  0  0  0  0  0  0  0
   26.7980   30.5050   45.6480 C   0  0  0  0  0  0  0  0  0  0  0  0
   26.4960   30.4630   44.2980 C   0  0  0  0  0  0  0  0  0  0  0  0
   25.9850   31.5700   43.6220 C   0  0  0  0  0  0  0  0  0  0  0  0
   25.7880   32.7230   44.3580 C   0  0  0  0  0  0  0  0  0  0  0  0
   26.0810   32.7940   45.7150 C   0  0  0  0  0  0  0  0  0  0  0  0
   30.4667   28.5794   47.8778 H   0  0  0  0  0  0  0  0  0  0  0  0
   32.4658   28.3258   49.2366 H   0  0  0  0  0  0  0  0  0  0  0  0
   32.1142   25.2694   46.6929 H   0  0  0  0  0  0  0  0  0  0  0  0
   30.7070   25.7691   47.6621 H   0  0  0  0  0  0  0  0  0  0  0  0
   32.1343   27.3949   45.4475 H   0  0  0  0  0  0  0  0  0  0  0  0
   31.9445   30.3075   47.4176 H   0  0  0  0  0  0  0  0  0  0  0  0
   36.0020   28.9796   51.8204 H   0  0  0  0  0  0  0  0  0  0  0  0
   37.2339   31.0836   51.2981 H   0  0  0  0  0  0  0  0  0  0  0  0
   37.0595   32.0369   48.9602 H   0  0  0  0  0  0  0  0  0  0  0  0
   28.6596   25.9330   47.5977 H   0  0  0  0  0  0  0  0  0  0  0  0
   26.5336   26.8589   48.4064 H   0  0  0  0  0  0  0  0  0  0  0  0
   25.6339   28.9992   47.5089 H   0  0  0  0  0  0  0  0  0  0  0  0
   26.6641   29.5288   43.7421 H   0  0  0  0  0  0  0  0  0  0  0  0
   25.7487   31.5275   42.5485 H   0  0  0  0  0  0  0  0  0  0  0  0
   25.3861   33.6139   43.8533 H   0  0  0  0  0  0  0  0  0  0  0  0
   25.9135   33.7259   46.2750 H   0  0  0  0  0  0  0  0  0  0  0  0
  1  2  1  0
  2  3  1  0
  4  3  1  0
  5  4  1  0
  5  1  1  0
  6  1  1  0
  7  2  1  0
  7 12  1  0
  9  8  2  0
 10  9  1  0
 11 12  1  0
 11 10  2  0
 12 13  2  0
 13  8  1  0
 14 17  1  0
 14  5  1  0
 15 16  1  0
 16 21  2  0
 16 17  1  0
 17 18  2  0
 18 19  1  0
 20 19  2  0
 21 20  1  0
 23 22  1  0
 24 21  1  0
 24 23  2  0
 25 24  1  0
 26 25  2  0
 26 27  1  0
 27 28  2  0
 28 23  1  0
  1 29  1  1
  2 30  1  1
  4 31  1  0
  4 32  1  0
  5 33  1  6
  6 34  1  0
  8 35  1  0
  9 36  1  0
 10 37  1  0
 18 38  1  0
 19 39  1  0
 20 40  1  0
 25 41  1  0
 26 42  1  0
 27 43  1  0
 28 44  1  0
M  ISO  8  29  13  30  13  31  13  32  13  33  13  34   3  35  14  36  14
M  ISO  8  37  14  38  14  39  14  40  14  41  14  42  14  43  14  44  14
M  END
>  <minimizedAffinity>  (1) 
-5.73402643

>  <minimizedRMSD>  (1) 
1.2826041

$$$$
