
     RDKit          3D

 31 33  0  0  1  0  0  0  0  0999 V2000
   39.0300   32.6510   45.3470 C   0  0  2  0  0  0  0  0  0  0  0  0
   40.4520   32.5590   45.6630 C   0  0  0  0  0  0  0  0  0  0  0  0
   39.5150   31.3460   45.7990 C   0  0  1  0  0  0  0  0  0  0  0  0
   36.7380   32.6550   42.4400 C   0  0  0  0  0  0  0  0  0  0  0  0
   37.5970   33.0690   41.3880 C   0  0  0  0  0  0  0  0  0  0  0  0
   38.9730   33.3460   41.7000 C   0  0  0  0  0  0  0  0  0  0  0  0
   39.3760   33.1940   42.9860 N   0  0  0  0  0  0  0  0  0  0  0  0
   38.5080   32.7950   43.9550 C   0  0  0  0  0  0  0  0  0  0  0  0
   37.2090   32.5210   43.7220 N   0  0  0  0  0  0  0  0  0  0  0  0
   37.9010   30.6060   47.5230 C   0  0  0  0  0  0  0  0  0  0  0  0
   37.0360   30.5270   46.6130 O   0  0  0  0  0  0  0  0  0  0  0  0
   39.2190   30.9890   47.1890 N   0  0  0  0  0  0  0  0  0  0  0  0
   38.9520   31.6510   50.0350 F   0  0  0  0  0  0  0  0  0  0  0  0
   37.9380   30.7720   50.0600 C   0  0  0  0  0  0  0  0  0  0  0  0
   37.4480   30.2870   48.8700 C   0  0  0  0  0  0  0  0  0  0  0  0
   36.4080   29.3980   49.0550 C   0  0  0  0  0  0  0  0  0  0  0  0
   35.9030   29.0240   50.2790 C   0  0  0  0  0  0  0  0  0  0  0  0
   36.4410   29.5490   51.4330 C   0  0  0  0  0  0  0  0  0  0  0  0
   37.4840   30.4430   51.3130 C   0  0  0  0  0  0  0  0  0  0  0  0
   38.2496   33.3515   45.6790 H   0  0  0  0  0  0  0  0  0  0  0  0
   41.2020   32.5929   44.8590 H   0  0  0  0  0  0  0  0  0  0  0  0
   41.1475   33.0948   46.3258 H   0  0  0  0  0  0  0  0  0  0  0  0
   39.4610   30.3203   45.4052 H   0  0  0  0  0  0  0  0  0  0  0  0
   35.6812   32.4388   42.2246 H   0  0  0  0  0  0  0  0  0  0  0  0
   37.2194   33.1751   40.3603 H   0  0  0  0  0  0  0  0  0  0  0  0
   39.6770   33.6711   40.9198 H   0  0  0  0  0  0  0  0  0  0  0  0
   39.9565   31.0167   47.9075 H   0  0  0  0  0  0  0  0  0  0  0  0
   35.9495   28.9563   48.1580 H   0  0  0  0  0  0  0  0  0  0  0  0
   35.0709   28.3068   50.3358 H   0  0  0  0  0  0  0  0  0  0  0  0
   36.0504   29.2637   52.4209 H   0  0  0  0  0  0  0  0  0  0  0  0
   37.9453   30.8859   52.2080 H   0  0  0  0  0  0  0  0  0  0  0  0
  1  2  1  0
  1  3  1  0
  2  3  1  0
  3 12  1  0
  4  9  2  0
  5  6  2  0
  5  4  1  0
  6  7  1  0
  7  8  2  0
  8  1  1  0
  9  8  1  0
 10 15  1  0
 11 10  2  0
 12 10  1  0
 13 14  1  0
 14 19  2  0
 15 16  2  0
 15 14  1  0
 16 17  1  0
 17 18  2  0
 19 18  1  0
  1 20  1  1
  2 21  1  0
  2 22  1  0
  3 23  1  6
  4 24  1  0
  5 25  1  0
  6 26  1  0
 12 27  1  0
 16 28  1  0
 17 29  1  0
 18 30  1  0
 19 31  1  0
M  ISO  8  20  13  21  13  22  13  23  13  24  14  25  14  26  14  28  14
M  ISO  3  29  14  30  14  31  14
M  END
>  <minimizedAffinity>  (1) 
-6.56850576

>  <minimizedRMSD>  (1) 
3.55659175

$$$$
