
     RDKit          3D

 43 46  0  0  0  0  0  0  0  0999 V2000
   36.6420   31.1670   50.1060 C   0  0  0  0  0  0  0  0  0  0  0  0
   35.5640   30.2910   49.9280 C   0  0  0  0  0  0  0  0  0  0  0  0
   35.3720   29.1930   50.7190 C   0  0  0  0  0  0  0  0  0  0  0  0
   36.2810   28.9750   51.7090 N   0  0  0  0  0  0  0  0  0  0  0  0
   37.3340   29.8250   51.8880 C   0  0  0  0  0  0  0  0  0  0  0  0
   37.4930   30.8840   51.1020 N   0  0  0  0  0  0  0  0  0  0  0  0
   34.2270   29.3440   48.0840 C   0  0  0  0  0  0  0  0  0  0  0  0
   34.7710   28.1590   47.9440 O   0  0  0  0  0  0  0  0  0  0  0  0
   34.5800   30.4150   48.9280 N   0  0  0  0  0  0  0  0  0  0  0  0
   31.8930   27.5970   47.9200 F   0  0  0  0  0  0  0  0  0  0  0  0
   31.9790   28.6710   47.1100 C   0  0  0  0  0  0  0  0  0  0  0  0
   33.0870   29.4840   47.1800 C   0  0  0  0  0  0  0  0  0  0  0  0
   32.9830   30.5190   46.2570 C   0  0  0  0  0  0  0  0  0  0  0  0
   31.9440   30.7380   45.3830 C   0  0  0  0  0  0  0  0  0  0  0  0
   30.8840   29.8700   45.3940 C   0  0  0  0  0  0  0  0  0  0  0  0
   30.9140   28.8170   46.2820 C   0  0  0  0  0  0  0  0  0  0  0  0
   36.6540   32.1890   49.2250 O   0  0  0  0  0  0  0  0  0  0  0  0
   38.1610   32.1690   47.2670 C   0  0  0  0  0  0  0  0  0  0  0  0
   37.7730   32.6040   48.5190 C   0  0  0  0  0  0  0  0  0  0  0  0
   38.5240   33.5480   49.2010 C   0  0  0  0  0  0  0  0  0  0  0  0
   39.6800   34.0570   48.6120 C   0  0  0  0  0  0  0  0  0  0  0  0
   40.0630   33.6180   47.3580 C   0  0  0  0  0  0  0  0  0  0  0  0
   39.2890   32.6830   46.7220 C   0  0  0  0  0  0  0  0  0  0  0  0
   39.7120   32.2180   45.3710 C   0  0  0  0  0  0  0  0  0  0  0  0
   40.5690   31.2010   45.0220 C   0  0  0  0  0  0  0  0  0  0  0  0
   40.6320   31.1690   43.6320 C   0  0  0  0  0  0  0  0  0  0  0  0
   39.7970   32.1820   43.2190 C   0  0  0  0  0  0  0  0  0  0  0  0
   39.2580   32.7970   44.2590 O   0  0  0  0  0  0  0  0  0  0  0  0
   36.6650   30.4150   46.1060 N   0  0  0  0  0  0  0  0  0  0  0  0
   37.3300   31.1930   46.6310 C   0  0  0  0  0  0  0  0  0  0  0  0
   34.5201   28.5149   50.5626 H   0  0  0  0  0  0  0  0  0  0  0  0
   38.0590   29.6308   52.6921 H   0  0  0  0  0  0  0  0  0  0  0  0
   34.1022   31.3198   48.8098 H   0  0  0  0  0  0  0  0  0  0  0  0
   33.8168   31.2356   46.2225 H   0  0  0  0  0  0  0  0  0  0  0  0
   31.9636   31.5919   44.6898 H   0  0  0  0  0  0  0  0  0  0  0  0
   30.0321   30.0100   44.7123 H   0  0  0  0  0  0  0  0  0  0  0  0
   30.0807   28.0999   46.3195 H   0  0  0  0  0  0  0  0  0  0  0  0
   38.2108   33.8923   50.1977 H   0  0  0  0  0  0  0  0  0  0  0  0
   40.2859   34.8058   49.1432 H   0  0  0  0  0  0  0  0  0  0  0  0
   40.9720   34.0119   46.8799 H   0  0  0  0  0  0  0  0  0  0  0  0
   41.1059   30.5354   45.7139 H   0  0  0  0  0  0  0  0  0  0  0  0
   41.2197   30.4848   43.0023 H   0  0  0  0  0  0  0  0  0  0  0  0
   39.6042   32.4444   42.1683 H   0  0  0  0  0  0  0  0  0  0  0  0
  1  6  2  0
  2  1  1  0
  2  3  2  0
  3  4  1  0
  4  5  2  0
  6  5  1  0
  7  9  1  0
  8  7  2  0
  9  2  1  0
 11 12  2  0
 11 10  1  0
 12  7  1  0
 13 12  1  0
 14 15  1  0
 14 13  2  0
 15 16  2  0
 16 11  1  0
 17  1  1  0
 18 19  2  0
 19 20  1  0
 19 17  1  0
 21 20  2  0
 22 21  1  0
 23 18  1  0
 23 22  2  0
 24 23  1  0
 25 24  2  0
 26 25  1  0
 27 26  2  0
 27 28  1  0
 28 24  1  0
 29 30  3  0
 30 18  1  0
  3 31  1  0
  5 32  1  0
  9 33  1  0
 13 34  1  0
 14 35  1  0
 15 36  1  0
 16 37  1  0
 20 38  1  0
 21 39  1  0
 22 40  1  0
 25 41  1  0
 26 42  1  0
 27 43  1  0
M  ISO  8  31  14  32  14  34  14  35  14  36  14  37  14  38  14  39  14
M  ISO  4  40  14  41  14  42  14  43  14
M  END
>  <minimizedAffinity>  (1) 
-6.15635204

>  <minimizedRMSD>  (1) 
0.648831069

$$$$
