
     RDKit          3D

 40 42  0  0  1  0  0  0  0  0999 V2000
   36.4420   30.7510   49.0210 C   0  0  2  0  0  0  0  0  0  0  0  0
   37.3990   31.5870   49.8180 C   0  0  0  0  0  0  0  0  0  0  0  0
   38.2270   30.7700   50.7840 C   0  0  0  0  0  0  0  0  0  0  0  0
   37.3410   29.9610   51.7200 C   0  0  0  0  0  0  0  0  0  0  0  0
   36.0750   29.4530   51.0780 C   0  0  0  0  0  0  0  0  0  0  0  0
   36.3260   29.3610   49.5590 C   0  0  1  0  0  0  0  0  0  0  0  0
   36.8460   30.6810   47.5960 C   0  0  0  0  0  0  0  0  0  0  0  0
   38.2170   30.8780   47.3420 C   0  0  0  0  0  0  0  0  0  0  0  0
   38.6270   30.8140   46.0060 C   0  0  0  0  0  0  0  0  0  0  0  0
   37.6890   30.5660   45.0340 N   0  0  0  0  0  0  0  0  0  0  0  0
   36.3610   30.3790   45.3360 C   0  0  0  0  0  0  0  0  0  0  0  0
   35.9670   30.4420   46.6180 N   0  0  0  0  0  0  0  0  0  0  0  0
   34.0460   28.3600   49.0580 C   0  0  0  0  0  0  0  0  0  0  0  0
   33.2350   29.0140   49.8310 O   0  0  0  0  0  0  0  0  0  0  0  0
   35.4260   28.5290   48.8520 N   0  0  0  0  0  0  0  0  0  0  0  0
   31.1300   28.0250   49.2110 F   0  0  0  0  0  0  0  0  0  0  0  0
   31.8820   27.1810   48.4750 C   0  0  0  0  0  0  0  0  0  0  0  0
   33.2460   27.3250   48.3650 C   0  0  0  0  0  0  0  0  0  0  0  0
   33.7850   26.3630   47.5470 C   0  0  0  0  0  0  0  0  0  0  0  0
   33.1130   25.3590   46.8940 C   0  0  0  0  0  0  0  0  0  0  0  0
   31.7480   25.2940   47.0660 C   0  0  0  0  0  0  0  0  0  0  0  0
   31.1430   26.2190   47.8650 C   0  0  0  0  0  0  0  0  0  0  0  0
   35.4624   31.2446   49.1031 H   0  0  0  0  0  0  0  0  0  0  0  0
   38.0776   32.1033   49.1230 H   0  0  0  0  0  0  0  0  0  0  0  0
   36.8038   32.2973   50.4107 H   0  0  0  0  0  0  0  0  0  0  0  0
   38.8690   30.0823   50.2139 H   0  0  0  0  0  0  0  0  0  0  0  0
   38.8364   31.4577   51.3887 H   0  0  0  0  0  0  0  0  0  0  0  0
   37.9173   29.0962   52.0806 H   0  0  0  0  0  0  0  0  0  0  0  0
   37.0370   30.6359   52.5337 H   0  0  0  0  0  0  0  0  0  0  0  0
   35.8246   28.4592   51.4775 H   0  0  0  0  0  0  0  0  0  0  0  0
   35.2355   30.1314   51.2901 H   0  0  0  0  0  0  0  0  0  0  0  0
   37.2763   28.8321   49.3939 H   0  0  0  0  0  0  0  0  0  0  0  0
   38.9315   31.0729   48.1553 H   0  0  0  0  0  0  0  0  0  0  0  0
   39.6839   30.9600   45.7383 H   0  0  0  0  0  0  0  0  0  0  0  0
   35.6307   30.1803   44.5378 H   0  0  0  0  0  0  0  0  0  0  0  0
   35.8356   27.9749   48.0865 H   0  0  0  0  0  0  0  0  0  0  0  0
   34.8743   26.4006   47.3984 H   0  0  0  0  0  0  0  0  0  0  0  0
   33.6441   24.6351   46.2585 H   0  0  0  0  0  0  0  0  0  0  0  0
   31.1571   24.5109   46.5684 H   0  0  0  0  0  0  0  0  0  0  0  0
   30.0539   26.1856   48.0156 H   0  0  0  0  0  0  0  0  0  0  0  0
  1  6  1  0
  1  2  1  0
  2  3  1  0
  3  4  1  0
  5  4  1  0
  6  5  1  0
  7  1  1  0
  8  7  2  0
  9  8  1  0
 10 11  1  0
 10  9  2  0
 11 12  2  0
 12  7  1  0
 13 14  2  0
 15 13  1  0
 15  6  1  0
 17 16  1  0
 18 17  2  0
 18 13  1  0
 19 18  1  0
 20 21  1  0
 20 19  2  0
 21 22  2  0
 22 17  1  0
  1 23  1  6
  2 24  1  0
  2 25  1  0
  3 26  1  0
  3 27  1  0
  4 28  1  0
  4 29  1  0
  5 30  1  0
  5 31  1  0
  6 32  1  1
  8 33  1  0
  9 34  1  0
 11 35  1  0
 15 36  1  0
 19 37  1  0
 20 38  1  0
 21 39  1  0
 22 40  1  0
M  ISO  8  23  13  24  13  25  13  26  13  27  13  28  13  29  13  30  13
M  ISO  8  31  13  32  13  33  14  34  14  35  14  37  14  38  14  39  14
M  ISO  1  40  14
M  END
>  <minimizedAffinity>  (1) 
-6.49445677

>  <minimizedRMSD>  (1) 
0.586692512

$$$$
