
     RDKit          3D

 22 23  0  0  0  0  0  0  0  0999 V2000
   38.5520   32.3510   48.3920 C   0  0  0  0  0  0  0  0  0  0  0  0
   38.9150   33.5140   48.7260 O   0  0  0  0  0  0  0  0  0  0  0  0
   37.3940   30.0690   51.0990 C   0  0  0  0  0  0  0  0  0  0  0  0
   38.2090   30.9300   50.3260 C   0  0  0  0  0  0  0  0  0  0  0  0
   37.6930   31.4790   49.1550 C   0  0  0  0  0  0  0  0  0  0  0  0
   36.4260   31.1600   48.8100 N   0  0  0  0  0  0  0  0  0  0  0  0
   35.6710   30.3450   49.5540 C   0  0  0  0  0  0  0  0  0  0  0  0
   36.1280   29.7950   50.6880 N   0  0  0  0  0  0  0  0  0  0  0  0
   40.2960   34.1390   47.0570 F   0  0  0  0  0  0  0  0  0  0  0  0
   39.9940   32.9500   46.4920 C   0  0  0  0  0  0  0  0  0  0  0  0
   39.1420   32.0280   47.1010 C   0  0  0  0  0  0  0  0  0  0  0  0
   38.9100   30.8470   46.4250 C   0  0  0  0  0  0  0  0  0  0  0  0
   39.4680   30.5370   45.2010 C   0  0  0  0  0  0  0  0  0  0  0  0
   40.3180   31.4800   44.6160 C   0  0  0  0  0  0  0  0  0  0  0  0
   40.5760   32.6760   45.2590 C   0  0  0  0  0  0  0  0  0  0  0  0
   37.7830   29.6243   52.0269 H   0  0  0  0  0  0  0  0  0  0  0  0
   39.2356   31.1622   50.6458 H   0  0  0  0  0  0  0  0  0  0  0  0
   34.6455   30.1193   49.2262 H   0  0  0  0  0  0  0  0  0  0  0  0
   38.2402   30.1085   46.8896 H   0  0  0  0  0  0  0  0  0  0  0  0
   39.2511   29.5805   44.7030 H   0  0  0  0  0  0  0  0  0  0  0  0
   40.7827   31.2697   43.6414 H   0  0  0  0  0  0  0  0  0  0  0  0
   41.2449   33.4147   44.7932 H   0  0  0  0  0  0  0  0  0  0  0  0
  1  2  2  0
  1  5  1  0
  4  3  2  0
  5  4  1  0
  6  5  2  0
  6  7  1  0
  7  8  2  0
  8  3  1  0
 10  9  1  0
 10 11  2  0
 11  1  1  0
 12 11  1  0
 13 12  2  0
 14 13  1  0
 14 15  2  0
 15 10  1  0
  3 16  1  0
  4 17  1  0
  7 18  1  0
 12 19  1  0
 13 20  1  0
 14 21  1  0
 15 22  1  0
M  ISO  7  16  14  17  14  18  14  19  14  20  14  21  14  22  14
M  END
>  <minimizedAffinity>  (1) 
-5.88482046

>  <minimizedRMSD>  (1) 
2.09998822

$$$$
