
     RDKit          3D

 33 35  0  0  0  0  0  0  0  0999 V2000
   32.7770   27.6300   48.4980 C   0  0  0  0  0  0  0  0  0  0  0  0
   32.2650   26.6470   47.6990 C   0  0  0  0  0  0  0  0  0  0  0  0
   30.9130   26.4530   47.9380 C   0  0  0  0  0  0  0  0  0  0  0  0
   30.6550   27.3680   48.9170 N   0  0  0  0  0  0  0  0  0  0  0  0
   31.7420   28.0600   49.2490 N   0  0  0  0  0  0  0  0  0  0  0  0
   28.9570   29.3600   48.0380 F   0  0  0  0  0  0  0  0  0  0  0  0
   28.5840   28.6600   49.1390 C   0  0  0  0  0  0  0  0  0  0  0  0
   29.4330   27.6560   49.5870 C   0  0  0  0  0  0  0  0  0  0  0  0
   29.0670   26.9250   50.7170 C   0  0  0  0  0  0  0  0  0  0  0  0
   27.8790   27.1760   51.4030 C   0  0  0  0  0  0  0  0  0  0  0  0
   27.0610   28.1810   50.9260 C   0  0  0  0  0  0  0  0  0  0  0  0
   27.3880   28.9310   49.8080 C   0  0  0  0  0  0  0  0  0  0  0  0
   34.1980   28.1130   48.5190 C   0  0  0  0  0  0  0  0  0  0  0  0
   34.4980   28.4630   49.9480 C   0  0  0  0  0  0  0  0  0  0  0  0
   37.4470   30.2770   51.2310 C   0  0  0  0  0  0  0  0  0  0  0  0
   38.1040   30.6760   50.0640 C   0  0  0  0  0  0  0  0  0  0  0  0
   37.5120   30.3080   48.8310 C   0  0  0  0  0  0  0  0  0  0  0  0
   36.3530   29.5980   48.8460 N   0  0  0  0  0  0  0  0  0  0  0  0
   35.7680   29.2440   50.0160 C   0  0  0  0  0  0  0  0  0  0  0  0
   36.3200   29.5860   51.1680 N   0  0  0  0  0  0  0  0  0  0  0  0
   32.8511   26.0812   46.9598 H   0  0  0  0  0  0  0  0  0  0  0  0
   30.2233   25.7419   47.4598 H   0  0  0  0  0  0  0  0  0  0  0  0
   29.7341   26.1281   51.0773 H   0  0  0  0  0  0  0  0  0  0  0  0
   27.6029   26.5930   52.2940 H   0  0  0  0  0  0  0  0  0  0  0  0
   26.1181   28.3932   51.4513 H   0  0  0  0  0  0  0  0  0  0  0  0
   26.7168   29.7269   49.4529 H   0  0  0  0  0  0  0  0  0  0  0  0
   34.8759   27.3202   48.1698 H   0  0  0  0  0  0  0  0  0  0  0  0
   34.3378   28.9791   47.8554 H   0  0  0  0  0  0  0  0  0  0  0  0
   33.6747   29.0665   50.3577 H   0  0  0  0  0  0  0  0  0  0  0  0
   34.6052   27.5393   50.5356 H   0  0  0  0  0  0  0  0  0  0  0  0
   37.8707   30.5398   52.2115 H   0  0  0  0  0  0  0  0  0  0  0  0
   39.0408   31.2513   50.1013 H   0  0  0  0  0  0  0  0  0  0  0  0
   37.9820   30.5919   47.8778 H   0  0  0  0  0  0  0  0  0  0  0  0
  1 13  1  0
  1  5  2  0
  2  3  2  0
  2  1  1  0
  3  4  1  0
  4  5  1  0
  4  8  1  0
  6  7  1  0
  7  8  2  0
  7 12  1  0
  8  9  1  0
  9 10  2  0
 11 10  1  0
 12 11  2  0
 13 14  1  0
 14 19  1  0
 16 15  2  0
 17 18  2  0
 17 16  1  0
 18 19  1  0
 19 20  2  0
 20 15  1  0
  2 21  1  0
  3 22  1  0
  9 23  1  0
 10 24  1  0
 11 25  1  0
 12 26  1  0
 13 27  1  0
 13 28  1  0
 14 29  1  0
 14 30  1  0
 15 31  1  0
 16 32  1  0
 17 33  1  0
M  ISO  8  21  14  22  14  23  14  24  14  25  14  26  14  27   8  28   8
M  ISO  5  29   8  30   8  31  14  32  14  33  14
M  END
>  <minimizedAffinity>  (1) 
-6.34019423

>  <minimizedRMSD>  (1) 
3.3114295

$$$$
