
     RDKit          3D

 42 44  0  0  1  0  0  0  0  0999 V2000
   37.0250   30.9110   49.0830 C   0  0  0  0  0  0  0  0  0  0  0  0
   36.7070   31.8210   50.0940 C   0  0  0  0  0  0  0  0  0  0  0  0
   37.2780   33.0810   50.1500 C   0  0  0  0  0  0  0  0  0  0  0  0
   38.2010   33.4610   49.1680 C   0  0  0  0  0  0  0  0  0  0  0  0
   38.5040   32.5620   48.1850 C   0  0  0  0  0  0  0  0  0  0  0  0
   37.9110   31.3080   48.1630 C   0  0  0  0  0  0  0  0  0  0  0  0
   36.4540   29.5820   49.0430 C   0  0  2  0  0  0  0  0  0  0  0  0
   33.5970   29.9100   46.8210 C   0  0  0  0  0  0  0  0  0  0  0  0
   32.8490   28.7710   47.0670 C   0  0  0  0  0  0  0  0  0  0  0  0
   33.2890   27.9040   48.0490 C   0  0  0  0  0  0  0  0  0  0  0  0
   34.4430   28.1970   48.7410 N   0  0  0  0  0  0  0  0  0  0  0  0
   35.1110   29.2950   48.4590 C   0  0  0  0  0  0  0  0  0  0  0  0
   34.6970   30.1580   47.5030 N   0  0  0  0  0  0  0  0  0  0  0  0
   36.9360   28.8110   49.9510 O   0  0  0  0  0  0  0  0  0  0  0  0
   38.3450   30.4470   47.0870 C   0  0  0  0  0  0  0  0  0  0  0  0
   38.6110   30.8770   45.8490 C   0  0  0  0  0  0  0  0  0  0  0  0
   39.1010   30.0950   44.6900 C   0  0  0  0  0  0  0  0  0  0  0  0
   40.5000   30.9370   43.9430 S   0  0  0  0  0  0  0  0  0  0  0  0
   39.6250   32.2150   41.4750 F   0  0  0  0  0  0  0  0  0  0  0  0
   40.2970   31.0630   41.3040 C   0  0  0  0  0  0  0  0  0  0  0  0
   40.8200   30.2630   42.3230 C   0  0  0  0  0  0  0  0  0  0  0  0
   41.4910   29.1010   42.0050 C   0  0  0  0  0  0  0  0  0  0  0  0
   41.6410   28.7370   40.6830 C   0  0  0  0  0  0  0  0  0  0  0  0
   41.1270   29.5210   39.6450 C   0  0  0  0  0  0  0  0  0  0  0  0
   40.4610   30.6740   39.9770 C   0  0  0  0  0  0  0  0  0  0  0  0
   35.9821   31.5281   50.8678 H   0  0  0  0  0  0  0  0  0  0  0  0
   37.0091   33.7770   50.9583 H   0  0  0  0  0  0  0  0  0  0  0  0
   38.6693   34.4561   49.1875 H   0  0  0  0  0  0  0  0  0  0  0  0
   39.2265   32.8356   47.4019 H   0  0  0  0  0  0  0  0  0  0  0  0
   36.8233   29.2243   48.0705 H   0  0  0  0  0  0  0  0  0  0  0  0
   33.2685   30.6176   46.0455 H   0  0  0  0  0  0  0  0  0  0  0  0
   31.9314   28.5624   46.4974 H   0  0  0  0  0  0  0  0  0  0  0  0
   32.7229   26.9885   48.2758 H   0  0  0  0  0  0  0  0  0  0  0  0
   36.7102   29.1723   50.8446 H   0  0  0  0  0  0  0  0  0  0  0  0
   38.4637   29.3741   47.2987 H   0  0  0  0  0  0  0  0  0  0  0  0
   38.4446   31.9492   45.6679 H   0  0  0  0  0  0  0  0  0  0  0  0
   39.4131   29.0959   45.0282 H   0  0  0  0  0  0  0  0  0  0  0  0
   38.2948   29.9976   43.9481 H   0  0  0  0  0  0  0  0  0  0  0  0
   41.9051   28.4667   42.8026 H   0  0  0  0  0  0  0  0  0  0  0  0
   42.1776   27.8082   40.4393 H   0  0  0  0  0  0  0  0  0  0  0  0
   41.2529   29.2223   38.5939 H   0  0  0  0  0  0  0  0  0  0  0  0
   40.0473   31.3052   39.1768 H   0  0  0  0  0  0  0  0  0  0  0  0
  1  2  2  0
  2  3  1  0
  4  3  2  0
  5  4  1  0
  6  5  2  0
  6  1  1  0
  7  1  1  0
  7 14  1  0
  8  9  2  0
  8 13  1  0
  9 10  1  0
 10 11  2  0
 12 11  1  0
 12  7  1  0
 13 12  2  0
 15  6  1  0
 16 15  2  0
 17 16  1  0
 18 17  1  0
 20 19  1  0
 20 21  2  0
 21 18  1  0
 22 21  1  0
 23 22  2  0
 24 25  2  0
 24 23  1  0
 25 20  1  0
  2 26  1  0
  3 27  1  0
  4 28  1  0
  5 29  1  0
  7 30  1  6
  8 31  1  0
  9 32  1  0
 10 33  1  0
 14 34  1  0
 15 35  1  0
 16 36  1  0
 17 37  1  0
 17 38  1  0
 22 39  1  0
 23 40  1  0
 24 41  1  0
 25 42  1  0
M  ISO  8  26  14  27  14  28  14  29  14  30   8  31  14  32  14  33  14
M  ISO  7  34   3  37   8  38   8  39  14  40  14  41  14  42  14
M  END
>  <minimizedAffinity>  (1) 
-6.17060375

>  <minimizedRMSD>  (1) 
0.879424751

$$$$
