
     RDKit          3D

 27 29  0  0  0  0  0  0  0  0999 V2000
   36.2320   30.3690   47.5820 C   0  0  0  0  0  0  0  0  0  0  0  0
   35.5750   29.9550   46.4200 C   0  0  0  0  0  0  0  0  0  0  0  0
   36.2490   30.5190   45.3300 C   0  0  0  0  0  0  0  0  0  0  0  0
   37.2680   31.2400   45.8390 N   0  0  0  0  0  0  0  0  0  0  0  0
   37.2220   31.1260   47.1540 N   0  0  0  0  0  0  0  0  0  0  0  0
   36.6970   29.7720   49.9600 C   0  0  0  0  0  0  0  0  0  0  0  0
   35.8210   29.9850   48.8980 C   0  0  0  0  0  0  0  0  0  0  0  0
   34.4490   29.8050   49.1590 C   0  0  0  0  0  0  0  0  0  0  0  0
   34.0660   29.4400   50.4150 N   0  0  0  0  0  0  0  0  0  0  0  0
   34.9760   29.2480   51.4120 C   0  0  0  0  0  0  0  0  0  0  0  0
   36.2970   29.4160   51.1820 N   0  0  0  0  0  0  0  0  0  0  0  0
   39.3760   32.2740   47.3230 F   0  0  0  0  0  0  0  0  0  0  0  0
   39.3220   32.5320   45.9790 C   0  0  0  0  0  0  0  0  0  0  0  0
   38.2830   32.0270   45.2260 C   0  0  0  0  0  0  0  0  0  0  0  0
   38.2630   32.3100   43.8770 C   0  0  0  0  0  0  0  0  0  0  0  0
   39.2590   33.0830   43.2710 C   0  0  0  0  0  0  0  0  0  0  0  0
   40.2940   33.5750   44.0720 C   0  0  0  0  0  0  0  0  0  0  0  0
   40.3350   33.3020   45.4430 C   0  0  0  0  0  0  0  0  0  0  0  0
   34.6894   29.3044   46.3707 H   0  0  0  0  0  0  0  0  0  0  0  0
   35.9964   30.3975   44.2663 H   0  0  0  0  0  0  0  0  0  0  0  0
   37.7744   29.9042   49.7818 H   0  0  0  0  0  0  0  0  0  0  0  0
   33.7020   29.9558   48.3658 H   0  0  0  0  0  0  0  0  0  0  0  0
   34.6313   28.9532   52.4141 H   0  0  0  0  0  0  0  0  0  0  0  0
   37.4413   31.9172   43.2602 H   0  0  0  0  0  0  0  0  0  0  0  0
   39.2287   33.2981   42.1927 H   0  0  0  0  0  0  0  0  0  0  0  0
   41.0877   34.1858   43.6171 H   0  0  0  0  0  0  0  0  0  0  0  0
   41.1486   33.6885   46.0744 H   0  0  0  0  0  0  0  0  0  0  0  0
  1  7  1  0
  2  1  1  0
  3  4  1  0
  3  2  2  0
  4  5  1  0
  5  1  2  0
  6 11  2  0
  7  8  2  0
  7  6  1  0
  8  9  1  0
  9 10  2  0
 11 10  1  0
 13 12  1  0
 14  4  1  0
 14 13  2  0
 15 14  1  0
 16 15  2  0
 16 17  1  0
 17 18  2  0
 18 13  1  0
  2 19  1  0
  3 20  1  0
  6 21  1  0
  8 22  1  0
 10 23  1  0
 15 24  1  0
 16 25  1  0
 17 26  1  0
 18 27  1  0
M  ISO  8  19  14  20  14  21  14  22  14  23  14  24  14  25  14  26  14
M  ISO  1  27  14
M  END
>  <minimizedAffinity>  (1) 
-4.97362852

>  <minimizedRMSD>  (1) 
3.99725771

$$$$
