
     RDKit          3D

 27 29  0  0  0  0  0  0  0  0999 V2000
   34.4560   28.9940   48.5350 C   0  0  0  0  0  0  0  0  0  0  0  0
   35.1100   28.3870   49.5790 C   0  0  0  0  0  0  0  0  0  0  0  0
   36.3050   28.9870   49.7780 C   0  0  0  0  0  0  0  0  0  0  0  0
   36.4000   29.9890   48.8410 N   0  0  0  0  0  0  0  0  0  0  0  0
   35.2740   29.9640   48.1140 N   0  0  0  0  0  0  0  0  0  0  0  0
   31.5320   28.7790   46.3220 C   0  0  0  0  0  0  0  0  0  0  0  0
   30.6520   27.9640   47.1040 C   0  0  0  0  0  0  0  0  0  0  0  0
   31.0840   27.5090   48.3700 C   0  0  0  0  0  0  0  0  0  0  0  0
   32.3240   27.8770   48.7730 N   0  0  0  0  0  0  0  0  0  0  0  0
   33.1420   28.6600   47.9970 C   0  0  0  0  0  0  0  0  0  0  0  0
   32.7410   29.0880   46.8100 N   0  0  0  0  0  0  0  0  0  0  0  0
   36.5520   32.2210   50.4020 F   0  0  0  0  0  0  0  0  0  0  0  0
   37.3780   32.0930   49.3240 C   0  0  0  0  0  0  0  0  0  0  0  0
   37.3530   30.9830   48.4870 C   0  0  0  0  0  0  0  0  0  0  0  0
   38.2170   30.9050   47.4030 C   0  0  0  0  0  0  0  0  0  0  0  0
   39.0830   31.9680   47.2060 C   0  0  0  0  0  0  0  0  0  0  0  0
   39.1030   33.0670   48.0390 C   0  0  0  0  0  0  0  0  0  0  0  0
   38.2360   33.1390   49.1220 C   0  0  0  0  0  0  0  0  0  0  0  0
   34.7206   27.5410   50.1644 H   0  0  0  0  0  0  0  0  0  0  0  0
   37.0541   28.7251   50.5397 H   0  0  0  0  0  0  0  0  0  0  0  0
   31.2196   29.1467   45.3335 H   0  0  0  0  0  0  0  0  0  0  0  0
   29.6547   27.6962   46.7249 H   0  0  0  0  0  0  0  0  0  0  0  0
   30.4395   26.8813   49.0029 H   0  0  0  0  0  0  0  0  0  0  0  0
   38.2140   30.0357   46.7290 H   0  0  0  0  0  0  0  0  0  0  0  0
   39.7793   31.9344   46.3551 H   0  0  0  0  0  0  0  0  0  0  0  0
   39.8077   33.8891   47.8452 H   0  0  0  0  0  0  0  0  0  0  0  0
   38.2393   34.0089   49.7952 H   0  0  0  0  0  0  0  0  0  0  0  0
  1  2  1  0
  2  3  2  0
  4  3  1  0
  5  1  2  0
  5  4  1  0
  6 11  2  0
  6  7  1  0
  7  8  2  0
  8  9  1  0
 10  1  1  0
 10  9  2  0
 11 10  1  0
 13 12  1  0
 14  4  1  0
 14 13  2  0
 15 14  1  0
 16 15  2  0
 16 17  1  0
 17 18  2  0
 18 13  1  0
  2 19  1  0
  3 20  1  0
  6 21  1  0
  7 22  1  0
  8 23  1  0
 15 24  1  0
 16 25  1  0
 17 26  1  0
 18 27  1  0
M  ISO  8  19  14  20  14  21  14  22  14  23  14  24  14  25  14  26  14
M  ISO  1  27  14
M  END
>  <minimizedAffinity>  (1) 
-5.88980341

>  <minimizedRMSD>  (1) 
6.69631958

$$$$
