
 OpenBabel03242502273D

 21 22  0  0  0  0  0  0  0  0999 V2000
   36.8010   27.3360   43.0410 C   0  0  0  0  0  0  0  0  0  0  0  0
   35.7850   26.9870   43.3330 H   0  0  0  0  0  0  0  0  0  0  0  0
   37.3300   27.6090   43.9830 H   0  0  0  0  0  0  0  0  0  0  0  0
   39.3620   25.2430   41.3310 C   0  0  0  0  0  0  0  0  0  0  0  0
   38.6720   24.0310   41.1640 C   0  0  0  0  0  0  0  0  0  0  0  0
   37.3570   23.9450   41.6300 C   0  0  0  0  0  0  0  0  0  0  0  0
   36.7960   25.0280   42.2270 N   0  0  0  0  0  0  0  0  0  0  0  0
   37.4960   26.1910   42.3730 C   0  0  0  0  0  0  0  0  0  0  0  0
   38.7480   26.2620   41.9250 N   0  0  0  0  0  0  0  0  0  0  0  0
   40.3790   25.2760   40.9580 H   0  0  0  0  0  0  0  0  0  0  0  0
   39.0650   23.1420   40.7000 H   0  0  0  0  0  0  0  0  0  0  0  0
   36.7390   23.0470   41.5470 H   0  0  0  0  0  0  0  0  0  0  0  0
   36.7030   28.4660   42.1320 N   0  0  0  0  0  0  0  0  0  0  0  0
   35.8160   28.4690   41.1010 C   0  0  0  0  0  0  0  0  0  0  0  0
   35.8360   29.6080   40.3210 C   0  0  0  0  0  0  0  0  0  0  0  0
   36.6640   30.6950   40.5140 C   0  0  0  0  0  0  0  0  0  0  0  0
   36.6330   31.6960   39.7740 O   0  0  0  0  0  0  0  0  0  0  0  0
   37.5040   30.5750   41.5730 N   0  0  0  0  0  0  0  0  0  0  0  0
   37.5330   29.4910   42.3710 C   0  0  0  0  0  0  0  0  0  0  0  0
   38.3590   29.4800   43.3360 O   0  0  0  0  0  0  0  0  0  0  0  0
   38.1670   31.3600   41.7880 H   0  0  0  0  0  0  0  0  0  0  0  0
  1  2  1  0  0  0  0
  1  3  1  0  0  0  0
  4  9  1  0  0  0  0
  5  4  2  0  0  0  0
  5  6  1  0  0  0  0
  6  7  2  0  0  0  0
  7  8  1  0  0  0  0
  8  1  1  0  0  0  0
  9  8  2  0  0  0  0
 10  4  1  0  0  0  0
 11  5  1  0  0  0  0
 12  6  1  0  0  0  0
 13 19  1  0  0  0  0
 13  1  1  0  0  0  0
 14 13  1  0  0  0  0
 15 16  1  0  0  0  0
 15 14  2  0  0  0  0
 16 18  1  0  0  0  0
 17 16  2  0  0  0  0
 18 21  1  0  0  0  0
 18 19  1  0  0  0  0
 19 20  2  0  0  0  0
M  END
>  <minimizedAffinity>
-4.19314432

>  <minimizedRMSD>
4.19133186

$$$$
