
 OpenBabel03242508083D

 42 45  0  0  1  0  0  0  0  0999 V2000
   38.8210   35.6650   40.1220 C   0  0  0  0  0  0  0  0  0  0  0  0
   40.1790   35.7550   39.7950 C   0  0  0  0  0  0  0  0  0  0  0  0
   40.8220   34.5480   39.4890 C   0  0  0  0  0  0  0  0  0  0  0  0
   40.0720   33.4530   39.5430 N   0  0  0  0  0  0  0  0  0  0  0  0
   38.7960   33.3270   39.8460 C   0  0  0  0  0  0  0  0  0  0  0  0
   38.2110   34.4890   40.1320 N   0  0  0  0  0  0  0  0  0  0  0  0
   38.3570   36.6220   40.3530 H   0  0  0  0  0  0  0  0  0  0  0  0
   40.7440   36.6640   39.7640 H   0  0  0  0  0  0  0  0  0  0  0  0
   37.8840   32.2040   39.9380 C   0  0  0  0  0  0  0  0  0  0  0  0
   37.3640   31.7570   41.0880 N   0  0  0  0  0  0  0  0  0  0  0  0
   36.5270   30.7370   41.2100 C   0  0  0  0  0  0  0  0  0  0  0  0
   36.1320   30.0630   40.1580 N   0  0  0  0  0  0  0  0  0  0  0  0
   36.5760   30.4050   38.9360 C   0  0  0  0  0  0  0  0  0  0  0  0
   36.1600   29.6950   37.8170 C   0  0  0  0  0  0  0  0  0  0  0  0
   36.6000   30.0260   36.5730 C   0  0  0  0  0  0  0  0  0  0  0  0
   37.4940   31.1160   36.4410 C   0  0  0  0  0  0  0  0  0  0  0  0
   37.8620   31.7730   37.5970 C   0  0  0  0  0  0  0  0  0  0  0  0
   37.4430   31.4710   38.8590 C   0  0  0  0  0  0  0  0  0  0  0  0
   36.1230   30.3960   42.1550 H   0  0  0  0  0  0  0  0  0  0  0  0
   35.4750   28.8580   37.9010 H   0  0  0  0  0  0  0  0  0  0  0  0
   36.3380   29.5430   35.6570 H   0  0  0  0  0  0  0  0  0  0  0  0
   37.8830   31.4320   35.4810 H   0  0  0  0  0  0  0  0  0  0  0  0
   38.5520   32.6080   37.4640 H   0  0  0  0  0  0  0  0  0  0  0  0
   42.1070   34.4500   39.1570 O   0  0  0  0  0  0  0  0  0  0  0  0
   43.0590   33.6300   39.8180 C   0  0  2  0  0  0  0  0  0  0  0  0
   42.6910   32.6070   39.9850 H   0  0  0  0  0  0  0  0  0  0  0  0
   43.2040   34.1890   41.2580 C   0  0  0  0  0  0  0  0  0  0  0  0
   42.3160   33.8740   41.8300 H   0  0  0  0  0  0  0  0  0  0  0  0
   44.0730   33.6350   41.7050 H   0  0  0  0  0  0  0  0  0  0  0  0
   43.3670   35.2750   41.2240 H   0  0  0  0  0  0  0  0  0  0  0  0
   44.3880   33.7450   39.1260 C   0  0  0  0  0  0  0  0  0  0  0  0
   44.5720   34.8010   38.8340 H   0  0  0  0  0  0  0  0  0  0  0  0
   45.1520   33.4470   39.8980 H   0  0  0  0  0  0  0  0  0  0  0  0
   44.5340   32.8530   38.0160 N   0  0  0  0  0  0  0  0  0  0  0  0
   43.7060   31.8280   37.7300 C   0  0  0  0  0  0  0  0  0  0  0  0
   43.8840   30.9900   36.6470 C   0  0  0  0  0  0  0  0  0  0  0  0
   44.9770   31.2340   35.8280 C   0  0  0  0  0  0  0  0  0  0  0  0
   45.1920   30.5030   34.8260 O   0  0  0  0  0  0  0  0  0  0  0  0
   45.8320   32.2460   36.0750 N   0  0  0  0  0  0  0  0  0  0  0  0
   45.5800   33.0130   37.1530 C   0  0  0  0  0  0  0  0  0  0  0  0
   46.3840   33.9750   37.3960 O   0  0  0  0  0  0  0  0  0  0  0  0
   46.6660   32.4670   35.4870 H   0  0  0  0  0  0  0  0  0  0  0  0
  1  6  1  0  0  0  0
  1  7  1  0  0  0  0
  2  1  2  0  0  0  0
  3  4  2  0  0  0  0
  3  2  1  0  0  0  0
  4  5  1  0  0  0  0
  5  9  1  0  0  0  0
  5  6  2  0  0  0  0
  8  2  1  0  0  0  0
  9 10  1  0  0  0  0
 10 11  2  0  0  0  0
 11 19  1  0  0  0  0
 12 11  1  0  0  0  0
 13 12  2  0  0  0  0
 14 20  1  0  0  0  0
 14 13  1  0  0  0  0
 15 14  2  0  0  0  0
 16 15  1  0  0  0  0
 16 17  2  0  0  0  0
 17 18  1  0  0  0  0
 18 13  1  0  0  0  0
 18  9  2  0  0  0  0
 21 15  1  0  0  0  0
 22 16  1  0  0  0  0
 23 17  1  0  0  0  0
 24  3  1  0  0  0  0
 24 25  1  0  0  0  0
 25 26  1  1  0  0  0
 25 27  1  0  0  0  0
 27 29  1  0  0  0  0
 27 28  1  0  0  0  0
 30 27  1  0  0  0  0
 31 25  1  0  0  0  0
 31 33  1  0  0  0  0
 32 31  1  0  0  0  0
 34 31  1  0  0  0  0
 35 34  1  0  0  0  0
 36 35  2  0  0  0  0
 37 39  1  0  0  0  0
 37 36  1  0  0  0  0
 38 37  2  0  0  0  0
 39 40  1  0  0  0  0
 40 41  2  0  0  0  0
 40 34  1  0  0  0  0
 42 39  1  0  0  0  0
M  END
>  <minimizedAffinity>
-6.21937132

>  <minimizedRMSD>
1.97551203

$$$$
