
 OpenBabel03242507413D

 30 32  0  0  0  0  0  0  0  0999 V2000
   39.5580   27.5960   43.5190 C   0  0  0  0  0  0  0  0  0  0  0  0
   38.9670   26.3200   43.3740 C   0  0  0  0  0  0  0  0  0  0  0  0
   38.0680   26.1430   42.3180 C   0  0  0  0  0  0  0  0  0  0  0  0
   37.8110   27.1840   41.4990 N   0  0  0  0  0  0  0  0  0  0  0  0
   38.3910   28.3920   41.6610 C   0  0  0  0  0  0  0  0  0  0  0  0
   39.2620   28.6010   42.6670 N   0  0  0  0  0  0  0  0  0  0  0  0
   37.4020   24.9260   42.0510 N   0  0  0  0  0  0  0  0  0  0  0  0
   38.1300   29.4950   40.8070 N   0  0  0  0  0  0  0  0  0  0  0  0
   37.3170   29.2870   39.7610 C   0  0  0  0  0  0  0  0  0  0  0  0
   36.9390   30.2140   38.8220 C   0  0  0  0  0  0  0  0  0  0  0  0
   37.4710   31.4920   38.9990 C   0  0  0  0  0  0  0  0  0  0  0  0
   37.1830   32.4070   38.1890 O   0  0  0  0  0  0  0  0  0  0  0  0
   38.2830   31.6840   40.0480 N   0  0  0  0  0  0  0  0  0  0  0  0
   38.6200   30.7420   40.9380 C   0  0  0  0  0  0  0  0  0  0  0  0
   39.3770   30.9480   41.9050 O   0  0  0  0  0  0  0  0  0  0  0  0
   40.2530   27.7140   44.3430 H   0  0  0  0  0  0  0  0  0  0  0  0
   39.1550   25.4920   44.0060 H   0  0  0  0  0  0  0  0  0  0  0  0
   36.6170   24.6050   42.6720 H   0  0  0  0  0  0  0  0  0  0  0  0
   37.7480   24.4020   41.2180 H   0  0  0  0  0  0  0  0  0  0  0  0
   36.8910   28.3000   39.6050 H   0  0  0  0  0  0  0  0  0  0  0  0
   38.7850   33.0070   40.1800 C   0  0  0  0  0  0  0  0  0  0  0  0
   40.0070   32.9810   39.5260 C   0  0  0  0  0  0  0  0  0  0  0  0
   40.7490   34.7150   39.6530 S   0  0  0  0  0  0  0  0  0  0  0  0
   39.1810   35.1810   40.6240 C   0  0  0  0  0  0  0  0  0  0  0  0
   38.4200   35.9740   41.2660 H   0  0  0  0  0  0  0  0  0  0  0  0
   38.6230   34.2150   40.6290 N   0  0  0  0  0  0  0  0  0  0  0  0
   36.0270   29.8770   37.6960 C   0  0  0  0  0  0  0  0  0  0  0  0
   36.5680   29.8930   36.7300 H   0  0  0  0  0  0  0  0  0  0  0  0
   35.6100   28.8840   37.8960 H   0  0  0  0  0  0  0  0  0  0  0  0
   35.2210   30.6170   37.6880 H   0  0  0  0  0  0  0  0  0  0  0  0
  1 16  1  0  0  0  0
  2  1  1  0  0  0  0
  2 17  1  0  0  0  0
  3  2  2  0  0  0  0
  4  5  2  0  0  0  0
  4  3  1  0  0  0  0
  5  6  1  0  0  0  0
  6  1  2  0  0  0  0
  7  3  1  0  0  0  0
  7 18  1  0  0  0  0
  8 14  1  0  0  0  0
  8  5  1  0  0  0  0
  9  8  1  0  0  0  0
 10 11  1  0  0  0  0
 10  9  2  0  0  0  0
 11 13  1  0  0  0  0
 12 11  2  0  0  0  0
 13 21  1  0  0  0  0
 13 14  1  0  0  0  0
 14 15  2  0  0  0  0
 19  7  1  0  0  0  0
 20  9  1  0  0  0  0
 21 26  1  0  0  0  0
 22 23  1  0  0  0  0
 22 21  2  0  0  0  0
 23 24  1  0  0  0  0
 24 26  2  0  0  0  0
 24 25  1  0  0  0  0
 27 29  1  0  0  0  0
 27 10  1  0  0  0  0
 28 27  1  0  0  0  0
 30 27  1  0  0  0  0
M  END
>  <minimizedAffinity>
-5.61258364

>  <minimizedRMSD>
1.80276287

$$$$
