
 OpenBabel03242509123D

 37 41  0  0  1  0  0  0  0  0999 V2000
   35.9650   30.5620   40.9310 C   0  0  0  0  0  0  0  0  0  0  0  0
   36.6760   29.5010   41.5280 C   0  0  0  0  0  0  0  0  0  0  0  0
   38.0550   29.5500   41.5450 C   0  0  0  0  0  0  0  0  0  0  0  0
   38.6290   30.6450   40.9740 N   0  0  0  0  0  0  0  0  0  0  0  0
   37.9390   31.6560   40.4070 C   0  0  0  0  0  0  0  0  0  0  0  0
   36.5970   31.6060   40.3890 N   0  0  0  0  0  0  0  0  0  0  0  0
   34.8910   30.6230   40.8620 H   0  0  0  0  0  0  0  0  0  0  0  0
   35.9950   28.7930   41.9190 H   0  0  0  0  0  0  0  0  0  0  0  0
   38.7880   28.4670   42.1370 C   0  0  0  0  0  0  0  0  0  0  0  0
   39.9710   28.5470   42.8650 C   0  0  0  0  0  0  0  0  0  0  0  0
   40.3270   27.2940   43.2550 N   0  0  0  0  0  0  0  0  0  0  0  0
   39.4210   26.3900   42.8100 C   0  0  0  0  0  0  0  0  0  0  0  0
   39.3100   25.0200   42.9220 C   0  0  0  0  0  0  0  0  0  0  0  0
   38.2340   24.3320   42.3370 C   0  0  0  0  0  0  0  0  0  0  0  0
   37.3050   25.0920   41.6520 C   0  0  0  0  0  0  0  0  0  0  0  0
   37.4360   26.4470   41.5530 C   0  0  0  0  0  0  0  0  0  0  0  0
   38.4810   27.1210   42.1230 C   0  0  0  0  0  0  0  0  0  0  0  0
   40.4970   29.4810   43.0680 H   0  0  0  0  0  0  0  0  0  0  0  0
   41.1980   27.0840   43.8280 H   0  0  0  0  0  0  0  0  0  0  0  0
   40.0660   24.4740   43.4700 H   0  0  0  0  0  0  0  0  0  0  0  0
   38.2160   23.2600   42.4690 H   0  0  0  0  0  0  0  0  0  0  0  0
   36.5200   24.4610   41.2410 H   0  0  0  0  0  0  0  0  0  0  0  0
   36.6290   26.8420   40.9660 H   0  0  0  0  0  0  0  0  0  0  0  0
   38.6730   32.8360   39.8330 C   0  0  1  0  0  0  0  0  0  0  0  0
   38.8450   34.0580   40.7590 C   0  0  0  0  0  0  0  0  0  0  0  0
   39.9920   33.1900   40.4080 C   0  0  2  0  0  0  0  0  0  0  0  0
   38.4970   33.1010   38.7610 H   0  0  0  0  0  0  0  0  0  0  0  0
   38.3270   33.9510   41.7230 H   0  0  0  0  0  0  0  0  0  0  0  0
   38.8200   35.0550   40.2750 H   0  0  0  0  0  0  0  0  0  0  0  0
   40.3980   32.5570   41.2520 H   0  0  0  0  0  0  0  0  0  0  0  0
   41.0850   33.6680   39.5390 C   0  0  0  0  0  0  0  0  0  0  0  0
   41.2390   34.9110   39.0380 N   0  0  0  0  0  0  0  0  0  0  0  0
   42.3230   34.9380   38.3000 O   0  0  0  0  0  0  0  0  0  0  0  0
   42.8930   33.7570   38.2920 C   0  0  0  0  0  0  0  0  0  0  0  0
   42.1170   32.9510   39.0730 N   0  0  0  0  0  0  0  0  0  0  0  0
   44.1220   33.2490   37.6260 C   0  0  0  0  0  0  0  0  0  0  0  0
   43.8860   32.5710   36.7910 H   0  0  0  0  0  0  0  0  0  0  0  0
  1  2  1  0  0  0  0
  2  3  2  0  0  0  0
  2  8  1  0  0  0  0
  3  9  1  0  0  0  0
  4  3  1  0  0  0  0
  5  4  2  0  0  0  0
  6  5  1  0  0  0  0
  6  1  2  0  0  0  0
  7  1  1  0  0  0  0
  9 10  2  0  0  0  0
 10 18  1  0  0  0  0
 10 11  1  0  0  0  0
 11 19  1  0  0  0  0
 12 13  1  0  0  0  0
 12 11  1  0  0  0  0
 13 20  1  0  0  0  0
 14 21  1  0  0  0  0
 14 13  2  0  0  0  0
 15 14  1  0  0  0  0
 16 15  2  0  0  0  0
 16 17  1  0  0  0  0
 17  9  1  0  0  0  0
 17 12  2  0  0  0  0
 22 15  1  0  0  0  0
 23 16  1  0  0  0  0
 24 27  1  6  0  0  0
 24  5  1  0  0  0  0
 24 26  1  0  0  0  0
 24 25  1  0  0  0  0
 25 28  1  0  0  0  0
 26 25  1  0  0  0  0
 26 30  1  1  0  0  0
 29 25  1  0  0  0  0
 31 26  1  0  0  0  0
 32 31  2  0  0  0  0
 33 32  1  0  0  0  0
 34 33  1  0  0  0  0
 34 35  2  0  0  0  0
 35 31  1  0  0  0  0
 36 34  1  0  0  0  0
 37 36  1  0  0  0  0
M  END
>  <minimizedAffinity>
-5.98380566

>  <minimizedRMSD>
0.527051628

$$$$
