
 OpenBabel03242503103D

 30 32  0  0  1  0  0  0  0  0999 V2000
   36.6440   28.6360   41.8230 C   0  0  0  0  0  0  0  0  0  0  0  0
   35.8830   28.4070   40.6700 C   0  0  0  0  0  0  0  0  0  0  0  0
   36.2080   29.9900   39.7840 S   0  0  0  0  0  0  0  0  0  0  0  0
   37.3440   30.6620   41.1990 C   0  0  0  0  0  0  0  0  0  0  0  0
   37.2450   29.7830   41.8370 N   0  0  0  0  0  0  0  0  0  0  0  0
   35.2220   27.5730   40.2550 H   0  0  0  0  0  0  0  0  0  0  0  0
   36.6640   27.3280   43.0880 S   0  0  0  0  0  0  0  0  0  0  0  0
   38.4020   25.2840   42.2870 C   0  0  0  0  0  0  0  0  0  0  0  0
   38.1900   26.4620   43.0460 C   0  0  0  0  0  0  0  0  0  0  0  0
   39.2730   26.9100   43.7720 C   0  0  0  0  0  0  0  0  0  0  0  0
   40.4570   26.2290   43.7320 N   0  0  0  0  0  0  0  0  0  0  0  0
   40.5960   25.0960   42.9770 C   0  0  0  0  0  0  0  0  0  0  0  0
   39.5780   24.6460   42.2750 N   0  0  0  0  0  0  0  0  0  0  0  0
   37.5110   24.9640   41.7250 H   0  0  0  0  0  0  0  0  0  0  0  0
   39.2350   27.7980   44.3900 H   0  0  0  0  0  0  0  0  0  0  0  0
   41.5530   24.5820   42.9710 H   0  0  0  0  0  0  0  0  0  0  0  0
   37.9530   31.9080   41.1430 O   0  0  0  0  0  0  0  0  0  0  0  0
   39.3210   32.0390   40.6820 C   0  0  1  0  0  0  0  0  0  0  0  0
   39.3320   32.6380   39.2650 C   0  0  0  0  0  0  0  0  0  0  0  0
   39.8350   33.4190   40.5030 C   0  0  1  0  0  0  0  0  0  0  0  0
   39.9300   31.1240   40.6850 H   0  0  0  0  0  0  0  0  0  0  0  0
   38.3930   33.0590   38.8620 H   0  0  0  0  0  0  0  0  0  0  0  0
   40.0920   32.3290   38.5450 H   0  0  0  0  0  0  0  0  0  0  0  0
   40.9220   33.5270   40.6430 H   0  0  0  0  0  0  0  0  0  0  0  0
   39.0400   34.5270   40.9680 N   0  0  0  0  0  0  0  0  0  0  0  0
   38.0940   34.5100   40.5270 H   0  0  0  0  0  0  0  0  0  0  0  0
   39.8930   35.9730   40.5590 S   0  0  0  0  0  0  0  0  0  0  0  0
   41.2150   35.5670   39.4350 C   0  0  0  0  0  0  0  0  0  0  0  0
   40.5390   36.5440   41.7870 O   0  0  0  0  0  0  0  0  0  0  0  0
   38.9680   36.9710   39.9230 O   0  0  0  0  0  0  0  0  0  0  0  0
  1  5  1  0  0  0  0
  1  7  1  0  0  0  0
  2  1  2  0  0  0  0
  3  2  1  0  0  0  0
  3  4  1  0  0  0  0
  4  5  2  0  0  0  0
  6  2  1  0  0  0  0
  8  9  1  0  0  0  0
  9  7  1  0  0  0  0
  9 10  2  0  0  0  0
 10 15  1  0  0  0  0
 11 10  1  0  0  0  0
 12 11  2  0  0  0  0
 13  8  2  0  0  0  0
 13 12  1  0  0  0  0
 14  8  1  0  0  0  0
 16 12  1  0  0  0  0
 17  4  1  0  0  0  0
 18 21  1  1  0  0  0
 18 17  1  0  0  0  0
 19 20  1  0  0  0  0
 19 18  1  0  0  0  0
 20 24  1  1  0  0  0
 20 18  1  0  0  0  0
 20 25  1  0  0  0  0
 22 19  1  0  0  0  0
 23 19  1  0  0  0  0
 26 25  1  0  0  0  0
 27 25  1  0  0  0  0
 27 29  2  0  0  0  0
 28 27  1  0  0  0  0
 30 27  2  0  0  0  0
M  END
>  <minimizedAffinity>
-4.94194174

>  <minimizedRMSD>
3.54893398

$$$$
