
 OpenBabel03242509303D

 14 14  0  0  0  0  0  0  0  0999 V2000
   37.9940   28.8950   43.3240 C   0  0  0  0  0  0  0  0  0  0  0  0
   38.1290   27.4850   43.2660 C   0  0  0  0  0  0  0  0  0  0  0  0
   37.4310   26.8100   42.2720 C   0  0  0  0  0  0  0  0  0  0  0  0
   36.6490   27.5380   41.4000 N   0  0  0  0  0  0  0  0  0  0  0  0
   36.5570   28.8730   41.5010 C   0  0  0  0  0  0  0  0  0  0  0  0
   37.2190   29.5370   42.4450 N   0  0  0  0  0  0  0  0  0  0  0  0
   38.5080   29.4660   44.0660 H   0  0  0  0  0  0  0  0  0  0  0  0
   38.7650   26.9740   43.9880 H   0  0  0  0  0  0  0  0  0  0  0  0
   37.5510   25.3210   42.1830 C   0  0  0  0  0  0  0  0  0  0  0  0
   37.7330   25.0470   40.8350 F   0  0  0  0  0  0  0  0  0  0  0  0
   38.6540   24.8580   42.8500 F   0  0  0  0  0  0  0  0  0  0  0  0
   36.4100   24.6850   42.6330 F   0  0  0  0  0  0  0  0  0  0  0  0
   35.6790   29.5830   40.5040 C   0  0  0  0  0  2  0  0  0  0  0  0
   35.1860   30.3940   41.0560 H   0  0  0  0  0  0  0  0  0  0  0  0
  1  7  1  0  0  0  0
  2  1  1  0  0  0  0
  2  8  1  0  0  0  0
  3  2  2  0  0  0  0
  4  5  2  0  0  0  0
  4  3  1  0  0  0  0
  5  6  1  0  0  0  0
  6  1  2  0  0  0  0
  9  3  1  0  0  0  0
  9 12  1  0  0  0  0
  9 11  1  0  0  0  0
 10  9  1  0  0  0  0
 13 14  1  0  0  0  0
 13  5  1  0  0  0  0
M  END
>  <minimizedAffinity>
-3.76099992

>  <minimizedRMSD>
0.0986337215

$$$$
