
 OpenBabel03242505473D

 33 36  0  0  0  0  0  0  0  0999 V2000
   39.8760   33.9940   40.2810 C   0  0  0  0  0  0  0  0  0  0  0  0
   40.4800   32.8300   40.6300 C   0  0  0  0  0  0  0  0  0  0  0  0
   39.7430   31.6730   40.8210 C   0  0  0  0  0  0  0  0  0  0  0  0
   38.3870   31.6650   40.6640 C   0  0  0  0  0  0  0  0  0  0  0  0
   37.7580   32.8240   40.3130 C   0  0  0  0  0  0  0  0  0  0  0  0
   38.5070   33.9900   40.1210 C   0  0  0  0  0  0  0  0  0  0  0  0
   41.5570   32.8530   40.7490 H   0  0  0  0  0  0  0  0  0  0  0  0
   40.2800   30.7930   41.0940 H   0  0  0  0  0  0  0  0  0  0  0  0
   36.6890   32.8840   40.1730 H   0  0  0  0  0  0  0  0  0  0  0  0
   37.9750   34.8920   39.8440 H   0  0  0  0  0  0  0  0  0  0  0  0
   37.0940   28.3310   41.0810 C   0  0  0  0  0  0  0  0  0  0  0  0
   36.0260   29.1550   41.3260 N   0  0  0  0  0  0  0  0  0  0  0  0
   36.3720   30.3990   41.2050 O   0  0  0  0  0  0  0  0  0  0  0  0
   37.6700   30.4400   40.8780 C   0  0  0  0  0  0  0  0  0  0  0  0
   38.1160   29.1700   40.8010 N   0  0  0  0  0  0  0  0  0  0  0  0
   36.9930   24.8270   42.2380 C   0  0  0  0  0  0  0  0  0  0  0  0
   36.6650   24.1740   41.0320 C   0  0  0  0  0  0  0  0  0  0  0  0
   36.4910   24.9420   39.8820 C   0  0  0  0  0  0  0  0  0  0  0  0
   36.6510   26.2980   39.9860 N   0  0  0  0  0  0  0  0  0  0  0  0
   36.9640   26.8800   41.1550 C   0  0  0  0  0  0  0  0  0  0  0  0
   37.1340   26.1450   42.2760 N   0  0  0  0  0  0  0  0  0  0  0  0
   37.1480   24.3220   43.1820 H   0  0  0  0  0  0  0  0  0  0  0  0
   36.5620   23.1130   41.0510 H   0  0  0  0  0  0  0  0  0  0  0  0
   36.2390   24.4630   38.9470 H   0  0  0  0  0  0  0  0  0  0  0  0
   40.8240   35.4480   40.0070 S   0  0  0  0  0  0  0  0  0  0  0  0
   41.5260   35.2820   38.7020 O   0  0  0  0  0  0  0  0  0  0  0  0
   39.8730   36.6290   39.9000 O   0  0  0  0  0  0  0  0  0  0  0  0
   41.9570   35.7370   41.3220 C   0  0  0  0  0  0  0  0  0  0  0  0
   43.1410   34.9290   41.5150 C   0  0  0  0  0  0  0  0  0  0  0  0
   43.8850   35.6990   42.9970 S   0  0  0  0  0  0  0  0  0  0  0  0
   42.4700   36.9670   43.0870 C   0  0  0  0  0  0  0  0  0  0  0  0
   42.4150   37.7600   43.8830 H   0  0  0  0  0  0  0  0  0  0  0  0
   41.7770   36.7080   42.1950 N   0  0  0  0  0  0  0  0  0  0  0  0
  1  2  1  0  0  0  0
  2  7  1  0  0  0  0
  2  3  2  0  0  0  0
  3  8  1  0  0  0  0
  4  3  1  0  0  0  0
  4 14  1  0  0  0  0
  5  4  2  0  0  0  0
  6  1  2  0  0  0  0
  6  5  1  0  0  0  0
  9  5  1  0  0  0  0
 10  6  1  0  0  0  0
 11 20  1  0  0  0  0
 11 12  2  0  0  0  0
 13 12  1  0  0  0  0
 14 13  1  0  0  0  0
 15 14  2  0  0  0  0
 15 11  1  0  0  0  0
 16 21  1  0  0  0  0
 16 22  1  0  0  0  0
 17 23  1  0  0  0  0
 17 16  2  0  0  0  0
 18 19  2  0  0  0  0
 18 17  1  0  0  0  0
 19 20  1  0  0  0  0
 20 21  2  0  0  0  0
 24 18  1  0  0  0  0
 25  1  1  0  0  0  0
 25 28  1  0  0  0  0
 26 25  2  0  0  0  0
 27 25  2  0  0  0  0
 28 29  2  0  0  0  0
 28 33  1  0  0  0  0
 29 30  1  0  0  0  0
 30 31  1  0  0  0  0
 31 32  1  0  0  0  0
 33 31  2  0  0  0  0
M  END
>  <minimizedAffinity>
-6.63064575

>  <minimizedRMSD>
1.23152494

$$$$
