
 OpenBabel03242509313D

 15 15  0  0  0  0  0  0  0  0999 V2000
   38.2080   28.6440   43.4570 C   0  0  0  0  0  0  0  0  0  0  0  0
   38.2880   27.2320   43.3250 C   0  0  0  0  0  0  0  0  0  0  0  0
   37.5220   26.6350   42.3050 C   0  0  0  0  0  0  0  0  0  0  0  0
   36.7490   27.4420   41.5020 N   0  0  0  0  0  0  0  0  0  0  0  0
   36.7190   28.7730   41.6820 C   0  0  0  0  0  0  0  0  0  0  0  0
   37.4290   29.3670   42.6350 N   0  0  0  0  0  0  0  0  0  0  0  0
   38.8290   29.0200   44.2670 H   0  0  0  0  0  0  0  0  0  0  0  0
   38.8990   26.6320   43.9660 H   0  0  0  0  0  0  0  0  0  0  0  0
   37.5880   25.1650   42.1470 C   0  0  0  0  0  0  0  0  0  0  0  0
   37.7730   24.9410   40.7970 F   0  0  0  0  0  0  0  0  0  0  0  0
   38.6200   24.5960   42.8310 F   0  0  0  0  0  0  0  0  0  0  0  0
   36.3880   24.5500   42.5250 F   0  0  0  0  0  0  0  0  0  0  0  0
   35.8570   29.6140   40.7770 C   0  0  0  0  0  2  0  0  0  0  0  0
   36.2940   31.0430   40.7860 C   0  0  0  0  0  2  0  0  0  0  0  0
   37.3400   31.1180   41.1600 H   0  0  0  0  0  0  0  0  0  0  0  0
  1  7  1  0  0  0  0
  2  1  1  0  0  0  0
  2  8  1  0  0  0  0
  3  2  2  0  0  0  0
  4  5  2  0  0  0  0
  4  3  1  0  0  0  0
  5  6  1  0  0  0  0
  6  1  2  0  0  0  0
  9  3  1  0  0  0  0
  9 12  1  0  0  0  0
  9 11  1  0  0  0  0
 10  9  1  0  0  0  0
 13 14  1  0  0  0  0
 13  5  1  0  0  0  0
 14 15  1  0  0  0  0
M  END
>  <minimizedAffinity>
-3.97993898

>  <minimizedRMSD>
0.542603612

$$$$
