
 OpenBabel03242509123D

 38 42  0  0  1  0  0  0  0  0999 V2000
   36.1060   30.7440   41.0600 C   0  0  0  0  0  0  0  0  0  0  0  0
   36.7670   29.6430   41.6320 C   0  0  0  0  0  0  0  0  0  0  0  0
   38.1460   29.5930   41.5990 C   0  0  0  0  0  0  0  0  0  0  0  0
   38.7710   30.6450   41.0030 N   0  0  0  0  0  0  0  0  0  0  0  0
   38.1330   31.6990   40.4580 C   0  0  0  0  0  0  0  0  0  0  0  0
   36.7920   31.7400   40.4890 N   0  0  0  0  0  0  0  0  0  0  0  0
   35.0400   30.8790   41.0300 H   0  0  0  0  0  0  0  0  0  0  0  0
   36.0450   28.9730   42.0580 H   0  0  0  0  0  0  0  0  0  0  0  0
   38.8210   28.4610   42.1650 C   0  0  0  0  0  0  0  0  0  0  0  0
   40.0050   28.4580   42.8950 C   0  0  0  0  0  0  0  0  0  0  0  0
   40.3000   27.1890   43.2520 N   0  0  0  0  0  0  0  0  0  0  0  0
   39.3570   26.3420   42.7880 C   0  0  0  0  0  0  0  0  0  0  0  0
   39.1750   24.9780   42.8700 C   0  0  0  0  0  0  0  0  0  0  0  0
   38.0580   24.3610   42.2710 C   0  0  0  0  0  0  0  0  0  0  0  0
   37.1660   25.1790   41.6040 C   0  0  0  0  0  0  0  0  0  0  0  0
   37.3680   26.5310   41.5360 C   0  0  0  0  0  0  0  0  0  0  0  0
   38.4500   27.1330   42.1190 C   0  0  0  0  0  0  0  0  0  0  0  0
   40.5470   29.3710   43.1030 H   0  0  0  0  0  0  0  0  0  0  0  0
   41.1430   26.9230   43.8080 H   0  0  0  0  0  0  0  0  0  0  0  0
   39.9200   24.4060   43.4100 H   0  0  0  0  0  0  0  0  0  0  0  0
   38.0410   23.2860   42.4130 H   0  0  0  0  0  0  0  0  0  0  0  0
   36.3550   24.5960   41.1880 H   0  0  0  0  0  0  0  0  0  0  0  0
   36.5850   26.9740   40.9640 H   0  0  0  0  0  0  0  0  0  0  0  0
   38.9250   32.8260   39.8500 C   0  0  1  0  0  0  0  0  0  0  0  0
   39.0560   34.1010   40.7070 C   0  0  0  0  0  0  0  0  0  0  0  0
   40.2100   33.1980   40.4860 C   0  0  2  0  0  0  0  0  0  0  0  0
   38.7700   32.9760   38.7840 H   0  0  0  0  0  0  0  0  0  0  0  0
   38.5000   34.0450   41.6860 H   0  0  0  0  0  0  0  0  0  0  0  0
   38.8710   35.0180   40.1450 H   0  0  0  0  0  0  0  0  0  0  0  0
   40.4900   32.5590   41.3680 H   0  0  0  0  0  0  0  0  0  0  0  0
   41.3650   33.6170   39.6740 C   0  0  0  0  0  0  0  0  0  0  0  0
   41.4500   34.6740   38.8540 N   0  0  0  0  0  0  0  0  0  0  0  0
   42.6310   34.7100   38.3020 O   0  0  0  0  0  0  0  0  0  0  0  0
   43.3560   33.6890   38.7330 C   0  0  0  0  0  0  0  0  0  0  0  0
   42.5500   33.0080   39.5970 N   0  0  0  0  0  0  0  0  0  0  0  0
   44.7520   33.3440   38.3670 C   0  0  0  0  0  0  0  0  0  0  0  0
   45.6560   34.4050   38.9560 C   0  0  0  0  0  0  0  0  0  0  0  0
   45.2660   34.6960   39.9450 H   0  0  0  0  0  0  0  0  0  0  0  0
  1  2  1  0  0  0  0
  2  8  1  0  0  0  0
  3  2  2  0  0  0  0
  3  9  1  0  0  0  0
  4  3  1  0  0  0  0
  5  6  1  0  0  0  0
  5  4  2  0  0  0  0
  6  1  2  0  0  0  0
  7  1  1  0  0  0  0
  9 10  2  0  0  0  0
 10 18  1  0  0  0  0
 10 11  1  0  0  0  0
 11 19  1  0  0  0  0
 12 13  1  0  0  0  0
 12 11  1  0  0  0  0
 13 20  1  0  0  0  0
 14 21  1  0  0  0  0
 14 13  2  0  0  0  0
 15 14  1  0  0  0  0
 16 15  2  0  0  0  0
 16 17  1  0  0  0  0
 17  9  1  0  0  0  0
 17 12  2  0  0  0  0
 22 15  1  0  0  0  0
 23 16  1  0  0  0  0
 24 27  1  6  0  0  0
 24  5  1  0  0  0  0
 24 26  1  0  0  0  0
 24 25  1  0  0  0  0
 25 28  1  0  0  0  0
 26 25  1  0  0  0  0
 26 30  1  1  0  0  0
 29 25  1  0  0  0  0
 31 26  1  0  0  0  0
 32 31  2  0  0  0  0
 33 34  1  0  0  0  0
 33 32  1  0  0  0  0
 34 35  2  0  0  0  0
 35 31  1  0  0  0  0
 36 34  1  0  0  0  0
 36 37  1  0  0  0  0
 37 38  1  0  0  0  0
M  END
>  <minimizedAffinity>
-5.91783714

>  <minimizedRMSD>
0.981183469

$$$$
