
 OpenBabel03242509303D

 15 15  0  0  0  0  0  0  0  0999 V2000
   38.1230   28.6060   43.4940 C   0  0  0  0  0  0  0  0  0  0  0  0
   38.2170   27.1960   43.3430 C   0  0  0  0  0  0  0  0  0  0  0  0
   37.4900   26.6110   42.2890 C   0  0  0  0  0  0  0  0  0  0  0  0
   36.7380   27.4250   41.4730 N   0  0  0  0  0  0  0  0  0  0  0  0
   36.6930   28.7520   41.6730 C   0  0  0  0  0  0  0  0  0  0  0  0
   37.3670   29.3360   42.6580 N   0  0  0  0  0  0  0  0  0  0  0  0
   38.7150   28.9720   44.3300 H   0  0  0  0  0  0  0  0  0  0  0  0
   38.8110   26.5900   43.9940 H   0  0  0  0  0  0  0  0  0  0  0  0
   37.5720   25.1430   42.1110 C   0  0  0  0  0  0  0  0  0  0  0  0
   37.7940   24.9410   40.7630 F   0  0  0  0  0  0  0  0  0  0  0  0
   38.5900   24.5710   42.8130 F   0  0  0  0  0  0  0  0  0  0  0  0
   36.3670   24.5140   42.4470 F   0  0  0  0  0  0  0  0  0  0  0  0
   35.8550   29.6020   40.7530 C   0  0  0  0  0  2  0  0  0  0  0  0
   36.2900   31.0310   40.7880 C   0  0  0  0  0  2  0  0  0  0  0  0
   37.3260   31.1030   41.1920 H   0  0  0  0  0  0  0  0  0  0  0  0
  1  7  1  0  0  0  0
  2  1  1  0  0  0  0
  2  8  1  0  0  0  0
  3  2  2  0  0  0  0
  4  5  2  0  0  0  0
  4  3  1  0  0  0  0
  5  6  1  0  0  0  0
  6  1  2  0  0  0  0
  9  3  1  0  0  0  0
  9 12  1  0  0  0  0
  9 11  1  0  0  0  0
 10  9  1  0  0  0  0
 13 14  1  0  0  0  0
 13  5  1  0  0  0  0
 14 15  1  0  0  0  0
M  END
>  <minimizedAffinity>
-3.97491145

>  <minimizedRMSD>
0.282034338

$$$$
