
 OpenBabel03242505533D

 31 33  0  0  0  0  0  0  0  0999 V2000
   38.8120   27.0260   43.4360 C   0  0  0  0  0  0  0  0  0  0  0  0
   40.1190   27.0620   43.9360 C   0  0  0  0  0  0  0  0  0  0  0  0
   40.9880   26.0250   43.7110 C   0  0  0  0  0  0  0  0  0  0  0  0
   40.5550   24.9300   42.9770 C   0  0  0  0  0  0  0  0  0  0  0  0
   39.2700   24.8770   42.4780 C   0  0  0  0  0  0  0  0  0  0  0  0
   38.8420   23.7840   41.7510 C   0  0  0  0  0  0  0  0  0  0  0  0
   37.5820   23.7290   41.2610 C   0  0  0  0  0  0  0  0  0  0  0  0
   36.6720   24.7600   41.4670 C   0  0  0  0  0  0  0  0  0  0  0  0
   37.1370   25.8450   42.2030 C   0  0  0  0  0  0  0  0  0  0  0  0
   38.4040   25.9390   42.7170 C   0  0  0  0  0  0  0  0  0  0  0  0
   40.4710   27.8890   44.5040 H   0  0  0  0  0  0  0  0  0  0  0  0
   41.9990   26.0560   44.0980 H   0  0  0  0  0  0  0  0  0  0  0  0
   41.2240   24.1180   42.7970 H   0  0  0  0  0  0  0  0  0  0  0  0
   39.4970   22.9430   41.5500 H   0  0  0  0  0  0  0  0  0  0  0  0
   37.2580   22.8610   40.6900 H   0  0  0  0  0  0  0  0  0  0  0  0
   35.6660   24.7010   41.0670 H   0  0  0  0  0  0  0  0  0  0  0  0
   36.3880   26.6130   42.3270 H   0  0  0  0  0  0  0  0  0  0  0  0
   37.8510   28.1080   43.6520 C   0  0  0  0  0  0  0  0  0  0  0  0
   36.8190   27.8520   43.8160 H   0  0  0  0  0  0  0  0  0  0  0  0
   38.1720   28.5380   44.6610 H   0  0  0  0  0  0  0  0  0  0  0  0
   39.1530   30.0780   42.7280 C   0  0  0  0  0  0  0  0  0  0  0  0
   38.0000   29.2690   42.7520 C   0  0  0  0  0  0  0  0  0  0  0  0
   36.9640   29.6130   41.8620 C   0  0  0  0  0  0  0  0  0  0  0  0
   37.1430   30.6820   41.0530 N   0  0  0  0  0  0  0  0  0  0  0  0
   38.2520   31.4130   41.0680 C   0  0  0  0  0  0  0  0  0  0  0  0
   39.2730   31.1180   41.9080 N   0  0  0  0  0  0  0  0  0  0  0  0
   39.9760   29.8610   43.3910 H   0  0  0  0  0  0  0  0  0  0  0  0
   36.0550   29.0260   41.8390 H   0  0  0  0  0  0  0  0  0  0  0  0
   38.3560   32.5700   40.1390 C   0  0  0  0  0  0  0  0  0  0  0  0
   37.1650   32.5970   39.1750 C   0  0  0  0  0  0  0  0  0  0  0  0
   36.2020   32.7320   39.7070 H   0  0  0  0  0  0  0  0  0  0  0  0
  1 18  1  0  0  0  0
  1  2  1  0  0  0  0
  2 11  1  0  0  0  0
  3  2  2  0  0  0  0
  3 12  1  0  0  0  0
  4  3  1  0  0  0  0
  5 10  1  0  0  0  0
  5  4  2  0  0  0  0
  6  5  1  0  0  0  0
  7  8  1  0  0  0  0
  7  6  2  0  0  0  0
  8  9  2  0  0  0  0
  9 17  1  0  0  0  0
  9 10  1  0  0  0  0
 10  1  2  0  0  0  0
 13  4  1  0  0  0  0
 14  6  1  0  0  0  0
 15  7  1  0  0  0  0
 16  8  1  0  0  0  0
 18 19  1  0  0  0  0
 18 20  1  0  0  0  0
 21 22  1  0  0  0  0
 21 27  1  0  0  0  0
 22 18  1  0  0  0  0
 23 22  2  0  0  0  0
 24 25  2  0  0  0  0
 24 23  1  0  0  0  0
 25 26  1  0  0  0  0
 26 21  2  0  0  0  0
 28 23  1  0  0  0  0
 29 25  1  0  0  0  0
 30 31  1  0  0  0  0
 30 29  1  0  0  0  0
M  END
>  <minimizedAffinity>
-5.93950033

>  <minimizedRMSD>
0.371570855

$$$$
