
 OpenBabel03242509083D

 33 36  0  0  1  0  0  0  0  0999 V2000
   36.0760   30.7190   41.0030 C   0  0  0  0  0  0  0  0  0  0  0  0
   36.7360   29.6200   41.5850 C   0  0  0  0  0  0  0  0  0  0  0  0
   38.1280   29.6040   41.5820 C   0  0  0  0  0  0  0  0  0  0  0  0
   38.7660   30.6560   41.0160 N   0  0  0  0  0  0  0  0  0  0  0  0
   38.1090   31.7050   40.4610 C   0  0  0  0  0  0  0  0  0  0  0  0
   36.7580   31.7290   40.4580 N   0  0  0  0  0  0  0  0  0  0  0  0
   34.9820   30.7550   40.9920 H   0  0  0  0  0  0  0  0  0  0  0  0
   36.1340   28.8120   42.0210 H   0  0  0  0  0  0  0  0  0  0  0  0
   38.8170   28.4670   42.1710 C   0  0  0  0  0  0  0  0  0  0  0  0
   39.9920   28.4670   42.8940 C   0  0  0  0  0  0  0  0  0  0  0  0
   40.2790   27.1860   43.2490 N   0  0  0  0  0  0  0  0  0  0  0  0
   39.3370   26.3460   42.7870 C   0  0  0  0  0  0  0  0  0  0  0  0
   39.1470   24.9740   42.8590 C   0  0  0  0  0  0  0  0  0  0  0  0
   38.0500   24.3630   42.2670 C   0  0  0  0  0  0  0  0  0  0  0  0
   37.1610   25.1730   41.6080 C   0  0  0  0  0  0  0  0  0  0  0  0
   37.3370   26.5290   41.5290 C   0  0  0  0  0  0  0  0  0  0  0  0
   38.4190   27.1390   42.1120 C   0  0  0  0  0  0  0  0  0  0  0  0
   40.5750   29.3640   43.1280 H   0  0  0  0  0  0  0  0  0  0  0  0
   41.1310   26.9170   43.8110 H   0  0  0  0  0  0  0  0  0  0  0  0
   39.9210   24.4440   43.4080 H   0  0  0  0  0  0  0  0  0  0  0  0
   38.0200   23.2830   42.3980 H   0  0  0  0  0  0  0  0  0  0  0  0
   36.3190   24.6440   41.1630 H   0  0  0  0  0  0  0  0  0  0  0  0
   36.5800   27.1030   40.9830 H   0  0  0  0  0  0  0  0  0  0  0  0
   38.8890   32.8330   39.8650 C   0  0  1  0  0  0  0  0  0  0  0  0
   38.9000   34.1580   40.6250 C   0  0  0  0  0  0  0  0  0  0  0  0
   40.1270   33.3000   40.5510 C   0  0  2  0  0  0  0  0  0  0  0  0
   38.8800   32.9410   38.7490 H   0  0  0  0  0  0  0  0  0  0  0  0
   38.2710   34.1610   41.5250 H   0  0  0  0  0  0  0  0  0  0  0  0
   38.8030   35.0780   40.0200 H   0  0  0  0  0  0  0  0  0  0  0  0
   40.3560   32.8000   41.5390 H   0  0  0  0  0  0  0  0  0  0  0  0
   41.3290   33.7800   39.8050 C   0  0  0  0  0  0  0  0  0  0  0  0
   41.1850   35.2560   39.4300 C   0  0  0  0  0  0  0  0  0  0  0  0
   40.1250   35.5290   39.6070 H   0  0  0  0  0  0  0  0  0  0  0  0
  1  2  1  0  0  0  0
  2  8  1  0  0  0  0
  3  2  2  0  0  0  0
  3  9  1  0  0  0  0
  4  3  1  0  0  0  0
  5  4  2  0  0  0  0
  6  5  1  0  0  0  0
  6  1  2  0  0  0  0
  7  1  1  0  0  0  0
  9 10  2  0  0  0  0
 10 18  1  0  0  0  0
 10 11  1  0  0  0  0
 11 19  1  0  0  0  0
 12 13  1  0  0  0  0
 12 11  1  0  0  0  0
 13 20  1  0  0  0  0
 14 21  1  0  0  0  0
 14 13  2  0  0  0  0
 15 14  1  0  0  0  0
 16 15  2  0  0  0  0
 16 17  1  0  0  0  0
 17  9  1  0  0  0  0
 17 12  2  0  0  0  0
 22 15  1  0  0  0  0
 23 16  1  0  0  0  0
 24 27  1  6  0  0  0
 24  5  1  0  0  0  0
 24 26  1  0  0  0  0
 24 25  1  0  0  0  0
 25 28  1  0  0  0  0
 26 25  1  0  0  0  0
 26 30  1  1  0  0  0
 29 25  1  0  0  0  0
 31 26  1  0  0  0  0
 32 33  1  0  0  0  0
 32 31  1  0  0  0  0
M  END
>  <minimizedAffinity>
-5.35742712

>  <minimizedRMSD>
0.761560142

$$$$
