
 OpenBabel03242508353D

 32 34  0  0  0  0  0  0  0  0999 V2000
   37.8370   28.2330   43.1510 C   0  0  0  0  0  0  0  0  0  0  0  0
   37.7020   26.9960   42.4530 C   0  0  0  0  0  0  0  0  0  0  0  0
   36.9950   26.9880   41.2670 C   0  0  0  0  0  0  0  0  0  0  0  0
   36.4740   28.1540   40.8390 N   0  0  0  0  0  0  0  0  0  0  0  0
   36.5970   29.3010   41.4820 C   0  0  0  0  0  0  0  0  0  0  0  0
   37.2800   29.3570   42.6490 N   0  0  0  0  0  0  0  0  0  0  0  0
   38.3470   28.4240   44.0780 H   0  0  0  0  0  0  0  0  0  0  0  0
   38.2370   26.2780   43.0600 H   0  0  0  0  0  0  0  0  0  0  0  0
   36.9320   25.6710   40.6710 C   0  0  0  0  0  0  0  0  0  0  0  0
   37.6200   25.6300   39.7750 H   0  0  0  0  0  0  0  0  0  0  0  0
   35.9160   25.5880   40.1810 H   0  0  0  0  0  0  0  0  0  0  0  0
   37.1010   24.5260   41.5780 C   0  0  0  0  0  0  0  0  0  0  0  0
   37.6610   24.6580   42.5030 H   0  0  0  0  0  0  0  0  0  0  0  0
   36.0890   24.1360   41.9220 H   0  0  0  0  0  0  0  0  0  0  0  0
   37.8530   23.0900   40.7290 S   0  0  0  0  0  0  0  0  0  0  0  0
   38.9180   22.5500   41.4660 H   0  0  0  0  0  0  0  0  0  0  0  0
   35.9730   30.3210   40.8230 O   0  0  0  0  0  0  0  0  0  0  0  0
   36.7510   31.2900   40.1680 C   0  0  0  0  0  0  0  0  0  0  0  0
   36.9460   31.5210   38.8230 N   0  0  0  0  0  0  0  0  0  0  0  0
   37.7610   32.5410   38.6970 O   0  0  0  0  0  0  0  0  0  0  0  0
   38.0770   32.9480   39.8950 C   0  0  0  0  0  0  0  0  0  0  0  0
   37.4740   32.2010   40.8200 N   0  0  0  0  0  0  0  0  0  0  0  0
   38.9700   34.0710   40.1590 C   0  0  0  0  0  0  0  0  0  0  0  0
   38.6970   35.4140   39.9740 C   0  0  0  0  0  0  0  0  0  0  0  0
   39.7960   36.1670   40.3390 C   0  0  0  0  0  0  0  0  0  0  0  0
   40.7200   35.2210   40.7440 C   0  0  0  0  0  0  0  0  0  0  0  0
   40.2000   34.0550   40.6220 O   0  0  0  0  0  0  0  0  0  0  0  0
   37.7460   35.8110   39.5920 H   0  0  0  0  0  0  0  0  0  0  0  0
   39.8600   37.2630   40.2950 H   0  0  0  0  0  0  0  0  0  0  0  0
   42.0790   35.6030   41.2300 C   0  0  0  0  0  0  0  0  0  0  0  0
   42.0150   36.7120   42.2440 C   0  0  0  0  0  0  0  0  0  0  0  0
   43.0520   36.9740   42.5100 H   0  0  0  0  0  0  0  0  0  0  0  0
  1  7  1  0  0  0  0
  2  8  1  0  0  0  0
  2  1  2  0  0  0  0
  3  2  1  0  0  0  0
  4  3  2  0  0  0  0
  4  5  1  0  0  0  0
  5  6  2  0  0  0  0
  6  1  1  0  0  0  0
  9  3  1  0  0  0  0
  9 12  1  0  0  0  0
 10  9  1  0  0  0  0
 11  9  1  0  0  0  0
 12 14  1  0  0  0  0
 12 13  1  0  0  0  0
 15 16  1  0  0  0  0
 15 12  1  0  0  0  0
 17  5  1  0  0  0  0
 18 22  1  0  0  0  0
 18 17  1  0  0  0  0
 19 18  2  0  0  0  0
 20 19  1  0  0  0  0
 20 21  1  0  0  0  0
 21 23  1  0  0  0  0
 21 22  2  0  0  0  0
 23 27  1  0  0  0  0
 24 23  2  0  0  0  0
 24 25  1  0  0  0  0
 25 26  2  0  0  0  0
 26 30  1  0  0  0  0
 27 26  1  0  0  0  0
 28 24  1  0  0  0  0
 29 25  1  0  0  0  0
 30 31  1  0  0  0  0
 31 32  1  0  0  0  0
M  END
>  <minimizedAffinity>
-5.50471449

>  <minimizedRMSD>
0.740676761

$$$$
