
 OpenBabel03242508573D

 39 42  0  0  0  0  0  0  0  0999 V2000
   36.6780   29.8840   39.7630 C   0  0  0  0  0  0  0  0  0  0  0  0
   37.5180   30.9960   39.7790 C   0  0  0  0  0  0  0  0  0  0  0  0
   38.1660   30.9700   40.9380 N   0  0  0  0  0  0  0  0  0  0  0  0
   37.8090   29.9180   41.6840 C   0  0  0  0  0  0  0  0  0  0  0  0
   38.2460   29.5310   42.9400 C   0  0  0  0  0  0  0  0  0  0  0  0
   37.6960   28.3800   43.4780 C   0  0  0  0  0  0  0  0  0  0  0  0
   36.7380   27.6430   42.7700 C   0  0  0  0  0  0  0  0  0  0  0  0
   36.3140   28.0390   41.5200 C   0  0  0  0  0  0  0  0  0  0  0  0
   36.8560   29.1920   40.9690 C   0  0  0  0  0  0  0  0  0  0  0  0
   37.5060   31.6510   38.9030 H   0  0  0  0  0  0  0  0  0  0  0  0
   38.9750   30.1100   43.4550 H   0  0  0  0  0  0  0  0  0  0  0  0
   38.0310   28.0700   44.4620 H   0  0  0  0  0  0  0  0  0  0  0  0
   36.3240   26.7460   43.2130 H   0  0  0  0  0  0  0  0  0  0  0  0
   35.5740   27.4890   40.9500 H   0  0  0  0  0  0  0  0  0  0  0  0
   33.6410   28.7950   38.0460 C   0  0  0  0  0  0  0  0  0  0  0  0
   34.0380   28.7350   36.6890 C   0  0  0  0  0  0  0  0  0  0  0  0
   35.3520   29.0710   36.3850 C   0  0  0  0  0  0  0  0  0  0  0  0
   36.1730   29.4360   37.3970 N   0  0  0  0  0  0  0  0  0  0  0  0
   35.7600   29.4840   38.6940 C   0  0  0  0  0  0  0  0  0  0  0  0
   34.5070   29.1640   39.0000 N   0  0  0  0  0  0  0  0  0  0  0  0
   32.6190   28.5250   38.2180 H   0  0  0  0  0  0  0  0  0  0  0  0
   33.3750   28.4420   35.8850 H   0  0  0  0  0  0  0  0  0  0  0  0
   35.7530   29.0580   35.3810 H   0  0  0  0  0  0  0  0  0  0  0  0
   39.1140   32.0020   41.2550 C   0  0  0  0  0  0  0  0  0  0  0  0
   40.1020   31.6510   40.8890 H   0  0  0  0  0  0  0  0  0  0  0  0
   39.1980   32.0190   42.3740 H   0  0  0  0  0  0  0  0  0  0  0  0
   38.7640   33.3580   40.7180 C   0  0  0  0  0  0  0  0  0  0  0  0
   37.8330   33.4410   40.1700 H   0  0  0  0  0  0  0  0  0  0  0  0
   38.7680   34.0540   41.6000 H   0  0  0  0  0  0  0  0  0  0  0  0
   39.9200   33.7330   39.8700 N   0  0  0  0  0  0  0  0  0  0  0  0
   40.4230   32.9460   38.9240 N   0  0  0  0  0  0  0  0  0  0  0  0
   41.4630   33.5610   38.3290 C   0  0  0  0  0  0  0  0  0  0  0  0
   41.6250   34.8080   38.9350 C   0  0  0  0  0  0  0  0  0  0  0  0
   40.6300   34.8670   39.8970 C   0  0  0  0  0  0  0  0  0  0  0  0
   42.1190   33.2290   37.5160 H   0  0  0  0  0  0  0  0  0  0  0  0
   42.3460   35.5580   38.7190 H   0  0  0  0  0  0  0  0  0  0  0  0
   40.3930   36.0190   40.8170 C   0  0  0  0  0  0  0  0  0  0  0  0
   39.7080   37.1670   40.0800 C   0  0  0  0  0  0  0  0  0  0  0  0
   38.6780   36.8460   39.7660 H   0  0  0  0  0  0  0  0  0  0  0  0
  1  2  2  0  0  0  0
  1  9  1  0  0  0  0
  2  3  1  0  0  0  0
  3 24  1  0  0  0  0
  3  4  1  0  0  0  0
  4  5  1  0  0  0  0
  5 11  1  0  0  0  0
  5  6  2  0  0  0  0
  6 12  1  0  0  0  0
  7 13  1  0  0  0  0
  7  6  1  0  0  0  0
  8  7  2  0  0  0  0
  9  8  1  0  0  0  0
  9  4  2  0  0  0  0
 10  2  1  0  0  0  0
 14  8  1  0  0  0  0
 15 21  1  0  0  0  0
 15 20  1  0  0  0  0
 16 15  2  0  0  0  0
 17 16  1  0  0  0  0
 17 18  2  0  0  0  0
 18 19  1  0  0  0  0
 19 20  2  0  0  0  0
 19  1  1  0  0  0  0
 22 16  1  0  0  0  0
 23 17  1  0  0  0  0
 24 26  1  0  0  0  0
 25 24  1  0  0  0  0
 27 24  1  0  0  0  0
 27 29  1  0  0  0  0
 28 27  1  0  0  0  0
 30 34  1  0  0  0  0
 30 27  1  0  0  0  0
 31 30  1  0  0  0  0
 32 31  2  0  0  0  0
 32 33  1  0  0  0  0
 33 34  2  0  0  0  0
 34 37  1  0  0  0  0
 35 32  1  0  0  0  0
 36 33  1  0  0  0  0
 38 37  1  0  0  0  0
 39 38  1  0  0  0  0
M  END
>  <minimizedAffinity>
-6.02896738

>  <minimizedRMSD>
1.1990943

$$$$
