
 OpenBabel03242508263D

 18 19  0  0  0  0  0  0  0  0999 V2000
   38.7100   28.7030   43.1540 C   0  0  0  0  0  0  0  0  0  0  0  0
   38.2840   27.4140   43.5040 C   0  0  0  0  0  0  0  0  0  0  0  0
   37.0510   26.9770   42.9470 C   0  0  0  0  0  0  0  0  0  0  0  0
   36.3600   27.8160   42.1190 N   0  0  0  0  0  0  0  0  0  0  0  0
   36.8310   29.0400   41.8290 C   0  0  0  0  0  0  0  0  0  0  0  0
   37.9920   29.4780   42.3400 N   0  0  0  0  0  0  0  0  0  0  0  0
   39.6490   29.0330   43.5800 H   0  0  0  0  0  0  0  0  0  0  0  0
   38.8150   26.7280   44.1590 H   0  0  0  0  0  0  0  0  0  0  0  0
   36.7190   25.9800   43.2140 H   0  0  0  0  0  0  0  0  0  0  0  0
   35.9680   29.6890   40.9850 O   0  0  0  0  0  0  0  0  0  0  0  0
   36.4370   30.6810   40.1290 C   0  0  0  0  0  0  0  0  0  0  0  0
   36.6870   30.6430   38.7980 N   0  0  0  0  0  0  0  0  0  0  0  0
   37.1180   31.8180   38.4140 O   0  0  0  0  0  0  0  0  0  0  0  0
   37.1430   32.5960   39.4820 C   0  0  0  0  0  0  0  0  0  0  0  0
   36.7260   31.9190   40.5670 N   0  0  0  0  0  0  0  0  0  0  0  0
   37.5580   34.0270   39.5760 C   0  0  0  0  0  0  0  0  0  0  0  0
   38.7660   34.1930   40.4730 C   0  0  0  0  0  0  0  0  0  0  0  0
   39.5920   33.6060   39.9870 H   0  0  0  0  0  0  0  0  0  0  0  0
  1  2  1  0  0  0  0
  1  7  1  0  0  0  0
  2  8  1  0  0  0  0
  3  9  1  0  0  0  0
  3  2  2  0  0  0  0
  4  3  1  0  0  0  0
  5  4  2  0  0  0  0
  5  6  1  0  0  0  0
  6  1  2  0  0  0  0
 10  5  1  0  0  0  0
 11 15  1  0  0  0  0
 11 10  1  0  0  0  0
 12 11  2  0  0  0  0
 13 12  1  0  0  0  0
 13 14  1  0  0  0  0
 14 16  1  0  0  0  0
 14 15  2  0  0  0  0
 16 17  1  0  0  0  0
 18 17  1  0  0  0  0
M  END
>  <minimizedAffinity>
-4.13789511

>  <minimizedRMSD>
0.682536662

$$$$
