
 OpenBabel03242509303D

 15 15  0  0  0  0  0  0  0  0999 V2000
   38.0620   28.8110   43.4260 C   0  0  0  0  0  0  0  0  0  0  0  0
   38.1560   27.3960   43.3230 C   0  0  0  0  0  0  0  0  0  0  0  0
   37.4450   26.7780   42.2770 C   0  0  0  0  0  0  0  0  0  0  0  0
   36.7100   27.5650   41.4220 N   0  0  0  0  0  0  0  0  0  0  0  0
   36.6650   28.8990   41.5760 C   0  0  0  0  0  0  0  0  0  0  0  0
   37.3230   29.5140   42.5530 N   0  0  0  0  0  0  0  0  0  0  0  0
   38.6400   29.2040   44.2600 H   0  0  0  0  0  0  0  0  0  0  0  0
   38.7360   26.8120   44.0050 H   0  0  0  0  0  0  0  0  0  0  0  0
   37.5270   25.3050   42.1500 C   0  0  0  0  0  0  0  0  0  0  0  0
   37.6130   25.0510   40.7950 F   0  0  0  0  0  0  0  0  0  0  0  0
   38.6180   24.7700   42.7660 F   0  0  0  0  0  0  0  0  0  0  0  0
   36.3700   24.6800   42.6310 F   0  0  0  0  0  0  0  0  0  0  0  0
   35.8450   29.7190   40.6140 C   0  0  0  0  0  2  0  0  0  0  0  0
   36.3970   31.1010   40.4700 C   0  0  0  0  0  2  0  0  0  0  0  0
   37.4590   31.1220   40.8090 H   0  0  0  0  0  0  0  0  0  0  0  0
  1  7  1  0  0  0  0
  2  1  1  0  0  0  0
  2  8  1  0  0  0  0
  3  2  2  0  0  0  0
  4  5  2  0  0  0  0
  4  3  1  0  0  0  0
  5  6  1  0  0  0  0
  6  1  2  0  0  0  0
  9  3  1  0  0  0  0
  9 12  1  0  0  0  0
  9 11  1  0  0  0  0
 10  9  1  0  0  0  0
 13  5  1  0  0  0  0
 14 13  1  0  0  0  0
 14 15  1  0  0  0  0
M  END
>  <minimizedAffinity>
-3.94583654

>  <minimizedRMSD>
0.546559811

$$$$
