
 OpenBabel03242509013D

 32 34  0  0  1  0  0  0  0  0999 V2000
   36.2490   30.7540   41.1120 C   0  0  1  0  0  0  0  0  0  0  0  0
   37.1460   31.7340   40.4620 C   0  0  0  0  0  0  0  0  0  0  0  0
   36.4280   30.8070   39.5800 C   0  0  1  0  0  0  0  0  0  0  0  0
   35.2600   30.9920   41.5000 H   0  0  0  0  0  0  0  0  0  0  0  0
   36.8680   32.8170   40.5360 H   0  0  0  0  0  0  0  0  0  0  0  0
   38.2540   31.6300   40.6280 H   0  0  0  0  0  0  0  0  0  0  0  0
   35.5310   31.3040   39.0990 H   0  0  0  0  0  0  0  0  0  0  0  0
   37.0060   29.7430   38.8480 N   0  0  1  0  0  0  0  0  0  0  0  0
   35.9040   28.9130   38.2710 C   0  0  0  0  0  0  0  0  0  0  0  0
   36.4050   27.5970   37.7700 C   0  0  0  0  0  0  0  0  0  0  0  0
   37.6260   27.7370   37.1130 O   0  0  0  0  0  0  0  0  0  0  0  0
   37.6630   29.0330   36.6430 C   0  0  0  0  0  0  0  0  0  0  0  0
   37.8700   30.0450   37.7970 C   0  0  2  0  0  0  0  0  0  0  0  0
   35.2340   28.7620   39.1660 H   0  0  0  0  0  0  0  0  0  0  0  0
   35.3020   29.4960   37.5700 H   0  0  0  0  0  0  0  0  0  0  0  0
   35.6950   27.2240   37.0020 H   0  0  0  0  0  0  0  0  0  0  0  0
   36.4420   26.8330   38.5790 H   0  0  0  0  0  0  0  0  0  0  0  0
   38.4540   29.1740   35.8770 H   0  0  0  0  0  0  0  0  0  0  0  0
   36.7140   29.2590   36.1130 H   0  0  0  0  0  0  0  0  0  0  0  0
   37.5400   31.0120   37.3300 H   0  0  0  0  0  0  0  0  0  0  0  0
   39.3280   30.0930   37.9380 C   0  0  0  0  0  0  0  0  0  0  0  0
   39.9050   31.4890   37.8530 C   0  0  0  0  0  0  0  0  0  0  0  0
   40.9870   31.4800   37.6360 H   0  0  0  0  0  0  0  0  0  0  0  0
   38.7490   28.8530   43.0210 C   0  0  0  0  0  0  0  0  0  0  0  0
   38.1350   27.5930   43.1720 C   0  0  0  0  0  0  0  0  0  0  0  0
   36.8620   27.4140   42.5990 C   0  0  0  0  0  0  0  0  0  0  0  0
   36.2810   28.4720   41.9240 N   0  0  0  0  0  0  0  0  0  0  0  0
   36.9220   29.6430   41.8190 C   0  0  0  0  0  0  0  0  0  0  0  0
   38.1250   29.8240   42.3550 N   0  0  0  0  0  0  0  0  0  0  0  0
   39.7210   29.0260   43.4450 H   0  0  0  0  0  0  0  0  0  0  0  0
   38.6100   26.7790   43.7060 H   0  0  0  0  0  0  0  0  0  0  0  0
   36.3310   26.4750   42.6760 H   0  0  0  0  0  0  0  0  0  0  0  0
  1  4  1  1  0  0  0
  1 28  1  0  0  0  0
  2  5  1  0  0  0  0
  2  6  1  0  0  0  0
  2  1  1  0  0  0  0
  3  7  1  6  0  0  0
  3  2  1  0  0  0  0
  3  1  1  0  0  0  0
  8  9  1  6  0  0  0
  8  3  1  0  0  0  0
  9 14  1  0  0  0  0
 10  9  1  0  0  0  0
 10 17  1  0  0  0  0
 11 10  1  0  0  0  0
 12 11  1  0  0  0  0
 12 13  1  0  0  0  0
 13 20  1  6  0  0  0
 13 21  1  0  0  0  0
 13  8  1  0  0  0  0
 15  9  1  0  0  0  0
 16 10  1  0  0  0  0
 18 12  1  0  0  0  0
 19 12  1  0  0  0  0
 22 21  1  0  0  0  0
 23 22  1  0  0  0  0
 24 25  1  0  0  0  0
 24 30  1  0  0  0  0
 25 31  1  0  0  0  0
 26 32  1  0  0  0  0
 26 25  2  0  0  0  0
 27 26  1  0  0  0  0
 28 27  2  0  0  0  0
 28 29  1  0  0  0  0
 29 24  2  0  0  0  0
M  END
>  <minimizedAffinity>
-4.06814718

>  <minimizedRMSD>
1.66696084

$$$$
