
 OpenBabel03242509313D

 15 15  0  0  0  0  0  0  0  0999 V2000
   38.0000   28.9030   43.3330 C   0  0  0  0  0  0  0  0  0  0  0  0
   38.1160   27.4890   43.2600 C   0  0  0  0  0  0  0  0  0  0  0  0
   37.4110   26.8350   42.2320 C   0  0  0  0  0  0  0  0  0  0  0  0
   36.6560   27.5920   41.3640 N   0  0  0  0  0  0  0  0  0  0  0  0
   36.5900   28.9270   41.4910 C   0  0  0  0  0  0  0  0  0  0  0  0
   37.2430   29.5740   42.4500 N   0  0  0  0  0  0  0  0  0  0  0  0
   38.5760   29.3240   44.1540 H   0  0  0  0  0  0  0  0  0  0  0  0
   38.7110   26.9290   43.9510 H   0  0  0  0  0  0  0  0  0  0  0  0
   37.5170   25.3620   42.1360 C   0  0  0  0  0  0  0  0  0  0  0  0
   37.6060   25.0800   40.7870 F   0  0  0  0  0  0  0  0  0  0  0  0
   38.6170   24.8590   42.7630 F   0  0  0  0  0  0  0  0  0  0  0  0
   36.3710   24.7280   42.6310 F   0  0  0  0  0  0  0  0  0  0  0  0
   35.7500   29.7130   40.5160 C   0  0  0  0  0  2  0  0  0  0  0  0
   35.1820   28.8290   39.4530 C   0  0  0  0  0  2  0  0  0  0  0  0
   35.2000   27.7680   39.7920 H   0  0  0  0  0  0  0  0  0  0  0  0
  1  7  1  0  0  0  0
  2  1  1  0  0  0  0
  2  8  1  0  0  0  0
  3  2  2  0  0  0  0
  4  5  2  0  0  0  0
  4  3  1  0  0  0  0
  5  6  1  0  0  0  0
  6  1  2  0  0  0  0
  9  3  1  0  0  0  0
  9 12  1  0  0  0  0
  9 11  1  0  0  0  0
 10  9  1  0  0  0  0
 13  5  1  0  0  0  0
 14 15  1  0  0  0  0
 14 13  1  0  0  0  0
M  END
>  <minimizedAffinity>
-3.86603284

>  <minimizedRMSD>
0.332261622

$$$$
