
 OpenBabel03242507593D

 37 39  0  0  1  0  0  0  0  0999 V2000
   37.0750   28.8750   36.3310 S   0  0  0  0  0  0  0  0  0  0  0  0
   32.9800   27.1210   36.7370 N   0  0  0  0  0  0  0  0  0  0  0  0
   33.1650   28.5250   36.9940 C   0  0  0  0  0  0  0  0  0  0  0  0
   34.3870   29.1100   36.3270 C   0  0  0  0  0  0  0  0  0  0  0  0
   35.4590   28.0760   36.1220 C   0  0  2  0  0  0  0  0  0  0  0  0
   35.4020   26.9630   37.1530 C   0  0  0  0  0  0  0  0  0  0  0  0
   34.0680   26.3120   37.2260 C   0  0  2  0  0  0  0  0  0  0  0  0
   32.0750   26.8470   37.1390 H   0  0  0  0  0  0  0  0  0  0  0  0
   32.2320   29.0360   36.6400 H   0  0  0  0  0  0  0  0  0  0  0  0
   33.2500   28.6610   38.0950 H   0  0  0  0  0  0  0  0  0  0  0  0
   34.7960   29.9600   36.8910 H   0  0  0  0  0  0  0  0  0  0  0  0
   34.1160   29.5190   35.3200 H   0  0  0  0  0  0  0  0  0  0  0  0
   35.4350   27.6400   35.0890 H   0  0  0  0  0  0  0  0  0  0  0  0
   36.1750   26.2230   36.8250 H   0  0  0  0  0  0  0  0  0  0  0  0
   35.7670   27.3910   38.1100 H   0  0  0  0  0  0  0  0  0  0  0  0
   33.8530   26.1470   38.3170 H   0  0  0  0  0  0  0  0  0  0  0  0
   34.0350   24.9390   36.5940 C   0  0  0  0  0  0  0  0  0  0  0  0
   33.1060   24.0380   37.3810 C   0  0  0  0  0  0  0  0  0  0  0  0
   33.3350   22.9710   37.2870 H   0  0  0  0  0  0  0  0  0  0  0  0
   37.1610   29.9460   40.2160 C   0  0  0  0  0  0  0  0  0  0  0  0
   37.1710   31.3260   40.2020 C   0  0  0  0  0  0  0  0  0  0  0  0
   37.1510   31.9590   38.9640 C   0  0  0  0  0  0  0  0  0  0  0  0
   37.1230   31.1820   37.8160 C   0  0  0  0  0  0  0  0  0  0  0  0
   37.1120   29.8100   37.8440 C   0  0  0  0  0  0  0  0  0  0  0  0
   37.1320   29.2250   39.0630 N   0  0  0  0  0  0  0  0  0  0  0  0
   37.1940   31.8820   41.1240 H   0  0  0  0  0  0  0  0  0  0  0  0
   37.1590   33.0200   38.9380 H   0  0  0  0  0  0  0  0  0  0  0  0
   37.1090   31.7450   36.8890 H   0  0  0  0  0  0  0  0  0  0  0  0
   38.1040   29.0150   43.6230 C   0  0  0  0  0  0  0  0  0  0  0  0
   37.2720   27.9120   43.8970 C   0  0  0  0  0  0  0  0  0  0  0  0
   36.3860   27.4980   42.8930 C   0  0  0  0  0  0  0  0  0  0  0  0
   36.3900   28.1860   41.7300 N   0  0  0  0  0  0  0  0  0  0  0  0
   37.1800   29.2230   41.4850 C   0  0  0  0  0  0  0  0  0  0  0  0
   38.0240   29.6200   42.4380 N   0  0  0  0  0  0  0  0  0  0  0  0
   38.7850   29.3290   44.4030 H   0  0  0  0  0  0  0  0  0  0  0  0
   37.2890   27.3800   44.8370 H   0  0  0  0  0  0  0  0  0  0  0  0
   35.7160   26.6510   43.0470 H   0  0  0  0  0  0  0  0  0  0  0  0
  1 24  1  0  0  0  0
  2  3  1  0  0  0  0
  2  8  1  0  0  0  0
  2  7  1  0  0  0  0
  3 10  1  0  0  0  0
  4 11  1  0  0  0  0
  4  3  1  0  0  0  0
  5 13  1  6  0  0  0
  5  4  1  0  0  0  0
  5  1  1  0  0  0  0
  5  6  1  0  0  0  0
  6  7  1  0  0  0  0
  6 15  1  0  0  0  0
  7 16  1  1  0  0  0
  9  3  1  0  0  0  0
 12  4  1  0  0  0  0
 14  6  1  0  0  0  0
 17  7  1  0  0  0  0
 17 18  1  0  0  0  0
 19 18  1  0  0  0  0
 20 33  1  0  0  0  0
 21 20  1  0  0  0  0
 21 26  1  0  0  0  0
 22 21  2  0  0  0  0
 23 24  2  0  0  0  0
 23 22  1  0  0  0  0
 24 25  1  0  0  0  0
 25 20  2  0  0  0  0
 27 22  1  0  0  0  0
 28 23  1  0  0  0  0
 29 30  1  0  0  0  0
 29 35  1  0  0  0  0
 30 36  1  0  0  0  0
 31 37  1  0  0  0  0
 31 30  2  0  0  0  0
 32 31  1  0  0  0  0
 33 32  2  0  0  0  0
 33 34  1  0  0  0  0
 34 29  2  0  0  0  0
M  END
>  <minimizedAffinity>
-4.58934927

>  <minimizedRMSD>
0.223660633

$$$$
