
 OpenBabel03242509063D

 26 28  0  0  0  0  0  0  0  0999 V2000
   37.7490   28.9560   41.9440 C   0  0  0  0  0  0  0  0  0  0  0  0
   36.6970   28.1540   42.3670 C   0  0  0  0  0  0  0  0  0  0  0  0
   37.1940   27.1880   43.1720 N   0  0  0  0  0  0  0  0  0  0  0  0
   38.5330   27.3290   43.2930 C   0  0  0  0  0  0  0  0  0  0  0  0
   39.5040   26.6200   43.9880 C   0  0  0  0  0  0  0  0  0  0  0  0
   40.8520   27.0100   43.9240 C   0  0  0  0  0  0  0  0  0  0  0  0
   41.1530   28.1080   43.1550 C   0  0  0  0  0  0  0  0  0  0  0  0
   40.1880   28.7970   42.4770 C   0  0  0  0  0  0  0  0  0  0  0  0
   38.8730   28.4300   42.5280 C   0  0  0  0  0  0  0  0  0  0  0  0
   35.6400   28.2380   42.1260 H   0  0  0  0  0  0  0  0  0  0  0  0
   36.6360   26.4330   43.6430 H   0  0  0  0  0  0  0  0  0  0  0  0
   39.2460   25.7580   44.5880 H   0  0  0  0  0  0  0  0  0  0  0  0
   41.6500   26.5030   44.4370 H   0  0  0  0  0  0  0  0  0  0  0  0
   42.1870   28.4550   43.0690 H   0  0  0  0  0  0  0  0  0  0  0  0
   40.4400   29.6670   41.8670 H   0  0  0  0  0  0  0  0  0  0  0  0
   36.8200   31.1110   39.0310 C   0  0  0  0  0  0  0  0  0  0  0  0
   36.9170   30.0100   39.9070 C   0  0  0  0  0  0  0  0  0  0  0  0
   37.6710   30.0960   41.0750 C   0  0  0  0  0  0  0  0  0  0  0  0
   38.2860   31.2870   41.2950 N   0  0  0  0  0  0  0  0  0  0  0  0
   38.2040   32.3430   40.4730 C   0  0  0  0  0  0  0  0  0  0  0  0
   37.4690   32.2580   39.3350 N   0  0  0  0  0  0  0  0  0  0  0  0
   36.2340   31.0440   38.1230 H   0  0  0  0  0  0  0  0  0  0  0  0
   36.3810   29.1060   39.6290 H   0  0  0  0  0  0  0  0  0  0  0  0
   38.9610   33.5440   40.9170 C   0  0  0  0  0  0  0  0  0  0  0  0
   38.5450   34.7700   40.1490 C   0  0  0  0  0  0  0  0  0  0  0  0
   38.6600   34.6440   39.0690 H   0  0  0  0  0  0  0  0  0  0  0  0
  1  2  2  0  0  0  0
  1  9  1  0  0  0  0
  2  3  1  0  0  0  0
  3  4  1  0  0  0  0
  3 11  1  0  0  0  0
  4  5  1  0  0  0  0
  5 12  1  0  0  0  0
  6  5  2  0  0  0  0
  6 13  1  0  0  0  0
  7  6  1  0  0  0  0
  8  9  1  0  0  0  0
  8  7  2  0  0  0  0
  9  4  2  0  0  0  0
 10  2  1  0  0  0  0
 14  7  1  0  0  0  0
 15  8  1  0  0  0  0
 16 21  2  0  0  0  0
 16 17  1  0  0  0  0
 17 18  2  0  0  0  0
 18 19  1  0  0  0  0
 18  1  1  0  0  0  0
 20 24  1  0  0  0  0
 20 19  2  0  0  0  0
 21 20  1  0  0  0  0
 22 16  1  0  0  0  0
 23 17  1  0  0  0  0
 25 24  1  0  0  0  0
 26 25  1  0  0  0  0
M  END
>  <minimizedAffinity>
-5.03217697

>  <minimizedRMSD>
2.90048647

$$$$
