
 OpenBabel03242509153D

 29 31  0  0  1  0  0  0  0  0999 V2000
   38.3100   29.2430   41.8270 C   0  0  1  0  0  0  0  0  0  0  0  0
   37.5960   28.9580   43.0960 C   0  0  0  0  0  0  0  0  0  0  0  0
   36.9440   28.4890   41.8790 C   0  0  2  0  0  0  0  0  0  0  0  0
   39.2340   28.7100   41.7080 H   0  0  0  0  0  0  0  0  0  0  0  0
   38.0470   28.2620   43.8140 H   0  0  0  0  0  0  0  0  0  0  0  0
   37.2420   29.8950   43.6240 H   0  0  0  0  0  0  0  0  0  0  0  0
   36.2780   29.0670   41.2090 H   0  0  0  0  0  0  0  0  0  0  0  0
   36.9900   27.0680   41.5340 C   0  0  0  0  0  0  0  0  0  0  0  0
   37.1110   26.1230   42.5200 C   0  0  0  0  0  0  0  0  0  0  0  0
   36.9910   24.7910   42.2880 C   0  0  0  0  0  0  0  0  0  0  0  0
   36.7390   24.3800   41.0020 C   0  0  0  0  0  0  0  0  0  0  0  0
   36.6200   25.3050   40.0200 C   0  0  0  0  0  0  0  0  0  0  0  0
   36.7460   26.6830   40.2730 C   0  0  0  0  0  0  0  0  0  0  0  0
   37.3120   26.4870   43.5350 H   0  0  0  0  0  0  0  0  0  0  0  0
   37.1010   24.1150   43.1410 H   0  0  0  0  0  0  0  0  0  0  0  0
   36.6550   23.3040   40.8900 H   0  0  0  0  0  0  0  0  0  0  0  0
   36.4200   24.8140   39.0590 H   0  0  0  0  0  0  0  0  0  0  0  0
   36.5890   27.4920   39.0710 C   0  0  0  0  0  0  0  0  0  0  0  0
   35.6070   26.8630   38.1050 C   0  0  0  0  0  0  0  0  0  0  0  0
   34.5590   26.9600   38.4010 H   0  0  0  0  0  0  0  0  0  0  0  0
   38.2230   30.6190   41.2480 C   0  0  0  0  0  0  0  0  0  0  0  0
   37.1640   30.8880   40.3880 C   0  0  0  0  0  0  0  0  0  0  0  0
   37.0230   32.1550   39.8180 C   0  0  0  0  0  0  0  0  0  0  0  0
   37.9810   33.0960   40.1590 N   0  0  0  0  0  0  0  0  0  0  0  0
   38.9980   32.7930   41.0030 C   0  0  0  0  0  0  0  0  0  0  0  0
   39.1080   31.5340   41.5480 N   0  0  0  0  0  0  0  0  0  0  0  0
   36.3450   30.3650   40.0180 H   0  0  0  0  0  0  0  0  0  0  0  0
   36.3030   32.5650   39.1480 H   0  0  0  0  0  0  0  0  0  0  0  0
   39.7400   33.5340   41.2650 H   0  0  0  0  0  0  0  0  0  0  0  0
  1  4  1  6  0  0  0
  1  3  1  0  0  0  0
  1  2  1  0  0  0  0
  2  6  1  0  0  0  0
  2  5  1  0  0  0  0
  3  7  1  6  0  0  0
  3  2  1  0  0  0  0
  8  3  1  0  0  0  0
  8  9  1  0  0  0  0
  9 14  1  0  0  0  0
 10  9  2  0  0  0  0
 10 15  1  0  0  0  0
 11 10  1  0  0  0  0
 12 13  1  0  0  0  0
 12 11  2  0  0  0  0
 13  8  2  0  0  0  0
 16 11  1  0  0  0  0
 17 12  1  0  0  0  0
 18 13  1  0  0  0  0
 19 20  1  0  0  0  0
 19 18  1  0  0  0  0
 21 26  1  0  0  0  0
 21  1  1  0  0  0  0
 22 21  2  0  0  0  0
 23 24  2  0  0  0  0
 23 22  1  0  0  0  0
 24 25  1  0  0  0  0
 25 29  1  0  0  0  0
 25 26  2  0  0  0  0
 27 22  1  0  0  0  0
 28 23  1  0  0  0  0
M  END
>  <minimizedAffinity>
-4.95625639

>  <minimizedRMSD>
0.796212494

$$$$
