
 OpenBabel03242509313D

 15 15  0  0  0  0  0  0  0  0999 V2000
   37.9990   28.9040   43.3330 C   0  0  0  0  0  0  0  0  0  0  0  0
   38.1160   27.4890   43.2600 C   0  0  0  0  0  0  0  0  0  0  0  0
   37.4100   26.8360   42.2320 C   0  0  0  0  0  0  0  0  0  0  0  0
   36.6560   27.5920   41.3640 N   0  0  0  0  0  0  0  0  0  0  0  0
   36.5900   28.9280   41.4900 C   0  0  0  0  0  0  0  0  0  0  0  0
   37.2430   29.5750   42.4500 N   0  0  0  0  0  0  0  0  0  0  0  0
   38.5750   29.3240   44.1540 H   0  0  0  0  0  0  0  0  0  0  0  0
   38.7110   26.9290   43.9510 H   0  0  0  0  0  0  0  0  0  0  0  0
   37.5160   25.3630   42.1360 C   0  0  0  0  0  0  0  0  0  0  0  0
   37.6060   25.0810   40.7860 F   0  0  0  0  0  0  0  0  0  0  0  0
   38.6160   24.8590   42.7620 F   0  0  0  0  0  0  0  0  0  0  0  0
   36.3700   24.7290   42.6310 F   0  0  0  0  0  0  0  0  0  0  0  0
   35.7500   29.7130   40.5150 C   0  0  0  0  0  2  0  0  0  0  0  0
   35.1820   28.8290   39.4530 C   0  0  0  0  0  2  0  0  0  0  0  0
   35.1990   27.7680   39.7940 H   0  0  0  0  0  0  0  0  0  0  0  0
  1  7  1  0  0  0  0
  2  1  1  0  0  0  0
  2  8  1  0  0  0  0
  3  2  2  0  0  0  0
  4  5  2  0  0  0  0
  4  3  1  0  0  0  0
  5  6  1  0  0  0  0
  6  1  2  0  0  0  0
  9  3  1  0  0  0  0
  9 12  1  0  0  0  0
  9 11  1  0  0  0  0
 10  9  1  0  0  0  0
 13  5  1  0  0  0  0
 14 15  1  0  0  0  0
 14 13  1  0  0  0  0
M  END
>  <minimizedAffinity>
-3.86874557

>  <minimizedRMSD>
0.237103164

$$$$
