
 OpenBabel03242507283D

 29 31  0  0  0  0  0  0  0  0999 V2000
   38.2050   27.2110   43.0830 C   0  0  0  0  0  0  0  0  0  0  0  0
   39.2150   26.3910   43.4160 C   0  0  0  0  0  0  0  0  0  0  0  0
   39.4680   25.2470   42.7520 C   0  0  0  0  0  0  0  0  0  0  0  0
   38.5430   25.0230   41.6700 C   0  0  0  0  0  0  0  0  0  0  0  0
   37.4490   26.3880   41.6890 S   0  0  0  0  0  0  0  0  0  0  0  0
   39.8020   26.7350   44.2620 H   0  0  0  0  0  0  0  0  0  0  0  0
   40.2630   24.5500   42.9700 H   0  0  0  0  0  0  0  0  0  0  0  0
   38.5320   23.8880   40.7540 C   0  0  0  0  0  0  0  0  0  0  0  0
   39.3340   23.7460   39.6820 C   0  0  0  0  0  0  0  0  0  0  0  0
   38.9350   22.5110   39.1480 C   0  0  0  0  0  0  0  0  0  0  0  0
   37.9390   21.9760   39.8990 N   0  0  0  0  0  0  0  0  0  0  0  0
   37.6980   22.8360   40.8900 N   0  0  0  0  0  0  0  0  0  0  0  0
   40.1100   24.3740   39.2690 H   0  0  0  0  0  0  0  0  0  0  0  0
   39.3350   22.0140   38.2650 H   0  0  0  0  0  0  0  0  0  0  0  0
   37.4750   21.0620   39.7050 H   0  0  0  0  0  0  0  0  0  0  0  0
   37.6710   28.4880   43.5820 C   0  0  0  0  0  0  0  0  0  0  0  0
   38.0990   28.6450   44.5950 H   0  0  0  0  0  0  0  0  0  0  0  0
   36.5690   28.5040   43.6800 H   0  0  0  0  0  0  0  0  0  0  0  0
   39.7950   31.2470   42.0720 C   0  0  0  0  0  0  0  0  0  0  0  0
   39.3960   30.1760   42.9180 C   0  0  0  0  0  0  0  0  0  0  0  0
   38.1490   29.6100   42.7330 C   0  0  0  0  0  0  0  0  0  0  0  0
   37.3520   30.1050   41.7390 N   0  0  0  0  0  0  0  0  0  0  0  0
   37.7670   31.1340   40.9460 C   0  0  0  0  0  0  0  0  0  0  0  0
   38.9480   31.6800   41.1120 N   0  0  0  0  0  0  0  0  0  0  0  0
   40.7660   31.7060   42.1970 H   0  0  0  0  0  0  0  0  0  0  0  0
   40.0620   29.8160   43.6910 H   0  0  0  0  0  0  0  0  0  0  0  0
   36.7910   31.5800   39.8940 C   0  0  0  0  0  0  0  0  0  0  0  0
   37.2460   32.9160   39.3370 C   0  0  0  0  0  0  0  0  0  0  0  0
   36.3660   33.4950   39.0270 H   0  0  0  0  0  0  0  0  0  0  0  0
  1  2  2  0  0  0  0
  1 16  1  0  0  0  0
  2  6  1  0  0  0  0
  3  7  1  0  0  0  0
  3  2  1  0  0  0  0
  4  5  1  0  0  0  0
  4  3  2  0  0  0  0
  5  1  1  0  0  0  0
  8 12  2  0  0  0  0
  8  4  1  0  0  0  0
  9  8  1  0  0  0  0
 10  9  2  0  0  0  0
 10 11  1  0  0  0  0
 11 12  1  0  0  0  0
 13  9  1  0  0  0  0
 14 10  1  0  0  0  0
 15 11  1  0  0  0  0
 16 18  1  0  0  0  0
 16 17  1  0  0  0  0
 19 25  1  0  0  0  0
 19 20  1  0  0  0  0
 20 26  1  0  0  0  0
 21 20  2  0  0  0  0
 21 16  1  0  0  0  0
 22 21  1  0  0  0  0
 23 24  1  0  0  0  0
 23 22  2  0  0  0  0
 24 19  2  0  0  0  0
 27 23  1  0  0  0  0
 28 27  1  0  0  0  0
 29 28  1  0  0  0  0
M  END
>  <minimizedAffinity>
-4.74171495

>  <minimizedRMSD>
1.88159084

$$$$
