
 OpenBabel03242508493D

 36 38  0  0  1  0  0  0  0  0999 V2000
   38.6670   28.3100   42.7970 C   0  0  2  0  0  0  0  0  0  0  0  0
   38.2380   27.1500   43.5460 C   0  0  0  0  0  0  0  0  0  0  0  0
   36.6980   27.1900   43.5050 C   0  0  0  0  0  0  0  0  0  0  0  0
   36.3690   28.0130   42.2850 C   0  0  0  0  0  0  0  0  0  0  0  0
   37.6630   28.2820   41.5690 C   0  0  1  0  0  0  0  0  0  0  0  0
   38.3120   29.1980   43.2610 H   0  0  0  0  0  0  0  0  0  0  0  0
   38.4880   27.3010   44.6370 H   0  0  0  0  0  0  0  0  0  0  0  0
   38.5370   26.1520   43.2370 H   0  0  0  0  0  0  0  0  0  0  0  0
   36.3050   27.7600   44.3720 H   0  0  0  0  0  0  0  0  0  0  0  0
   36.2800   26.1780   43.4930 H   0  0  0  0  0  0  0  0  0  0  0  0
   35.7920   27.3190   41.6080 H   0  0  0  0  0  0  0  0  0  0  0  0
   35.7370   28.8660   42.4930 H   0  0  0  0  0  0  0  0  0  0  0  0
   38.0030   27.5320   40.8710 H   0  0  0  0  0  0  0  0  0  0  0  0
   40.6680   27.0580   41.7940 C   0  0  0  0  0  0  0  0  0  0  0  0
   40.0350   28.2800   42.2730 C   0  0  0  0  0  0  0  0  0  0  0  0
   40.7080   29.4980   42.3030 C   0  0  0  0  0  0  0  0  0  0  0  0
   41.9920   29.4820   41.8440 N   0  0  0  0  0  0  0  0  0  0  0  0
   42.6140   28.2970   41.3740 C   0  0  0  0  0  0  0  0  0  0  0  0
   41.9250   27.0760   41.3600 N   0  0  0  0  0  0  0  0  0  0  0  0
   43.9670   28.3800   40.9000 N   0  0  0  0  0  0  0  0  0  0  0  0
   40.0860   26.1660   41.8070 H   0  0  0  0  0  0  0  0  0  0  0  0
   44.7600   28.7550   41.4970 H   0  0  0  0  0  0  0  0  0  0  0  0
   44.0730   28.0270   39.9020 H   0  0  0  0  0  0  0  0  0  0  0  0
   40.4390   30.8360   42.6780 C   0  0  0  0  0  0  0  0  0  0  0  0
   41.5890   31.4540   43.3350 F   0  0  0  0  0  0  0  0  0  0  0  0
   39.4680   31.3280   43.3680 F   0  0  0  0  0  0  0  0  0  0  0  0
   40.6380   31.6050   41.4850 F   0  0  0  0  0  0  0  0  0  0  0  0
   37.4370   29.6360   40.9970 C   0  0  0  0  0  0  0  0  0  0  0  0
   36.5110   30.4940   41.5190 N   0  0  0  0  0  0  0  0  0  0  0  0
   36.5510   31.5960   40.8090 O   0  0  0  0  0  0  0  0  0  0  0  0
   37.4490   31.4610   39.8820 C   0  0  0  0  0  0  0  0  0  0  0  0
   38.0270   30.2460   39.9640 N   0  0  0  0  0  0  0  0  0  0  0  0
   37.7390   32.5560   38.9030 C   0  0  0  0  0  0  0  0  0  0  0  0
   36.9270   33.6390   39.1830 F   0  0  0  0  0  0  0  0  0  0  0  0
   39.0650   32.9650   39.0110 F   0  0  0  0  0  0  0  0  0  0  0  0
   37.4810   32.1400   37.6170 F   0  0  0  0  0  0  0  0  0  0  0  0
  1  6  1  1  0  0  0
  1  2  1  0  0  0  0
  2  7  1  0  0  0  0
  3  2  1  0  0  0  0
  3  9  1  0  0  0  0
  4 12  1  0  0  0  0
  4  3  1  0  0  0  0
  5 13  1  6  0  0  0
  5  4  1  0  0  0  0
  5  1  1  0  0  0  0
  8  2  1  0  0  0  0
 10  3  1  0  0  0  0
 11  4  1  0  0  0  0
 14 21  1  0  0  0  0
 14 15  1  0  0  0  0
 15 16  2  0  0  0  0
 15  1  1  0  0  0  0
 16 24  1  0  0  0  0
 17 16  1  0  0  0  0
 18 17  2  0  0  0  0
 19 18  1  0  0  0  0
 19 14  2  0  0  0  0
 20 18  1  0  0  0  0
 20 22  1  0  0  0  0
 23 20  1  0  0  0  0
 24 25  1  0  0  0  0
 24 26  1  0  0  0  0
 27 24  1  0  0  0  0
 28 29  2  0  0  0  0
 28  5  1  0  0  0  0
 30 29  1  0  0  0  0
 31 32  2  0  0  0  0
 31 30  1  0  0  0  0
 32 28  1  0  0  0  0
 33 35  1  0  0  0  0
 33 34  1  0  0  0  0
 33 31  1  0  0  0  0
 36 33  1  0  0  0  0
M  END
>  <minimizedAffinity>
-5.68326235

>  <minimizedRMSD>
6.25573206

$$$$
