
 OpenBabel03242506053D

 38 40  0  0  1  0  0  0  0  0999 V2000
   36.9910   27.9930   41.6190 N   0  0  0  0  0  0  0  0  0  0  0  0
   36.8760   27.0760   42.7300 C   0  0  0  0  0  0  0  0  0  0  0  0
   37.4890   27.8250   43.9060 C   0  0  0  0  0  0  0  0  0  0  0  0
   38.0790   29.0940   43.3330 C   0  0  0  0  0  0  0  0  0  0  0  0
   38.2240   28.6870   41.8810 C   0  0  2  0  0  0  0  0  0  0  0  0
   37.5100   26.1760   42.5290 H   0  0  0  0  0  0  0  0  0  0  0  0
   35.8440   26.7410   42.9200 H   0  0  0  0  0  0  0  0  0  0  0  0
   38.1820   27.2180   44.4890 H   0  0  0  0  0  0  0  0  0  0  0  0
   36.6080   28.1620   44.5120 H   0  0  0  0  0  0  0  0  0  0  0  0
   39.0990   29.2180   43.7580 H   0  0  0  0  0  0  0  0  0  0  0  0
   37.4330   29.9810   43.4520 H   0  0  0  0  0  0  0  0  0  0  0  0
   39.0070   27.9050   41.9210 H   0  0  0  0  0  0  0  0  0  0  0  0
   38.5400   29.7500   40.9970 N   0  0  0  0  0  0  0  0  0  0  0  0
   38.0880   31.0040   40.9870 C   0  0  0  0  0  0  0  0  0  0  0  0
   38.5070   31.9210   40.0410 C   0  0  0  0  0  0  0  0  0  0  0  0
   39.4060   31.5870   39.0670 C   0  0  0  0  0  0  0  0  0  0  0  0
   39.7840   32.4180   38.2130 O   0  0  0  0  0  0  0  0  0  0  0  0
   39.8540   30.3030   39.0970 N   0  0  0  0  0  0  0  0  0  0  0  0
   39.4370   29.4180   40.0280 C   0  0  0  0  0  0  0  0  0  0  0  0
   39.9560   28.2450   39.9160 O   0  0  0  0  0  0  0  0  0  0  0  0
   37.3750   31.2380   41.7710 H   0  0  0  0  0  0  0  0  0  0  0  0
   40.5430   30.0330   38.3590 H   0  0  0  0  0  0  0  0  0  0  0  0
   37.9550   33.3030   40.0950 C   0  0  0  0  0  0  0  0  0  0  0  0
   38.3320   33.9090   39.2560 H   0  0  0  0  0  0  0  0  0  0  0  0
   36.8550   33.2280   40.1410 H   0  0  0  0  0  0  0  0  0  0  0  0
   38.2740   33.7480   41.0540 H   0  0  0  0  0  0  0  0  0  0  0  0
   35.0580   29.0820   40.5220 C   0  0  0  0  0  0  0  0  0  0  0  0
   36.1290   28.1810   40.5360 C   0  0  0  0  0  0  0  0  0  0  0  0
   36.3400   27.4160   39.3710 C   0  0  0  0  0  0  0  0  0  0  0  0
   35.5000   27.5990   38.3180 N   0  0  0  0  0  0  0  0  0  0  0  0
   34.4850   28.4790   38.3540 C   0  0  0  0  0  0  0  0  0  0  0  0
   34.2740   29.2110   39.4540 N   0  0  0  0  0  0  0  0  0  0  0  0
   34.9060   29.6680   41.4270 H   0  0  0  0  0  0  0  0  0  0  0  0
   37.1410   26.6920   39.2850 H   0  0  0  0  0  0  0  0  0  0  0  0
   33.5750   28.6610   37.1800 C   0  0  0  0  0  0  0  0  0  0  0  0
   32.4880   29.4370   37.5660 F   0  0  0  0  0  0  0  0  0  0  0  0
   34.2370   29.3240   36.1840 F   0  0  0  0  0  0  0  0  0  0  0  0
   33.1230   27.4170   36.7650 F   0  0  0  0  0  0  0  0  0  0  0  0
  1  5  1  0  0  0  0
  1  2  1  0  0  0  0
  2  7  1  0  0  0  0
  2  3  1  0  0  0  0
  3  8  1  0  0  0  0
  3  9  1  0  0  0  0
  4 11  1  0  0  0  0
  4 10  1  0  0  0  0
  4  3  1  0  0  0  0
  5 12  1  6  0  0  0
  5  4  1  0  0  0  0
  6  2  1  0  0  0  0
 13  5  1  0  0  0  0
 14 13  1  0  0  0  0
 14 21  1  0  0  0  0
 15 23  1  0  0  0  0
 15 14  2  0  0  0  0
 16 18  1  0  0  0  0
 16 15  1  0  0  0  0
 17 16  2  0  0  0  0
 18 19  1  0  0  0  0
 19 13  1  0  0  0  0
 20 19  2  0  0  0  0
 22 18  1  0  0  0  0
 23 25  1  0  0  0  0
 23 26  1  0  0  0  0
 24 23  1  0  0  0  0
 27 28  1  0  0  0  0
 27 33  1  0  0  0  0
 28  1  1  0  0  0  0
 29 28  2  0  0  0  0
 30 31  2  0  0  0  0
 30 29  1  0  0  0  0
 31 32  1  0  0  0  0
 32 27  2  0  0  0  0
 34 29  1  0  0  0  0
 35 36  1  0  0  0  0
 35 31  1  0  0  0  0
 37 35  1  0  0  0  0
 38 35  1  0  0  0  0
M  END
>  <minimizedAffinity>
-5.53494835

>  <minimizedRMSD>
0.432393104

$$$$
