
 OpenBabel03242509303D

 16 16  0  0  0  0  0  0  0  0999 V2000
   38.0030   28.8740   43.3580 C   0  0  0  0  0  0  0  0  0  0  0  0
   38.1340   27.4620   43.3000 C   0  0  0  0  0  0  0  0  0  0  0  0
   37.4430   26.8000   42.2700 C   0  0  0  0  0  0  0  0  0  0  0  0
   36.6990   27.5620   41.4030 N   0  0  0  0  0  0  0  0  0  0  0  0
   36.6010   28.8930   41.4920 C   0  0  0  0  0  0  0  0  0  0  0  0
   37.2610   29.5320   42.4770 N   0  0  0  0  0  0  0  0  0  0  0  0
   38.5550   29.3460   44.1710 H   0  0  0  0  0  0  0  0  0  0  0  0
   38.7320   26.9190   44.0070 H   0  0  0  0  0  0  0  0  0  0  0  0
   37.5500   25.3180   42.1670 C   0  0  0  0  0  0  0  0  0  0  0  0
   37.6870   25.0470   40.8260 F   0  0  0  0  0  0  0  0  0  0  0  0
   38.6380   24.8300   42.8150 F   0  0  0  0  0  0  0  0  0  0  0  0
   36.3920   24.6970   42.6330 F   0  0  0  0  0  0  0  0  0  0  0  0
   35.7610   29.5970   40.4880 C   0  0  0  0  0  0  0  0  0  0  0  0
   36.3180   29.4520   39.2280 F   0  0  0  0  0  0  0  0  0  0  0  0
   34.4670   29.1170   40.4760 F   0  0  0  0  0  0  0  0  0  0  0  0
   35.7290   30.9350   40.8120 F   0  0  0  0  0  0  0  0  0  0  0  0
  1  7  1  0  0  0  0
  2  1  1  0  0  0  0
  2  8  1  0  0  0  0
  3  2  2  0  0  0  0
  4  5  2  0  0  0  0
  4  3  1  0  0  0  0
  5  6  1  0  0  0  0
  6  1  2  0  0  0  0
  9  3  1  0  0  0  0
  9 12  1  0  0  0  0
  9 11  1  0  0  0  0
 10  9  1  0  0  0  0
 13 16  1  0  0  0  0
 13  5  1  0  0  0  0
 14 13  1  0  0  0  0
 15 13  1  0  0  0  0
M  END
>  <minimizedAffinity>
-4.46899271

>  <minimizedRMSD>
0.22475341

$$$$
