
 OpenBabel03242505573D

 43 47  0  0  0  0  0  0  0  0999 V2000
   42.1110   29.9030   40.9610 C   0  0  0  0  0  0  0  0  0  0  0  0
   42.1430   30.1990   42.2940 C   0  0  0  0  0  0  0  0  0  0  0  0
   40.9550   30.7180   42.8230 C   0  0  0  0  0  0  0  0  0  0  0  0
   39.9040   30.8850   42.0130 N   0  0  0  0  0  0  0  0  0  0  0  0
   39.9080   30.5890   40.7370 C   0  0  0  0  0  0  0  0  0  0  0  0
   41.0480   30.0760   40.1650 N   0  0  0  0  0  0  0  0  0  0  0  0
   38.6930   30.8440   40.0410 N   0  0  0  0  0  0  0  0  0  0  0  0
   37.8860   30.1400   39.2920 N   0  0  0  0  0  0  0  0  0  0  0  0
   36.8580   30.8940   38.8810 C   0  0  0  0  0  0  0  0  0  0  0  0
   37.0360   32.1410   39.4040 C   0  0  0  0  0  0  0  0  0  0  0  0
   38.2060   32.1020   40.1430 C   0  0  0  0  0  0  0  0  0  0  0  0
   42.8980   29.5080   40.3390 H   0  0  0  0  0  0  0  0  0  0  0  0
   40.9660   30.9590   43.8810 H   0  0  0  0  0  0  0  0  0  0  0  0
   36.0750   30.4890   38.2460 H   0  0  0  0  0  0  0  0  0  0  0  0
   36.3230   32.9070   39.1990 H   0  0  0  0  0  0  0  0  0  0  0  0
   43.3880   29.9660   43.0590 C   0  0  0  0  0  0  0  0  0  0  0  0
   44.0270   29.3760   42.3190 H   0  0  0  0  0  0  0  0  0  0  0  0
   43.9870   30.9050   43.1390 H   0  0  0  0  0  0  0  0  0  0  0  0
   43.3070   29.1380   44.2260 C   0  0  0  0  0  0  0  0  0  0  0  0
   42.8610   27.8100   44.0760 C   0  0  0  0  0  0  0  0  0  0  0  0
   42.7610   26.9500   45.1380 C   0  0  0  0  0  0  0  0  0  0  0  0
   43.1180   27.4260   46.4010 C   0  0  0  0  0  0  0  0  0  0  0  0
   43.5550   28.7120   46.5590 C   0  0  0  0  0  0  0  0  0  0  0  0
   43.9200   29.1820   47.8180 C   0  0  0  0  0  0  0  0  0  0  0  0
   44.3590   30.4500   47.9810 C   0  0  0  0  0  0  0  0  0  0  0  0
   44.4630   31.3350   46.9020 C   0  0  0  0  0  0  0  0  0  0  0  0
   44.0890   30.8370   45.6410 C   0  0  0  0  0  0  0  0  0  0  0  0
   43.6520   29.5730   45.4750 C   0  0  0  0  0  0  0  0  0  0  0  0
   42.5640   27.3100   43.1730 H   0  0  0  0  0  0  0  0  0  0  0  0
   42.4390   25.9410   45.1380 H   0  0  0  0  0  0  0  0  0  0  0  0
   43.0690   26.8100   47.2960 H   0  0  0  0  0  0  0  0  0  0  0  0
   43.8430   28.5110   48.6520 H   0  0  0  0  0  0  0  0  0  0  0  0
   44.6340   30.7730   48.9890 H   0  0  0  0  0  0  0  0  0  0  0  0
   44.8090   32.3270   47.0480 H   0  0  0  0  0  0  0  0  0  0  0  0
   44.1910   31.5740   44.8590 H   0  0  0  0  0  0  0  0  0  0  0  0
   38.6670   33.2320   40.8090 O   0  0  0  0  0  0  0  0  0  0  0  0
   39.4970   34.1910   40.3340 C   0  0  0  0  0  0  0  0  0  0  0  0
   39.0000   35.4810   40.4780 C   0  0  0  0  0  0  0  0  0  0  0  0
   39.7070   36.5920   40.0530 C   0  0  0  0  0  0  0  0  0  0  0  0
   40.9280   36.3960   39.4740 C   0  0  0  0  0  0  0  0  0  0  0  0
   41.5670   37.1940   39.1030 H   0  0  0  0  0  0  0  0  0  0  0  0
   41.4330   35.1030   39.3250 C   0  0  0  0  0  0  0  0  0  0  0  0
   40.7020   34.0770   39.7570 N   0  0  0  0  0  0  0  0  0  0  0  0
  1  2  1  0  0  0  0
  2  3  2  0  0  0  0
  2 16  1  0  0  0  0
  3 13  1  0  0  0  0
  4  3  1  0  0  0  0
  5  4  2  0  0  0  0
  6  5  1  0  0  0  0
  6  1  2  0  0  0  0
  7 11  1  0  0  0  0
  7  5  1  0  0  0  0
  8  7  1  0  0  0  0
  9  8  2  0  0  0  0
  9 10  1  0  0  0  0
 10 11  2  0  0  0  0
 11 36  1  0  0  0  0
 12  1  1  0  0  0  0
 14  9  1  0  0  0  0
 15 10  1  0  0  0  0
 16 18  1  0  0  0  0
 16 19  1  0  0  0  0
 17 16  1  0  0  0  0
 19 28  1  0  0  0  0
 20 19  2  0  0  0  0
 20 21  1  0  0  0  0
 21 22  2  0  0  0  0
 22 23  1  0  0  0  0
 22 31  1  0  0  0  0
 23 24  1  0  0  0  0
 24 25  2  0  0  0  0
 24 32  1  0  0  0  0
 25 33  1  0  0  0  0
 26 34  1  0  0  0  0
 26 25  1  0  0  0  0
 27 26  2  0  0  0  0
 28 27  1  0  0  0  0
 28 23  2  0  0  0  0
 29 20  1  0  0  0  0
 30 21  1  0  0  0  0
 35 27  1  0  0  0  0
 37 38  1  0  0  0  0
 37 36  1  0  0  0  0
 39 38  2  0  0  0  0
 40 39  1  0  0  0  0
 41 40  1  0  0  0  0
 42 40  2  0  0  0  0
 42 43  1  0  0  0  0
 43 37  2  0  0  0  0
M  END
>  <minimizedAffinity>
-7.20089436

>  <minimizedRMSD>
5.82109118

$$$$
