
 OpenBabel03242509313D

 16 16  0  0  0  0  0  0  0  0999 V2000
   38.0720   28.6860   43.4140 C   0  0  0  0  0  0  0  0  0  0  0  0
   38.1120   27.2790   43.2420 C   0  0  0  0  0  0  0  0  0  0  0  0
   37.3870   26.7490   42.1590 C   0  0  0  0  0  0  0  0  0  0  0  0
   36.7000   27.6260   41.3560 N   0  0  0  0  0  0  0  0  0  0  0  0
   36.6890   28.9500   41.5530 C   0  0  0  0  0  0  0  0  0  0  0  0
   37.3820   29.4620   42.5890 N   0  0  0  0  0  0  0  0  0  0  0  0
   38.6480   29.0530   44.2640 H   0  0  0  0  0  0  0  0  0  0  0  0
   38.6680   26.6420   43.9030 H   0  0  0  0  0  0  0  0  0  0  0  0
   37.3970   25.2760   41.9360 C   0  0  0  0  0  0  0  0  0  0  0  0
   37.1650   25.1020   40.5920 F   0  0  0  0  0  0  0  0  0  0  0  0
   38.5950   24.7150   42.2390 F   0  0  0  0  0  0  0  0  0  0  0  0
   36.3760   24.6520   42.6510 F   0  0  0  0  0  0  0  0  0  0  0  0
   35.9040   29.7860   40.6080 C   0  0  0  0  0  0  0  0  0  0  0  0
   34.6210   29.2760   40.4870 F   0  0  0  0  0  0  0  0  0  0  0  0
   35.8380   31.1010   41.0200 F   0  0  0  0  0  0  0  0  0  0  0  0
   36.5190   29.7430   39.3780 F   0  0  0  0  0  0  0  0  0  0  0  0
  1  7  1  0  0  0  0
  2  1  1  0  0  0  0
  2  8  1  0  0  0  0
  3  2  2  0  0  0  0
  4  5  2  0  0  0  0
  4  3  1  0  0  0  0
  5  6  1  0  0  0  0
  6  1  2  0  0  0  0
  9  3  1  0  0  0  0
  9 11  1  0  0  0  0
  9 12  1  0  0  0  0
 10  9  1  0  0  0  0
 13 15  1  0  0  0  0
 13  5  1  0  0  0  0
 14 13  1  0  0  0  0
 16 13  1  0  0  0  0
M  END
>  <minimizedAffinity>
-4.42277193

>  <minimizedRMSD>
0.476947993

$$$$
