
 OpenBabel03242508263D

 19 20  0  0  0  0  0  0  0  0999 V2000
   36.1140   30.2640   40.9060 O   0  0  0  0  0  0  0  0  0  0  0  0
   38.6110   28.8110   43.1410 C   0  0  0  0  0  0  0  0  0  0  0  0
   38.0370   27.5440   43.3250 C   0  0  0  0  0  0  0  0  0  0  0  0
   36.8240   27.2900   42.6560 C   0  0  0  0  0  0  0  0  0  0  0  0
   36.2860   28.2710   41.8850 N   0  0  0  0  0  0  0  0  0  0  0  0
   36.8660   29.4630   41.7380 C   0  0  0  0  0  0  0  0  0  0  0  0
   38.0340   29.7300   42.3720 N   0  0  0  0  0  0  0  0  0  0  0  0
   39.5370   29.1370   43.5940 H   0  0  0  0  0  0  0  0  0  0  0  0
   38.5560   26.8440   43.9620 H   0  0  0  0  0  0  0  0  0  0  0  0
   36.3840   26.3120   42.8000 H   0  0  0  0  0  0  0  0  0  0  0  0
   36.7520   31.2690   40.1810 C   0  0  0  0  0  0  0  0  0  0  0  0
   36.8760   31.4210   38.8350 N   0  0  0  0  0  0  0  0  0  0  0  0
   37.5640   32.5210   38.5870 O   0  0  0  0  0  0  0  0  0  0  0  0
   37.8620   33.0440   39.7630 C   0  0  0  0  0  0  0  0  0  0  0  0
   37.3840   32.3120   40.7760 N   0  0  0  0  0  0  0  0  0  0  0  0
   38.6330   34.3010   40.0780 C   0  0  0  0  0  0  0  0  0  0  0  0
   39.8470   34.2540   39.4140 F   0  0  0  0  0  0  0  0  0  0  0  0
   37.9560   35.4090   39.5630 F   0  0  0  0  0  0  0  0  0  0  0  0
   38.7620   34.4940   41.4190 F   0  0  0  0  0  0  0  0  0  0  0  0
  1  6  1  0  0  0  0
  2  3  1  0  0  0  0
  2  8  1  0  0  0  0
  3  9  1  0  0  0  0
  4 10  1  0  0  0  0
  4  3  2  0  0  0  0
  5  4  1  0  0  0  0
  6  5  2  0  0  0  0
  6  7  1  0  0  0  0
  7  2  2  0  0  0  0
 11 15  1  0  0  0  0
 11  1  1  0  0  0  0
 12 11  2  0  0  0  0
 13 12  1  0  0  0  0
 13 14  1  0  0  0  0
 14 16  1  0  0  0  0
 14 15  2  0  0  0  0
 16 19  1  0  0  0  0
 17 16  1  0  0  0  0
 18 16  1  0  0  0  0
M  END
>  <minimizedAffinity>
-4.66289711

>  <minimizedRMSD>
0.869346499

$$$$
