
 OpenBabel03242506343D

 21 22  0  0  0  0  0  0  0  0999 V2000
   37.2280   30.5000   40.4200 C   0  0  0  0  0  0  0  0  0  0  0  0
   37.3550   31.8440   40.6420 C   0  0  0  0  0  0  0  0  0  0  0  0
   37.3410   32.6660   39.5300 C   0  0  0  0  0  0  0  0  0  0  0  0
   37.2090   32.1810   38.2700 N   0  0  0  0  0  0  0  0  0  0  0  0
   37.0840   30.8290   38.0830 C   0  0  0  0  0  0  0  0  0  0  0  0
   37.0970   30.0240   39.1680 N   0  0  0  0  0  0  0  0  0  0  0  0
   37.4620   32.2740   41.6200 H   0  0  0  0  0  0  0  0  0  0  0  0
   37.4340   33.7580   39.5810 H   0  0  0  0  0  0  0  0  0  0  0  0
   38.1020   28.8740   43.5940 C   0  0  0  0  0  0  0  0  0  0  0  0
   37.1940   27.7670   43.6200 C   0  0  0  0  0  0  0  0  0  0  0  0
   36.3170   27.6150   42.5550 C   0  0  0  0  0  0  0  0  0  0  0  0
   36.3720   28.5280   41.5490 N   0  0  0  0  0  0  0  0  0  0  0  0
   37.2330   29.5630   41.5400 C   0  0  0  0  0  0  0  0  0  0  0  0
   38.0890   29.7340   42.5530 N   0  0  0  0  0  0  0  0  0  0  0  0
   38.7760   28.9700   44.4380 H   0  0  0  0  0  0  0  0  0  0  0  0
   37.2030   27.0810   44.4490 H   0  0  0  0  0  0  0  0  0  0  0  0
   35.6400   26.7920   42.5720 H   0  0  0  0  0  0  0  0  0  0  0  0
   36.9340   30.1920   36.7450 C   0  0  0  0  0  0  0  0  0  0  0  0
   35.6860   29.5800   36.6520 F   0  0  0  0  0  0  0  0  0  0  0  0
   37.0930   31.1850   35.7830 F   0  0  0  0  0  0  0  0  0  0  0  0
   37.8730   29.2260   36.4960 F   0  0  0  0  0  0  0  0  0  0  0  0
  1  2  1  0  0  0  0
  1 13  1  0  0  0  0
  2  7  1  0  0  0  0
  3  8  1  0  0  0  0
  3  2  2  0  0  0  0
  4  3  1  0  0  0  0
  5  4  2  0  0  0  0
  5  6  1  0  0  0  0
  6  1  2  0  0  0  0
  9 10  1  0  0  0  0
  9 15  1  0  0  0  0
 10 16  1  0  0  0  0
 11 17  1  0  0  0  0
 11 10  2  0  0  0  0
 12 11  1  0  0  0  0
 13 12  2  0  0  0  0
 13 14  1  0  0  0  0
 14  9  2  0  0  0  0
 18  5  1  0  0  0  0
 19 18  1  0  0  0  0
 20 18  1  0  0  0  0
 21 18  1  0  0  0  0
M  END
>  <minimizedAffinity>
-4.3185463

>  <minimizedRMSD>
0.544004798

$$$$
