
 OpenBabel03242508183D

 26 28  0  0  0  0  0  0  0  0999 V2000
   38.5940   27.3620   43.8730 C   0  0  0  0  0  0  0  0  0  0  0  0
   39.0550   26.3800   42.9990 C   0  0  0  0  0  0  0  0  0  0  0  0
   39.0460   26.6830   41.6310 C   0  0  0  0  0  0  0  0  0  0  0  0
   38.5930   27.9070   41.2390 N   0  0  0  0  0  0  0  0  0  0  0  0
   38.1550   28.8300   42.1180 C   0  0  0  0  0  0  0  0  0  0  0  0
   38.1540   28.5560   43.4530 N   0  0  0  0  0  0  0  0  0  0  0  0
   37.7310   30.0310   41.4820 N   0  0  0  0  0  0  0  0  0  0  0  0
   36.4290   30.2170   41.1320 C   0  0  0  0  0  0  0  0  0  0  0  0
   36.2800   31.4200   40.5520 N   0  0  0  0  0  0  0  0  0  0  0  0
   37.4920   32.0120   40.5280 C   0  0  0  0  0  0  0  0  0  0  0  0
   37.9610   33.2310   40.0680 C   0  0  0  0  0  0  0  0  0  0  0  0
   39.2860   33.5070   40.2130 N   0  0  0  0  0  0  0  0  0  0  0  0
   40.1260   32.6400   40.7810 C   0  0  0  0  0  0  0  0  0  0  0  0
   39.6740   31.4340   41.2380 N   0  0  0  0  0  0  0  0  0  0  0  0
   38.3720   31.1360   41.1080 C   0  0  0  0  0  0  0  0  0  0  0  0
   36.9650   34.0610   39.4890 N   0  0  0  0  0  0  0  0  0  0  0  0
   38.5900   27.1560   44.9180 H   0  0  0  0  0  0  0  0  0  0  0  0
   39.4100   25.4130   43.3310 H   0  0  0  0  0  0  0  0  0  0  0  0
   39.3960   25.9540   40.8950 H   0  0  0  0  0  0  0  0  0  0  0  0
   35.6050   29.5290   41.2770 H   0  0  0  0  0  0  0  0  0  0  0  0
   36.8400   34.3090   38.4870 H   0  0  0  0  0  0  0  0  0  0  0  0
   36.3190   34.4270   40.2270 H   0  0  0  0  0  0  0  0  0  0  0  0
   41.5580   33.0060   40.9060 C   0  0  0  0  0  0  0  0  0  0  0  0
   42.0730   32.3890   42.0340 F   0  0  0  0  0  0  0  0  0  0  0  0
   42.2820   32.6080   39.7760 F   0  0  0  0  0  0  0  0  0  0  0  0
   41.6800   34.3880   41.0450 F   0  0  0  0  0  0  0  0  0  0  0  0
  1 17  1  0  0  0  0
  2 18  1  0  0  0  0
  2  1  2  0  0  0  0
  3  2  1  0  0  0  0
  4  3  2  0  0  0  0
  4  5  1  0  0  0  0
  5  6  2  0  0  0  0
  6  1  1  0  0  0  0
  7  5  1  0  0  0  0
  8 20  1  0  0  0  0
  8  7  1  0  0  0  0
  9  8  2  0  0  0  0
 10  9  1  0  0  0  0
 10 15  1  0  0  0  0
 11 12  1  0  0  0  0
 11 10  2  0  0  0  0
 12 13  2  0  0  0  0
 13 23  1  0  0  0  0
 13 14  1  0  0  0  0
 15 14  2  0  0  0  0
 15  7  1  0  0  0  0
 16 11  1  0  0  0  0
 16 22  1  0  0  0  0
 19  3  1  0  0  0  0
 21 16  1  0  0  0  0
 23 26  1  0  0  0  0
 23 24  1  0  0  0  0
 25 23  1  0  0  0  0
M  END
>  <minimizedAffinity>
-5.67093754

>  <minimizedRMSD>
1.27725065

$$$$
