
 OpenBabel03242509123D

 39 43  0  0  1  0  0  0  0  0999 V2000
   36.1530   30.7990   41.1050 C   0  0  0  0  0  0  0  0  0  0  0  0
   36.8090   29.6970   41.6820 C   0  0  0  0  0  0  0  0  0  0  0  0
   38.1830   29.6050   41.5810 C   0  0  0  0  0  0  0  0  0  0  0  0
   38.8080   30.6170   40.9180 N   0  0  0  0  0  0  0  0  0  0  0  0
   38.1750   31.6720   40.3680 C   0  0  0  0  0  0  0  0  0  0  0  0
   36.8350   31.7540   40.4670 N   0  0  0  0  0  0  0  0  0  0  0  0
   35.0860   30.9610   41.1270 H   0  0  0  0  0  0  0  0  0  0  0  0
   36.0920   29.0640   42.1680 H   0  0  0  0  0  0  0  0  0  0  0  0
   38.8550   28.4730   42.1520 C   0  0  0  0  0  0  0  0  0  0  0  0
   40.0400   28.4720   42.8810 C   0  0  0  0  0  0  0  0  0  0  0  0
   40.3270   27.1950   43.2440 N   0  0  0  0  0  0  0  0  0  0  0  0
   39.3780   26.3530   42.7830 C   0  0  0  0  0  0  0  0  0  0  0  0
   39.1900   24.9860   42.8650 C   0  0  0  0  0  0  0  0  0  0  0  0
   38.0880   24.3790   42.2750 C   0  0  0  0  0  0  0  0  0  0  0  0
   37.1900   25.1900   41.6030 C   0  0  0  0  0  0  0  0  0  0  0  0
   37.3930   26.5420   41.5300 C   0  0  0  0  0  0  0  0  0  0  0  0
   38.4750   27.1480   42.1100 C   0  0  0  0  0  0  0  0  0  0  0  0
   40.5920   29.3750   43.0880 H   0  0  0  0  0  0  0  0  0  0  0  0
   41.1670   26.9160   43.8010 H   0  0  0  0  0  0  0  0  0  0  0  0
   39.9420   24.4270   43.4110 H   0  0  0  0  0  0  0  0  0  0  0  0
   38.0220   23.3120   42.3900 H   0  0  0  0  0  0  0  0  0  0  0  0
   36.3700   24.6140   41.1810 H   0  0  0  0  0  0  0  0  0  0  0  0
   36.6100   26.9900   40.9550 H   0  0  0  0  0  0  0  0  0  0  0  0
   38.9630   32.7510   39.6810 C   0  0  1  0  0  0  0  0  0  0  0  0
   39.2060   34.0390   40.4920 C   0  0  0  0  0  0  0  0  0  0  0  0
   40.3030   33.0840   40.2180 C   0  0  2  0  0  0  0  0  0  0  0  0
   38.6570   32.9000   38.6440 H   0  0  0  0  0  0  0  0  0  0  0  0
   39.1080   34.9570   39.9170 H   0  0  0  0  0  0  0  0  0  0  0  0
   38.6860   34.0540   41.4670 H   0  0  0  0  0  0  0  0  0  0  0  0
   40.6220   32.4510   41.1020 H   0  0  0  0  0  0  0  0  0  0  0  0
   41.4140   33.4370   39.3180 C   0  0  0  0  0  0  0  0  0  0  0  0
   41.6370   34.6030   38.7000 N   0  0  0  0  0  0  0  0  0  0  0  0
   42.7250   34.5210   37.9710 O   0  0  0  0  0  0  0  0  0  0  0  0
   43.2420   33.3140   38.0860 C   0  0  0  0  0  0  0  0  0  0  0  0
   42.4140   32.6400   38.9320 N   0  0  0  0  0  0  0  0  0  0  0  0
   44.4500   32.6880   37.4880 C   0  0  0  0  0  0  0  0  0  0  0  0
   44.0930   31.7610   36.5220 F   0  0  0  0  0  0  0  0  0  0  0  0
   45.1590   32.0210   38.4490 F   0  0  0  0  0  0  0  0  0  0  0  0
   45.2930   33.6330   36.9350 F   0  0  0  0  0  0  0  0  0  0  0  0
  1  7  1  0  0  0  0
  1  2  1  0  0  0  0
  2  8  1  0  0  0  0
  3  2  2  0  0  0  0
  3  9  1  0  0  0  0
  4  3  1  0  0  0  0
  5  6  1  0  0  0  0
  5  4  2  0  0  0  0
  6  1  2  0  0  0  0
  9 10  2  0  0  0  0
 10 18  1  0  0  0  0
 10 11  1  0  0  0  0
 11 19  1  0  0  0  0
 12 13  1  0  0  0  0
 12 11  1  0  0  0  0
 13 20  1  0  0  0  0
 14 21  1  0  0  0  0
 14 13  2  0  0  0  0
 15 14  1  0  0  0  0
 16 15  2  0  0  0  0
 16 17  1  0  0  0  0
 17  9  1  0  0  0  0
 17 12  2  0  0  0  0
 22 15  1  0  0  0  0
 23 16  1  0  0  0  0
 24 27  1  6  0  0  0
 24 26  1  0  0  0  0
 24  5  1  0  0  0  0
 24 25  1  0  0  0  0
 25 29  1  0  0  0  0
 26 25  1  0  0  0  0
 26 30  1  1  0  0  0
 28 25  1  0  0  0  0
 31 26  1  0  0  0  0
 32 31  2  0  0  0  0
 33 34  1  0  0  0  0
 33 32  1  0  0  0  0
 34 35  2  0  0  0  0
 35 31  1  0  0  0  0
 36 34  1  0  0  0  0
 36 38  1  0  0  0  0
 37 36  1  0  0  0  0
 39 36  1  0  0  0  0
M  END
>  <minimizedAffinity>
-6.12763023

>  <minimizedRMSD>
0.996243477

$$$$
