
 OpenBabel03242509303D

 16 16  0  0  0  0  0  0  0  0999 V2000
   38.0050   28.8700   43.3640 C   0  0  0  0  0  0  0  0  0  0  0  0
   38.1290   27.4570   43.3020 C   0  0  0  0  0  0  0  0  0  0  0  0
   37.4400   26.8020   42.2650 C   0  0  0  0  0  0  0  0  0  0  0  0
   36.7060   27.5720   41.3970 N   0  0  0  0  0  0  0  0  0  0  0  0
   36.6140   28.9030   41.4890 C   0  0  0  0  0  0  0  0  0  0  0  0
   37.2720   29.5350   42.4810 N   0  0  0  0  0  0  0  0  0  0  0  0
   38.5550   29.3360   44.1820 H   0  0  0  0  0  0  0  0  0  0  0  0
   38.7200   26.9090   44.0100 H   0  0  0  0  0  0  0  0  0  0  0  0
   37.5390   25.3200   42.1580 C   0  0  0  0  0  0  0  0  0  0  0  0
   37.6620   25.0510   40.8150 F   0  0  0  0  0  0  0  0  0  0  0  0
   38.6320   24.8260   42.7940 F   0  0  0  0  0  0  0  0  0  0  0  0
   36.3830   24.7030   42.6340 F   0  0  0  0  0  0  0  0  0  0  0  0
   35.7840   29.6140   40.4830 C   0  0  0  0  0  0  0  0  0  0  0  0
   35.7290   30.9640   40.7910 F   0  0  0  0  0  0  0  0  0  0  0  0
   36.2780   29.4540   39.2050 F   0  0  0  0  0  0  0  0  0  0  0  0
   34.5090   29.0940   40.5270 F   0  0  0  0  0  0  0  0  0  0  0  0
  1  7  1  0  0  0  0
  2  1  1  0  0  0  0
  2  8  1  0  0  0  0
  3  2  2  0  0  0  0
  4  5  2  0  0  0  0
  4  3  1  0  0  0  0
  5  6  1  0  0  0  0
  6  1  2  0  0  0  0
  9  3  1  0  0  0  0
  9 12  1  0  0  0  0
  9 11  1  0  0  0  0
 10  9  1  0  0  0  0
 13 16  1  0  0  0  0
 13 14  1  0  0  0  0
 13  5  1  0  0  0  0
 15 13  1  0  0  0  0
M  END
>  <minimizedAffinity>
-4.46757174

>  <minimizedRMSD>
0.144795716

$$$$
