
 OpenBabel03242508353D

 33 35  0  0  0  0  0  0  0  0999 V2000
   35.6520   29.5070   40.9270 O   0  0  0  0  0  0  0  0  0  0  0  0
   37.6330   27.4600   43.1950 C   0  0  0  0  0  0  0  0  0  0  0  0
   37.7200   26.2950   42.3810 C   0  0  0  0  0  0  0  0  0  0  0  0
   37.1010   26.3100   41.1460 C   0  0  0  0  0  0  0  0  0  0  0  0
   36.4500   27.4370   40.7870 N   0  0  0  0  0  0  0  0  0  0  0  0
   36.3690   28.5210   41.5390 C   0  0  0  0  0  0  0  0  0  0  0  0
   36.9600   28.5470   42.7570 N   0  0  0  0  0  0  0  0  0  0  0  0
   38.0480   27.6260   44.1730 H   0  0  0  0  0  0  0  0  0  0  0  0
   38.3090   25.5990   42.9610 H   0  0  0  0  0  0  0  0  0  0  0  0
   37.2610   25.0690   40.4290 C   0  0  0  0  0  0  0  0  0  0  0  0
   38.1020   25.1540   39.6790 H   0  0  0  0  0  0  0  0  0  0  0  0
   36.3540   24.9500   39.7640 H   0  0  0  0  0  0  0  0  0  0  0  0
   37.3800   23.8460   41.2350 C   0  0  0  0  0  0  0  0  0  0  0  0
   37.9740   23.8650   42.1470 H   0  0  0  0  0  0  0  0  0  0  0  0
   36.3610   23.4680   41.5730 H   0  0  0  0  0  0  0  0  0  0  0  0
   38.0370   22.4460   40.2540 S   0  0  0  0  0  0  0  0  0  0  0  0
   39.2690   22.0040   40.7310 H   0  0  0  0  0  0  0  0  0  0  0  0
   36.3330   30.4930   40.1970 C   0  0  0  0  0  0  0  0  0  0  0  0
   36.4410   30.6870   38.8370 N   0  0  0  0  0  0  0  0  0  0  0  0
   37.1810   31.7420   38.6220 O   0  0  0  0  0  0  0  0  0  0  0  0
   37.5380   32.2140   39.7840 C   0  0  0  0  0  0  0  0  0  0  0  0
   37.0320   31.4670   40.7710 N   0  0  0  0  0  0  0  0  0  0  0  0
   38.3730   33.3930   39.9590 C   0  0  0  0  0  0  0  0  0  0  0  0
   37.9850   34.7110   39.9300 C   0  0  0  0  0  0  0  0  0  0  0  0
   39.0690   35.5370   40.1390 C   0  0  0  0  0  0  0  0  0  0  0  0
   40.1260   34.6510   40.2930 C   0  0  0  0  0  0  0  0  0  0  0  0
   39.6740   33.4570   40.1820 O   0  0  0  0  0  0  0  0  0  0  0  0
   36.9520   35.0250   39.7630 H   0  0  0  0  0  0  0  0  0  0  0  0
   39.0920   36.6090   40.1730 H   0  0  0  0  0  0  0  0  0  0  0  0
   41.5310   35.0770   40.5450 C   0  0  0  0  0  0  0  0  0  0  0  0
   42.1860   35.0540   39.3290 F   0  0  0  0  0  0  0  0  0  0  0  0
   41.5620   36.3910   41.0110 F   0  0  0  0  0  0  0  0  0  0  0  0
   42.1780   34.2150   41.4040 F   0  0  0  0  0  0  0  0  0  0  0  0
  1  6  1  0  0  0  0
  2  8  1  0  0  0  0
  3  9  1  0  0  0  0
  3  2  2  0  0  0  0
  4  3  1  0  0  0  0
  5  4  2  0  0  0  0
  5  6  1  0  0  0  0
  6  7  2  0  0  0  0
  7  2  1  0  0  0  0
 10  4  1  0  0  0  0
 10 13  1  0  0  0  0
 11 10  1  0  0  0  0
 12 10  1  0  0  0  0
 13 15  1  0  0  0  0
 13 14  1  0  0  0  0
 16 17  1  0  0  0  0
 16 13  1  0  0  0  0
 18 22  1  0  0  0  0
 18  1  1  0  0  0  0
 19 18  2  0  0  0  0
 20 19  1  0  0  0  0
 20 21  1  0  0  0  0
 21 23  1  0  0  0  0
 21 22  2  0  0  0  0
 23 27  1  0  0  0  0
 24 23  2  0  0  0  0
 24 25  1  0  0  0  0
 25 29  1  0  0  0  0
 25 26  2  0  0  0  0
 26 30  1  0  0  0  0
 27 26  1  0  0  0  0
 28 24  1  0  0  0  0
 30 32  1  0  0  0  0
 30 33  1  0  0  0  0
 31 30  1  0  0  0  0
M  END
>  <minimizedAffinity>
-5.59396744

>  <minimizedRMSD>
1.12642431

$$$$
