
 OpenBabel03242509133D

 20 21  0  0  1  0  0  0  0  0999 V2000
   38.4390   27.6050   42.1180 C   0  0  1  0  0  0  0  0  0  0  0  0
   39.3810   27.9600   43.1560 C   0  0  0  0  0  0  0  0  0  0  0  0
   38.1420   27.2850   43.6220 C   0  0  1  0  0  0  0  0  0  0  0  0
   38.5280   26.6710   41.4880 H   0  0  0  0  0  0  0  0  0  0  0  0
   40.3300   27.4510   43.3000 H   0  0  0  0  0  0  0  0  0  0  0  0
   39.4680   29.0610   43.3770 H   0  0  0  0  0  0  0  0  0  0  0  0
   38.2550   26.2220   43.9140 H   0  0  0  0  0  0  0  0  0  0  0  0
   37.5110   28.6250   41.5180 C   0  0  0  0  0  0  0  0  0  0  0  0
   36.3210   28.1170   40.9400 C   0  0  0  0  0  0  0  0  0  0  0  0
   35.4610   29.0520   40.3710 C   0  0  0  0  0  0  0  0  0  0  0  0
   35.8060   30.3780   40.4010 N   0  0  0  0  0  0  0  0  0  0  0  0
   36.9570   30.8200   40.9660 C   0  0  0  0  0  0  0  0  0  0  0  0
   37.8070   29.9350   41.5240 N   0  0  0  0  0  0  0  0  0  0  0  0
   36.0920   27.0620   40.9400 H   0  0  0  0  0  0  0  0  0  0  0  0
   34.5360   28.7530   39.9110 H   0  0  0  0  0  0  0  0  0  0  0  0
   37.1950   31.8660   40.9710 H   0  0  0  0  0  0  0  0  0  0  0  0
   37.0350   28.0100   44.2870 C   0  0  0  0  0  0  0  0  0  0  0  0
   35.8510   27.4890   43.7400 F   0  0  0  0  0  0  0  0  0  0  0  0
   36.9200   27.8070   45.6450 F   0  0  0  0  0  0  0  0  0  0  0  0
   37.0710   29.3400   43.9280 F   0  0  0  0  0  0  0  0  0  0  0  0
  1  4  1  6  0  0  0
  1  2  1  0  0  0  0
  1  3  1  0  0  0  0
  2  5  1  0  0  0  0
  2  6  1  0  0  0  0
  2  3  1  0  0  0  0
  3  7  1  1  0  0  0
  3 17  1  0  0  0  0
  8 13  1  0  0  0  0
  8  1  1  0  0  0  0
  9  8  2  0  0  0  0
 10 11  2  0  0  0  0
 10  9  1  0  0  0  0
 11 12  1  0  0  0  0
 12 16  1  0  0  0  0
 12 13  2  0  0  0  0
 14  9  1  0  0  0  0
 15 10  1  0  0  0  0
 17 19  1  0  0  0  0
 18 17  1  0  0  0  0
 20 17  1  0  0  0  0
M  END
>  <minimizedAffinity>
-4.43531513

>  <minimizedRMSD>
1.4684509

$$$$
