
 OpenBabel03242508583D

 20 21  0  0  1  0  0  0  0  0999 V2000
   38.1150   29.1630   41.9000 C   0  0  1  0  0  0  0  0  0  0  0  0
   39.2270   29.1100   42.8930 C   0  0  0  0  0  0  0  0  0  0  0  0
   37.8460   29.2130   43.4130 C   0  0  2  0  0  0  0  0  0  0  0  0
   37.8080   28.2680   41.3710 H   0  0  0  0  0  0  0  0  0  0  0  0
   39.8530   30.0300   43.0660 H   0  0  0  0  0  0  0  0  0  0  0  0
   39.7950   28.1890   43.1080 H   0  0  0  0  0  0  0  0  0  0  0  0
   37.3980   30.1460   43.7900 H   0  0  0  0  0  0  0  0  0  0  0  0
   38.7370   32.6070   40.7280 C   0  0  0  0  0  0  0  0  0  0  0  0
   37.6720   32.8120   39.8140 C   0  0  0  0  0  0  0  0  0  0  0  0
   36.7520   31.7480   39.6310 C   0  0  0  0  0  0  0  0  0  0  0  0
   36.9210   30.5960   40.3200 N   0  0  0  0  0  0  0  0  0  0  0  0
   37.9620   30.4460   41.1890 C   0  0  0  0  0  0  0  0  0  0  0  0
   38.8530   31.4330   41.3890 N   0  0  0  0  0  0  0  0  0  0  0  0
   39.4190   33.4360   40.8450 H   0  0  0  0  0  0  0  0  0  0  0  0
   37.5440   33.7200   39.2740 H   0  0  0  0  0  0  0  0  0  0  0  0
   35.9230   31.8570   38.9440 H   0  0  0  0  0  0  0  0  0  0  0  0
   37.2250   27.9480   43.9470 C   0  0  0  0  0  0  0  0  0  0  0  0
   36.1510   27.5130   43.1800 F   0  0  0  0  0  0  0  0  0  0  0  0
   36.6980   28.1330   45.2190 F   0  0  0  0  0  0  0  0  0  0  0  0
   38.1470   26.9330   43.9490 F   0  0  0  0  0  0  0  0  0  0  0  0
  1  4  1  6  0  0  0
  1  2  1  0  0  0  0
  1  3  1  0  0  0  0
  2  5  1  0  0  0  0
  2  6  1  0  0  0  0
  2  3  1  0  0  0  0
  3  7  1  1  0  0  0
  3 17  1  0  0  0  0
  8 14  1  0  0  0  0
  8 13  1  0  0  0  0
  9  8  2  0  0  0  0
 10  9  1  0  0  0  0
 10 11  2  0  0  0  0
 11 12  1  0  0  0  0
 12 13  2  0  0  0  0
 12  1  1  0  0  0  0
 15  9  1  0  0  0  0
 16 10  1  0  0  0  0
 17 20  1  0  0  0  0
 17 19  1  0  0  0  0
 18 17  1  0  0  0  0
M  END
>  <minimizedAffinity>
-4.51471376

>  <minimizedRMSD>
5.24737978

$$$$
