
 OpenBabel03242507373D

 33 34  0  0  1  0  0  0  0  0999 V2000
   36.8860   27.5790   39.8270 C   0  0  2  0  0  0  0  0  0  0  0  0
   36.6830   26.0980   39.8400 C   0  0  0  0  0  0  0  0  0  0  0  0
   35.9330   25.9080   38.5200 C   0  0  0  0  0  0  0  0  0  0  0  0
   36.3830   27.0190   37.6180 C   0  0  0  0  0  0  0  0  0  0  0  0
   37.4210   27.7920   38.4240 C   0  0  2  0  0  0  0  0  0  0  0  0
   35.9680   28.1860   39.7860 H   0  0  0  0  0  0  0  0  0  0  0  0
   36.0360   25.7700   40.6960 H   0  0  0  0  0  0  0  0  0  0  0  0
   37.6360   25.5830   39.8170 H   0  0  0  0  0  0  0  0  0  0  0  0
   36.1830   24.9040   38.1300 H   0  0  0  0  0  0  0  0  0  0  0  0
   34.8500   26.0020   38.7810 H   0  0  0  0  0  0  0  0  0  0  0  0
   36.8170   26.5930   36.7020 H   0  0  0  0  0  0  0  0  0  0  0  0
   35.5000   27.6540   37.3910 H   0  0  0  0  0  0  0  0  0  0  0  0
   37.2410   28.8720   38.1450 H   0  0  0  0  0  0  0  0  0  0  0  0
   38.7370   29.4850   42.4720 C   0  0  0  0  0  0  0  0  0  0  0  0
   38.0150   29.3150   41.2450 C   0  0  0  0  0  0  0  0  0  0  0  0
   37.7020   28.0270   40.9090 C   0  0  0  0  0  0  0  0  0  0  0  0
   38.0990   27.0140   41.7630 N   0  0  0  0  0  0  0  0  0  0  0  0
   38.7670   27.2250   42.8940 C   0  0  0  0  0  0  0  0  0  0  0  0
   39.0850   28.4790   43.2440 N   0  0  0  0  0  0  0  0  0  0  0  0
   38.9590   30.5380   42.6860 H   0  0  0  0  0  0  0  0  0  0  0  0
   39.0740   26.4390   43.5580 H   0  0  0  0  0  0  0  0  0  0  0  0
   37.6880   30.4290   40.4310 N   0  0  0  0  0  0  0  0  0  0  0  0
   36.7270   31.4040   40.7480 C   0  0  0  0  0  0  0  0  0  0  0  0
   35.6380   30.9350   41.3010 N   0  0  0  0  0  0  0  0  0  0  0  0
   37.0520   32.7780   40.4320 N   0  0  0  0  0  0  0  0  0  0  0  0
   34.8510   31.5480   41.5630 H   0  0  0  0  0  0  0  0  0  0  0  0
   38.2480   30.4730   39.5240 H   0  0  0  0  0  0  0  0  0  0  0  0
   36.8090   33.0030   39.4370 H   0  0  0  0  0  0  0  0  0  0  0  0
   37.4700   33.4460   41.1020 H   0  0  0  0  0  0  0  0  0  0  0  0
   38.8200   27.4310   38.1800 C   0  0  0  0  0  0  0  0  0  0  0  0
   39.2140   27.1900   36.9040 F   0  0  0  0  0  0  0  0  0  0  0  0
   39.6350   28.4910   38.6200 F   0  0  0  0  0  0  0  0  0  0  0  0
   39.1780   26.3730   39.0350 F   0  0  0  0  0  0  0  0  0  0  0  0
  1  6  1  1  0  0  0
  1  2  1  0  0  0  0
  1 16  1  0  0  0  0
  2  7  1  0  0  0  0
  3 10  1  0  0  0  0
  3  2  1  0  0  0  0
  4  5  1  0  0  0  0
  4  3  1  0  0  0  0
  5 13  1  6  0  0  0
  5  1  1  0  0  0  0
  8  2  1  0  0  0  0
  9  3  1  0  0  0  0
 11  4  1  0  0  0  0
 12  4  1  0  0  0  0
 14 20  1  0  0  0  0
 14 19  1  0  0  0  0
 15 14  2  0  0  0  0
 16 15  1  0  0  0  0
 16 17  2  0  0  0  0
 17 18  1  0  0  0  0
 18 19  2  0  0  0  0
 18 21  1  0  0  0  0
 22 23  1  0  0  0  0
 22 15  1  0  0  0  0
 23 24  2  0  0  0  0
 24 26  1  0  0  0  0
 25 23  1  0  0  0  0
 25 29  1  0  0  0  0
 27 22  1  0  0  0  0
 28 25  1  0  0  0  0
 30  5  1  0  0  0  0
 30 32  1  0  0  0  0
 30 33  1  0  0  0  0
 31 30  1  0  0  0  0
M  END
>  <minimizedAffinity>
-4.82756853

>  <minimizedRMSD>
0.517636418

$$$$
