
 OpenBabel03242509083D

 34 37  0  0  1  0  0  0  0  0999 V2000
   35.6430   30.1110   40.5970 C   0  0  0  0  0  0  0  0  0  0  0  0
   36.2020   28.9670   41.2060 C   0  0  0  0  0  0  0  0  0  0  0  0
   37.5380   29.0190   41.6310 C   0  0  0  0  0  0  0  0  0  0  0  0
   38.1740   30.1900   41.4090 N   0  0  0  0  0  0  0  0  0  0  0  0
   37.6450   31.2700   40.8330 C   0  0  0  0  0  0  0  0  0  0  0  0
   36.3570   31.2300   40.4190 N   0  0  0  0  0  0  0  0  0  0  0  0
   34.6150   30.0470   40.2780 H   0  0  0  0  0  0  0  0  0  0  0  0
   35.6240   28.0700   41.3470 H   0  0  0  0  0  0  0  0  0  0  0  0
   38.1170   27.8520   42.2470 C   0  0  0  0  0  0  0  0  0  0  0  0
   38.9490   27.7920   43.3410 C   0  0  0  0  0  0  0  0  0  0  0  0
   39.2600   26.5100   43.5920 N   0  0  0  0  0  0  0  0  0  0  0  0
   38.6620   25.6980   42.7000 C   0  0  0  0  0  0  0  0  0  0  0  0
   38.6330   24.3270   42.4930 C   0  0  0  0  0  0  0  0  0  0  0  0
   37.8970   23.7520   41.4480 C   0  0  0  0  0  0  0  0  0  0  0  0
   37.2080   24.6200   40.6420 C   0  0  0  0  0  0  0  0  0  0  0  0
   37.2250   25.9720   40.8340 C   0  0  0  0  0  0  0  0  0  0  0  0
   37.9540   26.5390   41.8690 C   0  0  0  0  0  0  0  0  0  0  0  0
   39.2790   28.6680   43.8860 H   0  0  0  0  0  0  0  0  0  0  0  0
   39.8740   26.1570   44.3610 H   0  0  0  0  0  0  0  0  0  0  0  0
   39.2050   23.7040   43.1740 H   0  0  0  0  0  0  0  0  0  0  0  0
   37.9350   22.6710   41.3650 H   0  0  0  0  0  0  0  0  0  0  0  0
   36.6480   24.1300   39.8400 H   0  0  0  0  0  0  0  0  0  0  0  0
   36.6460   26.5490   40.1370 H   0  0  0  0  0  0  0  0  0  0  0  0
   38.4600   32.5050   40.6620 C   0  0  1  0  0  0  0  0  0  0  0  0
   39.9700   32.3440   40.5010 C   0  0  0  0  0  0  0  0  0  0  0  0
   39.1120   32.7970   39.3580 C   0  0  1  0  0  0  0  0  0  0  0  0
   38.1200   33.3710   41.2690 H   0  0  0  0  0  0  0  0  0  0  0  0
   40.3160   31.2750   40.5310 H   0  0  0  0  0  0  0  0  0  0  0  0
   40.5790   33.1010   41.0300 H   0  0  0  0  0  0  0  0  0  0  0  0
   39.2720   33.8950   39.0890 H   0  0  0  0  0  0  0  0  0  0  0  0
   39.0880   31.8870   38.1760 C   0  0  0  0  0  0  0  0  0  0  0  0
   39.5380   30.6250   38.6290 F   0  0  0  0  0  0  0  0  0  0  0  0
   37.7970   31.6800   37.7330 F   0  0  0  0  0  0  0  0  0  0  0  0
   39.9520   32.2550   37.1550 F   0  0  0  0  0  0  0  0  0  0  0  0
  1  2  1  0  0  0  0
  2  8  1  0  0  0  0
  2  3  2  0  0  0  0
  3  9  1  0  0  0  0
  4  3  1  0  0  0  0
  5  4  2  0  0  0  0
  6  1  2  0  0  0  0
  6  5  1  0  0  0  0
  7  1  1  0  0  0  0
  9 10  2  0  0  0  0
 10 11  1  0  0  0  0
 10 18  1  0  0  0  0
 11 19  1  0  0  0  0
 12 11  1  0  0  0  0
 13 12  1  0  0  0  0
 13 20  1  0  0  0  0
 14 13  2  0  0  0  0
 15 16  2  0  0  0  0
 15 14  1  0  0  0  0
 16 17  1  0  0  0  0
 17  9  1  0  0  0  0
 17 12  2  0  0  0  0
 21 14  1  0  0  0  0
 22 15  1  0  0  0  0
 23 16  1  0  0  0  0
 24  5  1  0  0  0  0
 24 27  1  1  0  0  0
 25 28  1  0  0  0  0
 25 24  1  0  0  0  0
 25 29  1  0  0  0  0
 26 30  1  6  0  0  0
 26 25  1  0  0  0  0
 26 24  1  0  0  0  0
 31 32  1  0  0  0  0
 31 26  1  0  0  0  0
 33 31  1  0  0  0  0
 34 31  1  0  0  0  0
M  END
>  <minimizedAffinity>
-5.60793734

>  <minimizedRMSD>
2.23133516

$$$$
