
 OpenBabel03242509313D

 16 16  0  0  0  0  0  0  0  0999 V2000
   38.0050   28.8760   43.3560 C   0  0  0  0  0  0  0  0  0  0  0  0
   38.1360   27.4640   43.2990 C   0  0  0  0  0  0  0  0  0  0  0  0
   37.4440   26.8010   42.2700 C   0  0  0  0  0  0  0  0  0  0  0  0
   36.6990   27.5630   41.4030 N   0  0  0  0  0  0  0  0  0  0  0  0
   36.6010   28.8940   41.4900 C   0  0  0  0  0  0  0  0  0  0  0  0
   37.2630   29.5340   42.4750 N   0  0  0  0  0  0  0  0  0  0  0  0
   38.5580   29.3480   44.1670 H   0  0  0  0  0  0  0  0  0  0  0  0
   38.7350   26.9220   44.0050 H   0  0  0  0  0  0  0  0  0  0  0  0
   37.5510   25.3190   42.1680 C   0  0  0  0  0  0  0  0  0  0  0  0
   37.6900   25.0470   40.8270 F   0  0  0  0  0  0  0  0  0  0  0  0
   38.6380   24.8320   42.8180 F   0  0  0  0  0  0  0  0  0  0  0  0
   36.3920   24.6980   42.6330 F   0  0  0  0  0  0  0  0  0  0  0  0
   35.7600   29.5960   40.4870 C   0  0  0  0  0  0  0  0  0  0  0  0
   36.3160   29.4520   39.2270 F   0  0  0  0  0  0  0  0  0  0  0  0
   34.4660   29.1160   40.4760 F   0  0  0  0  0  0  0  0  0  0  0  0
   35.7270   30.9350   40.8110 F   0  0  0  0  0  0  0  0  0  0  0  0
  1  7  1  0  0  0  0
  2  1  1  0  0  0  0
  2  8  1  0  0  0  0
  3  2  2  0  0  0  0
  4  5  2  0  0  0  0
  4  3  1  0  0  0  0
  5  6  1  0  0  0  0
  6  1  2  0  0  0  0
  9  3  1  0  0  0  0
  9 12  1  0  0  0  0
  9 11  1  0  0  0  0
 10  9  1  0  0  0  0
 13 16  1  0  0  0  0
 13  5  1  0  0  0  0
 14 13  1  0  0  0  0
 15 13  1  0  0  0  0
M  END
>  <minimizedAffinity>
-4.46660709

>  <minimizedRMSD>
0.14800714

$$$$
