
 OpenBabel03242508143D

 42 45  0  0  1  0  0  0  0  0999 V2000
   39.0040   35.5890   40.1810 C   0  0  0  0  0  0  0  0  0  0  0  0
   40.3460   35.9540   40.3430 C   0  0  0  0  0  0  0  0  0  0  0  0
   41.2560   34.9080   40.6100 C   0  0  0  0  0  0  0  0  0  0  0  0
   40.7430   33.6950   40.6760 N   0  0  0  0  0  0  0  0  0  0  0  0
   39.4980   33.3060   40.5310 C   0  0  0  0  0  0  0  0  0  0  0  0
   38.6540   34.3100   40.2810 N   0  0  0  0  0  0  0  0  0  0  0  0
   38.3230   36.4040   39.9790 H   0  0  0  0  0  0  0  0  0  0  0  0
   40.7170   36.9690   40.2790 H   0  0  0  0  0  0  0  0  0  0  0  0
   38.8300   32.0160   40.5860 C   0  0  0  0  0  0  0  0  0  0  0  0
   38.7320   31.2740   41.7100 N   0  0  0  0  0  0  0  0  0  0  0  0
   38.1310   30.0980   41.7930 C   0  0  0  0  0  0  0  0  0  0  0  0
   37.5650   29.5490   40.7380 N   0  0  0  0  0  0  0  0  0  0  0  0
   37.5940   30.1900   39.5460 C   0  0  0  0  0  0  0  0  0  0  0  0
   37.0010   29.6200   38.4330 C   0  0  0  0  0  0  0  0  0  0  0  0
   37.0170   30.2470   37.2300 C   0  0  0  0  0  0  0  0  0  0  0  0
   37.6600   31.5090   37.1360 C   0  0  0  0  0  0  0  0  0  0  0  0
   38.2230   32.0060   38.2850 C   0  0  0  0  0  0  0  0  0  0  0  0
   38.2280   31.4130   39.5010 C   0  0  0  0  0  0  0  0  0  0  0  0
   38.1010   29.5740   42.7380 H   0  0  0  0  0  0  0  0  0  0  0  0
   36.5020   28.6590   38.4670 H   0  0  0  0  0  0  0  0  0  0  0  0
   36.5620   29.8300   36.3290 H   0  0  0  0  0  0  0  0  0  0  0  0
   37.6750   32.0100   36.1770 H   0  0  0  0  0  0  0  0  0  0  0  0
   38.7130   32.9840   38.1800 H   0  0  0  0  0  0  0  0  0  0  0  0
   42.5410   35.1480   40.7810 O   0  0  0  0  0  0  0  0  0  0  0  0
   43.2510   34.9730   41.9970 C   0  0  2  0  0  0  0  0  0  0  0  0
   42.7590   34.2650   42.6810 H   0  0  0  0  0  0  0  0  0  0  0  0
   43.0330   36.3370   42.7590 C   0  0  0  0  0  0  0  0  0  0  0  0
   43.5740   37.0830   42.1250 H   0  0  0  0  0  0  0  0  0  0  0  0
   41.9680   36.5640   42.7660 H   0  0  0  0  0  0  0  0  0  0  0  0
   43.5370   36.3010   43.7290 H   0  0  0  0  0  0  0  0  0  0  0  0
   44.7060   34.7890   41.7690 C   0  0  0  0  0  0  0  0  0  0  0  0
   44.8180   34.0510   40.9410 H   0  0  0  0  0  0  0  0  0  0  0  0
   45.1520   35.7630   41.5350 H   0  0  0  0  0  0  0  0  0  0  0  0
   45.2730   34.2670   43.0060 N   0  0  0  0  0  0  0  0  0  0  0  0
   46.5580   34.4940   43.4160 C   0  0  0  0  0  0  0  0  0  0  0  0
   46.7720   33.8780   44.5940 N   0  0  0  0  0  0  0  0  0  0  0  0
   45.5960   33.2630   44.9120 C   0  0  0  0  0  0  0  0  0  0  0  0
   44.6960   33.5170   43.9220 N   0  0  0  0  0  0  0  0  0  0  0  0
   47.2670   35.0870   42.8470 H   0  0  0  0  0  0  0  0  0  0  0  0
   45.2040   32.4300   46.0850 C   0  0  0  0  0  0  0  0  0  0  0  0
   44.4600   31.1970   45.6220 C   0  0  0  0  0  0  0  0  0  0  0  0
   46.4110   31.9870   46.8990 C   0  0  0  0  0  0  0  0  0  0  0  0
  1  6  2  0  0  0  0
  1  2  1  0  0  0  0
  2  3  2  0  0  0  0
  3  4  1  0  0  0  0
  3 24  1  0  0  0  0
  5  9  1  0  0  0  0
  5  4  2  0  0  0  0
  6  5  1  0  0  0  0
  7  1  1  0  0  0  0
  8  2  1  0  0  0  0
  9 10  1  0  0  0  0
 10 11  2  0  0  0  0
 11 19  1  0  0  0  0
 12 11  1  0  0  0  0
 13 12  2  0  0  0  0
 14 20  1  0  0  0  0
 14 13  1  0  0  0  0
 15 14  2  0  0  0  0
 16 15  1  0  0  0  0
 16 17  2  0  0  0  0
 17 18  1  0  0  0  0
 18 13  1  0  0  0  0
 18  9  2  0  0  0  0
 21 15  1  0  0  0  0
 22 16  1  0  0  0  0
 23 17  1  0  0  0  0
 24 25  1  0  0  0  0
 25 26  1  1  0  0  0
 25 27  1  0  0  0  0
 27 29  1  0  0  0  0
 27 30  1  0  0  0  0
 28 27  1  0  0  0  0
 31 25  1  0  0  0  0
 31 34  1  0  0  0  0
 32 31  1  0  0  0  0
 33 31  1  0  0  0  0
 34 35  1  0  0  0  0
 34 38  1  0  0  0  0
 35 36  2  0  0  0  0
 36 37  1  0  0  0  0
 37 40  1  0  0  0  0
 38 37  2  0  0  0  0
 39 35  1  0  0  0  0
 40 42  1  0  0  0  0
 41 40  1  0  0  0  0
M  END
>  <minimizedAffinity>
-6.24314404

>  <minimizedRMSD>
0.471522927

$$$$
