
 OpenBabel03242508263D

 18 19  0  0  0  0  0  0  0  0999 V2000
   38.5470   28.7830   43.1350 C   0  0  0  0  0  0  0  0  0  0  0  0
   37.6220   27.7300   42.9830 C   0  0  0  0  0  0  0  0  0  0  0  0
   36.5430   27.9550   42.1080 C   0  0  0  0  0  0  0  0  0  0  0  0
   36.4650   29.1550   41.4770 N   0  0  0  0  0  0  0  0  0  0  0  0
   37.3710   30.1210   41.6580 C   0  0  0  0  0  0  0  0  0  0  0  0
   38.4200   29.9410   42.4900 N   0  0  0  0  0  0  0  0  0  0  0  0
   39.4150   28.7270   43.7780 H   0  0  0  0  0  0  0  0  0  0  0  0
   37.8020   26.8290   43.5430 H   0  0  0  0  0  0  0  0  0  0  0  0
   35.8500   27.1500   42.0020 H   0  0  0  0  0  0  0  0  0  0  0  0
   37.0530   31.2270   40.9020 O   0  0  0  0  0  0  0  0  0  0  0  0
   38.0710   31.9920   40.3380 C   0  0  0  0  0  0  0  0  0  0  0  0
   38.8400   31.7620   39.2310 N   0  0  0  0  0  0  0  0  0  0  0  0
   39.6740   32.7720   39.0930 O   0  0  0  0  0  0  0  0  0  0  0  0
   39.4420   33.6100   40.0740 C   0  0  0  0  0  0  0  0  0  0  0  0
   38.4610   33.1710   40.8680 N   0  0  0  0  0  0  0  0  0  0  0  0
   40.1990   34.8800   40.2440 C   0  0  0  0  0  0  0  0  0  0  0  0
   39.2690   36.0400   40.0480 C   0  0  0  0  0  0  0  0  0  0  0  0
   41.3200   35.0180   39.2160 C   0  0  0  0  0  0  0  0  0  0  0  0
  1  7  1  0  0  0  0
  2  1  1  0  0  0  0
  2  8  1  0  0  0  0
  3  2  2  0  0  0  0
  4  5  2  0  0  0  0
  4  3  1  0  0  0  0
  5  6  1  0  0  0  0
  6  1  2  0  0  0  0
  9  3  1  0  0  0  0
 10  5  1  0  0  0  0
 11 15  1  0  0  0  0
 11 10  1  0  0  0  0
 12 11  2  0  0  0  0
 13 12  1  0  0  0  0
 13 14  1  0  0  0  0
 14 16  1  0  0  0  0
 14 15  2  0  0  0  0
 17 16  1  0  0  0  0
 18 16  1  0  0  0  0
M  END
>  <minimizedAffinity>
-4.39197969

>  <minimizedRMSD>
1.97606921

$$$$
