
 OpenBabel03242509303D

 15 15  0  0  0  0  0  0  0  0999 V2000
   40.0960   25.4990   43.5910 C   0  0  0  0  0  0  0  0  0  0  0  0
   39.4370   24.6370   42.6610 C   0  0  0  0  0  0  0  0  0  0  0  0
   38.2020   25.0530   42.1710 C   0  0  0  0  0  0  0  0  0  0  0  0
   37.6750   26.2640   42.5960 N   0  0  0  0  0  0  0  0  0  0  0  0
   38.3500   27.0270   43.4730 C   0  0  0  0  0  0  0  0  0  0  0  0
   39.5410   26.6450   43.9590 N   0  0  0  0  0  0  0  0  0  0  0  0
   41.0510   25.1550   43.9570 H   0  0  0  0  0  0  0  0  0  0  0  0
   39.8530   23.6830   42.3260 H   0  0  0  0  0  0  0  0  0  0  0  0
   37.4810   24.1790   41.1970 C   0  0  0  0  0  0  0  0  0  0  0  0
   36.1830   24.0790   41.6660 F   0  0  0  0  0  0  0  0  0  0  0  0
   37.4370   24.7100   39.9490 F   0  0  0  0  0  0  0  0  0  0  0  0
   38.0430   22.8970   41.1610 F   0  0  0  0  0  0  0  0  0  0  0  0
   37.7280   28.3120   43.8880 C   0  0  0  0  0  3  0  0  0  0  0  0
   36.5480   28.1150   44.8090 C   0  0  0  0  0  1  0  0  0  0  0  0
   37.1890   28.9700   42.6260 C   0  0  0  0  0  1  0  0  0  0  0  0
  1  7  1  0  0  0  0
  1  6  1  0  0  0  0
  2  1  2  0  0  0  0
  3  4  2  0  0  0  0
  3  2  1  0  0  0  0
  4  5  1  0  0  0  0
  5 13  1  0  0  0  0
  5  6  2  0  0  0  0
  8  2  1  0  0  0  0
  9 10  1  0  0  0  0
  9  3  1  0  0  0  0
 11  9  1  0  0  0  0
 12  9  1  0  0  0  0
 13 14  1  0  0  0  0
 15 13  1  0  0  0  0
M  END
>  <minimizedAffinity>
-4.35092545

>  <minimizedRMSD>
3.33243322

$$$$
