
 OpenBabel03242509083D

 33 36  0  0  1  0  0  0  0  0999 V2000
   36.1700   30.7520   41.1100 C   0  0  0  0  0  0  0  0  0  0  0  0
   36.8710   29.6760   41.6850 C   0  0  0  0  0  0  0  0  0  0  0  0
   38.2620   29.6920   41.6420 C   0  0  0  0  0  0  0  0  0  0  0  0
   38.8620   30.7540   41.0460 N   0  0  0  0  0  0  0  0  0  0  0  0
   38.1650   31.7780   40.4990 C   0  0  0  0  0  0  0  0  0  0  0  0
   36.8130   31.7800   40.5300 N   0  0  0  0  0  0  0  0  0  0  0  0
   35.0770   30.7130   41.1580 H   0  0  0  0  0  0  0  0  0  0  0  0
   36.3390   28.8460   42.1520 H   0  0  0  0  0  0  0  0  0  0  0  0
   38.9990   28.5820   42.2230 C   0  0  0  0  0  0  0  0  0  0  0  0
   40.2050   28.6190   42.8970 C   0  0  0  0  0  0  0  0  0  0  0  0
   40.5290   27.3480   43.2640 N   0  0  0  0  0  0  0  0  0  0  0  0
   39.5750   26.4790   42.8550 C   0  0  0  0  0  0  0  0  0  0  0  0
   39.4140   25.1070   42.9630 C   0  0  0  0  0  0  0  0  0  0  0  0
   38.3090   24.4670   42.4330 C   0  0  0  0  0  0  0  0  0  0  0  0
   37.3800   25.2490   41.7960 C   0  0  0  0  0  0  0  0  0  0  0  0
   37.5260   26.6090   41.6820 C   0  0  0  0  0  0  0  0  0  0  0  0
   38.6230   27.2490   42.2060 C   0  0  0  0  0  0  0  0  0  0  0  0
   40.7760   29.5170   43.0870 H   0  0  0  0  0  0  0  0  0  0  0  0
   41.3900   27.0790   43.7880 H   0  0  0  0  0  0  0  0  0  0  0  0
   40.1930   24.5750   43.4790 H   0  0  0  0  0  0  0  0  0  0  0  0
   38.2760   23.4000   42.5700 H   0  0  0  0  0  0  0  0  0  0  0  0
   36.5220   24.7180   41.3900 H   0  0  0  0  0  0  0  0  0  0  0  0
   36.7440   27.1150   41.1670 H   0  0  0  0  0  0  0  0  0  0  0  0
   38.9000   32.9180   39.8650 C   0  0  1  0  0  0  0  0  0  0  0  0
   38.9730   34.2280   40.6420 C   0  0  0  0  0  0  0  0  0  0  0  0
   40.1890   33.3710   40.4640 C   0  0  2  0  0  0  0  0  0  0  0  0
   38.8320   33.0030   38.7520 H   0  0  0  0  0  0  0  0  0  0  0  0
   38.7870   35.1200   40.0120 H   0  0  0  0  0  0  0  0  0  0  0  0
   38.4130   34.2410   41.5830 H   0  0  0  0  0  0  0  0  0  0  0  0
   40.5360   32.8900   41.4010 H   0  0  0  0  0  0  0  0  0  0  0  0
   41.2960   33.8900   39.5810 C   0  0  0  0  0  0  0  0  0  0  0  0
   41.1750   35.4140   39.4390 C   0  0  0  0  0  0  0  0  0  0  0  0
   41.3070   33.3180   38.2010 C   0  0  0  0  0  0  0  0  0  0  0  0
  1  7  1  0  0  0  0
  1  2  1  0  0  0  0
  2  8  1  0  0  0  0
  3  2  2  0  0  0  0
  3  9  1  0  0  0  0
  4  3  1  0  0  0  0
  5  6  1  0  0  0  0
  5  4  2  0  0  0  0
  6  1  2  0  0  0  0
  9 10  2  0  0  0  0
 10 18  1  0  0  0  0
 10 11  1  0  0  0  0
 11 19  1  0  0  0  0
 12 13  1  0  0  0  0
 12 11  1  0  0  0  0
 13 20  1  0  0  0  0
 14 21  1  0  0  0  0
 14 13  2  0  0  0  0
 15 14  1  0  0  0  0
 16 15  2  0  0  0  0
 16 17  1  0  0  0  0
 17  9  1  0  0  0  0
 17 12  2  0  0  0  0
 22 15  1  0  0  0  0
 23 16  1  0  0  0  0
 24 27  1  6  0  0  0
 24 26  1  0  0  0  0
 24  5  1  0  0  0  0
 24 25  1  0  0  0  0
 25 29  1  0  0  0  0
 26 25  1  0  0  0  0
 26 30  1  1  0  0  0
 28 25  1  0  0  0  0
 31 26  1  0  0  0  0
 32 31  1  0  0  0  0
 33 31  1  0  0  0  0
M  END
>  <minimizedAffinity>
-5.60417795

>  <minimizedRMSD>
0.957822323

$$$$
