
 OpenBabel03242509303D

 15 15  0  0  0  0  0  0  0  0999 V2000
   38.0740   28.8530   43.3600 C   0  0  0  0  0  0  0  0  0  0  0  0
   38.2030   27.4320   43.2810 C   0  0  0  0  0  0  0  0  0  0  0  0
   37.4640   26.7780   42.2980 C   0  0  0  0  0  0  0  0  0  0  0  0
   36.6520   27.5200   41.4530 N   0  0  0  0  0  0  0  0  0  0  0  0
   36.5780   28.8560   41.5810 C   0  0  0  0  0  0  0  0  0  0  0  0
   37.2810   29.5060   42.5220 N   0  0  0  0  0  0  0  0  0  0  0  0
   38.6550   29.3380   44.1290 H   0  0  0  0  0  0  0  0  0  0  0  0
   38.8430   26.8480   43.9470 H   0  0  0  0  0  0  0  0  0  0  0  0
   37.5710   25.2930   42.1840 C   0  0  0  0  0  0  0  0  0  0  0  0
   37.7240   25.0260   40.8350 F   0  0  0  0  0  0  0  0  0  0  0  0
   38.6510   24.7940   42.8360 F   0  0  0  0  0  0  0  0  0  0  0  0
   36.4000   24.6690   42.6330 F   0  0  0  0  0  0  0  0  0  0  0  0
   35.6880   29.5900   40.6430 C   0  0  0  0  0  3  0  0  0  0  0  0
   35.5450   28.8940   39.3120 C   0  0  0  0  0  1  0  0  0  0  0  0
   36.3520   30.9310   40.3650 C   0  0  0  0  0  1  0  0  0  0  0  0
  1  7  1  0  0  0  0
  2  1  1  0  0  0  0
  2  8  1  0  0  0  0
  3  2  2  0  0  0  0
  4  5  2  0  0  0  0
  4  3  1  0  0  0  0
  5  6  1  0  0  0  0
  6  1  2  0  0  0  0
  9  3  1  0  0  0  0
  9 12  1  0  0  0  0
  9 11  1  0  0  0  0
 10  9  1  0  0  0  0
 13  5  1  0  0  0  0
 14 13  1  0  0  0  0
 15 13  1  0  0  0  0
M  END
>  <minimizedAffinity>
-4.25101757

>  <minimizedRMSD>
0.197178379

$$$$
