
 OpenBabel03242509303D

 15 15  0  0  0  0  0  0  0  0999 V2000
   38.0700   28.8320   43.3890 C   0  0  0  0  0  0  0  0  0  0  0  0
   38.1880   27.4110   43.2990 C   0  0  0  0  0  0  0  0  0  0  0  0
   37.4600   26.7730   42.2980 C   0  0  0  0  0  0  0  0  0  0  0  0
   36.6690   27.5290   41.4460 N   0  0  0  0  0  0  0  0  0  0  0  0
   36.6050   28.8650   41.5860 C   0  0  0  0  0  0  0  0  0  0  0  0
   37.2970   29.5000   42.5440 N   0  0  0  0  0  0  0  0  0  0  0  0
   38.6430   29.3040   44.1730 H   0  0  0  0  0  0  0  0  0  0  0  0
   38.8120   26.8140   43.9710 H   0  0  0  0  0  0  0  0  0  0  0  0
   37.5560   25.2880   42.1720 C   0  0  0  0  0  0  0  0  0  0  0  0
   37.6880   25.0300   40.8180 F   0  0  0  0  0  0  0  0  0  0  0  0
   38.6420   24.7770   42.8040 F   0  0  0  0  0  0  0  0  0  0  0  0
   36.3880   24.6670   42.6320 F   0  0  0  0  0  0  0  0  0  0  0  0
   35.7380   29.6150   40.6400 C   0  0  0  0  0  3  0  0  0  0  0  0
   35.7230   29.0080   39.2580 C   0  0  0  0  0  1  0  0  0  0  0  0
   36.3410   31.0060   40.4980 C   0  0  0  0  0  1  0  0  0  0  0  0
  1  7  1  0  0  0  0
  2  1  1  0  0  0  0
  2  8  1  0  0  0  0
  3  2  2  0  0  0  0
  4  5  2  0  0  0  0
  4  3  1  0  0  0  0
  5  6  1  0  0  0  0
  6  1  2  0  0  0  0
  9  3  1  0  0  0  0
  9 12  1  0  0  0  0
  9 11  1  0  0  0  0
 10  9  1  0  0  0  0
 13  5  1  0  0  0  0
 14 13  1  0  0  0  0
 15 13  1  0  0  0  0
M  END
>  <minimizedAffinity>
-4.2512002

>  <minimizedRMSD>
0.15556927

$$$$
