
 OpenBabel03242508543D

 39 42  0  0  0  0  0  0  0  0999 V2000
   37.5960   28.1950   41.2980 C   0  0  0  0  0  0  0  0  0  0  0  0
   36.3990   27.9160   40.6600 C   0  0  0  0  0  0  0  0  0  0  0  0
   35.9530   29.0690   40.1210 N   0  0  0  0  0  0  0  0  0  0  0  0
   36.7870   30.0810   40.3690 C   0  0  0  0  0  0  0  0  0  0  0  0
   36.6840   31.3990   39.9930 C   0  0  0  0  0  0  0  0  0  0  0  0
   37.7220   32.2540   40.3990 C   0  0  0  0  0  0  0  0  0  0  0  0
   38.7910   31.7620   41.1460 C   0  0  0  0  0  0  0  0  0  0  0  0
   38.8750   30.4390   41.5130 C   0  0  0  0  0  0  0  0  0  0  0  0
   37.8490   29.5740   41.1160 C   0  0  0  0  0  0  0  0  0  0  0  0
   35.9570   26.9160   40.6400 H   0  0  0  0  0  0  0  0  0  0  0  0
   35.8580   31.7850   39.4140 H   0  0  0  0  0  0  0  0  0  0  0  0
   37.6630   33.2870   40.1160 H   0  0  0  0  0  0  0  0  0  0  0  0
   39.5760   32.4410   41.4460 H   0  0  0  0  0  0  0  0  0  0  0  0
   39.6930   30.0260   42.0940 H   0  0  0  0  0  0  0  0  0  0  0  0
   39.4930   26.6960   44.0370 C   0  0  0  0  0  0  0  0  0  0  0  0
   40.0810   25.5440   43.4170 C   0  0  0  0  0  0  0  0  0  0  0  0
   39.7990   25.3220   42.0640 C   0  0  0  0  0  0  0  0  0  0  0  0
   38.9980   26.1940   41.4200 N   0  0  0  0  0  0  0  0  0  0  0  0
   38.4570   27.2720   42.0260 C   0  0  0  0  0  0  0  0  0  0  0  0
   38.6990   27.5350   43.3380 N   0  0  0  0  0  0  0  0  0  0  0  0
   39.6570   26.9450   45.0770 H   0  0  0  0  0  0  0  0  0  0  0  0
   40.7010   24.9250   44.0340 H   0  0  0  0  0  0  0  0  0  0  0  0
   40.2420   24.4550   41.6000 H   0  0  0  0  0  0  0  0  0  0  0  0
   34.7100   29.0750   39.3880 C   0  0  0  0  0  0  0  0  0  0  0  0
   33.8340   28.8770   40.0160 H   0  0  0  0  0  0  0  0  0  0  0  0
   34.5790   30.1080   38.9690 H   0  0  0  0  0  0  0  0  0  0  0  0
   34.7150   28.1490   38.1910 C   0  0  0  0  0  0  0  0  0  0  0  0
   34.2290   27.1920   38.4670 H   0  0  0  0  0  0  0  0  0  0  0  0
   35.7200   27.9130   37.8370 H   0  0  0  0  0  0  0  0  0  0  0  0
   33.8670   28.7660   37.1690 N   0  0  0  0  0  0  0  0  0  0  0  0
   32.6510   29.2520   37.4810 C   0  0  0  0  0  0  0  0  0  0  0  0
   31.8560   29.8320   36.5140 C   0  0  0  0  0  0  0  0  0  0  0  0
   30.5080   30.3920   36.7670 C   0  0  0  0  0  0  0  0  0  0  0  0
   32.3580   29.8920   35.2280 C   0  0  0  0  0  0  0  0  0  0  0  0
   31.7520   30.3900   34.2440 O   0  0  0  0  0  0  0  0  0  0  0  0
   33.5750   29.4040   34.9240 N   0  0  0  0  0  0  0  0  0  0  0  0
   34.3310   28.8420   35.8870 C   0  0  0  0  0  0  0  0  0  0  0  0
   35.4800   28.3660   35.6670 O   0  0  0  0  0  0  0  0  0  0  0  0
   34.0360   29.4040   33.9870 H   0  0  0  0  0  0  0  0  0  0  0  0
  1 19  1  0  0  0  0
  2  1  2  0  0  0  0
  3  4  1  0  0  0  0
  3  2  1  0  0  0  0
  4  9  1  0  0  0  0
  5  4  2  0  0  0  0
  5  6  1  0  0  0  0
  6  7  2  0  0  0  0
  7 13  1  0  0  0  0
  7  8  1  0  0  0  0
  8 14  1  0  0  0  0
  9  1  1  0  0  0  0
  9  8  2  0  0  0  0
 10  2  1  0  0  0  0
 11  5  1  0  0  0  0
 12  6  1  0  0  0  0
 15 21  1  0  0  0  0
 16 22  1  0  0  0  0
 16 15  1  0  0  0  0
 17 16  2  0  0  0  0
 18 19  2  0  0  0  0
 18 17  1  0  0  0  0
 19 20  1  0  0  0  0
 20 15  2  0  0  0  0
 23 17  1  0  0  0  0
 24 25  1  0  0  0  0
 24  3  1  0  0  0  0
 26 24  1  0  0  0  0
 27 28  1  0  0  0  0
 27 24  1  0  0  0  0
 29 27  1  0  0  0  0
 30 31  1  0  0  0  0
 30 27  1  0  0  0  0
 32 33  1  0  0  0  0
 32 31  2  0  0  0  0
 34 32  1  0  0  0  0
 35 34  2  0  0  0  0
 36 34  1  0  0  0  0
 36 37  1  0  0  0  0
 37 30  1  0  0  0  0
 38 37  2  0  0  0  0
 39 36  1  0  0  0  0
M  END
>  <minimizedAffinity>
-5.3279624

>  <minimizedRMSD>
1.63811767

$$$$
