
 OpenBabel03242509313D

 15 15  0  0  0  0  0  0  0  0999 V2000
   38.0710   28.8320   43.3880 C   0  0  0  0  0  0  0  0  0  0  0  0
   38.1880   27.4110   43.2980 C   0  0  0  0  0  0  0  0  0  0  0  0
   37.4600   26.7740   42.2960 C   0  0  0  0  0  0  0  0  0  0  0  0
   36.6690   27.5310   41.4450 N   0  0  0  0  0  0  0  0  0  0  0  0
   36.6060   28.8660   41.5850 C   0  0  0  0  0  0  0  0  0  0  0  0
   37.2990   29.5010   42.5440 N   0  0  0  0  0  0  0  0  0  0  0  0
   38.6440   29.3040   44.1720 H   0  0  0  0  0  0  0  0  0  0  0  0
   38.8120   26.8140   43.9690 H   0  0  0  0  0  0  0  0  0  0  0  0
   37.5550   25.2890   42.1690 C   0  0  0  0  0  0  0  0  0  0  0  0
   37.6820   25.0310   40.8160 F   0  0  0  0  0  0  0  0  0  0  0  0
   38.6420   24.7770   42.7990 F   0  0  0  0  0  0  0  0  0  0  0  0
   36.3870   24.6690   42.6340 F   0  0  0  0  0  0  0  0  0  0  0  0
   35.7390   29.6180   40.6400 C   0  0  0  0  0  3  0  0  0  0  0  0
   35.7210   29.0100   39.2590 C   0  0  0  0  0  1  0  0  0  0  0  0
   36.3440   31.0080   40.4960 C   0  0  0  0  0  1  0  0  0  0  0  0
  1  7  1  0  0  0  0
  2  1  1  0  0  0  0
  2  8  1  0  0  0  0
  3  2  2  0  0  0  0
  4  5  2  0  0  0  0
  4  3  1  0  0  0  0
  5  6  1  0  0  0  0
  6  1  2  0  0  0  0
  9  3  1  0  0  0  0
  9 12  1  0  0  0  0
  9 11  1  0  0  0  0
 10  9  1  0  0  0  0
 13  5  1  0  0  0  0
 14 13  1  0  0  0  0
 15 13  1  0  0  0  0
M  END
>  <minimizedAffinity>
-4.25135851

>  <minimizedRMSD>
0.290587515

$$$$
