
 OpenBabel03242509303D

 15 15  0  0  0  0  0  0  0  0999 V2000
   38.0030   28.8240   43.2450 C   0  0  0  0  0  0  0  0  0  0  0  0
   38.0200   27.4070   43.0600 C   0  0  0  0  0  0  0  0  0  0  0  0
   37.2560   26.8910   42.0160 C   0  0  0  0  0  0  0  0  0  0  0  0
   36.5270   27.7570   41.2150 N   0  0  0  0  0  0  0  0  0  0  0  0
   36.5570   29.0810   41.4440 C   0  0  0  0  0  0  0  0  0  0  0  0
   37.2860   29.6000   42.4440 N   0  0  0  0  0  0  0  0  0  0  0  0
   38.6020   29.2010   44.0590 H   0  0  0  0  0  0  0  0  0  0  0  0
   38.5950   26.7250   43.6920 H   0  0  0  0  0  0  0  0  0  0  0  0
   37.2470   25.4140   41.7920 C   0  0  0  0  0  0  0  0  0  0  0  0
   36.7400   25.2280   40.5180 F   0  0  0  0  0  0  0  0  0  0  0  0
   38.4890   24.8700   41.8340 F   0  0  0  0  0  0  0  0  0  0  0  0
   36.4030   24.7720   42.7060 F   0  0  0  0  0  0  0  0  0  0  0  0
   35.7520   29.9530   40.5480 C   0  0  0  0  0  3  0  0  0  0  0  0
   34.7230   29.1840   39.7590 C   0  0  0  0  0  1  0  0  0  0  0  0
   36.7170   30.5560   39.5360 C   0  0  0  0  0  1  0  0  0  0  0  0
  1  7  1  0  0  0  0
  2  1  1  0  0  0  0
  2  8  1  0  0  0  0
  3  2  2  0  0  0  0
  4  5  2  0  0  0  0
  4  3  1  0  0  0  0
  5  6  1  0  0  0  0
  6  1  2  0  0  0  0
  9 11  1  0  0  0  0
  9  3  1  0  0  0  0
  9 12  1  0  0  0  0
 10  9  1  0  0  0  0
 13  5  1  0  0  0  0
 14 13  1  0  0  0  0
 15 13  1  0  0  0  0
M  END
>  <minimizedAffinity>
-4.23172283

>  <minimizedRMSD>
0.477259457

$$$$
