
 OpenBabel03242509303D

 15 15  0  0  0  0  0  0  0  0999 V2000
   37.8860   28.7670   43.5330 C   0  0  0  0  0  0  0  0  0  0  0  0
   37.9610   27.3430   43.4470 C   0  0  0  0  0  0  0  0  0  0  0  0
   37.4840   26.7490   42.2800 C   0  0  0  0  0  0  0  0  0  0  0  0
   36.9690   27.5500   41.2720 N   0  0  0  0  0  0  0  0  0  0  0  0
   36.9300   28.8850   41.4180 C   0  0  0  0  0  0  0  0  0  0  0  0
   37.3830   29.4790   42.5340 N   0  0  0  0  0  0  0  0  0  0  0  0
   38.2610   29.2050   44.4460 H   0  0  0  0  0  0  0  0  0  0  0  0
   38.3670   26.7120   44.2410 H   0  0  0  0  0  0  0  0  0  0  0  0
   37.5440   25.2620   42.1520 C   0  0  0  0  0  0  0  0  0  0  0  0
   37.6460   25.0020   40.7970 F   0  0  0  0  0  0  0  0  0  0  0  0
   38.6290   24.7270   42.7660 F   0  0  0  0  0  0  0  0  0  0  0  0
   36.3700   24.6690   42.6330 F   0  0  0  0  0  0  0  0  0  0  0  0
   36.3650   29.6850   40.3000 C   0  0  0  0  0  3  0  0  0  0  0  0
   36.3500   31.1650   40.5920 C   0  0  0  0  0  1  0  0  0  0  0  0
   34.9130   29.2570   40.1400 C   0  0  0  0  0  1  0  0  0  0  0  0
  1  7  1  0  0  0  0
  2  1  1  0  0  0  0
  2  8  1  0  0  0  0
  3  2  2  0  0  0  0
  4  5  2  0  0  0  0
  4  3  1  0  0  0  0
  5  6  1  0  0  0  0
  6  1  2  0  0  0  0
  9  3  1  0  0  0  0
  9 12  1  0  0  0  0
  9 11  1  0  0  0  0
 10  9  1  0  0  0  0
 13 14  1  0  0  0  0
 13  5  1  0  0  0  0
 15 13  1  0  0  0  0
M  END
>  <minimizedAffinity>
-4.24268675

>  <minimizedRMSD>
0.617223561

$$$$
