
 OpenBabel03242507533D

 22 23  0  0  0  0  0  0  0  0999 V2000
   37.1710   29.9340   40.0390 C   0  0  0  0  0  0  0  0  0  0  0  0
   37.3180   31.3080   39.9930 C   0  0  0  0  0  0  0  0  0  0  0  0
   37.2740   31.9280   38.7520 C   0  0  0  0  0  0  0  0  0  0  0  0
   37.0880   31.1400   37.6310 C   0  0  0  0  0  0  0  0  0  0  0  0
   36.9450   29.7750   37.6860 C   0  0  0  0  0  0  0  0  0  0  0  0
   36.9900   29.1930   38.9020 N   0  0  0  0  0  0  0  0  0  0  0  0
   37.4580   31.8200   40.9360 H   0  0  0  0  0  0  0  0  0  0  0  0
   37.3920   32.9950   38.7720 H   0  0  0  0  0  0  0  0  0  0  0  0
   37.0650   31.6940   36.7020 H   0  0  0  0  0  0  0  0  0  0  0  0
   38.1230   29.1030   43.4720 C   0  0  0  0  0  0  0  0  0  0  0  0
   37.3230   28.0060   43.7810 C   0  0  0  0  0  0  0  0  0  0  0  0
   36.4250   27.5300   42.7860 C   0  0  0  0  0  0  0  0  0  0  0  0
   36.4410   28.2050   41.6140 N   0  0  0  0  0  0  0  0  0  0  0  0
   37.2140   29.2530   41.3370 C   0  0  0  0  0  0  0  0  0  0  0  0
   38.0520   29.6910   42.2780 N   0  0  0  0  0  0  0  0  0  0  0  0
   38.7530   29.3680   44.2950 H   0  0  0  0  0  0  0  0  0  0  0  0
   37.2660   27.4310   44.6900 H   0  0  0  0  0  0  0  0  0  0  0  0
   35.7710   26.6830   42.9500 H   0  0  0  0  0  0  0  0  0  0  0  0
   36.7490   28.9760   36.4650 C   0  0  0  0  0  0  0  0  0  0  0  0
   35.5550   28.0410   36.6200 C   0  0  0  0  0  0  0  0  0  0  0  0
   37.9820   28.1720   36.1250 C   0  0  0  0  0  0  0  0  0  0  0  0
   36.4160   29.8850   35.3060 C   0  0  0  0  0  0  0  0  0  0  0  0
  1 14  1  0  0  0  0
  2  1  1  0  0  0  0
  2  7  1  0  0  0  0
  3  8  1  0  0  0  0
  3  2  2  0  0  0  0
  4  5  2  0  0  0  0
  4  3  1  0  0  0  0
  5  6  1  0  0  0  0
  6  1  2  0  0  0  0
  9  4  1  0  0  0  0
 10 11  1  0  0  0  0
 10 16  1  0  0  0  0
 11 17  1  0  0  0  0
 12 18  1  0  0  0  0
 12 11  2  0  0  0  0
 13 12  1  0  0  0  0
 14 13  2  0  0  0  0
 14 15  1  0  0  0  0
 15 10  2  0  0  0  0
 19 20  1  0  0  0  0
 19  5  1  0  0  0  0
 21 19  1  0  0  0  0
 22 19  1  0  0  0  0
M  END
>  <minimizedAffinity>
-4.2826376

>  <minimizedRMSD>
1.20798528

$$$$
