
 OpenBabel03242509303D

 16 16  0  0  0  0  0  0  0  0999 V2000
   37.9280   28.7770   43.5240 C   0  0  0  0  0  0  0  0  0  0  0  0
   37.9900   27.3620   43.4230 C   0  0  0  0  0  0  0  0  0  0  0  0
   37.4640   26.7730   42.2750 C   0  0  0  0  0  0  0  0  0  0  0  0
   36.9140   27.5770   41.3000 N   0  0  0  0  0  0  0  0  0  0  0  0
   36.8790   28.9140   41.4410 C   0  0  0  0  0  0  0  0  0  0  0  0
   37.3820   29.5000   42.5430 N   0  0  0  0  0  0  0  0  0  0  0  0
   38.3350   29.2380   44.4140 H   0  0  0  0  0  0  0  0  0  0  0  0
   38.4350   26.7530   44.2200 H   0  0  0  0  0  0  0  0  0  0  0  0
   37.5110   25.2940   42.1380 C   0  0  0  0  0  0  0  0  0  0  0  0
   37.6120   25.0350   40.7800 F   0  0  0  0  0  0  0  0  0  0  0  0
   38.6150   24.7440   42.7470 F   0  0  0  0  0  0  0  0  0  0  0  0
   36.3700   24.6840   42.6340 F   0  0  0  0  0  0  0  0  0  0  0  0
   36.2600   29.6620   40.3170 C   0  0  0  0  0  0  0  0  0  0  0  0
   34.8340   29.2420   40.0750 C   0  0  0  0  0  1  0  0  0  0  0  0
   37.0980   29.3340   39.0770 C   0  0  0  0  0  1  0  0  0  0  0  0
   36.3750   31.1520   40.6080 C   0  0  0  0  0  1  0  0  0  0  0  0
  1  7  1  0  0  0  0
  2  1  1  0  0  0  0
  2  8  1  0  0  0  0
  3  2  2  0  0  0  0
  4  5  2  0  0  0  0
  4  3  1  0  0  0  0
  5  6  1  0  0  0  0
  6  1  2  0  0  0  0
  9  3  1  0  0  0  0
  9 12  1  0  0  0  0
  9 11  1  0  0  0  0
 10  9  1  0  0  0  0
 13 16  1  0  0  0  0
 13  5  1  0  0  0  0
 14 13  1  0  0  0  0
 15 13  1  0  0  0  0
M  END
>  <minimizedAffinity>
-4.47274542

>  <minimizedRMSD>
0.300256819

$$$$
