
 OpenBabel03242508183D

 26 28  0  0  0  0  0  0  0  0999 V2000
   38.7120   27.3110   43.7690 C   0  0  0  0  0  0  0  0  0  0  0  0
   39.0770   26.3250   42.8560 C   0  0  0  0  0  0  0  0  0  0  0  0
   38.9700   26.6390   41.4900 C   0  0  0  0  0  0  0  0  0  0  0  0
   38.5180   27.8770   41.1540 N   0  0  0  0  0  0  0  0  0  0  0  0
   38.1700   28.8150   42.0880 C   0  0  0  0  0  0  0  0  0  0  0  0
   38.2700   28.5210   43.4000 N   0  0  0  0  0  0  0  0  0  0  0  0
   37.7330   30.0190   41.4730 N   0  0  0  0  0  0  0  0  0  0  0  0
   36.4270   30.2430   41.2010 C   0  0  0  0  0  0  0  0  0  0  0  0
   36.2710   31.4460   40.6240 N   0  0  0  0  0  0  0  0  0  0  0  0
   37.4780   32.0020   40.5200 C   0  0  0  0  0  0  0  0  0  0  0  0
   37.9810   33.2130   40.0230 C   0  0  0  0  0  0  0  0  0  0  0  0
   39.3080   33.4530   40.0830 N   0  0  0  0  0  0  0  0  0  0  0  0
   40.1560   32.5640   40.6040 C   0  0  0  0  0  0  0  0  0  0  0  0
   39.7190   31.3790   41.0980 N   0  0  0  0  0  0  0  0  0  0  0  0
   38.3870   31.1040   41.0540 C   0  0  0  0  0  0  0  0  0  0  0  0
   36.9890   34.0710   39.4980 N   0  0  0  0  0  0  0  0  0  0  0  0
   38.7810   27.1070   44.8480 H   0  0  0  0  0  0  0  0  0  0  0  0
   39.4320   25.3510   43.1610 H   0  0  0  0  0  0  0  0  0  0  0  0
   39.2370   25.9220   40.7260 H   0  0  0  0  0  0  0  0  0  0  0  0
   35.5540   29.6190   41.3780 H   0  0  0  0  0  0  0  0  0  0  0  0
   36.4600   33.8270   38.6120 H   0  0  0  0  0  0  0  0  0  0  0  0
   36.7580   34.9640   39.9760 H   0  0  0  0  0  0  0  0  0  0  0  0
   41.6070   32.8160   40.6740 C   0  0  0  0  0  0  0  0  0  0  0  0
   41.9500   34.2680   40.7210 C   0  0  0  0  0  0  0  0  0  0  0  0
   42.1500   32.0620   41.8890 C   0  0  0  0  0  0  0  0  0  0  0  0
   42.2140   32.1180   39.4590 C   0  0  0  0  0  0  0  0  0  0  0  0
  1 17  1  0  0  0  0
  2 18  1  0  0  0  0
  2  1  2  0  0  0  0
  3  2  1  0  0  0  0
  4  3  2  0  0  0  0
  4  5  1  0  0  0  0
  5  6  2  0  0  0  0
  6  1  1  0  0  0  0
  7  5  1  0  0  0  0
  8 20  1  0  0  0  0
  8  7  1  0  0  0  0
  9  8  2  0  0  0  0
 10  9  1  0  0  0  0
 10 15  1  0  0  0  0
 11 12  1  0  0  0  0
 11 10  2  0  0  0  0
 12 13  2  0  0  0  0
 13 23  1  0  0  0  0
 13 14  1  0  0  0  0
 15 14  2  0  0  0  0
 15  7  1  0  0  0  0
 16 22  1  0  0  0  0
 16 11  1  0  0  0  0
 19  3  1  0  0  0  0
 21 16  1  0  0  0  0
 23 24  1  0  0  0  0
 23 25  1  0  0  0  0
 26 23  1  0  0  0  0
M  END
>  <minimizedAffinity>
-5.65339136

>  <minimizedRMSD>
1.26235414

$$$$
