
 OpenBabel03242505383D

 23 24  0  0  0  0  0  0  0  0999 V2000
   36.6320   28.1440   39.7310 C   0  0  0  0  0  0  0  0  0  0  0  0
   36.1120   27.0180   39.0770 C   0  0  0  0  0  0  0  0  0  0  0  0
   35.6010   27.2130   37.8040 C   0  0  0  0  0  0  0  0  0  0  0  0
   35.6330   28.4840   37.2610 C   0  0  0  0  0  0  0  0  0  0  0  0
   36.1520   29.5630   37.9370 C   0  0  0  0  0  0  0  0  0  0  0  0
   36.6660   29.4410   39.1840 C   0  0  0  0  0  0  0  0  0  0  0  0
   36.1270   26.0770   39.5680 H   0  0  0  0  0  0  0  0  0  0  0  0
   35.2090   26.3320   37.3300 H   0  0  0  0  0  0  0  0  0  0  0  0
   35.1940   28.4800   36.2510 H   0  0  0  0  0  0  0  0  0  0  0  0
   36.0720   30.4480   37.3180 H   0  0  0  0  0  0  0  0  0  0  0  0
   36.8270   27.7550   43.3560 C   0  0  0  0  0  0  0  0  0  0  0  0
   38.1700   27.4660   43.6040 C   0  0  0  0  0  0  0  0  0  0  0  0
   39.0340   27.4050   42.4980 C   0  0  0  0  0  0  0  0  0  0  0  0
   38.4930   27.6300   41.2850 N   0  0  0  0  0  0  0  0  0  0  0  0
   37.2050   27.9060   41.0570 C   0  0  0  0  0  0  0  0  0  0  0  0
   36.4590   27.9500   42.1040 N   0  0  0  0  0  0  0  0  0  0  0  0
   36.1190   27.8100   44.1970 H   0  0  0  0  0  0  0  0  0  0  0  0
   38.5260   27.2970   44.6040 H   0  0  0  0  0  0  0  0  0  0  0  0
   40.0630   27.1890   42.6320 H   0  0  0  0  0  0  0  0  0  0  0  0
   37.0900   30.6980   39.7950 C   0  0  0  0  0  0  0  0  0  0  0  0
   37.0630   31.9110   38.8760 C   0  0  0  0  0  0  0  0  0  0  0  0
   38.5390   30.5760   40.2340 C   0  0  0  0  0  0  0  0  0  0  0  0
   36.3730   31.0070   41.1050 C   0  0  0  0  0  0  0  0  0  0  0  0
  1 15  1  0  0  0  0
  2  7  1  0  0  0  0
  2  1  2  0  0  0  0
  3  2  1  0  0  0  0
  4  3  2  0  0  0  0
  4  5  1  0  0  0  0
  5  6  2  0  0  0  0
  6  1  1  0  0  0  0
  6 20  1  0  0  0  0
  8  3  1  0  0  0  0
  9  4  1  0  0  0  0
 10  5  1  0  0  0  0
 11 12  1  0  0  0  0
 11 17  1  0  0  0  0
 12 18  1  0  0  0  0
 13 19  1  0  0  0  0
 13 12  2  0  0  0  0
 14 13  1  0  0  0  0
 15 14  2  0  0  0  0
 15 16  1  0  0  0  0
 16 11  2  0  0  0  0
 20 22  1  0  0  0  0
 20 23  1  0  0  0  0
 21 20  1  0  0  0  0
M  END
>  <minimizedAffinity>
-4.44791794

>  <minimizedRMSD>
4.22715712

$$$$
