
 OpenBabel03242508533D

 43 47  0  0  0  0  0  0  0  0999 V2000
   38.1530   28.4670   41.4400 C   0  0  0  0  0  0  0  0  0  0  0  0
   37.4830   29.6310   41.0580 C   0  0  0  0  0  0  0  0  0  0  0  0
   38.2960   30.6670   41.3330 N   0  0  0  0  0  0  0  0  0  0  0  0
   39.4510   30.2530   41.8710 C   0  0  0  0  0  0  0  0  0  0  0  0
   40.5370   30.9890   42.2890 C   0  0  0  0  0  0  0  0  0  0  0  0
   41.6170   30.2950   42.8140 C   0  0  0  0  0  0  0  0  0  0  0  0
   41.5830   28.9140   42.9050 C   0  0  0  0  0  0  0  0  0  0  0  0
   40.4910   28.1810   42.4840 C   0  0  0  0  0  0  0  0  0  0  0  0
   39.3980   28.8640   41.9530 C   0  0  0  0  0  0  0  0  0  0  0  0
   36.4880   29.6280   40.6230 H   0  0  0  0  0  0  0  0  0  0  0  0
   40.5660   32.0720   42.2190 H   0  0  0  0  0  0  0  0  0  0  0  0
   42.5070   30.8110   43.1640 H   0  0  0  0  0  0  0  0  0  0  0  0
   42.3860   28.3020   43.3030 H   0  0  0  0  0  0  0  0  0  0  0  0
   40.4000   27.1050   42.5260 H   0  0  0  0  0  0  0  0  0  0  0  0
   36.9560   25.1650   42.4390 C   0  0  0  0  0  0  0  0  0  0  0  0
   36.7700   24.5070   41.1850 C   0  0  0  0  0  0  0  0  0  0  0  0
   37.0670   25.2310   40.0010 C   0  0  0  0  0  0  0  0  0  0  0  0
   37.5060   26.4970   40.1550 N   0  0  0  0  0  0  0  0  0  0  0  0
   37.6750   27.0950   41.3350 C   0  0  0  0  0  0  0  0  0  0  0  0
   37.4010   26.4360   42.4890 N   0  0  0  0  0  0  0  0  0  0  0  0
   36.7200   24.5820   43.3090 H   0  0  0  0  0  0  0  0  0  0  0  0
   36.4210   23.5080   41.1090 H   0  0  0  0  0  0  0  0  0  0  0  0
   36.9420   24.7770   39.0320 H   0  0  0  0  0  0  0  0  0  0  0  0
   37.8710   32.0140   41.0460 C   0  0  0  0  0  0  0  0  0  0  0  0
   38.6040   32.7460   41.4580 H   0  0  0  0  0  0  0  0  0  0  0  0
   36.8880   32.2670   41.5100 H   0  0  0  0  0  0  0  0  0  0  0  0
   37.7090   32.2720   39.5670 C   0  0  0  0  0  0  0  0  0  0  0  0
   37.0170   33.0840   39.3600 H   0  0  0  0  0  0  0  0  0  0  0  0
   37.2900   31.3370   39.1060 H   0  0  0  0  0  0  0  0  0  0  0  0
   39.0230   32.4530   38.9850 N   0  0  0  0  0  0  0  0  0  0  0  0
   39.6800   31.7930   38.0200 C   0  0  0  0  0  0  0  0  0  0  0  0
   40.8950   32.3670   37.8470 N   0  0  0  0  0  0  0  0  0  0  0  0
   40.9770   33.3880   38.7170 C   0  0  0  0  0  0  0  0  0  0  0  0
   41.9960   34.2990   38.9570 C   0  0  0  0  0  0  0  0  0  0  0  0
   43.0930   34.2990   38.3350 O   0  0  0  0  0  0  0  0  0  0  0  0
   41.8310   35.2420   39.8970 N   0  0  0  0  0  0  0  0  0  0  0  0
   40.6890   35.2940   40.5910 C   0  0  0  0  0  0  0  0  0  0  0  0
   40.3530   36.2340   41.6270 N   0  0  0  0  0  0  0  0  0  0  0  0
   39.6980   34.4270   40.3750 N   0  0  0  0  0  0  0  0  0  0  0  0
   39.7920   33.4580   39.4510 C   0  0  0  0  0  0  0  0  0  0  0  0
   42.5110   35.9830   40.1760 H   0  0  0  0  0  0  0  0  0  0  0  0
   40.0530   35.8600   42.5710 H   0  0  0  0  0  0  0  0  0  0  0  0
   40.3160   37.2630   41.7230 H   0  0  0  0  0  0  0  0  0  0  0  0
  1  9  1  0  0  0  0
  2  3  1  0  0  0  0
  2  1  2  0  0  0  0
  3  4  1  0  0  0  0
  4  9  2  0  0  0  0
  4  5  1  0  0  0  0
  5  6  2  0  0  0  0
  6  7  1  0  0  0  0
  6 12  1  0  0  0  0
  7 13  1  0  0  0  0
  8 14  1  0  0  0  0
  8  7  2  0  0  0  0
  9  8  1  0  0  0  0
 10  2  1  0  0  0  0
 11  5  1  0  0  0  0
 15 20  1  0  0  0  0
 15 21  1  0  0  0  0
 16 15  2  0  0  0  0
 17 18  2  0  0  0  0
 17 16  1  0  0  0  0
 18 19  1  0  0  0  0
 19  1  1  0  0  0  0
 19 20  2  0  0  0  0
 22 16  1  0  0  0  0
 23 17  1  0  0  0  0
 24  3  1  0  0  0  0
 24 25  1  0  0  0  0
 24 26  1  0  0  0  0
 27 24  1  0  0  0  0
 28 27  1  0  0  0  0
 29 27  1  0  0  0  0
 30 40  1  0  0  0  0
 30 27  1  0  0  0  0
 31 30  1  0  0  0  0
 32 31  2  0  0  0  0
 32 33  1  0  0  0  0
 33 34  1  0  0  0  0
 33 40  2  0  0  0  0
 34 36  1  0  0  0  0
 35 34  2  0  0  0  0
 36 41  1  0  0  0  0
 36 37  1  0  0  0  0
 37 38  1  0  0  0  0
 38 43  1  0  0  0  0
 38 42  1  0  0  0  0
 39 37  2  0  0  0  0
 40 39  1  0  0  0  0
M  END
>  <minimizedAffinity>
-6.22092581

>  <minimizedRMSD>
7.58798885

$$$$
