
 OpenBabel03242509303D

 16 16  0  0  0  0  0  0  0  0999 V2000
   37.9210   28.7690   43.5360 C   0  0  0  0  0  0  0  0  0  0  0  0
   37.9760   27.3540   43.4310 C   0  0  0  0  0  0  0  0  0  0  0  0
   37.4630   26.7730   42.2720 C   0  0  0  0  0  0  0  0  0  0  0  0
   36.9330   27.5840   41.2920 N   0  0  0  0  0  0  0  0  0  0  0  0
   36.9030   28.9210   41.4390 C   0  0  0  0  0  0  0  0  0  0  0  0
   37.3930   29.4990   42.5510 N   0  0  0  0  0  0  0  0  0  0  0  0
   38.3170   29.2230   44.4350 H   0  0  0  0  0  0  0  0  0  0  0  0
   38.4060   26.7390   44.2310 H   0  0  0  0  0  0  0  0  0  0  0  0
   37.5050   25.2940   42.1290 C   0  0  0  0  0  0  0  0  0  0  0  0
   37.5980   25.0400   40.7690 F   0  0  0  0  0  0  0  0  0  0  0  0
   38.6090   24.7380   42.7300 F   0  0  0  0  0  0  0  0  0  0  0  0
   36.3640   24.6860   42.6270 F   0  0  0  0  0  0  0  0  0  0  0  0
   36.3050   29.6780   40.3100 C   0  0  0  0  0  0  0  0  0  0  0  0
   37.1130   29.5410   39.0460 C   0  0  0  0  0  1  0  0  0  0  0  0
   36.2960   31.1480   40.7420 C   0  0  0  0  0  1  0  0  0  0  0  0
   34.8690   29.2120   40.1240 C   0  0  0  0  0  1  0  0  0  0  0  0
  1  7  1  0  0  0  0
  2  1  1  0  0  0  0
  2  8  1  0  0  0  0
  3  2  2  0  0  0  0
  4  5  2  0  0  0  0
  4  3  1  0  0  0  0
  5  6  1  0  0  0  0
  6  1  2  0  0  0  0
  9  3  1  0  0  0  0
  9 12  1  0  0  0  0
  9 11  1  0  0  0  0
 10  9  1  0  0  0  0
 13 15  1  0  0  0  0
 13  5  1  0  0  0  0
 14 13  1  0  0  0  0
 16 13  1  0  0  0  0
M  END
>  <minimizedAffinity>
-4.47943544

>  <minimizedRMSD>
0.661984265

$$$$
