
 OpenBabel03242508523D

 30 33  0  0  0  0  0  0  0  0999 V2000
   38.7930   31.9950   40.1850 C   0  0  0  0  0  0  0  0  0  0  0  0
   38.8260   31.1150   41.2550 C   0  0  0  0  0  0  0  0  0  0  0  0
   38.2280   29.9990   40.8690 N   0  0  0  0  0  0  0  0  0  0  0  0
   37.7960   30.0830   39.5980 C   0  0  0  0  0  0  0  0  0  0  0  0
   37.1300   29.1440   38.8310 C   0  0  0  0  0  0  0  0  0  0  0  0
   36.8020   29.5130   37.5270 C   0  0  0  0  0  0  0  0  0  0  0  0
   37.1300   30.7560   37.0410 C   0  0  0  0  0  0  0  0  0  0  0  0
   37.7970   31.6920   37.8100 C   0  0  0  0  0  0  0  0  0  0  0  0
   38.1390   31.3510   39.1210 C   0  0  0  0  0  0  0  0  0  0  0  0
   39.2900   31.4150   42.1850 H   0  0  0  0  0  0  0  0  0  0  0  0
   36.8740   28.1680   39.2170 H   0  0  0  0  0  0  0  0  0  0  0  0
   36.2740   28.8020   36.8790 H   0  0  0  0  0  0  0  0  0  0  0  0
   36.8610   31.0110   36.0220 H   0  0  0  0  0  0  0  0  0  0  0  0
   38.0740   32.6860   37.4630 H   0  0  0  0  0  0  0  0  0  0  0  0
   38.1520   25.9730   43.0590 H   0  0  0  0  0  0  0  0  0  0  0  0
   38.0770   26.9880   42.8290 N   0  0  0  0  0  0  0  0  0  0  0  0
   38.3330   27.5870   41.6690 N   0  0  0  0  0  0  0  0  0  0  0  0
   38.1160   28.9080   41.7770 C   0  0  0  0  0  0  0  0  0  0  0  0
   37.6980   29.1850   43.0700 C   0  0  0  0  0  0  0  0  0  0  0  0
   37.6830   27.9450   43.7170 C   0  0  0  0  0  0  0  0  0  0  0  0
   37.4090   27.7520   44.7430 H   0  0  0  0  0  0  0  0  0  0  0  0
   38.9580   35.6590   40.1440 C   0  0  0  0  0  0  0  0  0  0  0  0
   40.3340   35.9210   39.9490 C   0  0  0  0  0  0  0  0  0  0  0  0
   41.1670   34.8080   39.8380 C   0  0  0  0  0  0  0  0  0  0  0  0
   40.6540   33.5540   39.9170 N   0  0  0  0  0  0  0  0  0  0  0  0
   39.3230   33.3540   40.1050 C   0  0  0  0  0  0  0  0  0  0  0  0
   38.4870   34.4070   40.2180 N   0  0  0  0  0  0  0  0  0  0  0  0
   38.3080   36.5140   40.2310 H   0  0  0  0  0  0  0  0  0  0  0  0
   40.7360   36.9180   39.8870 H   0  0  0  0  0  0  0  0  0  0  0  0
   42.2350   34.9060   39.6870 H   0  0  0  0  0  0  0  0  0  0  0  0
  1  2  2  0  0  0  0
  2 10  1  0  0  0  0
  3  2  1  0  0  0  0
  3 18  1  0  0  0  0
  4  3  1  0  0  0  0
  5 11  1  0  0  0  0
  5  4  2  0  0  0  0
  6  5  1  0  0  0  0
  7  6  2  0  0  0  0
  7  8  1  0  0  0  0
  8  9  2  0  0  0  0
  9  4  1  0  0  0  0
  9  1  1  0  0  0  0
 12  6  1  0  0  0  0
 13  7  1  0  0  0  0
 14  8  1  0  0  0  0
 16 15  1  0  0  0  0
 16 20  1  0  0  0  0
 17 18  2  0  0  0  0
 17 16  1  0  0  0  0
 18 19  1  0  0  0  0
 19 20  2  0  0  0  0
 20 21  1  0  0  0  0
 22 27  1  0  0  0  0
 22 28  1  0  0  0  0
 23 22  2  0  0  0  0
 24 25  2  0  0  0  0
 24 23  1  0  0  0  0
 25 26  1  0  0  0  0
 26  1  1  0  0  0  0
 26 27  2  0  0  0  0
 29 23  1  0  0  0  0
 30 24  1  0  0  0  0
M  END
>  <minimizedAffinity>
-5.92143536

>  <minimizedRMSD>
5.94083166

$$$$
