
 OpenBabel03242509313D

 24 26  0  0  0  0  0  0  0  0999 V2000
   37.8240   28.7160   43.4700 C   0  0  0  0  0  0  0  0  0  0  0  0
   38.3520   27.4110   43.6420 C   0  0  0  0  0  0  0  0  0  0  0  0
   38.4060   26.5780   42.5100 C   0  0  0  0  0  0  0  0  0  0  0  0
   37.9520   27.0590   41.3110 N   0  0  0  0  0  0  0  0  0  0  0  0
   37.4580   28.3080   41.2010 C   0  0  0  0  0  0  0  0  0  0  0  0
   37.4000   29.1120   42.2630 N   0  0  0  0  0  0  0  0  0  0  0  0
   37.7920   29.3370   44.3490 H   0  0  0  0  0  0  0  0  0  0  0  0
   38.7000   27.0830   44.6250 H   0  0  0  0  0  0  0  0  0  0  0  0
   36.9790   28.8450   39.9820 N   0  0  0  0  0  0  0  0  0  0  0  0
   36.9770   30.1130   39.5050 C   0  0  0  0  0  3  0  0  0  0  0  0
   36.4090   30.1600   38.2830 N   0  0  0  0  0  0  0  0  0  0  0  0
   36.0370   28.9080   37.9610 C   0  0  0  0  0  0  0  0  0  0  0  0
   35.4180   28.3610   36.8480 C   0  0  0  0  0  0  0  0  0  0  0  0
   35.1360   27.0460   36.7380 N   0  0  0  0  0  0  0  0  0  0  0  0
   35.4940   26.2770   37.7860 C   0  0  0  0  0  3  0  0  0  0  0  0
   36.1030   26.7530   38.9030 N   0  0  0  0  0  0  0  0  0  0  0  0
   36.3940   28.0780   39.0270 C   0  0  0  0  0  0  0  0  0  0  0  0
   38.9530   25.2040   42.6530 C   0  0  0  0  0  0  0  0  0  0  0  0
   39.7810   25.0020   41.5780 F   0  0  0  0  0  0  0  0  0  0  0  0
   39.6850   25.0420   43.8080 F   0  0  0  0  0  0  0  0  0  0  0  0
   37.9410   24.2370   42.6400 F   0  0  0  0  0  0  0  0  0  0  0  0
   35.0840   29.2700   35.8000 N   0  0  0  0  0  0  0  0  0  0  0  0
   35.6520   28.9490   34.9630 H   0  0  0  0  0  0  0  0  0  0  0  0
   34.4320   30.0720   35.8360 H   0  0  0  0  0  0  0  0  0  0  0  0
  1  2  1  0  0  0  0
  1  7  1  0  0  0  0
  2  8  1  0  0  0  0
  3 18  1  0  0  0  0
  3  2  2  0  0  0  0
  4  3  1  0  0  0  0
  5  4  2  0  0  0  0
  5  6  1  0  0  0  0
  6  1  2  0  0  0  0
  9  5  1  0  0  0  0
 10  9  1  0  0  0  0
 11 10  2  0  0  0  0
 12 11  1  0  0  0  0
 12 17  1  0  0  0  0
 13 12  2  0  0  0  0
 14 13  1  0  0  0  0
 14 15  2  0  0  0  0
 15 16  1  0  0  0  0
 16 17  2  0  0  0  0
 17  9  1  0  0  0  0
 18 20  1  0  0  0  0
 19 18  1  0  0  0  0
 21 18  1  0  0  0  0
 22 24  1  0  0  0  0
 22 13  1  0  0  0  0
 23 22  1  0  0  0  0
M  END
>  <minimizedAffinity>
-4.81318665

>  <minimizedRMSD>
2.08232951

$$$$
