
 OpenBabel03242503103D

 32 35  0  0  1  0  0  0  0  0999 V2000
   37.1440   29.2420   41.6130 C   0  0  0  0  0  0  0  0  0  0  0  0
   35.8880   28.8430   41.0960 C   0  0  0  0  0  0  0  0  0  0  0  0
   35.9700   29.7000   39.4790 S   0  0  0  0  0  0  0  0  0  0  0  0
   37.7220   30.4430   39.8320 C   0  0  0  0  0  0  0  0  0  0  0  0
   37.8460   30.0040   40.8290 N   0  0  0  0  0  0  0  0  0  0  0  0
   35.0880   28.2320   41.4750 H   0  0  0  0  0  0  0  0  0  0  0  0
   37.6120   28.6520   43.2870 S   0  0  0  0  0  0  0  0  0  0  0  0
   37.8200   26.0010   42.4240 C   0  0  0  0  0  0  0  0  0  0  0  0
   38.3600   27.0700   43.1750 C   0  0  0  0  0  0  0  0  0  0  0  0
   39.5370   26.8070   43.8400 C   0  0  0  0  0  0  0  0  0  0  0  0
   40.1210   25.5690   43.7540 N   0  0  0  0  0  0  0  0  0  0  0  0
   39.5540   24.5690   43.0120 C   0  0  0  0  0  0  0  0  0  0  0  0
   38.4280   24.7930   42.3660 N   0  0  0  0  0  0  0  0  0  0  0  0
   36.8890   26.1870   41.8900 H   0  0  0  0  0  0  0  0  0  0  0  0
   40.0080   27.5810   44.4360 H   0  0  0  0  0  0  0  0  0  0  0  0
   40.1300   23.6430   43.0390 H   0  0  0  0  0  0  0  0  0  0  0  0
   38.3880   31.2530   38.9220 O   0  0  0  0  0  0  0  0  0  0  0  0
   39.7810   31.0140   38.6000 C   0  0  1  0  0  0  0  0  0  0  0  0
   40.2750   32.1090   37.6390 C   0  0  0  0  0  0  0  0  0  0  0  0
   40.7600   32.0160   39.0840 C   0  0  1  0  0  0  0  0  0  0  0  0
   40.0300   30.0230   38.2040 H   0  0  0  0  0  0  0  0  0  0  0  0
   39.6060   32.9360   37.3660 H   0  0  0  0  0  0  0  0  0  0  0  0
   40.9920   31.8190   36.8420 H   0  0  0  0  0  0  0  0  0  0  0  0
   41.8120   31.6660   39.1830 H   0  0  0  0  0  0  0  0  0  0  0  0
   40.3340   33.0010   40.0480 N   0  0  0  0  0  0  0  0  0  0  0  0
   40.1590   32.6300   41.0290 H   0  0  0  0  0  0  0  0  0  0  0  0
   40.0790   34.3960   40.0130 C   0  0  0  0  0  0  0  0  0  0  0  0
   38.9530   35.1730   40.2800 C   0  0  0  0  0  0  0  0  0  0  0  0
   39.3750   36.4640   40.0560 C   0  0  0  0  0  0  0  0  0  0  0  0
   40.6960   36.4550   39.6710 C   0  0  0  0  0  0  0  0  0  0  0  0
   41.2990   37.3170   39.4270 H   0  0  0  0  0  0  0  0  0  0  0  0
   41.0400   35.1930   39.6700 O   0  0  0  0  0  0  0  0  0  0  0  0
  1  7  1  0  0  0  0
  2  6  1  0  0  0  0
  2  1  2  0  0  0  0
  3  4  1  0  0  0  0
  3  2  1  0  0  0  0
  4  5  2  0  0  0  0
  5  1  1  0  0  0  0
  8  9  1  0  0  0  0
  9  7  1  0  0  0  0
  9 10  2  0  0  0  0
 10 15  1  0  0  0  0
 11 10  1  0  0  0  0
 12 16  1  0  0  0  0
 12 11  2  0  0  0  0
 13  8  2  0  0  0  0
 13 12  1  0  0  0  0
 14  8  1  0  0  0  0
 17  4  1  0  0  0  0
 18 21  1  6  0  0  0
 18 17  1  0  0  0  0
 18 20  1  0  0  0  0
 19 18  1  0  0  0  0
 19 20  1  0  0  0  0
 20 24  1  1  0  0  0
 20 25  1  0  0  0  0
 22 19  1  0  0  0  0
 23 19  1  0  0  0  0
 25 26  1  0  0  0  0
 27 25  1  0  0  0  0
 27 28  2  0  0  0  0
 29 28  1  0  0  0  0
 30 29  2  0  0  0  0
 31 30  1  0  0  0  0
 32 30  1  0  0  0  0
 32 27  1  0  0  0  0
M  END
>  <minimizedAffinity>
-5.23115826

>  <minimizedRMSD>
3.83809638

$$$$
