
 OpenBabel03242507183D

 48 52  0  0  0  0  0  0  0  0999 V2000
   35.1790   29.0560   40.5230 C   0  0  0  0  0  0  0  0  0  0  0  0
   36.1790   28.1950   41.0080 C   0  0  0  0  0  0  0  0  0  0  0  0
   36.7260   27.2560   40.0880 C   0  0  0  0  0  0  0  0  0  0  0  0
   36.2620   27.2390   38.8170 N   0  0  0  0  0  0  0  0  0  0  0  0
   35.2750   28.1130   38.4020 C   0  0  0  0  0  0  0  0  0  0  0  0
   34.7290   29.0200   39.2430 N   0  0  0  0  0  0  0  0  0  0  0  0
   34.7570   29.7730   41.2180 H   0  0  0  0  0  0  0  0  0  0  0  0
   37.4810   26.6060   40.4530 H   0  0  0  0  0  0  0  0  0  0  0  0
   36.6450   28.2240   42.3150 N   0  0  0  0  0  0  0  0  0  0  0  0
   36.2260   27.4400   43.3290 C   0  0  0  0  0  0  0  0  0  0  0  0
   36.9710   27.8360   44.4120 C   0  0  0  0  0  0  0  0  0  0  0  0
   37.8260   28.8420   44.0580 N   0  0  0  0  0  0  0  0  0  0  0  0
   37.6050   29.0620   42.7610 C   0  0  0  0  0  0  0  0  0  0  0  0
   38.3960   30.0820   42.1770 N   0  0  0  0  0  0  0  0  0  0  0  0
   39.7020   30.2960   42.5400 C   0  0  0  0  0  0  0  0  0  0  0  0
   40.2360   31.3390   41.8270 N   0  0  0  0  0  0  0  0  0  0  0  0
   39.2840   31.7930   41.0120 C   0  0  0  0  0  0  0  0  0  0  0  0
   39.2620   32.8080   40.0870 C   0  0  0  0  0  0  0  0  0  0  0  0
   38.0940   32.9830   39.4310 N   0  0  0  0  0  0  0  0  0  0  0  0
   37.0100   32.2350   39.6450 C   0  0  0  0  0  0  0  0  0  0  0  0
   37.0190   31.2270   40.5590 N   0  0  0  0  0  0  0  0  0  0  0  0
   38.1600   31.0240   41.2280 C   0  0  0  0  0  0  0  0  0  0  0  0
   40.3950   33.6330   39.8250 N   0  0  0  0  0  0  0  0  0  0  0  0
   35.4690   26.6660   43.3070 H   0  0  0  0  0  0  0  0  0  0  0  0
   36.8690   27.3860   45.4130 H   0  0  0  0  0  0  0  0  0  0  0  0
   40.3180   29.7850   43.2630 H   0  0  0  0  0  0  0  0  0  0  0  0
   36.1420   32.4840   39.0500 H   0  0  0  0  0  0  0  0  0  0  0  0
   41.2370   33.4900   40.4260 H   0  0  0  0  0  0  0  0  0  0  0  0
   40.3210   34.3300   39.0540 H   0  0  0  0  0  0  0  0  0  0  0  0
   34.7550   28.1200   37.0300 C   0  0  0  0  0  0  0  0  0  0  0  0
   33.3170   28.6180   36.9750 C   0  0  0  0  0  0  0  0  0  0  0  0
   33.3730   29.7070   36.7810 H   0  0  0  0  0  0  0  0  0  0  0  0
   32.7940   28.1410   36.1130 H   0  0  0  0  0  0  0  0  0  0  0  0
   32.7520   28.4190   37.8980 H   0  0  0  0  0  0  0  0  0  0  0  0
   34.7410   26.7160   36.4640 C   0  0  0  0  0  0  0  0  0  0  0  0
   35.7340   26.2270   36.5100 H   0  0  0  0  0  0  0  0  0  0  0  0
   34.4840   26.8080   35.3890 H   0  0  0  0  0  0  0  0  0  0  0  0
   33.9350   26.1270   36.9290 H   0  0  0  0  0  0  0  0  0  0  0  0
   35.6080   28.9740   36.1060 C   0  0  0  0  0  0  0  0  0  0  0  0
   35.2060   30.0230   36.0630 H   0  0  0  0  0  0  0  0  0  0  0  0
   35.4580   28.5710   35.0660 H   0  0  0  0  0  0  0  0  0  0  0  0
   36.9930   28.9290   36.4390 N   0  0  0  0  0  0  0  0  0  0  0  0
   37.5830   29.8250   37.2480 N   0  0  0  0  0  0  0  0  0  0  0  0
   38.8880   29.5360   37.3950 C   0  0  0  0  0  0  0  0  0  0  0  0
   39.5930   30.1090   38.0010 H   0  0  0  0  0  0  0  0  0  0  0  0
   39.1940   28.4090   36.6610 C   0  0  0  0  0  0  0  0  0  0  0  0
   37.9800   28.0820   36.0940 C   0  0  0  0  0  0  0  0  0  0  0  0
   37.8410   27.2140   35.4340 H   0  0  0  0  0  0  0  0  0  0  0  0
  1  2  1  0  0  0  0
  1  7  1  0  0  0  0
  2  9  1  0  0  0  0
  3  8  1  0  0  0  0
  3  2  2  0  0  0  0
  4  3  1  0  0  0  0
  5  4  2  0  0  0  0
  5  6  1  0  0  0  0
  6  1  2  0  0  0  0
  9 13  1  0  0  0  0
  9 10  1  0  0  0  0
 10 11  2  0  0  0  0
 11 25  1  0  0  0  0
 12 11  1  0  0  0  0
 13 12  2  0  0  0  0
 14 15  1  0  0  0  0
 14 13  1  0  0  0  0
 15 26  1  0  0  0  0
 16 15  2  0  0  0  0
 17 22  1  0  0  0  0
 17 16  1  0  0  0  0
 18 17  2  0  0  0  0
 19 20  2  0  0  0  0
 19 18  1  0  0  0  0
 20 21  1  0  0  0  0
 21 22  2  0  0  0  0
 22 14  1  0  0  0  0
 23 18  1  0  0  0  0
 23 28  1  0  0  0  0
 24 10  1  0  0  0  0
 27 20  1  0  0  0  0
 29 23  1  0  0  0  0
 30  5  1  0  0  0  0
 31 30  1  0  0  0  0
 31 34  1  0  0  0  0
 32 31  1  0  0  0  0
 33 31  1  0  0  0  0
 35 36  1  0  0  0  0
 35 38  1  0  0  0  0
 35 30  1  0  0  0  0
 37 35  1  0  0  0  0
 39 42  1  0  0  0  0
 39 30  1  0  0  0  0
 40 39  1  0  0  0  0
 41 39  1  0  0  0  0
 42 43  1  0  0  0  0
 43 44  2  0  0  0  0
 44 45  1  0  0  0  0
 46 44  1  0  0  0  0
 47 42  1  0  0  0  0
 47 46  2  0  0  0  0
 48 47  1  0  0  0  0
M  END
>  <minimizedAffinity>
-6.12517166

>  <minimizedRMSD>
0.688941956

$$$$
