
 OpenBabel03242507413D

 31 33  0  0  0  0  0  0  0  0999 V2000
   40.3330   27.1140   43.7940 C   0  0  0  0  0  0  0  0  0  0  0  0
   40.1800   25.7140   43.8290 C   0  0  0  0  0  0  0  0  0  0  0  0
   39.2840   25.1550   42.8970 C   0  0  0  0  0  0  0  0  0  0  0  0
   38.6450   25.9690   42.0500 N   0  0  0  0  0  0  0  0  0  0  0  0
   38.8060   27.2960   42.0370 C   0  0  0  0  0  0  0  0  0  0  0  0
   39.6540   27.8680   42.9120 N   0  0  0  0  0  0  0  0  0  0  0  0
   39.0370   23.7740   42.8210 N   0  0  0  0  0  0  0  0  0  0  0  0
   38.1390   28.1860   41.1470 N   0  0  0  0  0  0  0  0  0  0  0  0
   37.3120   27.5920   40.2520 C   0  0  0  0  0  0  0  0  0  0  0  0
   36.5720   28.2600   39.3040 C   0  0  0  0  0  0  0  0  0  0  0  0
   36.7110   29.6380   39.2990 C   0  0  0  0  0  0  0  0  0  0  0  0
   36.0730   30.3420   38.4680 O   0  0  0  0  0  0  0  0  0  0  0  0
   37.5380   30.1990   40.1990 N   0  0  0  0  0  0  0  0  0  0  0  0
   38.2430   29.5200   41.1070 C   0  0  0  0  0  0  0  0  0  0  0  0
   39.0100   30.0280   41.9420 O   0  0  0  0  0  0  0  0  0  0  0  0
   41.0190   27.5730   44.5040 H   0  0  0  0  0  0  0  0  0  0  0  0
   40.7000   25.0750   44.5140 H   0  0  0  0  0  0  0  0  0  0  0  0
   38.2970   23.7340   43.5780 H   0  0  0  0  0  0  0  0  0  0  0  0
   39.6990   23.5030   42.0690 H   0  0  0  0  0  0  0  0  0  0  0  0
   37.1830   26.4980   40.2340 H   0  0  0  0  0  0  0  0  0  0  0  0
   38.7930   34.4440   41.2560 H   0  0  0  0  0  0  0  0  0  0  0  0
   38.3400   33.6360   40.7780 N   0  0  0  0  0  0  0  0  0  0  0  0
   38.4070   32.3430   41.0370 N   0  0  0  0  0  0  0  0  0  0  0  0
   37.6770   31.6170   40.1900 C   0  0  0  0  0  0  0  0  0  0  0  0
   37.1050   32.5310   39.3260 C   0  0  0  0  0  0  0  0  0  0  0  0
   37.5230   33.7900   39.6970 C   0  0  0  0  0  0  0  0  0  0  0  0
   37.2720   34.7460   39.2460 H   0  0  0  0  0  0  0  0  0  0  0  0
   35.6830   27.5480   38.3520 C   0  0  0  0  0  0  0  0  0  0  0  0
   34.7180   27.3300   38.8160 H   0  0  0  0  0  0  0  0  0  0  0  0
   36.1950   26.5980   38.0340 H   0  0  0  0  0  0  0  0  0  0  0  0
   35.5250   28.2290   37.4870 H   0  0  0  0  0  0  0  0  0  0  0  0
  1  2  1  0  0  0  0
  1 16  1  0  0  0  0
  2 17  1  0  0  0  0
  3  2  2  0  0  0  0
  4  3  1  0  0  0  0
  5  4  2  0  0  0  0
  5  6  1  0  0  0  0
  6  1  2  0  0  0  0
  7  3  1  0  0  0  0
  7 18  1  0  0  0  0
  8  5  1  0  0  0  0
  9  8  1  0  0  0  0
 10  9  2  0  0  0  0
 11 10  1  0  0  0  0
 11 13  1  0  0  0  0
 12 11  2  0  0  0  0
 13 14  1  0  0  0  0
 14  8  1  0  0  0  0
 14 15  2  0  0  0  0
 19  7  1  0  0  0  0
 20  9  1  0  0  0  0
 22 23  1  0  0  0  0
 22 21  1  0  0  0  0
 24 13  1  0  0  0  0
 24 23  2  0  0  0  0
 25 26  2  0  0  0  0
 25 24  1  0  0  0  0
 26 22  1  0  0  0  0
 27 26  1  0  0  0  0
 28 29  1  0  0  0  0
 28 10  1  0  0  0  0
 30 28  1  0  0  0  0
 31 28  1  0  0  0  0
M  END
>  <minimizedAffinity>
-6.24107695

>  <minimizedRMSD>
2.47280121

$$$$
