
 OpenBabel03242509253D

 51 56  0  0  0  0  0  0  0  0999 V2000
   38.5970   28.1760   42.7000 C   0  0  0  0  0  0  0  0  0  0  0  0
   37.5370   27.3240   42.8530 C   0  0  0  0  0  0  0  0  0  0  0  0
   36.4390   27.9410   42.2510 C   0  0  0  0  0  0  0  0  0  0  0  0
   36.9200   29.1020   41.7890 N   0  0  0  0  0  0  0  0  0  0  0  0
   38.1820   29.2740   42.0330 N   0  0  0  0  0  0  0  0  0  0  0  0
   37.5400   26.3470   43.3500 H   0  0  0  0  0  0  0  0  0  0  0  0
   35.4560   27.4890   42.2230 H   0  0  0  0  0  0  0  0  0  0  0  0
   41.6030   26.6450   44.2810 C   0  0  0  0  0  0  0  0  0  0  0  0
   40.2780   26.7850   43.8560 C   0  0  0  0  0  0  0  0  0  0  0  0
   39.9530   27.9730   43.1630 C   0  0  0  0  0  0  0  0  0  0  0  0
   40.9050   28.9130   42.9370 N   0  0  0  0  0  0  0  0  0  0  0  0
   42.1870   28.7020   43.3880 C   0  0  0  0  0  0  0  0  0  0  0  0
   42.5180   27.5870   44.0460 N   0  0  0  0  0  0  0  0  0  0  0  0
   41.9230   25.7530   44.8220 H   0  0  0  0  0  0  0  0  0  0  0  0
   39.5440   26.0150   44.0520 H   0  0  0  0  0  0  0  0  0  0  0  0
   43.0390   29.8100   43.0510 N   0  0  0  0  0  0  0  0  0  0  0  0
   43.5090   30.8330   43.8040 C   0  0  0  0  0  3  0  0  0  0  0  0
   44.2750   31.6250   43.0410 N   0  0  0  0  0  0  0  0  0  0  0  0
   44.3150   31.1330   41.7880 C   0  0  0  0  0  0  0  0  0  0  0  0
   44.9180   31.4930   40.5870 C   0  0  0  0  0  0  0  0  0  0  0  0
   44.7650   30.7740   39.4680 N   0  0  0  0  0  0  0  0  0  0  0  0
   43.9960   29.6610   39.5110 C   0  0  0  0  0  3  0  0  0  0  0  0
   43.3880   29.2660   40.6540 N   0  0  0  0  0  0  0  0  0  0  0  0
   43.5330   29.9850   41.7970 C   0  0  0  0  0  0  0  0  0  0  0  0
   45.7220   32.6610   40.5560 N   0  0  0  0  0  0  0  0  0  0  0  0
   45.1030   33.4450   40.2530 H   0  0  0  0  0  0  0  0  0  0  0  0
   46.6380   32.2350   40.8600 H   0  0  0  0  0  0  0  0  0  0  0  0
   36.0490   29.9990   41.1100 C   0  0  0  0  0  0  0  0  0  0  0  0
   35.4190   30.4810   41.8940 H   0  0  0  0  0  0  0  0  0  0  0  0
   36.6270   30.8290   40.6500 H   0  0  0  0  0  0  0  0  0  0  0  0
   35.2220   29.3940   40.0200 C   0  0  0  0  0  0  0  0  0  0  0  0
   34.4710   30.2450   39.8820 H   0  0  0  0  0  0  0  0  0  0  0  0
   34.7860   28.4690   40.3660 H   0  0  0  0  0  0  0  0  0  0  0  0
   35.8770   29.3520   38.6930 C   0  0  0  0  0  0  0  0  0  0  0  0
   37.2110   29.4770   38.4180 C   0  0  0  0  0  0  0  0  0  0  0  0
   37.7700   29.5040   37.1710 C   0  0  0  0  0  0  0  0  0  0  0  0
   36.9630   29.4030   36.0710 C   0  0  0  0  0  0  0  0  0  0  0  0
   35.6050   29.2730   36.2740 C   0  0  0  0  0  0  0  0  0  0  0  0
   34.8350   29.1830   35.1360 C   0  0  0  0  0  0  0  0  0  0  0  0
   33.4840   29.0570   35.2330 C   0  0  0  0  0  0  0  0  0  0  0  0
   32.8960   29.0160   36.4790 C   0  0  0  0  0  0  0  0  0  0  0  0
   33.7080   29.1070   37.5780 C   0  0  0  0  0  0  0  0  0  0  0  0
   35.0550   29.2430   37.5560 C   0  0  0  0  0  0  0  0  0  0  0  0
   37.8520   29.5580   39.2960 H   0  0  0  0  0  0  0  0  0  0  0  0
   38.8400   29.6070   37.1100 H   0  0  0  0  0  0  0  0  0  0  0  0
   37.3890   29.4250   35.0760 H   0  0  0  0  0  0  0  0  0  0  0  0
   35.2890   29.2120   34.1410 H   0  0  0  0  0  0  0  0  0  0  0  0
   32.8920   28.9900   34.3220 H   0  0  0  0  0  0  0  0  0  0  0  0
   31.8220   28.9130   36.5590 H   0  0  0  0  0  0  0  0  0  0  0  0
   33.0630   29.0410   38.8030 O   0  0  0  0  0  0  0  0  0  0  0  0
   32.3540   29.7200   39.0870 H   0  0  0  0  0  0  0  0  0  0  0  0
  1  2  1  0  0  0  0
  1 10  1  0  0  0  0
  2  6  1  0  0  0  0
  3  2  2  0  0  0  0
  4  5  1  0  0  0  0
  4  3  1  0  0  0  0
  5  1  2  0  0  0  0
  7  3  1  0  0  0  0
  8 14  1  0  0  0  0
  9 15  1  0  0  0  0
  9  8  2  0  0  0  0
 10  9  1  0  0  0  0
 11 10  2  0  0  0  0
 11 12  1  0  0  0  0
 12 13  2  0  0  0  0
 13  8  1  0  0  0  0
 16 12  1  0  0  0  0
 16 17  1  0  0  0  0
 18 17  2  0  0  0  0
 19 24  1  0  0  0  0
 19 18  1  0  0  0  0
 20 19  2  0  0  0  0
 21 22  2  0  0  0  0
 21 20  1  0  0  0  0
 22 23  1  0  0  0  0
 23 24  2  0  0  0  0
 24 16  1  0  0  0  0
 25 20  1  0  0  0  0
 25 27  1  0  0  0  0
 26 25  1  0  0  0  0
 28  4  1  0  0  0  0
 28 29  1  0  0  0  0
 30 28  1  0  0  0  0
 31 33  1  0  0  0  0
 31 28  1  0  0  0  0
 32 31  1  0  0  0  0
 34 31  1  0  0  0  0
 35 34  1  0  0  0  0
 35 44  1  0  0  0  0
 36 35  2  0  0  0  0
 37 38  2  0  0  0  0
 37 36  1  0  0  0  0
 38 43  1  0  0  0  0
 39 40  2  0  0  0  0
 39 38  1  0  0  0  0
 40 41  1  0  0  0  0
 41 49  1  0  0  0  0
 41 42  2  0  0  0  0
 42 50  1  0  0  0  0
 43 42  1  0  0  0  0
 43 34  2  0  0  0  0
 45 36  1  0  0  0  0
 46 37  1  0  0  0  0
 47 39  1  0  0  0  0
 48 40  1  0  0  0  0
 50 51  1  0  0  0  0
M  END
>  <minimizedAffinity>
-6.44274282

>  <minimizedRMSD>
0.292506665

$$$$
