
 OpenBabel03242506453D

 36 40  0  0  0  0  0  0  0  0999 V2000
   44.4100   26.1680   43.8520 C   0  0  0  0  0  0  0  0  0  0  0  0
   43.1350   26.2760   43.2640 C   0  0  0  0  0  0  0  0  0  0  0  0
   42.0620   26.7640   44.0010 C   0  0  0  0  0  0  0  0  0  0  0  0
   42.3050   27.1260   45.3050 N   0  0  0  0  0  0  0  0  0  0  0  0
   43.5280   27.0130   45.8380 C   0  0  0  0  0  0  0  0  0  0  0  0
   44.5680   26.5450   45.1350 N   0  0  0  0  0  0  0  0  0  0  0  0
   45.2650   25.7970   43.3170 H   0  0  0  0  0  0  0  0  0  0  0  0
   43.0960   25.8490   41.9060 N   0  0  0  0  0  0  0  0  0  0  0  0
   44.1950   25.9310   41.1280 C   0  0  0  0  0  0  0  0  0  0  0  0
   43.9160   25.4680   39.8870 N   0  0  0  0  0  0  0  0  0  0  0  0
   42.6130   25.0870   39.8870 C   0  0  0  0  0  0  0  0  0  0  0  0
   41.7630   24.5550   38.9610 C   0  0  0  0  0  0  0  0  0  0  0  0
   40.4740   24.2780   39.2900 N   0  0  0  0  0  0  0  0  0  0  0  0
   40.0210   24.5330   40.5540 C   0  0  0  0  0  0  0  0  0  0  0  0
   40.8250   25.0640   41.5180 N   0  0  0  0  0  0  0  0  0  0  0  0
   42.1080   25.3320   41.1660 C   0  0  0  0  0  0  0  0  0  0  0  0
   42.3050   24.3170   37.6690 N   0  0  0  0  0  0  0  0  0  0  0  0
   42.6380   24.9010   36.8770 H   0  0  0  0  0  0  0  0  0  0  0  0
   42.4690   23.3430   37.2780 H   0  0  0  0  0  0  0  0  0  0  0  0
   43.7110   27.4310   47.2720 C   0  0  0  0  0  0  0  0  0  0  0  0
   44.5700   28.5320   47.3470 F   0  0  0  0  0  0  0  0  0  0  0  0
   42.5040   27.8890   47.8060 F   0  0  0  0  0  0  0  0  0  0  0  0
   44.2860   26.4410   48.0410 F   0  0  0  0  0  0  0  0  0  0  0  0
   40.8670   26.8390   43.3700 O   0  0  0  0  0  0  0  0  0  0  0  0
   36.9780   29.1930   43.2520 N   0  0  0  0  0  0  0  0  0  0  0  0
   36.7740   27.9210   43.6290 C   0  0  0  0  0  0  0  0  0  0  0  0
   37.9810   27.2980   43.6360 N   0  0  0  0  0  0  0  0  0  0  0  0
   38.9470   28.1780   43.2640 C   0  0  0  0  0  0  0  0  0  0  0  0
   40.3250   28.0880   43.1010 C   0  0  0  0  0  0  0  0  0  0  0  0
   41.0060   29.1800   42.7100 N   0  0  0  0  0  0  0  0  0  0  0  0
   40.3450   30.3420   42.4800 C   0  0  0  0  0  0  0  0  0  0  0  0
   38.9940   30.4610   42.6310 N   0  0  0  0  0  0  0  0  0  0  0  0
   38.2740   29.3720   43.0270 C   0  0  0  0  0  0  0  0  0  0  0  0
   36.2750   29.9600   43.1380 H   0  0  0  0  0  0  0  0  0  0  0  0
   35.8050   27.4710   43.8840 H   0  0  0  0  0  0  0  0  0  0  0  0
   40.9730   31.1710   42.1690 H   0  0  0  0  0  0  0  0  0  0  0  0
  1  6  1  0  0  0  0
  2  1  2  0  0  0  0
  2  3  1  0  0  0  0
  3  4  2  0  0  0  0
  4  5  1  0  0  0  0
  5 20  1  0  0  0  0
  6  5  2  0  0  0  0
  7  1  1  0  0  0  0
  8  2  1  0  0  0  0
  9  8  1  0  0  0  0
 10 11  1  0  0  0  0
 10  9  2  0  0  0  0
 11 16  1  0  0  0  0
 12 13  1  0  0  0  0
 12 11  2  0  0  0  0
 13 14  2  0  0  0  0
 14 15  1  0  0  0  0
 16 15  2  0  0  0  0
 16  8  1  0  0  0  0
 17 12  1  0  0  0  0
 18 17  1  0  0  0  0
 19 17  1  0  0  0  0
 20 21  1  0  0  0  0
 20 22  1  0  0  0  0
 20 23  1  0  0  0  0
 24  3  1  0  0  0  0
 25 26  1  0  0  0  0
 26 27  2  0  0  0  0
 26 35  1  0  0  0  0
 28 27  1  0  0  0  0
 29 28  1  0  0  0  0
 29 24  1  0  0  0  0
 30 29  2  0  0  0  0
 31 32  2  0  0  0  0
 31 30  1  0  0  0  0
 32 33  1  0  0  0  0
 33 25  1  0  0  0  0
 33 28  2  0  0  0  0
 34 25  1  0  0  0  0
 36 31  1  0  0  0  0
M  END
>  <minimizedAffinity>
-5.88356256

>  <minimizedRMSD>
0.789749324

$$$$
