
 OpenBabel03242508353D

 41 45  0  0  0  0  0  0  0  0999 V2000
   36.9440   31.2360   40.6410 C   0  0  0  0  0  0  0  0  0  0  0  0
   36.6400   31.6240   39.3540 N   0  0  0  0  0  0  0  0  0  0  0  0
   37.5880   32.4300   38.9320 O   0  0  0  0  0  0  0  0  0  0  0  0
   38.4620   32.5490   39.9160 C   0  0  0  0  0  0  0  0  0  0  0  0
   38.0920   31.8330   40.9670 N   0  0  0  0  0  0  0  0  0  0  0  0
   39.6610   33.3710   39.8170 C   0  0  0  0  0  0  0  0  0  0  0  0
   39.7510   34.7410   39.9600 C   0  0  0  0  0  0  0  0  0  0  0  0
   41.0520   35.1350   39.7960 C   0  0  0  0  0  0  0  0  0  0  0  0
   41.7450   33.9730   39.5530 C   0  0  0  0  0  0  0  0  0  0  0  0
   40.9000   32.9890   39.5760 O   0  0  0  0  0  0  0  0  0  0  0  0
   38.9080   35.3760   40.1670 H   0  0  0  0  0  0  0  0  0  0  0  0
   41.4260   36.1610   39.8550 H   0  0  0  0  0  0  0  0  0  0  0  0
   43.1490   33.9020   39.3190 N   0  0  0  0  0  0  0  0  0  0  0  0
   43.6820   34.1390   38.0850 C   0  0  0  0  0  0  0  0  0  0  0  0
   45.0400   34.0100   38.1180 N   0  0  0  0  0  0  0  0  0  0  0  0
   45.3760   33.6930   39.3710 C   0  0  0  0  0  0  0  0  0  0  0  0
   46.5770   33.4320   40.0420 C   0  0  0  0  0  0  0  0  0  0  0  0
   46.5200   33.1330   41.3640 N   0  0  0  0  0  0  0  0  0  0  0  0
   45.3660   33.0760   42.0560 C   0  0  0  0  0  0  0  0  0  0  0  0
   44.1830   33.3260   41.4260 N   0  0  0  0  0  0  0  0  0  0  0  0
   44.2080   33.6280   40.1070 C   0  0  0  0  0  0  0  0  0  0  0  0
   47.8030   33.4910   39.3140 N   0  0  0  0  0  0  0  0  0  0  0  0
   47.9200   33.1370   38.3420 H   0  0  0  0  0  0  0  0  0  0  0  0
   48.6820   33.9110   39.7400 H   0  0  0  0  0  0  0  0  0  0  0  0
   36.2470   30.3880   41.5150 O   0  0  0  0  0  0  0  0  0  0  0  0
   38.1910   28.0050   43.4600 C   0  0  0  0  0  0  0  0  0  0  0  0
   37.9390   26.8440   42.6610 C   0  0  0  0  0  0  0  0  0  0  0  0
   37.1370   26.9860   41.5460 C   0  0  0  0  0  0  0  0  0  0  0  0
   36.6390   28.2110   41.2800 N   0  0  0  0  0  0  0  0  0  0  0  0
   36.8710   29.2840   42.0140 C   0  0  0  0  0  0  0  0  0  0  0  0
   37.6520   29.1960   43.1200 N   0  0  0  0  0  0  0  0  0  0  0  0
   38.7790   28.0760   44.3430 H   0  0  0  0  0  0  0  0  0  0  0  0
   38.4800   26.0410   43.1400 H   0  0  0  0  0  0  0  0  0  0  0  0
   36.9610   25.7420   40.8330 C   0  0  0  0  0  0  0  0  0  0  0  0
   35.9870   25.8230   40.2650 H   0  0  0  0  0  0  0  0  0  0  0  0
   37.7610   25.6870   40.0470 H   0  0  0  0  0  0  0  0  0  0  0  0
   36.9970   24.5100   41.6310 C   0  0  0  0  0  0  0  0  0  0  0  0
   37.4170   24.5270   42.6270 H   0  0  0  0  0  0  0  0  0  0  0  0
   35.9290   24.1450   41.7600 H   0  0  0  0  0  0  0  0  0  0  0  0
   37.8230   23.1440   40.7390 S   0  0  0  0  0  0  0  0  0  0  0  0
   36.9260   22.7060   39.7470 H   0  0  0  0  0  0  0  0  0  0  0  0
  1  5  1  0  0  0  0
  1 25  1  0  0  0  0
  2  1  2  0  0  0  0
  3  2  1  0  0  0  0
  3  4  1  0  0  0  0
  4  5  2  0  0  0  0
  6  4  1  0  0  0  0
  6  7  2  0  0  0  0
  7 11  1  0  0  0  0
  8 12  1  0  0  0  0
  8  7  1  0  0  0  0
  9 10  1  0  0  0  0
  9  8  2  0  0  0  0
 10  6  1  0  0  0  0
 13  9  1  0  0  0  0
 13 21  1  0  0  0  0
 14 15  2  0  0  0  0
 14 13  1  0  0  0  0
 15 16  1  0  0  0  0
 16 17  2  0  0  0  0
 16 21  1  0  0  0  0
 17 18  1  0  0  0  0
 18 19  2  0  0  0  0
 20 19  1  0  0  0  0
 21 20  2  0  0  0  0
 22 24  1  0  0  0  0
 22 17  1  0  0  0  0
 23 22  1  0  0  0  0
 25 30  1  0  0  0  0
 26 32  1  0  0  0  0
 27 33  1  0  0  0  0
 27 26  2  0  0  0  0
 28 27  1  0  0  0  0
 29 28  2  0  0  0  0
 29 30  1  0  0  0  0
 30 31  2  0  0  0  0
 31 26  1  0  0  0  0
 34 28  1  0  0  0  0
 34 37  1  0  0  0  0
 35 34  1  0  0  0  0
 36 34  1  0  0  0  0
 37 39  1  0  0  0  0
 37 38  1  0  0  0  0
 40 37  1  0  0  0  0
 41 40  1  0  0  0  0
M  END
>  <minimizedAffinity>
-6.15681219

>  <minimizedRMSD>
1.49417508

$$$$
