
 OpenBabel03242508443D

 39 43  0  0  1  0  0  0  0  0999 V2000
   37.9620   27.3350   42.7510 C   0  0  2  0  0  0  0  0  0  0  0  0
   39.0400   27.6010   43.7090 C   0  0  0  0  0  0  0  0  0  0  0  0
   39.7440   26.2710   43.8860 C   0  0  0  0  0  0  0  0  0  0  0  0
   39.3090   25.4170   42.7350 C   0  0  0  0  0  0  0  0  0  0  0  0
   38.5760   26.3520   41.7700 C   0  0  1  0  0  0  0  0  0  0  0  0
   37.1430   26.7470   43.2480 H   0  0  0  0  0  0  0  0  0  0  0  0
   38.7310   28.0460   44.6740 H   0  0  0  0  0  0  0  0  0  0  0  0
   39.8020   28.2730   43.2670 H   0  0  0  0  0  0  0  0  0  0  0  0
   40.8500   26.3650   43.8440 H   0  0  0  0  0  0  0  0  0  0  0  0
   39.5070   25.8090   44.8700 H   0  0  0  0  0  0  0  0  0  0  0  0
   40.1490   24.9390   42.1980 H   0  0  0  0  0  0  0  0  0  0  0  0
   38.6760   24.6220   43.1360 H   0  0  0  0  0  0  0  0  0  0  0  0
   39.2430   26.8240   41.0560 H   0  0  0  0  0  0  0  0  0  0  0  0
   37.5780   25.4250   41.1560 C   0  0  0  0  0  0  0  0  0  0  0  0
   36.8560   24.5520   41.8670 N   0  0  0  0  0  0  0  0  0  0  0  0
   36.0860   23.9020   41.0200 O   0  0  0  0  0  0  0  0  0  0  0  0
   36.3220   24.3550   39.8050 C   0  0  0  0  0  0  0  0  0  0  0  0
   37.2480   25.3080   39.8470 N   0  0  0  0  0  0  0  0  0  0  0  0
   35.6650   23.8750   38.6420 N   0  0  0  0  0  0  0  0  0  0  0  0
   36.0660   24.0740   37.3580 C   0  0  0  0  0  0  0  0  0  0  0  0
   35.1810   23.4620   36.5460 N   0  0  0  0  0  0  0  0  0  0  0  0
   34.2450   22.8900   37.3070 C   0  0  0  0  0  0  0  0  0  0  0  0
   33.1080   22.1410   37.0960 C   0  0  0  0  0  0  0  0  0  0  0  0
   32.3020   21.6630   38.0670 N   0  0  0  0  0  0  0  0  0  0  0  0
   32.6170   21.9280   39.3650 C   0  0  0  0  0  0  0  0  0  0  0  0
   33.7210   22.6560   39.5970 N   0  0  0  0  0  0  0  0  0  0  0  0
   34.5250   23.1320   38.6330 C   0  0  0  0  0  0  0  0  0  0  0  0
   32.7230   21.8280   35.7640 N   0  0  0  0  0  0  0  0  0  0  0  0
   32.5320   21.1680   34.9900 H   0  0  0  0  0  0  0  0  0  0  0  0
   32.5060   22.7180   35.2630 H   0  0  0  0  0  0  0  0  0  0  0  0
   38.0530   29.7480   41.9620 C   0  0  0  0  0  0  0  0  0  0  0  0
   37.3910   28.4950   42.0840 C   0  0  0  0  0  0  0  0  0  0  0  0
   36.1260   28.3440   41.5300 C   0  0  0  0  0  0  0  0  0  0  0  0
   35.5700   29.4250   40.8840 N   0  0  0  0  0  0  0  0  0  0  0  0
   36.2340   30.6270   40.7800 C   0  0  0  0  0  0  0  0  0  0  0  0
   37.4810   30.7700   41.3280 N   0  0  0  0  0  0  0  0  0  0  0  0
   39.0360   29.8820   42.3850 H   0  0  0  0  0  0  0  0  0  0  0  0
   35.5510   27.4350   41.5730 H   0  0  0  0  0  0  0  0  0  0  0  0
   35.7150   31.4310   40.2480 H   0  0  0  0  0  0  0  0  0  0  0  0
  1  6  1  1  0  0  0
  1  2  1  0  0  0  0
  2  3  1  0  0  0  0
  2  7  1  0  0  0  0
  3 10  1  0  0  0  0
  4 12  1  0  0  0  0
  4  3  1  0  0  0  0
  5 13  1  6  0  0  0
  5  4  1  0  0  0  0
  5  1  1  0  0  0  0
  8  2  1  0  0  0  0
  9  3  1  0  0  0  0
 11  4  1  0  0  0  0
 14  5  1  0  0  0  0
 14 15  2  0  0  0  0
 16 15  1  0  0  0  0
 17 18  2  0  0  0  0
 17 16  1  0  0  0  0
 18 14  1  0  0  0  0
 19 17  1  0  0  0  0
 20 19  1  0  0  0  0
 21 22  1  0  0  0  0
 21 20  2  0  0  0  0
 22 27  1  0  0  0  0
 23 22  2  0  0  0  0
 23 24  1  0  0  0  0
 24 25  2  0  0  0  0
 25 26  1  0  0  0  0
 27 19  1  0  0  0  0
 27 26  2  0  0  0  0
 28 23  1  0  0  0  0
 29 28  1  0  0  0  0
 30 28  1  0  0  0  0
 31 32  1  0  0  0  0
 31 37  1  0  0  0  0
 32  1  1  0  0  0  0
 33 38  1  0  0  0  0
 33 32  2  0  0  0  0
 34 33  1  0  0  0  0
 35 34  2  0  0  0  0
 35 36  1  0  0  0  0
 36 31  2  0  0  0  0
 39 35  1  0  0  0  0
M  END
>  <minimizedAffinity>
-5.56435728

>  <minimizedRMSD>
0.491184622

$$$$
