
 OpenBabel03242508293D

 34 38  0  0  0  0  0  0  0  0999 V2000
   38.6040   28.4740   43.3440 C   0  0  0  0  0  0  0  0  0  0  0  0
   38.3420   27.2150   42.7720 C   0  0  0  0  0  0  0  0  0  0  0  0
   37.4040   27.1740   41.7240 C   0  0  0  0  0  0  0  0  0  0  0  0
   36.8150   28.3350   41.3330 N   0  0  0  0  0  0  0  0  0  0  0  0
   37.1010   29.5070   41.9120 C   0  0  0  0  0  0  0  0  0  0  0  0
   37.9960   29.5780   42.9180 N   0  0  0  0  0  0  0  0  0  0  0  0
   39.3130   28.6040   44.1570 H   0  0  0  0  0  0  0  0  0  0  0  0
   38.8710   26.3670   43.1670 H   0  0  0  0  0  0  0  0  0  0  0  0
   37.1470   25.9030   41.1540 N   0  0  0  0  0  0  0  0  0  0  0  0
   37.4750   24.7430   41.7950 C   0  0  0  0  0  0  0  0  0  0  0  0
   37.0930   23.7190   40.9750 N   0  0  0  0  0  0  0  0  0  0  0  0
   36.5490   24.2560   39.8730 C   0  0  0  0  0  0  0  0  0  0  0  0
   35.9850   23.8050   38.6990 C   0  0  0  0  0  0  0  0  0  0  0  0
   35.5000   24.5910   37.7270 N   0  0  0  0  0  0  0  0  0  0  0  0
   35.5480   25.9340   37.8670 C   0  0  0  0  0  0  0  0  0  0  0  0
   36.0890   26.4020   38.9960 N   0  0  0  0  0  0  0  0  0  0  0  0
   36.5660   25.6300   39.9520 C   0  0  0  0  0  0  0  0  0  0  0  0
   35.8900   22.4140   38.4610 N   0  0  0  0  0  0  0  0  0  0  0  0
   36.8590   22.0790   38.1960 H   0  0  0  0  0  0  0  0  0  0  0  0
   35.7970   21.4020   38.2930 H   0  0  0  0  0  0  0  0  0  0  0  0
   36.3720   30.5190   41.3330 O   0  0  0  0  0  0  0  0  0  0  0  0
   37.0080   31.4190   40.4770 C   0  0  0  0  0  0  0  0  0  0  0  0
   36.8910   31.5860   39.1330 N   0  0  0  0  0  0  0  0  0  0  0  0
   37.6850   32.5600   38.7560 O   0  0  0  0  0  0  0  0  0  0  0  0
   38.2960   33.0050   39.8360 C   0  0  0  0  0  0  0  0  0  0  0  0
   37.8980   32.3230   40.9030 N   0  0  0  0  0  0  0  0  0  0  0  0
   39.2610   34.0910   39.8140 C   0  0  0  0  0  0  0  0  0  0  0  0
   39.0110   35.4120   40.2140 C   0  0  0  0  0  0  0  0  0  0  0  0
   40.1680   36.1430   40.0460 C   0  0  0  0  0  0  0  0  0  0  0  0
   41.0820   35.2350   39.5480 C   0  0  0  0  0  0  0  0  0  0  0  0
   40.5010   34.0810   39.4390 O   0  0  0  0  0  0  0  0  0  0  0  0
   38.0520   35.7720   40.5900 H   0  0  0  0  0  0  0  0  0  0  0  0
   40.2950   37.1860   40.2640 H   0  0  0  0  0  0  0  0  0  0  0  0
   42.1180   35.4830   39.2980 H   0  0  0  0  0  0  0  0  0  0  0  0
  1  7  1  0  0  0  0
  2  8  1  0  0  0  0
  2  1  2  0  0  0  0
  3  2  1  0  0  0  0
  4  3  2  0  0  0  0
  4  5  1  0  0  0  0
  5  6  2  0  0  0  0
  6  1  1  0  0  0  0
  9  3  1  0  0  0  0
  9 10  1  0  0  0  0
 11 10  2  0  0  0  0
 12 17  1  0  0  0  0
 12 11  1  0  0  0  0
 13 12  2  0  0  0  0
 14 15  2  0  0  0  0
 14 13  1  0  0  0  0
 15 16  1  0  0  0  0
 16 17  2  0  0  0  0
 17  9  1  0  0  0  0
 18 13  1  0  0  0  0
 19 18  1  0  0  0  0
 20 18  1  0  0  0  0
 21  5  1  0  0  0  0
 22 26  1  0  0  0  0
 22 21  1  0  0  0  0
 23 22  2  0  0  0  0
 24 23  1  0  0  0  0
 24 25  1  0  0  0  0
 25 26  2  0  0  0  0
 27 25  1  0  0  0  0
 27 28  2  0  0  0  0
 28 32  1  0  0  0  0
 29 28  1  0  0  0  0
 29 33  1  0  0  0  0
 30 29  2  0  0  0  0
 31 30  1  0  0  0  0
 31 27  1  0  0  0  0
 34 30  1  0  0  0  0
M  END
>  <minimizedAffinity>
-6.55479908

>  <minimizedRMSD>
1.09633923

$$$$
