
 OpenBabel03242509253D

 48 52  0  0  0  0  0  0  0  0999 V2000
   36.1170   30.0670   41.1030 C   0  0  0  0  0  0  0  0  0  0  0  0
   35.5010   30.5570   41.9050 H   0  0  0  0  0  0  0  0  0  0  0  0
   36.7050   30.8980   40.6510 H   0  0  0  0  0  0  0  0  0  0  0  0
   38.6030   28.1590   42.6980 C   0  0  0  0  0  0  0  0  0  0  0  0
   37.5260   27.3240   42.8050 C   0  0  0  0  0  0  0  0  0  0  0  0
   36.4520   27.9780   42.1950 C   0  0  0  0  0  0  0  0  0  0  0  0
   36.9680   29.1450   41.7750 N   0  0  0  0  0  0  0  0  0  0  0  0
   38.2210   29.2920   42.0470 N   0  0  0  0  0  0  0  0  0  0  0  0
   37.5410   26.3470   43.2800 H   0  0  0  0  0  0  0  0  0  0  0  0
   35.4620   27.5530   42.1290 H   0  0  0  0  0  0  0  0  0  0  0  0
   41.5380   26.5380   44.3200 C   0  0  0  0  0  0  0  0  0  0  0  0
   40.2280   26.7290   43.8670 C   0  0  0  0  0  0  0  0  0  0  0  0
   39.9440   27.9200   43.1810 C   0  0  0  0  0  0  0  0  0  0  0  0
   40.9210   28.8220   42.9840 N   0  0  0  0  0  0  0  0  0  0  0  0
   42.1920   28.5820   43.4510 C   0  0  0  0  0  0  0  0  0  0  0  0
   42.4830   27.4610   44.1040 N   0  0  0  0  0  0  0  0  0  0  0  0
   41.8310   25.6380   44.8590 H   0  0  0  0  0  0  0  0  0  0  0  0
   39.4780   25.9790   44.0470 H   0  0  0  0  0  0  0  0  0  0  0  0
   43.0820   29.6720   43.1350 N   0  0  0  0  0  0  0  0  0  0  0  0
   42.9380   30.9060   43.6550 C   0  0  0  0  0  3  0  0  0  0  0  0
   43.8310   31.9030   43.3050 C   0  0  0  0  0  3  0  0  0  0  0  0
   44.8440   31.5740   42.4200 C   0  0  0  0  0  0  0  0  0  0  0  0
   45.6900   32.4220   42.0550 O   0  0  0  0  0  0  0  0  0  0  0  0
   44.9280   30.3130   41.9370 N   0  0  0  0  0  0  0  0  0  0  0  0
   44.0540   29.3370   42.2790 C   0  0  0  0  0  0  0  0  0  0  0  0
   44.2350   28.2110   41.7670 O   0  0  0  0  0  0  0  0  0  0  0  0
   45.7120   30.0920   41.2640 H   0  0  0  0  0  0  0  0  0  0  0  0
   35.2400   29.4890   40.0380 C   0  0  0  0  0  0  0  0  0  0  0  0
   34.5230   30.3680   39.9020 H   0  0  0  0  0  0  0  0  0  0  0  0
   34.7730   28.5850   40.4040 H   0  0  0  0  0  0  0  0  0  0  0  0
   35.8710   29.4000   38.7000 C   0  0  0  0  0  0  0  0  0  0  0  0
   37.1910   29.5250   38.3860 C   0  0  0  0  0  0  0  0  0  0  0  0
   37.7270   29.5160   37.1360 C   0  0  0  0  0  0  0  0  0  0  0  0
   36.8840   29.3710   36.0450 C   0  0  0  0  0  0  0  0  0  0  0  0
   35.5240   29.2370   36.2930 C   0  0  0  0  0  0  0  0  0  0  0  0
   34.7550   29.0980   35.1690 C   0  0  0  0  0  0  0  0  0  0  0  0
   33.3980   28.9530   35.3040 C   0  0  0  0  0  0  0  0  0  0  0  0
   32.8440   28.9500   36.5720 C   0  0  0  0  0  0  0  0  0  0  0  0
   33.6770   29.0940   37.6420 C   0  0  0  0  0  0  0  0  0  0  0  0
   35.0250   29.2480   37.5850 C   0  0  0  0  0  0  0  0  0  0  0  0
   37.8630   29.6410   39.2380 H   0  0  0  0  0  0  0  0  0  0  0  0
   38.7980   29.6240   37.0280 H   0  0  0  0  0  0  0  0  0  0  0  0
   37.3270   29.3690   35.0710 H   0  0  0  0  0  0  0  0  0  0  0  0
   35.1560   29.0930   34.1650 H   0  0  0  0  0  0  0  0  0  0  0  0
   32.7730   28.8440   34.4270 H   0  0  0  0  0  0  0  0  0  0  0  0
   31.7820   28.8340   36.6650 H   0  0  0  0  0  0  0  0  0  0  0  0
   33.0570   29.0650   38.8830 O   0  0  0  0  0  0  0  0  0  0  0  0
   32.5390   28.2350   39.1290 H   0  0  0  0  0  0  0  0  0  0  0  0
  1  7  1  0  0  0  0
  1  2  1  0  0  0  0
  3  1  1  0  0  0  0
  4  5  1  0  0  0  0
  4 13  1  0  0  0  0
  5  9  1  0  0  0  0
  6  5  2  0  0  0  0
  7  8  1  0  0  0  0
  7  6  1  0  0  0  0
  8  4  2  0  0  0  0
 10  6  1  0  0  0  0
 11 17  1  0  0  0  0
 12 18  1  0  0  0  0
 12 11  2  0  0  0  0
 13 12  1  0  0  0  0
 14 13  2  0  0  0  0
 14 15  1  0  0  0  0
 15 16  2  0  0  0  0
 16 11  1  0  0  0  0
 19 15  1  0  0  0  0
 19 20  1  0  0  0  0
 21 20  2  0  0  0  0
 22 21  1  0  0  0  0
 23 22  2  0  0  0  0
 24 25  1  0  0  0  0
 24 22  1  0  0  0  0
 25 19  1  0  0  0  0
 26 25  2  0  0  0  0
 27 24  1  0  0  0  0
 28 30  1  0  0  0  0
 28  1  1  0  0  0  0
 29 28  1  0  0  0  0
 31 28  1  0  0  0  0
 32 31  1  0  0  0  0
 32 41  1  0  0  0  0
 33 32  2  0  0  0  0
 34 35  2  0  0  0  0
 34 33  1  0  0  0  0
 35 40  1  0  0  0  0
 36 37  2  0  0  0  0
 36 35  1  0  0  0  0
 37 38  1  0  0  0  0
 38 46  1  0  0  0  0
 38 39  2  0  0  0  0
 39 47  1  0  0  0  0
 40 39  1  0  0  0  0
 40 31  2  0  0  0  0
 42 33  1  0  0  0  0
 43 34  1  0  0  0  0
 44 36  1  0  0  0  0
 45 37  1  0  0  0  0
 47 48  1  0  0  0  0
M  END
>  <minimizedAffinity>
-6.45986605

>  <minimizedRMSD>
0.239164621

$$$$
