
 OpenBabel03242509193D

 23 25  0  0  0  0  0  0  0  0999 V2000
   40.4830   30.8800   41.6550 C   0  0  0  0  0  0  0  0  0  0  0  0
   41.3860   31.2340   42.6210 C   0  0  0  0  0  0  0  0  0  0  0  0
   42.5150   31.6940   41.9870 C   0  0  0  0  0  0  0  0  0  0  0  0
   42.2400   31.5950   40.6500 N   0  0  0  0  0  0  0  0  0  0  0  0
   41.0530   31.1190   40.4550 N   0  0  0  0  0  0  0  0  0  0  0  0
   41.2240   31.1600   43.7050 H   0  0  0  0  0  0  0  0  0  0  0  0
   43.4350   32.0590   42.4420 H   0  0  0  0  0  0  0  0  0  0  0  0
   37.6180   28.9230   43.0100 C   0  0  0  0  0  0  0  0  0  0  0  0
   38.9280   29.3960   42.8630 C   0  0  0  0  0  0  0  0  0  0  0  0
   39.1550   30.3440   41.8660 C   0  0  0  0  0  0  0  0  0  0  0  0
   38.1160   30.7640   41.0890 N   0  0  0  0  0  0  0  0  0  0  0  0
   36.8650   30.2730   41.2710 C   0  0  0  0  0  0  0  0  0  0  0  0
   36.6220   29.3560   42.2300 N   0  0  0  0  0  0  0  0  0  0  0  0
   37.4480   28.1830   43.7910 H   0  0  0  0  0  0  0  0  0  0  0  0
   39.7430   29.0490   43.4920 H   0  0  0  0  0  0  0  0  0  0  0  0
   36.1260   30.6830   40.5940 H   0  0  0  0  0  0  0  0  0  0  0  0
   43.1610   31.9740   39.6300 C   0  0  0  0  0  0  0  0  0  0  0  0
   44.5340   31.9840   39.6290 C   0  0  0  0  0  0  0  0  0  0  0  0
   45.1820   32.4070   38.4870 C   0  0  0  0  0  0  0  0  0  0  0  0
   46.2640   32.3920   38.5460 H   0  0  0  0  0  0  0  0  0  0  0  0
   44.5160   32.8010   37.3930 N   0  0  0  0  0  0  0  0  0  0  0  0
   43.1830   32.7840   37.4150 C   0  0  0  0  0  0  0  0  0  0  0  0
   42.4950   32.3800   38.5090 N   0  0  0  0  0  0  0  0  0  0  0  0
  1 10  1  0  0  0  0
  1  2  1  0  0  0  0
  2  6  1  0  0  0  0
  3  7  1  0  0  0  0
  3  2  2  0  0  0  0
  4  3  1  0  0  0  0
  5  4  1  0  0  0  0
  5  1  2  0  0  0  0
  8 14  1  0  0  0  0
  9  8  1  0  0  0  0
  9 15  1  0  0  0  0
 10  9  2  0  0  0  0
 11 12  2  0  0  0  0
 11 10  1  0  0  0  0
 12 13  1  0  0  0  0
 13  8  2  0  0  0  0
 16 12  1  0  0  0  0
 17  4  1  0  0  0  0
 18 17  1  0  0  0  0
 19 20  1  0  0  0  0
 19 18  2  0  0  0  0
 21 22  2  0  0  0  0
 21 19  1  0  0  0  0
 22 23  1  0  0  0  0
 23 17  2  0  0  0  0
M  END
>  <minimizedAffinity>
-3.32497406

>  <minimizedRMSD>
7.23373652

$$$$
