
 OpenBabel03242509263D

 48 52  0  0  0  0  0  0  0  0999 V2000
   36.1110   30.0630   41.0800 C   0  0  0  0  0  0  0  0  0  0  0  0
   35.4980   30.5640   41.8780 H   0  0  0  0  0  0  0  0  0  0  0  0
   36.7050   30.8860   40.6230 H   0  0  0  0  0  0  0  0  0  0  0  0
   38.5820   28.1490   42.6900 C   0  0  0  0  0  0  0  0  0  0  0  0
   37.4990   27.3220   42.8030 C   0  0  0  0  0  0  0  0  0  0  0  0
   36.4300   27.9800   42.1880 C   0  0  0  0  0  0  0  0  0  0  0  0
   36.9550   29.1400   41.7590 N   0  0  0  0  0  0  0  0  0  0  0  0
   38.2090   29.2790   42.0310 N   0  0  0  0  0  0  0  0  0  0  0  0
   37.5070   26.3490   43.2850 H   0  0  0  0  0  0  0  0  0  0  0  0
   35.4370   27.5610   42.1250 H   0  0  0  0  0  0  0  0  0  0  0  0
   41.5100   26.5080   44.3060 C   0  0  0  0  0  0  0  0  0  0  0  0
   40.2020   26.7050   43.8500 C   0  0  0  0  0  0  0  0  0  0  0  0
   39.9220   27.9030   43.1750 C   0  0  0  0  0  0  0  0  0  0  0  0
   40.9010   28.8060   42.9900 N   0  0  0  0  0  0  0  0  0  0  0  0
   42.1700   28.5600   43.4590 C   0  0  0  0  0  0  0  0  0  0  0  0
   42.4570   27.4320   44.1020 N   0  0  0  0  0  0  0  0  0  0  0  0
   41.8000   25.6030   44.8370 H   0  0  0  0  0  0  0  0  0  0  0  0
   39.4500   25.9540   44.0210 H   0  0  0  0  0  0  0  0  0  0  0  0
   43.0610   29.6520   43.1570 N   0  0  0  0  0  0  0  0  0  0  0  0
   43.3280   30.6410   44.0300 C   0  0  0  0  0  3  0  0  0  0  0  0
   44.1950   31.6570   43.6690 C   0  0  0  0  0  3  0  0  0  0  0  0
   44.7530   31.6020   42.4030 C   0  0  0  0  0  0  0  0  0  0  0  0
   45.5460   32.4860   42.0030 O   0  0  0  0  0  0  0  0  0  0  0  0
   44.4400   30.5770   41.5760 N   0  0  0  0  0  0  0  0  0  0  0  0
   43.5920   29.5830   41.9300 C   0  0  0  0  0  0  0  0  0  0  0  0
   43.3810   28.6910   41.0790 O   0  0  0  0  0  0  0  0  0  0  0  0
   44.8820   30.5640   40.6180 H   0  0  0  0  0  0  0  0  0  0  0  0
   35.2300   29.4830   40.0190 C   0  0  0  0  0  0  0  0  0  0  0  0
   34.5110   30.3610   39.8870 H   0  0  0  0  0  0  0  0  0  0  0  0
   34.7660   28.5790   40.3880 H   0  0  0  0  0  0  0  0  0  0  0  0
   35.8550   29.3960   38.6780 C   0  0  0  0  0  0  0  0  0  0  0  0
   37.1740   29.5190   38.3590 C   0  0  0  0  0  0  0  0  0  0  0  0
   37.7050   29.5120   37.1060 C   0  0  0  0  0  0  0  0  0  0  0  0
   36.8570   29.3680   36.0190 C   0  0  0  0  0  0  0  0  0  0  0  0
   35.4980   29.2350   36.2730 C   0  0  0  0  0  0  0  0  0  0  0  0
   34.7240   29.0980   35.1510 C   0  0  0  0  0  0  0  0  0  0  0  0
   33.3670   28.9540   35.2920 C   0  0  0  0  0  0  0  0  0  0  0  0
   32.8190   28.9500   36.5630 C   0  0  0  0  0  0  0  0  0  0  0  0
   33.6560   29.0920   37.6290 C   0  0  0  0  0  0  0  0  0  0  0  0
   35.0050   29.2450   37.5670 C   0  0  0  0  0  0  0  0  0  0  0  0
   37.8490   29.6340   39.2080 H   0  0  0  0  0  0  0  0  0  0  0  0
   38.7750   29.6190   36.9940 H   0  0  0  0  0  0  0  0  0  0  0  0
   37.2950   29.3670   35.0430 H   0  0  0  0  0  0  0  0  0  0  0  0
   35.1210   29.0950   34.1460 H   0  0  0  0  0  0  0  0  0  0  0  0
   32.7390   28.8460   34.4180 H   0  0  0  0  0  0  0  0  0  0  0  0
   31.7570   28.8350   36.6600 H   0  0  0  0  0  0  0  0  0  0  0  0
   33.0420   29.0620   38.8730 O   0  0  0  0  0  0  0  0  0  0  0  0
   32.5240   28.2330   39.1210 H   0  0  0  0  0  0  0  0  0  0  0  0
  1  7  1  0  0  0  0
  1  2  1  0  0  0  0
  3  1  1  0  0  0  0
  4  5  1  0  0  0  0
  4 13  1  0  0  0  0
  5  9  1  0  0  0  0
  6  5  2  0  0  0  0
  7  8  1  0  0  0  0
  7  6  1  0  0  0  0
  8  4  2  0  0  0  0
 10  6  1  0  0  0  0
 11 17  1  0  0  0  0
 12 18  1  0  0  0  0
 12 11  2  0  0  0  0
 13 12  1  0  0  0  0
 14 13  2  0  0  0  0
 14 15  1  0  0  0  0
 15 16  2  0  0  0  0
 16 11  1  0  0  0  0
 19 15  1  0  0  0  0
 19 20  1  0  0  0  0
 21 20  2  0  0  0  0
 22 21  1  0  0  0  0
 23 22  2  0  0  0  0
 24 25  1  0  0  0  0
 24 22  1  0  0  0  0
 25 19  1  0  0  0  0
 26 25  2  0  0  0  0
 27 24  1  0  0  0  0
 28 30  1  0  0  0  0
 28  1  1  0  0  0  0
 29 28  1  0  0  0  0
 31 28  1  0  0  0  0
 32 31  1  0  0  0  0
 32 41  1  0  0  0  0
 33 32  2  0  0  0  0
 34 35  2  0  0  0  0
 34 33  1  0  0  0  0
 35 40  1  0  0  0  0
 36 37  2  0  0  0  0
 36 35  1  0  0  0  0
 37 38  1  0  0  0  0
 38 46  1  0  0  0  0
 38 39  2  0  0  0  0
 39 47  1  0  0  0  0
 40 39  1  0  0  0  0
 40 31  2  0  0  0  0
 42 33  1  0  0  0  0
 43 34  1  0  0  0  0
 44 36  1  0  0  0  0
 45 37  1  0  0  0  0
 47 48  1  0  0  0  0
M  END
>  <minimizedAffinity>
-6.4303112

>  <minimizedRMSD>
0.258639991

$$$$
