
 OpenBabel03242509303D

 21 22  0  0  0  0  0  0  0  0999 V2000
   37.8890   28.6250   43.5820 C   0  0  0  0  0  0  0  0  0  0  0  0
   38.4100   27.3130   43.7080 C   0  0  0  0  0  0  0  0  0  0  0  0
   38.3940   26.4910   42.5680 C   0  0  0  0  0  0  0  0  0  0  0  0
   37.8750   27.0080   41.3970 N   0  0  0  0  0  0  0  0  0  0  0  0
   37.3930   28.2630   41.3380 C   0  0  0  0  0  0  0  0  0  0  0  0
   37.4060   29.0460   42.4140 N   0  0  0  0  0  0  0  0  0  0  0  0
   37.8750   29.3010   44.4230 H   0  0  0  0  0  0  0  0  0  0  0  0
   38.7980   26.9870   44.6630 H   0  0  0  0  0  0  0  0  0  0  0  0
   36.8740   28.7150   40.0840 N   0  0  0  0  0  0  0  0  0  0  0  0
   36.7650   29.9510   39.5940 C   0  0  0  0  0  3  0  0  0  0  0  0
   36.2210   30.1290   38.3390 C   0  0  0  0  0  3  0  0  0  0  0  0
   35.7900   29.0700   37.5780 C   0  0  0  0  0  0  0  0  0  0  0  0
   35.2980   29.2760   36.4330 O   0  0  0  0  0  0  0  0  0  0  0  0
   35.9190   27.8290   38.1150 N   0  0  0  0  0  0  0  0  0  0  0  0
   36.4550   27.6510   39.3520 C   0  0  0  0  0  0  0  0  0  0  0  0
   36.4910   26.4280   39.6770 O   0  0  0  0  0  0  0  0  0  0  0  0
   35.5780   27.0570   37.5010 H   0  0  0  0  0  0  0  0  0  0  0  0
   38.9290   25.1150   42.6600 C   0  0  0  0  0  0  0  0  0  0  0  0
   39.7400   24.9380   41.5620 F   0  0  0  0  0  0  0  0  0  0  0  0
   39.6900   24.9210   43.7900 F   0  0  0  0  0  0  0  0  0  0  0  0
   37.9020   24.1620   42.6280 F   0  0  0  0  0  0  0  0  0  0  0  0
  1  2  1  0  0  0  0
  1  7  1  0  0  0  0
  2  8  1  0  0  0  0
  3 18  1  0  0  0  0
  3  2  2  0  0  0  0
  4  3  1  0  0  0  0
  5  4  2  0  0  0  0
  5  6  1  0  0  0  0
  6  1  2  0  0  0  0
  9  5  1  0  0  0  0
 10  9  1  0  0  0  0
 11 10  2  0  0  0  0
 12 14  1  0  0  0  0
 12 11  1  0  0  0  0
 13 12  2  0  0  0  0
 14 15  1  0  0  0  0
 15 16  2  0  0  0  0
 15  9  1  0  0  0  0
 17 14  1  0  0  0  0
 18 20  1  0  0  0  0
 19 18  1  0  0  0  0
 21 18  1  0  0  0  0
M  END
>  <minimizedAffinity>
-4.71972084

>  <minimizedRMSD>
1.68270612

$$$$
