
 OpenBabel03242509303D

 21 22  0  0  0  0  0  0  0  0999 V2000
   37.5850   28.7610   43.5500 C   0  0  0  0  0  0  0  0  0  0  0  0
   38.1590   27.4760   43.7150 C   0  0  0  0  0  0  0  0  0  0  0  0
   38.3820   26.7060   42.5610 C   0  0  0  0  0  0  0  0  0  0  0  0
   38.0300   27.2450   41.3380 N   0  0  0  0  0  0  0  0  0  0  0  0
   37.4880   28.4730   41.2440 C   0  0  0  0  0  0  0  0  0  0  0  0
   37.2750   29.2060   42.3330 N   0  0  0  0  0  0  0  0  0  0  0  0
   37.3910   29.3980   44.4000 H   0  0  0  0  0  0  0  0  0  0  0  0
   38.4050   27.1310   44.7100 H   0  0  0  0  0  0  0  0  0  0  0  0
   37.1550   28.9500   39.9370 N   0  0  0  0  0  0  0  0  0  0  0  0
   35.9760   29.0000   39.3140 C   0  0  0  0  0  3  0  0  0  0  0  0
   35.9140   29.5130   38.0360 C   0  0  0  0  0  3  0  0  0  0  0  0
   37.0310   29.9750   37.3850 C   0  0  0  0  0  0  0  0  0  0  0  0
   36.9310   30.4380   36.2130 O   0  0  0  0  0  0  0  0  0  0  0  0
   38.2110   29.9070   38.0540 N   0  0  0  0  0  0  0  0  0  0  0  0
   38.2740   29.4010   39.3150 C   0  0  0  0  0  0  0  0  0  0  0  0
   39.4560   29.4210   39.7700 O   0  0  0  0  0  0  0  0  0  0  0  0
   39.0310   30.2700   37.5200 H   0  0  0  0  0  0  0  0  0  0  0  0
   38.9790   25.3590   42.6930 C   0  0  0  0  0  0  0  0  0  0  0  0
   39.8380   25.2080   41.6280 F   0  0  0  0  0  0  0  0  0  0  0  0
   39.7060   25.2170   43.8530 F   0  0  0  0  0  0  0  0  0  0  0  0
   38.0010   24.3570   42.6380 F   0  0  0  0  0  0  0  0  0  0  0  0
  1  2  1  0  0  0  0
  1  7  1  0  0  0  0
  2  8  1  0  0  0  0
  3 18  1  0  0  0  0
  3  2  2  0  0  0  0
  4  3  1  0  0  0  0
  5  4  2  0  0  0  0
  5  6  1  0  0  0  0
  6  1  2  0  0  0  0
  9  5  1  0  0  0  0
 10  9  1  0  0  0  0
 11 10  2  0  0  0  0
 12 11  1  0  0  0  0
 12 14  1  0  0  0  0
 13 12  2  0  0  0  0
 14 15  1  0  0  0  0
 15 16  2  0  0  0  0
 15  9  1  0  0  0  0
 17 14  1  0  0  0  0
 18 20  1  0  0  0  0
 19 18  1  0  0  0  0
 21 18  1  0  0  0  0
M  END
>  <minimizedAffinity>
-4.7388134

>  <minimizedRMSD>
1.76238298

$$$$
