
 OpenBabel03242509263D

 48 52  0  0  0  0  0  0  0  0999 V2000
   36.1210   30.0670   41.0910 C   0  0  0  0  0  0  0  0  0  0  0  0
   35.5080   30.5640   41.8910 H   0  0  0  0  0  0  0  0  0  0  0  0
   36.7110   30.8940   40.6330 H   0  0  0  0  0  0  0  0  0  0  0  0
   38.6040   28.1630   42.6930 C   0  0  0  0  0  0  0  0  0  0  0  0
   37.5260   27.3300   42.8050 C   0  0  0  0  0  0  0  0  0  0  0  0
   36.4530   27.9830   42.1930 C   0  0  0  0  0  0  0  0  0  0  0  0
   36.9710   29.1480   41.7670 N   0  0  0  0  0  0  0  0  0  0  0  0
   38.2240   29.2930   42.0380 N   0  0  0  0  0  0  0  0  0  0  0  0
   37.5400   26.3550   43.2840 H   0  0  0  0  0  0  0  0  0  0  0  0
   35.4620   27.5590   42.1290 H   0  0  0  0  0  0  0  0  0  0  0  0
   41.5400   26.5380   44.3120 C   0  0  0  0  0  0  0  0  0  0  0  0
   40.2300   26.7290   43.8580 C   0  0  0  0  0  0  0  0  0  0  0  0
   39.9450   27.9230   43.1770 C   0  0  0  0  0  0  0  0  0  0  0  0
   40.9210   28.8280   42.9860 N   0  0  0  0  0  0  0  0  0  0  0  0
   42.1920   28.5880   43.4530 C   0  0  0  0  0  0  0  0  0  0  0  0
   42.4840   27.4640   44.1010 N   0  0  0  0  0  0  0  0  0  0  0  0
   41.8340   25.6370   44.8470 H   0  0  0  0  0  0  0  0  0  0  0  0
   39.4810   25.9780   44.0340 H   0  0  0  0  0  0  0  0  0  0  0  0
   43.0800   29.6810   43.1430 N   0  0  0  0  0  0  0  0  0  0  0  0
   43.1270   30.8140   43.8690 C   0  0  0  0  0  3  0  0  0  0  0  0
   44.0040   31.8210   43.5120 C   0  0  0  0  0  3  0  0  0  0  0  0
   44.8050   31.6070   42.4020 C   0  0  0  0  0  0  0  0  0  0  0  0
   45.6250   32.4710   42.0140 O   0  0  0  0  0  0  0  0  0  0  0  0
   44.7050   30.4440   41.7190 N   0  0  0  0  0  0  0  0  0  0  0  0
   43.8470   29.4580   42.0680 C   0  0  0  0  0  0  0  0  0  0  0  0
   43.8460   28.4290   41.3590 O   0  0  0  0  0  0  0  0  0  0  0  0
   45.3300   30.3110   40.8770 H   0  0  0  0  0  0  0  0  0  0  0  0
   35.2400   29.4850   40.0310 C   0  0  0  0  0  0  0  0  0  0  0  0
   34.5200   30.3620   39.8980 H   0  0  0  0  0  0  0  0  0  0  0  0
   34.7780   28.5810   40.4010 H   0  0  0  0  0  0  0  0  0  0  0  0
   35.8650   29.3970   38.6900 C   0  0  0  0  0  0  0  0  0  0  0  0
   37.1840   29.5200   38.3700 C   0  0  0  0  0  0  0  0  0  0  0  0
   37.7140   29.5120   37.1170 C   0  0  0  0  0  0  0  0  0  0  0  0
   36.8650   29.3680   36.0300 C   0  0  0  0  0  0  0  0  0  0  0  0
   35.5070   29.2360   36.2850 C   0  0  0  0  0  0  0  0  0  0  0  0
   34.7330   29.0980   35.1640 C   0  0  0  0  0  0  0  0  0  0  0  0
   33.3760   28.9540   35.3050 C   0  0  0  0  0  0  0  0  0  0  0  0
   32.8280   28.9510   36.5760 C   0  0  0  0  0  0  0  0  0  0  0  0
   33.6660   29.0930   37.6420 C   0  0  0  0  0  0  0  0  0  0  0  0
   35.0140   29.2460   37.5790 C   0  0  0  0  0  0  0  0  0  0  0  0
   37.8590   29.6350   39.2190 H   0  0  0  0  0  0  0  0  0  0  0  0
   38.7840   29.6190   37.0040 H   0  0  0  0  0  0  0  0  0  0  0  0
   37.3040   29.3670   35.0540 H   0  0  0  0  0  0  0  0  0  0  0  0
   35.1290   29.0940   34.1580 H   0  0  0  0  0  0  0  0  0  0  0  0
   32.7470   28.8460   34.4310 H   0  0  0  0  0  0  0  0  0  0  0  0
   31.7660   28.8360   36.6740 H   0  0  0  0  0  0  0  0  0  0  0  0
   33.0520   29.0640   38.8860 O   0  0  0  0  0  0  0  0  0  0  0  0
   32.5350   28.2340   39.1340 H   0  0  0  0  0  0  0  0  0  0  0  0
  1  7  1  0  0  0  0
  1  2  1  0  0  0  0
  3  1  1  0  0  0  0
  4  5  1  0  0  0  0
  4 13  1  0  0  0  0
  5  9  1  0  0  0  0
  6  5  2  0  0  0  0
  7  8  1  0  0  0  0
  7  6  1  0  0  0  0
  8  4  2  0  0  0  0
 10  6  1  0  0  0  0
 11 17  1  0  0  0  0
 12 18  1  0  0  0  0
 12 11  2  0  0  0  0
 13 12  1  0  0  0  0
 14 13  2  0  0  0  0
 14 15  1  0  0  0  0
 15 16  2  0  0  0  0
 16 11  1  0  0  0  0
 19 15  1  0  0  0  0
 19 20  1  0  0  0  0
 21 20  2  0  0  0  0
 22 21  1  0  0  0  0
 23 22  2  0  0  0  0
 24 25  1  0  0  0  0
 24 22  1  0  0  0  0
 25 19  1  0  0  0  0
 26 25  2  0  0  0  0
 27 24  1  0  0  0  0
 28 30  1  0  0  0  0
 28  1  1  0  0  0  0
 29 28  1  0  0  0  0
 31 28  1  0  0  0  0
 32 31  1  0  0  0  0
 32 41  1  0  0  0  0
 33 32  2  0  0  0  0
 34 35  2  0  0  0  0
 34 33  1  0  0  0  0
 35 40  1  0  0  0  0
 36 37  2  0  0  0  0
 36 35  1  0  0  0  0
 37 38  1  0  0  0  0
 38 46  1  0  0  0  0
 38 39  2  0  0  0  0
 39 47  1  0  0  0  0
 40 39  1  0  0  0  0
 40 31  2  0  0  0  0
 42 33  1  0  0  0  0
 43 34  1  0  0  0  0
 44 36  1  0  0  0  0
 45 37  1  0  0  0  0
 47 48  1  0  0  0  0
M  END
>  <minimizedAffinity>
-6.43728876

>  <minimizedRMSD>
0.251074582

$$$$
