
 OpenBabel03232522043D

 35 37  0  0  0  0  0  0  0  0999 V2000
   41.2250   30.8870   41.0400 C   0  0  0  0  0  0  0  0  0  0  0  0
   40.4750   32.0590   41.0710 C   0  0  0  0  0  0  0  0  0  0  0  0
   41.2810   33.1170   40.6450 C   0  0  0  0  0  0  0  0  0  0  0  0
   42.4820   32.5110   40.3800 C   0  0  0  0  0  0  0  0  0  0  0  0
   42.4090   31.2400   40.6170 O   0  0  0  0  0  0  0  0  0  0  0  0
   39.4260   32.1320   41.3790 H   0  0  0  0  0  0  0  0  0  0  0  0
   40.8370   34.4610   40.5540 N   0  0  0  0  0  0  0  0  0  0  0  0
   41.4200   35.6040   40.9550 C   0  0  0  0  0  0  0  0  0  0  0  0
   40.7730   36.8050   40.7500 C   0  0  0  0  0  0  0  0  0  0  0  0
   39.5460   36.8780   40.1460 C   0  0  0  0  0  0  0  0  0  0  0  0
   39.0290   38.0040   39.9970 O   0  0  0  0  0  0  0  0  0  0  0  0
   38.9940   35.7130   39.7590 N   0  0  0  0  0  0  0  0  0  0  0  0
   39.6170   34.5200   39.9530 C   0  0  0  0  0  0  0  0  0  0  0  0
   38.9410   33.5280   39.5210 O   0  0  0  0  0  0  0  0  0  0  0  0
   38.0510   35.7930   39.2960 H   0  0  0  0  0  0  0  0  0  0  0  0
   39.9220   27.8700   42.7530 C   0  0  0  0  0  0  0  0  0  0  0  0
   40.0600   26.8740   41.7380 C   0  0  0  0  0  0  0  0  0  0  0  0
   40.5930   27.3520   40.5600 C   0  0  0  0  0  0  0  0  0  0  0  0
   40.9460   28.6400   40.3930 N   0  0  0  0  0  0  0  0  0  0  0  0
   40.7900   29.5470   41.3990 C   0  0  0  0  0  0  0  0  0  0  0  0
   40.2810   29.1430   42.5600 N   0  0  0  0  0  0  0  0  0  0  0  0
   39.5070   27.5890   43.7280 H   0  0  0  0  0  0  0  0  0  0  0  0
   40.7000   26.5940   39.7860 H   0  0  0  0  0  0  0  0  0  0  0  0
   39.6510   25.5530   42.0420 N   0  0  0  0  0  0  0  0  0  0  0  0
   40.3710   24.6630   42.8710 C   0  0  0  0  0  0  0  0  0  0  0  0
   41.6830   24.7380   42.8230 N   0  0  0  0  0  0  0  0  0  0  0  0
   39.5540   23.7850   43.6640 N   0  0  0  0  0  0  0  0  0  0  0  0
   42.2700   24.1050   43.3790 H   0  0  0  0  0  0  0  0  0  0  0  0
   38.7440   25.2750   41.5910 H   0  0  0  0  0  0  0  0  0  0  0  0
   39.1440   24.1660   44.5570 H   0  0  0  0  0  0  0  0  0  0  0  0
   39.6900   22.9980   42.9730 H   0  0  0  0  0  0  0  0  0  0  0  0
   43.6680   33.2500   39.8920 C   0  0  0  0  0  0  0  0  0  0  0  0
   44.6870   32.3490   39.5530 F   0  0  0  0  0  0  0  0  0  0  0  0
   43.3230   33.9850   38.7700 F   0  0  0  0  0  0  0  0  0  0  0  0
   44.1920   34.0620   40.8660 F   0  0  0  0  0  0  0  0  0  0  0  0
  1  2  2  0  0  0  0
  1 20  1  0  0  0  0
  2  6  1  0  0  0  0
  3  2  1  0  0  0  0
  4  5  1  0  0  0  0
  4  3  2  0  0  0  0
  5  1  1  0  0  0  0
  7  3  1  0  0  0  0
  7  8  1  0  0  0  0
  9  8  2  0  0  0  0
 10  9  1  0  0  0  0
 11 10  2  0  0  0  0
 12 13  1  0  0  0  0
 12 10  1  0  0  0  0
 13  7  1  0  0  0  0
 14 13  2  0  0  0  0
 15 12  1  0  0  0  0
 16 22  1  0  0  0  0
 17 24  1  0  0  0  0
 17 16  2  0  0  0  0
 18 17  1  0  0  0  0
 19 18  2  0  0  0  0
 19 20  1  0  0  0  0
 20 21  2  0  0  0  0
 21 16  1  0  0  0  0
 23 18  1  0  0  0  0
 24 25  1  0  0  0  0
 25 27  1  0  0  0  0
 26 25  2  0  0  0  0
 26 28  1  0  0  0  0
 27 30  1  0  0  0  0
 29 24  1  0  0  0  0
 31 27  1  0  0  0  0
 32  4  1  0  0  0  0
 32 35  1  0  0  0  0
 33 32  1  0  0  0  0
 34 32  1  0  0  0  0
M  END
>  <minimizedAffinity>
-5.96020079

>  <minimizedRMSD>
4.04835224

$$$$
