
 OpenBabel03242509263D

 48 52  0  0  0  0  0  0  0  0999 V2000
   36.1620   30.0620   41.1270 C   0  0  0  0  0  0  0  0  0  0  0  0
   35.5560   30.5600   41.9330 H   0  0  0  0  0  0  0  0  0  0  0  0
   36.7570   30.8850   40.6720 H   0  0  0  0  0  0  0  0  0  0  0  0
   38.6330   28.1270   42.7130 C   0  0  0  0  0  0  0  0  0  0  0  0
   37.5480   27.3010   42.8190 C   0  0  0  0  0  0  0  0  0  0  0  0
   36.4800   27.9670   42.2130 C   0  0  0  0  0  0  0  0  0  0  0  0
   37.0060   29.1310   41.7960 N   0  0  0  0  0  0  0  0  0  0  0  0
   38.2600   29.2650   42.0660 N   0  0  0  0  0  0  0  0  0  0  0  0
   37.5560   26.3230   43.2910 H   0  0  0  0  0  0  0  0  0  0  0  0
   35.4860   27.5510   42.1470 H   0  0  0  0  0  0  0  0  0  0  0  0
   41.5830   26.4290   44.2250 C   0  0  0  0  0  0  0  0  0  0  0  0
   40.2760   26.6310   43.7710 C   0  0  0  0  0  0  0  0  0  0  0  0
   39.9730   27.8740   43.1930 C   0  0  0  0  0  0  0  0  0  0  0  0
   40.9310   28.8120   43.0960 N   0  0  0  0  0  0  0  0  0  0  0  0
   42.2010   28.5590   43.5590 C   0  0  0  0  0  0  0  0  0  0  0  0
   42.5090   27.3890   44.1100 N   0  0  0  0  0  0  0  0  0  0  0  0
   41.8900   25.4900   44.6840 H   0  0  0  0  0  0  0  0  0  0  0  0
   39.5410   25.8520   43.8700 H   0  0  0  0  0  0  0  0  0  0  0  0
   43.0680   29.6930   43.3580 N   0  0  0  0  0  0  0  0  0  0  0  0
   43.5350   30.4440   44.3730 C   0  0  0  0  0  3  0  0  0  0  0  0
   44.3640   31.5190   44.1030 C   0  0  0  0  0  3  0  0  0  0  0  0
   44.6750   31.7710   42.7780 C   0  0  0  0  0  0  0  0  0  0  0  0
   45.4190   32.7250   42.4530 O   0  0  0  0  0  0  0  0  0  0  0  0
   44.1690   30.9730   41.8090 N   0  0  0  0  0  0  0  0  0  0  0  0
   43.3590   29.9230   42.0720 C   0  0  0  0  0  0  0  0  0  0  0  0
   42.9540   29.2600   41.0910 O   0  0  0  0  0  0  0  0  0  0  0  0
   44.4240   31.1910   40.8070 H   0  0  0  0  0  0  0  0  0  0  0  0
   35.2720   29.4930   40.0680 C   0  0  0  0  0  0  0  0  0  0  0  0
   34.5620   30.3790   39.9390 H   0  0  0  0  0  0  0  0  0  0  0  0
   34.8000   28.5930   40.4360 H   0  0  0  0  0  0  0  0  0  0  0  0
   35.8930   29.4020   38.7250 C   0  0  0  0  0  0  0  0  0  0  0  0
   37.2110   29.5240   38.4010 C   0  0  0  0  0  0  0  0  0  0  0  0
   37.7370   29.5130   37.1470 C   0  0  0  0  0  0  0  0  0  0  0  0
   36.8850   29.3660   36.0630 C   0  0  0  0  0  0  0  0  0  0  0  0
   35.5270   29.2340   36.3210 C   0  0  0  0  0  0  0  0  0  0  0  0
   34.7500   29.0940   35.2030 C   0  0  0  0  0  0  0  0  0  0  0  0
   33.3940   28.9510   35.3490 C   0  0  0  0  0  0  0  0  0  0  0  0
   32.8500   28.9500   36.6210 C   0  0  0  0  0  0  0  0  0  0  0  0
   33.6910   29.0960   37.6840 C   0  0  0  0  0  0  0  0  0  0  0  0
   35.0390   29.2480   37.6170 C   0  0  0  0  0  0  0  0  0  0  0  0
   37.8890   29.6410   39.2480 H   0  0  0  0  0  0  0  0  0  0  0  0
   38.8070   29.6190   37.0300 H   0  0  0  0  0  0  0  0  0  0  0  0
   37.3210   29.3620   35.0850 H   0  0  0  0  0  0  0  0  0  0  0  0
   35.1440   29.0870   34.1960 H   0  0  0  0  0  0  0  0  0  0  0  0
   32.7620   28.8400   34.4770 H   0  0  0  0  0  0  0  0  0  0  0  0
   31.7880   28.8360   36.7230 H   0  0  0  0  0  0  0  0  0  0  0  0
   33.0800   29.0690   38.9300 O   0  0  0  0  0  0  0  0  0  0  0  0
   32.5630   28.2400   39.1820 H   0  0  0  0  0  0  0  0  0  0  0  0
  1  7  1  0  0  0  0
  1  2  1  0  0  0  0
  3  1  1  0  0  0  0
  4  5  1  0  0  0  0
  4 13  1  0  0  0  0
  5  9  1  0  0  0  0
  6  5  2  0  0  0  0
  7  8  1  0  0  0  0
  7  6  1  0  0  0  0
  8  4  2  0  0  0  0
 10  6  1  0  0  0  0
 11 17  1  0  0  0  0
 12 18  1  0  0  0  0
 12 11  2  0  0  0  0
 13 12  1  0  0  0  0
 14 13  2  0  0  0  0
 14 15  1  0  0  0  0
 15 16  2  0  0  0  0
 16 11  1  0  0  0  0
 19 15  1  0  0  0  0
 19 20  1  0  0  0  0
 21 20  2  0  0  0  0
 22 21  1  0  0  0  0
 23 22  2  0  0  0  0
 24 25  1  0  0  0  0
 24 22  1  0  0  0  0
 25 19  1  0  0  0  0
 26 25  2  0  0  0  0
 27 24  1  0  0  0  0
 28 30  1  0  0  0  0
 28  1  1  0  0  0  0
 29 28  1  0  0  0  0
 31 28  1  0  0  0  0
 32 31  1  0  0  0  0
 32 41  1  0  0  0  0
 33 32  2  0  0  0  0
 34 35  2  0  0  0  0
 34 33  1  0  0  0  0
 35 40  1  0  0  0  0
 36 37  2  0  0  0  0
 36 35  1  0  0  0  0
 37 38  1  0  0  0  0
 38 46  1  0  0  0  0
 38 39  2  0  0  0  0
 39 47  1  0  0  0  0
 40 39  1  0  0  0  0
 40 31  2  0  0  0  0
 42 33  1  0  0  0  0
 43 34  1  0  0  0  0
 44 36  1  0  0  0  0
 45 37  1  0  0  0  0
 47 48  1  0  0  0  0
M  END
>  <minimizedAffinity>
-6.41358137

>  <minimizedRMSD>
0.423395455

$$$$
