
 OpenBabel03242509253D

 48 52  0  0  0  0  0  0  0  0999 V2000
   35.9330   29.9820   40.9340 C   0  0  0  0  0  0  0  0  0  0  0  0
   35.2760   30.4440   41.7210 H   0  0  0  0  0  0  0  0  0  0  0  0
   36.4870   30.8400   40.4900 H   0  0  0  0  0  0  0  0  0  0  0  0
   38.4820   28.2060   42.5800 C   0  0  0  0  0  0  0  0  0  0  0  0
   37.4390   27.3310   42.6970 C   0  0  0  0  0  0  0  0  0  0  0  0
   36.3440   27.9290   42.0690 C   0  0  0  0  0  0  0  0  0  0  0  0
   36.8160   29.1080   41.6290 N   0  0  0  0  0  0  0  0  0  0  0  0
   38.0600   29.3100   41.9060 N   0  0  0  0  0  0  0  0  0  0  0  0
   37.4900   26.3640   43.1910 H   0  0  0  0  0  0  0  0  0  0  0  0
   35.3730   27.4640   42.0050 H   0  0  0  0  0  0  0  0  0  0  0  0
   41.5330   26.6510   44.0470 C   0  0  0  0  0  0  0  0  0  0  0  0
   40.2220   26.7780   43.5750 C   0  0  0  0  0  0  0  0  0  0  0  0
   39.8290   28.0300   43.0750 C   0  0  0  0  0  0  0  0  0  0  0  0
   40.7080   29.0470   43.0660 N   0  0  0  0  0  0  0  0  0  0  0  0
   41.9860   28.8660   43.5420 C   0  0  0  0  0  0  0  0  0  0  0  0
   42.3790   27.6900   44.0210 N   0  0  0  0  0  0  0  0  0  0  0  0
   41.9080   25.7110   44.4480 H   0  0  0  0  0  0  0  0  0  0  0  0
   39.5530   25.9370   43.6020 H   0  0  0  0  0  0  0  0  0  0  0  0
   42.7600   30.0780   43.4410 N   0  0  0  0  0  0  0  0  0  0  0  0
   44.0720   30.1350   43.7390 C   0  0  0  0  0  0  0  0  0  0  0  0
   44.7500   31.3330   43.6170 C   0  0  0  0  0  0  0  0  0  0  0  0
   44.0300   32.4350   43.1860 C   0  0  0  0  0  0  0  0  0  0  0  0
   44.5730   33.5560   43.0520 O   0  0  0  0  0  0  0  0  0  0  0  0
   42.7130   32.3050   42.9040 N   0  0  0  0  0  0  0  0  0  0  0  0
   42.0490   31.1330   43.0230 C   0  0  0  0  0  0  0  0  0  0  0  0
   40.8330   31.1380   42.7330 O   0  0  0  0  0  0  0  0  0  0  0  0
   42.1910   33.1640   42.5780 H   0  0  0  0  0  0  0  0  0  0  0  0
   35.1090   29.3550   39.8550 C   0  0  0  0  0  0  0  0  0  0  0  0
   34.3320   30.1810   39.7220 H   0  0  0  0  0  0  0  0  0  0  0  0
   34.7050   28.4160   40.2070 H   0  0  0  0  0  0  0  0  0  0  0  0
   35.7560   29.3270   38.5220 C   0  0  0  0  0  0  0  0  0  0  0  0
   37.0810   29.4580   38.2310 C   0  0  0  0  0  0  0  0  0  0  0  0
   37.6330   29.5070   36.9880 C   0  0  0  0  0  0  0  0  0  0  0  0
   36.8020   29.4200   35.8810 C   0  0  0  0  0  0  0  0  0  0  0  0
   35.4380   29.2830   36.1060 C   0  0  0  0  0  0  0  0  0  0  0  0
   34.6830   29.2040   34.9670 C   0  0  0  0  0  0  0  0  0  0  0  0
   33.3230   29.0620   35.0780 C   0  0  0  0  0  0  0  0  0  0  0  0
   32.7540   29.0010   36.3380 C   0  0  0  0  0  0  0  0  0  0  0  0
   33.5740   29.0870   37.4230 C   0  0  0  0  0  0  0  0  0  0  0  0
   34.9240   29.2350   37.3910 C   0  0  0  0  0  0  0  0  0  0  0  0
   37.7420   29.5280   39.0950 H   0  0  0  0  0  0  0  0  0  0  0  0
   38.7050   29.6130   36.8990 H   0  0  0  0  0  0  0  0  0  0  0  0
   37.2570   29.4630   34.9140 H   0  0  0  0  0  0  0  0  0  0  0  0
   35.0970   29.2460   33.9690 H   0  0  0  0  0  0  0  0  0  0  0  0
   32.7090   28.9990   34.1890 H   0  0  0  0  0  0  0  0  0  0  0  0
   31.6890   28.8870   36.4120 H   0  0  0  0  0  0  0  0  0  0  0  0
   32.9380   29.0020   38.6540 O   0  0  0  0  0  0  0  0  0  0  0  0
   32.4130   28.1640   38.8530 H   0  0  0  0  0  0  0  0  0  0  0  0
  1  7  1  0  0  0  0
  1  2  1  0  0  0  0
  3  1  1  0  0  0  0
  4  5  1  0  0  0  0
  4 13  1  0  0  0  0
  5  9  1  0  0  0  0
  6  5  2  0  0  0  0
  7  8  1  0  0  0  0
  7  6  1  0  0  0  0
  8  4  2  0  0  0  0
 10  6  1  0  0  0  0
 11 17  1  0  0  0  0
 12 18  1  0  0  0  0
 12 11  2  0  0  0  0
 13 12  1  0  0  0  0
 14 13  2  0  0  0  0
 14 15  1  0  0  0  0
 15 16  2  0  0  0  0
 16 11  1  0  0  0  0
 19 15  1  0  0  0  0
 19 20  1  0  0  0  0
 21 20  2  0  0  0  0
 22 21  1  0  0  0  0
 23 22  2  0  0  0  0
 24 25  1  0  0  0  0
 24 22  1  0  0  0  0
 25 19  1  0  0  0  0
 26 25  2  0  0  0  0
 27 24  1  0  0  0  0
 28 30  1  0  0  0  0
 28  1  1  0  0  0  0
 29 28  1  0  0  0  0
 31 28  1  0  0  0  0
 32 31  1  0  0  0  0
 32 41  1  0  0  0  0
 33 32  2  0  0  0  0
 34 35  2  0  0  0  0
 34 33  1  0  0  0  0
 35 40  1  0  0  0  0
 36 37  2  0  0  0  0
 36 35  1  0  0  0  0
 37 38  1  0  0  0  0
 38 46  1  0  0  0  0
 38 39  2  0  0  0  0
 39 47  1  0  0  0  0
 40 39  1  0  0  0  0
 40 31  2  0  0  0  0
 42 33  1  0  0  0  0
 43 34  1  0  0  0  0
 44 36  1  0  0  0  0
 45 37  1  0  0  0  0
 47 48  1  0  0  0  0
M  END
>  <minimizedAffinity>
-6.91829491

>  <minimizedRMSD>
0.729250312

$$$$
