
 OpenBabel03242509093D

 39 43  0  0  1  0  0  0  0  0999 V2000
   36.4900   30.9440   41.2060 C   0  0  0  0  0  0  0  0  0  0  0  0
   36.8340   29.7200   41.8060 C   0  0  0  0  0  0  0  0  0  0  0  0
   38.0240   29.0910   41.4340 C   0  0  0  0  0  0  0  0  0  0  0  0
   38.7660   29.7270   40.5030 N   0  0  0  0  0  0  0  0  0  0  0  0
   38.4310   30.9020   39.9300 C   0  0  0  0  0  0  0  0  0  0  0  0
   37.2790   31.5160   40.2850 N   0  0  0  0  0  0  0  0  0  0  0  0
   35.5580   31.4360   41.4970 H   0  0  0  0  0  0  0  0  0  0  0  0
   36.1930   29.2420   42.5630 H   0  0  0  0  0  0  0  0  0  0  0  0
   38.3820   27.8340   42.0420 C   0  0  0  0  0  0  0  0  0  0  0  0
   39.2270   27.6130   43.1080 C   0  0  0  0  0  0  0  0  0  0  0  0
   39.2830   26.2810   43.3580 N   0  0  0  0  0  0  0  0  0  0  0  0
   38.4950   25.6100   42.4850 C   0  0  0  0  0  0  0  0  0  0  0  0
   38.1840   24.2670   42.2890 C   0  0  0  0  0  0  0  0  0  0  0  0
   37.3180   23.8590   41.2830 C   0  0  0  0  0  0  0  0  0  0  0  0
   36.7860   24.8480   40.4970 C   0  0  0  0  0  0  0  0  0  0  0  0
   37.0820   26.1690   40.6790 C   0  0  0  0  0  0  0  0  0  0  0  0
   37.9400   26.5760   41.6740 C   0  0  0  0  0  0  0  0  0  0  0  0
   39.7800   28.3410   43.6850 H   0  0  0  0  0  0  0  0  0  0  0  0
   39.8430   25.7940   44.1100 H   0  0  0  0  0  0  0  0  0  0  0  0
   38.6340   23.5100   42.9430 H   0  0  0  0  0  0  0  0  0  0  0  0
   37.0530   22.8390   41.0980 H   0  0  0  0  0  0  0  0  0  0  0  0
   36.1080   24.5630   39.7060 H   0  0  0  0  0  0  0  0  0  0  0  0
   36.6320   26.8970   40.0270 H   0  0  0  0  0  0  0  0  0  0  0  0
   39.3360   31.5290   38.9170 C   0  0  1  0  0  0  0  0  0  0  0  0
   39.8320   32.9350   39.1750 C   0  0  0  0  0  0  0  0  0  0  0  0
   40.7580   31.7720   39.2740 C   0  0  1  0  0  0  0  0  0  0  0  0
   39.0000   31.3040   37.8850 H   0  0  0  0  0  0  0  0  0  0  0  0
   39.9130   33.5520   38.2580 H   0  0  0  0  0  0  0  0  0  0  0  0
   39.4590   33.5030   40.0250 H   0  0  0  0  0  0  0  0  0  0  0  0
   41.4500   31.6210   38.3930 H   0  0  0  0  0  0  0  0  0  0  0  0
   41.3270   31.5020   40.5500 N   0  0  0  0  0  0  0  0  0  0  0  0
   41.5000   30.3110   41.1350 C   0  0  0  0  0  0  0  0  0  0  0  0
   42.0590   30.1530   42.3860 C   0  0  0  0  0  0  0  0  0  0  0  0
   42.4790   31.2760   43.1080 C   0  0  0  0  0  0  0  0  0  0  0  0
   42.9900   31.1480   44.2470 O   0  0  0  0  0  0  0  0  0  0  0  0
   42.3050   32.4730   42.5200 N   0  0  0  0  0  0  0  0  0  0  0  0
   41.7590   32.5520   41.3110 C   0  0  0  0  0  0  0  0  0  0  0  0
   41.6300   33.7270   40.8260 O   0  0  0  0  0  0  0  0  0  0  0  0
   42.6060   33.3320   43.0290 H   0  0  0  0  0  0  0  0  0  0  0  0
  1  7  1  0  0  0  0
  1  2  1  0  0  0  0
  2  8  1  0  0  0  0
  3  2  2  0  0  0  0
  3  9  1  0  0  0  0
  4  3  1  0  0  0  0
  5  6  1  0  0  0  0
  5  4  2  0  0  0  0
  6  1  2  0  0  0  0
  9 10  2  0  0  0  0
 10 11  1  0  0  0  0
 10 18  1  0  0  0  0
 11 19  1  0  0  0  0
 12 11  1  0  0  0  0
 13 12  1  0  0  0  0
 13 20  1  0  0  0  0
 14 13  2  0  0  0  0
 15 16  2  0  0  0  0
 15 14  1  0  0  0  0
 16 17  1  0  0  0  0
 17  9  1  0  0  0  0
 17 12  2  0  0  0  0
 21 14  1  0  0  0  0
 22 15  1  0  0  0  0
 23 16  1  0  0  0  0
 24 27  1  6  0  0  0
 24 25  1  0  0  0  0
 24 26  1  0  0  0  0
 24  5  1  0  0  0  0
 25 26  1  0  0  0  0
 25 29  1  0  0  0  0
 26 30  1  6  0  0  0
 26 31  1  0  0  0  0
 28 25  1  0  0  0  0
 31 32  1  0  0  0  0
 31 37  1  0  0  0  0
 32 33  2  0  0  0  0
 33 34  1  0  0  0  0
 34 35  2  0  0  0  0
 36 39  1  0  0  0  0
 36 34  1  0  0  0  0
 37 36  1  0  0  0  0
 38 37  2  0  0  0  0
M  END
>  <minimizedAffinity>
-6.02727985

>  <minimizedRMSD>
1.39042807

$$$$
