
 OpenBabel03242503363D

 42 45  0  0  1  0  0  0  0  0999 V2000
   38.7230   29.2500   42.2510 N   0  0  0  0  0  0  0  0  0  0  0  0
   37.9750   29.2170   43.3440 C   0  0  0  0  0  0  0  0  0  0  0  0
   37.1780   28.1450   43.6880 C   0  0  0  0  0  0  0  0  0  0  0  0
   37.1390   27.0230   42.8580 C   0  0  0  0  0  0  0  0  0  0  0  0
   36.4170   26.0460   43.1640 O   0  0  0  0  0  0  0  0  0  0  0  0
   37.9150   27.0830   41.7460 N   0  0  0  0  0  0  0  0  0  0  0  0
   38.6650   28.1580   41.4760 C   0  0  0  0  0  0  0  0  0  0  0  0
   39.3540   28.1140   40.4130 O   0  0  0  0  0  0  0  0  0  0  0  0
   37.9620   30.0560   44.0270 H   0  0  0  0  0  0  0  0  0  0  0  0
   36.5650   28.1130   44.5790 H   0  0  0  0  0  0  0  0  0  0  0  0
   37.8840   25.9390   40.8890 C   0  0  2  0  0  0  0  0  0  0  0  0
   36.6070   25.4860   40.3850 C   0  0  0  0  0  0  0  0  0  0  0  0
   36.8780   24.0290   39.9820 C   0  0  0  0  0  0  0  0  0  0  0  0
   37.7070   23.5390   41.1050 C   0  0  0  0  0  0  0  0  0  0  0  0
   38.5320   24.7150   41.5490 C   0  0  1  0  0  0  0  0  0  0  0  0
   38.5700   26.1360   40.0140 H   0  0  0  0  0  0  0  0  0  0  0  0
   35.6950   25.6000   40.9540 H   0  0  0  0  0  0  0  0  0  0  0  0
   36.4050   25.9940   39.3960 H   0  0  0  0  0  0  0  0  0  0  0  0
   37.3370   23.9530   38.9830 H   0  0  0  0  0  0  0  0  0  0  0  0
   35.8910   23.5060   39.9960 H   0  0  0  0  0  0  0  0  0  0  0  0
   37.0790   23.1610   41.9390 H   0  0  0  0  0  0  0  0  0  0  0  0
   38.4170   22.7510   40.7630 H   0  0  0  0  0  0  0  0  0  0  0  0
   38.4220   24.8610   42.6410 H   0  0  0  0  0  0  0  0  0  0  0  0
   39.9840   24.6040   41.2490 C   0  0  0  0  0  0  0  0  0  0  0  0
   40.2180   24.9470   40.2390 H   0  0  0  0  0  0  0  0  0  0  0  0
   40.5970   25.1750   41.9710 H   0  0  0  0  0  0  0  0  0  0  0  0
   40.2940   23.5500   41.3170 H   0  0  0  0  0  0  0  0  0  0  0  0
   39.5450   30.3490   41.8940 C   0  0  0  0  0  0  0  0  0  0  0  0
   40.9570   30.3500   41.9960 C   0  0  0  0  0  0  0  0  0  0  0  0
   41.6370   31.4920   41.6120 C   0  0  0  0  0  0  0  0  0  0  0  0
   40.9180   32.5410   41.1600 N   0  0  0  0  0  0  0  0  0  0  0  0
   39.5700   32.5250   41.0670 C   0  0  0  0  0  0  0  0  0  0  0  0
   38.9280   31.4220   41.4400 N   0  0  0  0  0  0  0  0  0  0  0  0
   41.4090   29.4650   42.3660 H   0  0  0  0  0  0  0  0  0  0  0  0
   42.7140   31.5030   41.6870 H   0  0  0  0  0  0  0  0  0  0  0  0
   38.8770   33.6260   40.5980 O   0  0  0  0  0  0  0  0  0  0  0  0
   39.5600   34.8570   40.6590 C   0  0  0  0  0  0  0  0  0  0  0  0
   38.8880   35.8470   39.9370 C   0  0  0  0  0  0  0  0  0  0  0  0
   39.6240   36.9890   40.0590 N   0  0  0  0  0  0  0  0  0  0  0  0
   40.7060   36.6980   40.8300 C   0  0  0  0  0  0  0  0  0  0  0  0
   40.6760   35.4120   41.1980 N   0  0  0  0  0  0  0  0  0  0  0  0
   41.2270   34.7330   41.7500 H   0  0  0  0  0  0  0  0  0  0  0  0
  1  2  1  0  0  0  0
  2  3  2  0  0  0  0
  2  9  1  0  0  0  0
  3 10  1  0  0  0  0
  4  5  2  0  0  0  0
  4  3  1  0  0  0  0
  6  4  1  0  0  0  0
  7  6  1  0  0  0  0
  7  1  1  0  0  0  0
  8  7  2  0  0  0  0
 11 16  1  6  0  0  0
 11 15  1  0  0  0  0
 11  6  1  0  0  0  0
 12 11  1  0  0  0  0
 12 17  1  0  0  0  0
 13 20  1  0  0  0  0
 13 12  1  0  0  0  0
 13 14  1  0  0  0  0
 14 15  1  0  0  0  0
 14 21  1  0  0  0  0
 15 23  1  1  0  0  0
 18 12  1  0  0  0  0
 19 13  1  0  0  0  0
 22 14  1  0  0  0  0
 24 27  1  0  0  0  0
 24 15  1  0  0  0  0
 24 26  1  0  0  0  0
 25 24  1  0  0  0  0
 28 29  1  0  0  0  0
 28  1  1  0  0  0  0
 29 34  1  0  0  0  0
 30 35  1  0  0  0  0
 30 29  2  0  0  0  0
 31 30  1  0  0  0  0
 32 31  2  0  0  0  0
 32 33  1  0  0  0  0
 33 28  2  0  0  0  0
 36 37  1  0  0  0  0
 36 32  1  0  0  0  0
 37 41  1  0  0  0  0
 38 39  1  0  0  0  0
 38 37  2  0  0  0  0
 39 40  2  0  0  0  0
 40 41  1  0  0  0  0
 41 42  1  0  0  0  0
M  END
>  <minimizedAffinity>
-6.13628578

>  <minimizedRMSD>
1.72955441

$$$$
