
 OpenBabel03242507563D

 26 28  0  0  0  0  0  0  0  0999 V2000
   37.1870   30.3800   40.3730 C   0  0  0  0  0  0  0  0  0  0  0  0
   37.2760   31.7450   40.5860 C   0  0  0  0  0  0  0  0  0  0  0  0
   37.2770   32.5610   39.4580 C   0  0  0  0  0  0  0  0  0  0  0  0
   37.1910   31.9790   38.2010 C   0  0  0  0  0  0  0  0  0  0  0  0
   37.1050   30.6290   38.0200 C   0  0  0  0  0  0  0  0  0  0  0  0
   37.1060   29.8550   39.1190 N   0  0  0  0  0  0  0  0  0  0  0  0
   37.3420   32.1680   41.5770 H   0  0  0  0  0  0  0  0  0  0  0  0
   37.3440   33.6250   39.5960 H   0  0  0  0  0  0  0  0  0  0  0  0
   37.1990   32.6860   37.3880 H   0  0  0  0  0  0  0  0  0  0  0  0
   38.0960   28.9200   43.6070 C   0  0  0  0  0  0  0  0  0  0  0  0
   37.2330   27.8180   43.7100 C   0  0  0  0  0  0  0  0  0  0  0  0
   36.3270   27.5720   42.6530 C   0  0  0  0  0  0  0  0  0  0  0  0
   36.3510   28.4300   41.5940 N   0  0  0  0  0  0  0  0  0  0  0  0
   37.1820   29.4680   41.5270 C   0  0  0  0  0  0  0  0  0  0  0  0
   38.0350   29.6900   42.5320 N   0  0  0  0  0  0  0  0  0  0  0  0
   38.8100   29.1590   44.3810 H   0  0  0  0  0  0  0  0  0  0  0  0
   37.2700   27.1780   44.5820 H   0  0  0  0  0  0  0  0  0  0  0  0
   35.6510   26.7290   42.7070 H   0  0  0  0  0  0  0  0  0  0  0  0
   36.9970   29.9370   36.3800 S   0  0  0  0  0  0  0  0  0  0  0  0
   37.7890   28.3360   36.3100 C   0  0  0  0  0  0  0  0  0  0  0  0
   39.0940   28.0230   36.6270 C   0  0  0  0  0  0  0  0  0  0  0  0
   39.5210   26.7160   36.5070 C   0  0  0  0  0  0  0  0  0  0  0  0
   40.5530   26.5200   36.7680 H   0  0  0  0  0  0  0  0  0  0  0  0
   38.6650   25.7700   36.0840 N   0  0  0  0  0  0  0  0  0  0  0  0
   37.3940   26.0820   35.7770 C   0  0  0  0  0  0  0  0  0  0  0  0
   36.9410   27.3580   35.8840 N   0  0  0  0  0  0  0  0  0  0  0  0
  1  2  1  0  0  0  0
  1 14  1  0  0  0  0
  2  7  1  0  0  0  0
  3  8  1  0  0  0  0
  3  2  2  0  0  0  0
  4  3  1  0  0  0  0
  5  4  2  0  0  0  0
  5  6  1  0  0  0  0
  6  1  2  0  0  0  0
  9  4  1  0  0  0  0
 10 11  1  0  0  0  0
 10 16  1  0  0  0  0
 11 17  1  0  0  0  0
 12 18  1  0  0  0  0
 12 11  2  0  0  0  0
 13 12  1  0  0  0  0
 14 13  2  0  0  0  0
 14 15  1  0  0  0  0
 15 10  2  0  0  0  0
 19  5  1  0  0  0  0
 20 19  1  0  0  0  0
 20 21  1  0  0  0  0
 22 21  2  0  0  0  0
 22 23  1  0  0  0  0
 24 22  1  0  0  0  0
 25 26  1  0  0  0  0
 25 24  2  0  0  0  0
 26 20  2  0  0  0  0
M  END
>  <minimizedAffinity>
-4.5287447

>  <minimizedRMSD>
3.20612192

$$$$
