
 OpenBabel03242509263D

 48 52  0  0  0  0  0  0  0  0999 V2000
   36.0660   30.0520   41.0570 C   0  0  0  0  0  0  0  0  0  0  0  0
   35.4370   30.5270   41.8580 H   0  0  0  0  0  0  0  0  0  0  0  0
   36.6270   30.8990   40.6000 H   0  0  0  0  0  0  0  0  0  0  0  0
   38.6210   28.2180   42.6290 C   0  0  0  0  0  0  0  0  0  0  0  0
   37.5550   27.3810   42.8040 C   0  0  0  0  0  0  0  0  0  0  0  0
   36.4550   28.0050   42.2100 C   0  0  0  0  0  0  0  0  0  0  0  0
   36.9470   29.1610   41.7310 N   0  0  0  0  0  0  0  0  0  0  0  0
   38.2080   29.3240   41.9530 N   0  0  0  0  0  0  0  0  0  0  0  0
   37.5940   26.4210   43.3120 H   0  0  0  0  0  0  0  0  0  0  0  0
   35.4670   27.5720   42.1940 H   0  0  0  0  0  0  0  0  0  0  0  0
   41.5810   26.8070   44.3950 C   0  0  0  0  0  0  0  0  0  0  0  0
   40.2530   26.9780   43.9900 C   0  0  0  0  0  0  0  0  0  0  0  0
   39.9800   28.0050   43.0720 C   0  0  0  0  0  0  0  0  0  0  0  0
   40.9840   28.7760   42.6210 N   0  0  0  0  0  0  0  0  0  0  0  0
   42.2720   28.5630   43.0530 C   0  0  0  0  0  0  0  0  0  0  0  0
   42.5530   27.5970   43.9220 N   0  0  0  0  0  0  0  0  0  0  0  0
   41.8680   26.0310   45.1030 H   0  0  0  0  0  0  0  0  0  0  0  0
   39.4820   26.3370   44.3780 H   0  0  0  0  0  0  0  0  0  0  0  0
   43.1890   29.4970   42.4480 N   0  0  0  0  0  0  0  0  0  0  0  0
   44.1620   29.1180   41.5960 C   0  0  0  0  0  3  0  0  0  0  0  0
   45.0050   30.0710   41.0540 C   0  0  0  0  0  3  0  0  0  0  0  0
   44.8010   31.3890   41.4230 C   0  0  0  0  0  0  0  0  0  0  0  0
   45.5230   32.3110   40.9740 O   0  0  0  0  0  0  0  0  0  0  0  0
   43.8040   31.6990   42.2830 N   0  0  0  0  0  0  0  0  0  0  0  0
   42.9780   30.7660   42.8140 C   0  0  0  0  0  0  0  0  0  0  0  0
   42.0950   31.1740   43.5980 O   0  0  0  0  0  0  0  0  0  0  0  0
   43.6730   32.7140   42.5450 H   0  0  0  0  0  0  0  0  0  0  0  0
   35.2050   29.4420   39.9970 C   0  0  0  0  0  0  0  0  0  0  0  0
   34.4600   30.2970   39.8610 H   0  0  0  0  0  0  0  0  0  0  0  0
   34.7690   28.5250   40.3680 H   0  0  0  0  0  0  0  0  0  0  0  0
   35.8340   29.3700   38.6570 C   0  0  0  0  0  0  0  0  0  0  0  0
   37.1550   29.4900   38.3440 C   0  0  0  0  0  0  0  0  0  0  0  0
   37.6900   29.4970   37.0920 C   0  0  0  0  0  0  0  0  0  0  0  0
   36.8440   29.3740   36.0010 C   0  0  0  0  0  0  0  0  0  0  0  0
   35.4840   29.2460   36.2480 C   0  0  0  0  0  0  0  0  0  0  0  0
   34.7130   29.1300   35.1220 C   0  0  0  0  0  0  0  0  0  0  0  0
   33.3550   28.9920   35.2570 C   0  0  0  0  0  0  0  0  0  0  0  0
   32.8020   28.9740   36.5260 C   0  0  0  0  0  0  0  0  0  0  0  0
   33.6370   29.0950   37.5960 C   0  0  0  0  0  0  0  0  0  0  0  0
   34.9860   29.2410   37.5410 C   0  0  0  0  0  0  0  0  0  0  0  0
   37.8280   29.5880   39.1960 H   0  0  0  0  0  0  0  0  0  0  0  0
   38.7610   29.5980   36.9850 H   0  0  0  0  0  0  0  0  0  0  0  0
   37.2860   29.3840   35.0260 H   0  0  0  0  0  0  0  0  0  0  0  0
   35.1130   29.1380   34.1180 H   0  0  0  0  0  0  0  0  0  0  0  0
   32.7280   28.9010   34.3790 H   0  0  0  0  0  0  0  0  0  0  0  0
   31.7390   28.8640   36.6180 H   0  0  0  0  0  0  0  0  0  0  0  0
   33.0180   29.0510   38.8380 O   0  0  0  0  0  0  0  0  0  0  0  0
   32.4950   28.2210   39.0720 H   0  0  0  0  0  0  0  0  0  0  0  0
  1  7  1  0  0  0  0
  1  2  1  0  0  0  0
  3  1  1  0  0  0  0
  4  5  1  0  0  0  0
  4 13  1  0  0  0  0
  5  9  1  0  0  0  0
  6  5  2  0  0  0  0
  7  8  1  0  0  0  0
  7  6  1  0  0  0  0
  8  4  2  0  0  0  0
 10  6  1  0  0  0  0
 11 17  1  0  0  0  0
 12 18  1  0  0  0  0
 12 11  1  0  0  0  0
 13 12  2  0  0  0  0
 14 15  2  0  0  0  0
 14 13  1  0  0  0  0
 15 16  1  0  0  0  0
 16 11  2  0  0  0  0
 19 25  1  0  0  0  0
 19 15  1  0  0  0  0
 20 19  1  0  0  0  0
 21 22  1  0  0  0  0
 21 20  2  0  0  0  0
 22 24  1  0  0  0  0
 23 22  2  0  0  0  0
 24 27  1  0  0  0  0
 24 25  1  0  0  0  0
 25 26  2  0  0  0  0
 28 30  1  0  0  0  0
 28  1  1  0  0  0  0
 29 28  1  0  0  0  0
 31 28  1  0  0  0  0
 32 31  1  0  0  0  0
 32 41  1  0  0  0  0
 33 32  2  0  0  0  0
 34 35  2  0  0  0  0
 34 33  1  0  0  0  0
 35 40  1  0  0  0  0
 36 37  2  0  0  0  0
 36 35  1  0  0  0  0
 37 38  1  0  0  0  0
 38 46  1  0  0  0  0
 38 39  2  0  0  0  0
 39 47  1  0  0  0  0
 40 39  1  0  0  0  0
 40 31  2  0  0  0  0
 42 33  1  0  0  0  0
 43 34  1  0  0  0  0
 44 36  1  0  0  0  0
 45 37  1  0  0  0  0
 47 48  1  0  0  0  0
M  END
>  <minimizedAffinity>
-6.28940964

>  <minimizedRMSD>
0.379940152

$$$$
