
 OpenBabel03242507493D

 40 44  0  0  1  0  0  0  0  0999 V2000
   39.9180   26.2200   43.6510 C   0  0  2  0  0  0  0  0  0  0  0  0
   40.9410   25.7650   42.5990 C   0  0  0  0  0  0  0  0  0  0  0  0
   39.7240   24.9540   42.8680 C   0  0  2  0  0  0  0  0  0  0  0  0
   40.2470   26.1380   44.7130 H   0  0  0  0  0  0  0  0  0  0  0  0
   41.9170   25.3880   43.0160 H   0  0  0  0  0  0  0  0  0  0  0  0
   40.9900   26.3730   41.6670 H   0  0  0  0  0  0  0  0  0  0  0  0
   39.7960   24.0540   43.5050 H   0  0  0  0  0  0  0  0  0  0  0  0
   38.6130   24.8710   41.8820 C   0  0  0  0  0  0  0  0  0  0  0  0
   37.5320   24.0480   42.1500 C   0  0  0  0  0  0  0  0  0  0  0  0
   36.5880   24.0430   41.1550 C   0  0  0  0  0  0  0  0  0  0  0  0
   36.6200   24.7300   40.0050 N   0  0  0  0  0  0  0  0  0  0  0  0
   37.6990   25.5180   39.7970 C   0  0  0  0  0  0  0  0  0  0  0  0
   38.6680   25.5760   40.7270 N   0  0  0  0  0  0  0  0  0  0  0  0
   37.4270   23.4600   43.0500 H   0  0  0  0  0  0  0  0  0  0  0  0
   35.6950   23.4150   41.2860 H   0  0  0  0  0  0  0  0  0  0  0  0
   37.7390   26.2510   38.5780 N   0  0  0  0  0  0  0  0  0  0  0  0
   38.5860   25.8870   37.5980 C   0  0  0  0  0  0  0  0  0  0  0  0
   38.5910   26.6360   36.4160 C   0  0  0  0  0  0  0  0  0  0  0  0
   37.7140   27.7160   36.3320 C   0  0  0  0  0  0  0  0  0  0  0  0
   37.7120   28.4040   35.2590 O   0  0  0  0  0  0  0  0  0  0  0  0
   36.8950   28.0200   37.3550 N   0  0  0  0  0  0  0  0  0  0  0  0
   36.8910   27.2890   38.5070 C   0  0  0  0  0  0  0  0  0  0  0  0
   36.1020   27.6340   39.4100 O   0  0  0  0  0  0  0  0  0  0  0  0
   36.2620   28.8550   37.2090 H   0  0  0  0  0  0  0  0  0  0  0  0
   38.4730   29.2870   42.4860 C   0  0  0  0  0  0  0  0  0  0  0  0
   37.4940   28.8670   43.4010 C   0  0  0  0  0  0  0  0  0  0  0  0
   37.9550   27.6690   43.9200 C   0  0  0  0  0  0  0  0  0  0  0  0
   39.1380   27.4040   43.3410 N   0  0  0  0  0  0  0  0  0  0  0  0
   39.4570   28.3710   42.4780 N   0  0  0  0  0  0  0  0  0  0  0  0
   36.5610   29.3120   43.6970 H   0  0  0  0  0  0  0  0  0  0  0  0
   37.4430   27.0590   44.6650 H   0  0  0  0  0  0  0  0  0  0  0  0
   36.9830   31.8950   40.3920 C   0  0  0  0  0  0  0  0  0  0  0  0
   37.9980   32.8720   40.3310 C   0  0  0  0  0  0  0  0  0  0  0  0
   39.1960   32.6150   41.0200 C   0  0  0  0  0  0  0  0  0  0  0  0
   39.3240   31.4520   41.7070 N   0  0  0  0  0  0  0  0  0  0  0  0
   38.3150   30.5300   41.7420 C   0  0  0  0  0  0  0  0  0  0  0  0
   37.1350   30.7560   41.0780 N   0  0  0  0  0  0  0  0  0  0  0  0
   36.0880   32.1640   39.8370 H   0  0  0  0  0  0  0  0  0  0  0  0
   37.9400   33.7980   39.8040 H   0  0  0  0  0  0  0  0  0  0  0  0
   40.0450   33.2860   41.0470 H   0  0  0  0  0  0  0  0  0  0  0  0
  1  4  1  1  0  0  0
  2  3  1  0  0  0  0
  2  5  1  0  0  0  0
  2  1  1  0  0  0  0
  3  7  1  1  0  0  0
  3  1  1  0  0  0  0
  6  2  1  0  0  0  0
  8  9  1  0  0  0  0
  8  3  1  0  0  0  0
  9 14  1  0  0  0  0
 10 15  1  0  0  0  0
 10  9  2  0  0  0  0
 11 10  1  0  0  0  0
 12 11  2  0  0  0  0
 12 13  1  0  0  0  0
 13  8  2  0  0  0  0
 16 12  1  0  0  0  0
 17 16  1  0  0  0  0
 18 17  2  0  0  0  0
 19 18  1  0  0  0  0
 19 21  1  0  0  0  0
 20 19  2  0  0  0  0
 21 22  1  0  0  0  0
 22 16  1  0  0  0  0
 22 23  2  0  0  0  0
 24 21  1  0  0  0  0
 25 26  1  0  0  0  0
 26 30  1  0  0  0  0
 26 27  2  0  0  0  0
 27 31  1  0  0  0  0
 28  1  1  0  0  0  0
 28 27  1  0  0  0  0
 29 25  2  0  0  0  0
 29 28  1  0  0  0  0
 32 37  1  0  0  0  0
 33 32  2  0  0  0  0
 33 34  1  0  0  0  0
 34 40  1  0  0  0  0
 34 35  2  0  0  0  0
 35 36  1  0  0  0  0
 36 25  1  0  0  0  0
 37 36  2  0  0  0  0
 38 32  1  0  0  0  0
 39 33  1  0  0  0  0
M  END
>  <minimizedAffinity>
-6.11585283

>  <minimizedRMSD>
0.962021172

$$$$
