
 OpenBabel03242509303D

 21 22  0  0  0  0  0  0  0  0999 V2000
   37.6000   28.5500   43.7100 C   0  0  0  0  0  0  0  0  0  0  0  0
   38.1880   27.2660   43.8140 C   0  0  0  0  0  0  0  0  0  0  0  0
   38.4400   26.5630   42.6240 C   0  0  0  0  0  0  0  0  0  0  0  0
   38.1010   27.1620   41.4260 N   0  0  0  0  0  0  0  0  0  0  0  0
   37.5430   28.3870   41.3900 C   0  0  0  0  0  0  0  0  0  0  0  0
   37.3030   29.0570   42.5130 N   0  0  0  0  0  0  0  0  0  0  0  0
   37.3830   29.1370   44.5900 H   0  0  0  0  0  0  0  0  0  0  0  0
   38.4230   26.8700   44.7930 H   0  0  0  0  0  0  0  0  0  0  0  0
   37.2240   28.9300   40.1060 N   0  0  0  0  0  0  0  0  0  0  0  0
   36.0950   29.4870   39.6630 C   0  0  0  0  0  3  0  0  0  0  0  0
   36.0350   29.9420   38.3630 C   0  0  0  0  0  3  0  0  0  0  0  0
   37.1060   29.8390   37.5090 C   0  0  0  0  0  0  0  0  0  0  0  0
   37.0100   30.2680   36.3250 O   0  0  0  0  0  0  0  0  0  0  0  0
   38.2360   29.2670   37.9980 N   0  0  0  0  0  0  0  0  0  0  0  0
   38.2970   28.8170   39.2810 C   0  0  0  0  0  0  0  0  0  0  0  0
   39.4280   28.3180   39.5510 O   0  0  0  0  0  0  0  0  0  0  0  0
   39.0210   29.2110   37.3130 H   0  0  0  0  0  0  0  0  0  0  0  0
   39.0540   25.2180   42.6930 C   0  0  0  0  0  0  0  0  0  0  0  0
   39.8910   25.1170   41.6050 F   0  0  0  0  0  0  0  0  0  0  0  0
   39.8070   25.0410   43.8310 F   0  0  0  0  0  0  0  0  0  0  0  0
   38.0850   24.2080   42.6200 F   0  0  0  0  0  0  0  0  0  0  0  0
  1  2  1  0  0  0  0
  1  7  1  0  0  0  0
  2  8  1  0  0  0  0
  3 18  1  0  0  0  0
  3  2  2  0  0  0  0
  4  3  1  0  0  0  0
  5  4  2  0  0  0  0
  5  6  1  0  0  0  0
  6  1  2  0  0  0  0
  9  5  1  0  0  0  0
 10  9  1  0  0  0  0
 11 10  2  0  0  0  0
 12 14  1  0  0  0  0
 12 11  1  0  0  0  0
 13 12  2  0  0  0  0
 14 15  1  0  0  0  0
 15 16  2  0  0  0  0
 15  9  1  0  0  0  0
 17 14  1  0  0  0  0
 18 20  1  0  0  0  0
 19 18  1  0  0  0  0
 21 18  1  0  0  0  0
M  END
>  <minimizedAffinity>
-4.65905666

>  <minimizedRMSD>
1.87106764

$$$$
