
 OpenBabel03242509303D

 21 22  0  0  0  0  0  0  0  0999 V2000
   37.7730   28.5580   43.5790 C   0  0  0  0  0  0  0  0  0  0  0  0
   38.3510   27.2720   43.7210 C   0  0  0  0  0  0  0  0  0  0  0  0
   38.4050   26.4500   42.5830 C   0  0  0  0  0  0  0  0  0  0  0  0
   37.8940   26.9400   41.3970 N   0  0  0  0  0  0  0  0  0  0  0  0
   37.3560   28.1720   41.3230 C   0  0  0  0  0  0  0  0  0  0  0  0
   37.3020   28.9550   42.3970 N   0  0  0  0  0  0  0  0  0  0  0  0
   37.7050   29.2340   44.4180 H   0  0  0  0  0  0  0  0  0  0  0  0
   38.7280   26.9660   44.6870 H   0  0  0  0  0  0  0  0  0  0  0  0
   36.8500   28.5980   40.0540 N   0  0  0  0  0  0  0  0  0  0  0  0
   35.8050   29.3740   39.7610 C   0  0  0  0  0  3  0  0  0  0  0  0
   35.5190   29.6420   38.4400 C   0  0  0  0  0  3  0  0  0  0  0  0
   36.2790   29.1340   37.4150 C   0  0  0  0  0  0  0  0  0  0  0  0
   35.9820   29.4050   36.2170 O   0  0  0  0  0  0  0  0  0  0  0  0
   37.3330   28.3490   37.7560 N   0  0  0  0  0  0  0  0  0  0  0  0
   37.6180   28.0840   39.0600 C   0  0  0  0  0  0  0  0  0  0  0  0
   38.6340   27.3370   39.1760 O   0  0  0  0  0  0  0  0  0  0  0  0
   37.8810   27.9870   36.9450 H   0  0  0  0  0  0  0  0  0  0  0  0
   39.0020   25.1000   42.6920 C   0  0  0  0  0  0  0  0  0  0  0  0
   39.8200   24.9460   41.5960 F   0  0  0  0  0  0  0  0  0  0  0  0
   39.7700   24.9540   43.8240 F   0  0  0  0  0  0  0  0  0  0  0  0
   38.0180   24.1020   42.6720 F   0  0  0  0  0  0  0  0  0  0  0  0
  1  2  1  0  0  0  0
  1  7  1  0  0  0  0
  2  8  1  0  0  0  0
  3 18  1  0  0  0  0
  3  2  2  0  0  0  0
  4  3  1  0  0  0  0
  5  4  2  0  0  0  0
  5  6  1  0  0  0  0
  6  1  2  0  0  0  0
  9  5  1  0  0  0  0
 10  9  1  0  0  0  0
 11 10  2  0  0  0  0
 12 14  1  0  0  0  0
 12 11  1  0  0  0  0
 13 12  2  0  0  0  0
 14 15  1  0  0  0  0
 15 16  2  0  0  0  0
 15  9  1  0  0  0  0
 17 14  1  0  0  0  0
 18 20  1  0  0  0  0
 19 18  1  0  0  0  0
 21 18  1  0  0  0  0
M  END
>  <minimizedAffinity>
-4.54358482

>  <minimizedRMSD>
1.72564375

$$$$
