
 OpenBabel03242509313D

 22 23  0  0  0  0  0  0  0  0999 V2000
   38.3830   24.5380   42.1010 C   0  0  0  0  0  0  0  0  0  0  0  0
   37.5740   23.6560   41.3490 C   0  0  0  0  0  0  0  0  0  0  0  0
   36.6090   24.2360   40.5180 C   0  0  0  0  0  0  0  0  0  0  0  0
   36.5030   25.6050   40.4810 N   0  0  0  0  0  0  0  0  0  0  0  0
   37.2950   26.3960   41.2140 C   0  0  0  0  0  0  0  0  0  0  0  0
   38.2240   25.8680   42.0140 N   0  0  0  0  0  0  0  0  0  0  0  0
   39.1460   24.1330   42.7590 H   0  0  0  0  0  0  0  0  0  0  0  0
   37.7060   22.5900   41.4220 H   0  0  0  0  0  0  0  0  0  0  0  0
   37.0110   27.7800   41.0190 N   0  0  0  0  0  0  0  0  0  0  0  0
   37.4520   28.5610   42.0340 C   0  0  0  0  0  3  0  0  0  0  0  0
   37.2490   29.9310   41.9870 C   0  0  0  0  0  3  0  0  0  0  0  0
   36.5900   30.4050   40.8690 C   0  0  0  0  0  0  0  0  0  0  0  0
   36.3570   31.8200   40.7790 N   0  0  0  0  0  0  0  0  0  0  0  0
   36.1650   29.5940   39.8790 N   0  0  0  0  0  0  0  0  0  0  0  0
   36.3800   28.2620   39.9550 C   0  0  0  0  0  0  0  0  0  0  0  0
   36.0190   27.4410   39.0810 O   0  0  0  0  0  0  0  0  0  0  0  0
   35.4420   32.0950   40.3980 H   0  0  0  0  0  0  0  0  0  0  0  0
   36.9600   32.6090   41.0350 H   0  0  0  0  0  0  0  0  0  0  0  0
   35.7250   23.3480   39.7010 C   0  0  0  0  0  0  0  0  0  0  0  0
   35.5360   23.9970   38.5000 F   0  0  0  0  0  0  0  0  0  0  0  0
   36.3080   22.1320   39.4480 F   0  0  0  0  0  0  0  0  0  0  0  0
   34.4900   23.1430   40.3150 F   0  0  0  0  0  0  0  0  0  0  0  0
  1  7  1  0  0  0  0
  2  8  1  0  0  0  0
  2  1  2  0  0  0  0
  3  2  1  0  0  0  0
  4  3  2  0  0  0  0
  4  5  1  0  0  0  0
  5  6  2  0  0  0  0
  6  1  1  0  0  0  0
  9  5  1  0  0  0  0
  9 10  1  0  0  0  0
 11 10  2  0  0  0  0
 12 11  1  0  0  0  0
 13 12  1  0  0  0  0
 13 18  1  0  0  0  0
 14 15  1  0  0  0  0
 14 12  2  0  0  0  0
 15  9  1  0  0  0  0
 16 15  2  0  0  0  0
 17 13  1  0  0  0  0
 19 22  1  0  0  0  0
 19  3  1  0  0  0  0
 20 19  1  0  0  0  0
 21 19  1  0  0  0  0
M  END
>  <minimizedAffinity>
-4.77140045

>  <minimizedRMSD>
3.31518269

$$$$
