
 OpenBabel03242504253D

 25 27  0  0  0  0  0  0  0  0999 V2000
   37.3610   32.6170   39.9000 C   0  0  0  0  0  0  0  0  0  0  0  0
   36.8660   33.6230   39.9740 H   0  0  0  0  0  0  0  0  0  0  0  0
   37.2620   32.2860   38.8710 H   0  0  0  0  0  0  0  0  0  0  0  0
   38.7850   32.9590   40.1290 N   0  0  0  0  0  0  0  0  0  0  0  0
   39.8290   32.1110   40.3460 C   0  0  0  0  0  0  0  0  0  0  0  0
   40.9470   32.8430   40.5060 N   0  0  0  0  0  0  0  0  0  0  0  0
   40.6360   34.1540   40.3930 C   0  0  0  0  0  0  0  0  0  0  0  0
   41.4350   35.2830   40.4790 C   0  0  0  0  0  0  0  0  0  0  0  0
   42.4870   35.1390   40.6670 H   0  0  0  0  0  0  0  0  0  0  0  0
   40.8340   36.4880   40.3220 N   0  0  0  0  0  0  0  0  0  0  0  0
   39.4940   36.5750   40.0880 C   0  0  0  0  0  0  0  0  0  0  0  0
   38.7370   35.4490   40.0090 N   0  0  0  0  0  0  0  0  0  0  0  0
   39.2730   34.2240   40.1570 C   0  0  0  0  0  0  0  0  0  0  0  0
   37.0340   31.7580   40.9310 O   0  0  0  0  0  0  0  0  0  0  0  0
   36.4930   30.4900   40.7360 C   0  0  0  0  0  0  0  0  0  0  0  0
   35.6680   30.2860   39.8240 O   0  0  0  0  0  0  0  0  0  0  0  0
   38.1060   29.7040   42.5180 C   0  0  0  0  0  0  0  0  0  0  0  0
   36.9870   29.4750   41.6860 C   0  0  0  0  0  0  0  0  0  0  0  0
   36.3180   28.2590   41.7440 C   0  0  0  0  0  0  0  0  0  0  0  0
   36.8080   27.3520   42.6290 N   0  0  0  0  0  0  0  0  0  0  0  0
   37.8710   27.5700   43.4190 C   0  0  0  0  0  0  0  0  0  0  0  0
   38.5150   28.7530   43.3570 N   0  0  0  0  0  0  0  0  0  0  0  0
   38.6010   30.6610   42.4450 H   0  0  0  0  0  0  0  0  0  0  0  0
   35.4570   28.0190   41.1370 H   0  0  0  0  0  0  0  0  0  0  0  0
   38.1600   26.7640   44.0800 H   0  0  0  0  0  0  0  0  0  0  0  0
  1  2  1  0  0  0  0
  1  4  1  0  0  0  0
  1 14  1  0  0  0  0
  3  1  1  0  0  0  0
  4 13  1  0  0  0  0
  4  5  1  0  0  0  0
  5  6  2  0  0  0  0
  7  8  1  0  0  0  0
  7  6  1  0  0  0  0
  8  9  1  0  0  0  0
 10  8  2  0  0  0  0
 11 10  1  0  0  0  0
 12 11  2  0  0  0  0
 12 13  1  0  0  0  0
 13  7  2  0  0  0  0
 15 14  1  0  0  0  0
 15 18  1  0  0  0  0
 16 15  2  0  0  0  0
 17 22  1  0  0  0  0
 18 19  1  0  0  0  0
 18 17  2  0  0  0  0
 19 20  2  0  0  0  0
 20 21  1  0  0  0  0
 21 25  1  0  0  0  0
 22 21  2  0  0  0  0
 23 17  1  0  0  0  0
 24 19  1  0  0  0  0
M  END
>  <minimizedAffinity>
-5.09366989

>  <minimizedRMSD>
2.56181598

$$$$
