
 OpenBabel03242505293D

 28 29  0  0  0  0  0  0  0  0999 V2000
   38.8690   30.7650   41.7290 C   0  0  0  0  0  0  0  0  0  0  0  0
   38.6020   29.5890   42.4650 C   0  0  0  0  0  0  0  0  0  0  0  0
   37.2910   29.0430   42.3720 C   0  0  0  0  0  0  0  0  0  0  0  0
   36.3760   29.6860   41.5810 N   0  0  0  0  0  0  0  0  0  0  0  0
   36.6780   30.8030   40.9000 C   0  0  0  0  0  0  0  0  0  0  0  0
   37.8980   31.3370   40.9680 N   0  0  0  0  0  0  0  0  0  0  0  0
   39.3590   29.1170   43.0770 H   0  0  0  0  0  0  0  0  0  0  0  0
   35.9710   31.3240   40.2710 H   0  0  0  0  0  0  0  0  0  0  0  0
   40.1610   31.3550   41.7840 N   0  0  0  0  0  0  0  0  0  0  0  0
   40.9240   30.9140   42.8150 C   0  0  0  0  0  0  0  0  0  0  0  0
   42.2150   31.4120   42.9840 C   0  0  0  0  0  0  0  0  0  0  0  0
   42.7090   32.3630   42.0890 C   0  0  0  0  0  0  0  0  0  0  0  0
   44.0340   32.8520   42.2920 N   0  0  0  0  0  0  0  0  0  0  0  0
   41.8980   32.7660   41.0750 N   0  0  0  0  0  0  0  0  0  0  0  0
   40.6580   32.2720   40.9330 C   0  0  0  0  0  0  0  0  0  0  0  0
   39.9020   32.6360   40.0030 O   0  0  0  0  0  0  0  0  0  0  0  0
   44.9770   32.4030   42.1290 H   0  0  0  0  0  0  0  0  0  0  0  0
   43.9880   33.8420   42.6740 H   0  0  0  0  0  0  0  0  0  0  0  0
   36.9520   27.8030   43.1210 C   0  0  0  0  0  0  0  0  0  0  0  0
   36.0220   27.3940   42.6700 H   0  0  0  0  0  0  0  0  0  0  0  0
   36.7670   28.0560   44.5950 C   0  0  0  0  0  0  0  0  0  0  0  0
   37.7880   28.2210   45.0160 H   0  0  0  0  0  0  0  0  0  0  0  0
   36.3190   27.1410   45.0340 H   0  0  0  0  0  0  0  0  0  0  0  0
   36.1670   28.9530   44.7250 H   0  0  0  0  0  0  0  0  0  0  0  0
   38.1100   26.8050   42.8710 C   0  0  0  0  0  0  0  0  0  0  0  0
   39.0760   27.3180   42.9170 H   0  0  0  0  0  0  0  0  0  0  0  0
   37.9790   25.9810   43.5960 H   0  0  0  0  0  0  0  0  0  0  0  0
   37.8990   26.3890   41.8630 H   0  0  0  0  0  0  0  0  0  0  0  0
  1  9  1  0  0  0  0
  1  2  1  0  0  0  0
  2  7  1  0  0  0  0
  3  2  2  0  0  0  0
  3 19  1  0  0  0  0
  4  3  1  0  0  0  0
  5  6  1  0  0  0  0
  5  4  2  0  0  0  0
  6  1  2  0  0  0  0
  8  5  1  0  0  0  0
  9 10  1  0  0  0  0
 10 11  2  0  0  0  0
 12 13  1  0  0  0  0
 12 11  1  0  0  0  0
 13 18  1  0  0  0  0
 14 12  2  0  0  0  0
 15 14  1  0  0  0  0
 15  9  1  0  0  0  0
 16 15  2  0  0  0  0
 17 13  1  0  0  0  0
 19 21  1  0  0  0  0
 20 19  1  0  0  0  0
 21 24  1  0  0  0  0
 21 22  1  0  0  0  0
 21 23  1  0  0  0  0
 25 26  1  0  0  0  0
 25 19  1  0  0  0  0
 25 27  1  0  0  0  0
 28 25  1  0  0  0  0
M  END
>  <minimizedAffinity>
-4.78149223

>  <minimizedRMSD>
1.28431308

$$$$
