
 OpenBabel03242506153D

 30 33  0  0  0  0  0  0  0  0999 V2000
   37.0140   30.1140   41.4990 C   0  0  0  0  0  0  0  0  0  0  0  0
   38.3700   29.8440   41.1420 C   0  0  0  0  0  0  0  0  0  0  0  0
   39.0310   30.6560   40.2670 C   0  0  0  0  0  0  0  0  0  0  0  0
   38.3200   31.7280   39.7610 N   0  0  0  0  0  0  0  0  0  0  0  0
   37.0250   31.9720   40.1100 C   0  0  0  0  0  0  0  0  0  0  0  0
   36.3650   31.1670   40.9830 N   0  0  0  0  0  0  0  0  0  0  0  0
   36.5130   29.4600   42.1940 H   0  0  0  0  0  0  0  0  0  0  0  0
   36.5190   32.8250   39.6820 H   0  0  0  0  0  0  0  0  0  0  0  0
   40.4120   30.5320   39.8490 C   0  0  0  0  0  0  0  0  0  0  0  0
   41.3070   29.6570   39.4550 N   0  0  0  0  0  0  0  0  0  0  0  0
   42.4440   30.1870   39.2180 O   0  0  0  0  0  0  0  0  0  0  0  0
   42.4180   31.4630   39.4300 C   0  0  0  0  0  0  0  0  0  0  0  0
   41.1710   31.6490   39.8140 N   0  0  0  0  0  0  0  0  0  0  0  0
   43.4180   32.4680   39.3080 N   0  0  0  0  0  0  0  0  0  0  0  0
   43.9330   33.1740   40.3480 C   0  0  0  0  0  0  0  0  0  0  0  0
   44.9030   34.1380   40.1610 C   0  0  0  0  0  0  0  0  0  0  0  0
   45.3780   34.4060   38.8800 C   0  0  0  0  0  0  0  0  0  0  0  0
   46.3800   35.4050   38.7160 N   0  0  0  0  0  0  0  0  0  0  0  0
   44.8640   33.7060   37.8670 N   0  0  0  0  0  0  0  0  0  0  0  0
   43.9050   32.7550   38.0650 C   0  0  0  0  0  0  0  0  0  0  0  0
   43.4370   32.1100   37.0940 O   0  0  0  0  0  0  0  0  0  0  0  0
   46.4240   36.1510   37.9630 H   0  0  0  0  0  0  0  0  0  0  0  0
   47.1880   35.4680   39.3750 H   0  0  0  0  0  0  0  0  0  0  0  0
   38.9470   28.6470   41.7340 C   0  0  0  0  0  0  0  0  0  0  0  0
   38.7410   27.3830   41.0880 C   0  0  0  0  0  0  0  0  0  0  0  0
   39.6250   26.1710   42.1620 S   0  0  0  0  0  0  0  0  0  0  0  0
   40.1280   27.6360   43.3260 C   0  0  0  0  0  0  0  0  0  0  0  0
   39.6680   28.5270   42.8340 N   0  0  0  0  0  0  0  0  0  0  0  0
   38.1910   27.1950   40.1770 H   0  0  0  0  0  0  0  0  0  0  0  0
   40.7480   27.6990   44.3150 H   0  0  0  0  0  0  0  0  0  0  0  0
  1  7  1  0  0  0  0
  2  1  1  0  0  0  0
  2 24  1  0  0  0  0
  3  2  2  0  0  0  0
  4  5  2  0  0  0  0
  4  3  1  0  0  0  0
  5  6  1  0  0  0  0
  6  1  2  0  0  0  0
  8  5  1  0  0  0  0
  9  3  1  0  0  0  0
 10  9  2  0  0  0  0
 11 12  1  0  0  0  0
 11 10  1  0  0  0  0
 12 13  2  0  0  0  0
 13  9  1  0  0  0  0
 14 12  1  0  0  0  0
 14 15  1  0  0  0  0
 16 15  2  0  0  0  0
 17 16  1  0  0  0  0
 18 17  1  0  0  0  0
 18 23  1  0  0  0  0
 19 20  1  0  0  0  0
 19 17  2  0  0  0  0
 20 14  1  0  0  0  0
 21 20  2  0  0  0  0
 22 18  1  0  0  0  0
 24 28  1  0  0  0  0
 25 24  2  0  0  0  0
 25 26  1  0  0  0  0
 26 27  1  0  0  0  0
 27 30  1  0  0  0  0
 28 27  2  0  0  0  0
 29 25  1  0  0  0  0
M  END
>  <minimizedAffinity>
-5.36348486

>  <minimizedRMSD>
1.89174926

$$$$
