
 OpenBabel03242508513D

 33 37  0  0  0  0  0  0  0  0999 V2000
   39.7540   30.7680   41.5710 C   0  0  0  0  0  0  0  0  0  0  0  0
   41.0800   31.2100   41.6110 C   0  0  0  0  0  0  0  0  0  0  0  0
   41.1010   32.4160   41.0610 N   0  0  0  0  0  0  0  0  0  0  0  0
   39.8780   32.8090   40.6570 C   0  0  0  0  0  0  0  0  0  0  0  0
   39.4700   33.9800   40.0440 C   0  0  0  0  0  0  0  0  0  0  0  0
   38.1160   34.1090   39.7370 C   0  0  0  0  0  0  0  0  0  0  0  0
   37.2280   33.0940   40.0400 C   0  0  0  0  0  0  0  0  0  0  0  0
   37.6430   31.9240   40.6540 C   0  0  0  0  0  0  0  0  0  0  0  0
   39.0040   31.7740   40.9720 C   0  0  0  0  0  0  0  0  0  0  0  0
   41.8840   30.6120   42.0330 H   0  0  0  0  0  0  0  0  0  0  0  0
   40.1530   34.7830   39.8000 H   0  0  0  0  0  0  0  0  0  0  0  0
   37.7450   35.0110   39.2560 H   0  0  0  0  0  0  0  0  0  0  0  0
   36.1670   33.1320   39.8290 H   0  0  0  0  0  0  0  0  0  0  0  0
   36.9510   31.1090   40.9020 H   0  0  0  0  0  0  0  0  0  0  0  0
   45.2790   34.9780   38.2200 H   0  0  0  0  0  0  0  0  0  0  0  0
   44.4090   34.4470   38.4930 N   0  0  0  0  0  0  0  0  0  0  0  0
   43.4810   33.8900   37.7160 C   0  0  0  0  0  0  0  0  0  0  0  0
   42.5460   33.3150   38.5260 N   0  0  0  0  0  0  0  0  0  0  0  0
   42.9330   33.5400   39.7730 C   0  0  0  0  0  0  0  0  0  0  0  0
   42.3150   33.1540   40.9440 C   0  0  0  0  0  0  0  0  0  0  0  0
   42.9100   33.5060   42.1190 N   0  0  0  0  0  0  0  0  0  0  0  0
   44.0580   34.2030   42.1340 C   0  0  0  0  0  0  0  0  0  0  0  0
   44.6810   34.5900   40.9840 N   0  0  0  0  0  0  0  0  0  0  0  0
   44.1090   34.2540   39.7920 C   0  0  0  0  0  0  0  0  0  0  0  0
   39.1300   27.1840   41.8590 C   0  0  0  0  0  0  0  0  0  0  0  0
   38.2410   27.0890   42.9640 C   0  0  0  0  0  0  0  0  0  0  0  0
   37.8780   28.2800   43.5860 C   0  0  0  0  0  0  0  0  0  0  0  0
   38.3850   29.4340   43.1090 N   0  0  0  0  0  0  0  0  0  0  0  0
   39.2280   29.5000   42.0570 C   0  0  0  0  0  0  0  0  0  0  0  0
   39.6010   28.3690   41.4300 N   0  0  0  0  0  0  0  0  0  0  0  0
   39.3920   26.2280   41.3960 H   0  0  0  0  0  0  0  0  0  0  0  0
   37.8870   26.1110   43.2730 H   0  0  0  0  0  0  0  0  0  0  0  0
   37.2040   28.2440   44.4290 H   0  0  0  0  0  0  0  0  0  0  0  0
  1  2  2  0  0  0  0
  1 29  1  0  0  0  0
  2 10  1  0  0  0  0
  3  2  1  0  0  0  0
  4  9  1  0  0  0  0
  4  3  1  0  0  0  0
  5  4  2  0  0  0  0
  6  7  2  0  0  0  0
  6  5  1  0  0  0  0
  7  8  1  0  0  0  0
  8 14  1  0  0  0  0
  8  9  2  0  0  0  0
  9  1  1  0  0  0  0
 11  5  1  0  0  0  0
 12  6  1  0  0  0  0
 13  7  1  0  0  0  0
 15 16  1  0  0  0  0
 16 24  1  0  0  0  0
 17 16  1  0  0  0  0
 17 18  2  0  0  0  0
 18 19  1  0  0  0  0
 19 24  2  0  0  0  0
 19 20  1  0  0  0  0
 20  3  1  0  0  0  0
 20 21  2  0  0  0  0
 21 22  1  0  0  0  0
 23 22  2  0  0  0  0
 24 23  1  0  0  0  0
 25 26  1  0  0  0  0
 26 32  1  0  0  0  0
 26 27  2  0  0  0  0
 27 33  1  0  0  0  0
 28 27  1  0  0  0  0
 29 28  2  0  0  0  0
 30 25  2  0  0  0  0
 30 29  1  0  0  0  0
 31 25  1  0  0  0  0
M  END
>  <minimizedAffinity>
-5.86388254

>  <minimizedRMSD>
8.20424843

$$$$
