
 OpenBabel03242509303D

 22 23  0  0  0  0  0  0  0  0999 V2000
   37.8140   28.8640   42.9380 C   0  0  0  0  0  0  0  0  0  0  0  0
   38.3710   27.6510   43.4040 C   0  0  0  0  0  0  0  0  0  0  0  0
   38.7130   26.7000   42.4360 C   0  0  0  0  0  0  0  0  0  0  0  0
   38.4920   26.9920   41.1120 N   0  0  0  0  0  0  0  0  0  0  0  0
   37.9620   28.1580   40.7240 C   0  0  0  0  0  0  0  0  0  0  0  0
   37.6280   29.0820   41.6260 N   0  0  0  0  0  0  0  0  0  0  0  0
   37.5340   29.6320   43.6530 H   0  0  0  0  0  0  0  0  0  0  0  0
   38.5190   27.4810   44.4560 H   0  0  0  0  0  0  0  0  0  0  0  0
   37.8230   28.2460   39.3070 N   0  0  0  0  0  0  0  0  0  0  0  0
   38.9760   28.5830   38.6810 C   0  0  0  0  0  3  0  0  0  0  0  0
   39.0000   28.7080   37.3000 C   0  0  0  0  0  3  0  0  0  0  0  0
   37.8030   28.4690   36.6540 C   0  0  0  0  0  0  0  0  0  0  0  0
   37.7800   28.5870   35.2210 N   0  0  0  0  0  0  0  0  0  0  0  0
   36.6760   28.1340   37.3130 N   0  0  0  0  0  0  0  0  0  0  0  0
   36.6870   28.0210   38.6600 C   0  0  0  0  0  0  0  0  0  0  0  0
   35.6860   27.7160   39.3470 O   0  0  0  0  0  0  0  0  0  0  0  0
   36.9390   29.0250   34.8270 H   0  0  0  0  0  0  0  0  0  0  0  0
   38.4740   28.3030   34.5220 H   0  0  0  0  0  0  0  0  0  0  0  0
   39.3050   25.3980   42.8740 C   0  0  0  0  0  0  0  0  0  0  0  0
   40.3390   25.1350   42.0030 F   0  0  0  0  0  0  0  0  0  0  0  0
   39.8180   25.4670   44.1450 F   0  0  0  0  0  0  0  0  0  0  0  0
   38.3740   24.3620   42.8140 F   0  0  0  0  0  0  0  0  0  0  0  0
  1  2  1  0  0  0  0
  1  7  1  0  0  0  0
  2  8  1  0  0  0  0
  3 19  1  0  0  0  0
  3  2  2  0  0  0  0
  4  3  1  0  0  0  0
  5  4  2  0  0  0  0
  5  6  1  0  0  0  0
  6  1  2  0  0  0  0
  9  5  1  0  0  0  0
 10  9  1  0  0  0  0
 11 10  2  0  0  0  0
 12 11  1  0  0  0  0
 12 14  2  0  0  0  0
 13 12  1  0  0  0  0
 14 15  1  0  0  0  0
 15  9  1  0  0  0  0
 15 16  2  0  0  0  0
 17 13  1  0  0  0  0
 18 13  1  0  0  0  0
 19 21  1  0  0  0  0
 20 19  1  0  0  0  0
 22 19  1  0  0  0  0
M  END
>  <minimizedAffinity>
-4.60582495

>  <minimizedRMSD>
2.75663424

$$$$
