
 OpenBabel03242505593D

 31 33  0  0  1  0  0  0  0  0999 V2000
   38.0220   27.5830   41.4200 N   0  0  0  0  0  0  0  0  0  0  0  0
   38.1020   26.4940   42.3720 C   0  0  0  0  0  0  0  0  0  0  0  0
   39.0810   26.9850   43.4260 C   0  0  0  0  0  0  0  0  0  0  0  0
   39.5980   28.3080   42.9280 C   0  0  0  0  0  0  0  0  0  0  0  0
   39.3230   28.1620   41.4400 C   0  0  2  0  0  0  0  0  0  0  0  0
   38.4600   25.5740   41.8730 H   0  0  0  0  0  0  0  0  0  0  0  0
   37.1230   26.3320   42.8490 H   0  0  0  0  0  0  0  0  0  0  0  0
   39.9150   26.2460   43.5180 H   0  0  0  0  0  0  0  0  0  0  0  0
   38.6030   27.0910   44.4050 H   0  0  0  0  0  0  0  0  0  0  0  0
   40.6920   28.3660   43.0860 H   0  0  0  0  0  0  0  0  0  0  0  0
   39.0180   29.0960   43.4080 H   0  0  0  0  0  0  0  0  0  0  0  0
   40.0280   27.3430   41.1120 H   0  0  0  0  0  0  0  0  0  0  0  0
   39.5230   29.3400   40.6800 N   0  0  0  0  0  0  0  0  0  0  0  0
   39.9900   29.4150   39.4150 C   0  0  0  0  0  0  0  0  0  0  0  0
   40.1640   30.5970   38.7260 C   0  0  0  0  0  0  0  0  0  0  0  0
   39.8300   31.7590   39.3960 C   0  0  0  0  0  0  0  0  0  0  0  0
   40.0170   32.9790   38.6660 N   0  0  0  0  0  0  0  0  0  0  0  0
   39.3690   31.6860   40.6430 N   0  0  0  0  0  0  0  0  0  0  0  0
   39.2130   30.5060   41.2860 C   0  0  0  0  0  0  0  0  0  0  0  0
   38.7690   30.6510   42.4490 O   0  0  0  0  0  0  0  0  0  0  0  0
   39.1980   33.0220   38.0080 H   0  0  0  0  0  0  0  0  0  0  0  0
   40.7590   33.7160   38.7060 H   0  0  0  0  0  0  0  0  0  0  0  0
   35.9190   28.8510   41.1030 C   0  0  0  0  0  0  0  0  0  0  0  0
   36.9170   27.9690   40.6620 C   0  0  0  0  0  0  0  0  0  0  0  0
   36.7600   27.4560   39.3590 C   0  0  0  0  0  0  0  0  0  0  0  0
   35.6830   27.8310   38.6180 N   0  0  0  0  0  0  0  0  0  0  0  0
   34.7590   28.6820   39.0960 C   0  0  0  0  0  0  0  0  0  0  0  0
   34.8770   29.1980   40.3510 N   0  0  0  0  0  0  0  0  0  0  0  0
   36.0000   29.2590   42.0780 H   0  0  0  0  0  0  0  0  0  0  0  0
   37.5140   26.7710   38.9880 H   0  0  0  0  0  0  0  0  0  0  0  0
   33.9700   28.8670   38.3660 H   0  0  0  0  0  0  0  0  0  0  0  0
  1  5  1  0  0  0  0
  1  2  1  0  0  0  0
  2  7  1  0  0  0  0
  2  3  1  0  0  0  0
  3  8  1  0  0  0  0
  3  9  1  0  0  0  0
  4 10  1  0  0  0  0
  4 11  1  0  0  0  0
  4  3  1  0  0  0  0
  5 12  1  6  0  0  0
  5  4  1  0  0  0  0
  6  2  1  0  0  0  0
 13 19  1  0  0  0  0
 13  5  1  0  0  0  0
 14 13  1  0  0  0  0
 15 16  1  0  0  0  0
 15 14  2  0  0  0  0
 16 18  2  0  0  0  0
 17 22  1  0  0  0  0
 17 16  1  0  0  0  0
 18 19  1  0  0  0  0
 19 20  2  0  0  0  0
 21 17  1  0  0  0  0
 23 29  1  0  0  0  0
 24 23  1  0  0  0  0
 24  1  1  0  0  0  0
 25 24  2  0  0  0  0
 26 27  2  0  0  0  0
 26 25  1  0  0  0  0
 27 28  1  0  0  0  0
 28 23  2  0  0  0  0
 30 25  1  0  0  0  0
 31 27  1  0  0  0  0
M  END
>  <minimizedAffinity>
-4.343009

>  <minimizedRMSD>
1.823277

$$$$
