
 OpenBabel03242509313D

 22 23  0  0  0  0  0  0  0  0999 V2000
   38.9980   26.9100   43.8080 C   0  0  0  0  0  0  0  0  0  0  0  0
   39.2670   25.8850   42.8730 C   0  0  0  0  0  0  0  0  0  0  0  0
   39.1580   26.2210   41.5180 C   0  0  0  0  0  0  0  0  0  0  0  0
   38.8020   27.5040   41.1800 N   0  0  0  0  0  0  0  0  0  0  0  0
   38.5590   28.4380   42.1070 C   0  0  0  0  0  0  0  0  0  0  0  0
   38.6560   28.1440   43.4050 N   0  0  0  0  0  0  0  0  0  0  0  0
   39.0710   26.6960   44.8700 H   0  0  0  0  0  0  0  0  0  0  0  0
   39.5420   24.8970   43.2010 H   0  0  0  0  0  0  0  0  0  0  0  0
   38.2070   29.6940   41.5310 N   0  0  0  0  0  0  0  0  0  0  0  0
   36.8710   29.9150   41.5120 C   0  0  0  0  0  3  0  0  0  0  0  0
   36.3740   31.0950   40.9830 C   0  0  0  0  0  3  0  0  0  0  0  0
   37.3160   31.9810   40.4990 C   0  0  0  0  0  0  0  0  0  0  0  0
   36.8460   33.2190   39.9390 N   0  0  0  0  0  0  0  0  0  0  0  0
   38.6400   31.7250   40.5350 N   0  0  0  0  0  0  0  0  0  0  0  0
   39.0920   30.5650   41.0590 C   0  0  0  0  0  0  0  0  0  0  0  0
   40.3010   30.2490   41.1300 O   0  0  0  0  0  0  0  0  0  0  0  0
   37.3420   33.5400   39.0980 H   0  0  0  0  0  0  0  0  0  0  0  0
   36.0910   33.8410   40.2450 H   0  0  0  0  0  0  0  0  0  0  0  0
   39.4320   25.1740   40.4860 C   0  0  0  0  0  0  0  0  0  0  0  0
   38.8940   25.6460   39.3090 F   0  0  0  0  0  0  0  0  0  0  0  0
   40.7760   24.9740   40.2980 F   0  0  0  0  0  0  0  0  0  0  0  0
   38.8320   23.9580   40.8140 F   0  0  0  0  0  0  0  0  0  0  0  0
  1  7  1  0  0  0  0
  2  8  1  0  0  0  0
  2  1  2  0  0  0  0
  3  2  1  0  0  0  0
  4  3  2  0  0  0  0
  4  5  1  0  0  0  0
  5  6  2  0  0  0  0
  6  1  1  0  0  0  0
  9  5  1  0  0  0  0
 10  9  1  0  0  0  0
 11 10  2  0  0  0  0
 12 14  2  0  0  0  0
 12 11  1  0  0  0  0
 13 18  1  0  0  0  0
 13 12  1  0  0  0  0
 14 15  1  0  0  0  0
 15 16  2  0  0  0  0
 15  9  1  0  0  0  0
 17 13  1  0  0  0  0
 19 22  1  0  0  0  0
 19  3  1  0  0  0  0
 20 19  1  0  0  0  0
 21 19  1  0  0  0  0
M  END
>  <minimizedAffinity>
-4.90496778

>  <minimizedRMSD>
2.95563841

$$$$
