
 OpenBabel03242509253D

 49 53  0  0  0  0  0  0  0  0999 V2000
   38.6020   28.1190   42.6870 C   0  0  0  0  0  0  0  0  0  0  0  0
   37.5160   27.2870   42.7470 C   0  0  0  0  0  0  0  0  0  0  0  0
   36.4610   27.9600   42.1300 C   0  0  0  0  0  0  0  0  0  0  0  0
   36.9920   29.1330   41.7490 N   0  0  0  0  0  0  0  0  0  0  0  0
   38.2420   29.2570   42.0600 N   0  0  0  0  0  0  0  0  0  0  0  0
   37.4960   26.2910   43.1980 H   0  0  0  0  0  0  0  0  0  0  0  0
   35.4850   27.5150   42.0460 H   0  0  0  0  0  0  0  0  0  0  0  0
   41.5420   26.3700   44.1600 C   0  0  0  0  0  0  0  0  0  0  0  0
   40.2450   26.5690   43.6760 C   0  0  0  0  0  0  0  0  0  0  0  0
   39.9280   27.8510   43.2000 C   0  0  0  0  0  0  0  0  0  0  0  0
   40.8680   28.8330   43.2260 N   0  0  0  0  0  0  0  0  0  0  0  0
   42.1190   28.5690   43.7140 C   0  0  0  0  0  0  0  0  0  0  0  0
   42.4430   27.3540   44.1730 N   0  0  0  0  0  0  0  0  0  0  0  0
   41.6810   25.3510   44.5000 H   0  0  0  0  0  0  0  0  0  0  0  0
   39.4680   25.8390   43.6310 H   0  0  0  0  0  0  0  0  0  0  0  0
   43.1200   29.5810   43.7510 N   0  0  0  0  0  0  0  0  0  0  0  0
   44.3900   29.2180   44.0640 C   0  0  0  0  0  0  0  0  0  0  0  0
   45.3880   30.1710   44.1100 C   0  0  0  0  0  0  0  0  0  0  0  0
   45.0460   31.4850   43.8290 C   0  0  0  0  0  0  0  0  0  0  0  0
   46.1060   32.4350   43.8890 N   0  0  0  0  0  0  0  0  0  0  0  0
   43.7810   31.8090   43.5240 N   0  0  0  0  0  0  0  0  0  0  0  0
   42.8270   30.8470   43.4880 C   0  0  0  0  0  0  0  0  0  0  0  0
   41.6720   31.2020   43.2010 O   0  0  0  0  0  0  0  0  0  0  0  0
   46.9890   32.6540   43.3410 H   0  0  0  0  0  0  0  0  0  0  0  0
   45.8380   33.0190   44.7340 H   0  0  0  0  0  0  0  0  0  0  0  0
   36.1740   30.0800   41.0810 C   0  0  0  0  0  0  0  0  0  0  0  0
   36.8090   30.8510   40.5760 H   0  0  0  0  0  0  0  0  0  0  0  0
   35.6220   30.6410   41.8650 H   0  0  0  0  0  0  0  0  0  0  0  0
   35.2680   29.5270   40.0260 C   0  0  0  0  0  0  0  0  0  0  0  0
   34.7850   28.6320   40.3920 H   0  0  0  0  0  0  0  0  0  0  0  0
   34.5710   30.4230   39.9090 H   0  0  0  0  0  0  0  0  0  0  0  0
   35.8780   29.4290   38.6750 C   0  0  0  0  0  0  0  0  0  0  0  0
   37.1950   29.5580   38.3460 C   0  0  0  0  0  0  0  0  0  0  0  0
   37.7080   29.5360   37.0840 C   0  0  0  0  0  0  0  0  0  0  0  0
   36.8540   29.3710   36.0110 C   0  0  0  0  0  0  0  0  0  0  0  0
   35.4980   29.2320   36.2780 C   0  0  0  0  0  0  0  0  0  0  0  0
   34.7110   29.0740   35.1700 C   0  0  0  0  0  0  0  0  0  0  0  0
   33.3580   28.9240   35.3290 C   0  0  0  0  0  0  0  0  0  0  0  0
   32.8210   28.9340   36.5980 C   0  0  0  0  0  0  0  0  0  0  0  0
   33.6700   29.0960   37.6580 C   0  0  0  0  0  0  0  0  0  0  0  0
   35.0150   29.2560   37.5770 C   0  0  0  0  0  0  0  0  0  0  0  0
   37.8750   29.6890   39.1810 H   0  0  0  0  0  0  0  0  0  0  0  0
   38.7760   29.6490   36.9570 H   0  0  0  0  0  0  0  0  0  0  0  0
   37.2600   29.3560   35.0150 H   0  0  0  0  0  0  0  0  0  0  0  0
   35.1110   29.0600   34.1560 H   0  0  0  0  0  0  0  0  0  0  0  0
   32.6950   28.7990   34.4820 H   0  0  0  0  0  0  0  0  0  0  0  0
   31.7550   28.8140   36.7230 H   0  0  0  0  0  0  0  0  0  0  0  0
   33.0720   29.0780   38.9110 O   0  0  0  0  0  0  0  0  0  0  0  0
   32.1670   28.6850   39.1130 H   0  0  0  0  0  0  0  0  0  0  0  0
  1  2  1  0  0  0  0
  1 10  1  0  0  0  0
  2  6  1  0  0  0  0
  3  2  2  0  0  0  0
  4  5  1  0  0  0  0
  4  3  1  0  0  0  0
  5  1  2  0  0  0  0
  7  3  1  0  0  0  0
  8 13  1  0  0  0  0
  8 14  1  0  0  0  0
  9  8  2  0  0  0  0
 10 11  2  0  0  0  0
 10  9  1  0  0  0  0
 11 12  1  0  0  0  0
 12 16  1  0  0  0  0
 12 13  2  0  0  0  0
 15  9  1  0  0  0  0
 16 17  1  0  0  0  0
 17 18  2  0  0  0  0
 19 20  1  0  0  0  0
 19 18  1  0  0  0  0
 20 25  1  0  0  0  0
 21 19  2  0  0  0  0
 22 21  1  0  0  0  0
 22 16  1  0  0  0  0
 23 22  2  0  0  0  0
 24 20  1  0  0  0  0
 26  4  1  0  0  0  0
 26 28  1  0  0  0  0
 27 26  1  0  0  0  0
 29 30  1  0  0  0  0
 29 26  1  0  0  0  0
 31 29  1  0  0  0  0
 32 29  1  0  0  0  0
 33 32  1  0  0  0  0
 33 42  1  0  0  0  0
 34 33  2  0  0  0  0
 35 36  2  0  0  0  0
 35 34  1  0  0  0  0
 36 41  1  0  0  0  0
 37 38  2  0  0  0  0
 37 36  1  0  0  0  0
 38 39  1  0  0  0  0
 39 47  1  0  0  0  0
 39 40  2  0  0  0  0
 40 48  1  0  0  0  0
 41 40  1  0  0  0  0
 41 32  2  0  0  0  0
 43 34  1  0  0  0  0
 44 35  1  0  0  0  0
 45 37  1  0  0  0  0
 46 38  1  0  0  0  0
 48 49  1  0  0  0  0
M  END
>  <minimizedAffinity>
-6.59054708

>  <minimizedRMSD>
0.627193034

$$$$
