
 OpenBabel03242508143D

 49 53  0  0  1  0  0  0  0  0999 V2000
   43.0740   34.8350   41.7680 C   0  0  2  0  0  0  0  0  0  0  0  0
   42.5760   34.1220   42.4600 H   0  0  0  0  0  0  0  0  0  0  0  0
   42.9600   36.1870   42.5740 C   0  0  0  0  0  0  0  0  0  0  0  0
   43.1970   35.9920   43.6350 H   0  0  0  0  0  0  0  0  0  0  0  0
   43.6540   36.9170   42.0940 H   0  0  0  0  0  0  0  0  0  0  0  0
   41.9100   36.5120   42.4680 H   0  0  0  0  0  0  0  0  0  0  0  0
   44.5040   34.5880   41.4680 C   0  0  0  0  0  0  0  0  0  0  0  0
   44.6440   33.8000   40.7120 H   0  0  0  0  0  0  0  0  0  0  0  0
   44.9390   35.5220   41.0640 H   0  0  0  0  0  0  0  0  0  0  0  0
   45.1610   34.2400   42.7210 N   0  0  0  0  0  0  0  0  0  0  0  0
   46.2700   34.8670   43.2000 C   0  0  0  0  0  0  0  0  0  0  0  0
   46.6310   34.3110   44.3780 N   0  0  0  0  0  0  0  0  0  0  0  0
   45.7210   33.3270   44.6190 C   0  0  0  0  0  0  0  0  0  0  0  0
   44.8310   33.3060   43.5860 N   0  0  0  0  0  0  0  0  0  0  0  0
   46.8280   35.6820   42.7670 H   0  0  0  0  0  0  0  0  0  0  0  0
   45.4250   32.3270   45.6140 N   0  0  0  0  0  0  0  0  0  0  0  0
   44.3480   31.4960   45.5140 C   0  0  0  0  0  0  0  0  0  0  0  0
   44.1260   30.5620   46.5030 C   0  0  0  0  0  0  0  0  0  0  0  0
   45.0010   30.4770   47.5870 C   0  0  0  0  0  0  0  0  0  0  0  0
   44.7410   29.5010   48.5890 N   0  0  0  0  0  0  0  0  0  0  0  0
   46.0570   31.3010   47.6740 N   0  0  0  0  0  0  0  0  0  0  0  0
   46.2400   32.1990   46.6890 C   0  0  0  0  0  0  0  0  0  0  0  0
   47.2450   32.9670   46.7900 O   0  0  0  0  0  0  0  0  0  0  0  0
   45.4600   28.8160   48.9520 H   0  0  0  0  0  0  0  0  0  0  0  0
   43.9040   29.2310   49.1560 H   0  0  0  0  0  0  0  0  0  0  0  0
   42.3080   35.0680   40.5980 O   0  0  0  0  0  0  0  0  0  0  0  0
   38.7460   35.5090   40.1510 C   0  0  0  0  0  0  0  0  0  0  0  0
   40.0960   35.8770   40.2650 C   0  0  0  0  0  0  0  0  0  0  0  0
   41.0180   34.8270   40.4740 C   0  0  0  0  0  0  0  0  0  0  0  0
   40.5060   33.6120   40.5370 N   0  0  0  0  0  0  0  0  0  0  0  0
   39.2640   33.2190   40.4360 C   0  0  0  0  0  0  0  0  0  0  0  0
   38.4050   34.2270   40.2390 N   0  0  0  0  0  0  0  0  0  0  0  0
   38.0570   36.3280   39.9910 H   0  0  0  0  0  0  0  0  0  0  0  0
   40.5070   36.8760   40.2120 H   0  0  0  0  0  0  0  0  0  0  0  0
   38.6000   31.9290   40.4930 C   0  0  0  0  0  0  0  0  0  0  0  0
   38.4680   31.2080   41.6260 N   0  0  0  0  0  0  0  0  0  0  0  0
   37.8700   30.0290   41.7160 C   0  0  0  0  0  0  0  0  0  0  0  0
   37.3400   29.4590   40.6550 N   0  0  0  0  0  0  0  0  0  0  0  0
   37.4020   30.0760   39.4490 C   0  0  0  0  0  0  0  0  0  0  0  0
   36.8480   29.4820   38.3330 C   0  0  0  0  0  0  0  0  0  0  0  0
   36.9030   30.0880   37.1190 C   0  0  0  0  0  0  0  0  0  0  0  0
   37.5430   31.3500   37.0190 C   0  0  0  0  0  0  0  0  0  0  0  0
   38.0680   31.8710   38.1740 C   0  0  0  0  0  0  0  0  0  0  0  0
   38.0360   31.3010   39.4050 C   0  0  0  0  0  0  0  0  0  0  0  0
   37.8630   29.6030   42.7130 H   0  0  0  0  0  0  0  0  0  0  0  0
   36.3760   28.5180   38.4880 H   0  0  0  0  0  0  0  0  0  0  0  0
   36.4660   29.6010   36.2800 H   0  0  0  0  0  0  0  0  0  0  0  0
   37.5890   31.8370   36.0530 H   0  0  0  0  0  0  0  0  0  0  0  0
   38.5560   32.8470   38.0670 H   0  0  0  0  0  0  0  0  0  0  0  0
  1  2  1  1  0  0  0
  1  3  1  0  0  0  0
  3  4  1  0  0  0  0
  5  3  1  0  0  0  0
  6  3  1  0  0  0  0
  7  1  1  0  0  0  0
  7 10  1  0  0  0  0
  8  7  1  0  0  0  0
  9  7  1  0  0  0  0
 10 11  1  0  0  0  0
 10 14  1  0  0  0  0
 11 12  2  0  0  0  0
 12 13  1  0  0  0  0
 13 16  1  0  0  0  0
 14 13  2  0  0  0  0
 15 11  1  0  0  0  0
 16 22  1  0  0  0  0
 17 16  1  0  0  0  0
 17 18  2  0  0  0  0
 18 19  1  0  0  0  0
 19 21  2  0  0  0  0
 19 20  1  0  0  0  0
 20 24  1  0  0  0  0
 20 25  1  0  0  0  0
 22 23  2  0  0  0  0
 22 21  1  0  0  0  0
 26  1  1  0  0  0  0
 27 32  2  0  0  0  0
 27 28  1  0  0  0  0
 28 29  2  0  0  0  0
 29 30  1  0  0  0  0
 29 26  1  0  0  0  0
 31 35  1  0  0  0  0
 31 30  2  0  0  0  0
 32 31  1  0  0  0  0
 33 27  1  0  0  0  0
 34 28  1  0  0  0  0
 35 36  1  0  0  0  0
 36 37  2  0  0  0  0
 37 45  1  0  0  0  0
 38 37  1  0  0  0  0
 39 38  2  0  0  0  0
 40 46  1  0  0  0  0
 40 39  1  0  0  0  0
 41 40  2  0  0  0  0
 42 41  1  0  0  0  0
 42 43  2  0  0  0  0
 43 44  1  0  0  0  0
 44 39  1  0  0  0  0
 44 35  2  0  0  0  0
 47 41  1  0  0  0  0
 48 42  1  0  0  0  0
 49 43  1  0  0  0  0
M  END
>  <minimizedAffinity>
-7.58376455

>  <minimizedRMSD>
0.312377453

$$$$
