
 OpenBabel03242509263D

 44 48  0  0  0  0  0  0  0  0999 V2000
   36.1060   30.0590   41.1010 C   0  0  0  0  0  0  0  0  0  0  0  0
   36.7040   30.8710   40.6370 H   0  0  0  0  0  0  0  0  0  0  0  0
   35.5000   30.5610   41.9070 H   0  0  0  0  0  0  0  0  0  0  0  0
   38.6040   28.1660   42.6920 C   0  0  0  0  0  0  0  0  0  0  0  0
   37.5300   27.3290   42.8080 C   0  0  0  0  0  0  0  0  0  0  0  0
   36.4500   27.9720   42.2050 C   0  0  0  0  0  0  0  0  0  0  0  0
   36.9580   29.1370   41.7750 N   0  0  0  0  0  0  0  0  0  0  0  0
   38.2120   29.2870   42.0410 N   0  0  0  0  0  0  0  0  0  0  0  0
   37.5060   26.3360   43.2840 H   0  0  0  0  0  0  0  0  0  0  0  0
   35.4550   27.5460   42.1430 H   0  0  0  0  0  0  0  0  0  0  0  0
   41.5470   26.5560   44.3290 C   0  0  0  0  0  0  0  0  0  0  0  0
   40.2350   26.7500   43.8740 C   0  0  0  0  0  0  0  0  0  0  0  0
   39.9500   27.9300   43.1740 C   0  0  0  0  0  0  0  0  0  0  0  0
   40.9270   28.8290   42.9610 N   0  0  0  0  0  0  0  0  0  0  0  0
   42.1890   28.5960   43.4220 C   0  0  0  0  0  0  0  0  0  0  0  0
   42.4900   27.4820   44.0920 N   0  0  0  0  0  0  0  0  0  0  0  0
   41.8550   25.6780   44.8770 H   0  0  0  0  0  0  0  0  0  0  0  0
   39.4960   25.9980   44.0730 H   0  0  0  0  0  0  0  0  0  0  0  0
   43.0830   29.6760   43.0910 N   0  0  0  0  0  0  0  0  0  0  0  0
   42.9850   30.8930   43.6440 C   0  0  0  0  0  0  0  0  0  0  0  0
   44.0120   31.6060   43.0600 C   0  0  0  0  0  0  0  0  0  0  0  0
   44.6910   30.8430   42.1970 N   0  0  0  0  0  0  0  0  0  0  0  0
   44.1090   29.6270   42.2150 C   0  0  0  0  0  0  0  0  0  0  0  0
   35.2300   29.4740   40.0380 C   0  0  0  0  0  0  0  0  0  0  0  0
   34.7700   28.5640   40.4020 H   0  0  0  0  0  0  0  0  0  0  0  0
   34.5020   30.3460   39.9180 H   0  0  0  0  0  0  0  0  0  0  0  0
   35.8580   29.4050   38.7030 C   0  0  0  0  0  0  0  0  0  0  0  0
   37.1820   29.5340   38.3900 C   0  0  0  0  0  0  0  0  0  0  0  0
   37.7170   29.5280   37.1350 C   0  0  0  0  0  0  0  0  0  0  0  0
   36.8750   29.3780   36.0440 C   0  0  0  0  0  0  0  0  0  0  0  0
   35.5150   29.2390   36.2930 C   0  0  0  0  0  0  0  0  0  0  0  0
   34.7510   29.0960   35.1650 C   0  0  0  0  0  0  0  0  0  0  0  0
   33.3940   28.9470   35.3020 C   0  0  0  0  0  0  0  0  0  0  0  0
   32.8390   28.9440   36.5640 C   0  0  0  0  0  0  0  0  0  0  0  0
   33.6680   29.0920   37.6350 C   0  0  0  0  0  0  0  0  0  0  0  0
   35.0150   29.2490   37.5840 C   0  0  0  0  0  0  0  0  0  0  0  0
   37.8510   29.6530   39.2380 H   0  0  0  0  0  0  0  0  0  0  0  0
   38.7810   29.6390   37.0250 H   0  0  0  0  0  0  0  0  0  0  0  0
   37.3270   29.3790   35.0750 H   0  0  0  0  0  0  0  0  0  0  0  0
   35.1580   29.0920   34.1650 H   0  0  0  0  0  0  0  0  0  0  0  0
   32.7750   28.8330   34.4230 H   0  0  0  0  0  0  0  0  0  0  0  0
   31.7710   28.8250   36.6620 H   0  0  0  0  0  0  0  0  0  0  0  0
   33.0440   29.0650   38.8770 O   0  0  0  0  0  0  0  0  0  0  0  0
   32.2610   29.7110   38.9950 H   0  0  0  0  0  0  0  0  0  0  0  0
  1  7  1  0  0  0  0
  1  3  1  0  0  0  0
  2  1  1  0  0  0  0
  4  5  1  0  0  0  0
  4 13  1  0  0  0  0
  5  9  1  0  0  0  0
  6  5  2  0  0  0  0
  7  8  1  0  0  0  0
  7  6  1  0  0  0  0
  8  4  2  0  0  0  0
 10  6  1  0  0  0  0
 11 17  1  0  0  0  0
 12 18  1  0  0  0  0
 12 11  2  0  0  0  0
 13 12  1  0  0  0  0
 14 13  2  0  0  0  0
 14 15  1  0  0  0  0
 15 16  2  0  0  0  0
 16 11  1  0  0  0  0
 19 15  1  0  0  0  0
 19 20  1  0  0  0  0
 21 20  2  0  0  0  0
 22 23  2  0  0  0  0
 22 21  1  0  0  0  0
 23 19  1  0  0  0  0
 24 25  1  0  0  0  0
 24  1  1  0  0  0  0
 26 24  1  0  0  0  0
 27 24  1  0  0  0  0
 28 27  1  0  0  0  0
 28 37  1  0  0  0  0
 29 28  2  0  0  0  0
 30 31  2  0  0  0  0
 30 29  1  0  0  0  0
 31 36  1  0  0  0  0
 32 33  2  0  0  0  0
 32 31  1  0  0  0  0
 33 34  1  0  0  0  0
 34 42  1  0  0  0  0
 34 35  2  0  0  0  0
 35 43  1  0  0  0  0
 36 35  1  0  0  0  0
 36 27  2  0  0  0  0
 38 29  1  0  0  0  0
 39 30  1  0  0  0  0
 40 32  1  0  0  0  0
 41 33  1  0  0  0  0
 43 44  1  0  0  0  0
M  END
>  <minimizedAffinity>
-6.20405388

>  <minimizedRMSD>
0.15882577

$$$$
