
 OpenBabel03242509303D

 17 18  0  0  0  0  0  0  0  0999 V2000
   37.7850   28.6870   43.5570 C   0  0  0  0  0  0  0  0  0  0  0  0
   38.3160   27.3650   43.6870 C   0  0  0  0  0  0  0  0  0  0  0  0
   38.3270   26.5750   42.5410 C   0  0  0  0  0  0  0  0  0  0  0  0
   37.8310   27.0980   41.3560 N   0  0  0  0  0  0  0  0  0  0  0  0
   37.3420   28.3540   41.2960 C   0  0  0  0  0  0  0  0  0  0  0  0
   37.3210   29.1290   42.3770 N   0  0  0  0  0  0  0  0  0  0  0  0
   37.7500   29.3500   44.4150 H   0  0  0  0  0  0  0  0  0  0  0  0
   38.6780   27.0390   44.6400 H   0  0  0  0  0  0  0  0  0  0  0  0
   36.9020   28.6420   39.9720 N   0  0  0  0  0  0  0  0  0  0  0  0
   37.3770   28.2660   38.7710 C   0  0  0  0  0  3  0  0  0  0  0  0
   36.5200   28.8650   37.8410 C   0  0  0  0  0  3  0  0  0  0  0  0
   35.5740   29.5690   38.5290 N   0  0  0  0  0  0  0  0  0  0  0  0
   35.8300   29.4160   39.8550 C   0  0  0  0  0  3  0  0  0  0  0  0
   38.8710   25.1880   42.6260 C   0  0  0  0  0  0  0  0  0  0  0  0
   39.6760   25.0320   41.5060 F   0  0  0  0  0  0  0  0  0  0  0  0
   39.6570   25.0110   43.7280 F   0  0  0  0  0  0  0  0  0  0  0  0
   37.8590   24.2330   42.5900 F   0  0  0  0  0  0  0  0  0  0  0  0
  1  2  1  0  0  0  0
  1  7  1  0  0  0  0
  2  8  1  0  0  0  0
  3 14  1  0  0  0  0
  3  2  2  0  0  0  0
  4  3  1  0  0  0  0
  5  4  2  0  0  0  0
  5  6  1  0  0  0  0
  6  1  2  0  0  0  0
  9  5  1  0  0  0  0
 10  9  1  0  0  0  0
 11 12  1  0  0  0  0
 11 10  2  0  0  0  0
 12 13  2  0  0  0  0
 13  9  1  0  0  0  0
 14 16  1  0  0  0  0
 15 14  1  0  0  0  0
 17 14  1  0  0  0  0
M  END
>  <minimizedAffinity>
-3.99803042

>  <minimizedRMSD>
1.4386816

$$$$
