
 OpenBabel03242509303D

 17 18  0  0  0  0  0  0  0  0999 V2000
   37.7600   28.7880   43.3940 C   0  0  0  0  0  0  0  0  0  0  0  0
   38.0820   27.3960   43.4450 C   0  0  0  0  0  0  0  0  0  0  0  0
   37.7930   26.6390   42.3140 C   0  0  0  0  0  0  0  0  0  0  0  0
   37.2170   27.2620   41.2160 N   0  0  0  0  0  0  0  0  0  0  0  0
   36.9360   28.5810   41.2270 C   0  0  0  0  0  0  0  0  0  0  0  0
   37.2040   29.3260   42.2970 N   0  0  0  0  0  0  0  0  0  0  0  0
   37.9620   29.4290   44.2460 H   0  0  0  0  0  0  0  0  0  0  0  0
   38.5250   26.9940   44.3340 H   0  0  0  0  0  0  0  0  0  0  0  0
   36.3560   28.9650   39.9840 N   0  0  0  0  0  0  0  0  0  0  0  0
   35.0860   28.9230   39.5390 C   0  0  0  0  0  3  0  0  0  0  0  0
   35.1440   29.4370   38.2380 C   0  0  0  0  0  3  0  0  0  0  0  0
   36.4410   29.7610   37.9670 N   0  0  0  0  0  0  0  0  0  0  0  0
   37.1800   29.4590   39.0680 C   0  0  0  0  0  3  0  0  0  0  0  0
   38.1100   25.1820   42.3190 C   0  0  0  0  0  0  0  0  0  0  0  0
   38.6030   24.9010   41.0510 F   0  0  0  0  0  0  0  0  0  0  0  0
   39.0880   24.8710   43.2200 F   0  0  0  0  0  0  0  0  0  0  0  0
   36.9760   24.4070   42.5430 F   0  0  0  0  0  0  0  0  0  0  0  0
  1  2  1  0  0  0  0
  1  7  1  0  0  0  0
  2  8  1  0  0  0  0
  3 14  1  0  0  0  0
  3  2  2  0  0  0  0
  4  5  2  0  0  0  0
  4  3  1  0  0  0  0
  5  6  1  0  0  0  0
  6  1  2  0  0  0  0
  9  5  1  0  0  0  0
 10  9  1  0  0  0  0
 11 10  2  0  0  0  0
 12 11  1  0  0  0  0
 12 13  2  0  0  0  0
 13  9  1  0  0  0  0
 14 17  1  0  0  0  0
 14 16  1  0  0  0  0
 15 14  1  0  0  0  0
M  END
>  <minimizedAffinity>
-4.1072793

>  <minimizedRMSD>
0.761174202

$$$$
