
 OpenBabel03242509313D

 17 18  0  0  0  0  0  0  0  0999 V2000
   37.9690   28.6770   43.5300 C   0  0  0  0  0  0  0  0  0  0  0  0
   38.4070   27.3160   43.5610 C   0  0  0  0  0  0  0  0  0  0  0  0
   38.0480   26.5130   42.4820 C   0  0  0  0  0  0  0  0  0  0  0  0
   37.2980   27.0640   41.4520 N   0  0  0  0  0  0  0  0  0  0  0  0
   36.9150   28.3570   41.4790 C   0  0  0  0  0  0  0  0  0  0  0  0
   37.2460   29.1440   42.4990 N   0  0  0  0  0  0  0  0  0  0  0  0
   38.2180   29.3510   44.3420 H   0  0  0  0  0  0  0  0  0  0  0  0
   38.9820   26.9710   44.3950 H   0  0  0  0  0  0  0  0  0  0  0  0
   36.1620   28.6650   40.3090 N   0  0  0  0  0  0  0  0  0  0  0  0
   34.8750   29.0190   40.1430 C   0  0  0  0  0  3  0  0  0  0  0  0
   34.7250   29.1890   38.7610 C   0  0  0  0  0  3  0  0  0  0  0  0
   35.9260   28.9290   38.1690 N   0  0  0  0  0  0  0  0  0  0  0  0
   36.8090   28.6040   39.1520 C   0  0  0  0  0  3  0  0  0  0  0  0
   38.4800   25.0850   42.4690 C   0  0  0  0  0  0  0  0  0  0  0  0
   39.1000   24.8930   41.2410 F   0  0  0  0  0  0  0  0  0  0  0  0
   39.3990   24.8170   43.4420 F   0  0  0  0  0  0  0  0  0  0  0  0
   37.3970   24.2170   42.5670 F   0  0  0  0  0  0  0  0  0  0  0  0
  1  2  1  0  0  0  0
  1  7  1  0  0  0  0
  2  8  1  0  0  0  0
  3  2  2  0  0  0  0
  4  5  2  0  0  0  0
  4  3  1  0  0  0  0
  5  6  1  0  0  0  0
  6  1  2  0  0  0  0
  9  5  1  0  0  0  0
 10  9  1  0  0  0  0
 11 10  2  0  0  0  0
 12 11  1  0  0  0  0
 12 13  2  0  0  0  0
 13  9  1  0  0  0  0
 14  3  1  0  0  0  0
 14 17  1  0  0  0  0
 14 16  1  0  0  0  0
 15 14  1  0  0  0  0
M  END
>  <minimizedAffinity>
-4.12496519

>  <minimizedRMSD>
0.927928388

$$$$
