
 OpenBabel03242508533D

 34 37  0  0  0  0  0  0  0  0999 V2000
   38.2500   28.0330   41.8200 C   0  0  0  0  0  0  0  0  0  0  0  0
   36.9720   28.2930   41.3200 C   0  0  0  0  0  0  0  0  0  0  0  0
   36.9230   29.6020   41.0220 N   0  0  0  0  0  0  0  0  0  0  0  0
   38.0810   30.2110   41.2940 C   0  0  0  0  0  0  0  0  0  0  0  0
   38.4340   31.5290   41.1350 C   0  0  0  0  0  0  0  0  0  0  0  0
   39.7260   31.8980   41.5050 C   0  0  0  0  0  0  0  0  0  0  0  0
   40.6120   30.9510   42.0160 C   0  0  0  0  0  0  0  0  0  0  0  0
   40.2470   29.6280   42.1720 C   0  0  0  0  0  0  0  0  0  0  0  0
   38.9580   29.2450   41.8070 C   0  0  0  0  0  0  0  0  0  0  0  0
   36.2090   27.5260   41.2190 H   0  0  0  0  0  0  0  0  0  0  0  0
   37.7720   32.2820   40.7440 H   0  0  0  0  0  0  0  0  0  0  0  0
   40.1110   32.9160   41.4200 H   0  0  0  0  0  0  0  0  0  0  0  0
   41.6310   31.1740   42.3220 H   0  0  0  0  0  0  0  0  0  0  0  0
   40.8750   28.8450   42.5590 H   0  0  0  0  0  0  0  0  0  0  0  0
   40.0540   25.5880   43.8500 C   0  0  0  0  0  0  0  0  0  0  0  0
   39.7920   24.3670   43.1710 C   0  0  0  0  0  0  0  0  0  0  0  0
   38.9940   24.4090   42.0190 C   0  0  0  0  0  0  0  0  0  0  0  0
   38.5250   25.6120   41.6300 N   0  0  0  0  0  0  0  0  0  0  0  0
   38.7790   26.7530   42.2780 C   0  0  0  0  0  0  0  0  0  0  0  0
   39.5440   26.7480   43.3920 N   0  0  0  0  0  0  0  0  0  0  0  0
   40.6650   25.5980   44.7430 H   0  0  0  0  0  0  0  0  0  0  0  0
   40.1900   23.4430   43.5250 H   0  0  0  0  0  0  0  0  0  0  0  0
   38.7670   23.5100   41.4680 H   0  0  0  0  0  0  0  0  0  0  0  0
   35.7090   30.1680   40.4780 C   0  0  0  0  0  0  0  0  0  0  0  0
   36.0410   30.8120   39.6240 H   0  0  0  0  0  0  0  0  0  0  0  0
   35.2240   30.8740   41.1840 H   0  0  0  0  0  0  0  0  0  0  0  0
   34.7540   29.1410   39.9700 C   0  0  0  0  0  0  0  0  0  0  0  0
   35.1640   28.1460   40.3110 H   0  0  0  0  0  0  0  0  0  0  0  0
   33.7770   29.2170   40.4900 H   0  0  0  0  0  0  0  0  0  0  0  0
   34.5810   29.0700   38.5580 C   0  0  0  0  0  0  0  0  0  0  0  0
   33.5160   28.8700   37.6990 C   0  0  0  0  0  0  0  0  0  0  0  0
   33.6610   28.8540   36.3550 C   0  0  0  0  0  0  0  0  0  0  0  0
   35.0130   29.0610   35.8930 C   0  0  0  0  0  0  0  0  0  0  0  0
   35.9510   29.2630   37.4890 S   0  0  0  0  0  0  0  0  0  0  0  0
  1 19  1  0  0  0  0
  2  1  2  0  0  0  0
  3  4  1  0  0  0  0
  3  2  1  0  0  0  0
  4  9  1  0  0  0  0
  5  4  2  0  0  0  0
  5  6  1  0  0  0  0
  6  7  2  0  0  0  0
  7  8  1  0  0  0  0
  7 13  1  0  0  0  0
  8 14  1  0  0  0  0
  9  1  1  0  0  0  0
  9  8  2  0  0  0  0
 10  2  1  0  0  0  0
 11  5  1  0  0  0  0
 12  6  1  0  0  0  0
 15 21  1  0  0  0  0
 16 22  1  0  0  0  0
 16 15  2  0  0  0  0
 17 16  1  0  0  0  0
 18 17  2  0  0  0  0
 18 19  1  0  0  0  0
 19 20  2  0  0  0  0
 20 15  1  0  0  0  0
 23 17  1  0  0  0  0
 24  3  1  0  0  0  0
 24 26  1  0  0  0  0
 25 24  1  0  0  0  0
 27 28  1  0  0  0  0
 27 24  1  0  0  0  0
 27 29  1  0  0  0  0
 30 27  1  0  0  0  0
 31 30  2  0  0  0  0
 32 31  1  0  0  0  0
 33 32  2  0  0  0  0
 33 34  1  0  0  0  0
 34 30  1  0  0  0  0
M  END
>  <minimizedAffinity>
-4.9333024

>  <minimizedRMSD>
2.07505274

$$$$
