
 OpenBabel03242509313D

 17 18  0  0  0  0  0  0  0  0999 V2000
   37.8990   28.7240   43.5520 C   0  0  0  0  0  0  0  0  0  0  0  0
   38.3060   27.3530   43.5760 C   0  0  0  0  0  0  0  0  0  0  0  0
   38.0130   26.5880   42.4510 C   0  0  0  0  0  0  0  0  0  0  0  0
   37.3550   27.1820   41.3850 N   0  0  0  0  0  0  0  0  0  0  0  0
   36.9960   28.4820   41.4190 C   0  0  0  0  0  0  0  0  0  0  0  0
   37.2650   29.2340   42.4840 N   0  0  0  0  0  0  0  0  0  0  0  0
   38.0990   29.3700   44.4000 H   0  0  0  0  0  0  0  0  0  0  0  0
   38.8090   26.9730   44.4410 H   0  0  0  0  0  0  0  0  0  0  0  0
   36.3400   28.8390   40.2060 N   0  0  0  0  0  0  0  0  0  0  0  0
   35.0370   28.9710   39.9010 C   0  0  0  0  0  3  0  0  0  0  0  0
   35.0190   29.3400   38.5510 C   0  0  0  0  0  3  0  0  0  0  0  0
   36.3100   29.4100   38.1140 N   0  0  0  0  0  0  0  0  0  0  0  0
   37.1180   29.0940   39.1620 C   0  0  0  0  0  3  0  0  0  0  0  0
   38.4170   25.1520   42.4290 C   0  0  0  0  0  0  0  0  0  0  0  0
   39.0050   24.9470   41.1880 F   0  0  0  0  0  0  0  0  0  0  0  0
   39.3530   24.8660   43.3820 F   0  0  0  0  0  0  0  0  0  0  0  0
   37.3200   24.3050   42.5540 F   0  0  0  0  0  0  0  0  0  0  0  0
  1  2  1  0  0  0  0
  1  7  1  0  0  0  0
  2  8  1  0  0  0  0
  3  2  2  0  0  0  0
  4  5  2  0  0  0  0
  4  3  1  0  0  0  0
  5  6  1  0  0  0  0
  6  1  2  0  0  0  0
  9  5  1  0  0  0  0
 10  9  1  0  0  0  0
 11 10  2  0  0  0  0
 12 11  1  0  0  0  0
 12 13  2  0  0  0  0
 13  9  1  0  0  0  0
 14  3  1  0  0  0  0
 14 17  1  0  0  0  0
 14 16  1  0  0  0  0
 15 14  1  0  0  0  0
M  END
>  <minimizedAffinity>
-4.10551691

>  <minimizedRMSD>
0.873535931

$$$$
