
 OpenBabel03242509313D

 17 18  0  0  0  0  0  0  0  0999 V2000
   38.2720   28.5220   43.4800 C   0  0  0  0  0  0  0  0  0  0  0  0
   38.7020   27.1590   43.5270 C   0  0  0  0  0  0  0  0  0  0  0  0
   38.2450   26.3180   42.5170 C   0  0  0  0  0  0  0  0  0  0  0  0
   37.4120   26.8350   41.5350 N   0  0  0  0  0  0  0  0  0  0  0  0
   37.0400   28.1310   41.5430 C   0  0  0  0  0  0  0  0  0  0  0  0
   37.4640   28.9550   42.4980 N   0  0  0  0  0  0  0  0  0  0  0  0
   38.5950   29.2250   44.2400 H   0  0  0  0  0  0  0  0  0  0  0  0
   39.3460   26.8410   44.3220 H   0  0  0  0  0  0  0  0  0  0  0  0
   36.1910   28.4010   40.4320 N   0  0  0  0  0  0  0  0  0  0  0  0
   34.9910   29.0050   40.3500 C   0  0  0  0  0  3  0  0  0  0  0  0
   34.6630   28.9680   38.9900 C   0  0  0  0  0  3  0  0  0  0  0  0
   35.6790   28.3450   38.3240 N   0  0  0  0  0  0  0  0  0  0  0  0
   36.6210   27.9990   39.2430 C   0  0  0  0  0  3  0  0  0  0  0  0
   38.6660   24.8870   42.5230 C   0  0  0  0  0  0  0  0  0  0  0  0
   39.3580   24.6940   41.3350 F   0  0  0  0  0  0  0  0  0  0  0  0
   39.5220   24.6070   43.5490 F   0  0  0  0  0  0  0  0  0  0  0  0
   37.5720   24.0270   42.5520 F   0  0  0  0  0  0  0  0  0  0  0  0
  1  2  1  0  0  0  0
  1  7  1  0  0  0  0
  2  8  1  0  0  0  0
  3 14  1  0  0  0  0
  3  2  2  0  0  0  0
  4  5  2  0  0  0  0
  4  3  1  0  0  0  0
  5  6  1  0  0  0  0
  6  1  2  0  0  0  0
  9  5  1  0  0  0  0
 10  9  1  0  0  0  0
 11 10  2  0  0  0  0
 12 11  1  0  0  0  0
 12 13  2  0  0  0  0
 13  9  1  0  0  0  0
 14 17  1  0  0  0  0
 14 16  1  0  0  0  0
 15 14  1  0  0  0  0
M  END
>  <minimizedAffinity>
-4.25772142

>  <minimizedRMSD>
1.16960394

$$$$
