
 OpenBabel03242509313D

 17 18  0  0  0  0  0  0  0  0999 V2000
   37.5960   28.8040   43.5780 C   0  0  0  0  0  0  0  0  0  0  0  0
   37.6480   27.3760   43.5070 C   0  0  0  0  0  0  0  0  0  0  0  0
   37.4700   26.8000   42.2530 C   0  0  0  0  0  0  0  0  0  0  0  0
   37.2550   27.6230   41.1570 N   0  0  0  0  0  0  0  0  0  0  0  0
   37.2160   28.9660   41.2860 C   0  0  0  0  0  0  0  0  0  0  0  0
   37.3840   29.5400   42.4750 N   0  0  0  0  0  0  0  0  0  0  0  0
   37.7270   29.3110   44.5280 H   0  0  0  0  0  0  0  0  0  0  0  0
   37.8180   26.8150   44.4030 H   0  0  0  0  0  0  0  0  0  0  0  0
   36.9840   29.5700   40.0180 N   0  0  0  0  0  0  0  0  0  0  0  0
   37.6650   30.5090   39.3360 C   0  0  0  0  0  3  0  0  0  0  0  0
   36.9420   30.6880   38.1510 C   0  0  0  0  0  3  0  0  0  0  0  0
   35.8660   29.8500   38.1790 N   0  0  0  0  0  0  0  0  0  0  0  0
   35.9100   29.1620   39.3520 C   0  0  0  0  0  3  0  0  0  0  0  0
   37.5160   25.3140   42.1280 C   0  0  0  0  0  0  0  0  0  0  0  0
   37.6090   25.0550   40.7670 F   0  0  0  0  0  0  0  0  0  0  0  0
   38.6210   24.7820   42.7260 F   0  0  0  0  0  0  0  0  0  0  0  0
   36.3590   24.7190   42.6210 F   0  0  0  0  0  0  0  0  0  0  0  0
  1  7  1  0  0  0  0
  2  1  1  0  0  0  0
  2  8  1  0  0  0  0
  3  2  2  0  0  0  0
  4  5  2  0  0  0  0
  4  3  1  0  0  0  0
  5  6  1  0  0  0  0
  6  1  2  0  0  0  0
  9  5  1  0  0  0  0
 10  9  1  0  0  0  0
 11 12  1  0  0  0  0
 11 10  2  0  0  0  0
 12 13  2  0  0  0  0
 13  9  1  0  0  0  0
 14  3  1  0  0  0  0
 14 17  1  0  0  0  0
 14 16  1  0  0  0  0
 15 14  1  0  0  0  0
M  END
>  <minimizedAffinity>
-4.34208345

>  <minimizedRMSD>
1.03215146

$$$$
