
 OpenBabel03242509313D

 17 18  0  0  0  0  0  0  0  0999 V2000
   37.5830   28.7030   43.5840 C   0  0  0  0  0  0  0  0  0  0  0  0
   37.5680   27.2830   43.4090 C   0  0  0  0  0  0  0  0  0  0  0  0
   37.3890   26.8100   42.1130 C   0  0  0  0  0  0  0  0  0  0  0  0
   37.2380   27.7200   41.0770 N   0  0  0  0  0  0  0  0  0  0  0  0
   37.2620   29.0500   41.3050 C   0  0  0  0  0  0  0  0  0  0  0  0
   37.4320   29.5270   42.5350 N   0  0  0  0  0  0  0  0  0  0  0  0
   37.7190   29.1320   44.5720 H   0  0  0  0  0  0  0  0  0  0  0  0
   37.6900   26.6500   44.2640 H   0  0  0  0  0  0  0  0  0  0  0  0
   37.0880   29.7560   40.0800 N   0  0  0  0  0  0  0  0  0  0  0  0
   37.6640   30.8740   39.6020 C   0  0  0  0  0  3  0  0  0  0  0  0
   37.0800   31.0710   38.3450 C   0  0  0  0  0  3  0  0  0  0  0  0
   36.1830   30.0640   38.1320 N   0  0  0  0  0  0  0  0  0  0  0  0
   36.2040   29.2560   39.2250 C   0  0  0  0  0  3  0  0  0  0  0  0
   37.3650   25.3360   41.8790 C   0  0  0  0  0  0  0  0  0  0  0  0
   37.0540   25.1750   40.5360 F   0  0  0  0  0  0  0  0  0  0  0  0
   38.5850   24.7620   42.0930 F   0  0  0  0  0  0  0  0  0  0  0  0
   36.3890   24.7080   42.6460 F   0  0  0  0  0  0  0  0  0  0  0  0
  1  7  1  0  0  0  0
  2  1  1  0  0  0  0
  2  8  1  0  0  0  0
  3  2  2  0  0  0  0
  4  5  2  0  0  0  0
  4  3  1  0  0  0  0
  5  6  1  0  0  0  0
  6  1  2  0  0  0  0
  9  5  1  0  0  0  0
 10  9  1  0  0  0  0
 11 10  2  0  0  0  0
 12 11  1  0  0  0  0
 12 13  2  0  0  0  0
 13  9  1  0  0  0  0
 14 16  1  0  0  0  0
 14  3  1  0  0  0  0
 14 17  1  0  0  0  0
 15 14  1  0  0  0  0
M  END
>  <minimizedAffinity>
-4.3454814

>  <minimizedRMSD>
1.16219485

$$$$
