
 OpenBabel03242508443D

 32 35  0  0  1  0  0  0  0  0999 V2000
   37.9570   27.3690   42.7410 C   0  0  2  0  0  0  0  0  0  0  0  0
   39.0440   27.6570   43.6830 C   0  0  0  0  0  0  0  0  0  0  0  0
   39.7670   26.3350   43.8650 C   0  0  0  0  0  0  0  0  0  0  0  0
   39.3070   25.4580   42.7430 C   0  0  0  0  0  0  0  0  0  0  0  0
   38.5620   26.3720   41.7700 C   0  0  1  0  0  0  0  0  0  0  0  0
   37.1510   26.7840   43.2620 H   0  0  0  0  0  0  0  0  0  0  0  0
   39.8020   28.3400   43.2490 H   0  0  0  0  0  0  0  0  0  0  0  0
   38.7350   28.0950   44.6520 H   0  0  0  0  0  0  0  0  0  0  0  0
   40.8710   26.4360   43.8140 H   0  0  0  0  0  0  0  0  0  0  0  0
   39.5530   25.9080   44.8700 H   0  0  0  0  0  0  0  0  0  0  0  0
   40.1150   24.9030   42.2310 H   0  0  0  0  0  0  0  0  0  0  0  0
   38.6290   24.7050   43.1940 H   0  0  0  0  0  0  0  0  0  0  0  0
   39.2190   26.8360   41.0410 H   0  0  0  0  0  0  0  0  0  0  0  0
   37.5660   25.4350   41.1760 C   0  0  0  0  0  0  0  0  0  0  0  0
   36.8790   24.5430   41.9130 N   0  0  0  0  0  0  0  0  0  0  0  0
   36.0990   23.8800   41.0860 O   0  0  0  0  0  0  0  0  0  0  0  0
   36.2900   24.3400   39.8650 C   0  0  0  0  0  0  0  0  0  0  0  0
   37.1960   25.3120   39.8800 N   0  0  0  0  0  0  0  0  0  0  0  0
   35.6140   23.8580   38.7080 N   0  0  0  0  0  0  0  0  0  0  0  0
   35.6610   22.5210   38.4510 C   0  0  0  0  0  0  0  0  0  0  0  0
   34.9320   22.3490   37.2890 C   0  0  0  0  0  0  0  0  0  0  0  0
   34.4690   23.5300   36.8680 N   0  0  0  0  0  0  0  0  0  0  0  0
   34.8920   24.4740   37.7530 C   0  0  0  0  0  0  0  0  0  0  0  0
   38.0060   29.7750   41.9250 C   0  0  0  0  0  0  0  0  0  0  0  0
   37.3700   28.5120   42.0610 C   0  0  0  0  0  0  0  0  0  0  0  0
   36.1140   28.3440   41.5060 C   0  0  0  0  0  0  0  0  0  0  0  0
   35.5400   29.4110   40.8490 N   0  0  0  0  0  0  0  0  0  0  0  0
   36.1800   30.6210   40.7350 C   0  0  0  0  0  0  0  0  0  0  0  0
   37.4330   30.7920   41.2870 N   0  0  0  0  0  0  0  0  0  0  0  0
   38.9860   29.9220   42.3520 H   0  0  0  0  0  0  0  0  0  0  0  0
   35.5200   27.4420   41.5330 H   0  0  0  0  0  0  0  0  0  0  0  0
   35.5880   31.3400   40.1910 H   0  0  0  0  0  0  0  0  0  0  0  0
  1  6  1  1  0  0  0
  1  2  1  0  0  0  0
  2  3  1  0  0  0  0
  2  8  1  0  0  0  0
  3 10  1  0  0  0  0
  4 12  1  0  0  0  0
  4  3  1  0  0  0  0
  5 13  1  6  0  0  0
  5  1  1  0  0  0  0
  5  4  1  0  0  0  0
  7  2  1  0  0  0  0
  9  3  1  0  0  0  0
 11  4  1  0  0  0  0
 14  5  1  0  0  0  0
 14 15  2  0  0  0  0
 16 15  1  0  0  0  0
 17 18  2  0  0  0  0
 17 16  1  0  0  0  0
 18 14  1  0  0  0  0
 19 17  1  0  0  0  0
 20 19  1  0  0  0  0
 21 20  2  0  0  0  0
 22 21  1  0  0  0  0
 22 23  2  0  0  0  0
 23 19  1  0  0  0  0
 24 25  1  0  0  0  0
 24 30  1  0  0  0  0
 25  1  1  0  0  0  0
 26 31  1  0  0  0  0
 26 25  2  0  0  0  0
 27 26  1  0  0  0  0
 28 27  2  0  0  0  0
 28 29  1  0  0  0  0
 29 24  2  0  0  0  0
 32 28  1  0  0  0  0
M  END
>  <minimizedAffinity>
-5.05217171

>  <minimizedRMSD>
0.545645833

$$$$
