
 OpenBabel03242508133D

 44 48  0  0  1  0  0  0  0  0999 V2000
   38.9930   35.4350   40.3040 C   0  0  0  0  0  0  0  0  0  0  0  0
   40.3550   35.7340   40.4250 C   0  0  0  0  0  0  0  0  0  0  0  0
   41.2280   34.6380   40.6080 C   0  0  0  0  0  0  0  0  0  0  0  0
   40.6610   33.4480   40.6430 N   0  0  0  0  0  0  0  0  0  0  0  0
   39.3980   33.1170   40.5340 C   0  0  0  0  0  0  0  0  0  0  0  0
   38.5890   34.1700   40.3630 N   0  0  0  0  0  0  0  0  0  0  0  0
   38.3410   36.2880   40.1650 H   0  0  0  0  0  0  0  0  0  0  0  0
   40.7660   36.7300   40.3870 H   0  0  0  0  0  0  0  0  0  0  0  0
   38.6760   31.8590   40.5640 C   0  0  0  0  0  0  0  0  0  0  0  0
   38.5050   31.1220   41.6830 N   0  0  0  0  0  0  0  0  0  0  0  0
   37.8530   29.9720   41.7480 C   0  0  0  0  0  0  0  0  0  0  0  0
   37.3000   29.4440   40.6670 N   0  0  0  0  0  0  0  0  0  0  0  0
   37.4000   30.0860   39.4850 C   0  0  0  0  0  0  0  0  0  0  0  0
   36.8250   29.5440   38.3480 C   0  0  0  0  0  0  0  0  0  0  0  0
   36.9070   30.1600   37.1490 C   0  0  0  0  0  0  0  0  0  0  0  0
   37.6020   31.3870   37.0750 C   0  0  0  0  0  0  0  0  0  0  0  0
   38.1490   31.8690   38.2410 C   0  0  0  0  0  0  0  0  0  0  0  0
   38.0850   31.2770   39.4600 C   0  0  0  0  0  0  0  0  0  0  0  0
   37.7730   29.4590   42.6970 H   0  0  0  0  0  0  0  0  0  0  0  0
   36.3050   28.5990   38.4680 H   0  0  0  0  0  0  0  0  0  0  0  0
   36.4570   29.7420   36.2430 H   0  0  0  0  0  0  0  0  0  0  0  0
   37.7000   31.9280   36.1380 H   0  0  0  0  0  0  0  0  0  0  0  0
   38.6850   32.8280   38.1570 H   0  0  0  0  0  0  0  0  0  0  0  0
   42.5290   34.8100   40.7360 O   0  0  0  0  0  0  0  0  0  0  0  0
   43.2680   34.5910   41.9270 C   0  0  2  0  0  0  0  0  0  0  0  0
   42.7230   33.9780   42.6700 H   0  0  0  0  0  0  0  0  0  0  0  0
   43.2590   35.9990   42.6400 C   0  0  0  0  0  0  0  0  0  0  0  0
   42.2070   36.2120   42.8370 H   0  0  0  0  0  0  0  0  0  0  0  0
   43.7140   36.7110   41.9180 H   0  0  0  0  0  0  0  0  0  0  0  0
   43.8820   35.9010   43.5330 H   0  0  0  0  0  0  0  0  0  0  0  0
   44.6800   34.2220   41.6500 C   0  0  0  0  0  0  0  0  0  0  0  0
   45.1710   35.0990   41.2050 H   0  0  0  0  0  0  0  0  0  0  0  0
   44.6950   33.3500   40.9640 H   0  0  0  0  0  0  0  0  0  0  0  0
   45.3030   33.9020   42.9280 N   0  0  0  0  0  0  0  0  0  0  0  0
   46.4510   34.4820   43.3830 C   0  0  0  0  0  0  0  0  0  0  0  0
   46.7640   33.9740   44.5900 N   0  0  0  0  0  0  0  0  0  0  0  0
   45.7850   33.0620   44.8830 C   0  0  0  0  0  0  0  0  0  0  0  0
   44.9060   33.0430   43.8460 N   0  0  0  0  0  0  0  0  0  0  0  0
   47.0130   35.2290   42.8480 H   0  0  0  0  0  0  0  0  0  0  0  0
   45.4330   32.1570   45.9330 N   0  0  0  0  0  0  0  0  0  0  0  0
   44.2460   31.5630   46.1480 C   0  0  0  0  0  0  0  0  0  0  0  0
   44.3680   30.7760   47.2690 C   0  0  0  0  0  0  0  0  0  0  0  0
   45.6230   30.9000   47.7220 N   0  0  0  0  0  0  0  0  0  0  0  0
   46.3030   31.7540   46.9030 C   0  0  0  0  0  0  0  0  0  0  0  0
  1  6  2  0  0  0  0
  1  2  1  0  0  0  0
  2  3  2  0  0  0  0
  3  4  1  0  0  0  0
  3 24  1  0  0  0  0
  5  9  1  0  0  0  0
  5  4  2  0  0  0  0
  6  5  1  0  0  0  0
  7  1  1  0  0  0  0
  8  2  1  0  0  0  0
  9 10  1  0  0  0  0
 10 11  2  0  0  0  0
 11 19  1  0  0  0  0
 12 11  1  0  0  0  0
 13 12  2  0  0  0  0
 14 20  1  0  0  0  0
 14 13  1  0  0  0  0
 15 14  2  0  0  0  0
 16 15  1  0  0  0  0
 16 17  2  0  0  0  0
 17 18  1  0  0  0  0
 18 13  1  0  0  0  0
 18  9  2  0  0  0  0
 21 15  1  0  0  0  0
 22 16  1  0  0  0  0
 23 17  1  0  0  0  0
 24 25  1  0  0  0  0
 25 27  1  0  0  0  0
 25 26  1  1  0  0  0
 27 28  1  0  0  0  0
 27 30  1  0  0  0  0
 29 27  1  0  0  0  0
 31 25  1  0  0  0  0
 31 34  1  0  0  0  0
 32 31  1  0  0  0  0
 33 31  1  0  0  0  0
 34 35  1  0  0  0  0
 34 38  1  0  0  0  0
 35 36  2  0  0  0  0
 36 37  1  0  0  0  0
 37 40  1  0  0  0  0
 38 37  2  0  0  0  0
 39 35  1  0  0  0  0
 40 41  1  0  0  0  0
 40 44  1  0  0  0  0
 41 42  2  0  0  0  0
 42 43  1  0  0  0  0
 44 43  2  0  0  0  0
M  END
>  <minimizedAffinity>
-6.89224768

>  <minimizedRMSD>
0.348362803

$$$$
