
 OpenBabel03242509303D

 17 18  0  0  0  0  0  0  0  0999 V2000
   37.8840   28.7020   43.5540 C   0  0  0  0  0  0  0  0  0  0  0  0
   38.3730   27.3640   43.6850 C   0  0  0  0  0  0  0  0  0  0  0  0
   38.3700   26.5760   42.5390 C   0  0  0  0  0  0  0  0  0  0  0  0
   37.9000   27.1160   41.3510 N   0  0  0  0  0  0  0  0  0  0  0  0
   37.4500   28.3870   41.2880 C   0  0  0  0  0  0  0  0  0  0  0  0
   37.4440   29.1610   42.3710 N   0  0  0  0  0  0  0  0  0  0  0  0
   37.8620   29.3650   44.4130 H   0  0  0  0  0  0  0  0  0  0  0  0
   38.7170   27.0260   44.6410 H   0  0  0  0  0  0  0  0  0  0  0  0
   37.0300   28.6900   39.9610 N   0  0  0  0  0  0  0  0  0  0  0  0
   37.3200   28.1160   38.7800 C   0  0  0  0  0  3  0  0  0  0  0  0
   36.6050   28.8580   37.8340 C   0  0  0  0  0  3  0  0  0  0  0  0
   35.9220   29.8400   38.4930 N   0  0  0  0  0  0  0  0  0  0  0  0
   36.2020   29.7160   39.8180 C   0  0  0  0  0  3  0  0  0  0  0  0
   38.8700   25.1730   42.6260 C   0  0  0  0  0  0  0  0  0  0  0  0
   39.6720   24.9920   41.5070 F   0  0  0  0  0  0  0  0  0  0  0  0
   39.6490   24.9720   43.7290 F   0  0  0  0  0  0  0  0  0  0  0  0
   37.8300   24.2500   42.5890 F   0  0  0  0  0  0  0  0  0  0  0  0
  1  2  1  0  0  0  0
  1  7  1  0  0  0  0
  2  8  1  0  0  0  0
  3 14  1  0  0  0  0
  3  2  2  0  0  0  0
  4  3  1  0  0  0  0
  5  4  2  0  0  0  0
  5  6  1  0  0  0  0
  6  1  2  0  0  0  0
  9  5  1  0  0  0  0
 10  9  1  0  0  0  0
 11 12  1  0  0  0  0
 11 10  2  0  0  0  0
 12 13  2  0  0  0  0
 13  9  1  0  0  0  0
 14 16  1  0  0  0  0
 15 14  1  0  0  0  0
 17 14  1  0  0  0  0
M  END
>  <minimizedAffinity>
-3.98689842

>  <minimizedRMSD>
1.46816206

$$$$
