
 OpenBabel03242509303D

 17 18  0  0  0  0  0  0  0  0999 V2000
   37.7570   28.7830   43.4630 C   0  0  0  0  0  0  0  0  0  0  0  0
   38.0650   27.3870   43.5010 C   0  0  0  0  0  0  0  0  0  0  0  0
   37.8350   26.6600   42.3360 C   0  0  0  0  0  0  0  0  0  0  0  0
   37.3290   27.3130   41.2220 N   0  0  0  0  0  0  0  0  0  0  0  0
   37.0580   28.6340   41.2480 C   0  0  0  0  0  0  0  0  0  0  0  0
   37.2700   29.3510   42.3490 N   0  0  0  0  0  0  0  0  0  0  0  0
   37.9140   29.4020   44.3400 H   0  0  0  0  0  0  0  0  0  0  0  0
   38.4510   26.9610   44.4030 H   0  0  0  0  0  0  0  0  0  0  0  0
   36.5540   29.0520   39.9830 N   0  0  0  0  0  0  0  0  0  0  0  0
   37.1630   29.5950   38.9130 C   0  0  0  0  0  3  0  0  0  0  0  0
   36.1400   29.7850   37.9760 C   0  0  0  0  0  3  0  0  0  0  0  0
   34.9710   29.3470   38.5280 N   0  0  0  0  0  0  0  0  0  0  0  0
   35.2520   28.8940   39.7790 C   0  0  0  0  0  3  0  0  0  0  0  0
   38.1400   25.1990   42.3260 C   0  0  0  0  0  0  0  0  0  0  0  0
   38.6390   24.9300   41.0580 F   0  0  0  0  0  0  0  0  0  0  0  0
   39.1090   24.8690   43.2300 F   0  0  0  0  0  0  0  0  0  0  0  0
   36.9980   24.4310   42.5330 F   0  0  0  0  0  0  0  0  0  0  0  0
  1  2  1  0  0  0  0
  1  7  1  0  0  0  0
  2  8  1  0  0  0  0
  3  2  2  0  0  0  0
  4  5  2  0  0  0  0
  4  3  1  0  0  0  0
  5  6  1  0  0  0  0
  6  1  2  0  0  0  0
  9  5  1  0  0  0  0
 10  9  1  0  0  0  0
 11 12  1  0  0  0  0
 11 10  2  0  0  0  0
 12 13  2  0  0  0  0
 13  9  1  0  0  0  0
 14  3  1  0  0  0  0
 14 17  1  0  0  0  0
 14 16  1  0  0  0  0
 15 14  1  0  0  0  0
M  END
>  <minimizedAffinity>
-4.14195538

>  <minimizedRMSD>
0.85808903

$$$$
