
 OpenBabel03242509303D

 17 18  0  0  0  0  0  0  0  0999 V2000
   38.2180   28.5730   43.5010 C   0  0  0  0  0  0  0  0  0  0  0  0
   38.6120   27.1980   43.5440 C   0  0  0  0  0  0  0  0  0  0  0  0
   38.2130   26.3940   42.4800 C   0  0  0  0  0  0  0  0  0  0  0  0
   37.4700   26.9560   41.4530 N   0  0  0  0  0  0  0  0  0  0  0  0
   37.1290   28.2610   41.4670 C   0  0  0  0  0  0  0  0  0  0  0  0
   37.4980   29.0500   42.4730 N   0  0  0  0  0  0  0  0  0  0  0  0
   38.4990   29.2490   44.3020 H   0  0  0  0  0  0  0  0  0  0  0  0
   39.1860   26.8450   44.3760 H   0  0  0  0  0  0  0  0  0  0  0  0
   36.3720   28.5790   40.3030 N   0  0  0  0  0  0  0  0  0  0  0  0
   36.7000   28.5840   38.9980 C   0  0  0  0  0  3  0  0  0  0  0  0
   35.5330   28.9840   38.3360 C   0  0  0  0  0  3  0  0  0  0  0  0
   34.5650   29.1990   39.2740 N   0  0  0  0  0  0  0  0  0  0  0  0
   35.1100   28.9410   40.4930 C   0  0  0  0  0  3  0  0  0  0  0  0
   38.5990   24.9530   42.4810 C   0  0  0  0  0  0  0  0  0  0  0  0
   39.2450   24.7380   41.2710 F   0  0  0  0  0  0  0  0  0  0  0  0
   39.4820   24.6570   43.4790 F   0  0  0  0  0  0  0  0  0  0  0  0
   37.4860   24.1200   42.5510 F   0  0  0  0  0  0  0  0  0  0  0  0
  1  2  1  0  0  0  0
  1  7  1  0  0  0  0
  2  8  1  0  0  0  0
  3 14  1  0  0  0  0
  3  2  2  0  0  0  0
  4  5  2  0  0  0  0
  4  3  1  0  0  0  0
  5  6  1  0  0  0  0
  6  1  2  0  0  0  0
  9 13  1  0  0  0  0
  9  5  1  0  0  0  0
 10  9  1  0  0  0  0
 11 10  2  0  0  0  0
 11 12  1  0  0  0  0
 12 13  2  0  0  0  0
 14 17  1  0  0  0  0
 14 16  1  0  0  0  0
 15 14  1  0  0  0  0
M  END
>  <minimizedAffinity>
-4.17218828

>  <minimizedRMSD>
1.08346987

$$$$
