
 OpenBabel03242509313D

 17 18  0  0  0  0  0  0  0  0999 V2000
   37.7540   28.7260   43.5620 C   0  0  0  0  0  0  0  0  0  0  0  0
   38.2540   27.3900   43.6790 C   0  0  0  0  0  0  0  0  0  0  0  0
   38.2890   26.6260   42.5160 C   0  0  0  0  0  0  0  0  0  0  0  0
   37.8460   27.1870   41.3270 N   0  0  0  0  0  0  0  0  0  0  0  0
   37.3860   28.4540   41.2790 C   0  0  0  0  0  0  0  0  0  0  0  0
   37.3420   29.2050   42.3770 N   0  0  0  0  0  0  0  0  0  0  0  0
   37.7020   29.3690   44.4340 H   0  0  0  0  0  0  0  0  0  0  0  0
   38.5750   27.0340   44.6360 H   0  0  0  0  0  0  0  0  0  0  0  0
   36.9990   28.7820   39.9480 N   0  0  0  0  0  0  0  0  0  0  0  0
   37.1040   28.0990   38.7930 C   0  0  0  0  0  3  0  0  0  0  0  0
   36.5470   28.9410   37.8250 C   0  0  0  0  0  3  0  0  0  0  0  0
   36.1340   30.0850   38.4440 N   0  0  0  0  0  0  0  0  0  0  0  0
   36.4250   29.9640   39.7680 C   0  0  0  0  0  3  0  0  0  0  0  0
   38.8020   25.2270   42.5870 C   0  0  0  0  0  0  0  0  0  0  0  0
   39.5700   25.0510   41.4440 F   0  0  0  0  0  0  0  0  0  0  0  0
   39.6150   25.0310   43.6660 F   0  0  0  0  0  0  0  0  0  0  0  0
   37.7660   24.2970   42.5810 F   0  0  0  0  0  0  0  0  0  0  0  0
  1  2  1  0  0  0  0
  1  7  1  0  0  0  0
  2  8  1  0  0  0  0
  3 14  1  0  0  0  0
  3  2  2  0  0  0  0
  4  3  1  0  0  0  0
  5  4  2  0  0  0  0
  5  6  1  0  0  0  0
  6  1  2  0  0  0  0
  9  5  1  0  0  0  0
 10  9  1  0  0  0  0
 11 12  1  0  0  0  0
 11 10  2  0  0  0  0
 12 13  2  0  0  0  0
 13  9  1  0  0  0  0
 14 16  1  0  0  0  0
 15 14  1  0  0  0  0
 17 14  1  0  0  0  0
M  END
>  <minimizedAffinity>
-4.02386665

>  <minimizedRMSD>
1.40063941

$$$$
