
 OpenBabel03242509313D

 17 18  0  0  0  0  0  0  0  0999 V2000
   37.6100   28.8050   43.5840 C   0  0  0  0  0  0  0  0  0  0  0  0
   37.6690   27.3770   43.5130 C   0  0  0  0  0  0  0  0  0  0  0  0
   37.4690   26.7990   42.2620 C   0  0  0  0  0  0  0  0  0  0  0  0
   37.2270   27.6200   41.1710 N   0  0  0  0  0  0  0  0  0  0  0  0
   37.1820   28.9620   41.3010 C   0  0  0  0  0  0  0  0  0  0  0  0
   37.3710   29.5390   42.4850 N   0  0  0  0  0  0  0  0  0  0  0  0
   37.7570   29.3120   44.5310 H   0  0  0  0  0  0  0  0  0  0  0  0
   37.8610   26.8170   44.4050 H   0  0  0  0  0  0  0  0  0  0  0  0
   36.9200   29.5650   40.0370 N   0  0  0  0  0  0  0  0  0  0  0  0
   36.3110   29.0950   38.9320 C   0  0  0  0  0  3  0  0  0  0  0  0
   36.3600   30.1540   38.0180 C   0  0  0  0  0  3  0  0  0  0  0  0
   36.9930   31.2040   38.6170 N   0  0  0  0  0  0  0  0  0  0  0  0
   37.3340   30.8150   39.8750 C   0  0  0  0  0  3  0  0  0  0  0  0
   37.5220   25.3130   42.1370 C   0  0  0  0  0  0  0  0  0  0  0  0
   37.6230   25.0550   40.7770 F   0  0  0  0  0  0  0  0  0  0  0  0
   38.6260   24.7850   42.7420 F   0  0  0  0  0  0  0  0  0  0  0  0
   36.3640   24.7130   42.6240 F   0  0  0  0  0  0  0  0  0  0  0  0
  1  7  1  0  0  0  0
  2  1  1  0  0  0  0
  2  8  1  0  0  0  0
  3  2  2  0  0  0  0
  4  5  2  0  0  0  0
  4  3  1  0  0  0  0
  5  6  1  0  0  0  0
  6  1  2  0  0  0  0
  9  5  1  0  0  0  0
 10  9  1  0  0  0  0
 11 12  1  0  0  0  0
 11 10  2  0  0  0  0
 12 13  2  0  0  0  0
 13  9  1  0  0  0  0
 14  3  1  0  0  0  0
 14 17  1  0  0  0  0
 14 16  1  0  0  0  0
 15 14  1  0  0  0  0
M  END
>  <minimizedAffinity>
-4.34986877

>  <minimizedRMSD>
0.953342676

$$$$
