
 OpenBabel03242509303D

 17 18  0  0  0  0  0  0  0  0999 V2000
   37.6010   28.8220   43.4450 C   0  0  0  0  0  0  0  0  0  0  0  0
   37.7110   27.3960   43.4510 C   0  0  0  0  0  0  0  0  0  0  0  0
   37.4770   26.7400   42.2460 C   0  0  0  0  0  0  0  0  0  0  0  0
   37.1560   27.4880   41.1230 N   0  0  0  0  0  0  0  0  0  0  0  0
   37.0680   28.8330   41.1790 C   0  0  0  0  0  0  0  0  0  0  0  0
   37.2870   29.4830   42.3200 N   0  0  0  0  0  0  0  0  0  0  0  0
   37.7720   29.3890   44.3540 H   0  0  0  0  0  0  0  0  0  0  0  0
   37.9630   26.8950   44.3640 H   0  0  0  0  0  0  0  0  0  0  0  0
   36.7270   29.3520   39.8970 N   0  0  0  0  0  0  0  0  0  0  0  0
   35.8750   28.9120   38.9530 C   0  0  0  0  0  3  0  0  0  0  0  0
   35.9760   29.8460   37.9150 C   0  0  0  0  0  3  0  0  0  0  0  0
   36.8820   30.7970   38.2860 N   0  0  0  0  0  0  0  0  0  0  0  0
   37.3380   30.4700   39.5250 C   0  0  0  0  0  3  0  0  0  0  0  0
   37.5790   25.2520   42.2020 C   0  0  0  0  0  0  0  0  0  0  0  0
   37.7730   24.9290   40.8660 F   0  0  0  0  0  0  0  0  0  0  0  0
   38.6580   24.7900   42.9000 F   0  0  0  0  0  0  0  0  0  0  0  0
   36.4120   24.6410   42.6490 F   0  0  0  0  0  0  0  0  0  0  0  0
  1  2  1  0  0  0  0
  1  7  1  0  0  0  0
  2  8  1  0  0  0  0
  3  2  2  0  0  0  0
  4  5  2  0  0  0  0
  4  3  1  0  0  0  0
  5  6  1  0  0  0  0
  6  1  2  0  0  0  0
  9  5  1  0  0  0  0
 10  9  1  0  0  0  0
 11 12  1  0  0  0  0
 11 10  2  0  0  0  0
 12 13  2  0  0  0  0
 13  9  1  0  0  0  0
 14  3  1  0  0  0  0
 14 17  1  0  0  0  0
 14 16  1  0  0  0  0
 15 14  1  0  0  0  0
M  END
>  <minimizedAffinity>
-4.30841875

>  <minimizedRMSD>
0.849964797

$$$$
