
 OpenBabel03242504503D

 29 32  0  0  0  0  0  0  0  0999 V2000
   40.7830   29.2960   41.4520 C   0  0  0  0  0  0  0  0  0  0  0  0
   39.9440   28.2620   41.3170 N   0  0  0  0  0  0  0  0  0  0  0  0
   40.5540   27.1760   41.7130 O   0  0  0  0  0  0  0  0  0  0  0  0
   41.7730   27.4460   42.1090 C   0  0  0  0  0  0  0  0  0  0  0  0
   41.9290   28.7700   41.9510 N   0  0  0  0  0  0  0  0  0  0  0  0
   42.8160   26.6470   42.6140 N   0  0  0  0  0  0  0  0  0  0  0  0
   44.0560   27.1640   42.4530 C   0  0  0  0  0  0  0  0  0  0  0  0
   45.1560   26.4510   42.8910 C   0  0  0  0  0  0  0  0  0  0  0  0
   44.8650   25.2140   43.4790 C   0  0  0  0  0  0  0  0  0  0  0  0
   45.8120   24.5020   43.9010 O   0  0  0  0  0  0  0  0  0  0  0  0
   43.6190   24.7260   43.6250 N   0  0  0  0  0  0  0  0  0  0  0  0
   42.5760   25.4500   43.1880 C   0  0  0  0  0  0  0  0  0  0  0  0
   41.4000   25.0270   43.3060 O   0  0  0  0  0  0  0  0  0  0  0  0
   44.2950   28.1100   42.0060 H   0  0  0  0  0  0  0  0  0  0  0  0
   46.1730   26.8050   42.7950 H   0  0  0  0  0  0  0  0  0  0  0  0
   43.4790   23.7970   44.0730 H   0  0  0  0  0  0  0  0  0  0  0  0
   41.5930   31.6080   40.7630 C   0  0  0  0  0  0  0  0  0  0  0  0
   40.6100   30.7140   41.1510 C   0  0  0  0  0  0  0  0  0  0  0  0
   39.3070   31.1900   41.2730 C   0  0  0  0  0  0  0  0  0  0  0  0
   39.0580   32.5080   41.0060 N   0  0  0  0  0  0  0  0  0  0  0  0
   40.0600   33.3360   40.6290 C   0  0  0  0  0  0  0  0  0  0  0  0
   41.3160   32.8830   40.5100 N   0  0  0  0  0  0  0  0  0  0  0  0
   42.5730   31.1080   40.7040 H   0  0  0  0  0  0  0  0  0  0  0  0
   38.4420   30.5770   41.5740 H   0  0  0  0  0  0  0  0  0  0  0  0
   39.8730   34.7150   40.3360 N   0  0  0  0  0  0  0  0  0  0  0  0
   40.9740   35.4730   40.1910 C   0  0  0  0  0  0  0  0  0  0  0  0
   40.5660   36.7600   39.9140 C   0  0  0  0  0  0  0  0  0  0  0  0
   39.2250   36.7760   39.8930 N   0  0  0  0  0  0  0  0  0  0  0  0
   38.8070   35.5240   40.1520 C   0  0  0  0  0  0  0  0  0  0  0  0
  1  5  1  0  0  0  0
  2  1  2  0  0  0  0
  2  3  1  0  0  0  0
  3  4  1  0  0  0  0
  4  6  1  0  0  0  0
  5  4  2  0  0  0  0
  6 12  1  0  0  0  0
  7  6  1  0  0  0  0
  7  8  2  0  0  0  0
  8  9  1  0  0  0  0
  9 11  1  0  0  0  0
  9 10  2  0  0  0  0
 11 16  1  0  0  0  0
 12 13  2  0  0  0  0
 12 11  1  0  0  0  0
 14  7  1  0  0  0  0
 15  8  1  0  0  0  0
 17 18  1  0  0  0  0
 18 19  2  0  0  0  0
 18  1  1  0  0  0  0
 19 24  1  0  0  0  0
 20 19  1  0  0  0  0
 21 20  2  0  0  0  0
 22 21  1  0  0  0  0
 22 17  2  0  0  0  0
 23 17  1  0  0  0  0
 25 21  1  0  0  0  0
 26 25  1  0  0  0  0
 27 26  2  0  0  0  0
 28 27  1  0  0  0  0
 28 29  2  0  0  0  0
 29 25  1  0  0  0  0
M  END
>  <minimizedAffinity>
-5.74655962

>  <minimizedRMSD>
2.74233651

$$$$
