
 OpenBabel03242509303D

 22 23  0  0  0  0  0  0  0  0999 V2000
   38.7070   27.9870   43.5810 C   0  0  0  0  0  0  0  0  0  0  0  0
   38.8570   26.5730   43.5260 C   0  0  0  0  0  0  0  0  0  0  0  0
   38.7070   25.9640   42.2840 C   0  0  0  0  0  0  0  0  0  0  0  0
   38.4230   26.7420   41.1720 N   0  0  0  0  0  0  0  0  0  0  0  0
   38.2920   28.0800   41.2900 C   0  0  0  0  0  0  0  0  0  0  0  0
   38.4330   28.6780   42.4720 N   0  0  0  0  0  0  0  0  0  0  0  0
   38.8200   28.4760   44.5350 H   0  0  0  0  0  0  0  0  0  0  0  0
   39.0790   26.0080   44.4200 H   0  0  0  0  0  0  0  0  0  0  0  0
   38.0010   28.7980   40.0940 N   0  0  0  0  0  0  0  0  0  0  0  0
   37.5620   28.1110   39.0230 C   0  0  0  0  0  3  0  0  0  0  0  0
   37.2390   28.6750   37.7920 C   0  0  0  0  0  0  0  0  0  0  0  0
   36.7610   27.7820   36.6840 C   0  0  0  0  0  1  0  0  0  0  0  0
   37.3820   30.0390   37.6750 C   0  0  0  0  0  0  0  0  0  0  0  0
   37.1000   30.5650   36.5900 O   0  0  0  0  0  0  0  0  0  0  0  0
   37.8220   30.7180   38.7570 N   0  0  0  0  0  0  0  0  0  0  0  0
   38.1280   30.1270   39.9430 C   0  0  0  0  0  0  0  0  0  0  0  0
   38.5350   30.7860   40.9330 O   0  0  0  0  0  0  0  0  0  0  0  0
   37.9240   31.7580   38.6480 H   0  0  0  0  0  0  0  0  0  0  0  0
   38.8570   24.4780   42.1800 C   0  0  0  0  0  0  0  0  0  0  0  0
   39.4420   24.2430   40.9490 F   0  0  0  0  0  0  0  0  0  0  0  0
   39.6890   23.9750   43.1460 F   0  0  0  0  0  0  0  0  0  0  0  0
   37.6310   23.8330   42.2150 F   0  0  0  0  0  0  0  0  0  0  0  0
  1  7  1  0  0  0  0
  2  1  1  0  0  0  0
  2  8  1  0  0  0  0
  3  2  2  0  0  0  0
  4  5  2  0  0  0  0
  4  3  1  0  0  0  0
  5  6  1  0  0  0  0
  6  1  2  0  0  0  0
  9  5  1  0  0  0  0
 10  9  1  0  0  0  0
 11 10  2  0  0  0  0
 12 11  1  0  0  0  0
 13 11  1  0  0  0  0
 13 15  1  0  0  0  0
 14 13  2  0  0  0  0
 15 16  1  0  0  0  0
 16  9  1  0  0  0  0
 16 17  2  0  0  0  0
 18 15  1  0  0  0  0
 19 22  1  0  0  0  0
 19  3  1  0  0  0  0
 19 21  1  0  0  0  0
 20 19  1  0  0  0  0
M  END
>  <minimizedAffinity>
-4.43964624

>  <minimizedRMSD>
2.30051708

$$$$
