
 OpenBabel03242509313D

 22 23  0  0  0  0  0  0  0  0999 V2000
   37.8400   28.7410   43.4900 C   0  0  0  0  0  0  0  0  0  0  0  0
   38.2740   27.3960   43.6500 C   0  0  0  0  0  0  0  0  0  0  0  0
   38.4010   26.6260   42.4980 C   0  0  0  0  0  0  0  0  0  0  0  0
   38.1050   27.1880   41.2650 N   0  0  0  0  0  0  0  0  0  0  0  0
   37.6960   28.4720   41.1800 C   0  0  0  0  0  0  0  0  0  0  0  0
   37.5710   29.2220   42.2740 N   0  0  0  0  0  0  0  0  0  0  0  0
   37.7370   29.3530   44.3730 H   0  0  0  0  0  0  0  0  0  0  0  0
   38.4950   27.0020   44.6320 H   0  0  0  0  0  0  0  0  0  0  0  0
   37.4160   28.9640   39.8730 N   0  0  0  0  0  0  0  0  0  0  0  0
   38.0850   28.4390   38.8300 C   0  0  0  0  0  3  0  0  0  0  0  0
   37.9170   28.8170   37.5010 C   0  0  0  0  0  0  0  0  0  0  0  0
   38.7340   28.1420   36.4410 C   0  0  0  0  0  1  0  0  0  0  0  0
   36.9920   29.8050   37.2480 C   0  0  0  0  0  0  0  0  0  0  0  0
   36.8220   30.1600   36.0740 O   0  0  0  0  0  0  0  0  0  0  0  0
   36.3260   30.3240   38.3030 N   0  0  0  0  0  0  0  0  0  0  0  0
   36.5210   29.9250   39.5880 C   0  0  0  0  0  0  0  0  0  0  0  0
   35.8850   30.4280   40.5490 O   0  0  0  0  0  0  0  0  0  0  0  0
   35.6230   31.0770   38.0900 H   0  0  0  0  0  0  0  0  0  0  0  0
   38.8560   25.2050   42.6200 C   0  0  0  0  0  0  0  0  0  0  0  0
   39.6440   24.9640   41.5080 F   0  0  0  0  0  0  0  0  0  0  0  0
   39.6270   25.0040   43.7360 F   0  0  0  0  0  0  0  0  0  0  0  0
   37.7900   24.3200   42.6030 F   0  0  0  0  0  0  0  0  0  0  0  0
  1  2  1  0  0  0  0
  1  7  1  0  0  0  0
  2  8  1  0  0  0  0
  3 19  1  0  0  0  0
  3  2  2  0  0  0  0
  4  3  1  0  0  0  0
  5  4  2  0  0  0  0
  5  6  1  0  0  0  0
  6  1  2  0  0  0  0
  9  5  1  0  0  0  0
 10  9  1  0  0  0  0
 11 10  2  0  0  0  0
 12 11  1  0  0  0  0
 13 11  1  0  0  0  0
 13 15  1  0  0  0  0
 14 13  2  0  0  0  0
 15 16  1  0  0  0  0
 16  9  1  0  0  0  0
 16 17  2  0  0  0  0
 18 15  1  0  0  0  0
 19 21  1  0  0  0  0
 20 19  1  0  0  0  0
 22 19  1  0  0  0  0
M  END
>  <minimizedAffinity>
-4.99573755

>  <minimizedRMSD>
2.02659869

$$$$
