
 OpenBabel03242509313D

 22 23  0  0  0  0  0  0  0  0999 V2000
   37.7720   28.6470   43.4310 C   0  0  0  0  0  0  0  0  0  0  0  0
   38.3330   27.3550   43.6290 C   0  0  0  0  0  0  0  0  0  0  0  0
   38.4030   26.5150   42.5210 C   0  0  0  0  0  0  0  0  0  0  0  0
   37.9340   26.9620   41.2940 N   0  0  0  0  0  0  0  0  0  0  0  0
   37.4130   28.2000   41.1730 C   0  0  0  0  0  0  0  0  0  0  0  0
   37.3390   29.0160   42.2240 N   0  0  0  0  0  0  0  0  0  0  0  0
   37.7100   29.3110   44.2790 H   0  0  0  0  0  0  0  0  0  0  0  0
   38.6860   27.0510   44.6030 H   0  0  0  0  0  0  0  0  0  0  0  0
   36.9570   28.5730   39.8760 N   0  0  0  0  0  0  0  0  0  0  0  0
   37.7300   28.2820   38.8140 C   0  0  0  0  0  3  0  0  0  0  0  0
   37.4170   28.5820   37.4910 C   0  0  0  0  0  0  0  0  0  0  0  0
   38.3770   28.1960   36.4070 C   0  0  0  0  0  1  0  0  0  0  0  0
   36.2210   29.2260   37.2670 C   0  0  0  0  0  0  0  0  0  0  0  0
   35.9170   29.5050   36.0990 O   0  0  0  0  0  0  0  0  0  0  0  0
   35.4520   29.5140   38.3400 N   0  0  0  0  0  0  0  0  0  0  0  0
   35.7980   29.2010   39.6180 C   0  0  0  0  0  0  0  0  0  0  0  0
   35.0610   29.4830   40.5970 O   0  0  0  0  0  0  0  0  0  0  0  0
   34.5440   30.0060   38.1490 H   0  0  0  0  0  0  0  0  0  0  0  0
   38.9870   25.1460   42.6830 C   0  0  0  0  0  0  0  0  0  0  0  0
   39.8270   24.9630   41.5990 F   0  0  0  0  0  0  0  0  0  0  0  0
   39.7390   25.0380   43.8240 F   0  0  0  0  0  0  0  0  0  0  0  0
   38.0100   24.1630   42.6520 F   0  0  0  0  0  0  0  0  0  0  0  0
  1  2  1  0  0  0  0
  1  7  1  0  0  0  0
  2  8  1  0  0  0  0
  3 19  1  0  0  0  0
  3  2  2  0  0  0  0
  4  3  1  0  0  0  0
  5  4  2  0  0  0  0
  5  6  1  0  0  0  0
  6  1  2  0  0  0  0
  9  5  1  0  0  0  0
 10  9  1  0  0  0  0
 11 10  2  0  0  0  0
 12 11  1  0  0  0  0
 13 11  1  0  0  0  0
 13 15  1  0  0  0  0
 14 13  2  0  0  0  0
 15 16  1  0  0  0  0
 16  9  1  0  0  0  0
 16 17  2  0  0  0  0
 18 15  1  0  0  0  0
 19 21  1  0  0  0  0
 20 19  1  0  0  0  0
 22 19  1  0  0  0  0
M  END
>  <minimizedAffinity>
-4.88511658

>  <minimizedRMSD>
1.87901127

$$$$
