
 OpenBabel03242509313D

 22 23  0  0  0  0  0  0  0  0999 V2000
   37.9410   28.5420   43.4990 C   0  0  0  0  0  0  0  0  0  0  0  0
   38.5970   27.2890   43.6530 C   0  0  0  0  0  0  0  0  0  0  0  0
   38.4400   26.3570   42.6320 C   0  0  0  0  0  0  0  0  0  0  0  0
   37.6660   26.6790   41.5270 N   0  0  0  0  0  0  0  0  0  0  0  0
   37.0680   27.8860   41.4400 C   0  0  0  0  0  0  0  0  0  0  0  0
   37.2100   28.7890   42.4090 N   0  0  0  0  0  0  0  0  0  0  0  0
   38.0520   29.2770   44.2800 H   0  0  0  0  0  0  0  0  0  0  0  0
   39.1910   27.0840   44.5320 H   0  0  0  0  0  0  0  0  0  0  0  0
   36.2940   28.1290   40.2690 N   0  0  0  0  0  0  0  0  0  0  0  0
   36.1960   27.1520   39.3490 C   0  0  0  0  0  3  0  0  0  0  0  0
   35.4770   27.2430   38.1600 C   0  0  0  0  0  0  0  0  0  0  0  0
   35.4580   26.0690   37.2260 C   0  0  0  0  0  1  0  0  0  0  0  0
   34.8200   28.4280   37.9210 C   0  0  0  0  0  0  0  0  0  0  0  0
   34.1720   28.5360   36.8700 O   0  0  0  0  0  0  0  0  0  0  0  0
   34.9250   29.4020   38.8510 N   0  0  0  0  0  0  0  0  0  0  0  0
   35.6390   29.2710   40.0020 C   0  0  0  0  0  0  0  0  0  0  0  0
   35.7180   30.1950   40.8500 O   0  0  0  0  0  0  0  0  0  0  0  0
   34.4150   30.2990   38.6510 H   0  0  0  0  0  0  0  0  0  0  0  0
   39.1140   25.0250   42.7520 C   0  0  0  0  0  0  0  0  0  0  0  0
   39.9720   24.9380   41.6710 F   0  0  0  0  0  0  0  0  0  0  0  0
   39.8630   24.9290   43.8960 F   0  0  0  0  0  0  0  0  0  0  0  0
   38.2060   23.9810   42.6790 F   0  0  0  0  0  0  0  0  0  0  0  0
  1  2  1  0  0  0  0
  1  7  1  0  0  0  0
  2  8  1  0  0  0  0
  3 19  1  0  0  0  0
  3  2  2  0  0  0  0
  4  3  1  0  0  0  0
  5  4  2  0  0  0  0
  5  6  1  0  0  0  0
  6  1  2  0  0  0  0
  9  5  1  0  0  0  0
 10  9  1  0  0  0  0
 11 10  2  0  0  0  0
 12 11  1  0  0  0  0
 13 11  1  0  0  0  0
 13 15  1  0  0  0  0
 14 13  2  0  0  0  0
 15 16  1  0  0  0  0
 16  9  1  0  0  0  0
 16 17  2  0  0  0  0
 18 15  1  0  0  0  0
 19 21  1  0  0  0  0
 20 19  1  0  0  0  0
 22 19  1  0  0  0  0
M  END
>  <minimizedAffinity>
-4.90657616

>  <minimizedRMSD>
1.85092115

$$$$
