
 OpenBabel03242507103D

 26 28  0  0  0  0  0  0  0  0999 V2000
   37.3910   28.3740   41.5530 N   0  0  0  0  0  0  0  0  0  0  0  0
   37.5550   27.2720   42.3180 C   0  0  0  0  0  0  0  0  0  0  0  0
   38.5540   27.6480   43.2230 C   0  0  0  0  0  0  0  0  0  0  0  0
   38.9590   28.9370   42.9870 N   0  0  0  0  0  0  0  0  0  0  0  0
   38.2150   29.3390   41.9510 C   0  0  0  0  0  0  0  0  0  0  0  0
   37.0630   26.3120   42.2830 H   0  0  0  0  0  0  0  0  0  0  0  0
   38.9070   26.9450   43.9870 H   0  0  0  0  0  0  0  0  0  0  0  0
   38.4700   30.6700   41.5160 N   0  0  0  0  0  0  0  0  0  0  0  0
   37.7280   31.3550   40.5940 C   0  0  0  0  0  0  0  0  0  0  0  0
   38.0430   32.6410   40.2360 C   0  0  0  0  0  0  0  0  0  0  0  0
   37.1680   33.3100   39.2160 C   0  0  0  0  0  0  0  0  0  0  0  0
   39.1190   33.3070   40.7840 C   0  0  0  0  0  0  0  0  0  0  0  0
   39.3770   34.4860   40.4320 O   0  0  0  0  0  0  0  0  0  0  0  0
   39.8530   32.6390   41.6910 N   0  0  0  0  0  0  0  0  0  0  0  0
   39.5160   31.3990   42.0090 C   0  0  0  0  0  0  0  0  0  0  0  0
   40.2270   30.7830   42.8730 O   0  0  0  0  0  0  0  0  0  0  0  0
   40.6800   33.0890   42.1410 H   0  0  0  0  0  0  0  0  0  0  0  0
   35.2080   29.0300   40.6770 C   0  0  0  0  0  0  0  0  0  0  0  0
   36.4820   28.4710   40.5030 C   0  0  0  0  0  0  0  0  0  0  0  0
   36.8150   27.9980   39.2030 C   0  0  0  0  0  0  0  0  0  0  0  0
   35.8900   28.1140   38.2100 N   0  0  0  0  0  0  0  0  0  0  0  0
   34.6550   28.6680   38.4270 C   0  0  0  0  0  0  0  0  0  0  0  0
   34.3090   29.1310   39.6670 N   0  0  0  0  0  0  0  0  0  0  0  0
   34.8600   29.4080   41.6080 H   0  0  0  0  0  0  0  0  0  0  0  0
   37.7780   27.5570   39.0000 H   0  0  0  0  0  0  0  0  0  0  0  0
   33.9400   28.7470   37.6200 H   0  0  0  0  0  0  0  0  0  0  0  0
  1  5  1  0  0  0  0
  1  2  1  0  0  0  0
  2  3  2  0  0  0  0
  3  7  1  0  0  0  0
  4  3  1  0  0  0  0
  5  4  2  0  0  0  0
  6  2  1  0  0  0  0
  8  5  1  0  0  0  0
  8 15  1  0  0  0  0
  9  8  1  0  0  0  0
 10  9  2  0  0  0  0
 10 12  1  0  0  0  0
 11 10  1  0  0  0  0
 12 14  1  0  0  0  0
 13 12  2  0  0  0  0
 14 15  1  0  0  0  0
 14 17  1  0  0  0  0
 15 16  2  0  0  0  0
 18 24  1  0  0  0  0
 19 18  1  0  0  0  0
 19  1  1  0  0  0  0
 20 19  2  0  0  0  0
 21 22  2  0  0  0  0
 21 20  1  0  0  0  0
 22 23  1  0  0  0  0
 23 18  2  0  0  0  0
 25 20  1  0  0  0  0
 26 22  1  0  0  0  0
M  END
>  <minimizedAffinity>
-5.58791065

>  <minimizedRMSD>
2.9663837

$$$$
