
 OpenBabel03242509263D

 49 53  0  0  0  0  0  0  0  0999 V2000
   38.5790   28.1320   42.6890 C   0  0  0  0  0  0  0  0  0  0  0  0
   37.4990   27.2790   42.7460 C   0  0  0  0  0  0  0  0  0  0  0  0
   36.4390   27.9510   42.1330 C   0  0  0  0  0  0  0  0  0  0  0  0
   36.9540   29.1310   41.7620 N   0  0  0  0  0  0  0  0  0  0  0  0
   38.2020   29.2680   42.0730 N   0  0  0  0  0  0  0  0  0  0  0  0
   37.4920   26.2890   43.1850 H   0  0  0  0  0  0  0  0  0  0  0  0
   35.4600   27.5000   42.0410 H   0  0  0  0  0  0  0  0  0  0  0  0
   41.5200   26.4100   44.1880 C   0  0  0  0  0  0  0  0  0  0  0  0
   40.2220   26.5830   43.7230 C   0  0  0  0  0  0  0  0  0  0  0  0
   39.9060   27.8670   43.2000 C   0  0  0  0  0  0  0  0  0  0  0  0
   40.8510   28.8510   43.1730 N   0  0  0  0  0  0  0  0  0  0  0  0
   42.1120   28.5880   43.6570 C   0  0  0  0  0  0  0  0  0  0  0  0
   42.4340   27.3840   44.1550 N   0  0  0  0  0  0  0  0  0  0  0  0
   41.8180   25.4460   44.5990 H   0  0  0  0  0  0  0  0  0  0  0  0
   39.4920   25.7950   43.7530 H   0  0  0  0  0  0  0  0  0  0  0  0
   43.0600   29.6460   43.6060 N   0  0  0  0  0  0  0  0  0  0  0  0
   42.5960   30.7280   42.9140 C   0  0  0  0  0  3  0  0  0  0  0  0
   43.3660   31.8440   42.7580 C   0  0  0  0  0  0  0  0  0  0  0  0
   42.8720   33.0380   42.0010 C   0  0  0  0  0  1  0  0  0  0  0  0
   44.6260   31.8560   43.3160 C   0  0  0  0  0  0  0  0  0  0  0  0
   45.4040   32.8570   43.2150 O   0  0  0  0  0  0  0  0  0  0  0  0
   45.0600   30.7830   43.9920 N   0  0  0  0  0  0  0  0  0  0  0  0
   44.2970   29.6850   44.1430 C   0  0  0  0  0  0  0  0  0  0  0  0
   44.5920   28.6240   44.7520 O   0  0  0  0  0  0  0  0  0  0  0  0
   46.0080   30.7340   44.4390 H   0  0  0  0  0  0  0  0  0  0  0  0
   36.1210   30.0750   41.0980 C   0  0  0  0  0  0  0  0  0  0  0  0
   35.5160   30.5760   41.9000 H   0  0  0  0  0  0  0  0  0  0  0  0
   36.7380   30.8820   40.6430 H   0  0  0  0  0  0  0  0  0  0  0  0
   35.2380   29.5150   40.0280 C   0  0  0  0  0  0  0  0  0  0  0  0
   34.5330   30.4060   39.8980 H   0  0  0  0  0  0  0  0  0  0  0  0
   34.7540   28.6180   40.3880 H   0  0  0  0  0  0  0  0  0  0  0  0
   35.8640   29.4260   38.6890 C   0  0  0  0  0  0  0  0  0  0  0  0
   37.1870   29.5670   38.3770 C   0  0  0  0  0  0  0  0  0  0  0  0
   37.7200   29.5560   37.1210 C   0  0  0  0  0  0  0  0  0  0  0  0
   36.8870   29.3940   36.0380 C   0  0  0  0  0  0  0  0  0  0  0  0
   35.5330   29.2440   36.2790 C   0  0  0  0  0  0  0  0  0  0  0  0
   34.7480   29.0930   35.1660 C   0  0  0  0  0  0  0  0  0  0  0  0
   33.4000   28.9420   35.3030 C   0  0  0  0  0  0  0  0  0  0  0  0
   32.8420   28.9390   36.5600 C   0  0  0  0  0  0  0  0  0  0  0  0
   33.6760   29.0930   37.6370 C   0  0  0  0  0  0  0  0  0  0  0  0
   35.0210   29.2560   37.5770 C   0  0  0  0  0  0  0  0  0  0  0  0
   37.8490   29.6970   39.2340 H   0  0  0  0  0  0  0  0  0  0  0  0
   38.7890   29.6780   37.0270 H   0  0  0  0  0  0  0  0  0  0  0  0
   37.3130   29.3880   35.0450 H   0  0  0  0  0  0  0  0  0  0  0  0
   35.1550   29.0890   34.1590 H   0  0  0  0  0  0  0  0  0  0  0  0
   32.7360   28.8210   34.4470 H   0  0  0  0  0  0  0  0  0  0  0  0
   31.7740   28.8170   36.6700 H   0  0  0  0  0  0  0  0  0  0  0  0
   33.0590   29.0620   38.8800 O   0  0  0  0  0  0  0  0  0  0  0  0
   32.3330   29.7080   39.1570 H   0  0  0  0  0  0  0  0  0  0  0  0
  1  2  1  0  0  0  0
  1 10  1  0  0  0  0
  2  6  1  0  0  0  0
  3  2  2  0  0  0  0
  4  5  1  0  0  0  0
  4  3  1  0  0  0  0
  5  1  2  0  0  0  0
  7  3  1  0  0  0  0
  8 14  1  0  0  0  0
  9 15  1  0  0  0  0
  9  8  2  0  0  0  0
 10  9  1  0  0  0  0
 11 10  2  0  0  0  0
 11 12  1  0  0  0  0
 12 13  2  0  0  0  0
 13  8  1  0  0  0  0
 16 12  1  0  0  0  0
 16 23  1  0  0  0  0
 17 16  1  0  0  0  0
 18 17  2  0  0  0  0
 18 20  1  0  0  0  0
 19 18  1  0  0  0  0
 20 22  1  0  0  0  0
 21 20  2  0  0  0  0
 22 23  1  0  0  0  0
 22 25  1  0  0  0  0
 23 24  2  0  0  0  0
 26  4  1  0  0  0  0
 26 27  1  0  0  0  0
 28 26  1  0  0  0  0
 29 31  1  0  0  0  0
 29 26  1  0  0  0  0
 30 29  1  0  0  0  0
 32 29  1  0  0  0  0
 33 32  1  0  0  0  0
 33 42  1  0  0  0  0
 34 33  2  0  0  0  0
 35 36  2  0  0  0  0
 35 34  1  0  0  0  0
 36 41  1  0  0  0  0
 37 38  2  0  0  0  0
 37 36  1  0  0  0  0
 38 39  1  0  0  0  0
 39 47  1  0  0  0  0
 39 40  2  0  0  0  0
 40 48  1  0  0  0  0
 41 40  1  0  0  0  0
 41 32  2  0  0  0  0
 43 34  1  0  0  0  0
 44 35  1  0  0  0  0
 45 37  1  0  0  0  0
 46 38  1  0  0  0  0
 48 49  1  0  0  0  0
M  END
>  <minimizedAffinity>
-6.63034153

>  <minimizedRMSD>
0.562886894

$$$$
