
 OpenBabel03242509313D

 22 23  0  0  0  0  0  0  0  0999 V2000
   37.5390   28.7410   43.4190 C   0  0  0  0  0  0  0  0  0  0  0  0
   38.1480   27.4770   43.6540 C   0  0  0  0  0  0  0  0  0  0  0  0
   38.4620   26.7040   42.5400 C   0  0  0  0  0  0  0  0  0  0  0  0
   38.1750   27.1860   41.2710 N   0  0  0  0  0  0  0  0  0  0  0  0
   37.5950   28.3950   41.1150 C   0  0  0  0  0  0  0  0  0  0  0  0
   37.2890   29.1470   42.1720 N   0  0  0  0  0  0  0  0  0  0  0  0
   37.2890   29.3530   44.2710 H   0  0  0  0  0  0  0  0  0  0  0  0
   38.3540   27.1440   44.6600 H   0  0  0  0  0  0  0  0  0  0  0  0
   37.3370   28.8080   39.7760 N   0  0  0  0  0  0  0  0  0  0  0  0
   37.9250   29.9300   39.3240 C   0  0  0  0  0  3  0  0  0  0  0  0
   37.7680   30.4540   38.0440 C   0  0  0  0  0  0  0  0  0  0  0  0
   38.4890   31.7170   37.6790 C   0  0  0  0  0  1  0  0  0  0  0  0
   36.9450   29.7600   37.1860 C   0  0  0  0  0  0  0  0  0  0  0  0
   36.7880   30.2050   36.0400 O   0  0  0  0  0  0  0  0  0  0  0  0
   36.3590   28.6340   37.6500 N   0  0  0  0  0  0  0  0  0  0  0  0
   36.5410   28.1580   38.9100 C   0  0  0  0  0  0  0  0  0  0  0  0
   35.9820   27.1070   39.3140 O   0  0  0  0  0  0  0  0  0  0  0  0
   35.7350   28.1200   36.9800 H   0  0  0  0  0  0  0  0  0  0  0  0
   39.1050   25.3670   42.7400 C   0  0  0  0  0  0  0  0  0  0  0  0
   40.0220   25.2320   41.7130 F   0  0  0  0  0  0  0  0  0  0  0  0
   39.7870   25.2960   43.9270 F   0  0  0  0  0  0  0  0  0  0  0  0
   38.1850   24.3350   42.6480 F   0  0  0  0  0  0  0  0  0  0  0  0
  1  2  1  0  0  0  0
  1  7  1  0  0  0  0
  2  8  1  0  0  0  0
  3 19  1  0  0  0  0
  3  2  2  0  0  0  0
  4  3  1  0  0  0  0
  5  4  2  0  0  0  0
  5  6  1  0  0  0  0
  6  1  2  0  0  0  0
  9  5  1  0  0  0  0
 10  9  1  0  0  0  0
 11 10  2  0  0  0  0
 12 11  1  0  0  0  0
 13 15  1  0  0  0  0
 13 11  1  0  0  0  0
 14 13  2  0  0  0  0
 15 16  1  0  0  0  0
 16 17  2  0  0  0  0
 16  9  1  0  0  0  0
 18 15  1  0  0  0  0
 19 21  1  0  0  0  0
 20 19  1  0  0  0  0
 22 19  1  0  0  0  0
M  END
>  <minimizedAffinity>
-4.90155315

>  <minimizedRMSD>
2.05415344

$$$$
