
 OpenBabel03242509263D

 49 53  0  0  0  0  0  0  0  0999 V2000
   38.6950   28.1510   42.7050 C   0  0  0  0  0  0  0  0  0  0  0  0
   37.5910   27.3550   42.9170 C   0  0  0  0  0  0  0  0  0  0  0  0
   36.5110   28.0240   42.3370 C   0  0  0  0  0  0  0  0  0  0  0  0
   37.0390   29.1460   41.8310 N   0  0  0  0  0  0  0  0  0  0  0  0
   38.3130   29.2510   42.0300 N   0  0  0  0  0  0  0  0  0  0  0  0
   37.5820   26.4030   43.4340 H   0  0  0  0  0  0  0  0  0  0  0  0
   35.5110   27.6120   42.3600 H   0  0  0  0  0  0  0  0  0  0  0  0
   41.6310   26.5720   44.3640 C   0  0  0  0  0  0  0  0  0  0  0  0
   40.3020   26.7800   44.0100 C   0  0  0  0  0  0  0  0  0  0  0  0
   40.0480   27.8670   43.1290 C   0  0  0  0  0  0  0  0  0  0  0  0
   41.0760   28.6420   42.6770 N   0  0  0  0  0  0  0  0  0  0  0  0
   42.3610   28.3600   43.0820 C   0  0  0  0  0  0  0  0  0  0  0  0
   42.6260   27.3400   43.9130 N   0  0  0  0  0  0  0  0  0  0  0  0
   41.8830   25.7530   45.0370 H   0  0  0  0  0  0  0  0  0  0  0  0
   39.5070   26.1590   44.3780 H   0  0  0  0  0  0  0  0  0  0  0  0
   43.3970   29.1970   42.5830 N   0  0  0  0  0  0  0  0  0  0  0  0
   43.3110   30.4720   43.0620 C   0  0  0  0  0  3  0  0  0  0  0  0
   44.2190   31.4230   42.6950 C   0  0  0  0  0  0  0  0  0  0  0  0
   44.1390   32.8260   43.2110 C   0  0  0  0  0  1  0  0  0  0  0  0
   45.2280   31.0650   41.8270 C   0  0  0  0  0  0  0  0  0  0  0  0
   46.1130   31.8920   41.4370 O   0  0  0  0  0  0  0  0  0  0  0  0
   45.2930   29.8070   41.3690 N   0  0  0  0  0  0  0  0  0  0  0  0
   44.3950   28.8740   41.7340 C   0  0  0  0  0  0  0  0  0  0  0  0
   44.3510   27.6690   41.3750 O   0  0  0  0  0  0  0  0  0  0  0  0
   46.0360   29.4770   40.7080 H   0  0  0  0  0  0  0  0  0  0  0  0
   36.1920   30.0730   41.1600 C   0  0  0  0  0  0  0  0  0  0  0  0
   35.5890   30.5800   41.9600 H   0  0  0  0  0  0  0  0  0  0  0  0
   36.7970   30.8780   40.6870 H   0  0  0  0  0  0  0  0  0  0  0  0
   35.3040   29.4880   40.1070 C   0  0  0  0  0  0  0  0  0  0  0  0
   34.5820   30.3650   39.9790 H   0  0  0  0  0  0  0  0  0  0  0  0
   34.8410   28.5850   40.4800 H   0  0  0  0  0  0  0  0  0  0  0  0
   35.9130   29.3990   38.7600 C   0  0  0  0  0  0  0  0  0  0  0  0
   37.2340   29.5250   38.4330 C   0  0  0  0  0  0  0  0  0  0  0  0
   37.7520   29.5150   37.1710 C   0  0  0  0  0  0  0  0  0  0  0  0
   36.9040   29.3710   36.0970 C   0  0  0  0  0  0  0  0  0  0  0  0
   35.5520   29.2370   36.3530 C   0  0  0  0  0  0  0  0  0  0  0  0
   34.7510   29.1030   35.2480 C   0  0  0  0  0  0  0  0  0  0  0  0
   33.4030   28.9680   35.4000 C   0  0  0  0  0  0  0  0  0  0  0  0
   32.8610   28.9650   36.6640 C   0  0  0  0  0  0  0  0  0  0  0  0
   33.7090   29.1010   37.7320 C   0  0  0  0  0  0  0  0  0  0  0  0
   35.0550   29.2480   37.6570 C   0  0  0  0  0  0  0  0  0  0  0  0
   37.9080   29.6410   39.2840 H   0  0  0  0  0  0  0  0  0  0  0  0
   38.8220   29.6240   37.0650 H   0  0  0  0  0  0  0  0  0  0  0  0
   37.3180   29.3650   35.0990 H   0  0  0  0  0  0  0  0  0  0  0  0
   35.1470   29.1000   34.2370 H   0  0  0  0  0  0  0  0  0  0  0  0
   32.7280   28.8610   34.5520 H   0  0  0  0  0  0  0  0  0  0  0  0
   31.7920   28.8550   36.7850 H   0  0  0  0  0  0  0  0  0  0  0  0
   33.1060   29.0710   38.9810 O   0  0  0  0  0  0  0  0  0  0  0  0
   32.3920   29.7240   39.2710 H   0  0  0  0  0  0  0  0  0  0  0  0
  1  2  1  0  0  0  0
  1 10  1  0  0  0  0
  2  6  1  0  0  0  0
  3  7  1  0  0  0  0
  3  2  2  0  0  0  0
  4  5  1  0  0  0  0
  4  3  1  0  0  0  0
  5  1  2  0  0  0  0
  8 14  1  0  0  0  0
  9  8  1  0  0  0  0
  9 15  1  0  0  0  0
 10  9  2  0  0  0  0
 11 12  2  0  0  0  0
 11 10  1  0  0  0  0
 12 13  1  0  0  0  0
 13  8  2  0  0  0  0
 16 17  1  0  0  0  0
 16 12  1  0  0  0  0
 18 17  2  0  0  0  0
 18 19  1  0  0  0  0
 20 18  1  0  0  0  0
 21 20  2  0  0  0  0
 22 23  1  0  0  0  0
 22 20  1  0  0  0  0
 23 16  1  0  0  0  0
 24 23  2  0  0  0  0
 25 22  1  0  0  0  0
 26  4  1  0  0  0  0
 26 27  1  0  0  0  0
 28 26  1  0  0  0  0
 29 31  1  0  0  0  0
 29 26  1  0  0  0  0
 30 29  1  0  0  0  0
 32 29  1  0  0  0  0
 33 32  1  0  0  0  0
 33 42  1  0  0  0  0
 34 33  2  0  0  0  0
 35 36  2  0  0  0  0
 35 34  1  0  0  0  0
 36 41  1  0  0  0  0
 37 38  2  0  0  0  0
 37 36  1  0  0  0  0
 38 39  1  0  0  0  0
 39 47  1  0  0  0  0
 39 40  2  0  0  0  0
 40 48  1  0  0  0  0
 41 40  1  0  0  0  0
 41 32  2  0  0  0  0
 43 34  1  0  0  0  0
 44 35  1  0  0  0  0
 45 37  1  0  0  0  0
 46 38  1  0  0  0  0
 48 49  1  0  0  0  0
M  END
>  <minimizedAffinity>
-6.32034302

>  <minimizedRMSD>
0.446298271

$$$$
