
 OpenBabel03242509093D

 40 44  0  0  1  0  0  0  0  0999 V2000
   36.2340   30.4640   41.4200 C   0  0  0  0  0  0  0  0  0  0  0  0
   37.0850   29.5970   42.1280 C   0  0  0  0  0  0  0  0  0  0  0  0
   38.2420   29.1280   41.4910 C   0  0  0  0  0  0  0  0  0  0  0  0
   38.4480   29.5580   40.2240 N   0  0  0  0  0  0  0  0  0  0  0  0
   37.6260   30.3850   39.5590 C   0  0  0  0  0  0  0  0  0  0  0  0
   36.5080   30.8430   40.1630 N   0  0  0  0  0  0  0  0  0  0  0  0
   35.3450   30.8120   41.9340 H   0  0  0  0  0  0  0  0  0  0  0  0
   36.8920   29.2700   43.1500 H   0  0  0  0  0  0  0  0  0  0  0  0
   39.1070   28.2310   42.2070 C   0  0  0  0  0  0  0  0  0  0  0  0
   40.2450   28.5380   42.9140 C   0  0  0  0  0  0  0  0  0  0  0  0
   40.7770   27.4270   43.4350 N   0  0  0  0  0  0  0  0  0  0  0  0
   40.0300   26.3700   43.1020 C   0  0  0  0  0  0  0  0  0  0  0  0
   40.0900   24.9890   43.3570 C   0  0  0  0  0  0  0  0  0  0  0  0
   39.1340   24.1010   42.8650 C   0  0  0  0  0  0  0  0  0  0  0  0
   38.1110   24.6450   42.1050 C   0  0  0  0  0  0  0  0  0  0  0  0
   38.0340   25.9830   41.8450 C   0  0  0  0  0  0  0  0  0  0  0  0
   38.9810   26.8610   42.3330 C   0  0  0  0  0  0  0  0  0  0  0  0
   40.7120   29.4680   43.0890 H   0  0  0  0  0  0  0  0  0  0  0  0
   41.6350   27.2890   44.0240 H   0  0  0  0  0  0  0  0  0  0  0  0
   40.9160   24.6440   43.9570 H   0  0  0  0  0  0  0  0  0  0  0  0
   39.2700   23.0660   43.1170 H   0  0  0  0  0  0  0  0  0  0  0  0
   37.4070   23.9030   41.7560 H   0  0  0  0  0  0  0  0  0  0  0  0
   37.2410   26.3690   41.2600 H   0  0  0  0  0  0  0  0  0  0  0  0
   37.9640   30.7970   38.1700 C   0  0  1  0  0  0  0  0  0  0  0  0
   37.6750   32.2290   37.7570 C   0  0  0  0  0  0  0  0  0  0  0  0
   39.0760   31.7520   37.9360 C   0  0  1  0  0  0  0  0  0  0  0  0
   37.6950   30.0700   37.3650 H   0  0  0  0  0  0  0  0  0  0  0  0
   37.0910   32.7610   38.4980 H   0  0  0  0  0  0  0  0  0  0  0  0
   37.3580   32.4430   36.7150 H   0  0  0  0  0  0  0  0  0  0  0  0
   39.6380   31.5720   36.9610 H   0  0  0  0  0  0  0  0  0  0  0  0
   39.8130   32.4240   38.9670 N   0  0  0  0  0  0  0  0  0  0  0  0
   41.0720   31.9380   38.9930 C   0  0  0  0  0  0  0  0  0  0  0  0
   42.0370   32.4190   39.8790 C   0  0  0  0  0  0  0  0  0  0  0  0
   43.4380   31.9540   39.9840 C   0  0  0  0  0  0  0  0  0  0  0  0
   41.6970   33.4400   40.7750 C   0  0  0  0  0  0  0  0  0  0  0  0
   42.4720   33.9530   41.6120 O   0  0  0  0  0  0  0  0  0  0  0  0
   40.4300   33.8880   40.7070 N   0  0  0  0  0  0  0  0  0  0  0  0
   39.5270   33.4030   39.8420 C   0  0  0  0  0  0  0  0  0  0  0  0
   38.3400   33.8010   39.7570 O   0  0  0  0  0  0  0  0  0  0  0  0
   40.0560   34.6390   41.3150 H   0  0  0  0  0  0  0  0  0  0  0  0
  1  7  1  0  0  0  0
  1  2  1  0  0  0  0
  2  8  1  0  0  0  0
  3  2  2  0  0  0  0
  3  9  1  0  0  0  0
  4  3  1  0  0  0  0
  5  6  1  0  0  0  0
  5  4  2  0  0  0  0
  6  1  2  0  0  0  0
  9 17  1  0  0  0  0
  9 10  2  0  0  0  0
 10 18  1  0  0  0  0
 10 11  1  0  0  0  0
 11 19  1  0  0  0  0
 12 13  1  0  0  0  0
 12 11  1  0  0  0  0
 13 20  1  0  0  0  0
 14 21  1  0  0  0  0
 14 13  2  0  0  0  0
 15 14  1  0  0  0  0
 16 15  2  0  0  0  0
 16 17  1  0  0  0  0
 17 12  2  0  0  0  0
 22 15  1  0  0  0  0
 23 16  1  0  0  0  0
 24 27  1  6  0  0  0
 24  5  1  0  0  0  0
 25 26  1  0  0  0  0
 25 24  1  0  0  0  0
 25 28  1  0  0  0  0
 26 30  1  6  0  0  0
 26 24  1  0  0  0  0
 26 31  1  0  0  0  0
 29 25  1  0  0  0  0
 31 32  1  0  0  0  0
 31 38  1  0  0  0  0
 32 33  2  0  0  0  0
 33 34  1  0  0  0  0
 33 35  1  0  0  0  0
 35 36  2  0  0  0  0
 37 35  1  0  0  0  0
 37 40  1  0  0  0  0
 38 37  1  0  0  0  0
 39 38  2  0  0  0  0
M  END
>  <minimizedAffinity>
-6.13625717

>  <minimizedRMSD>
2.61546922

$$$$
