
 OpenBabel03242509243D

 41 44  0  0  0  0  0  0  0  0999 V2000
   35.2730   29.4960   40.0800 C   0  0  0  0  0  0  0  0  0  0  0  0
   34.8060   28.5910   40.4430 H   0  0  0  0  0  0  0  0  0  0  0  0
   34.5560   30.3780   39.9590 H   0  0  0  0  0  0  0  0  0  0  0  0
   35.8890   29.4190   38.7360 C   0  0  0  0  0  0  0  0  0  0  0  0
   37.2080   29.5540   38.4100 C   0  0  0  0  0  0  0  0  0  0  0  0
   37.7280   29.5400   37.1490 C   0  0  0  0  0  0  0  0  0  0  0  0
   36.8880   29.3810   36.0760 C   0  0  0  0  0  0  0  0  0  0  0  0
   35.5370   29.2380   36.3290 C   0  0  0  0  0  0  0  0  0  0  0  0
   34.7390   29.0860   35.2230 C   0  0  0  0  0  0  0  0  0  0  0  0
   33.3950   28.9370   35.3570 C   0  0  0  0  0  0  0  0  0  0  0  0
   32.8480   28.9390   36.6350 C   0  0  0  0  0  0  0  0  0  0  0  0
   33.6880   29.0930   37.6960 C   0  0  0  0  0  0  0  0  0  0  0  0
   35.0330   29.2520   37.6290 C   0  0  0  0  0  0  0  0  0  0  0  0
   37.8740   29.6810   39.2670 H   0  0  0  0  0  0  0  0  0  0  0  0
   38.7960   29.6580   37.0510 H   0  0  0  0  0  0  0  0  0  0  0  0
   37.3080   29.3740   35.0800 H   0  0  0  0  0  0  0  0  0  0  0  0
   35.1420   29.0800   34.2170 H   0  0  0  0  0  0  0  0  0  0  0  0
   32.7320   28.8170   34.5100 H   0  0  0  0  0  0  0  0  0  0  0  0
   31.7790   28.8180   36.7430 H   0  0  0  0  0  0  0  0  0  0  0  0
   33.0810   29.0710   38.9390 O   0  0  0  0  0  0  0  0  0  0  0  0
   32.1200   29.3550   39.1110 H   0  0  0  0  0  0  0  0  0  0  0  0
   36.1610   30.0670   41.1380 C   0  0  0  0  0  0  0  0  0  0  0  0
   36.7550   30.8920   40.6760 H   0  0  0  0  0  0  0  0  0  0  0  0
   35.5530   30.5670   41.9470 H   0  0  0  0  0  0  0  0  0  0  0  0
   38.6460   28.1530   42.7140 C   0  0  0  0  0  0  0  0  0  0  0  0
   37.5560   27.3290   42.8550 C   0  0  0  0  0  0  0  0  0  0  0  0
   36.4810   27.9900   42.2550 C   0  0  0  0  0  0  0  0  0  0  0  0
   37.0070   29.1430   41.8070 N   0  0  0  0  0  0  0  0  0  0  0  0
   38.2640   29.2720   42.0570 N   0  0  0  0  0  0  0  0  0  0  0  0
   37.6040   26.3730   43.3480 H   0  0  0  0  0  0  0  0  0  0  0  0
   35.5160   27.5280   42.2450 H   0  0  0  0  0  0  0  0  0  0  0  0
   41.5700   26.5370   44.3680 C   0  0  0  0  0  0  0  0  0  0  0  0
   40.2550   26.7410   43.9350 C   0  0  0  0  0  0  0  0  0  0  0  0
   39.9900   27.8940   43.1840 C   0  0  0  0  0  0  0  0  0  0  0  0
   40.9910   28.7620   42.9050 N   0  0  0  0  0  0  0  0  0  0  0  0
   42.2590   28.5130   43.3550 C   0  0  0  0  0  0  0  0  0  0  0  0
   42.5350   27.4130   44.0760 N   0  0  0  0  0  0  0  0  0  0  0  0
   41.8500   25.6690   44.9520 H   0  0  0  0  0  0  0  0  0  0  0  0
   39.4960   26.0260   44.1800 H   0  0  0  0  0  0  0  0  0  0  0  0
   43.2010   29.4660   43.0100 O   0  0  0  0  0  0  0  0  0  0  0  0
   43.0090   30.4490   42.9750 H   0  0  0  0  0  0  0  0  0  0  0  0
  1  2  1  0  0  0  0
  1 22  1  0  0  0  0
  3  1  1  0  0  0  0
  4  1  1  0  0  0  0
  5  4  1  0  0  0  0
  5 14  1  0  0  0  0
  6  5  2  0  0  0  0
  7  8  2  0  0  0  0
  7  6  1  0  0  0  0
  8 13  1  0  0  0  0
  9 10  2  0  0  0  0
  9  8  1  0  0  0  0
 10 11  1  0  0  0  0
 11 19  1  0  0  0  0
 11 12  2  0  0  0  0
 12 20  1  0  0  0  0
 13 12  1  0  0  0  0
 13  4  2  0  0  0  0
 15  6  1  0  0  0  0
 16  7  1  0  0  0  0
 17  9  1  0  0  0  0
 18 10  1  0  0  0  0
 20 21  1  0  0  0  0
 22 28  1  0  0  0  0
 22 24  1  0  0  0  0
 23 22  1  0  0  0  0
 25 26  1  0  0  0  0
 25 34  1  0  0  0  0
 26 30  1  0  0  0  0
 27 26  2  0  0  0  0
 28 29  1  0  0  0  0
 28 27  1  0  0  0  0
 29 25  2  0  0  0  0
 31 27  1  0  0  0  0
 32 38  1  0  0  0  0
 33 39  1  0  0  0  0
 33 32  2  0  0  0  0
 34 33  1  0  0  0  0
 35 34  2  0  0  0  0
 35 36  1  0  0  0  0
 36 37  2  0  0  0  0
 37 32  1  0  0  0  0
 40 36  1  0  0  0  0
 41 40  1  0  0  0  0
M  END
>  <minimizedAffinity>
-5.85272264

>  <minimizedRMSD>
0.0319042541

$$$$
