
 OpenBabel03242508473D

 32 34  0  0  1  0  0  0  0  0999 V2000
   38.3440   26.9140   42.8490 C   0  0  2  0  0  0  0  0  0  0  0  0
   39.4470   26.9680   43.7930 C   0  0  0  0  0  0  0  0  0  0  0  0
   40.0520   25.5670   43.7790 C   0  0  0  0  0  0  0  0  0  0  0  0
   39.4850   24.8790   42.5670 C   0  0  0  0  0  0  0  0  0  0  0  0
   38.8210   25.9660   41.7440 C   0  0  1  0  0  0  0  0  0  0  0  0
   37.4690   26.3610   43.3010 H   0  0  0  0  0  0  0  0  0  0  0  0
   39.0540   27.1070   44.8410 H   0  0  0  0  0  0  0  0  0  0  0  0
   40.2570   27.6890   43.5790 H   0  0  0  0  0  0  0  0  0  0  0  0
   39.8950   25.0200   44.7090 H   0  0  0  0  0  0  0  0  0  0  0  0
   41.1490   25.6200   43.6220 H   0  0  0  0  0  0  0  0  0  0  0  0
   38.7610   24.1340   42.9510 H   0  0  0  0  0  0  0  0  0  0  0  0
   40.2290   24.3110   41.9750 H   0  0  0  0  0  0  0  0  0  0  0  0
   39.4830   26.4570   41.0440 H   0  0  0  0  0  0  0  0  0  0  0  0
   38.6880   29.3320   42.1600 C   0  0  0  0  0  0  0  0  0  0  0  0
   37.8610   28.1730   42.3090 C   0  0  0  0  0  0  0  0  0  0  0  0
   36.5330   28.2260   41.9150 C   0  0  0  0  0  0  0  0  0  0  0  0
   36.0740   29.4180   41.3890 N   0  0  0  0  0  0  0  0  0  0  0  0
   36.8890   30.5250   41.2540 C   0  0  0  0  0  0  0  0  0  0  0  0
   38.2140   30.4660   41.6500 N   0  0  0  0  0  0  0  0  0  0  0  0
   39.7230   29.3010   42.4630 H   0  0  0  0  0  0  0  0  0  0  0  0
   35.8620   27.4060   41.9960 H   0  0  0  0  0  0  0  0  0  0  0  0
   36.2290   31.6160   40.7060 O   0  0  0  0  0  0  0  0  0  0  0  0
   35.2890   31.8870   41.0100 H   0  0  0  0  0  0  0  0  0  0  0  0
   37.7120   25.2150   41.0830 C   0  0  0  0  0  0  0  0  0  0  0  0
   36.9800   24.2820   41.7390 N   0  0  0  0  0  0  0  0  0  0  0  0
   36.0920   23.8170   40.8860 O   0  0  0  0  0  0  0  0  0  0  0  0
   36.2540   24.4290   39.7390 C   0  0  0  0  0  0  0  0  0  0  0  0
   37.2560   25.3090   39.8220 N   0  0  0  0  0  0  0  0  0  0  0  0
   35.3860   24.1150   38.5540 C   0  0  0  0  0  0  0  0  0  0  0  0
   34.2970   23.3860   38.9740 F   0  0  0  0  0  0  0  0  0  0  0  0
   34.9720   25.2830   37.9380 F   0  0  0  0  0  0  0  0  0  0  0  0
   36.0990   23.3570   37.6310 F   0  0  0  0  0  0  0  0  0  0  0  0
  1  6  1  1  0  0  0
  1  2  1  0  0  0  0
  2  7  1  0  0  0  0
  3  2  1  0  0  0  0
  3  9  1  0  0  0  0
  4 11  1  0  0  0  0
  4  3  1  0  0  0  0
  5 13  1  6  0  0  0
  5  4  1  0  0  0  0
  5  1  1  0  0  0  0
  8  2  1  0  0  0  0
 10  3  1  0  0  0  0
 12  4  1  0  0  0  0
 14 15  1  0  0  0  0
 14 20  1  0  0  0  0
 15  1  1  0  0  0  0
 16 21  1  0  0  0  0
 16 15  2  0  0  0  0
 17 16  1  0  0  0  0
 18 17  2  0  0  0  0
 18 19  1  0  0  0  0
 19 14  2  0  0  0  0
 22 23  1  0  0  0  0
 22 18  1  0  0  0  0
 24 25  2  0  0  0  0
 24  5  1  0  0  0  0
 26 25  1  0  0  0  0
 27 28  2  0  0  0  0
 27 26  1  0  0  0  0
 28 24  1  0  0  0  0
 29 30  1  0  0  0  0
 29 27  1  0  0  0  0
 31 29  1  0  0  0  0
 32 29  1  0  0  0  0
M  END
>  <minimizedAffinity>
-5.33847332

>  <minimizedRMSD>
0.613617063

$$$$
