
 OpenBabel03242503353D

 41 43  0  0  1  0  0  0  0  0999 V2000
   37.8200   28.7730   41.6930 N   0  0  0  0  0  0  0  0  0  0  0  0
   37.2370   28.5780   42.8640 C   0  0  0  0  0  0  0  0  0  0  0  0
   36.8020   27.3420   43.2850 C   0  0  0  0  0  0  0  0  0  0  0  0
   36.9690   26.2230   42.4620 C   0  0  0  0  0  0  0  0  0  0  0  0
   36.5750   25.1000   42.8420 O   0  0  0  0  0  0  0  0  0  0  0  0
   37.5700   26.4710   41.2740 N   0  0  0  0  0  0  0  0  0  0  0  0
   37.9720   27.6910   40.9150 C   0  0  0  0  0  0  0  0  0  0  0  0
   38.5210   27.8060   39.7850 O   0  0  0  0  0  0  0  0  0  0  0  0
   37.0920   29.4280   43.5290 H   0  0  0  0  0  0  0  0  0  0  0  0
   36.3370   27.2670   44.2540 H   0  0  0  0  0  0  0  0  0  0  0  0
   37.7510   25.3350   40.4130 C   0  0  2  0  0  0  0  0  0  0  0  0
   36.6000   24.4910   40.1330 C   0  0  0  0  0  0  0  0  0  0  0  0
   37.2260   23.1710   39.6740 C   0  0  0  0  0  0  0  0  0  0  0  0
   38.3700   23.0110   40.6100 C   0  0  0  0  0  0  0  0  0  0  0  0
   38.8460   24.3990   40.9140 C   0  0  1  0  0  0  0  0  0  0  0  0
   38.1640   25.6950   39.4230 H   0  0  0  0  0  0  0  0  0  0  0  0
   35.8190   24.3560   40.8640 H   0  0  0  0  0  0  0  0  0  0  0  0
   36.0770   24.8690   39.2060 H   0  0  0  0  0  0  0  0  0  0  0  0
   37.5940   23.2800   38.6410 H   0  0  0  0  0  0  0  0  0  0  0  0
   36.5140   22.3320   39.7890 H   0  0  0  0  0  0  0  0  0  0  0  0
   39.1940   22.3970   40.1500 H   0  0  0  0  0  0  0  0  0  0  0  0
   38.0410   22.5150   41.5510 H   0  0  0  0  0  0  0  0  0  0  0  0
   38.8800   24.5680   42.0220 H   0  0  0  0  0  0  0  0  0  0  0  0
   40.1830   24.7310   40.3520 C   0  0  0  0  0  0  0  0  0  0  0  0
   40.9570   24.4950   41.1060 H   0  0  0  0  0  0  0  0  0  0  0  0
   40.2670   25.8360   40.1720 H   0  0  0  0  0  0  0  0  0  0  0  0
   40.4120   24.1460   39.4500 H   0  0  0  0  0  0  0  0  0  0  0  0
   38.2740   30.0410   41.2430 C   0  0  0  0  0  0  0  0  0  0  0  0
   39.2730   30.8120   41.9230 C   0  0  0  0  0  0  0  0  0  0  0  0
   39.6180   32.0450   41.3580 C   0  0  0  0  0  0  0  0  0  0  0  0
   39.0050   32.4250   40.2330 N   0  0  0  0  0  0  0  0  0  0  0  0
   38.0660   31.6830   39.6100 C   0  0  0  0  0  0  0  0  0  0  0  0
   37.7290   30.5110   40.1350 N   0  0  0  0  0  0  0  0  0  0  0  0
   39.6820   30.3850   42.8160 H   0  0  0  0  0  0  0  0  0  0  0  0
   40.3680   32.6200   41.8720 H   0  0  0  0  0  0  0  0  0  0  0  0
   37.4610   32.1300   38.4410 O   0  0  0  0  0  0  0  0  0  0  0  0
   37.8210   31.7080   37.1880 C   0  0  0  0  0  0  0  0  0  0  0  0
   39.0590   32.2560   36.7520 N   0  0  0  0  0  0  0  0  0  0  0  0
   37.2150   30.9230   36.4000 O   0  0  0  0  0  0  0  0  0  0  0  0
   39.9720   32.6520   36.4370 H   0  0  0  0  0  0  0  0  0  0  0  0
   38.7110   33.0090   36.0960 H   0  0  0  0  0  0  0  0  0  0  0  0
  1  2  1  0  0  0  0
  2  3  2  0  0  0  0
  2  9  1  0  0  0  0
  3 10  1  0  0  0  0
  4  5  2  0  0  0  0
  4  3  1  0  0  0  0
  6  4  1  0  0  0  0
  7  6  1  0  0  0  0
  7  1  1  0  0  0  0
  8  7  2  0  0  0  0
 11 16  1  6  0  0  0
 11 15  1  0  0  0  0
 11  6  1  0  0  0  0
 12 11  1  0  0  0  0
 12 17  1  0  0  0  0
 13 20  1  0  0  0  0
 13 12  1  0  0  0  0
 13 14  1  0  0  0  0
 14 15  1  0  0  0  0
 14 22  1  0  0  0  0
 15 23  1  1  0  0  0
 18 12  1  0  0  0  0
 19 13  1  0  0  0  0
 21 14  1  0  0  0  0
 24 15  1  0  0  0  0
 24 25  1  0  0  0  0
 26 24  1  0  0  0  0
 27 24  1  0  0  0  0
 28  1  1  0  0  0  0
 28 29  1  0  0  0  0
 29 34  1  0  0  0  0
 30 35  1  0  0  0  0
 30 29  2  0  0  0  0
 31 30  1  0  0  0  0
 32 33  1  0  0  0  0
 32 31  2  0  0  0  0
 33 28  2  0  0  0  0
 36 32  1  0  0  0  0
 37 36  1  0  0  0  0
 38 37  1  0  0  0  0
 39 37  2  0  0  0  0
 40 38  1  0  0  0  0
 41 38  1  0  0  0  0
M  END
>  <minimizedAffinity>
-5.58027411

>  <minimizedRMSD>
1.11471117

$$$$
