
 OpenBabel03242509123D

 37 41  0  0  1  0  0  0  0  0999 V2000
   36.0430   30.4990   40.9860 C   0  0  0  0  0  0  0  0  0  0  0  0
   36.8810   29.5410   41.5970 C   0  0  0  0  0  0  0  0  0  0  0  0
   38.2390   29.7810   41.6380 C   0  0  0  0  0  0  0  0  0  0  0  0
   38.6690   30.9440   41.0810 N   0  0  0  0  0  0  0  0  0  0  0  0
   37.8660   31.8580   40.5010 C   0  0  0  0  0  0  0  0  0  0  0  0
   36.5470   31.6190   40.4600 N   0  0  0  0  0  0  0  0  0  0  0  0
   34.9800   30.4180   40.8960 H   0  0  0  0  0  0  0  0  0  0  0  0
   36.2880   28.7370   41.9770 H   0  0  0  0  0  0  0  0  0  0  0  0
   39.1020   28.8030   42.2410 C   0  0  0  0  0  0  0  0  0  0  0  0
   40.3270   29.0190   42.8600 C   0  0  0  0  0  0  0  0  0  0  0  0
   40.8140   27.8310   43.2990 N   0  0  0  0  0  0  0  0  0  0  0  0
   39.9600   26.8400   42.9950 C   0  0  0  0  0  0  0  0  0  0  0  0
   39.9630   25.4840   43.2050 C   0  0  0  0  0  0  0  0  0  0  0  0
   38.9000   24.6630   42.7680 C   0  0  0  0  0  0  0  0  0  0  0  0
   37.8580   25.2960   42.1150 C   0  0  0  0  0  0  0  0  0  0  0  0
   37.8710   26.6480   41.9130 C   0  0  0  0  0  0  0  0  0  0  0  0
   38.9000   27.4430   42.3400 C   0  0  0  0  0  0  0  0  0  0  0  0
   40.8110   29.9710   42.9730 H   0  0  0  0  0  0  0  0  0  0  0  0
   41.7200   27.6440   43.8090 H   0  0  0  0  0  0  0  0  0  0  0  0
   40.8010   25.0180   43.7220 H   0  0  0  0  0  0  0  0  0  0  0  0
   38.9710   23.5970   42.9700 H   0  0  0  0  0  0  0  0  0  0  0  0
   37.0980   24.5800   41.8220 H   0  0  0  0  0  0  0  0  0  0  0  0
   36.9970   26.9360   41.3780 H   0  0  0  0  0  0  0  0  0  0  0  0
   38.4400   33.1280   39.9420 C   0  0  1  0  0  0  0  0  0  0  0  0
   38.6630   34.2770   40.9490 C   0  0  0  0  0  0  0  0  0  0  0  0
   39.8020   33.5270   40.3730 C   0  0  2  0  0  0  0  0  0  0  0  0
   37.9790   33.4630   38.9980 H   0  0  0  0  0  0  0  0  0  0  0  0
   38.4450   35.3070   40.5970 H   0  0  0  0  0  0  0  0  0  0  0  0
   38.3010   34.0520   41.9610 H   0  0  0  0  0  0  0  0  0  0  0  0
   40.3120   32.7720   41.0460 H   0  0  0  0  0  0  0  0  0  0  0  0
   40.7400   34.1610   39.4260 C   0  0  0  0  0  0  0  0  0  0  0  0
   41.1710   35.4290   39.4310 N   0  0  0  0  0  0  0  0  0  0  0  0
   41.9870   35.6150   38.4190 O   0  0  0  0  0  0  0  0  0  0  0  0
   42.1120   34.5020   37.7370 C   0  0  0  0  0  0  0  0  0  0  0  0
   41.3270   33.5870   38.3710 N   0  0  0  0  0  0  0  0  0  0  0  0
   42.8570   34.2110   36.5980 O   0  0  0  0  0  0  0  0  0  0  0  0
   43.0420   34.9190   35.9090 H   0  0  0  0  0  0  0  0  0  0  0  0
  1  2  1  0  0  0  0
  2  3  2  0  0  0  0
  2  8  1  0  0  0  0
  3  9  1  0  0  0  0
  4  3  1  0  0  0  0
  5  4  2  0  0  0  0
  6  5  1  0  0  0  0
  6  1  2  0  0  0  0
  7  1  1  0  0  0  0
  9 17  1  0  0  0  0
  9 10  2  0  0  0  0
 10 18  1  0  0  0  0
 10 11  1  0  0  0  0
 11 19  1  0  0  0  0
 12 13  1  0  0  0  0
 12 11  1  0  0  0  0
 13 20  1  0  0  0  0
 14 21  1  0  0  0  0
 14 13  2  0  0  0  0
 15 14  1  0  0  0  0
 16 15  2  0  0  0  0
 16 17  1  0  0  0  0
 17 12  2  0  0  0  0
 22 15  1  0  0  0  0
 23 16  1  0  0  0  0
 24 27  1  6  0  0  0
 24 26  1  0  0  0  0
 24  5  1  0  0  0  0
 24 25  1  0  0  0  0
 25 29  1  0  0  0  0
 26 25  1  0  0  0  0
 26 30  1  1  0  0  0
 28 25  1  0  0  0  0
 31 32  2  0  0  0  0
 31 26  1  0  0  0  0
 33 32  1  0  0  0  0
 34 35  2  0  0  0  0
 34 33  1  0  0  0  0
 35 31  1  0  0  0  0
 36 34  1  0  0  0  0
 37 36  1  0  0  0  0
M  END
>  <minimizedAffinity>
-6.66207838

>  <minimizedRMSD>
0.509837389

$$$$
