
 OpenBabel03242501083D

 16 17  0  0  0  0  0  0  0  0999 V2000
   39.4040   33.1380   40.6690 C   0  0  0  0  0  0  0  0  0  0  0  0
   39.1160   31.9160   41.3010 C   0  0  0  0  0  0  0  0  0  0  0  0
   37.8650   31.3570   41.0210 C   0  0  0  0  0  0  0  0  0  0  0  0
   37.0210   32.0060   40.1780 N   0  0  0  0  0  0  0  0  0  0  0  0
   37.3460   33.1820   39.5950 C   0  0  0  0  0  0  0  0  0  0  0  0
   38.5550   33.7550   39.8460 N   0  0  0  0  0  0  0  0  0  0  0  0
   40.3760   33.5440   40.9050 H   0  0  0  0  0  0  0  0  0  0  0  0
   39.7440   31.3780   41.9620 H   0  0  0  0  0  0  0  0  0  0  0  0
   36.6110   33.6220   38.9430 H   0  0  0  0  0  0  0  0  0  0  0  0
   37.3690   30.0920   41.5740 C   0  0  0  0  0  0  0  0  0  0  0  0
   36.3780   29.2490   41.1990 N   0  0  0  0  0  0  0  0  0  0  0  0
   36.3210   28.2430   42.0180 O   0  0  0  0  0  0  0  0  0  0  0  0
   37.2400   28.3650   42.9430 C   0  0  0  0  0  0  0  0  0  0  0  0
   37.9050   29.5200   42.6770 N   0  0  0  0  0  0  0  0  0  0  0  0
   37.6410   27.6200   44.0460 O   0  0  0  0  0  0  0  0  0  0  0  0
   38.5490   27.1690   44.0690 H   0  0  0  0  0  0  0  0  0  0  0  0
  1  7  1  0  0  0  0
  1  2  1  0  0  0  0
  2  8  1  0  0  0  0
  3  2  2  0  0  0  0
  3 10  1  0  0  0  0
  4  3  1  0  0  0  0
  5  6  1  0  0  0  0
  5  4  2  0  0  0  0
  6  1  2  0  0  0  0
  9  5  1  0  0  0  0
 10 14  1  0  0  0  0
 11 10  2  0  0  0  0
 11 12  1  0  0  0  0
 12 13  1  0  0  0  0
 13 15  1  0  0  0  0
 14 13  2  0  0  0  0
 15 16  1  0  0  0  0
M  END
>  <minimizedAffinity>
-3.70569706

>  <minimizedRMSD>
0.861172378

$$$$
