
 OpenBabel03242501553D

 32 34  0  0  0  0  0  0  0  0999 V2000
   36.2930   30.8800   41.1910 C   0  0  0  0  0  0  0  0  0  0  0  0
   35.4590   30.7910   41.8970 H   0  0  0  0  0  0  0  0  0  0  0  0
   36.4270   31.9660   40.9700 H   0  0  0  0  0  0  0  0  0  0  0  0
   35.9520   30.1890   39.9560 N   0  0  0  0  0  0  0  0  0  0  0  0
   35.0530   29.1820   39.8520 C   0  0  0  0  0  0  0  0  0  0  0  0
   34.9870   28.7760   38.5640 N   0  0  0  0  0  0  0  0  0  0  0  0
   35.8430   29.5170   37.8260 C   0  0  0  0  0  0  0  0  0  0  0  0
   36.1800   29.5360   36.4840 C   0  0  0  0  0  0  0  0  0  0  0  0
   35.6110   28.7210   35.7350 O   0  0  0  0  0  0  0  0  0  0  0  0
   37.1150   30.4420   36.0540 N   0  0  0  0  0  0  0  0  0  0  0  0
   37.6850   31.2910   36.9360 C   0  0  0  0  0  0  0  0  0  0  0  0
   38.6530   32.2230   36.4630 N   0  0  0  0  0  0  0  0  0  0  0  0
   37.3590   31.2760   38.2440 N   0  0  0  0  0  0  0  0  0  0  0  0
   36.4350   30.3900   38.7060 C   0  0  0  0  0  0  0  0  0  0  0  0
   34.4640   28.7530   40.6750 H   0  0  0  0  0  0  0  0  0  0  0  0
   37.3340   30.4140   35.0280 H   0  0  0  0  0  0  0  0  0  0  0  0
   38.2220   33.1770   36.6340 H   0  0  0  0  0  0  0  0  0  0  0  0
   39.5730   32.0440   36.0440 H   0  0  0  0  0  0  0  0  0  0  0  0
   37.5220   30.3080   41.7300 C   0  0  0  0  0  0  0  0  0  0  0  0
   38.8050   30.8290   41.4870 C   0  0  0  0  0  0  0  0  0  0  0  0
   39.9120   30.2150   42.0430 C   0  0  0  0  0  0  0  0  0  0  0  0
   39.7060   29.0910   42.8320 N   0  0  0  0  0  0  0  0  0  0  0  0
   38.4470   28.6310   43.0350 C   0  0  0  0  0  0  0  0  0  0  0  0
   37.3800   29.2120   42.5060 N   0  0  0  0  0  0  0  0  0  0  0  0
   38.8890   31.7090   40.8590 H   0  0  0  0  0  0  0  0  0  0  0  0
   40.8990   30.5800   41.8800 H   0  0  0  0  0  0  0  0  0  0  0  0
   38.3400   27.4810   43.8540 O   0  0  0  0  0  0  0  0  0  0  0  0
   39.2510   26.4420   43.6890 C   0  0  0  0  0  0  0  0  0  0  0  0
   40.4750   26.4660   44.4130 N   0  0  0  0  0  0  0  0  0  0  0  0
   39.0590   25.4590   42.9240 O   0  0  0  0  0  0  0  0  0  0  0  0
   40.6600   25.9620   45.3100 H   0  0  0  0  0  0  0  0  0  0  0  0
   41.3510   26.9970   44.1340 H   0  0  0  0  0  0  0  0  0  0  0  0
  1 19  1  0  0  0  0
  1  2  1  0  0  0  0
  3  1  1  0  0  0  0
  4  1  1  0  0  0  0
  5  4  1  0  0  0  0
  5 15  1  0  0  0  0
  6  5  2  0  0  0  0
  7  6  1  0  0  0  0
  7 14  2  0  0  0  0
  8  7  1  0  0  0  0
  9  8  2  0  0  0  0
 10  8  1  0  0  0  0
 10 11  1  0  0  0  0
 11 13  2  0  0  0  0
 12 17  1  0  0  0  0
 12 11  1  0  0  0  0
 13 14  1  0  0  0  0
 14  4  1  0  0  0  0
 16 10  1  0  0  0  0
 18 12  1  0  0  0  0
 19 24  1  0  0  0  0
 20 19  2  0  0  0  0
 20 21  1  0  0  0  0
 21 22  2  0  0  0  0
 22 23  1  0  0  0  0
 23 27  1  0  0  0  0
 24 23  2  0  0  0  0
 25 20  1  0  0  0  0
 26 21  1  0  0  0  0
 28 27  1  0  0  0  0
 28 29  1  0  0  0  0
 29 31  1  0  0  0  0
 30 28  2  0  0  0  0
 32 29  1  0  0  0  0
M  END
>  <minimizedAffinity>
-5.75781631

>  <minimizedRMSD>
0.721180499

$$$$
