
 OpenBabel03242509303D

 14 14  0  0  0  0  0  0  0  0999 V2000
   38.0280   28.8810   43.3430 C   0  0  0  0  0  0  0  0  0  0  0  0
   38.1710   27.4680   43.2750 C   0  0  0  0  0  0  0  0  0  0  0  0
   37.4510   26.7990   42.2840 C   0  0  0  0  0  0  0  0  0  0  0  0
   36.6410   27.5300   41.4260 N   0  0  0  0  0  0  0  0  0  0  0  0
   36.5530   28.8650   41.5480 C   0  0  0  0  0  0  0  0  0  0  0  0
   37.2340   29.5160   42.4870 N   0  0  0  0  0  0  0  0  0  0  0  0
   38.5700   29.4350   44.0970 H   0  0  0  0  0  0  0  0  0  0  0  0
   38.8110   26.9350   43.9610 H   0  0  0  0  0  0  0  0  0  0  0  0
   37.5650   25.3090   42.1710 C   0  0  0  0  0  0  0  0  0  0  0  0
   37.7060   25.0300   40.8380 F   0  0  0  0  0  0  0  0  0  0  0  0
   38.6350   24.8180   42.8390 F   0  0  0  0  0  0  0  0  0  0  0  0
   36.4020   24.6870   42.6350 F   0  0  0  0  0  0  0  0  0  0  0  0
   35.6850   29.3610   40.5780 O   0  0  0  0  0  0  0  0  0  0  0  0
   34.8270   29.8660   40.7890 H   0  0  0  0  0  0  0  0  0  0  0  0
  1  7  1  0  0  0  0
  2  1  1  0  0  0  0
  2  8  1  0  0  0  0
  3  2  2  0  0  0  0
  4  5  2  0  0  0  0
  4  3  1  0  0  0  0
  5  6  1  0  0  0  0
  6  1  2  0  0  0  0
  9  3  1  0  0  0  0
  9 12  1  0  0  0  0
  9 11  1  0  0  0  0
 10  9  1  0  0  0  0
 13 14  1  0  0  0  0
 13  5  1  0  0  0  0
M  END
>  <minimizedAffinity>
-3.60693359

>  <minimizedRMSD>
0.112694964

$$$$
