
 OpenBabel03242503103D

 31 33  0  0  1  0  0  0  0  0999 V2000
   36.5010   30.5340   39.5410 C   0  0  0  0  0  0  0  0  0  0  0  0
   36.8060   30.1710   38.2240 C   0  0  0  0  0  0  0  0  0  0  0  0
   37.7030   31.6920   37.6960 S   0  0  0  0  0  0  0  0  0  0  0  0
   37.4770   32.5410   39.4210 C   0  0  0  0  0  0  0  0  0  0  0  0
   36.9300   31.7110   39.8700 N   0  0  0  0  0  0  0  0  0  0  0  0
   36.6340   29.2690   37.5350 H   0  0  0  0  0  0  0  0  0  0  0  0
   35.5760   29.3370   40.5480 S   0  0  0  0  0  0  0  0  0  0  0  0
   36.8060   27.1520   41.8160 C   0  0  0  0  0  0  0  0  0  0  0  0
   36.6510   28.5630   41.7070 C   0  0  0  0  0  0  0  0  0  0  0  0
   37.4060   29.3200   42.5750 C   0  0  0  0  0  0  0  0  0  0  0  0
   38.2390   28.7080   43.4700 N   0  0  0  0  0  0  0  0  0  0  0  0
   38.3430   27.3540   43.5260 C   0  0  0  0  0  0  0  0  0  0  0  0
   37.6440   26.6040   42.7190 N   0  0  0  0  0  0  0  0  0  0  0  0
   36.2070   26.5700   41.1280 H   0  0  0  0  0  0  0  0  0  0  0  0
   37.3770   30.4110   42.5900 H   0  0  0  0  0  0  0  0  0  0  0  0
   39.0170   26.9040   44.2520 H   0  0  0  0  0  0  0  0  0  0  0  0
   37.9630   33.8120   39.6990 O   0  0  0  0  0  0  0  0  0  0  0  0
   38.9720   34.0120   40.7100 C   0  0  1  0  0  0  0  0  0  0  0  0
   39.8620   32.7590   40.8030 C   0  0  0  0  0  0  0  0  0  0  0  0
   40.3790   34.1090   40.2490 C   0  0  1  0  0  0  0  0  0  0  0  0
   38.6200   34.3110   41.7250 H   0  0  0  0  0  0  0  0  0  0  0  0
   40.2570   32.4680   41.7810 H   0  0  0  0  0  0  0  0  0  0  0  0
   39.7800   31.9730   40.0510 H   0  0  0  0  0  0  0  0  0  0  0  0
   41.0620   34.6820   40.9060 H   0  0  0  0  0  0  0  0  0  0  0  0
   40.6410   34.1640   38.8300 N   0  0  0  0  0  0  0  0  0  0  0  0
   39.7880   34.2130   38.2330 H   0  0  0  0  0  0  0  0  0  0  0  0
   41.9650   34.1490   38.3330 C   0  0  0  0  0  0  0  0  0  0  0  0
   42.4180   35.4140   37.8710 N   0  0  0  0  0  0  0  0  0  0  0  0
   42.7220   33.1640   38.2740 O   0  0  0  0  0  0  0  0  0  0  0  0
   42.7810   36.3410   37.5640 H   0  0  0  0  0  0  0  0  0  0  0  0
   41.8830   35.8040   37.0620 H   0  0  0  0  0  0  0  0  0  0  0  0
  1  5  1  0  0  0  0
  1  7  1  0  0  0  0
  2  1  2  0  0  0  0
  3  2  1  0  0  0  0
  3  4  1  0  0  0  0
  4 17  1  0  0  0  0
  4  5  2  0  0  0  0
  6  2  1  0  0  0  0
  7  9  1  0  0  0  0
  8 13  1  0  0  0  0
  9  8  2  0  0  0  0
  9 10  1  0  0  0  0
 10 15  1  0  0  0  0
 10 11  2  0  0  0  0
 11 12  1  0  0  0  0
 12 16  1  0  0  0  0
 13 12  2  0  0  0  0
 14  8  1  0  0  0  0
 17 18  1  0  0  0  0
 18 19  1  0  0  0  0
 18 21  1  1  0  0  0
 19 22  1  0  0  0  0
 20 18  1  0  0  0  0
 20 19  1  0  0  0  0
 20 24  1  1  0  0  0
 23 19  1  0  0  0  0
 25 20  1  0  0  0  0
 26 25  1  0  0  0  0
 27 25  1  0  0  0  0
 28 27  1  0  0  0  0
 29 27  2  0  0  0  0
 30 28  1  0  0  0  0
 31 28  1  0  0  0  0
M  END
>  <minimizedAffinity>
-5.27932119

>  <minimizedRMSD>
3.23777413

$$$$
