
 OpenBabel03242508223D

 15 15  0  0  0  0  0  0  0  0999 V2000
   38.7920   28.6720   43.0890 C   0  0  0  0  0  0  0  0  0  0  0  0
   38.1550   27.4140   42.9900 C   0  0  0  0  0  0  0  0  0  0  0  0
   36.9190   27.3770   42.3300 C   0  0  0  0  0  0  0  0  0  0  0  0
   36.4010   28.5350   41.8250 N   0  0  0  0  0  0  0  0  0  0  0  0
   37.0510   29.7070   41.9470 C   0  0  0  0  0  0  0  0  0  0  0  0
   38.2390   29.7790   42.5750 N   0  0  0  0  0  0  0  0  0  0  0  0
   39.7320   28.7540   43.5810 H   0  0  0  0  0  0  0  0  0  0  0  0
   38.5930   26.5140   43.4010 H   0  0  0  0  0  0  0  0  0  0  0  0
   36.4180   26.4200   42.2450 H   0  0  0  0  0  0  0  0  0  0  0  0
   36.3200   30.7190   41.3560 O   0  0  0  0  0  0  0  0  0  0  0  0
   36.6620   31.3650   40.1800 C   0  0  0  0  0  0  0  0  0  0  0  0
   36.9980   32.7440   40.4320 N   0  0  0  0  0  0  0  0  0  0  0  0
   36.7080   30.9200   39.0130 O   0  0  0  0  0  0  0  0  0  0  0  0
   36.0910   33.2680   40.3680 H   0  0  0  0  0  0  0  0  0  0  0  0
   37.7740   33.4320   40.6530 H   0  0  0  0  0  0  0  0  0  0  0  0
  1  7  1  0  0  0  0
  2  1  1  0  0  0  0
  2  8  1  0  0  0  0
  3  2  2  0  0  0  0
  4  5  2  0  0  0  0
  4  3  1  0  0  0  0
  5  6  1  0  0  0  0
  6  1  2  0  0  0  0
  9  3  1  0  0  0  0
 10  5  1  0  0  0  0
 11 12  1  0  0  0  0
 11 10  1  0  0  0  0
 12 15  1  0  0  0  0
 13 11  2  0  0  0  0
 14 12  1  0  0  0  0
M  END
>  <minimizedAffinity>
-3.60374904

>  <minimizedRMSD>
1.54112422

$$$$
