
 OpenBabel03242505003D

 46 49  0  0  0  0  0  0  0  0999 V2000
   39.1920   30.7210   41.7650 C   0  0  0  0  0  0  0  0  0  0  0  0
   39.4430   29.3680   41.6950 C   0  0  0  0  0  0  0  0  0  0  0  0
   38.9050   28.6270   40.6160 C   0  0  0  0  0  0  0  0  0  0  0  0
   38.1600   29.3760   39.7190 N   0  0  0  0  0  0  0  0  0  0  0  0
   37.9500   30.6790   39.8370 C   0  0  0  0  0  0  0  0  0  0  0  0
   38.4610   31.3520   40.8520 N   0  0  0  0  0  0  0  0  0  0  0  0
   39.6230   31.2220   42.6000 H   0  0  0  0  0  0  0  0  0  0  0  0
   40.2210   28.5920   42.6390 C   0  0  0  0  0  0  0  0  0  0  0  0
   39.8680   27.7060   43.5480 N   0  0  0  0  0  0  0  0  0  0  0  0
   40.8940   27.2470   44.1750 O   0  0  0  0  0  0  0  0  0  0  0  0
   41.9840   27.8020   43.7200 C   0  0  0  0  0  0  0  0  0  0  0  0
   41.5700   28.6390   42.7660 N   0  0  0  0  0  0  0  0  0  0  0  0
   43.3660   27.6890   44.0230 N   0  0  0  0  0  0  0  0  0  0  0  0
   44.2130   28.0800   43.0560 C   0  0  0  0  0  0  0  0  0  0  0  0
   45.5750   28.0000   43.2770 C   0  0  0  0  0  0  0  0  0  0  0  0
   45.9540   27.5030   44.5260 C   0  0  0  0  0  0  0  0  0  0  0  0
   47.1850   27.4180   44.7560 O   0  0  0  0  0  0  0  0  0  0  0  0
   45.0750   27.1200   45.4730 N   0  0  0  0  0  0  0  0  0  0  0  0
   43.7710   27.2130   45.2210 C   0  0  0  0  0  0  0  0  0  0  0  0
   42.9260   26.8660   46.0750 O   0  0  0  0  0  0  0  0  0  0  0  0
   43.9320   28.4610   42.0970 H   0  0  0  0  0  0  0  0  0  0  0  0
   46.3020   28.2990   42.5400 H   0  0  0  0  0  0  0  0  0  0  0  0
   45.4100   26.7540   46.3940 H   0  0  0  0  0  0  0  0  0  0  0  0
   37.1290   31.3280   38.7930 C   0  0  0  0  0  0  0  0  0  0  0  0
   36.6330   32.5210   39.2550 F   0  0  0  0  0  0  0  0  0  0  0  0
   37.8640   31.5480   37.6660 F   0  0  0  0  0  0  0  0  0  0  0  0
   36.0330   30.5280   38.4870 F   0  0  0  0  0  0  0  0  0  0  0  0
   39.0320   27.1590   40.3330 C   0  0  0  0  0  0  0  0  0  0  0  0
   40.4560   26.7220   40.1290 C   0  0  0  0  0  0  0  0  0  0  0  0
   41.1360   27.6190   40.2370 H   0  0  0  0  0  0  0  0  0  0  0  0
   40.6880   26.3290   39.1170 H   0  0  0  0  0  0  0  0  0  0  0  0
   40.7030   25.9550   40.8710 H   0  0  0  0  0  0  0  0  0  0  0  0
   38.3710   26.9230   38.9400 C   0  0  0  0  0  0  0  0  0  0  0  0
   39.1340   26.9310   38.1360 H   0  0  0  0  0  0  0  0  0  0  0  0
   37.6700   27.7740   38.7630 H   0  0  0  0  0  0  0  0  0  0  0  0
   37.7880   25.9840   38.9630 H   0  0  0  0  0  0  0  0  0  0  0  0
   38.2470   26.3100   41.2630 C   0  0  0  0  0  0  0  0  0  0  0  0
   38.7660   26.0280   42.1730 H   0  0  0  0  0  0  0  0  0  0  0  0
   37.3630   26.9890   41.5670 H   0  0  0  0  0  0  0  0  0  0  0  0
   37.6640   25.0610   40.7190 C   0  0  0  0  0  0  0  0  0  0  0  0
   36.4960   24.6690   40.1260 C   0  0  0  0  0  0  0  0  0  0  0  0
   36.1830   23.4030   39.7060 C   0  0  0  0  0  0  0  0  0  0  0  0
   37.1540   22.4540   39.9120 C   0  0  0  0  0  0  0  0  0  0  0  0
   36.9270   21.4570   39.5910 H   0  0  0  0  0  0  0  0  0  0  0  0
   38.3450   22.7830   40.5030 C   0  0  0  0  0  0  0  0  0  0  0  0
   38.5620   24.0410   40.8790 N   0  0  0  0  0  0  0  0  0  0  0  0
  1  7  1  0  0  0  0
  2  1  1  0  0  0  0
  2  8  1  0  0  0  0
  3  2  2  0  0  0  0
  4  5  2  0  0  0  0
  4  3  1  0  0  0  0
  5  6  1  0  0  0  0
  6  1  2  0  0  0  0
  8 12  1  0  0  0  0
  8  9  2  0  0  0  0
  9 10  1  0  0  0  0
 11 13  1  0  0  0  0
 11 10  1  0  0  0  0
 12 11  2  0  0  0  0
 13 19  1  0  0  0  0
 14 15  2  0  0  0  0
 14 13  1  0  0  0  0
 15 16  1  0  0  0  0
 16 17  2  0  0  0  0
 16 18  1  0  0  0  0
 18 23  1  0  0  0  0
 19 18  1  0  0  0  0
 19 20  2  0  0  0  0
 21 14  1  0  0  0  0
 22 15  1  0  0  0  0
 24 25  1  0  0  0  0
 24  5  1  0  0  0  0
 26 24  1  0  0  0  0
 27 24  1  0  0  0  0
 28  3  1  0  0  0  0
 28 37  1  0  0  0  0
 29 30  1  0  0  0  0
 29 28  1  0  0  0  0
 29 32  1  0  0  0  0
 31 29  1  0  0  0  0
 33 36  1  0  0  0  0
 33 28  1  0  0  0  0
 34 33  1  0  0  0  0
 35 33  1  0  0  0  0
 37 39  1  0  0  0  0
 37 38  1  0  0  0  0
 40 46  1  0  0  0  0
 40 37  1  0  0  0  0
 41 40  2  0  0  0  0
 42 43  2  0  0  0  0
 42 41  1  0  0  0  0
 43 45  1  0  0  0  0
 44 43  1  0  0  0  0
 45 46  2  0  0  0  0
M  END
>  <minimizedAffinity>
-5.51860285

>  <minimizedRMSD>
0.636893511

$$$$
