
 OpenBabel03242509313D

 26 28  0  0  0  0  0  0  0  0999 V2000
   37.5690   28.8160   43.5750 C   0  0  0  0  0  0  0  0  0  0  0  0
   37.6090   27.3950   43.5210 C   0  0  0  0  0  0  0  0  0  0  0  0
   37.4870   26.8170   42.2550 C   0  0  0  0  0  0  0  0  0  0  0  0
   37.3370   27.6270   41.1510 N   0  0  0  0  0  0  0  0  0  0  0  0
   37.3080   28.9620   41.2740 C   0  0  0  0  0  0  0  0  0  0  0  0
   37.4210   29.5560   42.4650 N   0  0  0  0  0  0  0  0  0  0  0  0
   37.6580   29.3310   44.5230 H   0  0  0  0  0  0  0  0  0  0  0  0
   37.7280   26.8350   44.4240 H   0  0  0  0  0  0  0  0  0  0  0  0
   37.1460   29.5860   39.9990 N   0  0  0  0  0  0  0  0  0  0  0  0
   37.1410   30.9070   39.6630 C   0  0  0  0  0  3  0  0  0  0  0  0
   36.9510   30.9830   38.3210 N   0  0  0  0  0  0  0  0  0  0  0  0
   36.8380   29.7350   37.8250 C   0  0  0  0  0  0  0  0  0  0  0  0
   36.6360   29.3540   36.5080 C   0  0  0  0  0  0  0  0  0  0  0  0
   36.5300   30.2070   35.5770 O   0  0  0  0  0  0  0  0  0  0  0  0
   36.5530   28.0400   36.2380 N   0  0  0  0  0  0  0  0  0  0  0  0
   36.6690   27.1730   37.2510 C   0  0  0  0  0  0  0  0  0  0  0  0
   36.5980   25.7610   37.0820 N   0  0  0  0  0  0  0  0  0  0  0  0
   36.8650   27.5530   38.5180 N   0  0  0  0  0  0  0  0  0  0  0  0
   36.9600   28.8600   38.8790 C   0  0  0  0  0  0  0  0  0  0  0  0
   36.4030   27.6960   35.2710 H   0  0  0  0  0  0  0  0  0  0  0  0
   35.5820   25.5290   37.1380 H   0  0  0  0  0  0  0  0  0  0  0  0
   37.1210   24.8740   36.9300 H   0  0  0  0  0  0  0  0  0  0  0  0
   37.5220   25.3310   42.1380 C   0  0  0  0  0  0  0  0  0  0  0  0
   37.5980   25.0470   40.7910 F   0  0  0  0  0  0  0  0  0  0  0  0
   38.6160   24.7880   42.7590 F   0  0  0  0  0  0  0  0  0  0  0  0
   36.3560   24.7490   42.6520 F   0  0  0  0  0  0  0  0  0  0  0  0
  1  7  1  0  0  0  0
  2  1  1  0  0  0  0
  2  8  1  0  0  0  0
  3  2  2  0  0  0  0
  4  5  2  0  0  0  0
  4  3  1  0  0  0  0
  5  6  1  0  0  0  0
  6  1  2  0  0  0  0
  9  5  1  0  0  0  0
 10  9  1  0  0  0  0
 11 10  2  0  0  0  0
 12 11  1  0  0  0  0
 12 19  2  0  0  0  0
 13 12  1  0  0  0  0
 14 13  2  0  0  0  0
 15 13  1  0  0  0  0
 15 16  1  0  0  0  0
 16 18  2  0  0  0  0
 17 21  1  0  0  0  0
 17 16  1  0  0  0  0
 18 19  1  0  0  0  0
 19  9  1  0  0  0  0
 20 15  1  0  0  0  0
 22 17  1  0  0  0  0
 23  3  1  0  0  0  0
 23 26  1  0  0  0  0
 23 25  1  0  0  0  0
 24 23  1  0  0  0  0
M  END
>  <minimizedAffinity>
-5.14186621

>  <minimizedRMSD>
1.78348029

$$$$
