
 OpenBabel03242509253D

 53 58  0  0  0  0  0  0  0  0999 V2000
   38.5880   28.1820   42.6900 C   0  0  0  0  0  0  0  0  0  0  0  0
   37.5180   27.3350   42.8270 C   0  0  0  0  0  0  0  0  0  0  0  0
   36.4340   27.9670   42.2120 C   0  0  0  0  0  0  0  0  0  0  0  0
   36.9370   29.1390   41.7570 N   0  0  0  0  0  0  0  0  0  0  0  0
   38.1950   29.2940   42.0210 N   0  0  0  0  0  0  0  0  0  0  0  0
   37.5600   26.3670   43.3280 H   0  0  0  0  0  0  0  0  0  0  0  0
   35.4540   27.5320   42.1660 H   0  0  0  0  0  0  0  0  0  0  0  0
   41.5640   26.5890   44.2750 C   0  0  0  0  0  0  0  0  0  0  0  0
   40.2500   26.7580   43.8230 C   0  0  0  0  0  0  0  0  0  0  0  0
   39.9350   27.9640   43.1700 C   0  0  0  0  0  0  0  0  0  0  0  0
   40.8920   28.9190   42.9930 N   0  0  0  0  0  0  0  0  0  0  0  0
   42.1640   28.6760   43.4670 C   0  0  0  0  0  0  0  0  0  0  0  0
   42.4790   27.5440   44.0860 N   0  0  0  0  0  0  0  0  0  0  0  0
   41.8320   25.6870   44.7720 H   0  0  0  0  0  0  0  0  0  0  0  0
   39.4820   25.9950   43.9630 H   0  0  0  0  0  0  0  0  0  0  0  0
   43.1050   29.7210   43.2440 N   0  0  0  0  0  0  0  0  0  0  0  0
   43.5520   30.7130   44.0580 C   0  0  0  0  0  3  0  0  0  0  0  0
   44.4490   31.4730   43.4000 N   0  0  0  0  0  0  0  0  0  0  0  0
   44.6080   31.0000   42.1530 C   0  0  0  0  0  0  0  0  0  0  0  0
   45.3660   31.3450   41.0420 C   0  0  0  0  0  0  0  0  0  0  0  0
   46.1340   32.3330   41.1120 O   0  0  0  0  0  0  0  0  0  0  0  0
   45.2970   30.6350   39.8790 N   0  0  0  0  0  0  0  0  0  0  0  0
   44.4630   29.5940   39.8680 C   0  0  0  0  0  0  0  0  0  0  0  0
   44.3110   28.7870   38.7150 N   0  0  0  0  0  0  0  0  0  0  0  0
   43.7140   29.2270   40.9150 N   0  0  0  0  0  0  0  0  0  0  0  0
   43.7720   29.9260   42.0830 C   0  0  0  0  0  0  0  0  0  0  0  0
   45.8520   30.8720   39.0390 H   0  0  0  0  0  0  0  0  0  0  0  0
   44.0710   27.7750   38.6840 H   0  0  0  0  0  0  0  0  0  0  0  0
   44.3890   28.9580   37.6930 H   0  0  0  0  0  0  0  0  0  0  0  0
   36.0690   30.0270   41.0790 C   0  0  0  0  0  0  0  0  0  0  0  0
   36.6620   30.8490   40.5810 H   0  0  0  0  0  0  0  0  0  0  0  0
   35.4650   30.5470   41.8560 H   0  0  0  0  0  0  0  0  0  0  0  0
   35.2160   29.4240   40.0080 C   0  0  0  0  0  0  0  0  0  0  0  0
   34.7770   28.5040   40.3660 H   0  0  0  0  0  0  0  0  0  0  0  0
   34.4740   30.2820   39.8760 H   0  0  0  0  0  0  0  0  0  0  0  0
   35.8500   29.3610   38.6660 C   0  0  0  0  0  0  0  0  0  0  0  0
   37.1750   29.4810   38.3700 C   0  0  0  0  0  0  0  0  0  0  0  0
   37.7160   29.4910   37.1180 C   0  0  0  0  0  0  0  0  0  0  0  0
   36.8840   29.3750   36.0260 C   0  0  0  0  0  0  0  0  0  0  0  0
   35.5310   29.2490   36.2590 C   0  0  0  0  0  0  0  0  0  0  0  0
   34.7490   29.1430   35.1330 C   0  0  0  0  0  0  0  0  0  0  0  0
   33.3920   29.0160   35.2590 C   0  0  0  0  0  0  0  0  0  0  0  0
   32.8280   28.9930   36.5130 C   0  0  0  0  0  0  0  0  0  0  0  0
   33.6600   29.1020   37.5980 C   0  0  0  0  0  0  0  0  0  0  0  0
   35.0090   29.2390   37.5530 C   0  0  0  0  0  0  0  0  0  0  0  0
   37.8380   29.5740   39.2350 H   0  0  0  0  0  0  0  0  0  0  0  0
   38.7880   29.5920   37.0310 H   0  0  0  0  0  0  0  0  0  0  0  0
   37.3070   29.3840   35.0430 H   0  0  0  0  0  0  0  0  0  0  0  0
   35.1260   29.1510   34.1340 H   0  0  0  0  0  0  0  0  0  0  0  0
   32.7350   28.9310   34.3970 H   0  0  0  0  0  0  0  0  0  0  0  0
   31.7550   28.8900   36.6160 H   0  0  0  0  0  0  0  0  0  0  0  0
   33.0350   29.0540   38.8360 O   0  0  0  0  0  0  0  0  0  0  0  0
   32.2160   29.6170   39.0750 H   0  0  0  0  0  0  0  0  0  0  0  0
  1  2  1  0  0  0  0
  1 10  1  0  0  0  0
  2  6  1  0  0  0  0
  3  2  2  0  0  0  0
  4  5  1  0  0  0  0
  4  3  1  0  0  0  0
  5  1  2  0  0  0  0
  7  3  1  0  0  0  0
  8 14  1  0  0  0  0
  9 15  1  0  0  0  0
  9  8  2  0  0  0  0
 10  9  1  0  0  0  0
 11 10  2  0  0  0  0
 11 12  1  0  0  0  0
 12 13  2  0  0  0  0
 13  8  1  0  0  0  0
 16 12  1  0  0  0  0
 16 17  1  0  0  0  0
 18 17  2  0  0  0  0
 19 18  1  0  0  0  0
 20 21  2  0  0  0  0
 20 19  1  0  0  0  0
 22 20  1  0  0  0  0
 23 22  1  0  0  0  0
 23 25  2  0  0  0  0
 24 23  1  0  0  0  0
 25 26  1  0  0  0  0
 26 19  2  0  0  0  0
 26 16  1  0  0  0  0
 27 22  1  0  0  0  0
 28 24  1  0  0  0  0
 29 24  1  0  0  0  0
 30  4  1  0  0  0  0
 30 32  1  0  0  0  0
 31 30  1  0  0  0  0
 33 34  1  0  0  0  0
 33 30  1  0  0  0  0
 35 33  1  0  0  0  0
 36 33  1  0  0  0  0
 37 36  1  0  0  0  0
 37 46  1  0  0  0  0
 38 37  2  0  0  0  0
 39 40  2  0  0  0  0
 39 38  1  0  0  0  0
 40 45  1  0  0  0  0
 41 42  2  0  0  0  0
 41 40  1  0  0  0  0
 42 43  1  0  0  0  0
 43 51  1  0  0  0  0
 43 44  2  0  0  0  0
 44 52  1  0  0  0  0
 45 44  1  0  0  0  0
 45 36  2  0  0  0  0
 47 38  1  0  0  0  0
 48 39  1  0  0  0  0
 49 41  1  0  0  0  0
 50 42  1  0  0  0  0
 52 53  1  0  0  0  0
M  END
>  <minimizedAffinity>
-6.45252705

>  <minimizedRMSD>
0.430315614

$$$$
