
 OpenBabel03242509253D

 53 58  0  0  0  0  0  0  0  0999 V2000
   38.4680   28.2010   42.6080 C   0  0  0  0  0  0  0  0  0  0  0  0
   37.4160   27.3290   42.7200 C   0  0  0  0  0  0  0  0  0  0  0  0
   36.3310   27.9370   42.0840 C   0  0  0  0  0  0  0  0  0  0  0  0
   36.8150   29.1220   41.6420 N   0  0  0  0  0  0  0  0  0  0  0  0
   38.0640   29.3050   41.9320 N   0  0  0  0  0  0  0  0  0  0  0  0
   37.4700   26.3600   43.2200 H   0  0  0  0  0  0  0  0  0  0  0  0
   35.3620   27.4780   42.0150 H   0  0  0  0  0  0  0  0  0  0  0  0
   41.4530   26.6660   44.2330 C   0  0  0  0  0  0  0  0  0  0  0  0
   40.1450   26.8050   43.7530 C   0  0  0  0  0  0  0  0  0  0  0  0
   39.8100   28.0140   43.1150 C   0  0  0  0  0  0  0  0  0  0  0  0
   40.7410   29.0000   42.9800 N   0  0  0  0  0  0  0  0  0  0  0  0
   42.0080   28.7860   43.4810 C   0  0  0  0  0  0  0  0  0  0  0  0
   42.3430   27.6520   44.0850 N   0  0  0  0  0  0  0  0  0  0  0  0
   41.7360   25.7630   44.7190 H   0  0  0  0  0  0  0  0  0  0  0  0
   39.3980   26.0170   43.8600 H   0  0  0  0  0  0  0  0  0  0  0  0
   42.9220   29.8630   43.3000 N   0  0  0  0  0  0  0  0  0  0  0  0
   43.5230   30.6870   44.1970 C   0  0  0  0  0  3  0  0  0  0  0  0
   44.3140   31.5660   43.5500 N   0  0  0  0  0  0  0  0  0  0  0  0
   44.2490   31.3390   42.2280 C   0  0  0  0  0  0  0  0  0  0  0  0
   44.8160   31.8930   41.0890 C   0  0  0  0  0  0  0  0  0  0  0  0
   45.6080   32.8570   41.2110 O   0  0  0  0  0  0  0  0  0  0  0  0
   44.5360   31.4150   39.8430 N   0  0  0  0  0  0  0  0  0  0  0  0
   43.6870   30.3860   39.7790 C   0  0  0  0  0  0  0  0  0  0  0  0
   43.3240   29.8100   38.5380 N   0  0  0  0  0  0  0  0  0  0  0  0
   43.1170   29.8220   40.8510 N   0  0  0  0  0  0  0  0  0  0  0  0
   43.3870   30.2880   42.1020 C   0  0  0  0  0  0  0  0  0  0  0  0
   44.9460   31.8100   38.9790 H   0  0  0  0  0  0  0  0  0  0  0  0
   43.0580   28.8200   38.3590 H   0  0  0  0  0  0  0  0  0  0  0  0
   43.2320   30.1710   37.5680 H   0  0  0  0  0  0  0  0  0  0  0  0
   35.9410   29.9900   40.9470 C   0  0  0  0  0  0  0  0  0  0  0  0
   36.5260   30.8230   40.4590 H   0  0  0  0  0  0  0  0  0  0  0  0
   35.3130   30.4990   41.7130 H   0  0  0  0  0  0  0  0  0  0  0  0
   35.1190   29.3680   39.8630 C   0  0  0  0  0  0  0  0  0  0  0  0
   34.7090   28.4300   40.2070 H   0  0  0  0  0  0  0  0  0  0  0  0
   34.3490   30.2010   39.7310 H   0  0  0  0  0  0  0  0  0  0  0  0
   35.7680   29.3400   38.5260 C   0  0  0  0  0  0  0  0  0  0  0  0
   37.0960   29.4770   38.2470 C   0  0  0  0  0  0  0  0  0  0  0  0
   37.6490   29.5190   37.0010 C   0  0  0  0  0  0  0  0  0  0  0  0
   36.8310   29.4200   35.8980 C   0  0  0  0  0  0  0  0  0  0  0  0
   35.4760   29.2780   36.1140 C   0  0  0  0  0  0  0  0  0  0  0  0
   34.7070   29.1910   34.9780 C   0  0  0  0  0  0  0  0  0  0  0  0
   33.3500   29.0500   35.0860 C   0  0  0  0  0  0  0  0  0  0  0  0
   32.7730   28.9950   36.3330 C   0  0  0  0  0  0  0  0  0  0  0  0
   33.5920   29.0870   37.4290 C   0  0  0  0  0  0  0  0  0  0  0  0
   34.9400   29.2350   37.4020 C   0  0  0  0  0  0  0  0  0  0  0  0
   37.7490   29.5560   39.1210 H   0  0  0  0  0  0  0  0  0  0  0  0
   38.7220   29.6300   36.9280 H   0  0  0  0  0  0  0  0  0  0  0  0
   37.2630   29.4550   34.9200 H   0  0  0  0  0  0  0  0  0  0  0  0
   35.0950   29.2240   33.9830 H   0  0  0  0  0  0  0  0  0  0  0  0
   32.7030   28.9790   34.2150 H   0  0  0  0  0  0  0  0  0  0  0  0
   31.7000   28.8810   36.4220 H   0  0  0  0  0  0  0  0  0  0  0  0
   32.9540   29.0070   38.6590 O   0  0  0  0  0  0  0  0  0  0  0  0
   32.1280   29.5580   38.9010 H   0  0  0  0  0  0  0  0  0  0  0  0
  1  2  1  0  0  0  0
  1 10  1  0  0  0  0
  2  6  1  0  0  0  0
  3  2  2  0  0  0  0
  4  5  1  0  0  0  0
  4  3  1  0  0  0  0
  5  1  2  0  0  0  0
  7  3  1  0  0  0  0
  8 14  1  0  0  0  0
  9 15  1  0  0  0  0
  9  8  2  0  0  0  0
 10  9  1  0  0  0  0
 11 10  2  0  0  0  0
 11 12  1  0  0  0  0
 12 13  2  0  0  0  0
 13  8  1  0  0  0  0
 16 12  1  0  0  0  0
 16 17  1  0  0  0  0
 18 17  2  0  0  0  0
 19 18  1  0  0  0  0
 20 21  2  0  0  0  0
 20 19  1  0  0  0  0
 22 20  1  0  0  0  0
 23 22  1  0  0  0  0
 23 25  2  0  0  0  0
 24 23  1  0  0  0  0
 25 26  1  0  0  0  0
 26 19  2  0  0  0  0
 26 16  1  0  0  0  0
 27 22  1  0  0  0  0
 28 24  1  0  0  0  0
 29 24  1  0  0  0  0
 30  4  1  0  0  0  0
 30 32  1  0  0  0  0
 31 30  1  0  0  0  0
 33 34  1  0  0  0  0
 33 30  1  0  0  0  0
 35 33  1  0  0  0  0
 36 33  1  0  0  0  0
 37 36  1  0  0  0  0
 37 46  1  0  0  0  0
 38 37  2  0  0  0  0
 39 40  2  0  0  0  0
 39 38  1  0  0  0  0
 40 45  1  0  0  0  0
 41 42  2  0  0  0  0
 41 40  1  0  0  0  0
 42 43  1  0  0  0  0
 43 51  1  0  0  0  0
 43 44  2  0  0  0  0
 44 52  1  0  0  0  0
 45 44  1  0  0  0  0
 45 36  2  0  0  0  0
 47 38  1  0  0  0  0
 48 39  1  0  0  0  0
 49 41  1  0  0  0  0
 50 42  1  0  0  0  0
 52 53  1  0  0  0  0
M  END
>  <minimizedAffinity>
-6.56582546

>  <minimizedRMSD>
0.615308106

$$$$
