
 OpenBabel03242506103D

 29 32  0  0  0  0  0  0  0  0999 V2000
   37.0420   29.8750   41.9430 C   0  0  0  0  0  0  0  0  0  0  0  0
   38.1270   29.2870   41.2540 C   0  0  0  0  0  0  0  0  0  0  0  0
   38.3160   29.6480   39.9390 C   0  0  0  0  0  0  0  0  0  0  0  0
   37.4900   30.5310   39.3370 N   0  0  0  0  0  0  0  0  0  0  0  0
   36.4450   31.0810   40.0430 C   0  0  0  0  0  0  0  0  0  0  0  0
   36.2290   30.7510   41.3360 N   0  0  0  0  0  0  0  0  0  0  0  0
   36.9100   29.5800   42.9760 H   0  0  0  0  0  0  0  0  0  0  0  0
   35.7880   31.7910   39.5440 H   0  0  0  0  0  0  0  0  0  0  0  0
   39.3610   29.1780   39.1020 N   0  0  0  0  0  0  0  0  0  0  0  0
   39.7130   27.8670   38.9360 C   0  0  0  0  0  0  0  0  0  0  0  0
   40.7330   27.8340   38.0610 N   0  0  0  0  0  0  0  0  0  0  0  0
   41.0080   29.0890   37.6940 C   0  0  0  0  0  0  0  0  0  0  0  0
   41.9320   29.6560   36.8410 C   0  0  0  0  0  0  0  0  0  0  0  0
   42.7590   28.9420   36.2030 O   0  0  0  0  0  0  0  0  0  0  0  0
   42.0470   30.9910   36.6030 N   0  0  0  0  0  0  0  0  0  0  0  0
   41.1820   31.8150   37.2620 C   0  0  0  0  0  0  0  0  0  0  0  0
   41.2570   33.2200   37.0520 N   0  0  0  0  0  0  0  0  0  0  0  0
   40.2530   31.2940   38.1160 N   0  0  0  0  0  0  0  0  0  0  0  0
   40.1630   29.9730   38.3310 C   0  0  0  0  0  0  0  0  0  0  0  0
   42.7640   31.3710   35.9470 H   0  0  0  0  0  0  0  0  0  0  0  0
   42.0920   33.8720   37.1060 H   0  0  0  0  0  0  0  0  0  0  0  0
   40.3850   33.7450   36.8040 H   0  0  0  0  0  0  0  0  0  0  0  0
   38.9670   28.3450   41.9520 C   0  0  0  0  0  0  0  0  0  0  0  0
   38.4900   27.0370   42.2400 C   0  0  0  0  0  0  0  0  0  0  0  0
   39.8890   26.2110   43.1340 S   0  0  0  0  0  0  0  0  0  0  0  0
   40.8960   27.8020   42.9650 C   0  0  0  0  0  0  0  0  0  0  0  0
   40.1870   28.4840   42.4130 N   0  0  0  0  0  0  0  0  0  0  0  0
   37.4780   26.4740   42.0350 H   0  0  0  0  0  0  0  0  0  0  0  0
   41.9300   28.0110   43.3210 H   0  0  0  0  0  0  0  0  0  0  0  0
  1  7  1  0  0  0  0
  2  1  2  0  0  0  0
  2 23  1  0  0  0  0
  3  2  1  0  0  0  0
  4  3  2  0  0  0  0
  4  5  1  0  0  0  0
  5  6  2  0  0  0  0
  6  1  1  0  0  0  0
  8  5  1  0  0  0  0
  9  3  1  0  0  0  0
 10  9  1  0  0  0  0
 11 10  2  0  0  0  0
 12 11  1  0  0  0  0
 12 19  2  0  0  0  0
 13 12  1  0  0  0  0
 14 13  2  0  0  0  0
 15 13  1  0  0  0  0
 15 16  1  0  0  0  0
 16 18  2  0  0  0  0
 17 21  1  0  0  0  0
 17 16  1  0  0  0  0
 18 19  1  0  0  0  0
 19  9  1  0  0  0  0
 20 15  1  0  0  0  0
 22 17  1  0  0  0  0
 23 24  2  0  0  0  0
 23 27  1  0  0  0  0
 24 25  1  0  0  0  0
 26 25  1  0  0  0  0
 26 29  1  0  0  0  0
 27 26  2  0  0  0  0
 28 24  1  0  0  0  0
M  END
>  <minimizedAffinity>
-5.11314583

>  <minimizedRMSD>
1.69154274

$$$$
