
 OpenBabel03242509263D

 53 58  0  0  0  0  0  0  0  0999 V2000
   38.5890   28.1490   42.7010 C   0  0  0  0  0  0  0  0  0  0  0  0
   37.5200   27.3080   42.8760 C   0  0  0  0  0  0  0  0  0  0  0  0
   36.4240   27.9330   42.2780 C   0  0  0  0  0  0  0  0  0  0  0  0
   36.9190   29.0960   41.7920 N   0  0  0  0  0  0  0  0  0  0  0  0
   38.1830   29.2510   42.0230 N   0  0  0  0  0  0  0  0  0  0  0  0
   37.5710   26.3470   43.3920 H   0  0  0  0  0  0  0  0  0  0  0  0
   35.4410   27.5000   42.2610 H   0  0  0  0  0  0  0  0  0  0  0  0
   41.5770   26.6170   44.3200 C   0  0  0  0  0  0  0  0  0  0  0  0
   40.2520   26.7830   43.9000 C   0  0  0  0  0  0  0  0  0  0  0  0
   39.9460   27.9350   43.1520 C   0  0  0  0  0  0  0  0  0  0  0  0
   40.9210   28.8410   42.8570 N   0  0  0  0  0  0  0  0  0  0  0  0
   42.2020   28.6040   43.3080 C   0  0  0  0  0  0  0  0  0  0  0  0
   42.5100   27.5230   44.0150 N   0  0  0  0  0  0  0  0  0  0  0  0
   41.8400   25.7550   44.8880 H   0  0  0  0  0  0  0  0  0  0  0  0
   39.4710   26.0590   44.1350 H   0  0  0  0  0  0  0  0  0  0  0  0
   43.1620   29.5970   42.9580 N   0  0  0  0  0  0  0  0  0  0  0  0
   44.3630   29.9150   43.5070 C   0  0  0  0  0  3  0  0  0  0  0  0
   44.9170   30.9380   42.8290 N   0  0  0  0  0  0  0  0  0  0  0  0
   44.1000   31.3100   41.8300 C   0  0  0  0  0  0  0  0  0  0  0  0
   44.1190   32.2670   40.8260 C   0  0  0  0  0  0  0  0  0  0  0  0
   45.1060   33.0360   40.7370 O   0  0  0  0  0  0  0  0  0  0  0  0
   43.0950   32.3940   39.9340 N   0  0  0  0  0  0  0  0  0  0  0  0
   42.0740   31.5470   40.0810 C   0  0  0  0  0  0  0  0  0  0  0  0
   40.9570   31.5870   39.2130 N   0  0  0  0  0  0  0  0  0  0  0  0
   42.0140   30.6080   41.0350 N   0  0  0  0  0  0  0  0  0  0  0  0
   43.0290   30.4710   41.9320 C   0  0  0  0  0  0  0  0  0  0  0  0
   43.0870   33.0990   39.1780 H   0  0  0  0  0  0  0  0  0  0  0  0
   40.3490   30.7880   38.9350 H   0  0  0  0  0  0  0  0  0  0  0  0
   40.4830   32.3370   38.6720 H   0  0  0  0  0  0  0  0  0  0  0  0
   36.0370   29.9750   41.1190 C   0  0  0  0  0  0  0  0  0  0  0  0
   36.6150   30.8240   40.6500 H   0  0  0  0  0  0  0  0  0  0  0  0
   35.4070   30.4610   41.8990 H   0  0  0  0  0  0  0  0  0  0  0  0
   35.2170   29.3740   40.0220 C   0  0  0  0  0  0  0  0  0  0  0  0
   34.7860   28.4420   40.3570 H   0  0  0  0  0  0  0  0  0  0  0  0
   34.4640   30.2210   39.8860 H   0  0  0  0  0  0  0  0  0  0  0  0
   35.8810   29.3420   38.6940 C   0  0  0  0  0  0  0  0  0  0  0  0
   37.2120   29.4690   38.4300 C   0  0  0  0  0  0  0  0  0  0  0  0
   37.7800   29.5070   37.1900 C   0  0  0  0  0  0  0  0  0  0  0  0
   36.9740   29.4140   36.0780 C   0  0  0  0  0  0  0  0  0  0  0  0
   35.6150   29.2820   36.2780 C   0  0  0  0  0  0  0  0  0  0  0  0
   34.8590   29.2000   35.1330 C   0  0  0  0  0  0  0  0  0  0  0  0
   33.5000   29.0690   35.2260 C   0  0  0  0  0  0  0  0  0  0  0  0
   32.9080   29.0180   36.4660 C   0  0  0  0  0  0  0  0  0  0  0  0
   33.7160   29.1040   37.5710 C   0  0  0  0  0  0  0  0  0  0  0  0
   35.0650   29.2430   37.5590 C   0  0  0  0  0  0  0  0  0  0  0  0
   37.8560   29.5440   39.3110 H   0  0  0  0  0  0  0  0  0  0  0  0
   38.8540   29.6110   37.1300 H   0  0  0  0  0  0  0  0  0  0  0  0
   37.4180   29.4460   35.1050 H   0  0  0  0  0  0  0  0  0  0  0  0
   35.2580   29.2310   34.1430 H   0  0  0  0  0  0  0  0  0  0  0  0
   32.8630   29.0030   34.3480 H   0  0  0  0  0  0  0  0  0  0  0  0
   31.8340   28.9120   36.5430 H   0  0  0  0  0  0  0  0  0  0  0  0
   33.0630   29.0280   38.7940 O   0  0  0  0  0  0  0  0  0  0  0  0
   32.2380   29.5850   39.0270 H   0  0  0  0  0  0  0  0  0  0  0  0
  1  2  1  0  0  0  0
  1 10  1  0  0  0  0
  2  6  1  0  0  0  0
  3  2  2  0  0  0  0
  4  5  1  0  0  0  0
  4  3  1  0  0  0  0
  5  1  2  0  0  0  0
  7  3  1  0  0  0  0
  8 14  1  0  0  0  0
  9 15  1  0  0  0  0
  9  8  2  0  0  0  0
 10  9  1  0  0  0  0
 11 10  2  0  0  0  0
 11 12  1  0  0  0  0
 12 13  2  0  0  0  0
 13  8  1  0  0  0  0
 16 12  1  0  0  0  0
 16 17  1  0  0  0  0
 18 17  2  0  0  0  0
 19 26  2  0  0  0  0
 19 18  1  0  0  0  0
 20 19  1  0  0  0  0
 21 20  2  0  0  0  0
 22 23  1  0  0  0  0
 22 20  1  0  0  0  0
 23 25  2  0  0  0  0
 24 23  1  0  0  0  0
 25 26  1  0  0  0  0
 26 16  1  0  0  0  0
 27 22  1  0  0  0  0
 28 24  1  0  0  0  0
 29 24  1  0  0  0  0
 30  4  1  0  0  0  0
 30 32  1  0  0  0  0
 31 30  1  0  0  0  0
 33 34  1  0  0  0  0
 33 30  1  0  0  0  0
 35 33  1  0  0  0  0
 36 33  1  0  0  0  0
 37 36  1  0  0  0  0
 37 46  1  0  0  0  0
 38 37  2  0  0  0  0
 39 40  2  0  0  0  0
 39 38  1  0  0  0  0
 40 45  1  0  0  0  0
 41 42  2  0  0  0  0
 41 40  1  0  0  0  0
 42 43  1  0  0  0  0
 43 51  1  0  0  0  0
 43 44  2  0  0  0  0
 44 52  1  0  0  0  0
 45 44  1  0  0  0  0
 45 36  2  0  0  0  0
 47 38  1  0  0  0  0
 48 39  1  0  0  0  0
 49 41  1  0  0  0  0
 50 42  1  0  0  0  0
 52 53  1  0  0  0  0
M  END
>  <minimizedAffinity>
-6.66757441

>  <minimizedRMSD>
0.189224049

$$$$
