
 OpenBabel03242509263D

 53 58  0  0  0  0  0  0  0  0999 V2000
   38.4380   28.0920   42.6040 C   0  0  0  0  0  0  0  0  0  0  0  0
   37.3650   27.2430   42.6920 C   0  0  0  0  0  0  0  0  0  0  0  0
   36.3010   27.8850   42.0550 C   0  0  0  0  0  0  0  0  0  0  0  0
   36.8160   29.0660   41.6380 N   0  0  0  0  0  0  0  0  0  0  0  0
   38.0650   29.2160   41.9430 N   0  0  0  0  0  0  0  0  0  0  0  0
   37.3920   26.2650   43.1760 H   0  0  0  0  0  0  0  0  0  0  0  0
   35.3220   27.4490   41.9690 H   0  0  0  0  0  0  0  0  0  0  0  0
   41.3990   26.4310   44.1450 C   0  0  0  0  0  0  0  0  0  0  0  0
   40.1010   26.6060   43.6510 C   0  0  0  0  0  0  0  0  0  0  0  0
   39.7700   27.8670   43.1220 C   0  0  0  0  0  0  0  0  0  0  0  0
   40.6950   28.8680   43.1010 N   0  0  0  0  0  0  0  0  0  0  0  0
   41.9530   28.6150   43.6080 C   0  0  0  0  0  0  0  0  0  0  0  0
   42.2840   27.4310   44.1100 N   0  0  0  0  0  0  0  0  0  0  0  0
   41.6800   25.4870   44.5500 H   0  0  0  0  0  0  0  0  0  0  0  0
   39.3590   25.8060   43.6660 H   0  0  0  0  0  0  0  0  0  0  0  0
   42.8610   29.7100   43.5500 N   0  0  0  0  0  0  0  0  0  0  0  0
   44.1140   29.8630   44.0490 C   0  0  0  0  0  3  0  0  0  0  0  0
   44.5840   31.0870   43.7400 N   0  0  0  0  0  0  0  0  0  0  0  0
   43.6550   31.7580   43.0380 C   0  0  0  0  0  0  0  0  0  0  0  0
   43.5560   33.0160   42.4590 C   0  0  0  0  0  0  0  0  0  0  0  0
   44.5220   33.8090   42.5560 O   0  0  0  0  0  0  0  0  0  0  0  0
   42.4350   33.4100   41.7880 N   0  0  0  0  0  0  0  0  0  0  0  0
   41.4420   32.5210   41.7190 C   0  0  0  0  0  0  0  0  0  0  0  0
   40.2320   32.8220   41.0480 N   0  0  0  0  0  0  0  0  0  0  0  0
   41.4960   31.2990   42.2630 N   0  0  0  0  0  0  0  0  0  0  0  0
   42.6080   30.8910   42.9360 C   0  0  0  0  0  0  0  0  0  0  0  0
   42.3370   34.3410   41.3480 H   0  0  0  0  0  0  0  0  0  0  0  0
   39.6010   32.1530   40.5610 H   0  0  0  0  0  0  0  0  0  0  0  0
   39.6970   33.6940   40.8720 H   0  0  0  0  0  0  0  0  0  0  0  0
   35.9680   29.9650   40.9480 C   0  0  0  0  0  0  0  0  0  0  0  0
   36.5780   30.7820   40.4640 H   0  0  0  0  0  0  0  0  0  0  0  0
   35.3570   30.4890   41.7180 H   0  0  0  0  0  0  0  0  0  0  0  0
   35.1260   29.3750   39.8620 C   0  0  0  0  0  0  0  0  0  0  0  0
   34.6930   28.4450   40.2000 H   0  0  0  0  0  0  0  0  0  0  0  0
   34.3780   30.2290   39.7410 H   0  0  0  0  0  0  0  0  0  0  0  0
   35.7680   29.3420   38.5230 C   0  0  0  0  0  0  0  0  0  0  0  0
   37.0950   29.4760   38.2370 C   0  0  0  0  0  0  0  0  0  0  0  0
   37.6430   29.5140   36.9880 C   0  0  0  0  0  0  0  0  0  0  0  0
   36.8190   29.4130   35.8890 C   0  0  0  0  0  0  0  0  0  0  0  0
   35.4640   29.2740   36.1120 C   0  0  0  0  0  0  0  0  0  0  0  0
   34.6900   29.1840   34.9800 C   0  0  0  0  0  0  0  0  0  0  0  0
   33.3330   29.0460   35.0950 C   0  0  0  0  0  0  0  0  0  0  0  0
   32.7620   28.9950   36.3450 C   0  0  0  0  0  0  0  0  0  0  0  0
   33.5870   29.0890   37.4370 C   0  0  0  0  0  0  0  0  0  0  0  0
   34.9350   29.2350   37.4020 C   0  0  0  0  0  0  0  0  0  0  0  0
   37.7520   29.5570   39.1080 H   0  0  0  0  0  0  0  0  0  0  0  0
   38.7150   29.6230   36.9100 H   0  0  0  0  0  0  0  0  0  0  0  0
   37.2470   29.4450   34.9090 H   0  0  0  0  0  0  0  0  0  0  0  0
   35.0730   29.2140   33.9830 H   0  0  0  0  0  0  0  0  0  0  0  0
   32.6830   28.9730   34.2270 H   0  0  0  0  0  0  0  0  0  0  0  0
   31.6900   28.8830   36.4390 H   0  0  0  0  0  0  0  0  0  0  0  0
   32.9550   29.0130   38.6700 O   0  0  0  0  0  0  0  0  0  0  0  0
   32.1310   29.5660   38.9140 H   0  0  0  0  0  0  0  0  0  0  0  0
  1  2  1  0  0  0  0
  1 10  1  0  0  0  0
  2  6  1  0  0  0  0
  3  2  2  0  0  0  0
  4  5  1  0  0  0  0
  4  3  1  0  0  0  0
  5  1  2  0  0  0  0
  7  3  1  0  0  0  0
  8 14  1  0  0  0  0
  9 15  1  0  0  0  0
  9  8  2  0  0  0  0
 10  9  1  0  0  0  0
 11 10  2  0  0  0  0
 11 12  1  0  0  0  0
 12 13  2  0  0  0  0
 13  8  1  0  0  0  0
 16 12  1  0  0  0  0
 16 17  1  0  0  0  0
 18 17  2  0  0  0  0
 19 18  1  0  0  0  0
 20 21  2  0  0  0  0
 20 19  1  0  0  0  0
 22 20  1  0  0  0  0
 23 22  1  0  0  0  0
 23 25  2  0  0  0  0
 24 23  1  0  0  0  0
 25 26  1  0  0  0  0
 26 19  2  0  0  0  0
 26 16  1  0  0  0  0
 27 22  1  0  0  0  0
 28 24  1  0  0  0  0
 29 24  1  0  0  0  0
 30  4  1  0  0  0  0
 30 32  1  0  0  0  0
 31 30  1  0  0  0  0
 33 34  1  0  0  0  0
 33 30  1  0  0  0  0
 35 33  1  0  0  0  0
 36 33  1  0  0  0  0
 37 36  1  0  0  0  0
 37 46  1  0  0  0  0
 38 37  2  0  0  0  0
 39 40  2  0  0  0  0
 39 38  1  0  0  0  0
 40 45  1  0  0  0  0
 41 42  2  0  0  0  0
 41 40  1  0  0  0  0
 42 43  1  0  0  0  0
 43 51  1  0  0  0  0
 43 44  2  0  0  0  0
 44 52  1  0  0  0  0
 45 44  1  0  0  0  0
 45 36  2  0  0  0  0
 47 38  1  0  0  0  0
 48 39  1  0  0  0  0
 49 41  1  0  0  0  0
 50 42  1  0  0  0  0
 52 53  1  0  0  0  0
M  END
>  <minimizedAffinity>
-7.27060175

>  <minimizedRMSD>
0.776001215

$$$$
