
 OpenBabel03242508333D

 35 38  0  0  0  0  0  0  0  0999 V2000
   38.3590   28.2790   43.2320 C   0  0  0  0  0  0  0  0  0  0  0  0
   38.0870   27.1220   42.4580 C   0  0  0  0  0  0  0  0  0  0  0  0
   37.2330   27.2600   41.3640 C   0  0  0  0  0  0  0  0  0  0  0  0
   36.7170   28.4790   41.1100 N   0  0  0  0  0  0  0  0  0  0  0  0
   36.9830   29.5500   41.8470 C   0  0  0  0  0  0  0  0  0  0  0  0
   37.8130   29.4500   42.9180 N   0  0  0  0  0  0  0  0  0  0  0  0
   39.0060   28.2800   44.0970 H   0  0  0  0  0  0  0  0  0  0  0  0
   38.6140   26.2670   42.8560 H   0  0  0  0  0  0  0  0  0  0  0  0
   37.0060   26.0290   40.6270 C   0  0  0  0  0  0  0  0  0  0  0  0
   35.9920   26.0950   40.1660 H   0  0  0  0  0  0  0  0  0  0  0  0
   37.7130   25.9630   39.7630 H   0  0  0  0  0  0  0  0  0  0  0  0
   37.0150   24.7850   41.4560 C   0  0  0  0  0  0  0  0  0  0  0  0
   38.0190   24.6200   41.9480 H   0  0  0  0  0  0  0  0  0  0  0  0
   36.2180   24.8260   42.1960 H   0  0  0  0  0  0  0  0  0  0  0  0
   36.8330   23.5950   40.5860 C   0  0  0  0  0  0  0  0  0  0  0  0
   35.7680   23.3580   39.7510 C   0  0  0  0  0  0  0  0  0  0  0  0
   35.6970   22.2200   38.9840 C   0  0  0  0  0  0  0  0  0  0  0  0
   36.7420   21.3050   39.0790 C   0  0  0  0  0  0  0  0  0  0  0  0
   36.6640   20.4140   38.4650 H   0  0  0  0  0  0  0  0  0  0  0  0
   37.8040   21.5740   39.9300 C   0  0  0  0  0  0  0  0  0  0  0  0
   37.8440   22.6970   40.6680 N   0  0  0  0  0  0  0  0  0  0  0  0
   36.3400   30.6650   41.3840 O   0  0  0  0  0  0  0  0  0  0  0  0
   36.9830   31.5300   40.5060 C   0  0  0  0  0  0  0  0  0  0  0  0
   36.8720   31.6630   39.1470 N   0  0  0  0  0  0  0  0  0  0  0  0
   37.6870   32.6210   38.7610 O   0  0  0  0  0  0  0  0  0  0  0  0
   38.2900   33.0760   39.8380 C   0  0  0  0  0  0  0  0  0  0  0  0
   37.8780   32.4250   40.9190 N   0  0  0  0  0  0  0  0  0  0  0  0
   39.2750   34.1530   39.8070 C   0  0  0  0  0  0  0  0  0  0  0  0
   39.0790   35.4680   40.2080 C   0  0  0  0  0  0  0  0  0  0  0  0
   40.2430   36.1680   40.0240 C   0  0  0  0  0  0  0  0  0  0  0  0
   41.1350   35.2530   39.5090 C   0  0  0  0  0  0  0  0  0  0  0  0
   40.5210   34.1170   39.4080 O   0  0  0  0  0  0  0  0  0  0  0  0
   38.1780   35.9190   40.6060 H   0  0  0  0  0  0  0  0  0  0  0  0
   40.5250   37.1870   40.1990 H   0  0  0  0  0  0  0  0  0  0  0  0
   42.1720   35.2880   39.1940 H   0  0  0  0  0  0  0  0  0  0  0  0
  1  7  1  0  0  0  0
  2  8  1  0  0  0  0
  2  1  2  0  0  0  0
  3  2  1  0  0  0  0
  4  3  2  0  0  0  0
  4  5  1  0  0  0  0
  5  6  2  0  0  0  0
  6  1  1  0  0  0  0
  9  3  1  0  0  0  0
  9 12  1  0  0  0  0
 10  9  1  0  0  0  0
 11  9  1  0  0  0  0
 12 13  1  0  0  0  0
 12 14  1  0  0  0  0
 15 21  1  0  0  0  0
 15 12  1  0  0  0  0
 16 15  2  0  0  0  0
 17 18  2  0  0  0  0
 17 16  1  0  0  0  0
 18 20  1  0  0  0  0
 19 18  1  0  0  0  0
 20 21  2  0  0  0  0
 22  5  1  0  0  0  0
 23 27  1  0  0  0  0
 23 22  1  0  0  0  0
 24 23  2  0  0  0  0
 25 24  1  0  0  0  0
 25 26  1  0  0  0  0
 26 27  2  0  0  0  0
 28 26  1  0  0  0  0
 28 29  2  0  0  0  0
 29 33  1  0  0  0  0
 30 34  1  0  0  0  0
 30 29  1  0  0  0  0
 31 30  2  0  0  0  0
 32 31  1  0  0  0  0
 32 28  1  0  0  0  0
 35 31  1  0  0  0  0
M  END
>  <minimizedAffinity>
-5.95757818

>  <minimizedRMSD>
0.454918176

$$$$
