
 OpenBabel03242509263D

 53 58  0  0  0  0  0  0  0  0999 V2000
   38.6390   28.1580   42.7100 C   0  0  0  0  0  0  0  0  0  0  0  0
   37.5610   27.3220   42.8490 C   0  0  0  0  0  0  0  0  0  0  0  0
   36.4790   27.9700   42.2490 C   0  0  0  0  0  0  0  0  0  0  0  0
   36.9900   29.1410   41.8000 N   0  0  0  0  0  0  0  0  0  0  0  0
   38.2520   29.2800   42.0530 N   0  0  0  0  0  0  0  0  0  0  0  0
   37.5970   26.3490   43.3410 H   0  0  0  0  0  0  0  0  0  0  0  0
   35.4940   27.5460   42.2070 H   0  0  0  0  0  0  0  0  0  0  0  0
   41.5850   26.5770   44.3610 C   0  0  0  0  0  0  0  0  0  0  0  0
   40.2680   26.7660   43.9260 C   0  0  0  0  0  0  0  0  0  0  0  0
   39.9880   27.9220   43.1760 C   0  0  0  0  0  0  0  0  0  0  0  0
   40.9800   28.8140   42.8930 N   0  0  0  0  0  0  0  0  0  0  0  0
   42.2530   28.5560   43.3570 C   0  0  0  0  0  0  0  0  0  0  0  0
   42.5350   27.4690   44.0660 N   0  0  0  0  0  0  0  0  0  0  0  0
   41.8270   25.7110   44.9300 H   0  0  0  0  0  0  0  0  0  0  0  0
   39.4720   26.0530   44.1510 H   0  0  0  0  0  0  0  0  0  0  0  0
   43.2310   29.5340   43.0200 N   0  0  0  0  0  0  0  0  0  0  0  0
   44.5800   29.5400   43.1700 C   0  0  0  0  0  3  0  0  0  0  0  0
   45.0870   30.6960   42.6990 N   0  0  0  0  0  0  0  0  0  0  0  0
   44.0900   31.4670   42.2350 C   0  0  0  0  0  0  0  0  0  0  0  0
   43.9830   32.7200   41.6510 C   0  0  0  0  0  0  0  0  0  0  0  0
   45.0240   33.3930   41.4610 O   0  0  0  0  0  0  0  0  0  0  0  0
   42.7770   33.2390   41.2790 N   0  0  0  0  0  0  0  0  0  0  0  0
   41.7080   32.4750   41.5060 C   0  0  0  0  0  0  0  0  0  0  0  0
   40.4060   32.9120   41.1610 N   0  0  0  0  0  0  0  0  0  0  0  0
   41.7650   31.2610   42.0680 N   0  0  0  0  0  0  0  0  0  0  0  0
   42.9610   30.7300   42.4450 C   0  0  0  0  0  0  0  0  0  0  0  0
   42.6730   34.1710   40.8410 H   0  0  0  0  0  0  0  0  0  0  0  0
   39.5980   32.3180   40.8820 H   0  0  0  0  0  0  0  0  0  0  0  0
   39.9450   33.8400   41.0950 H   0  0  0  0  0  0  0  0  0  0  0  0
   36.1260   30.0440   41.1360 C   0  0  0  0  0  0  0  0  0  0  0  0
   36.7230   30.8650   40.6440 H   0  0  0  0  0  0  0  0  0  0  0  0
   35.5310   30.5600   41.9230 H   0  0  0  0  0  0  0  0  0  0  0  0
   35.2610   29.4590   40.0650 C   0  0  0  0  0  0  0  0  0  0  0  0
   34.8050   28.5470   40.4200 H   0  0  0  0  0  0  0  0  0  0  0  0
   34.5350   30.3320   39.9350 H   0  0  0  0  0  0  0  0  0  0  0  0
   35.8930   29.3880   38.7220 C   0  0  0  0  0  0  0  0  0  0  0  0
   37.2170   29.5150   38.4230 C   0  0  0  0  0  0  0  0  0  0  0  0
   37.7550   29.5180   37.1690 C   0  0  0  0  0  0  0  0  0  0  0  0
   36.9230   29.3830   36.0800 C   0  0  0  0  0  0  0  0  0  0  0  0
   35.5710   29.2490   36.3170 C   0  0  0  0  0  0  0  0  0  0  0  0
   34.7880   29.1250   35.1940 C   0  0  0  0  0  0  0  0  0  0  0  0
   33.4330   28.9880   35.3230 C   0  0  0  0  0  0  0  0  0  0  0  0
   32.8710   28.9740   36.5780 C   0  0  0  0  0  0  0  0  0  0  0  0
   33.7040   29.1000   37.6600 C   0  0  0  0  0  0  0  0  0  0  0  0
   35.0510   29.2480   37.6120 C   0  0  0  0  0  0  0  0  0  0  0  0
   37.8810   29.6230   39.2850 H   0  0  0  0  0  0  0  0  0  0  0  0
   38.8270   29.6260   37.0800 H   0  0  0  0  0  0  0  0  0  0  0  0
   37.3440   29.3860   35.0960 H   0  0  0  0  0  0  0  0  0  0  0  0
   35.1640   29.1260   34.1940 H   0  0  0  0  0  0  0  0  0  0  0  0
   32.7750   28.8890   34.4630 H   0  0  0  0  0  0  0  0  0  0  0  0
   31.7990   28.8630   36.6840 H   0  0  0  0  0  0  0  0  0  0  0  0
   33.0810   29.0600   38.9000 O   0  0  0  0  0  0  0  0  0  0  0  0
   32.2580   29.6190   39.1340 H   0  0  0  0  0  0  0  0  0  0  0  0
  1  2  1  0  0  0  0
  1 10  1  0  0  0  0
  2  6  1  0  0  0  0
  3  2  2  0  0  0  0
  4  5  1  0  0  0  0
  4  3  1  0  0  0  0
  5  1  2  0  0  0  0
  7  3  1  0  0  0  0
  8 14  1  0  0  0  0
  9 15  1  0  0  0  0
  9  8  2  0  0  0  0
 10  9  1  0  0  0  0
 11 10  2  0  0  0  0
 11 12  1  0  0  0  0
 12 13  2  0  0  0  0
 13  8  1  0  0  0  0
 16 17  1  0  0  0  0
 16 12  1  0  0  0  0
 18 17  2  0  0  0  0
 19 26  2  0  0  0  0
 19 18  1  0  0  0  0
 20 19  1  0  0  0  0
 21 20  2  0  0  0  0
 22 23  1  0  0  0  0
 22 20  1  0  0  0  0
 23 25  2  0  0  0  0
 24 23  1  0  0  0  0
 25 26  1  0  0  0  0
 26 16  1  0  0  0  0
 27 22  1  0  0  0  0
 28 24  1  0  0  0  0
 29 24  1  0  0  0  0
 30  4  1  0  0  0  0
 30 32  1  0  0  0  0
 31 30  1  0  0  0  0
 33 34  1  0  0  0  0
 33 30  1  0  0  0  0
 35 33  1  0  0  0  0
 36 33  1  0  0  0  0
 37 36  1  0  0  0  0
 37 46  1  0  0  0  0
 38 37  2  0  0  0  0
 39 40  2  0  0  0  0
 39 38  1  0  0  0  0
 40 45  1  0  0  0  0
 41 42  2  0  0  0  0
 41 40  1  0  0  0  0
 42 43  1  0  0  0  0
 43 51  1  0  0  0  0
 43 44  2  0  0  0  0
 44 52  1  0  0  0  0
 45 44  1  0  0  0  0
 45 36  2  0  0  0  0
 47 38  1  0  0  0  0
 48 39  1  0  0  0  0
 49 41  1  0  0  0  0
 50 42  1  0  0  0  0
 52 53  1  0  0  0  0
M  END
>  <minimizedAffinity>
-7.0406251

>  <minimizedRMSD>
0.110946089

$$$$
