
 OpenBabel03242509083D

 44 49  0  0  1  0  0  0  0  0999 V2000
   36.2050   30.7410   41.1340 C   0  0  0  0  0  0  0  0  0  0  0  0
   36.7530   29.5810   41.7120 C   0  0  0  0  0  0  0  0  0  0  0  0
   38.1310   29.3960   41.6490 C   0  0  0  0  0  0  0  0  0  0  0  0
   38.8630   30.3570   41.0300 N   0  0  0  0  0  0  0  0  0  0  0  0
   38.3210   31.4650   40.4800 C   0  0  0  0  0  0  0  0  0  0  0  0
   36.9850   31.6630   40.5300 N   0  0  0  0  0  0  0  0  0  0  0  0
   35.1270   30.8380   41.2080 H   0  0  0  0  0  0  0  0  0  0  0  0
   36.1490   28.8270   42.2010 H   0  0  0  0  0  0  0  0  0  0  0  0
   38.7020   28.1980   42.2350 C   0  0  0  0  0  0  0  0  0  0  0  0
   39.7680   28.0970   43.0990 C   0  0  0  0  0  0  0  0  0  0  0  0
   39.9720   26.7900   43.3940 N   0  0  0  0  0  0  0  0  0  0  0  0
   39.0790   26.0260   42.7560 C   0  0  0  0  0  0  0  0  0  0  0  0
   38.8450   24.6600   42.7050 C   0  0  0  0  0  0  0  0  0  0  0  0
   37.8060   24.1280   41.9280 C   0  0  0  0  0  0  0  0  0  0  0  0
   37.0370   25.0200   41.2230 C   0  0  0  0  0  0  0  0  0  0  0  0
   37.2600   26.3690   41.2660 C   0  0  0  0  0  0  0  0  0  0  0  0
   38.2890   26.8920   42.0360 C   0  0  0  0  0  0  0  0  0  0  0  0
   40.3450   28.9200   43.4780 H   0  0  0  0  0  0  0  0  0  0  0  0
   40.7240   26.4320   44.0310 H   0  0  0  0  0  0  0  0  0  0  0  0
   39.4990   24.0210   43.2910 H   0  0  0  0  0  0  0  0  0  0  0  0
   37.6420   23.0710   41.9020 H   0  0  0  0  0  0  0  0  0  0  0  0
   36.2230   24.6200   40.6140 H   0  0  0  0  0  0  0  0  0  0  0  0
   36.6100   27.0090   40.6830 H   0  0  0  0  0  0  0  0  0  0  0  0
   39.1950   32.4790   39.8210 C   0  0  1  0  0  0  0  0  0  0  0  0
   39.3850   33.8200   40.5270 C   0  0  0  0  0  0  0  0  0  0  0  0
   40.5050   32.8260   40.4390 C   0  0  2  0  0  0  0  0  0  0  0  0
   39.1110   32.5460   38.7010 H   0  0  0  0  0  0  0  0  0  0  0  0
   38.7740   33.9210   41.4350 H   0  0  0  0  0  0  0  0  0  0  0  0
   39.3610   34.6960   39.8510 H   0  0  0  0  0  0  0  0  0  0  0  0
   40.6970   32.3210   41.4310 H   0  0  0  0  0  0  0  0  0  0  0  0
   41.6510   33.1720   39.6270 N   0  0  0  0  0  0  0  0  0  0  0  0
   42.1740   34.3960   39.3860 C   0  0  0  0  0  3  0  0  0  0  0  0
   43.2460   34.2070   38.5630 N   0  0  0  0  0  0  0  0  0  0  0  0
   43.3720   32.8730   38.3060 C   0  0  0  0  0  0  0  0  0  0  0  0
   44.3330   32.2360   37.5120 C   0  0  0  0  0  0  0  0  0  0  0  0
   45.2210   32.9070   36.9310 O   0  0  0  0  0  0  0  0  0  0  0  0
   44.1870   30.9000   37.4570 N   0  0  0  0  0  0  0  0  0  0  0  0
   43.2050   30.2570   38.1100 C   0  0  0  0  0  0  0  0  0  0  0  0
   43.0680   28.8420   38.0410 N   0  0  0  0  0  0  0  0  0  0  0  0
   42.2890   30.8960   38.8720 N   0  0  0  0  0  0  0  0  0  0  0  0
   42.3550   32.2280   38.9860 C   0  0  0  0  0  0  0  0  0  0  0  0
   44.8760   30.3730   36.8790 H   0  0  0  0  0  0  0  0  0  0  0  0
   42.5660   28.7750   37.1210 H   0  0  0  0  0  0  0  0  0  0  0  0
   43.2680   27.9330   38.5320 H   0  0  0  0  0  0  0  0  0  0  0  0
  1  7  1  0  0  0  0
  1  2  1  0  0  0  0
  2  8  1  0  0  0  0
  3  2  2  0  0  0  0
  3  9  1  0  0  0  0
  4  3  1  0  0  0  0
  5  6  1  0  0  0  0
  5  4  2  0  0  0  0
  6  1  2  0  0  0  0
  9 10  2  0  0  0  0
 10 11  1  0  0  0  0
 10 18  1  0  0  0  0
 11 19  1  0  0  0  0
 12 11  1  0  0  0  0
 13 12  1  0  0  0  0
 13 20  1  0  0  0  0
 14 13  2  0  0  0  0
 15 16  2  0  0  0  0
 15 14  1  0  0  0  0
 16 17  1  0  0  0  0
 17  9  1  0  0  0  0
 17 12  2  0  0  0  0
 21 14  1  0  0  0  0
 22 15  1  0  0  0  0
 23 16  1  0  0  0  0
 24 27  1  6  0  0  0
 24 26  1  0  0  0  0
 24  5  1  0  0  0  0
 24 25  1  0  0  0  0
 25 28  1  0  0  0  0
 26 25  1  0  0  0  0
 26 30  1  1  0  0  0
 29 25  1  0  0  0  0
 31 26  1  0  0  0  0
 32 31  1  0  0  0  0
 33 32  2  0  0  0  0
 34 33  1  0  0  0  0
 34 41  2  0  0  0  0
 35 34  1  0  0  0  0
 36 35  2  0  0  0  0
 37 35  1  0  0  0  0
 37 38  1  0  0  0  0
 38 40  2  0  0  0  0
 39 38  1  0  0  0  0
 39 44  1  0  0  0  0
 40 41  1  0  0  0  0
 41 31  1  0  0  0  0
 42 37  1  0  0  0  0
 43 39  1  0  0  0  0
M  END
>  <minimizedAffinity>
-6.40516615

>  <minimizedRMSD>
0.401798457

$$$$
