
 OpenBabel03242509263D

 53 58  0  0  0  0  0  0  0  0999 V2000
   38.7610   28.2130   42.7590 C   0  0  0  0  0  0  0  0  0  0  0  0
   37.6890   27.3670   42.8840 C   0  0  0  0  0  0  0  0  0  0  0  0
   36.6060   28.0100   42.2800 C   0  0  0  0  0  0  0  0  0  0  0  0
   37.1110   29.1870   41.8420 N   0  0  0  0  0  0  0  0  0  0  0  0
   38.3690   29.3360   42.1060 N   0  0  0  0  0  0  0  0  0  0  0  0
   37.7300   26.3910   43.3710 H   0  0  0  0  0  0  0  0  0  0  0  0
   35.6250   27.5770   42.2290 H   0  0  0  0  0  0  0  0  0  0  0  0
   41.7170   26.6270   44.3860 C   0  0  0  0  0  0  0  0  0  0  0  0
   40.4020   26.8060   43.9410 C   0  0  0  0  0  0  0  0  0  0  0  0
   40.1080   27.9860   43.2330 C   0  0  0  0  0  0  0  0  0  0  0  0
   41.0850   28.9080   43.0000 N   0  0  0  0  0  0  0  0  0  0  0  0
   42.3570   28.6580   43.4720 C   0  0  0  0  0  0  0  0  0  0  0  0
   42.6520   27.5500   44.1410 N   0  0  0  0  0  0  0  0  0  0  0  0
   41.9700   25.7440   44.9230 H   0  0  0  0  0  0  0  0  0  0  0  0
   39.6180   26.0700   44.1260 H   0  0  0  0  0  0  0  0  0  0  0  0
   43.3190   29.6680   43.1870 N   0  0  0  0  0  0  0  0  0  0  0  0
   43.8530   30.0930   42.0130 C   0  0  0  0  0  0  0  0  0  0  0  0
   44.7340   31.0840   42.2450 N   0  0  0  0  0  0  0  0  0  0  0  0
   44.7970   31.3300   43.5640 C   0  0  0  0  0  0  0  0  0  0  0  0
   45.4950   32.2020   44.3870 C   0  0  0  0  0  0  0  0  0  0  0  0
   46.3010   33.0120   43.8700 O   0  0  0  0  0  0  0  0  0  0  0  0
   45.3280   32.2010   45.7410 N   0  0  0  0  0  0  0  0  0  0  0  0
   44.4560   31.3160   46.2300 C   0  0  0  0  0  0  0  0  0  0  0  0
   44.2040   31.2270   47.6190 N   0  0  0  0  0  0  0  0  0  0  0  0
   43.7620   30.4570   45.4730 N   0  0  0  0  0  0  0  0  0  0  0  0
   43.9190   30.4470   44.1200 C   0  0  0  0  0  0  0  0  0  0  0  0
   45.8370   32.8410   46.3750 H   0  0  0  0  0  0  0  0  0  0  0  0
   43.3160   30.9360   48.0780 H   0  0  0  0  0  0  0  0  0  0  0  0
   44.7670   31.4040   48.4740 H   0  0  0  0  0  0  0  0  0  0  0  0
   36.2430   30.0860   41.1770 C   0  0  0  0  0  0  0  0  0  0  0  0
   36.8400   30.8910   40.6570 H   0  0  0  0  0  0  0  0  0  0  0  0
   35.6700   30.6260   41.9640 H   0  0  0  0  0  0  0  0  0  0  0  0
   35.3500   29.4910   40.1350 C   0  0  0  0  0  0  0  0  0  0  0  0
   34.9040   28.5830   40.5120 H   0  0  0  0  0  0  0  0  0  0  0  0
   34.6220   30.3620   40.0140 H   0  0  0  0  0  0  0  0  0  0  0  0
   35.9480   29.4040   38.7770 C   0  0  0  0  0  0  0  0  0  0  0  0
   37.2640   29.5300   38.4420 C   0  0  0  0  0  0  0  0  0  0  0  0
   37.7690   29.5170   37.1750 C   0  0  0  0  0  0  0  0  0  0  0  0
   36.9090   29.3670   36.1100 C   0  0  0  0  0  0  0  0  0  0  0  0
   35.5640   29.2330   36.3830 C   0  0  0  0  0  0  0  0  0  0  0  0
   34.7520   29.0940   35.2820 C   0  0  0  0  0  0  0  0  0  0  0  0
   33.4010   28.9560   35.4490 C   0  0  0  0  0  0  0  0  0  0  0  0
   32.8720   28.9560   36.7180 C   0  0  0  0  0  0  0  0  0  0  0  0
   33.7330   29.0980   37.7770 C   0  0  0  0  0  0  0  0  0  0  0  0
   35.0780   29.2470   37.6910 C   0  0  0  0  0  0  0  0  0  0  0  0
   37.9490   29.6500   39.2860 H   0  0  0  0  0  0  0  0  0  0  0  0
   38.8370   29.6260   37.0560 H   0  0  0  0  0  0  0  0  0  0  0  0
   37.3040   29.3590   35.1150 H   0  0  0  0  0  0  0  0  0  0  0  0
   35.1020   29.0830   34.2730 H   0  0  0  0  0  0  0  0  0  0  0  0
   32.7220   28.8450   34.6070 H   0  0  0  0  0  0  0  0  0  0  0  0
   31.8040   28.8450   36.8530 H   0  0  0  0  0  0  0  0  0  0  0  0
   33.1420   29.0720   39.0320 O   0  0  0  0  0  0  0  0  0  0  0  0
   32.3240   29.6330   39.2810 H   0  0  0  0  0  0  0  0  0  0  0  0
  1  2  1  0  0  0  0
  1 10  1  0  0  0  0
  2  6  1  0  0  0  0
  3  2  2  0  0  0  0
  4  5  1  0  0  0  0
  4  3  1  0  0  0  0
  5  1  2  0  0  0  0
  7  3  1  0  0  0  0
  8 14  1  0  0  0  0
  9 15  1  0  0  0  0
  9  8  2  0  0  0  0
 10  9  1  0  0  0  0
 11 10  2  0  0  0  0
 11 12  1  0  0  0  0
 12 13  2  0  0  0  0
 13  8  1  0  0  0  0
 16 12  1  0  0  0  0
 16 26  1  0  0  0  0
 17 18  2  0  0  0  0
 17 16  1  0  0  0  0
 18 19  1  0  0  0  0
 19 26  2  0  0  0  0
 19 20  1  0  0  0  0
 20 22  1  0  0  0  0
 21 20  2  0  0  0  0
 22 23  1  0  0  0  0
 22 27  1  0  0  0  0
 23 24  1  0  0  0  0
 24 28  1  0  0  0  0
 24 29  1  0  0  0  0
 25 23  2  0  0  0  0
 26 25  1  0  0  0  0
 30  4  1  0  0  0  0
 30 32  1  0  0  0  0
 31 30  1  0  0  0  0
 33 34  1  0  0  0  0
 33 30  1  0  0  0  0
 35 33  1  0  0  0  0
 36 33  1  0  0  0  0
 37 36  1  0  0  0  0
 37 46  1  0  0  0  0
 38 37  2  0  0  0  0
 39 40  2  0  0  0  0
 39 38  1  0  0  0  0
 40 45  1  0  0  0  0
 41 42  2  0  0  0  0
 41 40  1  0  0  0  0
 42 43  1  0  0  0  0
 43 51  1  0  0  0  0
 43 44  2  0  0  0  0
 44 52  1  0  0  0  0
 45 44  1  0  0  0  0
 45 36  2  0  0  0  0
 47 38  1  0  0  0  0
 48 39  1  0  0  0  0
 49 41  1  0  0  0  0
 50 42  1  0  0  0  0
 52 53  1  0  0  0  0
M  END
>  <minimizedAffinity>
-7.43537474

>  <minimizedRMSD>
0.260592282

$$$$
