
 OpenBabel03242509313D

 19 20  0  0  0  0  0  0  0  0999 V2000
   37.7620   28.7880   43.4180 C   0  0  0  0  0  0  0  0  0  0  0  0
   38.0850   27.3990   43.4770 C   0  0  0  0  0  0  0  0  0  0  0  0
   37.8200   26.6570   42.3230 C   0  0  0  0  0  0  0  0  0  0  0  0
   37.2780   27.3020   41.2330 N   0  0  0  0  0  0  0  0  0  0  0  0
   36.9940   28.6110   41.2380 C   0  0  0  0  0  0  0  0  0  0  0  0
   37.2400   29.3440   42.3330 N   0  0  0  0  0  0  0  0  0  0  0  0
   37.9370   29.4290   44.2720 H   0  0  0  0  0  0  0  0  0  0  0  0
   38.5090   26.9810   44.3780 H   0  0  0  0  0  0  0  0  0  0  0  0
   36.4460   28.9900   39.9750 N   0  0  0  0  0  0  0  0  0  0  0  0
   37.0750   29.4730   38.9090 N   0  0  0  0  0  0  0  0  0  0  0  0
   36.1840   29.7030   37.9110 C   0  0  0  0  0  0  0  0  0  0  0  0
   36.3510   30.0920   36.9130 H   0  0  0  0  0  0  0  0  0  0  0  0
   34.9230   29.3480   38.3590 C   0  0  0  0  0  3  0  0  0  0  0  0
   35.1270   28.9040   39.6610 C   0  0  0  0  0  0  0  0  0  0  0  0
   34.3560   28.5350   40.3520 H   0  0  0  0  0  0  0  0  0  0  0  0
   38.1380   25.1990   42.3260 C   0  0  0  0  0  0  0  0  0  0  0  0
   38.6080   24.9190   41.0530 F   0  0  0  0  0  0  0  0  0  0  0  0
   39.1020   24.8820   43.2290 F   0  0  0  0  0  0  0  0  0  0  0  0
   37.0000   24.4280   42.5410 F   0  0  0  0  0  0  0  0  0  0  0  0
  1  2  1  0  0  0  0
  1  7  1  0  0  0  0
  2  8  1  0  0  0  0
  3 16  1  0  0  0  0
  3  2  2  0  0  0  0
  4  5  2  0  0  0  0
  4  3  1  0  0  0  0
  5  6  1  0  0  0  0
  6  1  2  0  0  0  0
  9  5  1  0  0  0  0
 10  9  1  0  0  0  0
 11 13  1  0  0  0  0
 11 10  2  0  0  0  0
 12 11  1  0  0  0  0
 13 14  2  0  0  0  0
 14  9  1  0  0  0  0
 14 15  1  0  0  0  0
 16 19  1  0  0  0  0
 16 18  1  0  0  0  0
 17 16  1  0  0  0  0
M  END
>  <minimizedAffinity>
-4.24311352

>  <minimizedRMSD>
0.803875864

$$$$
