
 OpenBabel03242506513D

 39 43  0  0  0  0  0  0  0  0999 V2000
   44.5740   26.4400   44.3780 C   0  0  0  0  0  0  0  0  0  0  0  0
   43.4050   26.4520   43.6010 C   0  0  0  0  0  0  0  0  0  0  0  0
   42.2410   26.9310   44.1670 C   0  0  0  0  0  0  0  0  0  0  0  0
   42.2730   27.3760   45.4690 N   0  0  0  0  0  0  0  0  0  0  0  0
   43.4100   27.3490   46.1800 C   0  0  0  0  0  0  0  0  0  0  0  0
   44.5650   26.8810   45.6380 N   0  0  0  0  0  0  0  0  0  0  0  0
   45.4830   26.0610   43.9200 H   0  0  0  0  0  0  0  0  0  0  0  0
   43.3680   25.9800   42.2180 C   0  0  0  0  0  0  0  0  0  0  0  0
   44.3980   26.1340   41.3320 C   0  0  0  0  0  0  0  0  0  0  0  0
   44.3880   25.6980   40.0220 C   0  0  0  0  0  0  0  0  0  0  0  0
   43.2580   25.0640   39.5900 N   0  0  0  0  0  0  0  0  0  0  0  0
   42.2410   24.9090   40.4590 C   0  0  0  0  0  0  0  0  0  0  0  0
   42.2850   25.3470   41.7270 N   0  0  0  0  0  0  0  0  0  0  0  0
   45.2940   26.6460   41.7050 H   0  0  0  0  0  0  0  0  0  0  0  0
   45.2220   25.8370   39.3460 H   0  0  0  0  0  0  0  0  0  0  0  0
   41.3240   24.4120   40.1610 H   0  0  0  0  0  0  0  0  0  0  0  0
   43.3980   27.8400   47.5820 C   0  0  0  0  0  0  0  0  0  0  0  0
   43.3580   29.2220   47.6190 F   0  0  0  0  0  0  0  0  0  0  0  0
   42.2220   27.4470   48.2270 F   0  0  0  0  0  0  0  0  0  0  0  0
   44.5130   27.4380   48.3030 F   0  0  0  0  0  0  0  0  0  0  0  0
   41.1050   26.9380   43.4010 O   0  0  0  0  0  0  0  0  0  0  0  0
   37.1260   29.1010   43.3390 N   0  0  0  0  0  0  0  0  0  0  0  0
   37.0020   27.8510   43.7960 C   0  0  0  0  0  0  0  0  0  0  0  0
   38.2360   27.2910   43.7770 N   0  0  0  0  0  0  0  0  0  0  0  0
   39.1460   28.1720   43.3120 C   0  0  0  0  0  0  0  0  0  0  0  0
   40.5080   28.1430   43.0860 C   0  0  0  0  0  0  0  0  0  0  0  0
   41.1210   29.2420   42.5970 N   0  0  0  0  0  0  0  0  0  0  0  0
   40.3990   30.3460   42.3380 C   0  0  0  0  0  0  0  0  0  0  0  0
   39.0630   30.4260   42.5420 N   0  0  0  0  0  0  0  0  0  0  0  0
   38.4130   29.3400   43.0330 C   0  0  0  0  0  0  0  0  0  0  0  0
   36.3950   29.8360   43.2110 H   0  0  0  0  0  0  0  0  0  0  0  0
   36.0590   27.4240   44.1080 H   0  0  0  0  0  0  0  0  0  0  0  0
   41.0280   31.5170   41.8220 N   0  0  0  0  0  0  0  0  0  0  0  0
   42.2360   31.9020   42.1970 N   0  0  0  0  0  0  0  0  0  0  0  0
   42.6250   33.0230   41.5870 C   0  0  0  0  0  0  0  0  0  0  0  0
   43.5440   33.5880   41.6720 H   0  0  0  0  0  0  0  0  0  0  0  0
   41.5760   33.4000   40.7400 C   0  0  0  0  0  0  0  0  0  0  0  0
   40.6100   32.4310   40.9250 C   0  0  0  0  0  0  0  0  0  0  0  0
   39.6290   32.3670   40.4390 H   0  0  0  0  0  0  0  0  0  0  0  0
  1  6  1  0  0  0  0
  2  3  1  0  0  0  0
  2  1  2  0  0  0  0
  3  4  2  0  0  0  0
  4  5  1  0  0  0  0
  5 17  1  0  0  0  0
  6  5  2  0  0  0  0
  7  1  1  0  0  0  0
  8  2  1  0  0  0  0
  9 14  1  0  0  0  0
  9  8  2  0  0  0  0
 10  9  1  0  0  0  0
 11 10  2  0  0  0  0
 11 12  1  0  0  0  0
 12 13  2  0  0  0  0
 13  8  1  0  0  0  0
 15 10  1  0  0  0  0
 16 12  1  0  0  0  0
 17 18  1  0  0  0  0
 17 19  1  0  0  0  0
 17 20  1  0  0  0  0
 21  3  1  0  0  0  0
 22 23  1  0  0  0  0
 23 32  1  0  0  0  0
 24 23  2  0  0  0  0
 25 24  1  0  0  0  0
 26 25  1  0  0  0  0
 26 21  1  0  0  0  0
 27 26  2  0  0  0  0
 28 29  2  0  0  0  0
 28 27  1  0  0  0  0
 29 30  1  0  0  0  0
 30 25  2  0  0  0  0
 30 22  1  0  0  0  0
 31 22  1  0  0  0  0
 33 34  1  0  0  0  0
 33 28  1  0  0  0  0
 35 36  1  0  0  0  0
 35 34  2  0  0  0  0
 37 38  2  0  0  0  0
 37 35  1  0  0  0  0
 38 33  1  0  0  0  0
 39 38  1  0  0  0  0
M  END
>  <minimizedAffinity>
-6.35560608

>  <minimizedRMSD>
0.0973072648

$$$$
