
 OpenBabel03242508593D

 23 25  0  0  1  0  0  0  0  0999 V2000
   36.1900   30.7430   40.8210 C   0  0  1  0  0  0  0  0  0  0  0  0
   37.1020   31.8600   40.4300 C   0  0  0  0  0  0  0  0  0  0  0  0
   36.7470   30.8710   39.3830 C   0  0  1  0  0  0  0  0  0  0  0  0
   35.1130   30.8650   40.9270 H   0  0  0  0  0  0  0  0  0  0  0  0
   38.1460   31.8550   40.7780 H   0  0  0  0  0  0  0  0  0  0  0  0
   36.6490   32.8930   40.3650 H   0  0  0  0  0  0  0  0  0  0  0  0
   35.9840   31.2150   38.6580 H   0  0  0  0  0  0  0  0  0  0  0  0
   38.5180   28.9750   43.0840 C   0  0  0  0  0  0  0  0  0  0  0  0
   37.9310   27.6860   43.1770 C   0  0  0  0  0  0  0  0  0  0  0  0
   36.7410   27.4660   42.4380 C   0  0  0  0  0  0  0  0  0  0  0  0
   36.2200   28.4660   41.6900 N   0  0  0  0  0  0  0  0  0  0  0  0
   36.8240   29.6850   41.6360 C   0  0  0  0  0  0  0  0  0  0  0  0
   37.9600   29.9410   42.3220 N   0  0  0  0  0  0  0  0  0  0  0  0
   39.4220   29.2310   43.6110 H   0  0  0  0  0  0  0  0  0  0  0  0
   38.4020   26.9330   43.7950 H   0  0  0  0  0  0  0  0  0  0  0  0
   36.3380   26.4840   42.5390 H   0  0  0  0  0  0  0  0  0  0  0  0
   37.6620   29.8630   38.9500 N   0  0  0  0  0  0  0  0  0  0  0  0
   37.3550   28.6680   38.4660 N   0  0  0  0  0  0  0  0  0  0  0  0
   38.4510   27.9670   38.1550 C   0  0  0  0  0  0  0  0  0  0  0  0
   38.6870   27.0050   37.7560 H   0  0  0  0  0  0  0  0  0  0  0  0
   39.5270   28.7880   38.4690 C   0  0  0  0  0  0  0  0  0  0  0  0
   39.0050   29.9740   38.9670 C   0  0  0  0  0  0  0  0  0  0  0  0
   39.5440   30.8450   39.3130 H   0  0  0  0  0  0  0  0  0  0  0  0
  1  4  1  1  0  0  0
  1 12  1  0  0  0  0
  2  5  1  0  0  0  0
  2  1  1  0  0  0  0
  3  7  1  6  0  0  0
  3  2  1  0  0  0  0
  3  1  1  0  0  0  0
  6  2  1  0  0  0  0
  8  9  1  0  0  0  0
  8 14  1  0  0  0  0
  9 15  1  0  0  0  0
 10 16  1  0  0  0  0
 10  9  2  0  0  0  0
 11 10  1  0  0  0  0
 12 11  2  0  0  0  0
 12 13  1  0  0  0  0
 13  8  2  0  0  0  0
 17 22  1  0  0  0  0
 17  3  1  0  0  0  0
 18 17  1  0  0  0  0
 19 18  2  0  0  0  0
 19 21  1  0  0  0  0
 20 19  1  0  0  0  0
 21 22  2  0  0  0  0
 22 23  1  0  0  0  0
M  END
>  <minimizedAffinity>
-3.76070714

>  <minimizedRMSD>
0.295235872

$$$$
