
 OpenBabel03242509313D

 19 20  0  0  0  0  0  0  0  0999 V2000
   37.6180   28.8020   43.5680 C   0  0  0  0  0  0  0  0  0  0  0  0
   37.6540   27.3760   43.5090 C   0  0  0  0  0  0  0  0  0  0  0  0
   37.4660   26.8090   42.2450 C   0  0  0  0  0  0  0  0  0  0  0  0
   37.2630   27.6460   41.1700 N   0  0  0  0  0  0  0  0  0  0  0  0
   37.2380   28.9800   41.2890 C   0  0  0  0  0  0  0  0  0  0  0  0
   37.4170   29.5470   42.4900 N   0  0  0  0  0  0  0  0  0  0  0  0
   37.7550   29.3140   44.5120 H   0  0  0  0  0  0  0  0  0  0  0  0
   37.8200   26.8010   44.4080 H   0  0  0  0  0  0  0  0  0  0  0  0
   37.0110   29.5740   40.0100 N   0  0  0  0  0  0  0  0  0  0  0  0
   36.3840   29.0600   38.9580 N   0  0  0  0  0  0  0  0  0  0  0  0
   36.3860   29.9540   37.9370 C   0  0  0  0  0  0  0  0  0  0  0  0
   35.9650   29.8640   36.9400 H   0  0  0  0  0  0  0  0  0  0  0  0
   37.0460   31.0960   38.3550 C   0  0  0  0  0  3  0  0  0  0  0  0
   37.4250   30.8210   39.6640 C   0  0  0  0  0  0  0  0  0  0  0  0
   37.9760   31.4920   40.3380 H   0  0  0  0  0  0  0  0  0  0  0  0
   37.4940   25.3220   42.1210 C   0  0  0  0  0  0  0  0  0  0  0  0
   37.5350   25.0640   40.7590 F   0  0  0  0  0  0  0  0  0  0  0  0
   38.5910   24.7750   42.7050 F   0  0  0  0  0  0  0  0  0  0  0  0
   36.3350   24.7450   42.6300 F   0  0  0  0  0  0  0  0  0  0  0  0
  1  7  1  0  0  0  0
  2  1  1  0  0  0  0
  2  8  1  0  0  0  0
  3  2  2  0  0  0  0
  4  5  2  0  0  0  0
  4  3  1  0  0  0  0
  5  6  1  0  0  0  0
  6  1  2  0  0  0  0
  9  5  1  0  0  0  0
 10  9  1  0  0  0  0
 11 13  1  0  0  0  0
 11 10  2  0  0  0  0
 12 11  1  0  0  0  0
 13 14  2  0  0  0  0
 14  9  1  0  0  0  0
 14 15  1  0  0  0  0
 16  3  1  0  0  0  0
 16 19  1  0  0  0  0
 16 18  1  0  0  0  0
 17 16  1  0  0  0  0
M  END
>  <minimizedAffinity>
-4.4459157

>  <minimizedRMSD>
1.03975177

$$$$
