
 OpenBabel03242509303D

 19 20  0  0  0  0  0  0  0  0999 V2000
   37.9410   28.7230   43.5500 C   0  0  0  0  0  0  0  0  0  0  0  0
   38.3420   27.3540   43.5800 C   0  0  0  0  0  0  0  0  0  0  0  0
   38.0220   26.5940   42.4510 C   0  0  0  0  0  0  0  0  0  0  0  0
   37.3550   27.2050   41.4130 N   0  0  0  0  0  0  0  0  0  0  0  0
   37.0020   28.4970   41.4430 C   0  0  0  0  0  0  0  0  0  0  0  0
   37.2990   29.2460   42.5140 N   0  0  0  0  0  0  0  0  0  0  0  0
   38.1530   29.3750   44.3870 H   0  0  0  0  0  0  0  0  0  0  0  0
   38.8630   26.9620   44.4410 H   0  0  0  0  0  0  0  0  0  0  0  0
   36.3290   28.8410   40.2310 N   0  0  0  0  0  0  0  0  0  0  0  0
   36.8500   29.0970   39.0370 N   0  0  0  0  0  0  0  0  0  0  0  0
   35.8610   29.3820   38.1520 C   0  0  0  0  0  0  0  0  0  0  0  0
   35.9280   29.6340   37.0990 H   0  0  0  0  0  0  0  0  0  0  0  0
   34.6470   29.3060   38.8120 C   0  0  0  0  0  3  0  0  0  0  0  0
   34.9800   28.9630   40.1180 C   0  0  0  0  0  0  0  0  0  0  0  0
   34.2790   28.8090   40.9490 H   0  0  0  0  0  0  0  0  0  0  0  0
   38.4170   25.1550   42.4260 C   0  0  0  0  0  0  0  0  0  0  0  0
   38.9710   24.9450   41.1730 F   0  0  0  0  0  0  0  0  0  0  0  0
   39.3450   24.8580   43.3720 F   0  0  0  0  0  0  0  0  0  0  0  0
   37.3120   24.3190   42.5500 F   0  0  0  0  0  0  0  0  0  0  0  0
  1  2  1  0  0  0  0
  1  7  1  0  0  0  0
  2  8  1  0  0  0  0
  3  2  2  0  0  0  0
  4  5  2  0  0  0  0
  4  3  1  0  0  0  0
  5  6  1  0  0  0  0
  6  1  2  0  0  0  0
  9  5  1  0  0  0  0
 10  9  1  0  0  0  0
 11 13  1  0  0  0  0
 11 10  2  0  0  0  0
 12 11  1  0  0  0  0
 13 14  2  0  0  0  0
 14  9  1  0  0  0  0
 14 15  1  0  0  0  0
 16  3  1  0  0  0  0
 16 19  1  0  0  0  0
 16 18  1  0  0  0  0
 17 16  1  0  0  0  0
M  END
>  <minimizedAffinity>
-4.23956537

>  <minimizedRMSD>
0.856159627

$$$$
