
 OpenBabel03242509163D

 33 36  0  0  1  0  0  0  0  0999 V2000
   37.2300   27.7520   41.5650 C   0  0  0  0  0  0  0  0  0  0  0  0
   37.4240   26.7330   42.4680 C   0  0  0  0  0  0  0  0  0  0  0  0
   37.2350   25.4140   42.1890 C   0  0  0  0  0  0  0  0  0  0  0  0
   36.8240   25.0830   40.9170 C   0  0  0  0  0  0  0  0  0  0  0  0
   36.6220   26.0560   39.9920 C   0  0  0  0  0  0  0  0  0  0  0  0
   36.8360   27.4200   40.3470 C   0  0  0  0  0  0  0  0  0  0  0  0
   37.7540   27.0010   43.4850 H   0  0  0  0  0  0  0  0  0  0  0  0
   37.4140   24.6860   42.9730 H   0  0  0  0  0  0  0  0  0  0  0  0
   36.7000   23.9930   40.7900 H   0  0  0  0  0  0  0  0  0  0  0  0
   36.3060   25.5980   39.0520 H   0  0  0  0  0  0  0  0  0  0  0  0
   38.6250   29.8900   41.4490 C   0  0  1  0  0  0  0  0  0  0  0  0
   38.2960   29.6080   42.8650 C   0  0  0  0  0  0  0  0  0  0  0  0
   37.2800   29.1660   41.9080 C   0  0  2  0  0  0  0  0  0  0  0  0
   39.3700   29.2820   40.9730 H   0  0  0  0  0  0  0  0  0  0  0  0
   38.1170   30.5340   43.4730 H   0  0  0  0  0  0  0  0  0  0  0  0
   38.8980   28.8510   43.3780 H   0  0  0  0  0  0  0  0  0  0  0  0
   36.4610   29.8040   41.4910 H   0  0  0  0  0  0  0  0  0  0  0  0
   38.3980   31.2740   40.9080 C   0  0  0  0  0  0  0  0  0  0  0  0
   37.3760   31.4270   39.9790 C   0  0  0  0  0  0  0  0  0  0  0  0
   37.1450   32.7000   39.4980 C   0  0  0  0  0  0  0  0  0  0  0  0
   37.8970   33.7480   39.9280 N   0  0  0  0  0  0  0  0  0  0  0  0
   38.8870   33.5570   40.8370 C   0  0  0  0  0  0  0  0  0  0  0  0
   39.0940   32.3140   41.2910 N   0  0  0  0  0  0  0  0  0  0  0  0
   36.6990   30.7500   39.5350 H   0  0  0  0  0  0  0  0  0  0  0  0
   36.3980   33.0010   38.7770 H   0  0  0  0  0  0  0  0  0  0  0  0
   39.5040   34.3670   41.2010 H   0  0  0  0  0  0  0  0  0  0  0  0
   36.5070   28.1210   39.1540 N   0  0  0  0  0  0  0  0  0  0  0  0
   37.3010   28.4210   38.1070 N   0  0  0  0  0  0  0  0  0  0  0  0
   36.5900   29.0740   37.1670 C   0  0  0  0  0  0  0  0  0  0  0  0
   36.9660   29.4370   36.2200 H   0  0  0  0  0  0  0  0  0  0  0  0
   35.2940   29.1810   37.6640 C   0  0  0  0  0  0  0  0  0  0  0  0
   35.2360   28.5770   38.9270 C   0  0  0  0  0  0  0  0  0  0  0  0
   34.3910   28.4790   39.5940 H   0  0  0  0  0  0  0  0  0  0  0  0
  1 13  1  0  0  0  0
  1  2  1  0  0  0  0
  2  7  1  0  0  0  0
  3  2  2  0  0  0  0
  3  8  1  0  0  0  0
  4  3  1  0  0  0  0
  5  6  1  0  0  0  0
  5  4  2  0  0  0  0
  6  1  2  0  0  0  0
  9  4  1  0  0  0  0
 10  5  1  0  0  0  0
 11 14  1  6  0  0  0
 11 13  1  0  0  0  0
 11 12  1  0  0  0  0
 12 16  1  0  0  0  0
 12 15  1  0  0  0  0
 13 17  1  6  0  0  0
 13 12  1  0  0  0  0
 18 23  1  0  0  0  0
 18 11  1  0  0  0  0
 19 18  2  0  0  0  0
 20 21  2  0  0  0  0
 20 19  1  0  0  0  0
 21 22  1  0  0  0  0
 22 26  1  0  0  0  0
 22 23  2  0  0  0  0
 24 19  1  0  0  0  0
 25 20  1  0  0  0  0
 27  6  1  0  0  0  0
 28 27  1  0  0  0  0
 29 31  1  0  0  0  0
 29 28  2  0  0  0  0
 30 29  1  0  0  0  0
 31 32  2  0  0  0  0
 32 27  1  0  0  0  0
 32 33  1  0  0  0  0
M  END
>  <minimizedAffinity>
-5.26861048

>  <minimizedRMSD>
0.29926765

$$$$
