
 OpenBabel03242509313D

 19 20  0  0  0  0  0  0  0  0999 V2000
   38.0050   28.7050   43.4960 C   0  0  0  0  0  0  0  0  0  0  0  0
   38.3920   27.3310   43.5070 C   0  0  0  0  0  0  0  0  0  0  0  0
   37.9370   26.5560   42.4360 C   0  0  0  0  0  0  0  0  0  0  0  0
   37.1650   27.1580   41.4670 N   0  0  0  0  0  0  0  0  0  0  0  0
   36.8320   28.4550   41.5120 C   0  0  0  0  0  0  0  0  0  0  0  0
   37.2580   29.2180   42.5290 N   0  0  0  0  0  0  0  0  0  0  0  0
   38.3180   29.3680   44.2920 H   0  0  0  0  0  0  0  0  0  0  0  0
   39.0020   26.9470   44.3120 H   0  0  0  0  0  0  0  0  0  0  0  0
   36.0320   28.7870   40.3780 N   0  0  0  0  0  0  0  0  0  0  0  0
   34.7140   28.9440   40.3100 N   0  0  0  0  0  0  0  0  0  0  0  0
   34.3500   29.2570   39.0400 C   0  0  0  0  0  0  0  0  0  0  0  0
   33.3640   29.4520   38.6340 H   0  0  0  0  0  0  0  0  0  0  0  0
   35.4910   29.3020   38.2570 C   0  0  0  0  0  3  0  0  0  0  0  0
   36.5290   29.0000   39.1300 C   0  0  0  0  0  0  0  0  0  0  0  0
   37.5960   28.9390   38.8780 H   0  0  0  0  0  0  0  0  0  0  0  0
   38.3100   25.1120   42.3940 C   0  0  0  0  0  0  0  0  0  0  0  0
   38.8100   24.8950   41.1190 F   0  0  0  0  0  0  0  0  0  0  0  0
   39.2710   24.7990   43.3020 F   0  0  0  0  0  0  0  0  0  0  0  0
   37.1990   24.2920   42.5620 F   0  0  0  0  0  0  0  0  0  0  0  0
  1  2  1  0  0  0  0
  1  7  1  0  0  0  0
  2  8  1  0  0  0  0
  3  2  2  0  0  0  0
  4  5  2  0  0  0  0
  4  3  1  0  0  0  0
  5  6  1  0  0  0  0
  6  1  2  0  0  0  0
  9  5  1  0  0  0  0
 10  9  1  0  0  0  0
 11 10  2  0  0  0  0
 12 11  1  0  0  0  0
 13 11  1  0  0  0  0
 13 14  2  0  0  0  0
 14  9  1  0  0  0  0
 15 14  1  0  0  0  0
 16  3  1  0  0  0  0
 16 19  1  0  0  0  0
 16 18  1  0  0  0  0
 17 16  1  0  0  0  0
M  END
>  <minimizedAffinity>
-4.2702179

>  <minimizedRMSD>
0.743514121

$$$$
