
 OpenBabel03242509313D

 19 20  0  0  0  0  0  0  0  0999 V2000
   38.0240   28.7360   43.4490 C   0  0  0  0  0  0  0  0  0  0  0  0
   38.4620   27.3790   43.4990 C   0  0  0  0  0  0  0  0  0  0  0  0
   38.0240   26.5530   42.4590 C   0  0  0  0  0  0  0  0  0  0  0  0
   37.2190   27.0940   41.4810 N   0  0  0  0  0  0  0  0  0  0  0  0
   36.8390   28.3790   41.4890 C   0  0  0  0  0  0  0  0  0  0  0  0
   37.2470   29.1900   42.4760 N   0  0  0  0  0  0  0  0  0  0  0  0
   38.3220   29.4360   44.2190 H   0  0  0  0  0  0  0  0  0  0  0  0
   39.0950   27.0440   44.3070 H   0  0  0  0  0  0  0  0  0  0  0  0
   36.0130   28.6450   40.3550 N   0  0  0  0  0  0  0  0  0  0  0  0
   34.7380   29.0170   40.3260 N   0  0  0  0  0  0  0  0  0  0  0  0
   34.3270   29.1630   39.0400 C   0  0  0  0  0  0  0  0  0  0  0  0
   33.3560   29.4550   38.6560 H   0  0  0  0  0  0  0  0  0  0  0  0
   35.3920   28.8710   38.2060 C   0  0  0  0  0  3  0  0  0  0  0  0
   36.4350   28.5490   39.0670 C   0  0  0  0  0  0  0  0  0  0  0  0
   37.4540   28.2580   38.7750 H   0  0  0  0  0  0  0  0  0  0  0  0
   38.4500   25.1230   42.4580 C   0  0  0  0  0  0  0  0  0  0  0  0
   39.0290   24.9100   41.2170 F   0  0  0  0  0  0  0  0  0  0  0  0
   39.3680   24.8570   43.4230 F   0  0  0  0  0  0  0  0  0  0  0  0
   37.3610   24.2650   42.5740 F   0  0  0  0  0  0  0  0  0  0  0  0
  1  2  1  0  0  0  0
  1  7  1  0  0  0  0
  2  8  1  0  0  0  0
  3  2  2  0  0  0  0
  4  5  2  0  0  0  0
  4  3  1  0  0  0  0
  5  6  1  0  0  0  0
  6  1  2  0  0  0  0
  9  5  1  0  0  0  0
 10  9  1  0  0  0  0
 11 10  2  0  0  0  0
 12 11  1  0  0  0  0
 13 11  1  0  0  0  0
 13 14  2  0  0  0  0
 14  9  1  0  0  0  0
 15 14  1  0  0  0  0
 16  3  1  0  0  0  0
 16 19  1  0  0  0  0
 16 18  1  0  0  0  0
 17 16  1  0  0  0  0
M  END
>  <minimizedAffinity>
-4.307096

>  <minimizedRMSD>
0.888404191

$$$$
