
 OpenBabel03242508433D

 34 37  0  0  1  0  0  0  0  0999 V2000
   37.9390   27.3700   42.7370 C   0  0  2  0  0  0  0  0  0  0  0  0
   39.0230   27.6640   43.6820 C   0  0  0  0  0  0  0  0  0  0  0  0
   39.7480   26.3470   43.8710 C   0  0  0  0  0  0  0  0  0  0  0  0
   39.2940   25.4620   42.7570 C   0  0  0  0  0  0  0  0  0  0  0  0
   38.5590   26.3760   41.7740 C   0  0  1  0  0  0  0  0  0  0  0  0
   37.1340   26.7710   43.2540 H   0  0  0  0  0  0  0  0  0  0  0  0
   39.7770   28.3350   43.2220 H   0  0  0  0  0  0  0  0  0  0  0  0
   38.7090   28.0680   44.6640 H   0  0  0  0  0  0  0  0  0  0  0  0
   39.5290   25.9770   44.8870 H   0  0  0  0  0  0  0  0  0  0  0  0
   40.8520   26.4430   43.8080 H   0  0  0  0  0  0  0  0  0  0  0  0
   38.5980   24.7280   43.2110 H   0  0  0  0  0  0  0  0  0  0  0  0
   40.1100   24.9160   42.2410 H   0  0  0  0  0  0  0  0  0  0  0  0
   39.2220   26.8430   41.0520 H   0  0  0  0  0  0  0  0  0  0  0  0
   37.5790   25.4350   41.1650 C   0  0  0  0  0  0  0  0  0  0  0  0
   36.8710   24.5540   41.8950 N   0  0  0  0  0  0  0  0  0  0  0  0
   36.1100   23.8770   41.0650 O   0  0  0  0  0  0  0  0  0  0  0  0
   36.3330   24.3240   39.8380 C   0  0  0  0  0  0  0  0  0  0  0  0
   37.2410   25.2950   39.8620 N   0  0  0  0  0  0  0  0  0  0  0  0
   35.6630   23.8030   38.6800 N   0  0  0  0  0  0  0  0  0  0  0  0
   35.8090   22.5200   38.3760 N   0  0  0  0  0  0  0  0  0  0  0  0
   35.0750   22.3330   37.2600 C   0  0  0  0  0  0  0  0  0  0  0  0
   34.9440   21.4000   36.7020 H   0  0  0  0  0  0  0  0  0  0  0  0
   34.4650   23.5060   36.8610 C   0  0  0  0  0  0  0  0  0  0  0  0
   34.8600   24.4420   37.7940 C   0  0  0  0  0  0  0  0  0  0  0  0
   34.6060   25.4780   37.8460 H   0  0  0  0  0  0  0  0  0  0  0  0
   37.9870   29.7770   41.9260 C   0  0  0  0  0  0  0  0  0  0  0  0
   37.3510   28.5110   42.0530 C   0  0  0  0  0  0  0  0  0  0  0  0
   36.0980   28.3280   41.4890 C   0  0  0  0  0  0  0  0  0  0  0  0
   35.5220   29.3910   40.8250 N   0  0  0  0  0  0  0  0  0  0  0  0
   36.1620   30.6070   40.7180 C   0  0  0  0  0  0  0  0  0  0  0  0
   37.3980   30.7810   41.2770 N   0  0  0  0  0  0  0  0  0  0  0  0
   38.9620   29.9350   42.3610 H   0  0  0  0  0  0  0  0  0  0  0  0
   35.5440   27.4010   41.5360 H   0  0  0  0  0  0  0  0  0  0  0  0
   35.6560   31.3970   40.1860 H   0  0  0  0  0  0  0  0  0  0  0  0
  1  6  1  1  0  0  0
  1  2  1  0  0  0  0
  2  3  1  0  0  0  0
  2  8  1  0  0  0  0
  3  9  1  0  0  0  0
  4 11  1  0  0  0  0
  4  3  1  0  0  0  0
  5 13  1  6  0  0  0
  5  1  1  0  0  0  0
  5  4  1  0  0  0  0
  7  2  1  0  0  0  0
 10  3  1  0  0  0  0
 12  4  1  0  0  0  0
 14  5  1  0  0  0  0
 14 15  2  0  0  0  0
 16 15  1  0  0  0  0
 17 18  2  0  0  0  0
 17 16  1  0  0  0  0
 18 14  1  0  0  0  0
 19 17  1  0  0  0  0
 20 19  1  0  0  0  0
 21 20  2  0  0  0  0
 22 21  1  0  0  0  0
 23 21  1  0  0  0  0
 23 24  2  0  0  0  0
 24 25  1  0  0  0  0
 24 19  1  0  0  0  0
 26 27  1  0  0  0  0
 26 32  1  0  0  0  0
 27  1  1  0  0  0  0
 28 33  1  0  0  0  0
 28 27  2  0  0  0  0
 29 28  1  0  0  0  0
 30 29  2  0  0  0  0
 30 31  1  0  0  0  0
 31 26  2  0  0  0  0
 34 30  1  0  0  0  0
M  END
>  <minimizedAffinity>
-5.05490017

>  <minimizedRMSD>
0.539231181

$$$$
