
 OpenBabel03242509313D

 19 20  0  0  0  0  0  0  0  0999 V2000
   37.6190   28.8170   43.5360 C   0  0  0  0  0  0  0  0  0  0  0  0
   37.6780   27.3920   43.5010 C   0  0  0  0  0  0  0  0  0  0  0  0
   37.4780   26.7990   42.2510 C   0  0  0  0  0  0  0  0  0  0  0  0
   37.2410   27.6130   41.1650 N   0  0  0  0  0  0  0  0  0  0  0  0
   37.1960   28.9490   41.2610 C   0  0  0  0  0  0  0  0  0  0  0  0
   37.3860   29.5400   42.4500 N   0  0  0  0  0  0  0  0  0  0  0  0
   37.7630   29.3490   44.4680 H   0  0  0  0  0  0  0  0  0  0  0  0
   37.8700   26.8350   44.4070 H   0  0  0  0  0  0  0  0  0  0  0  0
   36.9350   29.5160   39.9770 N   0  0  0  0  0  0  0  0  0  0  0  0
   37.4830   30.5870   39.4160 N   0  0  0  0  0  0  0  0  0  0  0  0
   36.9550   30.7850   38.1820 C   0  0  0  0  0  0  0  0  0  0  0  0
   37.1720   31.5610   37.4550 H   0  0  0  0  0  0  0  0  0  0  0  0
   36.0220   29.7920   37.9410 C   0  0  0  0  0  3  0  0  0  0  0  0
   36.0360   29.0110   39.0910 C   0  0  0  0  0  0  0  0  0  0  0  0
   35.4240   28.1190   39.2790 H   0  0  0  0  0  0  0  0  0  0  0  0
   37.5290   25.3110   42.1520 C   0  0  0  0  0  0  0  0  0  0  0  0
   37.6120   25.0320   40.7970 F   0  0  0  0  0  0  0  0  0  0  0  0
   38.6160   24.7890   42.7750 F   0  0  0  0  0  0  0  0  0  0  0  0
   36.3640   24.7260   42.6380 F   0  0  0  0  0  0  0  0  0  0  0  0
  1  7  1  0  0  0  0
  2  1  1  0  0  0  0
  2  8  1  0  0  0  0
  3  2  2  0  0  0  0
  4  5  2  0  0  0  0
  4  3  1  0  0  0  0
  5  6  1  0  0  0  0
  6  1  2  0  0  0  0
  9  5  1  0  0  0  0
 10  9  1  0  0  0  0
 11 10  2  0  0  0  0
 12 11  1  0  0  0  0
 13 11  1  0  0  0  0
 13 14  2  0  0  0  0
 14 15  1  0  0  0  0
 14  9  1  0  0  0  0
 16  3  1  0  0  0  0
 16 19  1  0  0  0  0
 16 18  1  0  0  0  0
 17 16  1  0  0  0  0
M  END
>  <minimizedAffinity>
-4.44266987

>  <minimizedRMSD>
0.991492033

$$$$
