
 OpenBabel03242509223D

 45 49  0  0  0  0  0  0  0  0999 V2000
   36.7270   28.7540   40.7170 C   0  0  0  0  0  0  0  0  0  0  0  0
   36.5920   29.9080   41.4560 C   0  0  0  0  0  0  0  0  0  0  0  0
   36.6030   31.1920   40.9840 C   0  0  0  0  0  0  0  0  0  0  0  0
   36.7640   31.4050   39.6220 C   0  0  0  0  0  0  0  0  0  0  0  0
   36.9060   30.2870   38.8120 C   0  0  0  0  0  0  0  0  0  0  0  0
   37.0720   30.5750   37.4810 C   0  0  0  0  0  0  0  0  0  0  0  0
   37.2290   29.5470   36.6050 C   0  0  0  0  0  0  0  0  0  0  0  0
   37.2160   28.2570   37.0770 C   0  0  0  0  0  0  0  0  0  0  0  0
   37.0450   28.0340   38.4250 C   0  0  0  0  0  0  0  0  0  0  0  0
   36.8850   29.0210   39.3490 C   0  0  0  0  0  0  0  0  0  0  0  0
   36.4700   29.7840   42.5210 H   0  0  0  0  0  0  0  0  0  0  0  0
   36.4900   32.0290   41.6540 H   0  0  0  0  0  0  0  0  0  0  0  0
   36.7670   32.4200   39.2900 H   0  0  0  0  0  0  0  0  0  0  0  0
   37.0830   31.5780   37.1030 H   0  0  0  0  0  0  0  0  0  0  0  0
   37.3630   29.7830   35.5470 H   0  0  0  0  0  0  0  0  0  0  0  0
   37.3510   27.5050   36.2930 H   0  0  0  0  0  0  0  0  0  0  0  0
   37.0390   26.6060   38.6520 N   0  0  0  0  0  0  0  0  0  0  0  0
   37.8290   25.6150   39.0460 N   0  0  0  0  0  0  0  0  0  0  0  0
   37.1470   24.4720   38.9310 C   0  0  0  0  0  0  0  0  0  0  0  0
   37.6290   23.5200   39.2100 H   0  0  0  0  0  0  0  0  0  0  0  0
   35.8610   24.6140   38.4550 C   0  0  0  0  0  0  0  0  0  0  0  0
   35.8300   26.0070   38.2860 C   0  0  0  0  0  0  0  0  0  0  0  0
   34.8810   26.4290   37.8990 H   0  0  0  0  0  0  0  0  0  0  0  0
   36.7210   27.3690   41.1860 C   0  0  0  0  0  0  0  0  0  0  0  0
   37.5110   26.7520   40.7360 H   0  0  0  0  0  0  0  0  0  0  0  0
   35.6950   27.0200   41.2300 H   0  0  0  0  0  0  0  0  0  0  0  0
   37.0770   27.2180   42.6490 C   0  0  0  0  0  0  0  0  0  0  0  0
   36.3290   26.5710   43.2000 H   0  0  0  0  0  0  0  0  0  0  0  0
   37.0120   28.1800   43.1720 H   0  0  0  0  0  0  0  0  0  0  0  0
   40.3300   26.0510   43.3890 C   0  0  0  0  0  0  0  0  0  0  0  0
   39.7470   24.8970   42.9520 C   0  0  0  0  0  0  0  0  0  0  0  0
   38.4360   25.2400   42.6170 C   0  0  0  0  0  0  0  0  0  0  0  0
   38.3220   26.5700   42.8760 N   0  0  0  0  0  0  0  0  0  0  0  0
   39.4250   27.0360   43.3230 N   0  0  0  0  0  0  0  0  0  0  0  0
   40.2220   23.9350   42.8870 H   0  0  0  0  0  0  0  0  0  0  0  0
   37.7710   24.4770   42.2410 H   0  0  0  0  0  0  0  0  0  0  0  0
   44.0210   25.6780   43.7330 C   0  0  0  0  0  0  0  0  0  0  0  0
   42.7350   25.5050   43.2190 C   0  0  0  0  0  0  0  0  0  0  0  0
   41.6850   26.1980   43.8630 C   0  0  0  0  0  0  0  0  0  0  0  0
   41.9420   26.9980   44.9410 N   0  0  0  0  0  0  0  0  0  0  0  0
   43.2370   27.1140   45.3820 C   0  0  0  0  0  0  0  0  0  0  0  0
   44.2550   26.4610   44.7820 N   0  0  0  0  0  0  0  0  0  0  0  0
   44.8290   25.1510   43.2440 H   0  0  0  0  0  0  0  0  0  0  0  0
   42.5050   24.8770   42.3690 H   0  0  0  0  0  0  0  0  0  0  0  0
   43.3840   27.7620   46.2390 H   0  0  0  0  0  0  0  0  0  0  0  0
  1 24  1  0  0  0  0
  1  2  1  0  0  0  0
  2 11  1  0  0  0  0
  3  2  2  0  0  0  0
  3 12  1  0  0  0  0
  4  3  1  0  0  0  0
  5 10  1  0  0  0  0
  5  4  2  0  0  0  0
  6  5  1  0  0  0  0
  7  8  1  0  0  0  0
  7  6  2  0  0  0  0
  8  9  2  0  0  0  0
  9 17  1  0  0  0  0
  9 10  1  0  0  0  0
 10  1  2  0  0  0  0
 13  4  1  0  0  0  0
 14  6  1  0  0  0  0
 15  7  1  0  0  0  0
 16  8  1  0  0  0  0
 17 18  1  0  0  0  0
 19 18  2  0  0  0  0
 19 20  1  0  0  0  0
 21 19  1  0  0  0  0
 22 21  2  0  0  0  0
 22 17  1  0  0  0  0
 23 22  1  0  0  0  0
 24 26  1  0  0  0  0
 24 27  1  0  0  0  0
 25 24  1  0  0  0  0
 27 33  1  0  0  0  0
 27 29  1  0  0  0  0
 27 28  1  0  0  0  0
 30 39  1  0  0  0  0
 31 30  1  0  0  0  0
 32 33  1  0  0  0  0
 32 31  2  0  0  0  0
 33 34  1  0  0  0  0
 34 30  2  0  0  0  0
 35 31  1  0  0  0  0
 36 32  1  0  0  0  0
 37 42  1  0  0  0  0
 38 37  2  0  0  0  0
 38 39  1  0  0  0  0
 39 40  2  0  0  0  0
 40 41  1  0  0  0  0
 41 45  1  0  0  0  0
 42 41  2  0  0  0  0
 43 37  1  0  0  0  0
 44 38  1  0  0  0  0
M  END
>  <minimizedAffinity>
-5.7739315

>  <minimizedRMSD>
3.72505474

$$$$
