
 OpenBabel03242507423D

 30 32  0  0  0  0  0  0  0  0999 V2000
   39.5680   27.8410   43.2920 C   0  0  0  0  0  0  0  0  0  0  0  0
   38.8770   26.6120   43.3360 C   0  0  0  0  0  0  0  0  0  0  0  0
   37.9040   26.3890   42.3300 C   0  0  0  0  0  0  0  0  0  0  0  0
   37.6960   27.3430   41.4010 N   0  0  0  0  0  0  0  0  0  0  0  0
   38.3750   28.5010   41.3930 C   0  0  0  0  0  0  0  0  0  0  0  0
   39.3070   28.7540   42.3300 N   0  0  0  0  0  0  0  0  0  0  0  0
   37.1470   25.2080   42.2620 N   0  0  0  0  0  0  0  0  0  0  0  0
   38.1620   29.5210   40.4120 N   0  0  0  0  0  0  0  0  0  0  0  0
   37.3170   29.2140   39.4150 C   0  0  0  0  0  0  0  0  0  0  0  0
   36.9840   30.0630   38.3780 C   0  0  0  0  0  0  0  0  0  0  0  0
   37.5710   31.3070   38.3870 C   0  0  0  0  0  0  0  0  0  0  0  0
   37.3270   32.1470   37.4840 O   0  0  0  0  0  0  0  0  0  0  0  0
   38.4230   31.6030   39.4030 N   0  0  0  0  0  0  0  0  0  0  0  0
   38.7250   30.7530   40.3940 C   0  0  0  0  0  0  0  0  0  0  0  0
   39.5000   30.9980   41.3350 O   0  0  0  0  0  0  0  0  0  0  0  0
   40.3060   28.0040   44.0610 H   0  0  0  0  0  0  0  0  0  0  0  0
   39.0260   25.8460   44.0600 H   0  0  0  0  0  0  0  0  0  0  0  0
   37.2150   24.3390   41.7210 H   0  0  0  0  0  0  0  0  0  0  0  0
   36.3260   25.2660   42.9340 H   0  0  0  0  0  0  0  0  0  0  0  0
   36.8330   28.2350   39.3760 H   0  0  0  0  0  0  0  0  0  0  0  0
   39.0350   32.9110   39.4050 C   0  0  0  0  0  0  0  0  0  0  0  0
   40.5220   32.9080   39.2720 C   0  0  0  0  0  0  0  0  0  0  0  0
   41.1830   34.0370   40.0280 C   0  0  0  0  0  0  0  0  0  0  0  0
   40.4090   35.3200   40.0160 C   0  0  0  0  0  0  0  0  0  0  0  0
   38.9420   35.1670   40.3090 C   0  0  0  0  0  0  0  0  0  0  0  0
   38.6970   33.6950   40.6620 C   0  0  0  0  0  0  0  0  0  0  0  0
   36.0390   29.6500   37.3100 C   0  0  0  0  0  0  0  0  0  0  0  0
   35.5230   30.5870   36.9790 H   0  0  0  0  0  0  0  0  0  0  0  0
   35.2720   28.9550   37.7330 H   0  0  0  0  0  0  0  0  0  0  0  0
   36.5540   29.2240   36.4420 H   0  0  0  0  0  0  0  0  0  0  0  0
  1  2  1  0  0  0  0
  1 16  1  0  0  0  0
  2 17  1  0  0  0  0
  3  2  2  0  0  0  0
  4  3  1  0  0  0  0
  5  4  2  0  0  0  0
  5  6  1  0  0  0  0
  6  1  2  0  0  0  0
  7  3  1  0  0  0  0
  7 19  1  0  0  0  0
  8  5  1  0  0  0  0
  9  8  1  0  0  0  0
 10 11  1  0  0  0  0
 10  9  2  0  0  0  0
 11 13  1  0  0  0  0
 12 11  2  0  0  0  0
 13 21  1  0  0  0  0
 13 14  1  0  0  0  0
 14  8  1  0  0  0  0
 14 15  2  0  0  0  0
 18  7  1  0  0  0  0
 20  9  1  0  0  0  0
 21 26  1  0  0  0  0
 22 21  1  0  0  0  0
 22 23  1  0  0  0  0
 24 23  1  0  0  0  0
 24 25  1  0  0  0  0
 25 26  1  0  0  0  0
 27 29  1  0  0  0  0
 27 10  1  0  0  0  0
 28 27  1  0  0  0  0
 30 27  1  0  0  0  0
M  END
>  <minimizedAffinity>
-5.9588275

>  <minimizedRMSD>
1.78704321

$$$$
