
 OpenBabel03242509313D

 19 20  0  0  0  0  0  0  0  0999 V2000
   37.5950   28.7060   43.5880 C   0  0  0  0  0  0  0  0  0  0  0  0
   37.5830   27.2870   43.4360 C   0  0  0  0  0  0  0  0  0  0  0  0
   37.4080   26.8100   42.1330 C   0  0  0  0  0  0  0  0  0  0  0  0
   37.2610   27.7210   41.1110 N   0  0  0  0  0  0  0  0  0  0  0  0
   37.2790   29.0450   41.3170 C   0  0  0  0  0  0  0  0  0  0  0  0
   37.4470   29.5260   42.5570 N   0  0  0  0  0  0  0  0  0  0  0  0
   37.7250   29.1510   44.5660 H   0  0  0  0  0  0  0  0  0  0  0  0
   37.7060   26.6490   44.2990 H   0  0  0  0  0  0  0  0  0  0  0  0
   37.1040   29.7280   40.0750 N   0  0  0  0  0  0  0  0  0  0  0  0
   37.5170   30.9410   39.7300 N   0  0  0  0  0  0  0  0  0  0  0  0
   37.1430   31.2130   38.4540 C   0  0  0  0  0  0  0  0  0  0  0  0
   37.3140   32.1050   37.8600 H   0  0  0  0  0  0  0  0  0  0  0  0
   36.4560   30.1190   37.9580 C   0  0  0  0  0  3  0  0  0  0  0  0
   36.4510   29.2040   39.0040 C   0  0  0  0  0  0  0  0  0  0  0  0
   35.9960   28.2040   38.9920 H   0  0  0  0  0  0  0  0  0  0  0  0
   37.3870   25.3340   41.9130 C   0  0  0  0  0  0  0  0  0  0  0  0
   37.0940   25.1640   40.5690 F   0  0  0  0  0  0  0  0  0  0  0  0
   38.5870   24.7550   42.1770 F   0  0  0  0  0  0  0  0  0  0  0  0
   36.3800   24.7210   42.6510 F   0  0  0  0  0  0  0  0  0  0  0  0
  1  7  1  0  0  0  0
  2  1  1  0  0  0  0
  2  8  1  0  0  0  0
  3  2  2  0  0  0  0
  4  5  2  0  0  0  0
  4  3  1  0  0  0  0
  5  6  1  0  0  0  0
  6  1  2  0  0  0  0
  9  5  1  0  0  0  0
 10  9  1  0  0  0  0
 11 10  2  0  0  0  0
 12 11  1  0  0  0  0
 13 11  1  0  0  0  0
 13 14  2  0  0  0  0
 14  9  1  0  0  0  0
 15 14  1  0  0  0  0
 16  3  1  0  0  0  0
 16 18  1  0  0  0  0
 16 19  1  0  0  0  0
 17 16  1  0  0  0  0
M  END
>  <minimizedAffinity>
-4.44401407

>  <minimizedRMSD>
1.16194987

$$$$
