
 OpenBabel03242509303D

 19 20  0  0  0  0  0  0  0  0999 V2000
   38.1980   28.5490   43.5090 C   0  0  0  0  0  0  0  0  0  0  0  0
   38.6120   27.1840   43.5590 C   0  0  0  0  0  0  0  0  0  0  0  0
   38.2100   26.3800   42.4880 C   0  0  0  0  0  0  0  0  0  0  0  0
   37.4590   26.9470   41.4830 N   0  0  0  0  0  0  0  0  0  0  0  0
   37.0990   28.2380   41.4920 C   0  0  0  0  0  0  0  0  0  0  0  0
   37.4740   29.0280   42.5070 N   0  0  0  0  0  0  0  0  0  0  0  0
   38.4700   29.2330   44.3010 H   0  0  0  0  0  0  0  0  0  0  0  0
   39.2020   26.8280   44.3910 H   0  0  0  0  0  0  0  0  0  0  0  0
   36.3310   28.5320   40.3250 N   0  0  0  0  0  0  0  0  0  0  0  0
   36.7040   28.4800   39.0500 N   0  0  0  0  0  0  0  0  0  0  0  0
   35.6680   28.8370   38.2500 C   0  0  0  0  0  0  0  0  0  0  0  0
   35.6240   28.9040   37.1680 H   0  0  0  0  0  0  0  0  0  0  0  0
   34.5790   29.1320   39.0500 C   0  0  0  0  0  3  0  0  0  0  0  0
   35.0320   28.9290   40.3490 C   0  0  0  0  0  0  0  0  0  0  0  0
   34.4480   29.0630   41.2710 H   0  0  0  0  0  0  0  0  0  0  0  0
   38.6130   24.9430   42.4870 C   0  0  0  0  0  0  0  0  0  0  0  0
   39.2370   24.7350   41.2670 F   0  0  0  0  0  0  0  0  0  0  0  0
   39.4890   24.6510   43.4830 F   0  0  0  0  0  0  0  0  0  0  0  0
   37.5080   24.1010   42.5500 F   0  0  0  0  0  0  0  0  0  0  0  0
  1  2  1  0  0  0  0
  1  7  1  0  0  0  0
  2  8  1  0  0  0  0
  3  2  2  0  0  0  0
  4  5  2  0  0  0  0
  4  3  1  0  0  0  0
  5  6  1  0  0  0  0
  6  1  2  0  0  0  0
  9 14  1  0  0  0  0
  9  5  1  0  0  0  0
 10  9  1  0  0  0  0
 11 10  2  0  0  0  0
 11 13  1  0  0  0  0
 12 11  1  0  0  0  0
 13 14  2  0  0  0  0
 14 15  1  0  0  0  0
 16  3  1  0  0  0  0
 16 19  1  0  0  0  0
 16 18  1  0  0  0  0
 17 16  1  0  0  0  0
M  END
>  <minimizedAffinity>
-4.28762054

>  <minimizedRMSD>
1.08798265

$$$$
