
 OpenBabel03242507153D

 36 40  0  0  0  0  0  0  0  0999 V2000
   36.8900   28.4910   41.9550 N   0  0  0  0  0  0  0  0  0  0  0  0
   36.5280   27.5510   42.8530 C   0  0  0  0  0  0  0  0  0  0  0  0
   37.3420   27.7970   43.9350 C   0  0  0  0  0  0  0  0  0  0  0  0
   38.1660   28.8580   43.6860 N   0  0  0  0  0  0  0  0  0  0  0  0
   37.8600   29.2620   42.4530 C   0  0  0  0  0  0  0  0  0  0  0  0
   38.6040   30.3760   41.9700 N   0  0  0  0  0  0  0  0  0  0  0  0
   39.9300   30.5430   42.2790 C   0  0  0  0  0  0  0  0  0  0  0  0
   40.4230   31.6840   41.7000 N   0  0  0  0  0  0  0  0  0  0  0  0
   39.4040   32.2420   41.0190 C   0  0  0  0  0  0  0  0  0  0  0  0
   39.3060   33.3820   40.2550 C   0  0  0  0  0  0  0  0  0  0  0  0
   38.1090   33.6350   39.7160 N   0  0  0  0  0  0  0  0  0  0  0  0
   37.0330   32.8510   39.8830 C   0  0  0  0  0  0  0  0  0  0  0  0
   37.1070   31.7180   40.6360 N   0  0  0  0  0  0  0  0  0  0  0  0
   38.2850   31.4480   41.1790 C   0  0  0  0  0  0  0  0  0  0  0  0
   35.7700   26.7900   42.7250 H   0  0  0  0  0  0  0  0  0  0  0  0
   37.2940   27.1910   44.8520 H   0  0  0  0  0  0  0  0  0  0  0  0
   40.6050   29.9460   42.8760 H   0  0  0  0  0  0  0  0  0  0  0  0
   36.1150   33.1540   39.3990 H   0  0  0  0  0  0  0  0  0  0  0  0
   35.0290   29.0470   40.4370 C   0  0  0  0  0  0  0  0  0  0  0  0
   36.3290   28.6430   40.6760 C   0  0  0  0  0  0  0  0  0  0  0  0
   37.1210   28.3710   39.5370 C   0  0  0  0  0  0  0  0  0  0  0  0
   36.5880   28.5140   38.2980 N   0  0  0  0  0  0  0  0  0  0  0  0
   35.2810   28.9230   38.1300 C   0  0  0  0  0  0  0  0  0  0  0  0
   34.4870   29.1950   39.2230 N   0  0  0  0  0  0  0  0  0  0  0  0
   34.4250   29.2560   41.3270 H   0  0  0  0  0  0  0  0  0  0  0  0
   38.1380   28.0520   39.6110 H   0  0  0  0  0  0  0  0  0  0  0  0
   34.8620   29.0290   36.7740 N   0  0  0  0  0  0  0  0  0  0  0  0
   35.6700   29.1010   35.7270 N   0  0  0  0  0  0  0  0  0  0  0  0
   34.8580   29.1900   34.6390 C   0  0  0  0  0  0  0  0  0  0  0  0
   35.2140   29.2630   33.6190 H   0  0  0  0  0  0  0  0  0  0  0  0
   33.5200   29.1700   35.0390 C   0  0  0  0  0  0  0  0  0  0  0  0
   33.5590   29.0660   36.4170 C   0  0  0  0  0  0  0  0  0  0  0  0
   32.7030   29.0240   37.0800 H   0  0  0  0  0  0  0  0  0  0  0  0
   40.4210   34.2470   40.0490 N   0  0  0  0  0  0  0  0  0  0  0  0
   41.2970   33.8470   39.6370 H   0  0  0  0  0  0  0  0  0  0  0  0
   40.3370   35.2530   40.3100 H   0  0  0  0  0  0  0  0  0  0  0  0
  1  5  1  0  0  0  0
  1  2  1  0  0  0  0
  2  3  2  0  0  0  0
  3 16  1  0  0  0  0
  4  3  1  0  0  0  0
  5  4  2  0  0  0  0
  6  7  1  0  0  0  0
  6  5  1  0  0  0  0
  7 17  1  0  0  0  0
  8  7  2  0  0  0  0
  9 14  1  0  0  0  0
  9  8  1  0  0  0  0
 10  9  2  0  0  0  0
 11 12  2  0  0  0  0
 11 10  1  0  0  0  0
 12 13  1  0  0  0  0
 13 14  2  0  0  0  0
 14  6  1  0  0  0  0
 15  2  1  0  0  0  0
 18 12  1  0  0  0  0
 19 20  1  0  0  0  0
 19 25  1  0  0  0  0
 20  1  1  0  0  0  0
 21 26  1  0  0  0  0
 21 20  2  0  0  0  0
 22 21  1  0  0  0  0
 23 22  2  0  0  0  0
 23 24  1  0  0  0  0
 24 19  2  0  0  0  0
 27 23  1  0  0  0  0
 28 27  1  0  0  0  0
 29 31  1  0  0  0  0
 29 28  2  0  0  0  0
 30 29  1  0  0  0  0
 31 32  2  0  0  0  0
 32 27  1  0  0  0  0
 32 33  1  0  0  0  0
 34 10  1  0  0  0  0
 34 36  1  0  0  0  0
 35 34  1  0  0  0  0
M  END
>  <minimizedAffinity>
-6.45035458

>  <minimizedRMSD>
1.68623877

$$$$
