
 OpenBabel03242509303D

 19 20  0  0  0  0  0  0  0  0999 V2000
   38.2770   28.4840   43.4890 C   0  0  0  0  0  0  0  0  0  0  0  0
   38.7170   27.1290   43.5610 C   0  0  0  0  0  0  0  0  0  0  0  0
   38.2810   26.2860   42.5340 C   0  0  0  0  0  0  0  0  0  0  0  0
   37.4740   26.8100   41.5490 N   0  0  0  0  0  0  0  0  0  0  0  0
   37.0920   28.0940   41.5360 C   0  0  0  0  0  0  0  0  0  0  0  0
   37.4980   28.9210   42.5090 N   0  0  0  0  0  0  0  0  0  0  0  0
   38.5720   29.1970   44.2480 H   0  0  0  0  0  0  0  0  0  0  0  0
   39.3510   26.8080   44.3740 H   0  0  0  0  0  0  0  0  0  0  0  0
   36.2650   28.3390   40.3980 N   0  0  0  0  0  0  0  0  0  0  0  0
   36.4790   28.0050   39.1300 N   0  0  0  0  0  0  0  0  0  0  0  0
   35.4430   28.4240   38.3600 C   0  0  0  0  0  0  0  0  0  0  0  0
   35.2910   28.3200   37.2910 H   0  0  0  0  0  0  0  0  0  0  0  0
   34.5210   29.0590   39.1750 C   0  0  0  0  0  3  0  0  0  0  0  0
   35.0720   28.9860   40.4490 C   0  0  0  0  0  0  0  0  0  0  0  0
   34.6290   29.3830   41.3730 H   0  0  0  0  0  0  0  0  0  0  0  0
   38.7110   24.8570   42.5560 C   0  0  0  0  0  0  0  0  0  0  0  0
   39.4020   24.6590   41.3700 F   0  0  0  0  0  0  0  0  0  0  0  0
   39.5380   24.5820   43.5970 F   0  0  0  0  0  0  0  0  0  0  0  0
   37.6190   23.9950   42.5630 F   0  0  0  0  0  0  0  0  0  0  0  0
  1  2  1  0  0  0  0
  1  7  1  0  0  0  0
  2  8  1  0  0  0  0
  3 16  1  0  0  0  0
  3  2  2  0  0  0  0
  4  3  1  0  0  0  0
  5  4  2  0  0  0  0
  5  6  1  0  0  0  0
  6  1  2  0  0  0  0
  9 14  1  0  0  0  0
  9  5  1  0  0  0  0
 10  9  1  0  0  0  0
 11 10  2  0  0  0  0
 11 13  1  0  0  0  0
 12 11  1  0  0  0  0
 13 14  2  0  0  0  0
 14 15  1  0  0  0  0
 16 19  1  0  0  0  0
 16 18  1  0  0  0  0
 17 16  1  0  0  0  0
M  END
>  <minimizedAffinity>
-4.41055202

>  <minimizedRMSD>
1.23275781

$$$$
