
 OpenBabel03242509313D

 19 20  0  0  0  0  0  0  0  0999 V2000
   37.8150   28.7070   43.5970 C   0  0  0  0  0  0  0  0  0  0  0  0
   38.3220   27.3780   43.7160 C   0  0  0  0  0  0  0  0  0  0  0  0
   38.3070   26.6080   42.5490 C   0  0  0  0  0  0  0  0  0  0  0  0
   37.8130   27.1720   41.3930 N   0  0  0  0  0  0  0  0  0  0  0  0
   37.3480   28.4270   41.3440 C   0  0  0  0  0  0  0  0  0  0  0  0
   37.3540   29.1850   42.4500 N   0  0  0  0  0  0  0  0  0  0  0  0
   37.7930   29.3640   44.4570 H   0  0  0  0  0  0  0  0  0  0  0  0
   38.6900   27.0220   44.6670 H   0  0  0  0  0  0  0  0  0  0  0  0
   36.9080   28.7270   40.0200 N   0  0  0  0  0  0  0  0  0  0  0  0
   36.9750   27.9670   38.9320 N   0  0  0  0  0  0  0  0  0  0  0  0
   36.4430   28.6270   37.8720 C   0  0  0  0  0  0  0  0  0  0  0  0
   36.3370   28.3060   36.8420 H   0  0  0  0  0  0  0  0  0  0  0  0
   36.0140   29.8710   38.3020 C   0  0  0  0  0  3  0  0  0  0  0  0
   36.3230   29.8980   39.6580 C   0  0  0  0  0  0  0  0  0  0  0  0
   36.1320   30.7280   40.3520 H   0  0  0  0  0  0  0  0  0  0  0  0
   38.8250   25.2100   42.6120 C   0  0  0  0  0  0  0  0  0  0  0  0
   39.5760   25.0410   41.4590 F   0  0  0  0  0  0  0  0  0  0  0  0
   39.6250   25.0040   43.6900 F   0  0  0  0  0  0  0  0  0  0  0  0
   37.7910   24.2800   42.5890 F   0  0  0  0  0  0  0  0  0  0  0  0
  1  2  1  0  0  0  0
  1  7  1  0  0  0  0
  2  8  1  0  0  0  0
  3 16  1  0  0  0  0
  3  2  2  0  0  0  0
  4  3  1  0  0  0  0
  5  4  2  0  0  0  0
  5  6  1  0  0  0  0
  6  1  2  0  0  0  0
  9  5  1  0  0  0  0
 10  9  1  0  0  0  0
 11 13  1  0  0  0  0
 11 10  2  0  0  0  0
 12 11  1  0  0  0  0
 13 14  2  0  0  0  0
 14  9  1  0  0  0  0
 14 15  1  0  0  0  0
 16 18  1  0  0  0  0
 17 16  1  0  0  0  0
 19 16  1  0  0  0  0
M  END
>  <minimizedAffinity>
-4.09936428

>  <minimizedRMSD>
1.37058926

$$$$
