
 OpenBabel03242504473D

 21 23  0  0  0  0  0  0  0  0999 V2000
   38.7830   31.9740   40.8330 C   0  0  0  0  0  0  0  0  0  0  0  0
   37.4830   32.0570   40.4510 N   0  0  0  0  0  0  0  0  0  0  0  0
   36.8440   31.0500   41.0060 O   0  0  0  0  0  0  0  0  0  0  0  0
   37.6520   30.3230   41.7210 C   0  0  0  0  0  0  0  0  0  0  0  0
   38.8810   30.8920   41.6230 N   0  0  0  0  0  0  0  0  0  0  0  0
   37.3350   29.1500   42.4710 N   0  0  0  0  0  0  0  0  0  0  0  0
   37.7540   28.9050   43.7160 N   0  0  0  0  0  0  0  0  0  0  0  0
   37.2700   27.7130   44.1210 C   0  0  0  0  0  0  0  0  0  0  0  0
   37.5310   27.3770   45.1230 H   0  0  0  0  0  0  0  0  0  0  0  0
   36.5150   27.1940   43.0790 C   0  0  0  0  0  0  0  0  0  0  0  0
   36.5760   28.1210   42.0610 C   0  0  0  0  0  0  0  0  0  0  0  0
   36.0740   27.9810   41.1080 H   0  0  0  0  0  0  0  0  0  0  0  0
   41.2370   32.5530   40.6310 C   0  0  0  0  0  0  0  0  0  0  0  0
   39.8810   32.8720   40.4690 C   0  0  0  0  0  0  0  0  0  0  0  0
   39.5430   34.1080   39.9350 C   0  0  0  0  0  0  0  0  0  0  0  0
   40.5620   34.9530   39.5920 N   0  0  0  0  0  0  0  0  0  0  0  0
   41.8560   34.6220   39.7580 C   0  0  0  0  0  0  0  0  0  0  0  0
   42.1860   33.4240   40.2770 N   0  0  0  0  0  0  0  0  0  0  0  0
   41.3610   31.5670   41.0550 H   0  0  0  0  0  0  0  0  0  0  0  0
   38.5300   34.4590   39.7650 H   0  0  0  0  0  0  0  0  0  0  0  0
   42.6360   35.3340   39.4680 H   0  0  0  0  0  0  0  0  0  0  0  0
  1  5  1  0  0  0  0
  2  1  2  0  0  0  0
  2  3  1  0  0  0  0
  3  4  1  0  0  0  0
  4  6  1  0  0  0  0
  5  4  2  0  0  0  0
  6  7  1  0  0  0  0
  7  8  2  0  0  0  0
  8  9  1  0  0  0  0
 10  8  1  0  0  0  0
 11  6  1  0  0  0  0
 11 10  2  0  0  0  0
 12 11  1  0  0  0  0
 13 19  1  0  0  0  0
 14 13  1  0  0  0  0
 14  1  1  0  0  0  0
 15 14  2  0  0  0  0
 16 17  2  0  0  0  0
 16 15  1  0  0  0  0
 17 18  1  0  0  0  0
 18 13  2  0  0  0  0
 20 15  1  0  0  0  0
 21 17  1  0  0  0  0
M  END
>  <minimizedAffinity>
-4.84498072

>  <minimizedRMSD>
6.03509521

$$$$
