
 OpenBabel03242509323D

 17 18  0  0  0  0  0  0  0  0999 V2000
   40.0350   25.9340   43.4160 C   0  0  0  0  0  0  0  0  0  0  0  0
   39.2100   24.9070   42.8720 C   0  0  0  0  0  0  0  0  0  0  0  0
   38.3240   25.2850   41.8550 C   0  0  0  0  0  0  0  0  0  0  0  0
   38.2990   26.5910   41.4450 N   0  0  0  0  0  0  0  0  0  0  0  0
   39.0990   27.5260   41.9910 C   0  0  0  0  0  0  0  0  0  0  0  0
   39.9590   27.1850   42.9690 N   0  0  0  0  0  0  0  0  0  0  0  0
   40.7160   25.6620   44.1920 H   0  0  0  0  0  0  0  0  0  0  0  0
   39.2460   23.8800   43.2100 H   0  0  0  0  0  0  0  0  0  0  0  0
   39.0470   28.8760   41.5410 N   0  0  0  0  0  0  0  0  0  0  0  0
   38.3100   29.8710   42.0880 C   0  0  0  0  0  3  0  0  0  0  0  0
   38.4880   31.0430   41.4150 N   0  0  0  0  0  0  0  0  0  0  0  0
   39.3720   30.7510   40.4160 C   0  0  0  0  0  3  0  0  0  0  0  0
   39.6730   29.4580   40.5320 N   0  0  0  0  0  0  0  0  0  0  0  0
   37.4400   24.2430   41.2560 C   0  0  0  0  0  0  0  0  0  0  0  0
   37.2220   24.6380   39.9560 F   0  0  0  0  0  0  0  0  0  0  0  0
   38.0210   23.0120   41.2430 F   0  0  0  0  0  0  0  0  0  0  0  0
   36.2180   24.1670   41.9140 F   0  0  0  0  0  0  0  0  0  0  0  0
  1  7  1  0  0  0  0
  2  8  1  0  0  0  0
  2  1  2  0  0  0  0
  3  2  1  0  0  0  0
  4  3  2  0  0  0  0
  4  5  1  0  0  0  0
  5  6  2  0  0  0  0
  6  1  1  0  0  0  0
  9  5  1  0  0  0  0
  9 10  1  0  0  0  0
 11 10  2  0  0  0  0
 12 13  2  0  0  0  0
 12 11  1  0  0  0  0
 13  9  1  0  0  0  0
 14  3  1  0  0  0  0
 14 17  1  0  0  0  0
 15 14  1  0  0  0  0
 16 14  1  0  0  0  0
M  END
>  <minimizedAffinity>
-3.73379636

>  <minimizedRMSD>
3.07093835

$$$$
