
 OpenBabel03242505373D

 24 26  0  0  0  0  0  0  0  0999 V2000
   37.1320   27.5820   41.1310 C   0  0  0  0  0  0  0  0  0  0  0  0
   36.0730   28.1410   40.4390 C   0  0  0  0  0  0  0  0  0  0  0  0
   35.7730   29.4710   40.6090 C   0  0  0  0  0  0  0  0  0  0  0  0
   36.5460   30.2240   41.4770 C   0  0  0  0  0  0  0  0  0  0  0  0
   37.6110   29.6710   42.1770 C   0  0  0  0  0  0  0  0  0  0  0  0
   37.8980   28.3440   41.9960 C   0  0  0  0  0  0  0  0  0  0  0  0
   35.4900   27.5210   39.7680 H   0  0  0  0  0  0  0  0  0  0  0  0
   34.9360   29.8510   40.0420 H   0  0  0  0  0  0  0  0  0  0  0  0
   36.2390   31.2700   41.5520 H   0  0  0  0  0  0  0  0  0  0  0  0
   38.1360   30.3570   42.8210 H   0  0  0  0  0  0  0  0  0  0  0  0
   37.1350   23.9530   41.5820 C   0  0  0  0  0  0  0  0  0  0  0  0
   37.9840   23.4970   40.5720 C   0  0  0  0  0  0  0  0  0  0  0  0
   38.5640   24.4550   39.7230 C   0  0  0  0  0  0  0  0  0  0  0  0
   38.2540   25.7500   39.9500 N   0  0  0  0  0  0  0  0  0  0  0  0
   37.4320   26.1610   40.9320 C   0  0  0  0  0  0  0  0  0  0  0  0
   36.8820   25.2500   41.7380 N   0  0  0  0  0  0  0  0  0  0  0  0
   36.7120   23.1790   42.2100 H   0  0  0  0  0  0  0  0  0  0  0  0
   38.1940   22.4610   40.4370 H   0  0  0  0  0  0  0  0  0  0  0  0
   39.2240   24.1230   38.9330 H   0  0  0  0  0  0  0  0  0  0  0  0
   38.9930   27.7910   42.7200 N   0  0  0  0  0  0  0  0  0  0  0  0
   39.0880   27.0450   43.8510 C   0  0  0  0  0  0  0  0  0  0  0  0
   40.3860   26.7850   44.1030 N   0  0  0  0  0  0  0  0  0  0  0  0
   41.1040   27.3700   43.1260 C   0  0  0  0  0  0  0  0  0  0  0  0
   40.2490   27.9840   42.2840 N   0  0  0  0  0  0  0  0  0  0  0  0
  1  6  1  0  0  0  0
  2  3  1  0  0  0  0
  2  1  2  0  0  0  0
  3  4  2  0  0  0  0
  4  9  1  0  0  0  0
  4  5  1  0  0  0  0
  5 10  1  0  0  0  0
  6  5  2  0  0  0  0
  6 20  1  0  0  0  0
  7  2  1  0  0  0  0
  8  3  1  0  0  0  0
 11 16  1  0  0  0  0
 11 17  1  0  0  0  0
 12 11  2  0  0  0  0
 13 14  2  0  0  0  0
 13 12  1  0  0  0  0
 14 15  1  0  0  0  0
 15  1  1  0  0  0  0
 15 16  2  0  0  0  0
 18 12  1  0  0  0  0
 19 13  1  0  0  0  0
 20 21  1  0  0  0  0
 21 22  2  0  0  0  0
 23 22  1  0  0  0  0
 24 20  1  0  0  0  0
 24 23  2  0  0  0  0
M  END
>  <minimizedAffinity>
-4.35208321

>  <minimizedRMSD>
4.19031382

$$$$
