
 OpenBabel03242509313D

 17 18  0  0  0  0  0  0  0  0999 V2000
   37.8330   28.5900   43.6240 C   0  0  0  0  0  0  0  0  0  0  0  0
   38.4070   27.2900   43.7310 C   0  0  0  0  0  0  0  0  0  0  0  0
   38.3380   26.4770   42.5920 C   0  0  0  0  0  0  0  0  0  0  0  0
   37.7370   26.9630   41.4610 N   0  0  0  0  0  0  0  0  0  0  0  0
   37.2090   28.2000   41.4100 C   0  0  0  0  0  0  0  0  0  0  0  0
   37.2640   28.9990   42.4930 N   0  0  0  0  0  0  0  0  0  0  0  0
   37.8770   29.2220   44.4840 H   0  0  0  0  0  0  0  0  0  0  0  0
   38.8780   26.9250   44.6330 H   0  0  0  0  0  0  0  0  0  0  0  0
   36.5910   28.6740   40.2180 N   0  0  0  0  0  0  0  0  0  0  0  0
   37.2200   29.2670   39.1750 C   0  0  0  0  0  3  0  0  0  0  0  0
   36.3340   29.6010   38.1930 N   0  0  0  0  0  0  0  0  0  0  0  0
   35.1160   29.1950   38.6580 C   0  0  0  0  0  3  0  0  0  0  0  0
   35.3190   28.6540   39.8570 N   0  0  0  0  0  0  0  0  0  0  0  0
   38.9260   25.1070   42.6580 C   0  0  0  0  0  0  0  0  0  0  0  0
   39.7220   24.9870   41.5410 F   0  0  0  0  0  0  0  0  0  0  0  0
   39.7000   24.9250   43.7620 F   0  0  0  0  0  0  0  0  0  0  0  0
   37.9440   24.1240   42.6170 F   0  0  0  0  0  0  0  0  0  0  0  0
  1  2  1  0  0  0  0
  1  7  1  0  0  0  0
  2  8  1  0  0  0  0
  3 14  1  0  0  0  0
  3  2  2  0  0  0  0
  4  3  1  0  0  0  0
  5  4  2  0  0  0  0
  5  6  1  0  0  0  0
  6  1  2  0  0  0  0
  9  5  1  0  0  0  0
 10  9  1  0  0  0  0
 11 12  1  0  0  0  0
 11 10  2  0  0  0  0
 12 13  2  0  0  0  0
 13  9  1  0  0  0  0
 14 16  1  0  0  0  0
 15 14  1  0  0  0  0
 17 14  1  0  0  0  0
M  END
>  <minimizedAffinity>
-4.0846405

>  <minimizedRMSD>
1.36950707

$$$$
