
 OpenBabel03242509313D

 17 18  0  0  0  0  0  0  0  0999 V2000
   37.7640   28.6290   43.6110 C   0  0  0  0  0  0  0  0  0  0  0  0
   38.2920   27.3110   43.7370 C   0  0  0  0  0  0  0  0  0  0  0  0
   38.3800   26.5550   42.5610 C   0  0  0  0  0  0  0  0  0  0  0  0
   37.9650   27.1090   41.3790 N   0  0  0  0  0  0  0  0  0  0  0  0
   37.4730   28.3600   41.3120 C   0  0  0  0  0  0  0  0  0  0  0  0
   37.3800   29.1050   42.4300 N   0  0  0  0  0  0  0  0  0  0  0  0
   37.6900   29.2180   44.4980 H   0  0  0  0  0  0  0  0  0  0  0  0
   38.6150   26.8920   44.6800 H   0  0  0  0  0  0  0  0  0  0  0  0
   37.0510   28.9050   40.0670 N   0  0  0  0  0  0  0  0  0  0  0  0
   36.7410   28.2020   38.9520 C   0  0  0  0  0  3  0  0  0  0  0  0
   36.3730   29.0310   37.9340 N   0  0  0  0  0  0  0  0  0  0  0  0
   36.4640   30.2920   38.4490 C   0  0  0  0  0  3  0  0  0  0  0  0
   36.8680   30.1670   39.7120 N   0  0  0  0  0  0  0  0  0  0  0  0
   38.9270   25.1690   42.6440 C   0  0  0  0  0  0  0  0  0  0  0  0
   39.7280   25.0140   41.5360 F   0  0  0  0  0  0  0  0  0  0  0  0
   39.6850   24.9740   43.7570 F   0  0  0  0  0  0  0  0  0  0  0  0
   37.9160   24.2150   42.6040 F   0  0  0  0  0  0  0  0  0  0  0  0
  1  2  1  0  0  0  0
  1  7  1  0  0  0  0
  2  8  1  0  0  0  0
  3 14  1  0  0  0  0
  3  2  2  0  0  0  0
  4  3  1  0  0  0  0
  5  4  2  0  0  0  0
  5  6  1  0  0  0  0
  6  1  2  0  0  0  0
  9  5  1  0  0  0  0
 10  9  1  0  0  0  0
 11 12  1  0  0  0  0
 11 10  2  0  0  0  0
 12 13  2  0  0  0  0
 13  9  1  0  0  0  0
 14 16  1  0  0  0  0
 15 14  1  0  0  0  0
 17 14  1  0  0  0  0
M  END
>  <minimizedAffinity>
-4.02823257

>  <minimizedRMSD>
1.50203395

$$$$
