
 OpenBabel03242509083D

 35 39  0  0  1  0  0  0  0  0999 V2000
   36.1570   29.1020   41.5650 C   0  0  0  0  0  0  0  0  0  0  0  0
   36.4440   27.7260   41.5560 C   0  0  0  0  0  0  0  0  0  0  0  0
   37.7420   27.3160   41.8460 C   0  0  0  0  0  0  0  0  0  0  0  0
   38.6530   28.2800   42.1210 N   0  0  0  0  0  0  0  0  0  0  0  0
   38.3600   29.5950   42.1250 C   0  0  0  0  0  0  0  0  0  0  0  0
   37.1020   30.0080   41.8440 N   0  0  0  0  0  0  0  0  0  0  0  0
   35.1500   29.4260   41.3390 H   0  0  0  0  0  0  0  0  0  0  0  0
   35.6760   26.9730   41.3280 H   0  0  0  0  0  0  0  0  0  0  0  0
   38.0560   25.8990   41.8310 C   0  0  0  0  0  0  0  0  0  0  0  0
   38.8920   25.1990   42.6700 C   0  0  0  0  0  0  0  0  0  0  0  0
   38.9100   23.8980   42.3070 N   0  0  0  0  0  0  0  0  0  0  0  0
   38.0980   23.7070   41.2370 C   0  0  0  0  0  0  0  0  0  0  0  0
   37.7520   22.6000   40.4740 C   0  0  0  0  0  0  0  0  0  0  0  0
   36.8760   22.7110   39.4120 C   0  0  0  0  0  0  0  0  0  0  0  0
   36.3600   23.9560   39.1350 C   0  0  0  0  0  0  0  0  0  0  0  0
   36.6970   25.0500   39.8810 C   0  0  0  0  0  0  0  0  0  0  0  0
   37.5690   24.9520   40.9420 C   0  0  0  0  0  0  0  0  0  0  0  0
   39.4590   25.5690   43.4870 H   0  0  0  0  0  0  0  0  0  0  0  0
   39.4510   23.1060   42.7500 H   0  0  0  0  0  0  0  0  0  0  0  0
   38.1830   21.6450   40.7300 H   0  0  0  0  0  0  0  0  0  0  0  0
   36.5980   21.8420   38.8070 H   0  0  0  0  0  0  0  0  0  0  0  0
   35.6670   24.1250   38.3190 H   0  0  0  0  0  0  0  0  0  0  0  0
   36.2980   26.0280   39.6720 H   0  0  0  0  0  0  0  0  0  0  0  0
   39.4250   30.5980   42.4480 C   0  0  1  0  0  0  0  0  0  0  0  0
   40.5910   30.7170   41.4800 C   0  0  0  0  0  0  0  0  0  0  0  0
   39.5600   31.8000   41.5760 C   0  0  1  0  0  0  0  0  0  0  0  0
   39.6540   30.6740   43.5250 H   0  0  0  0  0  0  0  0  0  0  0  0
   40.6670   30.0770   40.6010 H   0  0  0  0  0  0  0  0  0  0  0  0
   41.5570   30.9330   41.9800 H   0  0  0  0  0  0  0  0  0  0  0  0
   39.8530   32.7430   42.0670 H   0  0  0  0  0  0  0  0  0  0  0  0
   38.7500   31.9100   40.3750 N   0  0  0  0  0  0  0  0  0  0  0  0
   37.6660   32.6680   40.1300 C   0  0  0  0  0  0  0  0  0  0  0  0
   37.2190   32.4680   38.8860 N   0  0  0  0  0  0  0  0  0  0  0  0
   38.0670   31.5470   38.3450 C   0  0  0  0  0  0  0  0  0  0  0  0
   39.0020   31.2130   39.2680 N   0  0  0  0  0  0  0  0  0  0  0  0
  1  6  1  0  0  0  0
  2  1  2  0  0  0  0
  2  3  1  0  0  0  0
  3  4  2  0  0  0  0
  4  5  1  0  0  0  0
  5 24  1  0  0  0  0
  6  5  2  0  0  0  0
  7  1  1  0  0  0  0
  8  2  1  0  0  0  0
  9  3  1  0  0  0  0
  9 10  2  0  0  0  0
 10 18  1  0  0  0  0
 11 10  1  0  0  0  0
 11 19  1  0  0  0  0
 12 11  1  0  0  0  0
 13 20  1  0  0  0  0
 13 12  2  0  0  0  0
 14 13  1  0  0  0  0
 15 14  2  0  0  0  0
 15 16  1  0  0  0  0
 16 17  2  0  0  0  0
 17 12  1  0  0  0  0
 17  9  1  0  0  0  0
 21 14  1  0  0  0  0
 22 15  1  0  0  0  0
 23 16  1  0  0  0  0
 24 27  1  1  0  0  0
 25 26  1  0  0  0  0
 25 29  1  0  0  0  0
 25 24  1  0  0  0  0
 26 30  1  1  0  0  0
 26 24  1  0  0  0  0
 28 25  1  0  0  0  0
 31 26  1  0  0  0  0
 32 31  1  0  0  0  0
 33 32  2  0  0  0  0
 34 33  1  0  0  0  0
 34 35  2  0  0  0  0
 35 31  1  0  0  0  0
M  END
>  <minimizedAffinity>
-5.58512735

>  <minimizedRMSD>
3.20170856

$$$$
