
 OpenBabel03242507323D

 21 22  0  0  0  0  0  0  0  0999 V2000
   38.6280   29.3390   42.5730 C   0  0  0  0  0  0  0  0  0  0  0  0
   37.9090   29.1980   41.3440 C   0  0  0  0  0  0  0  0  0  0  0  0
   37.4670   27.9160   41.0950 C   0  0  0  0  0  0  0  0  0  0  0  0
   37.7090   26.9010   41.9550 N   0  0  0  0  0  0  0  0  0  0  0  0
   38.3930   27.0830   43.1040 C   0  0  0  0  0  0  0  0  0  0  0  0
   38.8420   28.3090   43.3920 N   0  0  0  0  0  0  0  0  0  0  0  0
   39.0300   30.3030   42.8890 H   0  0  0  0  0  0  0  0  0  0  0  0
   38.5000   26.1720   43.6800 H   0  0  0  0  0  0  0  0  0  0  0  0
   37.7170   30.3310   40.5230 N   0  0  0  0  0  0  0  0  0  0  0  0
   36.7710   31.3570   40.7810 C   0  0  0  0  0  0  0  0  0  0  0  0
   35.6150   30.9600   41.2710 N   0  0  0  0  0  0  0  0  0  0  0  0
   37.1850   32.7020   40.4780 N   0  0  0  0  0  0  0  0  0  0  0  0
   34.8710   31.6370   41.4960 H   0  0  0  0  0  0  0  0  0  0  0  0
   38.3500   30.3640   39.6690 H   0  0  0  0  0  0  0  0  0  0  0  0
   36.7910   33.0950   39.5880 H   0  0  0  0  0  0  0  0  0  0  0  0
   37.8260   33.2830   41.0680 H   0  0  0  0  0  0  0  0  0  0  0  0
   36.7530   27.7090   39.9030 N   0  0  0  0  0  0  0  0  0  0  0  0
   37.1270   26.8760   38.8990 C   0  0  0  0  0  0  0  0  0  0  0  0
   36.2210   26.9140   37.9080 N   0  0  0  0  0  0  0  0  0  0  0  0
   35.2780   27.7930   38.3240 C   0  0  0  0  0  0  0  0  0  0  0  0
   35.6280   28.2570   39.5360 N   0  0  0  0  0  0  0  0  0  0  0  0
  1  7  1  0  0  0  0
  1  6  1  0  0  0  0
  2  1  2  0  0  0  0
  3  2  1  0  0  0  0
  3  4  2  0  0  0  0
  4  5  1  0  0  0  0
  5  6  2  0  0  0  0
  5  8  1  0  0  0  0
  9 10  1  0  0  0  0
  9  2  1  0  0  0  0
 10 11  2  0  0  0  0
 11 13  1  0  0  0  0
 12 10  1  0  0  0  0
 12 16  1  0  0  0  0
 14  9  1  0  0  0  0
 15 12  1  0  0  0  0
 17  3  1  0  0  0  0
 18 17  1  0  0  0  0
 19 20  1  0  0  0  0
 19 18  2  0  0  0  0
 20 21  2  0  0  0  0
 21 17  1  0  0  0  0
M  END
>  <minimizedAffinity>
-4.53817749

>  <minimizedRMSD>
0.244303733

$$$$
