
 OpenBabel03242509313D

 17 18  0  0  0  0  0  0  0  0999 V2000
   37.7180   28.6220   43.5650 C   0  0  0  0  0  0  0  0  0  0  0  0
   38.3120   27.3370   43.7260 C   0  0  0  0  0  0  0  0  0  0  0  0
   38.4080   26.5410   42.5770 C   0  0  0  0  0  0  0  0  0  0  0  0
   37.9380   27.0290   41.3870 N   0  0  0  0  0  0  0  0  0  0  0  0
   37.3840   28.2510   41.2860 C   0  0  0  0  0  0  0  0  0  0  0  0
   37.2810   29.0340   42.3780 N   0  0  0  0  0  0  0  0  0  0  0  0
   37.6370   29.2410   44.4320 H   0  0  0  0  0  0  0  0  0  0  0  0
   38.6780   26.9710   44.6750 H   0  0  0  0  0  0  0  0  0  0  0  0
   36.9050   28.7280   40.0330 N   0  0  0  0  0  0  0  0  0  0  0  0
   35.6500   29.1680   39.7740 C   0  0  0  0  0  3  0  0  0  0  0  0
   35.5240   29.5530   38.4720 N   0  0  0  0  0  0  0  0  0  0  0  0
   36.7510   29.3390   37.9150 C   0  0  0  0  0  3  0  0  0  0  0  0
   37.5340   28.8520   38.8770 N   0  0  0  0  0  0  0  0  0  0  0  0
   39.0230   25.1870   42.6980 C   0  0  0  0  0  0  0  0  0  0  0  0
   39.8590   25.0570   41.6130 F   0  0  0  0  0  0  0  0  0  0  0  0
   39.7620   25.0500   43.8320 F   0  0  0  0  0  0  0  0  0  0  0  0
   38.0650   24.1810   42.6500 F   0  0  0  0  0  0  0  0  0  0  0  0
  1  2  1  0  0  0  0
  1  7  1  0  0  0  0
  2  8  1  0  0  0  0
  3 14  1  0  0  0  0
  3  2  2  0  0  0  0
  4  3  1  0  0  0  0
  5  4  2  0  0  0  0
  5  6  1  0  0  0  0
  6  1  2  0  0  0  0
  9  5  1  0  0  0  0
 10  9  1  0  0  0  0
 11 10  2  0  0  0  0
 12 11  1  0  0  0  0
 12 13  2  0  0  0  0
 13  9  1  0  0  0  0
 14 16  1  0  0  0  0
 15 14  1  0  0  0  0
 17 14  1  0  0  0  0
M  END
>  <minimizedAffinity>
-4.04777956

>  <minimizedRMSD>
1.55084109

$$$$
