
 OpenBabel03242509323D

 17 18  0  0  0  0  0  0  0  0999 V2000
   37.7980   28.6820   43.5840 C   0  0  0  0  0  0  0  0  0  0  0  0
   38.2710   27.3430   43.7120 C   0  0  0  0  0  0  0  0  0  0  0  0
   38.3780   26.5990   42.5300 C   0  0  0  0  0  0  0  0  0  0  0  0
   38.0320   27.1820   41.3410 N   0  0  0  0  0  0  0  0  0  0  0  0
   37.5890   28.4520   41.2710 C   0  0  0  0  0  0  0  0  0  0  0  0
   37.4790   29.1860   42.3950 N   0  0  0  0  0  0  0  0  0  0  0  0
   37.7110   29.2620   44.4750 H   0  0  0  0  0  0  0  0  0  0  0  0
   38.5410   26.9010   44.6610 H   0  0  0  0  0  0  0  0  0  0  0  0
   37.2370   29.0280   40.0180 N   0  0  0  0  0  0  0  0  0  0  0  0
   36.5930   30.2050   39.8350 C   0  0  0  0  0  3  0  0  0  0  0  0
   36.4100   30.4630   38.5080 N   0  0  0  0  0  0  0  0  0  0  0  0
   36.9660   29.4000   37.8570 C   0  0  0  0  0  3  0  0  0  0  0  0
   37.4410   28.5780   38.7910 N   0  0  0  0  0  0  0  0  0  0  0  0
   38.8700   25.1920   42.6160 C   0  0  0  0  0  0  0  0  0  0  0  0
   39.6510   24.9990   41.5000 F   0  0  0  0  0  0  0  0  0  0  0  0
   39.6320   24.9730   43.7220 F   0  0  0  0  0  0  0  0  0  0  0  0
   37.8210   24.2800   42.5940 F   0  0  0  0  0  0  0  0  0  0  0  0
  1  2  1  0  0  0  0
  1  7  1  0  0  0  0
  2  8  1  0  0  0  0
  3 14  1  0  0  0  0
  3  2  2  0  0  0  0
  4  3  1  0  0  0  0
  5  4  2  0  0  0  0
  5  6  1  0  0  0  0
  6  1  2  0  0  0  0
  9  5  1  0  0  0  0
 10  9  1  0  0  0  0
 11 10  2  0  0  0  0
 12 11  1  0  0  0  0
 12 13  2  0  0  0  0
 13  9  1  0  0  0  0
 14 16  1  0  0  0  0
 15 14  1  0  0  0  0
 17 14  1  0  0  0  0
M  END
>  <minimizedAffinity>
-4.05228758

>  <minimizedRMSD>
1.53420937

$$$$
