
 OpenBabel03242507013D

 15 16  0  0  0  0  0  0  0  0999 V2000
   40.1270   26.7260   43.8000 C   0  0  0  0  0  0  0  0  0  0  0  0
   39.7760   25.4010   43.4840 C   0  0  0  0  0  0  0  0  0  0  0  0
   38.6620   25.1860   42.6790 C   0  0  0  0  0  0  0  0  0  0  0  0
   37.9600   26.2610   42.2320 N   0  0  0  0  0  0  0  0  0  0  0  0
   38.3230   27.5290   42.5520 C   0  0  0  0  0  0  0  0  0  0  0  0
   39.3920   27.7450   43.3250 N   0  0  0  0  0  0  0  0  0  0  0  0
   40.9910   26.9360   44.4250 H   0  0  0  0  0  0  0  0  0  0  0  0
   40.3610   24.5710   43.8600 H   0  0  0  0  0  0  0  0  0  0  0  0
   37.4550   28.4990   41.9810 N   0  0  0  0  0  0  0  0  0  0  0  0
   36.5430   28.0320   41.0800 C   0  0  0  0  0  0  0  0  0  0  0  0
   35.8000   29.0840   40.6360 N   0  0  0  0  0  0  0  0  0  0  0  0
   36.2690   30.1960   41.2750 C   0  0  0  0  0  0  0  0  0  0  0  0
   37.2790   29.8140   42.0910 N   0  0  0  0  0  0  0  0  0  0  0  0
   38.3520   23.8820   42.3940 O   0  0  0  0  0  0  0  0  0  0  0  0
   38.8070   23.3190   41.6950 H   0  0  0  0  0  0  0  0  0  0  0  0
  1  7  1  0  0  0  0
  2  1  1  0  0  0  0
  2  8  1  0  0  0  0
  3  2  2  0  0  0  0
  4  5  2  0  0  0  0
  4  3  1  0  0  0  0
  5  6  1  0  0  0  0
  6  1  2  0  0  0  0
  9 13  1  0  0  0  0
  9  5  1  0  0  0  0
 10  9  1  0  0  0  0
 11 10  2  0  0  0  0
 11 12  1  0  0  0  0
 12 13  2  0  0  0  0
 14  3  1  0  0  0  0
 15 14  1  0  0  0  0
M  END
>  <minimizedAffinity>
-3.95232153

>  <minimizedRMSD>
2.693151

$$$$
