
 OpenBabel03242507423D

 29 31  0  0  0  0  0  0  0  0999 V2000
   39.5330   27.5950   43.5400 C   0  0  0  0  0  0  0  0  0  0  0  0
   38.9660   26.3140   43.3770 C   0  0  0  0  0  0  0  0  0  0  0  0
   38.0960   26.1580   42.2890 C   0  0  0  0  0  0  0  0  0  0  0  0
   37.8510   27.2040   41.4800 N   0  0  0  0  0  0  0  0  0  0  0  0
   38.4070   28.4080   41.6640 C   0  0  0  0  0  0  0  0  0  0  0  0
   39.2510   28.6110   42.6950 N   0  0  0  0  0  0  0  0  0  0  0  0
   37.4520   24.9410   41.9930 N   0  0  0  0  0  0  0  0  0  0  0  0
   38.1550   29.5270   40.8120 N   0  0  0  0  0  0  0  0  0  0  0  0
   37.3340   29.3150   39.7680 C   0  0  0  0  0  0  0  0  0  0  0  0
   36.9780   30.2710   38.8460 C   0  0  0  0  0  0  0  0  0  0  0  0
   37.5210   31.5290   39.0320 C   0  0  0  0  0  0  0  0  0  0  0  0
   37.2520   32.4580   38.2410 O   0  0  0  0  0  0  0  0  0  0  0  0
   38.3360   31.7290   40.0740 N   0  0  0  0  0  0  0  0  0  0  0  0
   38.6660   30.7710   40.9620 C   0  0  0  0  0  0  0  0  0  0  0  0
   39.4270   30.9370   41.9430 O   0  0  0  0  0  0  0  0  0  0  0  0
   40.2100   27.7340   44.3790 H   0  0  0  0  0  0  0  0  0  0  0  0
   39.1580   25.4840   44.0170 H   0  0  0  0  0  0  0  0  0  0  0  0
   37.5310   24.2170   41.2610 H   0  0  0  0  0  0  0  0  0  0  0  0
   36.7550   24.8820   42.7810 H   0  0  0  0  0  0  0  0  0  0  0  0
   36.8970   28.3300   39.6050 H   0  0  0  0  0  0  0  0  0  0  0  0
   38.9460   33.0020   40.3470 C   0  0  0  0  0  0  0  0  0  0  0  0
   40.1290   33.3220   39.4650 C   0  0  0  0  0  0  0  0  0  0  0  0
   40.3200   34.8040   39.7050 C   0  0  0  0  0  0  0  0  0  0  0  0
   39.0930   35.2960   40.4610 C   0  0  0  0  0  0  0  0  0  0  0  0
   38.0890   34.1830   40.1120 C   0  0  0  0  0  0  0  0  0  0  0  0
   36.0630   29.9580   37.7160 C   0  0  0  0  0  0  0  0  0  0  0  0
   36.6960   29.7560   36.8030 H   0  0  0  0  0  0  0  0  0  0  0  0
   35.3310   30.7560   37.5210 H   0  0  0  0  0  0  0  0  0  0  0  0
   35.5850   28.9770   37.9430 H   0  0  0  0  0  0  0  0  0  0  0  0
  1 16  1  0  0  0  0
  2  1  1  0  0  0  0
  2 17  1  0  0  0  0
  3  2  2  0  0  0  0
  4  5  2  0  0  0  0
  4  3  1  0  0  0  0
  5  6  1  0  0  0  0
  6  1  2  0  0  0  0
  7  3  1  0  0  0  0
  7 19  1  0  0  0  0
  8 14  1  0  0  0  0
  8  5  1  0  0  0  0
  9  8  1  0  0  0  0
 10 11  1  0  0  0  0
 10  9  2  0  0  0  0
 11 13  1  0  0  0  0
 12 11  2  0  0  0  0
 13 21  1  0  0  0  0
 13 14  1  0  0  0  0
 14 15  2  0  0  0  0
 18  7  1  0  0  0  0
 20  9  1  0  0  0  0
 22 23  1  0  0  0  0
 22 21  1  0  0  0  0
 23 24  1  0  0  0  0
 25 21  1  0  0  0  0
 25 24  1  0  0  0  0
 26 29  1  0  0  0  0
 26 10  1  0  0  0  0
 27 26  1  0  0  0  0
 28 26  1  0  0  0  0
M  END
>  <minimizedAffinity>
-5.75135994

>  <minimizedRMSD>
1.63512647

$$$$
