
 OpenBabel03242509313D

 17 18  0  0  0  0  0  0  0  0999 V2000
   37.8440   28.7040   43.5740 C   0  0  0  0  0  0  0  0  0  0  0  0
   38.2810   27.3490   43.6490 C   0  0  0  0  0  0  0  0  0  0  0  0
   38.1830   26.5920   42.4750 C   0  0  0  0  0  0  0  0  0  0  0  0
   37.6840   27.1780   41.3420 N   0  0  0  0  0  0  0  0  0  0  0  0
   37.2830   28.4630   41.3220 C   0  0  0  0  0  0  0  0  0  0  0  0
   37.3690   29.2100   42.4400 N   0  0  0  0  0  0  0  0  0  0  0  0
   37.9130   29.2940   44.4610 H   0  0  0  0  0  0  0  0  0  0  0  0
   38.6730   26.9050   44.5530 H   0  0  0  0  0  0  0  0  0  0  0  0
   36.7680   29.0420   40.1280 N   0  0  0  0  0  0  0  0  0  0  0  0
   37.1500   30.2240   39.5860 C   0  0  0  0  0  3  0  0  0  0  0  0
   36.4580   30.4840   38.4400 N   0  0  0  0  0  0  0  0  0  0  0  0
   35.6210   29.4180   38.2770 C   0  0  0  0  0  3  0  0  0  0  0  0
   35.8400   28.5930   39.2990 N   0  0  0  0  0  0  0  0  0  0  0  0
   38.6290   25.1680   42.5060 C   0  0  0  0  0  0  0  0  0  0  0  0
   39.2950   24.9580   41.3200 F   0  0  0  0  0  0  0  0  0  0  0  0
   39.4830   24.9120   43.5330 F   0  0  0  0  0  0  0  0  0  0  0  0
   37.5510   24.2930   42.5760 F   0  0  0  0  0  0  0  0  0  0  0  0
  1  2  1  0  0  0  0
  1  7  1  0  0  0  0
  2  8  1  0  0  0  0
  3 14  1  0  0  0  0
  3  2  2  0  0  0  0
  4  3  1  0  0  0  0
  5  4  2  0  0  0  0
  5  6  1  0  0  0  0
  6  1  2  0  0  0  0
  9  5  1  0  0  0  0
 10  9  1  0  0  0  0
 11 10  2  0  0  0  0
 12 11  1  0  0  0  0
 12 13  2  0  0  0  0
 13  9  1  0  0  0  0
 14 17  1  0  0  0  0
 14 16  1  0  0  0  0
 15 14  1  0  0  0  0
M  END
>  <minimizedAffinity>
-4.10622406

>  <minimizedRMSD>
1.16114092

$$$$
