
 OpenBabel03242508333D

 34 37  0  0  0  0  0  0  0  0999 V2000
   38.4480   28.3580   43.2570 C   0  0  0  0  0  0  0  0  0  0  0  0
   38.1660   27.1430   42.5970 C   0  0  0  0  0  0  0  0  0  0  0  0
   37.2560   27.2210   41.5390 C   0  0  0  0  0  0  0  0  0  0  0  0
   36.7110   28.4250   41.2160 N   0  0  0  0  0  0  0  0  0  0  0  0
   37.0170   29.5350   41.8750 C   0  0  0  0  0  0  0  0  0  0  0  0
   37.8880   29.5060   42.9010 N   0  0  0  0  0  0  0  0  0  0  0  0
   39.1410   28.3710   44.0810 H   0  0  0  0  0  0  0  0  0  0  0  0
   38.6710   26.2850   42.9650 H   0  0  0  0  0  0  0  0  0  0  0  0
   36.9570   25.9590   40.8460 C   0  0  0  0  0  0  0  0  0  0  0  0
   35.8730   26.0330   40.5360 H   0  0  0  0  0  0  0  0  0  0  0  0
   37.5150   25.8410   39.9180 H   0  0  0  0  0  0  0  0  0  0  0  0
   37.0440   24.7570   41.7290 C   0  0  0  0  0  0  0  0  0  0  0  0
   38.0220   24.7250   42.2810 H   0  0  0  0  0  0  0  0  0  0  0  0
   36.1740   24.6430   42.3740 H   0  0  0  0  0  0  0  0  0  0  0  0
   37.1130   23.5670   40.8090 C   0  0  0  0  0  0  0  0  0  0  0  0
   36.1900   23.2710   39.8240 C   0  0  0  0  0  0  0  0  0  0  0  0
   36.5960   22.1070   39.1970 C   0  0  0  0  0  0  0  0  0  0  0  0
   37.7670   21.7450   39.8440 C   0  0  0  0  0  0  0  0  0  0  0  0
   38.4410   20.9050   39.6990 H   0  0  0  0  0  0  0  0  0  0  0  0
   38.0350   22.6240   40.7790 O   0  0  0  0  0  0  0  0  0  0  0  0
   36.3500   30.6180   41.3770 O   0  0  0  0  0  0  0  0  0  0  0  0
   36.9950   31.5010   40.5100 C   0  0  0  0  0  0  0  0  0  0  0  0
   36.8720   31.6530   39.1570 N   0  0  0  0  0  0  0  0  0  0  0  0
   37.6840   32.6180   38.7730 O   0  0  0  0  0  0  0  0  0  0  0  0
   38.3050   33.0630   39.8620 C   0  0  0  0  0  0  0  0  0  0  0  0
   37.8970   32.3930   40.9330 N   0  0  0  0  0  0  0  0  0  0  0  0
   39.2840   34.1360   39.8200 C   0  0  0  0  0  0  0  0  0  0  0  0
   39.0780   35.4510   40.2120 C   0  0  0  0  0  0  0  0  0  0  0  0
   40.2190   36.1690   40.0300 C   0  0  0  0  0  0  0  0  0  0  0  0
   41.1280   35.2450   39.5120 C   0  0  0  0  0  0  0  0  0  0  0  0
   40.5230   34.0930   39.4170 O   0  0  0  0  0  0  0  0  0  0  0  0
   38.1340   35.8110   40.6000 H   0  0  0  0  0  0  0  0  0  0  0  0
   40.4190   37.2130   40.2270 H   0  0  0  0  0  0  0  0  0  0  0  0
   42.1720   35.4100   39.2230 H   0  0  0  0  0  0  0  0  0  0  0  0
  1  7  1  0  0  0  0
  2  8  1  0  0  0  0
  2  1  2  0  0  0  0
  3  2  1  0  0  0  0
  4  3  2  0  0  0  0
  4  5  1  0  0  0  0
  5  6  2  0  0  0  0
  6  1  1  0  0  0  0
  9  3  1  0  0  0  0
  9 12  1  0  0  0  0
 10  9  1  0  0  0  0
 11  9  1  0  0  0  0
 12 13  1  0  0  0  0
 12 14  1  0  0  0  0
 15 12  1  0  0  0  0
 16 15  2  0  0  0  0
 17 16  1  0  0  0  0
 17 18  2  0  0  0  0
 18 20  1  0  0  0  0
 19 18  1  0  0  0  0
 20 15  1  0  0  0  0
 21  5  1  0  0  0  0
 22 26  1  0  0  0  0
 22 21  1  0  0  0  0
 23 22  2  0  0  0  0
 24 23  1  0  0  0  0
 24 25  1  0  0  0  0
 25 26  2  0  0  0  0
 27 25  1  0  0  0  0
 27 28  2  0  0  0  0
 28 32  1  0  0  0  0
 29 28  1  0  0  0  0
 29 33  1  0  0  0  0
 30 29  2  0  0  0  0
 31 30  1  0  0  0  0
 31 27  1  0  0  0  0
 34 30  1  0  0  0  0
M  END
>  <minimizedAffinity>
-5.83074999

>  <minimizedRMSD>
0.554588914

$$$$
