
 OpenBabel03242509313D

 17 18  0  0  0  0  0  0  0  0999 V2000
   37.8550   28.7240   43.5490 C   0  0  0  0  0  0  0  0  0  0  0  0
   38.3760   27.4010   43.6550 C   0  0  0  0  0  0  0  0  0  0  0  0
   38.2600   26.5870   42.5210 C   0  0  0  0  0  0  0  0  0  0  0  0
   37.6680   27.0930   41.3950 N   0  0  0  0  0  0  0  0  0  0  0  0
   37.1910   28.3510   41.3430 C   0  0  0  0  0  0  0  0  0  0  0  0
   37.2920   29.1510   42.4220 N   0  0  0  0  0  0  0  0  0  0  0  0
   37.9360   29.3570   44.4050 H   0  0  0  0  0  0  0  0  0  0  0  0
   38.8410   27.0210   44.5540 H   0  0  0  0  0  0  0  0  0  0  0  0
   36.5810   28.8460   40.1560 N   0  0  0  0  0  0  0  0  0  0  0  0
   37.0400   29.8620   39.3880 C   0  0  0  0  0  3  0  0  0  0  0  0
   36.2170   30.0830   38.3220 N   0  0  0  0  0  0  0  0  0  0  0  0
   35.2160   29.1630   38.4480 C   0  0  0  0  0  3  0  0  0  0  0  0
   35.4740   28.4560   39.5450 N   0  0  0  0  0  0  0  0  0  0  0  0
   38.7910   25.1940   42.5870 C   0  0  0  0  0  0  0  0  0  0  0  0
   39.5450   25.0260   41.4470 F   0  0  0  0  0  0  0  0  0  0  0  0
   39.5920   24.9920   43.6680 F   0  0  0  0  0  0  0  0  0  0  0  0
   37.7670   24.2540   42.5910 F   0  0  0  0  0  0  0  0  0  0  0  0
  1  2  1  0  0  0  0
  1  7  1  0  0  0  0
  2  8  1  0  0  0  0
  3 14  1  0  0  0  0
  3  2  2  0  0  0  0
  4  3  1  0  0  0  0
  5  4  2  0  0  0  0
  5  6  1  0  0  0  0
  6  1  2  0  0  0  0
  9  5  1  0  0  0  0
 10  9  1  0  0  0  0
 11 12  1  0  0  0  0
 11 10  2  0  0  0  0
 12 13  2  0  0  0  0
 13  9  1  0  0  0  0
 14 17  1  0  0  0  0
 14 16  1  0  0  0  0
 15 14  1  0  0  0  0
M  END
>  <minimizedAffinity>
-4.10274363

>  <minimizedRMSD>
1.2301867

$$$$
