
 OpenBabel03242509313D

 17 18  0  0  0  0  0  0  0  0999 V2000
   37.7120   28.5800   43.6490 C   0  0  0  0  0  0  0  0  0  0  0  0
   38.2470   27.2650   43.7750 C   0  0  0  0  0  0  0  0  0  0  0  0
   38.4150   26.5390   42.5890 C   0  0  0  0  0  0  0  0  0  0  0  0
   38.0650   27.1170   41.3980 N   0  0  0  0  0  0  0  0  0  0  0  0
   37.5620   28.3630   41.3300 C   0  0  0  0  0  0  0  0  0  0  0  0
   37.3930   29.0800   42.4580 N   0  0  0  0  0  0  0  0  0  0  0  0
   37.5770   29.1470   44.5440 H   0  0  0  0  0  0  0  0  0  0  0  0
   38.5180   26.8270   44.7260 H   0  0  0  0  0  0  0  0  0  0  0  0
   37.2080   28.9340   40.0750 N   0  0  0  0  0  0  0  0  0  0  0  0
   38.0240   29.0720   39.0040 C   0  0  0  0  0  3  0  0  0  0  0  0
   37.3700   29.6580   37.9600 N   0  0  0  0  0  0  0  0  0  0  0  0
   36.1040   29.8880   38.4160 C   0  0  0  0  0  3  0  0  0  0  0  0
   36.0560   29.4440   39.6710 N   0  0  0  0  0  0  0  0  0  0  0  0
   38.9730   25.1570   42.6730 C   0  0  0  0  0  0  0  0  0  0  0  0
   39.7810   25.0120   41.5680 F   0  0  0  0  0  0  0  0  0  0  0  0
   39.7270   24.9660   43.7890 F   0  0  0  0  0  0  0  0  0  0  0  0
   37.9700   24.1950   42.6250 F   0  0  0  0  0  0  0  0  0  0  0  0
  1  2  1  0  0  0  0
  1  7  1  0  0  0  0
  2  8  1  0  0  0  0
  3 14  1  0  0  0  0
  3  2  2  0  0  0  0
  4  3  1  0  0  0  0
  5  4  2  0  0  0  0
  5  6  1  0  0  0  0
  6  1  2  0  0  0  0
  9  5  1  0  0  0  0
 10  9  1  0  0  0  0
 11 12  1  0  0  0  0
 11 10  2  0  0  0  0
 12 13  2  0  0  0  0
 13  9  1  0  0  0  0
 14 16  1  0  0  0  0
 15 14  1  0  0  0  0
 17 14  1  0  0  0  0
M  END
>  <minimizedAffinity>
-4.03160763

>  <minimizedRMSD>
1.59868646

$$$$
