
 OpenBabel03242509323D

 17 18  0  0  0  0  0  0  0  0999 V2000
   37.7820   28.6380   43.5850 C   0  0  0  0  0  0  0  0  0  0  0  0
   38.2820   27.3110   43.7250 C   0  0  0  0  0  0  0  0  0  0  0  0
   38.4130   26.5620   42.5480 C   0  0  0  0  0  0  0  0  0  0  0  0
   38.0620   27.1320   41.3530 N   0  0  0  0  0  0  0  0  0  0  0  0
   37.5940   28.3910   41.2730 C   0  0  0  0  0  0  0  0  0  0  0  0
   37.4600   29.1290   42.3920 N   0  0  0  0  0  0  0  0  0  0  0  0
   37.6770   29.2220   44.4730 H   0  0  0  0  0  0  0  0  0  0  0  0
   38.5550   26.8800   44.6780 H   0  0  0  0  0  0  0  0  0  0  0  0
   37.2380   28.9520   40.0140 N   0  0  0  0  0  0  0  0  0  0  0  0
   37.5060   28.4190   38.8000 C   0  0  0  0  0  3  0  0  0  0  0  0
   37.0260   29.2110   37.7980 N   0  0  0  0  0  0  0  0  0  0  0  0
   36.4420   30.2710   38.4300 C   0  0  0  0  0  3  0  0  0  0  0  0
   36.5920   30.0740   39.7380 N   0  0  0  0  0  0  0  0  0  0  0  0
   38.9330   25.1670   42.6460 C   0  0  0  0  0  0  0  0  0  0  0  0
   39.7370   24.9890   41.5430 F   0  0  0  0  0  0  0  0  0  0  0  0
   39.6810   24.9660   43.7640 F   0  0  0  0  0  0  0  0  0  0  0  0
   37.9040   24.2320   42.6070 F   0  0  0  0  0  0  0  0  0  0  0  0
  1  2  1  0  0  0  0
  1  7  1  0  0  0  0
  2  8  1  0  0  0  0
  3 14  1  0  0  0  0
  3  2  2  0  0  0  0
  4  3  1  0  0  0  0
  5  4  2  0  0  0  0
  5  6  1  0  0  0  0
  6  1  2  0  0  0  0
  9  5  1  0  0  0  0
 10  9  1  0  0  0  0
 11 12  1  0  0  0  0
 11 10  2  0  0  0  0
 12 13  2  0  0  0  0
 13  9  1  0  0  0  0
 14 16  1  0  0  0  0
 15 14  1  0  0  0  0
 17 14  1  0  0  0  0
M  END
>  <minimizedAffinity>
-4.04350328

>  <minimizedRMSD>
1.59521985

$$$$
