
 OpenBabel03242508103D

 39 42  0  0  1  0  0  0  0  0999 V2000
   38.9720   35.5980   40.1680 C   0  0  0  0  0  0  0  0  0  0  0  0
   40.3060   35.9800   40.2980 C   0  0  0  0  0  0  0  0  0  0  0  0
   41.2290   34.9550   40.5430 C   0  0  0  0  0  0  0  0  0  0  0  0
   40.7310   33.7270   40.6260 N   0  0  0  0  0  0  0  0  0  0  0  0
   39.4830   33.3240   40.5100 C   0  0  0  0  0  0  0  0  0  0  0  0
   38.6270   34.3220   40.2770 N   0  0  0  0  0  0  0  0  0  0  0  0
   38.2820   36.4150   39.9790 H   0  0  0  0  0  0  0  0  0  0  0  0
   40.6410   36.9900   40.2210 H   0  0  0  0  0  0  0  0  0  0  0  0
   38.8250   32.0270   40.5800 C   0  0  0  0  0  0  0  0  0  0  0  0
   38.7350   31.2990   41.6960 N   0  0  0  0  0  0  0  0  0  0  0  0
   38.1420   30.1140   41.7940 C   0  0  0  0  0  0  0  0  0  0  0  0
   37.5760   29.5510   40.7430 N   0  0  0  0  0  0  0  0  0  0  0  0
   37.6000   30.1880   39.5560 C   0  0  0  0  0  0  0  0  0  0  0  0
   37.0040   29.6020   38.4510 C   0  0  0  0  0  0  0  0  0  0  0  0
   37.0090   30.2180   37.2440 C   0  0  0  0  0  0  0  0  0  0  0  0
   37.6360   31.4740   37.1350 C   0  0  0  0  0  0  0  0  0  0  0  0
   38.2090   31.9980   38.2790 C   0  0  0  0  0  0  0  0  0  0  0  0
   38.2230   31.4100   39.5020 C   0  0  0  0  0  0  0  0  0  0  0  0
   38.1770   29.6870   42.7870 H   0  0  0  0  0  0  0  0  0  0  0  0
   36.5320   28.6350   38.5770 H   0  0  0  0  0  0  0  0  0  0  0  0
   36.5440   29.7600   36.3830 H   0  0  0  0  0  0  0  0  0  0  0  0
   37.6520   31.9820   36.1880 H   0  0  0  0  0  0  0  0  0  0  0  0
   38.6920   32.9800   38.1650 H   0  0  0  0  0  0  0  0  0  0  0  0
   42.5370   35.1500   40.6940 O   0  0  0  0  0  0  0  0  0  0  0  0
   43.2410   35.0040   41.9160 C   0  0  2  0  0  0  0  0  0  0  0  0
   42.7860   34.2050   42.5050 H   0  0  0  0  0  0  0  0  0  0  0  0
   43.0020   36.2800   42.7490 C   0  0  0  0  0  0  0  0  0  0  0  0
   43.5500   37.1380   42.3580 H   0  0  0  0  0  0  0  0  0  0  0  0
   41.9090   36.4330   42.7810 H   0  0  0  0  0  0  0  0  0  0  0  0
   43.3230   36.0240   43.7790 H   0  0  0  0  0  0  0  0  0  0  0  0
   44.7150   34.8440   41.6500 C   0  0  0  0  0  0  0  0  0  0  0  0
   45.2280   35.8010   41.5010 H   0  0  0  0  0  0  0  0  0  0  0  0
   44.9130   34.1210   40.8340 H   0  0  0  0  0  0  0  0  0  0  0  0
   45.2830   34.2420   42.9120 C   0  0  0  0  0  0  0  0  0  0  0  0
   46.5530   34.5270   43.4240 C   0  0  0  0  0  0  0  0  0  0  0  0
   46.7000   33.7790   44.5920 C   0  0  0  0  0  0  0  0  0  0  0  0
   45.5040   33.0810   44.7160 C   0  0  0  0  0  0  0  0  0  0  0  0
   45.3600   32.4150   45.5560 H   0  0  0  0  0  0  0  0  0  0  0  0
   44.7230   33.3790   43.7310 O   0  0  0  0  0  0  0  0  0  0  0  0
  1  6  2  0  0  0  0
  1  2  1  0  0  0  0
  2  3  2  0  0  0  0
  3  4  1  0  0  0  0
  3 24  1  0  0  0  0
  5  9  1  0  0  0  0
  5  4  2  0  0  0  0
  6  5  1  0  0  0  0
  7  1  1  0  0  0  0
  8  2  1  0  0  0  0
  9 10  1  0  0  0  0
 10 11  2  0  0  0  0
 11 19  1  0  0  0  0
 12 11  1  0  0  0  0
 13 12  2  0  0  0  0
 14 20  1  0  0  0  0
 14 13  1  0  0  0  0
 15 14  2  0  0  0  0
 16 15  1  0  0  0  0
 16 17  2  0  0  0  0
 17 18  1  0  0  0  0
 18 13  1  0  0  0  0
 18  9  2  0  0  0  0
 21 15  1  0  0  0  0
 22 16  1  0  0  0  0
 23 17  1  0  0  0  0
 24 25  1  0  0  0  0
 25 26  1  1  0  0  0
 25 27  1  0  0  0  0
 27 29  1  0  0  0  0
 27 30  1  0  0  0  0
 28 27  1  0  0  0  0
 31 25  1  0  0  0  0
 31 34  1  0  0  0  0
 32 31  1  0  0  0  0
 33 31  1  0  0  0  0
 34 35  2  0  0  0  0
 34 39  1  0  0  0  0
 35 36  1  0  0  0  0
 36 37  2  0  0  0  0
 37 38  1  0  0  0  0
 39 37  1  0  0  0  0
M  END
>  <minimizedAffinity>
-5.96207333

>  <minimizedRMSD>
1.38152671

$$$$
