
 OpenBabel03242509233D

 48 53  0  0  0  0  0  0  0  0999 V2000
   38.1700   29.0000   37.5700 C   0  0  0  0  0  0  0  0  0  0  0  0
   39.4880   29.1860   37.2120 C   0  0  0  0  0  0  0  0  0  0  0  0
   40.3980   28.2140   36.8960 C   0  0  0  0  0  0  0  0  0  0  0  0
   39.9990   26.8900   36.9250 C   0  0  0  0  0  0  0  0  0  0  0  0
   38.6950   26.6280   37.2750 C   0  0  0  0  0  0  0  0  0  0  0  0
   38.3590   25.2940   37.2920 C   0  0  0  0  0  0  0  0  0  0  0  0
   37.1000   24.9180   37.6270 C   0  0  0  0  0  0  0  0  0  0  0  0
   36.1870   25.8970   37.9420 C   0  0  0  0  0  0  0  0  0  0  0  0
   36.5640   27.2240   37.9130 C   0  0  0  0  0  0  0  0  0  0  0  0
   37.8170   27.6450   37.5840 C   0  0  0  0  0  0  0  0  0  0  0  0
   39.8280   30.2120   37.1850 H   0  0  0  0  0  0  0  0  0  0  0  0
   41.4180   28.4920   36.6270 H   0  0  0  0  0  0  0  0  0  0  0  0
   40.7350   26.1630   36.6730 H   0  0  0  0  0  0  0  0  0  0  0  0
   39.0800   24.5250   37.0430 H   0  0  0  0  0  0  0  0  0  0  0  0
   36.8630   23.8500   37.6320 H   0  0  0  0  0  0  0  0  0  0  0  0
   35.2010   25.4830   38.1980 H   0  0  0  0  0  0  0  0  0  0  0  0
   35.4250   28.0070   38.2530 N   0  0  0  0  0  0  0  0  0  0  0  0
   34.7760   28.5800   39.2960 C   0  0  0  0  0  3  0  0  0  0  0  0
   33.6170   29.1600   38.9530 N   0  0  0  0  0  0  0  0  0  0  0  0
   33.4230   29.0030   37.6340 C   0  0  0  0  0  0  0  0  0  0  0  0
   32.3960   29.4190   36.8460 C   0  0  0  0  0  0  0  0  0  0  0  0
   31.5770   29.9660   37.2850 H   0  0  0  0  0  0  0  0  0  0  0  0
   32.4930   29.1010   35.5350 N   0  0  0  0  0  0  0  0  0  0  0  0
   33.5460   28.4150   35.0600 C   0  0  0  0  0  3  0  0  0  0  0  0
   34.5250   28.0300   35.8710 N   0  0  0  0  0  0  0  0  0  0  0  0
   34.5400   28.2920   37.2120 C   0  0  0  0  0  0  0  0  0  0  0  0
   37.1630   30.0120   37.9040 C   0  0  0  0  0  0  0  0  0  0  0  0
   37.0870   30.7080   37.0990 H   0  0  0  0  0  0  0  0  0  0  0  0
   36.2720   29.5840   38.3920 H   0  0  0  0  0  0  0  0  0  0  0  0
   37.5890   30.9420   39.0210 C   0  0  0  0  0  0  0  0  0  0  0  0
   38.4480   31.5640   38.7350 H   0  0  0  0  0  0  0  0  0  0  0  0
   36.7760   31.6930   39.2530 H   0  0  0  0  0  0  0  0  0  0  0  0
   38.5770   29.1460   41.9080 C   0  0  0  0  0  0  0  0  0  0  0  0
   37.3830   29.6870   42.3370 C   0  0  0  0  0  0  0  0  0  0  0  0
   36.9020   30.4220   41.2600 C   0  0  0  0  0  0  0  0  0  0  0  0
   37.8180   30.2820   40.2610 N   0  0  0  0  0  0  0  0  0  0  0  0
   38.7830   29.5410   40.6510 N   0  0  0  0  0  0  0  0  0  0  0  0
   36.9590   29.5320   43.3270 H   0  0  0  0  0  0  0  0  0  0  0  0
   35.9590   30.9350   41.3920 H   0  0  0  0  0  0  0  0  0  0  0  0
   39.8490   26.3980   44.0850 C   0  0  0  0  0  0  0  0  0  0  0  0
   38.9560   27.1700   43.3410 C   0  0  0  0  0  0  0  0  0  0  0  0
   39.4630   28.3120   42.6780 C   0  0  0  0  0  0  0  0  0  0  0  0
   40.7760   28.6190   42.7800 N   0  0  0  0  0  0  0  0  0  0  0  0
   41.6020   27.8180   43.5280 C   0  0  0  0  0  0  0  0  0  0  0  0
   41.1510   26.7370   44.1610 N   0  0  0  0  0  0  0  0  0  0  0  0
   39.3900   25.5430   44.5620 H   0  0  0  0  0  0  0  0  0  0  0  0
   37.9210   26.9610   43.2370 H   0  0  0  0  0  0  0  0  0  0  0  0
   42.6490   28.1050   43.5810 H   0  0  0  0  0  0  0  0  0  0  0  0
  1 10  1  0  0  0  0
  1 27  1  0  0  0  0
  2  1  2  0  0  0  0
  3  4  2  0  0  0  0
  3  2  1  0  0  0  0
  4  5  1  0  0  0  0
  5  6  2  0  0  0  0
  5 10  1  0  0  0  0
  6  7  1  0  0  0  0
  7 15  1  0  0  0  0
  7  8  2  0  0  0  0
  8 16  1  0  0  0  0
  9  8  1  0  0  0  0
  9 17  1  0  0  0  0
 10  9  2  0  0  0  0
 11  2  1  0  0  0  0
 12  3  1  0  0  0  0
 13  4  1  0  0  0  0
 14  6  1  0  0  0  0
 17 18  1  0  0  0  0
 19 18  2  0  0  0  0
 20 19  1  0  0  0  0
 21 22  1  0  0  0  0
 21 20  2  0  0  0  0
 23 21  1  0  0  0  0
 24 23  2  0  0  0  0
 24 25  1  0  0  0  0
 25 26  2  0  0  0  0
 26 20  1  0  0  0  0
 26 17  1  0  0  0  0
 27 29  1  0  0  0  0
 27 30  1  0  0  0  0
 28 27  1  0  0  0  0
 30 32  1  0  0  0  0
 30 36  1  0  0  0  0
 31 30  1  0  0  0  0
 33 34  1  0  0  0  0
 33 42  1  0  0  0  0
 34 38  1  0  0  0  0
 35 39  1  0  0  0  0
 35 34  2  0  0  0  0
 36 37  1  0  0  0  0
 36 35  1  0  0  0  0
 37 33  2  0  0  0  0
 40 45  1  0  0  0  0
 40 46  1  0  0  0  0
 41 40  2  0  0  0  0
 42 43  2  0  0  0  0
 42 41  1  0  0  0  0
 43 44  1  0  0  0  0
 44 48  1  0  0  0  0
 44 45  2  0  0  0  0
 47 41  1  0  0  0  0
M  END
>  <minimizedAffinity>
-5.06730795

>  <minimizedRMSD>
3.38028789

$$$$
