
 OpenBabel03242507443D

 46 50  0  0  0  0  0  0  0  0999 V2000
   41.5650   28.5110   43.2700 C   0  0  0  0  0  0  0  0  0  0  0  0
   40.9630   27.2560   43.5360 C   0  0  0  0  0  0  0  0  0  0  0  0
   39.7270   27.0220   42.9440 C   0  0  0  0  0  0  0  0  0  0  0  0
   39.1770   27.9670   42.1710 N   0  0  0  0  0  0  0  0  0  0  0  0
   39.7670   29.1450   41.9330 C   0  0  0  0  0  0  0  0  0  0  0  0
   40.9550   29.4220   42.4780 N   0  0  0  0  0  0  0  0  0  0  0  0
   39.0360   25.8270   43.1320 N   0  0  0  0  0  0  0  0  0  0  0  0
   39.1870   30.1620   41.1060 N   0  0  0  0  0  0  0  0  0  0  0  0
   38.0560   29.8410   40.4480 C   0  0  0  0  0  0  0  0  0  0  0  0
   37.3630   30.6870   39.6100 C   0  0  0  0  0  0  0  0  0  0  0  0
   37.8740   31.9420   39.4460 C   0  0  0  0  0  0  0  0  0  0  0  0
   37.3030   32.7760   38.6980 O   0  0  0  0  0  0  0  0  0  0  0  0
   39.0090   32.2490   40.1140 N   0  0  0  0  0  0  0  0  0  0  0  0
   39.6610   31.3980   40.9240 C   0  0  0  0  0  0  0  0  0  0  0  0
   40.7060   31.6820   41.5370 O   0  0  0  0  0  0  0  0  0  0  0  0
   42.5370   28.7410   43.7150 H   0  0  0  0  0  0  0  0  0  0  0  0
   41.4390   26.5180   44.1700 H   0  0  0  0  0  0  0  0  0  0  0  0
   37.9880   25.7580   43.0030 H   0  0  0  0  0  0  0  0  0  0  0  0
   39.5540   24.9580   43.4090 H   0  0  0  0  0  0  0  0  0  0  0  0
   37.6280   28.8410   40.5640 H   0  0  0  0  0  0  0  0  0  0  0  0
   39.5980   33.5430   39.9880 C   0  0  0  0  0  0  0  0  0  0  0  0
   39.0250   34.5940   40.6870 C   0  0  0  0  0  0  0  0  0  0  0  0
   39.5860   35.8450   40.5720 C   0  0  0  0  0  0  0  0  0  0  0  0
   40.6920   35.9980   39.7670 C   0  0  0  0  0  0  0  0  0  0  0  0
   41.2610   34.9700   39.0770 C   0  0  0  0  0  0  0  0  0  0  0  0
   40.7050   33.7000   39.1840 C   0  0  0  0  0  0  0  0  0  0  0  0
   38.1540   34.4200   41.3040 H   0  0  0  0  0  0  0  0  0  0  0  0
   39.1590   36.6760   41.1040 H   0  0  0  0  0  0  0  0  0  0  0  0
   41.1810   36.9440   39.6310 H   0  0  0  0  0  0  0  0  0  0  0  0
   42.1290   35.0090   38.4270 H   0  0  0  0  0  0  0  0  0  0  0  0
   41.1040   32.8410   38.6660 H   0  0  0  0  0  0  0  0  0  0  0  0
   36.1220   30.2400   38.9250 C   0  0  0  0  0  0  0  0  0  0  0  0
   35.5710   31.1530   38.6190 H   0  0  0  0  0  0  0  0  0  0  0  0
   35.5390   29.5900   39.6090 H   0  0  0  0  0  0  0  0  0  0  0  0
   36.5630   29.4380   37.7370 C   0  0  0  0  0  0  0  0  0  0  0  0
   37.8750   29.2050   37.4580 N   0  0  0  0  0  0  0  0  0  0  0  0
   38.2690   28.4840   36.3860 C   0  0  0  0  0  0  0  0  0  0  0  0
   37.3740   27.9670   35.5560 N   0  0  0  0  0  0  0  0  0  0  0  0
   36.0520   28.1420   35.7480 C   0  0  0  0  0  0  0  0  0  0  0  0
   35.1330   27.5970   34.8790 C   0  0  0  0  0  0  0  0  0  0  0  0
   33.8010   27.8160   35.1430 C   0  0  0  0  0  0  0  0  0  0  0  0
   33.0950   27.3880   34.4560 H   0  0  0  0  0  0  0  0  0  0  0  0
   33.3690   28.5530   36.2320 C   0  0  0  0  0  0  0  0  0  0  0  0
   32.3080   28.7160   36.4270 H   0  0  0  0  0  0  0  0  0  0  0  0
   34.2990   29.1000   37.1060 C   0  0  0  0  0  0  0  0  0  0  0  0
   35.6480   28.8870   36.8530 C   0  0  0  0  0  0  0  0  0  0  0  0
  1  2  1  0  0  0  0
  1 16  1  0  0  0  0
  2 17  1  0  0  0  0
  3  7  1  0  0  0  0
  3  2  2  0  0  0  0
  4  3  1  0  0  0  0
  5  4  2  0  0  0  0
  5  6  1  0  0  0  0
  6  1  2  0  0  0  0
  7 19  1  0  0  0  0
  8  5  1  0  0  0  0
  9 20  1  0  0  0  0
  9  8  1  0  0  0  0
 10  9  2  0  0  0  0
 11 10  1  0  0  0  0
 11 13  1  0  0  0  0
 12 11  2  0  0  0  0
 13 14  1  0  0  0  0
 14  8  1  0  0  0  0
 14 15  2  0  0  0  0
 18  7  1  0  0  0  0
 21 13  1  0  0  0  0
 21 22  1  0  0  0  0
 22 27  1  0  0  0  0
 23 22  2  0  0  0  0
 23 28  1  0  0  0  0
 24 23  1  0  0  0  0
 25 26  1  0  0  0  0
 25 24  2  0  0  0  0
 26 21  2  0  0  0  0
 29 24  1  0  0  0  0
 30 25  1  0  0  0  0
 31 26  1  0  0  0  0
 32 34  1  0  0  0  0
 32 10  1  0  0  0  0
 33 32  1  0  0  0  0
 35 32  1  0  0  0  0
 36 35  1  0  0  0  0
 37 36  2  0  0  0  0
 38 39  2  0  0  0  0
 38 37  1  0  0  0  0
 39 46  1  0  0  0  0
 40 41  2  0  0  0  0
 40 39  1  0  0  0  0
 41 43  1  0  0  0  0
 42 41  1  0  0  0  0
 43 44  1  0  0  0  0
 43 45  2  0  0  0  0
 46 45  1  0  0  0  0
 46 35  2  0  0  0  0
M  END
>  <minimizedAffinity>
-6.82865572

>  <minimizedRMSD>
1.89356852

$$$$
