
 OpenBabel03242508063D

 43 47  0  0  1  0  0  0  0  0999 V2000
   37.5150   30.6260   38.4510 N   0  0  0  0  0  0  0  0  0  0  0  0
   37.5250   32.0570   38.1620 C   0  0  0  0  0  0  0  0  0  0  0  0
   37.1620   32.7050   39.4860 C   0  0  0  0  0  0  0  0  0  0  0  0
   36.7480   31.5870   40.3660 C   0  0  0  0  0  0  0  0  0  0  0  0
   36.5220   30.4490   39.4580 C   0  0  2  0  0  0  0  0  0  0  0  0
   38.5150   32.4300   37.8570 H   0  0  0  0  0  0  0  0  0  0  0  0
   36.7850   32.2750   37.3650 H   0  0  0  0  0  0  0  0  0  0  0  0
   36.3940   33.4570   39.2480 H   0  0  0  0  0  0  0  0  0  0  0  0
   38.0260   33.2510   39.9080 H   0  0  0  0  0  0  0  0  0  0  0  0
   35.7190   31.8790   40.7070 H   0  0  0  0  0  0  0  0  0  0  0  0
   37.2560   31.4240   41.3110 H   0  0  0  0  0  0  0  0  0  0  0  0
   35.4940   30.3840   39.0350 H   0  0  0  0  0  0  0  0  0  0  0  0
   37.8250   28.7610   36.9040 C   0  0  0  0  0  0  0  0  0  0  0  0
   38.2950   29.6340   37.8800 C   0  0  0  0  0  0  0  0  0  0  0  0
   39.6390   29.4850   38.2950 C   0  0  0  0  0  0  0  0  0  0  0  0
   40.4050   28.5190   37.7430 N   0  0  0  0  0  0  0  0  0  0  0  0
   39.9040   27.6820   36.7870 C   0  0  0  0  0  0  0  0  0  0  0  0
   38.6220   27.8050   36.3730 N   0  0  0  0  0  0  0  0  0  0  0  0
   36.5320   28.6960   36.3230 N   0  0  0  0  0  0  0  0  0  0  0  0
   35.2350   29.2920   36.4420 C   0  0  0  0  0  0  0  0  0  0  0  0
   34.5390   28.9750   35.1160 C   0  0  0  0  0  0  0  0  0  0  0  0
   35.0600   27.6150   34.7920 C   0  0  0  0  0  0  0  0  0  0  0  0
   36.4790   27.6850   35.2500 C   0  0  0  0  0  0  0  0  0  0  0  0
   39.9910   30.1580   39.0440 H   0  0  0  0  0  0  0  0  0  0  0  0
   40.5910   26.9450   36.4080 H   0  0  0  0  0  0  0  0  0  0  0  0
   35.1390   30.3420   36.4870 H   0  0  0  0  0  0  0  0  0  0  0  0
   34.6910   28.7120   37.2160 H   0  0  0  0  0  0  0  0  0  0  0  0
   34.8880   29.6990   34.3360 H   0  0  0  0  0  0  0  0  0  0  0  0
   33.4560   28.9720   35.2510 H   0  0  0  0  0  0  0  0  0  0  0  0
   34.4850   26.7730   35.1800 H   0  0  0  0  0  0  0  0  0  0  0  0
   35.0700   27.5390   33.6640 H   0  0  0  0  0  0  0  0  0  0  0  0
   37.1790   27.8930   34.4420 H   0  0  0  0  0  0  0  0  0  0  0  0
   36.7180   26.6700   35.6820 H   0  0  0  0  0  0  0  0  0  0  0  0
   36.7730   29.2080   40.1750 N   0  0  0  0  0  0  0  0  0  0  0  0
   36.2080   27.9950   40.0420 C   0  0  0  0  0  0  0  0  0  0  0  0
   36.7270   27.1110   40.9030 N   0  0  0  0  0  0  0  0  0  0  0  0
   37.6630   27.7440   41.6330 C   0  0  0  0  0  0  0  0  0  0  0  0
   38.4560   27.2500   42.6340 C   0  0  0  0  0  0  0  0  0  0  0  0
   38.3670   26.1950   42.9310 H   0  0  0  0  0  0  0  0  0  0  0  0
   39.3200   28.0880   43.2130 N   0  0  0  0  0  0  0  0  0  0  0  0
   39.3650   29.3770   42.7840 C   0  0  0  0  0  0  0  0  0  0  0  0
   38.5670   29.8520   41.7850 N   0  0  0  0  0  0  0  0  0  0  0  0
   37.6820   29.0520   41.1700 C   0  0  0  0  0  0  0  0  0  0  0  0
  1  5  1  0  0  0  0
  2  1  1  0  0  0  0
  2  3  1  0  0  0  0
  3  9  1  0  0  0  0
  3  4  1  0  0  0  0
  4 10  1  0  0  0  0
  4 11  1  0  0  0  0
  5 12  1  6  0  0  0
  5 34  1  0  0  0  0
  5  4  1  0  0  0  0
  6  2  1  0  0  0  0
  7  2  1  0  0  0  0
  8  3  1  0  0  0  0
 13 14  1  0  0  0  0
 14 15  2  0  0  0  0
 14  1  1  0  0  0  0
 15 24  1  0  0  0  0
 16 15  1  0  0  0  0
 17 16  2  0  0  0  0
 18 17  1  0  0  0  0
 18 13  2  0  0  0  0
 19 20  1  0  0  0  0
 19 13  1  0  0  0  0
 20 26  1  0  0  0  0
 20 27  1  0  0  0  0
 21 29  1  0  0  0  0
 21 20  1  0  0  0  0
 22 21  1  0  0  0  0
 22 30  1  0  0  0  0
 22 23  1  0  0  0  0
 23 33  1  0  0  0  0
 23 19  1  0  0  0  0
 25 17  1  0  0  0  0
 28 21  1  0  0  0  0
 31 22  1  0  0  0  0
 32 23  1  0  0  0  0
 34 43  1  0  0  0  0
 35 34  1  0  0  0  0
 35 36  2  0  0  0  0
 36 37  1  0  0  0  0
 37 38  1  0  0  0  0
 38 39  1  0  0  0  0
 38 40  2  0  0  0  0
 41 40  1  0  0  0  0
 42 41  2  0  0  0  0
 43 37  2  0  0  0  0
 43 42  1  0  0  0  0
M  END
>  <minimizedAffinity>
-5.19365549

>  <minimizedRMSD>
4.87602758

$$$$
