
 OpenBabel03242509253D

 49 54  0  0  0  0  0  0  0  0999 V2000
   38.6060   28.1540   42.6950 C   0  0  0  0  0  0  0  0  0  0  0  0
   37.5310   27.3080   42.7870 C   0  0  0  0  0  0  0  0  0  0  0  0
   36.4590   27.9620   42.1760 C   0  0  0  0  0  0  0  0  0  0  0  0
   36.9670   29.1320   41.7730 N   0  0  0  0  0  0  0  0  0  0  0  0
   38.2190   29.2810   42.0580 N   0  0  0  0  0  0  0  0  0  0  0  0
   37.5870   26.3340   43.2580 H   0  0  0  0  0  0  0  0  0  0  0  0
   35.5050   27.4760   42.1340 H   0  0  0  0  0  0  0  0  0  0  0  0
   41.5410   26.5100   44.3060 C   0  0  0  0  0  0  0  0  0  0  0  0
   40.2350   26.7050   43.8360 C   0  0  0  0  0  0  0  0  0  0  0  0
   39.9480   27.9140   43.1900 C   0  0  0  0  0  0  0  0  0  0  0  0
   40.9180   28.8390   43.0400 N   0  0  0  0  0  0  0  0  0  0  0  0
   42.1750   28.6140   43.5090 C   0  0  0  0  0  0  0  0  0  0  0  0
   42.4770   27.4580   44.1360 N   0  0  0  0  0  0  0  0  0  0  0  0
   41.8480   25.6090   44.8150 H   0  0  0  0  0  0  0  0  0  0  0  0
   39.4910   25.9190   43.9860 H   0  0  0  0  0  0  0  0  0  0  0  0
   43.0570   29.7060   43.2560 N   0  0  0  0  0  0  0  0  0  0  0  0
   42.6870   30.7640   42.4880 C   0  0  0  0  0  3  0  0  0  0  0  0
   43.6750   31.6940   42.3740 N   0  0  0  0  0  0  0  0  0  0  0  0
   44.7080   31.1960   43.1020 C   0  0  0  0  0  0  0  0  0  0  0  0
   45.9950   31.5820   43.4280 C   0  0  0  0  0  0  0  0  0  0  0  0
   46.3450   32.5350   43.0280 H   0  0  0  0  0  0  0  0  0  0  0  0
   46.7920   30.8360   44.2000 N   0  0  0  0  0  0  0  0  0  0  0  0
   46.3760   29.6510   44.7060 C   0  0  0  0  0  3  0  0  0  0  0  0
   45.1180   29.2160   44.4190 N   0  0  0  0  0  0  0  0  0  0  0  0
   44.3190   29.9840   43.6350 C   0  0  0  0  0  0  0  0  0  0  0  0
   36.1220   30.0620   41.1030 C   0  0  0  0  0  0  0  0  0  0  0  0
   36.7230   30.8800   40.6540 H   0  0  0  0  0  0  0  0  0  0  0  0
   35.5110   30.5550   41.9140 H   0  0  0  0  0  0  0  0  0  0  0  0
   35.2420   29.4890   40.0380 C   0  0  0  0  0  0  0  0  0  0  0  0
   34.5230   30.3700   39.9210 H   0  0  0  0  0  0  0  0  0  0  0  0
   34.7750   28.5830   40.4010 H   0  0  0  0  0  0  0  0  0  0  0  0
   35.8620   29.4180   38.7000 C   0  0  0  0  0  0  0  0  0  0  0  0
   37.1880   29.5560   38.3850 C   0  0  0  0  0  0  0  0  0  0  0  0
   37.7160   29.5480   37.1250 C   0  0  0  0  0  0  0  0  0  0  0  0
   36.8780   29.3900   36.0420 C   0  0  0  0  0  0  0  0  0  0  0  0
   35.5200   29.2430   36.2930 C   0  0  0  0  0  0  0  0  0  0  0  0
   34.7440   29.0910   35.1650 C   0  0  0  0  0  0  0  0  0  0  0  0
   33.4050   28.9380   35.3160 C   0  0  0  0  0  0  0  0  0  0  0  0
   32.8400   28.9350   36.5690 C   0  0  0  0  0  0  0  0  0  0  0  0
   33.6760   29.0910   37.6480 C   0  0  0  0  0  0  0  0  0  0  0  0
   35.0200   29.2540   37.5830 C   0  0  0  0  0  0  0  0  0  0  0  0
   37.8590   29.6810   39.2270 H   0  0  0  0  0  0  0  0  0  0  0  0
   38.7840   29.6670   37.0120 H   0  0  0  0  0  0  0  0  0  0  0  0
   37.3090   29.3870   35.0500 H   0  0  0  0  0  0  0  0  0  0  0  0
   35.1500   29.0870   34.1700 H   0  0  0  0  0  0  0  0  0  0  0  0
   32.7660   28.8170   34.4350 H   0  0  0  0  0  0  0  0  0  0  0  0
   31.7740   28.8110   36.6770 H   0  0  0  0  0  0  0  0  0  0  0  0
   33.0530   29.0660   38.8890 O   0  0  0  0  0  0  0  0  0  0  0  0
   32.4830   28.3320   39.2510 H   0  0  0  0  0  0  0  0  0  0  0  0
  1  2  1  0  0  0  0
  1 10  1  0  0  0  0
  2  6  1  0  0  0  0
  3  2  2  0  0  0  0
  4  5  1  0  0  0  0
  4  3  1  0  0  0  0
  5  1  2  0  0  0  0
  7  3  1  0  0  0  0
  8 14  1  0  0  0  0
  9 15  1  0  0  0  0
  9  8  2  0  0  0  0
 10  9  1  0  0  0  0
 11 10  2  0  0  0  0
 11 12  1  0  0  0  0
 12 13  2  0  0  0  0
 13  8  1  0  0  0  0
 16 12  1  0  0  0  0
 16 25  1  0  0  0  0
 17 16  1  0  0  0  0
 18 17  2  0  0  0  0
 18 19  1  0  0  0  0
 19 20  2  0  0  0  0
 19 25  1  0  0  0  0
 20 22  1  0  0  0  0
 21 20  1  0  0  0  0
 22 23  2  0  0  0  0
 24 23  1  0  0  0  0
 25 24  2  0  0  0  0
 26  4  1  0  0  0  0
 26 28  1  0  0  0  0
 27 26  1  0  0  0  0
 29 31  1  0  0  0  0
 29 26  1  0  0  0  0
 30 29  1  0  0  0  0
 32 29  1  0  0  0  0
 33 32  1  0  0  0  0
 33 42  1  0  0  0  0
 34 33  2  0  0  0  0
 35 36  2  0  0  0  0
 35 34  1  0  0  0  0
 36 41  1  0  0  0  0
 37 38  2  0  0  0  0
 37 36  1  0  0  0  0
 38 39  1  0  0  0  0
 39 47  1  0  0  0  0
 39 40  2  0  0  0  0
 40 48  1  0  0  0  0
 41 40  1  0  0  0  0
 41 32  2  0  0  0  0
 43 34  1  0  0  0  0
 44 35  1  0  0  0  0
 45 37  1  0  0  0  0
 46 38  1  0  0  0  0
 48 49  1  0  0  0  0
M  END
>  <minimizedAffinity>
-6.45964622

>  <minimizedRMSD>
0.33266896

$$$$
