
 OpenBabel03242509313D

 22 24  0  0  0  0  0  0  0  0999 V2000
   38.0410   28.5120   43.6110 C   0  0  0  0  0  0  0  0  0  0  0  0
   38.5040   27.1660   43.5970 C   0  0  0  0  0  0  0  0  0  0  0  0
   38.1450   26.3870   42.4990 C   0  0  0  0  0  0  0  0  0  0  0  0
   37.3690   26.9640   41.5030 N   0  0  0  0  0  0  0  0  0  0  0  0
   36.9630   28.2430   41.5740 C   0  0  0  0  0  0  0  0  0  0  0  0
   37.2990   29.0040   42.6200 N   0  0  0  0  0  0  0  0  0  0  0  0
   38.2880   29.1670   44.4380 H   0  0  0  0  0  0  0  0  0  0  0  0
   39.0980   26.8060   44.4110 H   0  0  0  0  0  0  0  0  0  0  0  0
   36.1890   28.5550   40.4190 N   0  0  0  0  0  0  0  0  0  0  0  0
   34.9340   29.0340   40.3290 C   0  0  0  0  0  3  0  0  0  0  0  0
   34.6510   29.1630   39.0140 N   0  0  0  0  0  0  0  0  0  0  0  0
   35.7250   28.7640   38.3030 C   0  0  0  0  0  0  0  0  0  0  0  0
   35.9060   28.7170   36.9180 C   0  0  0  0  0  0  0  0  0  0  0  0
   35.1260   29.0250   36.2350 H   0  0  0  0  0  0  0  0  0  0  0  0
   37.0990   28.2690   36.4820 N   0  0  0  0  0  0  0  0  0  0  0  0
   38.0520   27.8920   37.3750 C   0  0  0  0  0  3  0  0  0  0  0  0
   37.9030   27.9290   38.7100 N   0  0  0  0  0  0  0  0  0  0  0  0
   36.7270   28.3700   39.1910 C   0  0  0  0  0  0  0  0  0  0  0  0
   38.6020   24.9680   42.4340 C   0  0  0  0  0  0  0  0  0  0  0  0
   39.2550   24.8360   41.2280 F   0  0  0  0  0  0  0  0  0  0  0  0
   39.4540   24.6520   43.4450 F   0  0  0  0  0  0  0  0  0  0  0  0
   37.5110   24.0900   42.4350 F   0  0  0  0  0  0  0  0  0  0  0  0
  1  7  1  0  0  0  0
  2  1  1  0  0  0  0
  2  8  1  0  0  0  0
  3  2  2  0  0  0  0
  4  5  2  0  0  0  0
  4  3  1  0  0  0  0
  5  6  1  0  0  0  0
  6  1  2  0  0  0  0
  9  5  1  0  0  0  0
 10  9  1  0  0  0  0
 11 10  2  0  0  0  0
 12 11  1  0  0  0  0
 12 18  1  0  0  0  0
 13 12  2  0  0  0  0
 14 13  1  0  0  0  0
 15 13  1  0  0  0  0
 15 16  2  0  0  0  0
 16 17  1  0  0  0  0
 17 18  2  0  0  0  0
 18  9  1  0  0  0  0
 19 22  1  0  0  0  0
 19  3  1  0  0  0  0
 19 21  1  0  0  0  0
 20 19  1  0  0  0  0
M  END
>  <minimizedAffinity>
-4.72078133

>  <minimizedRMSD>
1.04176366

$$$$
