
 OpenBabel03242508263D

 25 28  0  0  0  0  0  0  0  0999 V2000
   36.6110   31.0220   40.1940 C   0  0  0  0  0  0  0  0  0  0  0  0
   36.7590   31.2020   38.8510 N   0  0  0  0  0  0  0  0  0  0  0  0
   37.4990   32.2620   38.6560 O   0  0  0  0  0  0  0  0  0  0  0  0
   37.8240   32.7580   39.8310 C   0  0  0  0  0  0  0  0  0  0  0  0
   37.2870   32.0110   40.8010 N   0  0  0  0  0  0  0  0  0  0  0  0
   38.6280   33.9200   40.0230 N   0  0  0  0  0  0  0  0  0  0  0  0
   38.2310   35.1980   39.8740 C   0  0  0  0  0  0  0  0  0  0  0  0
   39.2470   36.0690   40.1360 N   0  0  0  0  0  0  0  0  0  0  0  0
   40.2980   35.2910   40.4550 C   0  0  0  0  0  0  0  0  0  0  0  0
   41.6180   35.5310   40.8210 C   0  0  0  0  0  0  0  0  0  0  0  0
   41.9840   36.5490   40.8950 H   0  0  0  0  0  0  0  0  0  0  0  0
   42.4690   34.5290   41.0910 N   0  0  0  0  0  0  0  0  0  0  0  0
   42.0710   33.2450   41.0170 C   0  0  0  0  0  0  0  0  0  0  0  0
   40.7900   32.9450   40.6640 N   0  0  0  0  0  0  0  0  0  0  0  0
   39.9210   33.9600   40.3870 C   0  0  0  0  0  0  0  0  0  0  0  0
   35.9180   30.0420   40.8980 O   0  0  0  0  0  0  0  0  0  0  0  0
   37.9300   28.1720   43.2770 C   0  0  0  0  0  0  0  0  0  0  0  0
   37.8550   26.9040   42.6910 C   0  0  0  0  0  0  0  0  0  0  0  0
   37.1080   26.7750   41.5000 C   0  0  0  0  0  0  0  0  0  0  0  0
   36.5000   27.8920   40.9870 N   0  0  0  0  0  0  0  0  0  0  0  0
   36.6120   29.0820   41.5990 C   0  0  0  0  0  0  0  0  0  0  0  0
   37.3170   29.2330   42.7360 N   0  0  0  0  0  0  0  0  0  0  0  0
   38.5030   28.2730   44.1900 H   0  0  0  0  0  0  0  0  0  0  0  0
   38.3300   26.0140   43.0840 H   0  0  0  0  0  0  0  0  0  0  0  0
   37.0400   25.7980   41.0300 H   0  0  0  0  0  0  0  0  0  0  0  0
  1  5  1  0  0  0  0
  1 16  1  0  0  0  0
  2  1  2  0  0  0  0
  3  2  1  0  0  0  0
  3  4  1  0  0  0  0
  4  6  1  0  0  0  0
  4  5  2  0  0  0  0
  6 15  1  0  0  0  0
  7  6  1  0  0  0  0
  7  8  2  0  0  0  0
  8  9  1  0  0  0  0
  9 10  1  0  0  0  0
 10 11  1  0  0  0  0
 10 12  2  0  0  0  0
 13 12  1  0  0  0  0
 14 13  2  0  0  0  0
 15  9  2  0  0  0  0
 15 14  1  0  0  0  0
 16 21  1  0  0  0  0
 17 23  1  0  0  0  0
 18 24  1  0  0  0  0
 18 17  2  0  0  0  0
 19 18  1  0  0  0  0
 20 19  2  0  0  0  0
 20 21  1  0  0  0  0
 21 22  2  0  0  0  0
 22 17  1  0  0  0  0
 25 19  1  0  0  0  0
M  END
>  <minimizedAffinity>
-5.90908813

>  <minimizedRMSD>
1.39299381

$$$$
