
 OpenBabel03242509313D

 22 24  0  0  0  0  0  0  0  0999 V2000
   38.0160   28.5130   43.5450 C   0  0  0  0  0  0  0  0  0  0  0  0
   38.5370   27.1900   43.5730 C   0  0  0  0  0  0  0  0  0  0  0  0
   38.1640   26.3420   42.5330 C   0  0  0  0  0  0  0  0  0  0  0  0
   37.3200   26.8350   41.5480 N   0  0  0  0  0  0  0  0  0  0  0  0
   36.8610   28.0980   41.5770 C   0  0  0  0  0  0  0  0  0  0  0  0
   37.2080   28.9230   42.5680 N   0  0  0  0  0  0  0  0  0  0  0  0
   38.2700   29.2180   44.3270 H   0  0  0  0  0  0  0  0  0  0  0  0
   39.1830   26.8960   44.3750 H   0  0  0  0  0  0  0  0  0  0  0  0
   36.0220   28.3180   40.4460 N   0  0  0  0  0  0  0  0  0  0  0  0
   35.0100   29.1920   40.2840 C   0  0  0  0  0  3  0  0  0  0  0  0
   34.5280   29.0160   39.0340 N   0  0  0  0  0  0  0  0  0  0  0  0
   35.2410   28.0410   38.4330 C   0  0  0  0  0  0  0  0  0  0  0  0
   35.1130   27.5110   37.1460 C   0  0  0  0  0  0  0  0  0  0  0  0
   34.3630   27.8720   36.4570 H   0  0  0  0  0  0  0  0  0  0  0  0
   35.9740   26.5300   36.8110 N   0  0  0  0  0  0  0  0  0  0  0  0
   36.9040   26.1050   37.7080 C   0  0  0  0  0  3  0  0  0  0  0  0
   37.0460   26.5970   38.9500 N   0  0  0  0  0  0  0  0  0  0  0  0
   36.2070   27.5790   39.3270 C   0  0  0  0  0  0  0  0  0  0  0  0
   38.6810   24.9430   42.5140 C   0  0  0  0  0  0  0  0  0  0  0  0
   39.3470   24.8000   41.3160 F   0  0  0  0  0  0  0  0  0  0  0  0
   39.5390   24.6940   43.5390 F   0  0  0  0  0  0  0  0  0  0  0  0
   37.6280   24.0190   42.5360 F   0  0  0  0  0  0  0  0  0  0  0  0
  1  2  1  0  0  0  0
  1  7  1  0  0  0  0
  2  8  1  0  0  0  0
  3  2  2  0  0  0  0
  4  5  2  0  0  0  0
  4  3  1  0  0  0  0
  5  6  1  0  0  0  0
  6  1  2  0  0  0  0
  9  5  1  0  0  0  0
 10  9  1  0  0  0  0
 11 10  2  0  0  0  0
 12 11  1  0  0  0  0
 12 18  1  0  0  0  0
 13 12  2  0  0  0  0
 14 13  1  0  0  0  0
 15 13  1  0  0  0  0
 15 16  2  0  0  0  0
 16 17  1  0  0  0  0
 17 18  2  0  0  0  0
 18  9  1  0  0  0  0
 19  3  1  0  0  0  0
 19 22  1  0  0  0  0
 19 21  1  0  0  0  0
 20 19  1  0  0  0  0
M  END
>  <minimizedAffinity>
-4.87049484

>  <minimizedRMSD>
1.26103258

$$$$
