
 OpenBabel03242509313D

 22 24  0  0  0  0  0  0  0  0999 V2000
   38.0900   28.5270   43.5270 C   0  0  0  0  0  0  0  0  0  0  0  0
   38.5690   27.1880   43.5580 C   0  0  0  0  0  0  0  0  0  0  0  0
   38.1650   26.3490   42.5210 C   0  0  0  0  0  0  0  0  0  0  0  0
   37.3340   26.8660   41.5370 N   0  0  0  0  0  0  0  0  0  0  0  0
   36.9150   28.1430   41.5640 C   0  0  0  0  0  0  0  0  0  0  0  0
   37.2930   28.9590   42.5510 N   0  0  0  0  0  0  0  0  0  0  0  0
   38.3700   29.2260   44.3050 H   0  0  0  0  0  0  0  0  0  0  0  0
   39.2080   26.8760   44.3580 H   0  0  0  0  0  0  0  0  0  0  0  0
   36.0800   28.3870   40.4350 N   0  0  0  0  0  0  0  0  0  0  0  0
   34.9340   29.0880   40.3490 C   0  0  0  0  0  3  0  0  0  0  0  0
   34.5240   29.0260   39.0640 N   0  0  0  0  0  0  0  0  0  0  0  0
   35.4130   28.2900   38.3660 C   0  0  0  0  0  0  0  0  0  0  0  0
   35.4150   27.9500   37.0110 C   0  0  0  0  0  0  0  0  0  0  0  0
   34.6300   28.2780   36.3430 H   0  0  0  0  0  0  0  0  0  0  0  0
   36.4430   27.1920   36.5810 N   0  0  0  0  0  0  0  0  0  0  0  0
   37.4100   26.8010   37.4530 C   0  0  0  0  0  3  0  0  0  0  0  0
   37.4310   27.1150   38.7600 N   0  0  0  0  0  0  0  0  0  0  0  0
   36.4230   27.8690   39.2320 C   0  0  0  0  0  0  0  0  0  0  0  0
   38.6370   24.9340   42.5050 C   0  0  0  0  0  0  0  0  0  0  0  0
   39.2700   24.7590   41.2930 F   0  0  0  0  0  0  0  0  0  0  0  0
   39.5110   24.6680   43.5120 F   0  0  0  0  0  0  0  0  0  0  0  0
   37.5570   24.0450   42.5610 F   0  0  0  0  0  0  0  0  0  0  0  0
  1  2  1  0  0  0  0
  1  7  1  0  0  0  0
  2  8  1  0  0  0  0
  3  2  2  0  0  0  0
  4  5  2  0  0  0  0
  4  3  1  0  0  0  0
  5  6  1  0  0  0  0
  6  1  2  0  0  0  0
  9  5  1  0  0  0  0
 10  9  1  0  0  0  0
 11 10  2  0  0  0  0
 12 11  1  0  0  0  0
 12 18  1  0  0  0  0
 13 12  2  0  0  0  0
 14 13  1  0  0  0  0
 15 13  1  0  0  0  0
 15 16  2  0  0  0  0
 16 17  1  0  0  0  0
 17 18  2  0  0  0  0
 18  9  1  0  0  0  0
 19  3  1  0  0  0  0
 19 22  1  0  0  0  0
 19 21  1  0  0  0  0
 20 19  1  0  0  0  0
M  END
>  <minimizedAffinity>
-4.77681828

>  <minimizedRMSD>
1.16995656

$$$$
