
 OpenBabel03242509323D

 22 24  0  0  0  0  0  0  0  0999 V2000
   37.6080   28.8280   43.4480 C   0  0  0  0  0  0  0  0  0  0  0  0
   38.0400   27.4930   43.6770 C   0  0  0  0  0  0  0  0  0  0  0  0
   38.7980   26.8930   42.6740 C   0  0  0  0  0  0  0  0  0  0  0  0
   39.0810   27.6270   41.5300 N   0  0  0  0  0  0  0  0  0  0  0  0
   38.6440   28.8880   41.3730 C   0  0  0  0  0  0  0  0  0  0  0  0
   37.9150   29.4770   42.3250 N   0  0  0  0  0  0  0  0  0  0  0  0
   37.0160   29.3480   44.1910 H   0  0  0  0  0  0  0  0  0  0  0  0
   37.7730   27.0040   44.5910 H   0  0  0  0  0  0  0  0  0  0  0  0
   39.0840   29.3840   40.1110 N   0  0  0  0  0  0  0  0  0  0  0  0
   38.9420   30.6100   39.5720 C   0  0  0  0  0  3  0  0  0  0  0  0
   39.5310   30.5810   38.3570 N   0  0  0  0  0  0  0  0  0  0  0  0
   40.0310   29.3460   38.1520 C   0  0  0  0  0  0  0  0  0  0  0  0
   40.7220   28.8380   37.0490 C   0  0  0  0  0  0  0  0  0  0  0  0
   40.9360   29.4510   36.1830 H   0  0  0  0  0  0  0  0  0  0  0  0
   41.1080   27.5490   37.1190 N   0  0  0  0  0  0  0  0  0  0  0  0
   40.8200   26.8130   38.2250 C   0  0  0  0  0  3  0  0  0  0  0  0
   40.1570   27.2760   39.2990 N   0  0  0  0  0  0  0  0  0  0  0  0
   39.7530   28.5590   39.2710 C   0  0  0  0  0  0  0  0  0  0  0  0
   39.2760   25.4930   42.8620 C   0  0  0  0  0  0  0  0  0  0  0  0
   40.1980   25.2690   41.8630 F   0  0  0  0  0  0  0  0  0  0  0  0
   39.8690   25.3060   44.0720 F   0  0  0  0  0  0  0  0  0  0  0  0
   38.2280   24.5790   42.6970 F   0  0  0  0  0  0  0  0  0  0  0  0
  1  2  1  0  0  0  0
  1  7  1  0  0  0  0
  2  8  1  0  0  0  0
  3 19  1  0  0  0  0
  3  2  2  0  0  0  0
  4  3  1  0  0  0  0
  5  4  2  0  0  0  0
  5  6  1  0  0  0  0
  6  1  2  0  0  0  0
  9  5  1  0  0  0  0
 10  9  1  0  0  0  0
 11 10  2  0  0  0  0
 12 11  1  0  0  0  0
 12 18  1  0  0  0  0
 13 15  1  0  0  0  0
 13 12  2  0  0  0  0
 14 13  1  0  0  0  0
 15 16  2  0  0  0  0
 16 17  1  0  0  0  0
 18 17  2  0  0  0  0
 18  9  1  0  0  0  0
 19 21  1  0  0  0  0
 20 19  1  0  0  0  0
 22 19  1  0  0  0  0
M  END
>  <minimizedAffinity>
-4.19286776

>  <minimizedRMSD>
3.91261053

$$$$
