
 OpenBabel03242507213D

 24 26  0  0  0  0  0  0  0  0999 V2000
   36.7300   27.3560   43.0920 C   0  0  0  0  0  0  0  0  0  0  0  0
   35.7060   26.9320   43.1640 H   0  0  0  0  0  0  0  0  0  0  0  0
   37.1070   27.7460   44.0390 H   0  0  0  0  0  0  0  0  0  0  0  0
   37.5670   26.2620   42.5080 C   0  0  0  0  0  0  0  0  0  0  0  0
   37.0530   25.4130   41.5980 N   0  0  0  0  0  0  0  0  0  0  0  0
   37.7580   24.4130   41.0410 C   0  0  0  0  0  0  0  0  0  0  0  0
   39.0410   24.2490   41.4080 N   0  0  0  0  0  0  0  0  0  0  0  0
   39.6150   25.0640   42.3130 C   0  0  0  0  0  0  0  0  0  0  0  0
   40.9340   24.8750   42.6740 C   0  0  0  0  0  0  0  0  0  0  0  0
   41.5190   25.7150   43.6040 C   0  0  0  0  0  0  0  0  0  0  0  0
   42.5530   25.5540   43.8760 H   0  0  0  0  0  0  0  0  0  0  0  0
   40.7500   26.7230   44.1420 C   0  0  0  0  0  0  0  0  0  0  0  0
   41.2050   27.3820   44.8710 H   0  0  0  0  0  0  0  0  0  0  0  0
   39.4290   26.9400   43.8060 C   0  0  0  0  0  0  0  0  0  0  0  0
   38.8720   26.1020   42.8870 C   0  0  0  0  0  0  0  0  0  0  0  0
   37.3460   30.6120   41.2130 C   0  0  0  0  0  0  0  0  0  0  0  0
   37.5250   29.5670   42.1780 C   0  0  0  0  0  0  0  0  0  0  0  0
   36.6170   28.4910   42.1230 C   0  0  0  0  0  0  0  0  0  0  0  0
   35.6470   28.5210   41.1690 N   0  0  0  0  0  0  0  0  0  0  0  0
   35.5140   29.5220   40.2820 C   0  0  0  0  0  0  0  0  0  0  0  0
   36.3680   30.5580   40.3160 N   0  0  0  0  0  0  0  0  0  0  0  0
   38.0500   31.4310   41.2670 H   0  0  0  0  0  0  0  0  0  0  0  0
   38.3000   29.5840   42.9080 H   0  0  0  0  0  0  0  0  0  0  0  0
   34.6920   29.3620   39.6130 H   0  0  0  0  0  0  0  0  0  0  0  0
  1  2  1  0  0  0  0
  1  3  1  0  0  0  0
  4 15  1  0  0  0  0
  4  1  1  0  0  0  0
  5  4  2  0  0  0  0
  6  7  2  0  0  0  0
  6  5  1  0  0  0  0
  7  8  1  0  0  0  0
  8  9  2  0  0  0  0
  8 15  1  0  0  0  0
  9 10  1  0  0  0  0
 10 11  1  0  0  0  0
 10 12  2  0  0  0  0
 12 13  1  0  0  0  0
 14 12  1  0  0  0  0
 15 14  2  0  0  0  0
 16 22  1  0  0  0  0
 16 17  1  0  0  0  0
 17 23  1  0  0  0  0
 18 17  2  0  0  0  0
 18  1  1  0  0  0  0
 19 18  1  0  0  0  0
 20 21  1  0  0  0  0
 20 19  2  0  0  0  0
 21 16  2  0  0  0  0
 24 20  1  0  0  0  0
M  END
>  <minimizedAffinity>
-5.02516365

>  <minimizedRMSD>
1.90392375

$$$$
