
 OpenBabel03242508593D

 26 29  0  0  1  0  0  0  0  0999 V2000
   36.1430   30.5990   40.6990 C   0  0  1  0  0  0  0  0  0  0  0  0
   36.9220   31.8510   40.4390 C   0  0  0  0  0  0  0  0  0  0  0  0
   36.7520   30.8610   39.3460 C   0  0  1  0  0  0  0  0  0  0  0  0
   35.0440   30.5890   40.7890 H   0  0  0  0  0  0  0  0  0  0  0  0
   37.9280   31.9770   40.8440 H   0  0  0  0  0  0  0  0  0  0  0  0
   36.3210   32.7850   40.4610 H   0  0  0  0  0  0  0  0  0  0  0  0
   35.9840   31.1700   38.6040 H   0  0  0  0  0  0  0  0  0  0  0  0
   37.8170   30.0870   38.8220 N   0  0  0  0  0  0  0  0  0  0  0  0
   37.9410   28.7350   38.6770 C   0  0  0  0  0  0  0  0  0  0  0  0
   39.1340   28.4590   38.1310 N   0  0  0  0  0  0  0  0  0  0  0  0
   39.7820   29.6110   37.9220 C   0  0  0  0  0  0  0  0  0  0  0  0
   41.0280   29.9300   37.3920 C   0  0  0  0  0  0  0  0  0  0  0  0
   41.7010   29.1490   37.0410 H   0  0  0  0  0  0  0  0  0  0  0  0
   41.4270   31.2300   37.3020 N   0  0  0  0  0  0  0  0  0  0  0  0
   40.6060   32.2070   37.7300 C   0  0  0  0  0  0  0  0  0  0  0  0
   39.3920   31.9030   38.2470 N   0  0  0  0  0  0  0  0  0  0  0  0
   38.9610   30.6270   38.3520 C   0  0  0  0  0  0  0  0  0  0  0  0
   38.5430   29.1110   43.0490 C   0  0  0  0  0  0  0  0  0  0  0  0
   38.0210   27.8140   43.2550 C   0  0  0  0  0  0  0  0  0  0  0  0
   36.8320   27.4800   42.5590 C   0  0  0  0  0  0  0  0  0  0  0  0
   36.2530   28.4000   41.7370 N   0  0  0  0  0  0  0  0  0  0  0  0
   36.8190   29.6360   41.5910 C   0  0  0  0  0  0  0  0  0  0  0  0
   37.9540   29.9780   42.2460 N   0  0  0  0  0  0  0  0  0  0  0  0
   39.4480   29.3030   43.6080 H   0  0  0  0  0  0  0  0  0  0  0  0
   38.4730   27.0800   43.9030 H   0  0  0  0  0  0  0  0  0  0  0  0
   36.4250   26.4890   42.7100 H   0  0  0  0  0  0  0  0  0  0  0  0
  1  4  1  1  0  0  0
  1 22  1  0  0  0  0
  2  6  1  0  0  0  0
  2  1  1  0  0  0  0
  2  5  1  0  0  0  0
  3  7  1  6  0  0  0
  3  2  1  0  0  0  0
  3  1  1  0  0  0  0
  8  3  1  0  0  0  0
  9  8  1  0  0  0  0
 10  9  2  0  0  0  0
 11 10  1  0  0  0  0
 11 17  1  0  0  0  0
 12 11  2  0  0  0  0
 13 12  1  0  0  0  0
 14 12  1  0  0  0  0
 14 15  2  0  0  0  0
 15 16  1  0  0  0  0
 16 17  2  0  0  0  0
 17  8  1  0  0  0  0
 18 19  1  0  0  0  0
 18 24  1  0  0  0  0
 19 25  1  0  0  0  0
 20 26  1  0  0  0  0
 20 19  2  0  0  0  0
 21 20  1  0  0  0  0
 22 21  2  0  0  0  0
 22 23  1  0  0  0  0
 23 18  2  0  0  0  0
M  END
>  <minimizedAffinity>
-4.58805513

>  <minimizedRMSD>
2.09749079

$$$$
