
 OpenBabel03242507293D

 36 40  0  0  0  0  0  0  0  0999 V2000
   36.5980   28.0130   42.0220 C   0  0  0  0  0  0  0  0  0  0  0  0
   36.1570   28.0630   43.0370 H   0  0  0  0  0  0  0  0  0  0  0  0
   35.8640   28.3910   41.3020 H   0  0  0  0  0  0  0  0  0  0  0  0
   40.1450   29.2000   42.7060 C   0  0  0  0  0  0  0  0  0  0  0  0
   38.9830   28.3880   42.6780 C   0  0  0  0  0  0  0  0  0  0  0  0
   37.8260   28.8420   42.0650 C   0  0  0  0  0  0  0  0  0  0  0  0
   37.8590   30.0760   41.5050 N   0  0  0  0  0  0  0  0  0  0  0  0
   38.9830   30.8510   41.5370 C   0  0  0  0  0  0  0  0  0  0  0  0
   40.0780   30.4150   42.1200 N   0  0  0  0  0  0  0  0  0  0  0  0
   40.9620   28.7320   43.2080 H   0  0  0  0  0  0  0  0  0  0  0  0
   38.9130   27.4020   43.1100 H   0  0  0  0  0  0  0  0  0  0  0  0
   39.0300   32.1490   40.9520 N   0  0  0  0  0  0  0  0  0  0  0  0
   37.8690   32.6980   40.5000 C   0  0  0  0  0  0  0  0  0  0  0  0
   38.0840   33.9370   39.9700 N   0  0  0  0  0  0  0  0  0  0  0  0
   39.4050   34.1710   40.0920 C   0  0  0  0  0  0  0  0  0  0  0  0
   40.3000   35.1910   39.7800 C   0  0  0  0  0  0  0  0  0  0  0  0
   39.8970   36.0750   39.3070 H   0  0  0  0  0  0  0  0  0  0  0  0
   41.6120   35.0760   40.0600 N   0  0  0  0  0  0  0  0  0  0  0  0
   42.0970   33.9650   40.6520 C   0  0  0  0  0  0  0  0  0  0  0  0
   41.2820   32.9230   40.9870 N   0  0  0  0  0  0  0  0  0  0  0  0
   39.9760   33.0690   40.6940 C   0  0  0  0  0  0  0  0  0  0  0  0
   36.9490   26.6030   41.7800 C   0  0  0  0  0  0  0  0  0  0  0  0
   36.9760   25.4810   42.5150 C   0  0  0  0  0  0  0  0  0  0  0  0
   37.3540   24.2930   42.0050 C   0  0  0  0  0  0  0  0  0  0  0  0
   37.7150   24.3800   40.6120 C   0  0  0  0  0  0  0  0  0  0  0  0
   37.4970   26.0530   40.1730 S   0  0  0  0  0  0  0  0  0  0  0  0
   36.6690   25.6140   43.5470 H   0  0  0  0  0  0  0  0  0  0  0  0
   37.4010   23.3580   42.5280 H   0  0  0  0  0  0  0  0  0  0  0  0
   38.1660   23.2880   39.7600 C   0  0  0  0  0  0  0  0  0  0  0  0
   38.2490   21.9930   40.1480 C   0  0  0  0  0  0  0  0  0  0  0  0
   38.7250   21.3540   38.9980 C   0  0  0  0  0  0  0  0  0  0  0  0
   38.9040   22.2590   37.9960 N   0  0  0  0  0  0  0  0  0  0  0  0
   38.5550   23.4360   38.4880 N   0  0  0  0  0  0  0  0  0  0  0  0
   38.0230   21.5030   41.0880 H   0  0  0  0  0  0  0  0  0  0  0  0
   38.9330   20.2880   38.8850 H   0  0  0  0  0  0  0  0  0  0  0  0
   39.2520   22.0140   37.0460 H   0  0  0  0  0  0  0  0  0  0  0  0
  1  6  1  0  0  0  0
  1  2  1  0  0  0  0
  3  1  1  0  0  0  0
  4 10  1  0  0  0  0
  5  4  1  0  0  0  0
  5 11  1  0  0  0  0
  6  5  2  0  0  0  0
  7  8  2  0  0  0  0
  7  6  1  0  0  0  0
  8  9  1  0  0  0  0
  9  4  2  0  0  0  0
 12  8  1  0  0  0  0
 13 12  1  0  0  0  0
 14 15  1  0  0  0  0
 14 13  2  0  0  0  0
 15 21  1  0  0  0  0
 16 18  1  0  0  0  0
 16 15  2  0  0  0  0
 17 16  1  0  0  0  0
 18 19  2  0  0  0  0
 19 20  1  0  0  0  0
 21 12  1  0  0  0  0
 21 20  2  0  0  0  0
 22  1  1  0  0  0  0
 22 23  2  0  0  0  0
 23 27  1  0  0  0  0
 24 23  1  0  0  0  0
 24 28  1  0  0  0  0
 25 24  2  0  0  0  0
 26 25  1  0  0  0  0
 26 22  1  0  0  0  0
 29 30  1  0  0  0  0
 29 25  1  0  0  0  0
 30 34  1  0  0  0  0
 31 30  2  0  0  0  0
 32 33  1  0  0  0  0
 32 31  1  0  0  0  0
 33 29  2  0  0  0  0
 35 31  1  0  0  0  0
 36 32  1  0  0  0  0
M  END
>  <minimizedAffinity>
-6.06881714

>  <minimizedRMSD>
2.22633791

$$$$
