
 OpenBabel03242507023D

 20 22  0  0  0  0  0  0  0  0999 V2000
   40.6320   25.3810   43.4500 C   0  0  0  0  0  0  0  0  0  0  0  0
   39.6870   24.3910   43.0710 C   0  0  0  0  0  0  0  0  0  0  0  0
   38.4970   24.7860   42.4790 C   0  0  0  0  0  0  0  0  0  0  0  0
   38.2870   26.1230   42.2850 N   0  0  0  0  0  0  0  0  0  0  0  0
   39.2060   27.0560   42.6550 C   0  0  0  0  0  0  0  0  0  0  0  0
   40.3490   26.6750   43.2250 N   0  0  0  0  0  0  0  0  0  0  0  0
   41.5570   25.0650   43.9120 H   0  0  0  0  0  0  0  0  0  0  0  0
   39.9350   23.3530   43.2610 H   0  0  0  0  0  0  0  0  0  0  0  0
   38.8770   28.4250   42.4040 N   0  0  0  0  0  0  0  0  0  0  0  0
   39.5300   29.5580   42.7000 C   0  0  0  0  0  0  0  0  0  0  0  0
   38.7890   30.5800   42.2410 N   0  0  0  0  0  0  0  0  0  0  0  0
   37.6830   30.1000   41.6620 C   0  0  0  0  0  0  0  0  0  0  0  0
   36.5880   30.6810   41.0350 C   0  0  0  0  0  0  0  0  0  0  0  0
   36.6270   31.7630   40.9980 H   0  0  0  0  0  0  0  0  0  0  0  0
   35.6010   29.9170   40.5350 N   0  0  0  0  0  0  0  0  0  0  0  0
   35.6420   28.5750   40.6290 C   0  0  0  0  0  0  0  0  0  0  0  0
   36.6950   27.9720   41.2360 N   0  0  0  0  0  0  0  0  0  0  0  0
   37.7130   28.7040   41.7530 C   0  0  0  0  0  0  0  0  0  0  0  0
   37.6160   23.8040   42.1290 O   0  0  0  0  0  0  0  0  0  0  0  0
   37.7050   23.1250   41.3950 H   0  0  0  0  0  0  0  0  0  0  0  0
  1  7  1  0  0  0  0
  2  8  1  0  0  0  0
  2  1  2  0  0  0  0
  3  2  1  0  0  0  0
  4  3  2  0  0  0  0
  4  5  1  0  0  0  0
  5  6  2  0  0  0  0
  6  1  1  0  0  0  0
  9  5  1  0  0  0  0
  9 10  1  0  0  0  0
 11 10  2  0  0  0  0
 12 18  1  0  0  0  0
 12 11  1  0  0  0  0
 13 12  2  0  0  0  0
 14 13  1  0  0  0  0
 15 16  2  0  0  0  0
 15 13  1  0  0  0  0
 16 17  1  0  0  0  0
 17 18  2  0  0  0  0
 18  9  1  0  0  0  0
 19  3  1  0  0  0  0
 20 19  1  0  0  0  0
M  END
>  <minimizedAffinity>
-4.82333231

>  <minimizedRMSD>
3.74595714

$$$$
