
 OpenBabel03242509263D

 49 54  0  0  0  0  0  0  0  0999 V2000
   38.7160   28.1610   42.7510 C   0  0  0  0  0  0  0  0  0  0  0  0
   37.6280   27.3390   42.8960 C   0  0  0  0  0  0  0  0  0  0  0  0
   36.5530   27.9970   42.2970 C   0  0  0  0  0  0  0  0  0  0  0  0
   37.0710   29.1450   41.8470 N   0  0  0  0  0  0  0  0  0  0  0  0
   38.3340   29.2770   42.0940 N   0  0  0  0  0  0  0  0  0  0  0  0
   37.6790   26.3780   43.3930 H   0  0  0  0  0  0  0  0  0  0  0  0
   35.5890   27.5280   42.2940 H   0  0  0  0  0  0  0  0  0  0  0  0
   41.6760   26.4790   44.2750 C   0  0  0  0  0  0  0  0  0  0  0  0
   40.3630   26.6860   43.8340 C   0  0  0  0  0  0  0  0  0  0  0  0
   40.0670   27.9080   43.2160 C   0  0  0  0  0  0  0  0  0  0  0  0
   41.0370   28.8330   43.0650 N   0  0  0  0  0  0  0  0  0  0  0  0
   42.3020   28.5960   43.5060 C   0  0  0  0  0  0  0  0  0  0  0  0
   42.6120   27.4280   44.1050 N   0  0  0  0  0  0  0  0  0  0  0  0
   41.9900   25.5680   44.7610 H   0  0  0  0  0  0  0  0  0  0  0  0
   39.6190   25.9000   43.9830 H   0  0  0  0  0  0  0  0  0  0  0  0
   43.1820   29.6910   43.2570 N   0  0  0  0  0  0  0  0  0  0  0  0
   43.5420   30.0490   41.9970 C   0  0  0  0  0  3  0  0  0  0  0  0
   44.3880   31.1160   41.9810 N   0  0  0  0  0  0  0  0  0  0  0  0
   44.5620   31.4400   43.2890 C   0  0  0  0  0  0  0  0  0  0  0  0
   45.2650   32.3870   44.0110 C   0  0  0  0  0  0  0  0  0  0  0  0
   45.8660   33.1010   43.4450 H   0  0  0  0  0  0  0  0  0  0  0  0
   45.2260   32.4420   45.3470 N   0  0  0  0  0  0  0  0  0  0  0  0
   44.4890   31.5640   46.0670 C   0  0  0  0  0  3  0  0  0  0  0  0
   43.7740   30.6090   45.4120 N   0  0  0  0  0  0  0  0  0  0  0  0
   43.8230   30.5640   44.0560 C   0  0  0  0  0  0  0  0  0  0  0  0
   36.2260   30.0730   41.1750 C   0  0  0  0  0  0  0  0  0  0  0  0
   36.8290   30.8800   40.7060 H   0  0  0  0  0  0  0  0  0  0  0  0
   35.6290   30.5820   41.9860 H   0  0  0  0  0  0  0  0  0  0  0  0
   35.3290   29.4920   40.1280 C   0  0  0  0  0  0  0  0  0  0  0  0
   34.6080   30.3730   40.0170 H   0  0  0  0  0  0  0  0  0  0  0  0
   34.8670   28.5890   40.5050 H   0  0  0  0  0  0  0  0  0  0  0  0
   35.9260   29.4110   38.7810 C   0  0  0  0  0  0  0  0  0  0  0  0
   37.2480   29.5370   38.4440 C   0  0  0  0  0  0  0  0  0  0  0  0
   37.7560   29.5210   37.1760 C   0  0  0  0  0  0  0  0  0  0  0  0
   36.8990   29.3650   36.1070 C   0  0  0  0  0  0  0  0  0  0  0  0
   35.5450   29.2300   36.3800 C   0  0  0  0  0  0  0  0  0  0  0  0
   34.7500   29.0800   35.2650 C   0  0  0  0  0  0  0  0  0  0  0  0
   33.4120   28.9390   35.4380 C   0  0  0  0  0  0  0  0  0  0  0  0
   32.8680   28.9440   36.7000 C   0  0  0  0  0  0  0  0  0  0  0  0
   33.7220   29.0980   37.7650 C   0  0  0  0  0  0  0  0  0  0  0  0
   35.0660   29.2500   37.6780 C   0  0  0  0  0  0  0  0  0  0  0  0
   37.9330   29.6610   39.2750 H   0  0  0  0  0  0  0  0  0  0  0  0
   38.8230   29.6310   37.0460 H   0  0  0  0  0  0  0  0  0  0  0  0
   37.3150   29.3550   35.1080 H   0  0  0  0  0  0  0  0  0  0  0  0
   35.1390   29.0700   34.2640 H   0  0  0  0  0  0  0  0  0  0  0  0
   32.7580   28.8190   34.5680 H   0  0  0  0  0  0  0  0  0  0  0  0
   31.8020   28.8300   36.8250 H   0  0  0  0  0  0  0  0  0  0  0  0
   33.1180   29.0820   39.0150 O   0  0  0  0  0  0  0  0  0  0  0  0
   32.5480   28.3550   39.3900 H   0  0  0  0  0  0  0  0  0  0  0  0
  1  2  1  0  0  0  0
  1 10  1  0  0  0  0
  2  6  1  0  0  0  0
  3  2  2  0  0  0  0
  4  5  1  0  0  0  0
  4  3  1  0  0  0  0
  5  1  2  0  0  0  0
  7  3  1  0  0  0  0
  8 14  1  0  0  0  0
  9 15  1  0  0  0  0
  9  8  2  0  0  0  0
 10  9  1  0  0  0  0
 11 10  2  0  0  0  0
 11 12  1  0  0  0  0
 12 13  2  0  0  0  0
 13  8  1  0  0  0  0
 16 12  1  0  0  0  0
 16 25  1  0  0  0  0
 17 16  1  0  0  0  0
 18 17  2  0  0  0  0
 18 19  1  0  0  0  0
 19 20  2  0  0  0  0
 19 25  1  0  0  0  0
 20 22  1  0  0  0  0
 21 20  1  0  0  0  0
 22 23  2  0  0  0  0
 24 23  1  0  0  0  0
 25 24  2  0  0  0  0
 26  4  1  0  0  0  0
 26 28  1  0  0  0  0
 27 26  1  0  0  0  0
 29 31  1  0  0  0  0
 29 26  1  0  0  0  0
 30 29  1  0  0  0  0
 32 29  1  0  0  0  0
 33 32  1  0  0  0  0
 33 42  1  0  0  0  0
 34 33  2  0  0  0  0
 35 36  2  0  0  0  0
 35 34  1  0  0  0  0
 36 41  1  0  0  0  0
 37 38  2  0  0  0  0
 37 36  1  0  0  0  0
 38 39  1  0  0  0  0
 39 47  1  0  0  0  0
 39 40  2  0  0  0  0
 40 48  1  0  0  0  0
 41 40  1  0  0  0  0
 41 32  2  0  0  0  0
 43 34  1  0  0  0  0
 44 35  1  0  0  0  0
 45 37  1  0  0  0  0
 46 38  1  0  0  0  0
 48 49  1  0  0  0  0
M  END
>  <minimizedAffinity>
-6.85381985

>  <minimizedRMSD>
0.342834294

$$$$
