
 OpenBabel03242509313D

 22 24  0  0  0  0  0  0  0  0999 V2000
   37.4310   28.6300   43.4710 C   0  0  0  0  0  0  0  0  0  0  0  0
   37.1940   27.2420   43.2680 C   0  0  0  0  0  0  0  0  0  0  0  0
   37.3720   26.7540   41.9750 C   0  0  0  0  0  0  0  0  0  0  0  0
   37.7630   27.6400   40.9820 N   0  0  0  0  0  0  0  0  0  0  0  0
   37.9720   28.9430   41.2370 C   0  0  0  0  0  0  0  0  0  0  0  0
   37.8060   29.4260   42.4710 N   0  0  0  0  0  0  0  0  0  0  0  0
   37.3090   29.0670   44.4540 H   0  0  0  0  0  0  0  0  0  0  0  0
   36.8940   26.6330   44.0960 H   0  0  0  0  0  0  0  0  0  0  0  0
   38.3620   29.6010   40.0340 N   0  0  0  0  0  0  0  0  0  0  0  0
   38.2060   29.2160   38.7530 C   0  0  0  0  0  3  0  0  0  0  0  0
   38.7440   30.1820   37.9790 N   0  0  0  0  0  0  0  0  0  0  0  0
   39.2250   31.1550   38.7790 C   0  0  0  0  0  0  0  0  0  0  0  0
   39.8660   32.3500   38.4390 C   0  0  0  0  0  0  0  0  0  0  0  0
   40.0470   32.6220   37.4080 H   0  0  0  0  0  0  0  0  0  0  0  0
   40.2450   33.1420   39.4620 N   0  0  0  0  0  0  0  0  0  0  0  0
   39.9990   32.7630   40.7440 C   0  0  0  0  0  3  0  0  0  0  0  0
   39.3860   31.6190   41.0960 N   0  0  0  0  0  0  0  0  0  0  0  0
   38.9900   30.7980   40.1070 C   0  0  0  0  0  0  0  0  0  0  0  0
   37.1360   25.3050   41.7060 C   0  0  0  0  0  0  0  0  0  0  0  0
   38.3830   24.7230   41.6460 F   0  0  0  0  0  0  0  0  0  0  0  0
   36.4060   24.7090   42.6850 F   0  0  0  0  0  0  0  0  0  0  0  0
   36.5130   25.1220   40.4650 F   0  0  0  0  0  0  0  0  0  0  0  0
  1  7  1  0  0  0  0
  2  1  1  0  0  0  0
  2  8  1  0  0  0  0
  3  2  2  0  0  0  0
  4  5  2  0  0  0  0
  4  3  1  0  0  0  0
  5  6  1  0  0  0  0
  6  1  2  0  0  0  0
  9 18  1  0  0  0  0
  9  5  1  0  0  0  0
 10  9  1  0  0  0  0
 11 10  2  0  0  0  0
 11 12  1  0  0  0  0
 12 18  1  0  0  0  0
 13 12  2  0  0  0  0
 13 15  1  0  0  0  0
 14 13  1  0  0  0  0
 15 16  2  0  0  0  0
 16 17  1  0  0  0  0
 18 17  2  0  0  0  0
 19  3  1  0  0  0  0
 19 21  1  0  0  0  0
 20 19  1  0  0  0  0
 22 19  1  0  0  0  0
M  END
>  <minimizedAffinity>
-5.08705759

>  <minimizedRMSD>
2.78681636

$$$$
