
 OpenBabel03242506433D

 23 25  0  0  0  0  0  0  0  0999 V2000
   35.4310   30.4870   40.8520 N   0  0  0  0  0  0  0  0  0  0  0  0
   35.1000   29.2030   40.5810 C   0  0  0  0  0  0  0  0  0  0  0  0
   36.2500   28.5020   40.4590 N   0  0  0  0  0  0  0  0  0  0  0  0
   37.3180   29.3070   40.6440 C   0  0  0  0  0  0  0  0  0  0  0  0
   38.6970   29.1380   40.6350 C   0  0  0  0  0  0  0  0  0  0  0  0
   39.4900   30.2130   40.8720 N   0  0  0  0  0  0  0  0  0  0  0  0
   38.9400   31.4170   41.1090 C   0  0  0  0  0  0  0  0  0  0  0  0
   37.5950   31.6200   41.1260 N   0  0  0  0  0  0  0  0  0  0  0  0
   36.7640   30.5730   40.8940 C   0  0  0  0  0  0  0  0  0  0  0  0
   34.7720   31.2840   41.0040 H   0  0  0  0  0  0  0  0  0  0  0  0
   34.1010   28.7830   40.4760 H   0  0  0  0  0  0  0  0  0  0  0  0
   39.7120   32.1600   41.2770 H   0  0  0  0  0  0  0  0  0  0  0  0
   39.1050   27.8440   40.3760 O   0  0  0  0  0  0  0  0  0  0  0  0
   38.8530   24.9950   42.6340 C   0  0  0  0  0  0  0  0  0  0  0  0
   38.5870   25.8760   41.5380 C   0  0  0  0  0  0  0  0  0  0  0  0
   39.3880   27.0260   41.4360 C   0  0  0  0  0  0  0  0  0  0  0  0
   40.3630   27.2520   42.3600 N   0  0  0  0  0  0  0  0  0  0  0  0
   40.5750   26.3920   43.3740 C   0  0  0  0  0  0  0  0  0  0  0  0
   39.8400   25.2730   43.5260 N   0  0  0  0  0  0  0  0  0  0  0  0
   38.2840   24.1090   42.7710 H   0  0  0  0  0  0  0  0  0  0  0  0
   37.7980   25.6400   40.8370 H   0  0  0  0  0  0  0  0  0  0  0  0
   41.9070   26.9190   44.4430 S   0  0  0  0  0  0  0  0  0  0  0  0
   42.4980   25.7470   44.9900 H   0  0  0  0  0  0  0  0  0  0  0  0
  1  9  1  0  0  0  0
  1 10  1  0  0  0  0
  2  1  1  0  0  0  0
  3  2  2  0  0  0  0
  3  4  1  0  0  0  0
  4  9  1  0  0  0  0
  5  4  2  0  0  0  0
  5  6  1  0  0  0  0
  6  7  2  0  0  0  0
  7  8  1  0  0  0  0
  7 12  1  0  0  0  0
  9  8  2  0  0  0  0
 11  2  1  0  0  0  0
 13  5  1  0  0  0  0
 13 16  1  0  0  0  0
 14 20  1  0  0  0  0
 14 19  1  0  0  0  0
 15 14  2  0  0  0  0
 16 15  1  0  0  0  0
 16 17  2  0  0  0  0
 17 18  1  0  0  0  0
 18 19  2  0  0  0  0
 18 22  1  0  0  0  0
 21 15  1  0  0  0  0
 22 23  1  0  0  0  0
M  END
>  <minimizedAffinity>
-4.14950037

>  <minimizedRMSD>
0.629395664

$$$$
