
 OpenBabel03242506203D

 28 31  0  0  0  0  0  0  0  0999 V2000
   37.0300   29.6860   41.3820 C   0  0  0  0  0  0  0  0  0  0  0  0
   38.4310   29.7490   41.1020 C   0  0  0  0  0  0  0  0  0  0  0  0
   38.9680   30.8840   40.5570 C   0  0  0  0  0  0  0  0  0  0  0  0
   38.1000   31.9070   40.3100 N   0  0  0  0  0  0  0  0  0  0  0  0
   36.7720   31.8330   40.5810 C   0  0  0  0  0  0  0  0  0  0  0  0
   36.2380   30.7300   41.1140 N   0  0  0  0  0  0  0  0  0  0  0  0
   36.6200   28.7900   41.8110 H   0  0  0  0  0  0  0  0  0  0  0  0
   36.1580   32.6880   40.3540 H   0  0  0  0  0  0  0  0  0  0  0  0
   40.3740   31.0800   40.2350 C   0  0  0  0  0  0  0  0  0  0  0  0
   41.3750   30.5820   39.5690 N   0  0  0  0  0  0  0  0  0  0  0  0
   42.4490   31.2760   39.7040 O   0  0  0  0  0  0  0  0  0  0  0  0
   42.2570   32.2930   40.4690 C   0  0  0  0  0  0  0  0  0  0  0  0
   40.9830   32.1660   40.7920 N   0  0  0  0  0  0  0  0  0  0  0  0
   43.1040   33.3400   40.9220 N   0  0  0  0  0  0  0  0  0  0  0  0
   44.3990   33.4930   40.5840 C   0  0  0  0  0  0  0  0  0  0  0  0
   44.8860   34.5900   41.1990 N   0  0  0  0  0  0  0  0  0  0  0  0
   43.8820   35.1140   41.9210 C   0  0  0  0  0  0  0  0  0  0  0  0
   42.7720   34.3450   41.7540 N   0  0  0  0  0  0  0  0  0  0  0  0
   44.9440   32.8150   39.9120 H   0  0  0  0  0  0  0  0  0  0  0  0
   43.9340   36.0090   42.5400 H   0  0  0  0  0  0  0  0  0  0  0  0
   39.1890   28.5480   41.4270 C   0  0  0  0  0  0  0  0  0  0  0  0
   39.1900   27.4740   40.4690 C   0  0  0  0  0  0  0  0  0  0  0  0
   40.2370   26.1810   41.2430 S   0  0  0  0  0  0  0  0  0  0  0  0
   40.4940   27.3450   42.7600 C   0  0  0  0  0  0  0  0  0  0  0  0
   39.9040   28.2550   42.4860 N   0  0  0  0  0  0  0  0  0  0  0  0
   38.6870   27.4350   39.5070 H   0  0  0  0  0  0  0  0  0  0  0  0
   41.4770   26.9440   44.2160 S   0  0  0  0  0  0  0  0  0  0  0  0
   40.5760   27.0450   45.2840 H   0  0  0  0  0  0  0  0  0  0  0  0
  1  7  1  0  0  0  0
  2  1  2  0  0  0  0
  2 21  1  0  0  0  0
  3  2  1  0  0  0  0
  4  3  2  0  0  0  0
  4  5  1  0  0  0  0
  5  6  2  0  0  0  0
  6  1  1  0  0  0  0
  8  5  1  0  0  0  0
  9  3  1  0  0  0  0
  9 13  1  0  0  0  0
 10 11  1  0  0  0  0
 10  9  2  0  0  0  0
 11 12  1  0  0  0  0
 12 13  2  0  0  0  0
 12 14  1  0  0  0  0
 14 18  1  0  0  0  0
 15 14  1  0  0  0  0
 15 16  2  0  0  0  0
 16 17  1  0  0  0  0
 17 20  1  0  0  0  0
 18 17  2  0  0  0  0
 19 15  1  0  0  0  0
 21 25  1  0  0  0  0
 22 23  1  0  0  0  0
 22 21  2  0  0  0  0
 23 24  1  0  0  0  0
 24 27  1  0  0  0  0
 25 24  2  0  0  0  0
 26 22  1  0  0  0  0
 27 28  1  0  0  0  0
M  END
>  <minimizedAffinity>
-4.38488817

>  <minimizedRMSD>
0.432833076

$$$$
