
 OpenBabel03242508243D

 16 17  0  0  0  0  0  0  0  0999 V2000
   38.4920   28.8940   43.1120 C   0  0  0  0  0  0  0  0  0  0  0  0
   37.5660   28.1190   43.8360 C   0  0  0  0  0  0  0  0  0  0  0  0
   36.4280   27.6690   43.1420 C   0  0  0  0  0  0  0  0  0  0  0  0
   36.3000   28.0120   41.8210 N   0  0  0  0  0  0  0  0  0  0  0  0
   37.2100   28.7520   41.1750 C   0  0  0  0  0  0  0  0  0  0  0  0
   38.3190   29.2030   41.8140 N   0  0  0  0  0  0  0  0  0  0  0  0
   39.4040   29.2900   43.5580 H   0  0  0  0  0  0  0  0  0  0  0  0
   37.7680   27.9120   44.8650 H   0  0  0  0  0  0  0  0  0  0  0  0
   35.7130   27.0760   43.6880 H   0  0  0  0  0  0  0  0  0  0  0  0
   36.8120   28.9330   39.8640 O   0  0  0  0  0  0  0  0  0  0  0  0
   36.6700   30.2670   39.3990 C   0  0  0  0  0  0  0  0  0  0  0  0
   36.8160   31.2350   40.5810 C   0  0  0  0  0  0  0  0  0  0  0  0
   36.9990   32.6060   39.9290 C   0  0  0  0  0  0  0  0  0  0  0  0
   38.4680   32.6650   39.5120 C   0  0  0  0  0  0  0  0  0  0  0  0
   38.8870   31.3180   38.9630 C   0  0  0  0  0  0  0  0  0  0  0  0
   37.7030   30.5820   38.3490 C   0  0  0  0  0  0  0  0  0  0  0  0
  1  7  1  0  0  0  0
  1  2  1  0  0  0  0
  2  8  1  0  0  0  0
  3  9  1  0  0  0  0
  3  2  2  0  0  0  0
  4  3  1  0  0  0  0
  5  6  1  0  0  0  0
  5  4  2  0  0  0  0
  6  1  2  0  0  0  0
 10  5  1  0  0  0  0
 11 10  1  0  0  0  0
 11 12  1  0  0  0  0
 13 12  1  0  0  0  0
 14 13  1  0  0  0  0
 15 14  1  0  0  0  0
 16 15  1  0  0  0  0
 16 11  1  0  0  0  0
M  END
>  <minimizedAffinity>
-3.69196939

>  <minimizedRMSD>
0.754707813

$$$$
