
 OpenBabel03242507423D

 34 36  0  0  0  0  0  0  0  0999 V2000
   38.9140   27.4540   43.3350 C   0  0  0  0  0  0  0  0  0  0  0  0
   38.2950   26.1830   43.1960 C   0  0  0  0  0  0  0  0  0  0  0  0
   37.5380   25.9620   42.0340 C   0  0  0  0  0  0  0  0  0  0  0  0
   37.4410   26.9490   41.1320 N   0  0  0  0  0  0  0  0  0  0  0  0
   38.0360   28.1490   41.2840 C   0  0  0  0  0  0  0  0  0  0  0  0
   38.7680   28.3970   42.3830 N   0  0  0  0  0  0  0  0  0  0  0  0
   36.8820   24.7510   41.7850 N   0  0  0  0  0  0  0  0  0  0  0  0
   37.9360   29.1990   40.3290 N   0  0  0  0  0  0  0  0  0  0  0  0
   37.1920   28.9450   39.2340 C   0  0  0  0  0  0  0  0  0  0  0  0
   36.9800   29.8400   38.2000 C   0  0  0  0  0  0  0  0  0  0  0  0
   37.5910   31.0760   38.3350 C   0  0  0  0  0  0  0  0  0  0  0  0
   37.4350   31.9310   37.4300 O   0  0  0  0  0  0  0  0  0  0  0  0
   38.3270   31.3120   39.4310 N   0  0  0  0  0  0  0  0  0  0  0  0
   38.5030   30.4100   40.4070 C   0  0  0  0  0  0  0  0  0  0  0  0
   39.1930   30.6230   41.4400 O   0  0  0  0  0  0  0  0  0  0  0  0
   39.4950   27.6150   44.2350 H   0  0  0  0  0  0  0  0  0  0  0  0
   38.3820   25.3980   43.9310 H   0  0  0  0  0  0  0  0  0  0  0  0
   36.3450   24.3290   42.5880 H   0  0  0  0  0  0  0  0  0  0  0  0
   36.9840   24.3700   40.8200 H   0  0  0  0  0  0  0  0  0  0  0  0
   36.7040   27.9760   39.1120 H   0  0  0  0  0  0  0  0  0  0  0  0
   39.9670   35.1990   39.8990 C   0  0  0  0  0  0  0  0  0  0  0  0
   38.6680   34.9020   40.2970 C   0  0  0  0  0  0  0  0  0  0  0  0
   38.1730   33.6070   40.1230 C   0  0  0  0  0  0  0  0  0  0  0  0
   38.9490   32.5920   39.5550 C   0  0  0  0  0  0  0  0  0  0  0  0
   40.2420   32.9080   39.1640 C   0  0  0  0  0  0  0  0  0  0  0  0
   40.7230   34.1890   39.3400 C   0  0  0  0  0  0  0  0  0  0  0  0
   41.4790   37.1540   39.1830 H   0  0  0  0  0  0  0  0  0  0  0  0
   40.5510   36.8170   40.1290 S   0  0  0  0  0  0  0  0  0  0  0  0
   41.2240   36.8930   41.4790 O   0  0  0  0  0  0  0  0  0  0  0  0
   39.4260   37.8090   40.0850 O   0  0  0  0  0  0  0  0  0  0  0  0
   36.1420   29.4710   37.0280 C   0  0  0  0  0  0  0  0  0  0  0  0
   36.2360   30.2430   36.2590 H   0  0  0  0  0  0  0  0  0  0  0  0
   35.0740   29.4150   37.3300 H   0  0  0  0  0  0  0  0  0  0  0  0
   36.4070   28.4420   36.6860 H   0  0  0  0  0  0  0  0  0  0  0  0
  1 16  1  0  0  0  0
  2  1  1  0  0  0  0
  2 17  1  0  0  0  0
  3  2  2  0  0  0  0
  4  5  2  0  0  0  0
  4  3  1  0  0  0  0
  5  6  1  0  0  0  0
  6  1  2  0  0  0  0
  7  3  1  0  0  0  0
  7 18  1  0  0  0  0
  8 14  1  0  0  0  0
  8  5  1  0  0  0  0
  9  8  1  0  0  0  0
 10 11  1  0  0  0  0
 10  9  2  0  0  0  0
 11 13  1  0  0  0  0
 12 11  2  0  0  0  0
 13 24  1  0  0  0  0
 13 14  1  0  0  0  0
 14 15  2  0  0  0  0
 19  7  1  0  0  0  0
 20  9  1  0  0  0  0
 21 28  1  0  0  0  0
 21 22  1  0  0  0  0
 23 22  2  0  0  0  0
 24 23  1  0  0  0  0
 25 26  1  0  0  0  0
 25 24  2  0  0  0  0
 26 21  2  0  0  0  0
 27 28  1  0  0  0  0
 28 29  2  0  0  0  0
 30 28  2  0  0  0  0
 31 33  1  0  0  0  0
 31 10  1  0  0  0  0
 32 31  1  0  0  0  0
 34 31  1  0  0  0  0
M  END
>  <minimizedAffinity>
-6.53484535

>  <minimizedRMSD>
1.86036456

$$$$
