
 OpenBabel03242509323D

 14 14  0  0  0  0  0  0  0  0999 V2000
   38.0040   28.8700   43.3670 C   0  0  0  0  0  0  0  0  0  0  0  0
   38.1440   27.4560   43.3140 C   0  0  0  0  0  0  0  0  0  0  0  0
   37.4580   26.7870   42.2830 C   0  0  0  0  0  0  0  0  0  0  0  0
   36.6980   27.5210   41.3940 N   0  0  0  0  0  0  0  0  0  0  0  0
   36.6080   28.8660   41.5030 C   0  0  0  0  0  0  0  0  0  0  0  0
   37.2580   29.5150   42.4810 N   0  0  0  0  0  0  0  0  0  0  0  0
   38.5220   29.4070   44.1500 H   0  0  0  0  0  0  0  0  0  0  0  0
   38.7440   26.9040   44.0210 H   0  0  0  0  0  0  0  0  0  0  0  0
   37.5730   25.3050   42.1860 C   0  0  0  0  0  0  0  0  0  0  0  0
   37.7350   25.0260   40.8550 F   0  0  0  0  0  0  0  0  0  0  0  0
   38.6520   24.8180   42.8680 F   0  0  0  0  0  0  0  0  0  0  0  0
   36.4100   24.6770   42.6380 F   0  0  0  0  0  0  0  0  0  0  0  0
   35.5690   29.6060   40.2420 S   0  0  0  0  0  0  0  0  0  0  0  0
   36.3290   29.8300   39.0780 H   0  0  0  0  0  0  0  0  0  0  0  0
  1  7  1  0  0  0  0
  2  1  1  0  0  0  0
  2  8  1  0  0  0  0
  3  2  2  0  0  0  0
  4  5  2  0  0  0  0
  4  3  1  0  0  0  0
  5  6  1  0  0  0  0
  6  1  2  0  0  0  0
  9  3  1  0  0  0  0
  9 12  1  0  0  0  0
  9 11  1  0  0  0  0
 10  9  1  0  0  0  0
 13  5  1  0  0  0  0
 14 13  1  0  0  0  0
M  END
>  <minimizedAffinity>
-3.68561673

>  <minimizedRMSD>
0.0869826376

$$$$
