
 OpenBabel03232523503D

 32 33  0  0  0  0  0  0  0  0999 V2000
   36.8060   30.4500   40.6820 C   0  0  0  0  0  0  0  0  0  0  0  0
   35.9640   30.0200   40.0560 H   0  0  0  0  0  0  0  0  0  0  0  0
   37.6800   29.9440   40.3430 H   0  0  0  0  0  0  0  0  0  0  0  0
   36.8840   31.8990   40.4410 C   0  0  0  0  0  0  0  0  0  0  0  0
   36.2170   32.1860   39.6020 H   0  0  0  0  0  0  0  0  0  0  0  0
   36.4500   32.4570   41.3220 H   0  0  0  0  0  0  0  0  0  0  0  0
   40.5070   32.1000   39.6100 C   0  0  0  0  0  0  0  0  0  0  0  0
   39.2250   31.5860   39.8780 C   0  0  0  0  0  0  0  0  0  0  0  0
   38.1970   32.4450   40.1820 C   0  0  0  0  0  0  0  0  0  0  0  0
   38.4380   33.7780   40.2200 N   0  0  0  0  0  0  0  0  0  0  0  0
   39.6750   34.2620   39.9620 C   0  0  0  0  0  0  0  0  0  0  0  0
   40.7210   33.4440   39.6550 N   0  0  0  0  0  0  0  0  0  0  0  0
   41.4200   31.5860   39.3570 H   0  0  0  0  0  0  0  0  0  0  0  0
   39.3330   30.5420   39.7960 H   0  0  0  0  0  0  0  0  0  0  0  0
   39.7070   35.7440   40.0760 C   0  0  0  0  0  0  0  0  0  0  0  0
   40.7160   36.2790   39.3220 F   0  0  0  0  0  0  0  0  0  0  0  0
   39.9120   36.1010   41.4160 F   0  0  0  0  0  0  0  0  0  0  0  0
   38.4730   36.2840   39.7800 F   0  0  0  0  0  0  0  0  0  0  0  0
   36.4250   30.1450   42.0950 N   0  0  0  0  0  0  0  0  0  0  0  0
   35.7370   29.2640   41.8240 H   0  0  0  0  0  0  0  0  0  0  0  0
   37.7820   29.1790   42.7230 S   0  0  0  0  0  0  0  0  0  0  0  0
   38.9420   29.9960   42.9930 O   0  0  0  0  0  0  0  0  0  0  0  0
   37.2640   28.5860   44.0510 O   0  0  0  0  0  0  0  0  0  0  0  0
   38.0640   27.8010   41.6770 C   0  0  0  0  0  0  0  0  0  0  0  0
   38.6890   27.9240   40.7940 H   0  0  0  0  0  0  0  0  0  0  0  0
   37.1300   27.2330   41.4700 H   0  0  0  0  0  0  0  0  0  0  0  0
   38.9290   26.8500   42.5210 C   0  0  0  0  0  0  0  0  0  0  0  0
   38.8340   25.4560   42.4800 C   0  0  0  0  0  0  0  0  0  0  0  0
   39.7390   24.9530   43.3470 N   0  0  0  0  0  0  0  0  0  0  0  0
   40.3710   26.0090   43.9040 C   0  0  0  0  0  0  0  0  0  0  0  0
   39.8950   27.1710   43.4180 N   0  0  0  0  0  0  0  0  0  0  0  0
   40.1790   28.1460   43.6520 H   0  0  0  0  0  0  0  0  0  0  0  0
  1 19  1  0  0  0  0
  2  1  1  0  0  0  0
  3  1  1  0  0  0  0
  4  1  1  0  0  0  0
  4  6  1  0  0  0  0
  5  4  1  0  0  0  0
  7 12  2  0  0  0  0
  7  8  1  0  0  0  0
  8  9  2  0  0  0  0
  9 10  1  0  0  0  0
  9  4  1  0  0  0  0
 11 15  1  0  0  0  0
 11 10  2  0  0  0  0
 12 11  1  0  0  0  0
 13  7  1  0  0  0  0
 14  8  1  0  0  0  0
 15 17  1  0  0  0  0
 16 15  1  0  0  0  0
 18 15  1  0  0  0  0
 19 21  1  0  0  0  0
 20 19  1  0  0  0  0
 21 22  2  0  0  0  0
 21 23  2  0  0  0  0
 24 27  1  0  0  0  0
 24 21  1  0  0  0  0
 25 24  1  0  0  0  0
 26 24  1  0  0  0  0
 27 31  1  0  0  0  0
 28 27  2  0  0  0  0
 28 29  1  0  0  0  0
 29 30  2  0  0  0  0
 31 32  1  0  0  0  0
 31 30  1  0  0  0  0
M  END
>  <minimizedAffinity>
-5.44369555

>  <minimizedRMSD>
0.796051443

$$$$
