
 OpenBabel03242508503D

 41 44  0  0  1  0  0  0  0  0999 V2000
   38.4870   28.5200   42.9500 C   0  0  2  0  0  0  0  0  0  0  0  0
   38.0190   27.5830   43.9340 C   0  0  0  0  0  0  0  0  0  0  0  0
   36.5090   27.4400   43.6750 C   0  0  0  0  0  0  0  0  0  0  0  0
   36.2930   27.9360   42.2580 C   0  0  0  0  0  0  0  0  0  0  0  0
   37.6500   28.1160   41.6690 C   0  0  1  0  0  0  0  0  0  0  0  0
   38.1480   29.5240   43.1330 H   0  0  0  0  0  0  0  0  0  0  0  0
   38.4520   26.5690   43.8000 H   0  0  0  0  0  0  0  0  0  0  0  0
   38.1890   27.8890   44.9920 H   0  0  0  0  0  0  0  0  0  0  0  0
   35.9400   28.0180   44.4260 H   0  0  0  0  0  0  0  0  0  0  0  0
   36.2000   26.3720   43.7320 H   0  0  0  0  0  0  0  0  0  0  0  0
   35.7280   28.8630   42.3470 H   0  0  0  0  0  0  0  0  0  0  0  0
   35.7310   27.1740   41.6720 H   0  0  0  0  0  0  0  0  0  0  0  0
   38.1220   27.2640   41.2070 H   0  0  0  0  0  0  0  0  0  0  0  0
   40.6340   27.2590   42.4400 C   0  0  0  0  0  0  0  0  0  0  0  0
   39.9100   28.5050   42.6380 C   0  0  0  0  0  0  0  0  0  0  0  0
   40.5670   29.6950   42.5440 C   0  0  0  0  0  0  0  0  0  0  0  0
   41.9110   29.6370   42.2590 N   0  0  0  0  0  0  0  0  0  0  0  0
   42.6010   28.4580   42.0710 C   0  0  0  0  0  0  0  0  0  0  0  0
   41.9400   27.2500   42.1640 N   0  0  0  0  0  0  0  0  0  0  0  0
   43.9970   28.4980   41.7810 N   0  0  0  0  0  0  0  0  0  0  0  0
   40.0670   26.3520   42.5260 H   0  0  0  0  0  0  0  0  0  0  0  0
   44.5100   29.3580   41.9740 H   0  0  0  0  0  0  0  0  0  0  0  0
   44.4370   27.6610   41.3900 H   0  0  0  0  0  0  0  0  0  0  0  0
   40.0620   31.0230   42.7060 C   0  0  0  0  0  0  0  0  0  0  0  0
   39.0590   31.0670   43.2160 H   0  0  0  0  0  0  0  0  0  0  0  0
   40.7060   31.5560   43.4730 H   0  0  0  0  0  0  0  0  0  0  0  0
   40.0620   31.8870   41.4930 C   0  0  0  0  0  0  0  0  0  0  0  0
   40.7030   32.0250   40.2800 C   0  0  0  0  0  0  0  0  0  0  0  0
   40.1990   33.0540   39.6160 N   0  0  0  0  0  0  0  0  0  0  0  0
   39.2260   33.6080   40.3670 C   0  0  0  0  0  0  0  0  0  0  0  0
   39.1460   32.9040   41.4970 N   0  0  0  0  0  0  0  0  0  0  0  0
   38.4200   33.2230   42.1950 H   0  0  0  0  0  0  0  0  0  0  0  0
   37.4560   29.2660   40.7370 C   0  0  0  0  0  0  0  0  0  0  0  0
   36.8290   30.4170   41.1460 N   0  0  0  0  0  0  0  0  0  0  0  0
   36.8190   31.2360   40.1130 O   0  0  0  0  0  0  0  0  0  0  0  0
   37.4060   30.6370   39.1090 C   0  0  0  0  0  0  0  0  0  0  0  0
   37.8140   29.4100   39.4620 N   0  0  0  0  0  0  0  0  0  0  0  0
   37.5520   31.3220   37.7780 C   0  0  0  0  0  0  0  0  0  0  0  0
   37.1460   32.6250   37.8930 F   0  0  0  0  0  0  0  0  0  0  0  0
   38.8670   31.2940   37.3630 F   0  0  0  0  0  0  0  0  0  0  0  0
   36.7480   30.7080   36.8330 F   0  0  0  0  0  0  0  0  0  0  0  0
  1  6  1  1  0  0  0
  1  2  1  0  0  0  0
  2  8  1  0  0  0  0
  3 10  1  0  0  0  0
  3  2  1  0  0  0  0
  3  9  1  0  0  0  0
  4 11  1  0  0  0  0
  4  3  1  0  0  0  0
  5 13  1  6  0  0  0
  5  4  1  0  0  0  0
  5  1  1  0  0  0  0
  7  2  1  0  0  0  0
 12  4  1  0  0  0  0
 14 21  1  0  0  0  0
 14 15  1  0  0  0  0
 15  1  1  0  0  0  0
 16 15  2  0  0  0  0
 16 24  1  0  0  0  0
 17 16  1  0  0  0  0
 18 19  1  0  0  0  0
 18 17  2  0  0  0  0
 19 14  2  0  0  0  0
 20 22  1  0  0  0  0
 20 18  1  0  0  0  0
 23 20  1  0  0  0  0
 24 25  1  0  0  0  0
 24 26  1  0  0  0  0
 27 31  1  0  0  0  0
 27 24  1  0  0  0  0
 28 27  2  0  0  0  0
 29 28  1  0  0  0  0
 29 30  2  0  0  0  0
 30 31  1  0  0  0  0
 31 32  1  0  0  0  0
 33 34  2  0  0  0  0
 33  5  1  0  0  0  0
 35 34  1  0  0  0  0
 36 37  2  0  0  0  0
 36 35  1  0  0  0  0
 37 33  1  0  0  0  0
 38 39  1  0  0  0  0
 38 36  1  0  0  0  0
 40 38  1  0  0  0  0
 41 38  1  0  0  0  0
M  END
>  <minimizedAffinity>
-5.87470341

>  <minimizedRMSD>
6.37815762

$$$$
