
 OpenBabel03242505063D

 39 41  0  0  1  0  0  0  0  0999 V2000
   38.2170   33.5800   39.9800 C   0  0  0  0  0  0  0  0  0  0  0  0
   37.8230   33.4840   41.0240 H   0  0  0  0  0  0  0  0  0  0  0  0
   37.3820   34.0360   39.4000 H   0  0  0  0  0  0  0  0  0  0  0  0
   39.3550   34.4440   39.9110 N   0  0  0  0  0  0  0  0  0  0  0  0
   39.1920   35.6740   40.5940 C   0  0  0  0  0  0  0  0  0  0  0  0
   40.1260   36.7200   40.0890 C   0  0  0  0  0  0  0  0  0  0  0  0
   41.2560   36.1390   39.4390 N   0  0  0  0  0  0  0  0  0  0  0  0
   41.6920   34.8990   40.0070 C   0  0  0  0  0  0  0  0  0  0  0  0
   40.6040   33.8240   39.9580 C   0  0  2  0  0  0  0  0  0  0  0  0
   39.4600   35.5040   41.6720 H   0  0  0  0  0  0  0  0  0  0  0  0
   38.1280   35.9680   40.6040 H   0  0  0  0  0  0  0  0  0  0  0  0
   40.4140   37.4540   40.8780 H   0  0  0  0  0  0  0  0  0  0  0  0
   39.5920   37.3250   39.3080 H   0  0  0  0  0  0  0  0  0  0  0  0
   42.0410   36.7930   39.5000 H   0  0  0  0  0  0  0  0  0  0  0  0
   42.6200   34.5890   39.4930 H   0  0  0  0  0  0  0  0  0  0  0  0
   42.0090   35.1180   41.0580 H   0  0  0  0  0  0  0  0  0  0  0  0
   40.7620   33.2550   40.8370 H   0  0  0  0  0  0  0  0  0  0  0  0
   40.8870   33.1310   38.6750 C   0  0  0  0  0  0  0  0  0  0  0  0
   42.0010   32.7390   38.3510 O   0  0  0  0  0  0  0  0  0  0  0  0
   40.5970   32.7190   37.7200 H   0  0  0  0  0  0  0  0  0  0  0  0
   38.5010   32.2190   39.3880 C   0  0  0  0  0  0  0  0  0  0  0  0
   38.2810   32.1740   38.3140 H   0  0  0  0  0  0  0  0  0  0  0  0
   39.5200   31.9880   39.6710 H   0  0  0  0  0  0  0  0  0  0  0  0
   38.5910   30.2910   40.9760 C   0  0  0  0  0  0  0  0  0  0  0  0
   37.8350   31.1960   40.1910 C   0  0  0  0  0  0  0  0  0  0  0  0
   36.4620   31.0820   40.2090 C   0  0  0  0  0  0  0  0  0  0  0  0
   35.9300   30.0850   40.9970 N   0  0  0  0  0  0  0  0  0  0  0  0
   36.6740   29.2680   41.7090 C   0  0  0  0  0  0  0  0  0  0  0  0
   38.0170   29.3460   41.7190 N   0  0  0  0  0  0  0  0  0  0  0  0
   40.0100   30.3220   41.0210 N   0  0  0  0  0  0  0  0  0  0  0  0
   41.0330   29.8730   40.2650 C   0  0  0  0  0  0  0  0  0  0  0  0
   42.1950   30.2220   40.8740 N   0  0  0  0  0  0  0  0  0  0  0  0
   41.8550   30.8900   42.0130 C   0  0  0  0  0  0  0  0  0  0  0  0
   40.4990   30.9320   42.0670 N   0  0  0  0  0  0  0  0  0  0  0  0
   35.8200   31.7400   39.6330 H   0  0  0  0  0  0  0  0  0  0  0  0
   36.1950   28.5050   42.3080 H   0  0  0  0  0  0  0  0  0  0  0  0
   40.7840   29.3450   39.3590 H   0  0  0  0  0  0  0  0  0  0  0  0
   43.0640   31.5480   43.1520 S   0  0  0  0  0  0  0  0  0  0  0  0
   42.6960   32.8860   43.4800 H   0  0  0  0  0  0  0  0  0  0  0  0
  1  2  1  0  0  0  0
  3  1  1  0  0  0  0
  4  9  1  0  0  0  0
  4  1  1  0  0  0  0
  4  5  1  0  0  0  0
  5 11  1  0  0  0  0
  5 10  1  0  0  0  0
  6  5  1  0  0  0  0
  6 12  1  0  0  0  0
  7 14  1  0  0  0  0
  7  8  1  0  0  0  0
  7  6  1  0  0  0  0
  8 16  1  0  0  0  0
  9  8  1  0  0  0  0
  9 17  1  1  0  0  0
 13  6  1  0  0  0  0
 15  8  1  0  0  0  0
 18  9  1  0  0  0  0
 19 18  2  0  0  0  0
 20 18  1  0  0  0  0
 21 23  1  0  0  0  0
 21  1  1  0  0  0  0
 21 25  1  0  0  0  0
 22 21  1  0  0  0  0
 24 30  1  0  0  0  0
 24 29  1  0  0  0  0
 25 26  1  0  0  0  0
 25 24  2  0  0  0  0
 26 27  2  0  0  0  0
 27 28  1  0  0  0  0
 28 29  2  0  0  0  0
 28 36  1  0  0  0  0
 30 34  1  0  0  0  0
 31 32  2  0  0  0  0
 31 30  1  0  0  0  0
 32 33  1  0  0  0  0
 33 34  2  0  0  0  0
 33 38  1  0  0  0  0
 35 26  1  0  0  0  0
 37 31  1  0  0  0  0
 38 39  1  0  0  0  0
M  END
>  <minimizedAffinity>
-4.78510332

>  <minimizedRMSD>
0.458551198

$$$$
