
 OpenBabel03242507573D

 29 32  0  0  0  0  0  0  0  0999 V2000
   38.1020   29.0220   41.3230 C   0  0  0  0  0  0  0  0  0  0  0  0
   38.8570   30.1630   41.4420 C   0  0  0  0  0  0  0  0  0  0  0  0
   39.9300   30.1170   42.3350 C   0  0  0  0  0  0  0  0  0  0  0  0
   40.1700   28.9400   43.0440 C   0  0  0  0  0  0  0  0  0  0  0  0
   39.4050   27.8300   42.9030 C   0  0  0  0  0  0  0  0  0  0  0  0
   38.3790   27.8900   42.0420 N   0  0  0  0  0  0  0  0  0  0  0  0
   38.6030   31.0250   40.8590 H   0  0  0  0  0  0  0  0  0  0  0  0
   40.5470   31.0090   42.4500 H   0  0  0  0  0  0  0  0  0  0  0  0
   41.0170   28.9470   43.7300 H   0  0  0  0  0  0  0  0  0  0  0  0
   34.6680   29.1390   40.0830 C   0  0  0  0  0  0  0  0  0  0  0  0
   34.8020   28.9730   38.6970 C   0  0  0  0  0  0  0  0  0  0  0  0
   36.0920   28.8220   38.1940 C   0  0  0  0  0  0  0  0  0  0  0  0
   37.1290   28.8430   39.0750 N   0  0  0  0  0  0  0  0  0  0  0  0
   36.9660   29.0040   40.4030 C   0  0  0  0  0  0  0  0  0  0  0  0
   35.7250   29.1510   40.9010 N   0  0  0  0  0  0  0  0  0  0  0  0
   33.6390   29.2520   40.4190 H   0  0  0  0  0  0  0  0  0  0  0  0
   34.0400   28.9470   37.9590 H   0  0  0  0  0  0  0  0  0  0  0  0
   36.4220   28.6830   37.1760 H   0  0  0  0  0  0  0  0  0  0  0  0
   39.7630   26.3580   43.8400 S   0  0  0  0  0  0  0  0  0  0  0  0
   41.4990   25.9590   43.5590 C   0  0  0  0  0  0  0  0  0  0  0  0
   42.0220   25.1780   42.5300 C   0  0  0  0  0  0  0  0  0  0  0  0
   43.3640   25.1460   42.7070 N   0  0  0  0  0  0  0  0  0  0  0  0
   43.6680   25.8730   43.7970 C   0  0  0  0  0  0  0  0  0  0  0  0
   44.8900   26.1590   44.4090 C   0  0  0  0  0  0  0  0  0  0  0  0
   44.8830   26.9600   45.5530 C   0  0  0  0  0  0  0  0  0  0  0  0
   43.7410   27.4820   46.1070 C   0  0  0  0  0  0  0  0  0  0  0  0
   42.5340   27.1930   45.4950 C   0  0  0  0  0  0  0  0  0  0  0  0
   42.5300   26.4030   44.3650 C   0  0  0  0  0  0  0  0  0  0  0  0
   44.0140   24.6210   42.0660 H   0  0  0  0  0  0  0  0  0  0  0  0
  1  2  2  0  0  0  0
  1  6  1  0  0  0  0
  2  3  1  0  0  0  0
  3  8  1  0  0  0  0
  3  4  2  0  0  0  0
  4  9  1  0  0  0  0
  5  4  1  0  0  0  0
  5 19  1  0  0  0  0
  6  5  2  0  0  0  0
  7  2  1  0  0  0  0
 10 16  1  0  0  0  0
 10 15  1  0  0  0  0
 11 10  2  0  0  0  0
 12 11  1  0  0  0  0
 12 13  2  0  0  0  0
 13 14  1  0  0  0  0
 14 15  2  0  0  0  0
 14  1  1  0  0  0  0
 17 11  1  0  0  0  0
 18 12  1  0  0  0  0
 20 19  1  0  0  0  0
 20 28  1  0  0  0  0
 21 22  1  0  0  0  0
 21 20  2  0  0  0  0
 22 23  1  0  0  0  0
 23 28  2  0  0  0  0
 23 24  1  0  0  0  0
 24 25  2  0  0  0  0
 25 26  1  0  0  0  0
 27 26  2  0  0  0  0
 28 27  1  0  0  0  0
 29 22  1  0  0  0  0
M  END
>  <minimizedAffinity>
-5.10406017

>  <minimizedRMSD>
7.35142088

$$$$
