
 OpenBabel03242509313D

 17 18  0  0  0  0  0  0  0  0999 V2000
   37.8520   28.6780   43.5100 C   0  0  0  0  0  0  0  0  0  0  0  0
   38.3680   27.3740   43.6600 C   0  0  0  0  0  0  0  0  0  0  0  0
   38.4020   26.5550   42.5310 C   0  0  0  0  0  0  0  0  0  0  0  0
   37.9370   27.0520   41.3390 N   0  0  0  0  0  0  0  0  0  0  0  0
   37.4520   28.3100   41.2470 C   0  0  0  0  0  0  0  0  0  0  0  0
   37.4120   29.1030   42.3140 N   0  0  0  0  0  0  0  0  0  0  0  0
   37.8270   29.3120   44.3890 H   0  0  0  0  0  0  0  0  0  0  0  0
   38.7170   27.0510   44.6330 H   0  0  0  0  0  0  0  0  0  0  0  0
   36.9500   28.8800   40.0160 C   0  0  0  0  0  0  0  0  0  0  0  0
   37.1890   30.1340   39.4710 C   0  0  0  0  0  3  0  0  0  0  0  0
   36.5950   30.4410   38.2860 C   0  0  0  0  0  3  0  0  0  0  0  0
   35.7950   29.4830   37.7100 C   0  0  0  0  0  3  0  0  0  0  0  0
   35.8790   28.0610   38.9010 S   0  0  0  0  0  0  0  0  0  0  0  0
   38.9370   25.1750   42.6420 C   0  0  0  0  0  0  0  0  0  0  0  0
   39.7600   24.9750   41.5610 F   0  0  0  0  0  0  0  0  0  0  0  0
   39.6820   24.9940   43.7850 F   0  0  0  0  0  0  0  0  0  0  0  0
   37.9190   24.2170   42.6260 F   0  0  0  0  0  0  0  0  0  0  0  0
  1  2  1  0  0  0  0
  1  7  1  0  0  0  0
  2  8  1  0  0  0  0
  3 14  1  0  0  0  0
  3  2  2  0  0  0  0
  4  3  1  0  0  0  0
  5  4  2  0  0  0  0
  5  6  1  0  0  0  0
  6  1  2  0  0  0  0
  9  5  1  0  0  0  0
 10  9  2  0  0  0  0
 11 10  1  0  0  0  0
 12 11  2  0  0  0  0
 12 13  1  0  0  0  0
 13  9  1  0  0  0  0
 14 16  1  0  0  0  0
 15 14  1  0  0  0  0
 17 14  1  0  0  0  0
M  END
>  <minimizedAffinity>
-4.08556652

>  <minimizedRMSD>
1.52693617

$$$$
