
 OpenBabel03242509313D

 17 18  0  0  0  0  0  0  0  0999 V2000
   38.7160   28.2050   43.2830 C   0  0  0  0  0  0  0  0  0  0  0  0
   38.9950   26.8270   43.3950 C   0  0  0  0  0  0  0  0  0  0  0  0
   38.5670   25.9920   42.3620 C   0  0  0  0  0  0  0  0  0  0  0  0
   37.9020   26.5460   41.2960 N   0  0  0  0  0  0  0  0  0  0  0  0
   37.6590   27.8740   41.2360 C   0  0  0  0  0  0  0  0  0  0  0  0
   38.0600   28.6830   42.2130 N   0  0  0  0  0  0  0  0  0  0  0  0
   39.0490   28.8520   44.0870 H   0  0  0  0  0  0  0  0  0  0  0  0
   39.5250   26.4630   44.2660 H   0  0  0  0  0  0  0  0  0  0  0  0
   36.9630   28.5050   40.1370 C   0  0  0  0  0  0  0  0  0  0  0  0
   35.6060   28.5140   39.8500 C   0  0  0  0  0  3  0  0  0  0  0  0
   35.1880   29.1870   38.7430 C   0  0  0  0  0  3  0  0  0  0  0  0
   36.1480   29.8140   37.9840 C   0  0  0  0  0  3  0  0  0  0  0  0
   37.7330   29.4390   38.8740 S   0  0  0  0  0  0  0  0  0  0  0  0
   38.8400   24.5350   42.4380 C   0  0  0  0  0  0  0  0  0  0  0  0
   39.6280   24.2170   41.3580 F   0  0  0  0  0  0  0  0  0  0  0  0
   39.5220   24.1890   43.5810 F   0  0  0  0  0  0  0  0  0  0  0  0
   37.6640   23.7800   42.3820 F   0  0  0  0  0  0  0  0  0  0  0  0
  1  2  1  0  0  0  0
  1  7  1  0  0  0  0
  2  8  1  0  0  0  0
  3 14  1  0  0  0  0
  3  2  2  0  0  0  0
  4  3  1  0  0  0  0
  5  4  2  0  0  0  0
  5  6  1  0  0  0  0
  6  1  2  0  0  0  0
  9  5  1  0  0  0  0
 10  9  2  0  0  0  0
 11 10  1  0  0  0  0
 12 11  2  0  0  0  0
 12 13  1  0  0  0  0
 13  9  1  0  0  0  0
 14 16  1  0  0  0  0
 15 14  1  0  0  0  0
 17 14  1  0  0  0  0
M  END
>  <minimizedAffinity>
-4.02117252

>  <minimizedRMSD>
1.66969252

$$$$
