
 OpenBabel03242504273D

 26 28  0  0  0  0  0  0  0  0999 V2000
   39.9140   32.8220   40.8920 C   0  0  0  0  0  0  0  0  0  0  0  0
   39.4950   33.5710   41.5560 H   0  0  0  0  0  0  0  0  0  0  0  0
   41.0350   32.9730   40.9630 H   0  0  0  0  0  0  0  0  0  0  0  0
   39.6620   31.5080   41.0410 O   0  0  0  0  0  0  0  0  0  0  0  0
   39.5280   30.7810   42.2070 C   0  0  0  0  0  0  0  0  0  0  0  0
   40.2770   31.0490   43.1380 O   0  0  0  0  0  0  0  0  0  0  0  0
   37.6550   29.5770   41.0580 C   0  0  0  0  0  0  0  0  0  0  0  0
   38.4730   29.7500   42.1760 C   0  0  0  0  0  0  0  0  0  0  0  0
   38.3260   28.9670   43.2990 C   0  0  0  0  0  0  0  0  0  0  0  0
   37.3360   28.0280   43.2270 N   0  0  0  0  0  0  0  0  0  0  0  0
   36.5490   27.8550   42.1600 C   0  0  0  0  0  0  0  0  0  0  0  0
   36.7010   28.6370   41.0520 N   0  0  0  0  0  0  0  0  0  0  0  0
   37.7790   30.1960   40.1830 H   0  0  0  0  0  0  0  0  0  0  0  0
   38.9550   29.0940   44.1690 H   0  0  0  0  0  0  0  0  0  0  0  0
   35.7710   27.0910   42.1500 H   0  0  0  0  0  0  0  0  0  0  0  0
   39.5400   33.2070   39.1200 S   0  0  0  0  0  0  0  0  0  0  0  0
   40.9490   32.6990   38.1090 C   0  0  0  0  0  0  0  0  0  0  0  0
   42.0020   33.4670   37.6310 C   0  0  0  0  0  0  0  0  0  0  0  0
   42.8150   32.6540   36.9180 N   0  0  0  0  0  0  0  0  0  0  0  0
   42.2910   31.3980   36.9410 C   0  0  0  0  0  0  0  0  0  0  0  0
   42.7100   30.2060   36.3840 C   0  0  0  0  0  0  0  0  0  0  0  0
   42.0050   29.0200   36.5380 C   0  0  0  0  0  0  0  0  0  0  0  0
   40.8220   29.0270   37.2870 C   0  0  0  0  0  0  0  0  0  0  0  0
   40.4310   30.2320   37.8320 C   0  0  0  0  0  0  0  0  0  0  0  0
   41.1230   31.3970   37.6810 C   0  0  0  0  0  0  0  0  0  0  0  0
   43.6920   32.9700   36.4410 H   0  0  0  0  0  0  0  0  0  0  0  0
  1  3  1  0  0  0  0
  1  4  1  0  0  0  0
  1  2  1  0  0  0  0
  4  5  1  0  0  0  0
  5  6  2  0  0  0  0
  7  8  1  0  0  0  0
  8  5  1  0  0  0  0
  8  9  2  0  0  0  0
  9 14  1  0  0  0  0
 10  9  1  0  0  0  0
 11 10  2  0  0  0  0
 12  7  2  0  0  0  0
 12 11  1  0  0  0  0
 13  7  1  0  0  0  0
 15 11  1  0  0  0  0
 16  1  1  0  0  0  0
 17 16  1  0  0  0  0
 18 17  2  0  0  0  0
 19 20  1  0  0  0  0
 19 18  1  0  0  0  0
 20 25  1  0  0  0  0
 21 22  1  0  0  0  0
 21 20  2  0  0  0  0
 22 23  2  0  0  0  0
 23 24  1  0  0  0  0
 25 24  2  0  0  0  0
 25 17  1  0  0  0  0
 26 19  1  0  0  0  0
M  END
>  <minimizedAffinity>
-4.13877773

>  <minimizedRMSD>
6.17475224

$$$$
