
 OpenBabel03242509093D

 35 39  0  0  1  0  0  0  0  0999 V2000
   36.5080   30.2210   38.4600 C   0  0  0  0  0  0  0  0  0  0  0  0
   36.6770   29.2650   39.4780 C   0  0  0  0  0  0  0  0  0  0  0  0
   37.2710   29.6610   40.6980 C   0  0  0  0  0  0  0  0  0  0  0  0
   37.6340   30.9610   40.7820 N   0  0  0  0  0  0  0  0  0  0  0  0
   37.4640   31.8620   39.7990 C   0  0  0  0  0  0  0  0  0  0  0  0
   36.8960   31.4890   38.6290 N   0  0  0  0  0  0  0  0  0  0  0  0
   36.0530   29.9370   37.5140 H   0  0  0  0  0  0  0  0  0  0  0  0
   36.3570   28.2260   39.3370 H   0  0  0  0  0  0  0  0  0  0  0  0
   37.4530   28.6770   41.7190 C   0  0  0  0  0  0  0  0  0  0  0  0
   36.4840   27.9250   42.3310 C   0  0  0  0  0  0  0  0  0  0  0  0
   37.0530   27.1060   43.2540 N   0  0  0  0  0  0  0  0  0  0  0  0
   38.3740   27.2980   43.2680 C   0  0  0  0  0  0  0  0  0  0  0  0
   39.4430   26.7590   43.9900 C   0  0  0  0  0  0  0  0  0  0  0  0
   40.7470   27.1690   43.7850 C   0  0  0  0  0  0  0  0  0  0  0  0
   40.9620   28.1440   42.8260 C   0  0  0  0  0  0  0  0  0  0  0  0
   39.9460   28.6870   42.1090 C   0  0  0  0  0  0  0  0  0  0  0  0
   38.6310   28.2760   42.3140 C   0  0  0  0  0  0  0  0  0  0  0  0
   35.4220   27.8470   42.2400 H   0  0  0  0  0  0  0  0  0  0  0  0
   36.6430   26.3920   43.9140 H   0  0  0  0  0  0  0  0  0  0  0  0
   39.2490   25.9960   44.7360 H   0  0  0  0  0  0  0  0  0  0  0  0
   41.5200   26.7120   44.3760 H   0  0  0  0  0  0  0  0  0  0  0  0
   41.9990   28.4300   42.7030 H   0  0  0  0  0  0  0  0  0  0  0  0
   40.1510   29.4510   41.3630 H   0  0  0  0  0  0  0  0  0  0  0  0
   37.9090   33.2760   40.0260 C   0  0  1  0  0  0  0  0  0  0  0  0
   38.9530   33.5440   41.0600 C   0  0  0  0  0  0  0  0  0  0  0  0
   39.2610   33.7040   39.5980 C   0  0  1  0  0  0  0  0  0  0  0  0
   37.0700   34.0220   40.0060 H   0  0  0  0  0  0  0  0  0  0  0  0
   38.9420   34.5050   41.6140 H   0  0  0  0  0  0  0  0  0  0  0  0
   39.3830   32.6830   41.5850 H   0  0  0  0  0  0  0  0  0  0  0  0
   39.3360   34.7050   39.1230 H   0  0  0  0  0  0  0  0  0  0  0  0
   40.2220   32.6650   39.0480 C   0  0  0  0  0  0  0  0  0  0  0  0
   40.3910   32.2300   37.7120 C   0  0  0  0  0  0  0  0  0  0  0  0
   41.3230   31.2480   37.5470 C   0  0  0  0  0  0  0  0  0  0  0  0
   42.0520   30.7060   38.5630 C   0  0  0  0  0  0  0  0  0  0  0  0
   41.3950   31.6760   40.0760 S   0  0  0  0  0  0  0  0  0  0  0  0
  1  6  2  0  0  0  0
  1  2  1  0  0  0  0
  2  3  2  0  0  0  0
  3  4  1  0  0  0  0
  3  9  1  0  0  0  0
  5 24  1  0  0  0  0
  5  4  2  0  0  0  0
  6  5  1  0  0  0  0
  7  1  1  0  0  0  0
  8  2  1  0  0  0  0
  9 17  1  0  0  0  0
  9 10  2  0  0  0  0
 10 11  1  0  0  0  0
 11 12  1  0  0  0  0
 11 19  1  0  0  0  0
 12 13  1  0  0  0  0
 13 20  1  0  0  0  0
 14 13  2  0  0  0  0
 14 21  1  0  0  0  0
 15 14  1  0  0  0  0
 16 17  1  0  0  0  0
 16 15  2  0  0  0  0
 17 12  2  0  0  0  0
 18 10  1  0  0  0  0
 22 15  1  0  0  0  0
 23 16  1  0  0  0  0
 24 27  1  6  0  0  0
 24 25  1  0  0  0  0
 25 29  1  0  0  0  0
 25 28  1  0  0  0  0
 26 30  1  6  0  0  0
 26 24  1  0  0  0  0
 26 25  1  0  0  0  0
 31 26  1  0  0  0  0
 31 35  1  0  0  0  0
 32 31  2  0  0  0  0
 33 32  1  0  0  0  0
 33 34  2  0  0  0  0
 34 35  1  0  0  0  0
M  END
>  <minimizedAffinity>
-5.61559725

>  <minimizedRMSD>
3.30246687

$$$$
