
 OpenBabel03242509273D

 44 48  0  0  0  0  0  0  0  0999 V2000
   35.9780   29.9920   40.9320 C   0  0  0  0  0  0  0  0  0  0  0  0
   35.3510   30.5020   41.7150 H   0  0  0  0  0  0  0  0  0  0  0  0
   36.5900   30.7970   40.4750 H   0  0  0  0  0  0  0  0  0  0  0  0
   38.4290   28.1070   42.6050 C   0  0  0  0  0  0  0  0  0  0  0  0
   37.3530   27.2680   42.6950 C   0  0  0  0  0  0  0  0  0  0  0  0
   36.2920   27.9120   42.0540 C   0  0  0  0  0  0  0  0  0  0  0  0
   36.8100   29.0740   41.6350 N   0  0  0  0  0  0  0  0  0  0  0  0
   38.0600   29.2290   41.9370 N   0  0  0  0  0  0  0  0  0  0  0  0
   37.3560   26.3010   43.1770 H   0  0  0  0  0  0  0  0  0  0  0  0
   35.3100   27.4760   41.9730 H   0  0  0  0  0  0  0  0  0  0  0  0
   41.3380   26.4890   44.2920 C   0  0  0  0  0  0  0  0  0  0  0  0
   40.0450   26.6800   43.7920 C   0  0  0  0  0  0  0  0  0  0  0  0
   39.7600   27.8790   43.1270 C   0  0  0  0  0  0  0  0  0  0  0  0
   40.7300   28.8200   42.9790 N   0  0  0  0  0  0  0  0  0  0  0  0
   41.9720   28.5700   43.4910 C   0  0  0  0  0  0  0  0  0  0  0  0
   42.2700   27.4350   44.1310 N   0  0  0  0  0  0  0  0  0  0  0  0
   41.4970   25.5430   44.7970 H   0  0  0  0  0  0  0  0  0  0  0  0
   39.2890   25.9150   43.9220 H   0  0  0  0  0  0  0  0  0  0  0  0
   43.0480   29.5260   43.3700 C   0  0  0  0  0  0  0  0  0  0  0  0
   43.6230   30.3650   44.2330 C   0  0  0  0  0  3  0  0  0  0  0  0
   44.6500   31.1950   43.8870 C   0  0  0  0  0  3  0  0  0  0  0  0
   45.0380   31.0480   42.4510 C   0  0  0  0  0  3  0  0  0  0  0  0
   43.8550   29.7310   41.8300 S   0  0  0  0  0  0  0  0  0  0  0  0
   35.1270   29.3980   39.8540 C   0  0  0  0  0  0  0  0  0  0  0  0
   34.6910   28.4710   40.2000 H   0  0  0  0  0  0  0  0  0  0  0  0
   34.3770   30.2530   39.7370 H   0  0  0  0  0  0  0  0  0  0  0  0
   35.7630   29.3650   38.5200 C   0  0  0  0  0  0  0  0  0  0  0  0
   37.0900   29.5050   38.2210 C   0  0  0  0  0  0  0  0  0  0  0  0
   37.6310   29.5360   36.9680 C   0  0  0  0  0  0  0  0  0  0  0  0
   36.8040   29.4200   35.8740 C   0  0  0  0  0  0  0  0  0  0  0  0
   35.4510   29.2750   36.1060 C   0  0  0  0  0  0  0  0  0  0  0  0
   34.6790   29.1690   34.9750 C   0  0  0  0  0  0  0  0  0  0  0  0
   33.3210   29.0200   35.0950 C   0  0  0  0  0  0  0  0  0  0  0  0
   32.7550   28.9780   36.3500 C   0  0  0  0  0  0  0  0  0  0  0  0
   33.5800   29.0890   37.4340 C   0  0  0  0  0  0  0  0  0  0  0  0
   34.9250   29.2440   37.3960 C   0  0  0  0  0  0  0  0  0  0  0  0
   37.7400   29.5960   39.0980 H   0  0  0  0  0  0  0  0  0  0  0  0
   38.7020   29.6520   36.9000 H   0  0  0  0  0  0  0  0  0  0  0  0
   37.2450   29.4480   34.8970 H   0  0  0  0  0  0  0  0  0  0  0  0
   35.0970   29.1970   33.9720 H   0  0  0  0  0  0  0  0  0  0  0  0
   32.7190   28.9390   34.1950 H   0  0  0  0  0  0  0  0  0  0  0  0
   31.6840   28.8590   36.4440 H   0  0  0  0  0  0  0  0  0  0  0  0
   32.9510   29.0220   38.6700 O   0  0  0  0  0  0  0  0  0  0  0  0
   32.5550   28.1540   39.0120 H   0  0  0  0  0  0  0  0  0  0  0  0
  1  7  1  0  0  0  0
  1  2  1  0  0  0  0
  3  1  1  0  0  0  0
  4  5  1  0  0  0  0
  4 13  1  0  0  0  0
  5  9  1  0  0  0  0
  6  5  2  0  0  0  0
  7  8  1  0  0  0  0
  7  6  1  0  0  0  0
  8  4  2  0  0  0  0
 10  6  1  0  0  0  0
 11 17  1  0  0  0  0
 12 18  1  0  0  0  0
 12 11  2  0  0  0  0
 13 12  1  0  0  0  0
 14 13  2  0  0  0  0
 14 15  1  0  0  0  0
 15 16  2  0  0  0  0
 16 11  1  0  0  0  0
 19 15  1  0  0  0  0
 19 20  2  0  0  0  0
 21 20  1  0  0  0  0
 22 21  2  0  0  0  0
 23 22  1  0  0  0  0
 23 19  1  0  0  0  0
 24 25  1  0  0  0  0
 24  1  1  0  0  0  0
 26 24  1  0  0  0  0
 27 24  1  0  0  0  0
 28 27  1  0  0  0  0
 28 37  1  0  0  0  0
 29 28  2  0  0  0  0
 30 31  2  0  0  0  0
 30 29  1  0  0  0  0
 31 36  1  0  0  0  0
 32 33  2  0  0  0  0
 32 31  1  0  0  0  0
 33 34  1  0  0  0  0
 34 42  1  0  0  0  0
 34 35  2  0  0  0  0
 35 43  1  0  0  0  0
 36 35  1  0  0  0  0
 36 27  2  0  0  0  0
 38 29  1  0  0  0  0
 39 30  1  0  0  0  0
 40 32  1  0  0  0  0
 41 33  1  0  0  0  0
 43 44  1  0  0  0  0
M  END
>  <minimizedAffinity>
-5.94623804

>  <minimizedRMSD>
0.360299677

$$$$
