
 OpenBabel03242509143D

 21 23  0  0  1  0  0  0  0  0999 V2000
   38.8720   28.9540   41.5270 C   0  0  1  0  0  0  0  0  0  0  0  0
   38.7860   29.0590   42.9650 C   0  0  0  0  0  0  0  0  0  0  0  0
   37.9090   28.0230   42.3490 C   0  0  2  0  0  0  0  0  0  0  0  0
   39.7160   28.4100   41.0630 H   0  0  0  0  0  0  0  0  0  0  0  0
   38.2030   29.9370   43.3720 H   0  0  0  0  0  0  0  0  0  0  0  0
   39.5940   28.7770   43.6400 H   0  0  0  0  0  0  0  0  0  0  0  0
   36.8490   28.1830   42.1750 H   0  0  0  0  0  0  0  0  0  0  0  0
   38.1350   29.9010   40.6110 C   0  0  0  0  0  0  0  0  0  0  0  0
   37.9200   29.4620   39.2910 C   0  0  0  0  0  0  0  0  0  0  0  0
   37.2550   30.3450   38.4560 C   0  0  0  0  0  0  0  0  0  0  0  0
   36.8540   31.5550   38.9280 N   0  0  0  0  0  0  0  0  0  0  0  0
   37.0780   31.9440   40.2010 C   0  0  0  0  0  0  0  0  0  0  0  0
   37.7250   31.1050   41.0480 N   0  0  0  0  0  0  0  0  0  0  0  0
   38.2470   28.4970   38.9350 H   0  0  0  0  0  0  0  0  0  0  0  0
   37.0510   30.0690   37.4100 H   0  0  0  0  0  0  0  0  0  0  0  0
   36.7570   32.9080   40.5740 H   0  0  0  0  0  0  0  0  0  0  0  0
   38.3920   26.6490   42.5290 C   0  0  0  0  0  0  0  0  0  0  0  0
   37.9700   25.4890   41.9980 C   0  0  0  0  0  0  0  0  0  0  0  0
   38.5690   24.3160   42.3050 C   0  0  0  0  0  0  0  0  0  0  0  0
   39.6600   24.4110   43.2190 C   0  0  0  0  0  0  0  0  0  0  0  0
   39.7450   26.2450   43.5800 S   0  0  0  0  0  0  0  0  0  0  0  0
  1  4  1  6  0  0  0
  1  3  1  0  0  0  0
  1  2  1  0  0  0  0
  2  5  1  0  0  0  0
  2  6  1  0  0  0  0
  3  7  1  6  0  0  0
  3 17  1  0  0  0  0
  3  2  1  0  0  0  0
  8 13  1  0  0  0  0
  8  1  1  0  0  0  0
  9  8  2  0  0  0  0
 10 11  2  0  0  0  0
 10  9  1  0  0  0  0
 11 12  1  0  0  0  0
 12 16  1  0  0  0  0
 12 13  2  0  0  0  0
 14  9  1  0  0  0  0
 15 10  1  0  0  0  0
 17 21  1  0  0  0  0
 18 19  1  0  0  0  0
 18 17  2  0  0  0  0
 19 20  2  0  0  0  0
 20 21  1  0  0  0  0
M  END
>  <minimizedAffinity>
-3.80765224

>  <minimizedRMSD>
3.04470348

$$$$
