
 OpenBabel03242508303D

 27 30  0  0  0  0  0  0  0  0999 V2000
   39.8770   32.9100   39.7600 O   0  0  0  0  0  0  0  0  0  0  0  0
   39.6640   36.4910   40.2390 C   0  0  0  0  0  0  0  0  0  0  0  0
   40.8600   36.7160   40.9720 C   0  0  0  0  0  0  0  0  0  0  0  0
   41.6380   35.5760   41.2320 C   0  0  0  0  0  0  0  0  0  0  0  0
   41.2310   34.3620   40.7910 N   0  0  0  0  0  0  0  0  0  0  0  0
   40.0880   34.2140   40.1010 C   0  0  0  0  0  0  0  0  0  0  0  0
   39.3230   35.2700   39.8350 N   0  0  0  0  0  0  0  0  0  0  0  0
   39.0500   37.3610   40.0290 H   0  0  0  0  0  0  0  0  0  0  0  0
   41.0830   37.7160   41.2690 H   0  0  0  0  0  0  0  0  0  0  0  0
   42.8610   35.7710   41.9740 C   0  0  0  0  0  0  0  0  0  0  0  0
   44.1070   35.2230   41.8350 C   0  0  0  0  0  0  0  0  0  0  0  0
   45.1000   35.6010   42.7010 C   0  0  0  0  0  0  0  0  0  0  0  0
   44.7350   36.5510   43.6900 C   0  0  0  0  0  0  0  0  0  0  0  0
   42.9600   36.8620   43.3250 S   0  0  0  0  0  0  0  0  0  0  0  0
   38.8080   32.2080   40.2930 C   0  0  0  0  0  0  0  0  0  0  0  0
   37.4660   32.4300   40.2160 N   0  0  0  0  0  0  0  0  0  0  0  0
   36.8470   31.4920   40.8860 O   0  0  0  0  0  0  0  0  0  0  0  0
   37.7670   30.6880   41.3810 C   0  0  0  0  0  0  0  0  0  0  0  0
   38.9940   31.0950   41.0380 N   0  0  0  0  0  0  0  0  0  0  0  0
   37.4580   29.5160   42.1930 C   0  0  0  0  0  0  0  0  0  0  0  0
   36.6220   28.4640   41.8380 C   0  0  0  0  0  0  0  0  0  0  0  0
   36.5730   27.5410   42.8550 C   0  0  0  0  0  0  0  0  0  0  0  0
   37.4160   28.0880   43.8310 C   0  0  0  0  0  0  0  0  0  0  0  0
   37.8860   29.2140   43.3860 O   0  0  0  0  0  0  0  0  0  0  0  0
   36.0890   28.4050   40.8800 H   0  0  0  0  0  0  0  0  0  0  0  0
   36.0110   26.6170   42.8790 H   0  0  0  0  0  0  0  0  0  0  0  0
   37.6340   27.6440   44.7880 H   0  0  0  0  0  0  0  0  0  0  0  0
  1  6  1  0  0  0  0
  1 15  1  0  0  0  0
  2  3  1  0  0  0  0
  3  4  2  0  0  0  0
  3  9  1  0  0  0  0
  4 10  1  0  0  0  0
  5  4  1  0  0  0  0
  6  5  2  0  0  0  0
  7  6  1  0  0  0  0
  7  2  2  0  0  0  0
  8  2  1  0  0  0  0
 10 14  1  0  0  0  0
 11 10  2  0  0  0  0
 11 12  1  0  0  0  0
 12 13  2  0  0  0  0
 14 13  1  0  0  0  0
 15 19  1  0  0  0  0
 16 15  2  0  0  0  0
 16 17  1  0  0  0  0
 17 18  1  0  0  0  0
 18 20  1  0  0  0  0
 19 18  2  0  0  0  0
 20 24  1  0  0  0  0
 21 20  2  0  0  0  0
 21 22  1  0  0  0  0
 22 26  1  0  0  0  0
 22 23  2  0  0  0  0
 23 27  1  0  0  0  0
 24 23  1  0  0  0  0
 25 21  1  0  0  0  0
M  END
>  <minimizedAffinity>
-6.39283466

>  <minimizedRMSD>
8.92350292

$$$$
