
 OpenBabel03242506583D

 39 43  0  0  0  0  0  0  0  0999 V2000
   39.5940   32.3520   41.0680 C   0  0  0  0  0  0  0  0  0  0  0  0
   40.6690   31.8340   41.8120 C   0  0  0  0  0  0  0  0  0  0  0  0
   40.6860   30.5530   42.3550 C   0  0  0  0  0  0  0  0  0  0  0  0
   39.5780   29.7390   42.1500 C   0  0  0  0  0  0  0  0  0  0  0  0
   38.5180   30.1970   41.4370 C   0  0  0  0  0  0  0  0  0  0  0  0
   37.4650   29.3680   41.2580 C   0  0  0  0  0  0  0  0  0  0  0  0
   36.3300   29.7900   40.5150 C   0  0  0  0  0  0  0  0  0  0  0  0
   36.3920   31.0940   40.0010 C   0  0  0  0  0  0  0  0  0  0  0  0
   37.4900   31.8710   40.2250 C   0  0  0  0  0  0  0  0  0  0  0  0
   38.5810   31.4610   40.9420 C   0  0  0  0  0  0  0  0  0  0  0  0
   41.5650   32.4300   42.0040 H   0  0  0  0  0  0  0  0  0  0  0  0
   41.5420   30.2100   42.9180 H   0  0  0  0  0  0  0  0  0  0  0  0
   39.5450   28.7160   42.5620 H   0  0  0  0  0  0  0  0  0  0  0  0
   35.4540   29.2320   40.3100 H   0  0  0  0  0  0  0  0  0  0  0  0
   35.5610   31.5010   39.4150 H   0  0  0  0  0  0  0  0  0  0  0  0
   37.4860   32.8880   39.7990 H   0  0  0  0  0  0  0  0  0  0  0  0
   39.7630   33.6870   40.6000 C   0  0  0  0  0  0  0  0  0  0  0  0
   38.8810   34.7780   40.6360 C   0  0  0  0  0  0  0  0  0  0  0  0
   39.2340   36.0370   40.1400 C   0  0  0  0  0  0  0  0  0  0  0  0
   40.4850   36.1490   39.6170 N   0  0  0  0  0  0  0  0  0  0  0  0
   41.3270   35.1330   39.5750 C   0  0  0  0  0  0  0  0  0  0  0  0
   40.9720   33.9410   40.0530 N   0  0  0  0  0  0  0  0  0  0  0  0
   37.9220   34.5110   41.0890 H   0  0  0  0  0  0  0  0  0  0  0  0
   38.4860   36.8080   40.2140 H   0  0  0  0  0  0  0  0  0  0  0  0
   42.2990   35.3210   39.1390 H   0  0  0  0  0  0  0  0  0  0  0  0
   37.2630   28.0200   41.7260 C   0  0  0  0  0  0  0  0  0  0  0  0
   36.6680   27.5990   42.9000 C   0  0  0  0  0  0  0  0  0  0  0  0
   36.4770   26.2920   43.2730 C   0  0  0  0  0  0  0  0  0  0  0  0
   36.8890   25.2870   42.4630 C   0  0  0  0  0  0  0  0  0  0  0  0
   37.4800   25.7080   41.3000 C   0  0  0  0  0  0  0  0  0  0  0  0
   37.6540   26.9930   40.9560 N   0  0  0  0  0  0  0  0  0  0  0  0
   36.3320   28.4140   43.5630 H   0  0  0  0  0  0  0  0  0  0  0  0
   35.9950   26.0710   44.2230 H   0  0  0  0  0  0  0  0  0  0  0  0
   36.7870   24.2510   42.6630 H   0  0  0  0  0  0  0  0  0  0  0  0
   38.0140   24.7270   40.2630 C   0  0  0  0  0  0  0  0  0  0  0  0
   38.0890   23.4190   40.5130 C   0  0  0  0  0  0  0  0  0  0  0  0
   38.5790   22.5680   39.5630 C   0  0  0  0  0  0  0  0  0  0  0  0
   38.9830   23.2240   38.3240 C   0  0  0  0  0  0  0  0  0  0  0  0
   38.5900   25.0430   38.7030 S   0  0  0  0  0  0  0  0  0  0  0  0
  1  2  1  0  0  0  0
  2 11  1  0  0  0  0
  2  3  2  0  0  0  0
  3 12  1  0  0  0  0
  4  3  1  0  0  0  0
  4 13  1  0  0  0  0
  5  4  2  0  0  0  0
  6  5  1  0  0  0  0
  6 26  1  0  0  0  0
  7  6  2  0  0  0  0
  8  9  2  0  0  0  0
  8  7  1  0  0  0  0
  9 10  1  0  0  0  0
 10  1  2  0  0  0  0
 10  5  1  0  0  0  0
 14  7  1  0  0  0  0
 15  8  1  0  0  0  0
 16  9  1  0  0  0  0
 17 18  1  0  0  0  0
 17  1  1  0  0  0  0
 18 23  1  0  0  0  0
 19 24  1  0  0  0  0
 19 18  2  0  0  0  0
 20 19  1  0  0  0  0
 21 20  2  0  0  0  0
 21 22  1  0  0  0  0
 22 17  2  0  0  0  0
 25 21  1  0  0  0  0
 26 27  1  0  0  0  0
 27 28  2  0  0  0  0
 27 32  1  0  0  0  0
 28 33  1  0  0  0  0
 29 34  1  0  0  0  0
 29 28  1  0  0  0  0
 30 29  2  0  0  0  0
 31 30  1  0  0  0  0
 31 26  2  0  0  0  0
 35 36  2  0  0  0  0
 35 30  1  0  0  0  0
 37 36  1  0  0  0  0
 38 39  1  0  0  0  0
 38 37  2  0  0  0  0
 39 35  1  0  0  0  0
M  END
>  <minimizedAffinity>
-6.57638025

>  <minimizedRMSD>
1.39868188

$$$$
