
 OpenBabel03242507543D

 23 25  0  0  0  0  0  0  0  0999 V2000
   37.1370   30.1580   40.3500 C   0  0  0  0  0  0  0  0  0  0  0  0
   37.3730   31.5290   40.5160 C   0  0  0  0  0  0  0  0  0  0  0  0
   37.3530   32.3010   39.3560 C   0  0  0  0  0  0  0  0  0  0  0  0
   37.1080   31.6910   38.1400 C   0  0  0  0  0  0  0  0  0  0  0  0
   36.8840   30.3600   38.0250 C   0  0  0  0  0  0  0  0  0  0  0  0
   36.9030   29.6070   39.1430 N   0  0  0  0  0  0  0  0  0  0  0  0
   37.5640   31.9900   41.4750 H   0  0  0  0  0  0  0  0  0  0  0  0
   37.5220   33.3660   39.3630 H   0  0  0  0  0  0  0  0  0  0  0  0
   37.0770   32.2360   37.1900 H   0  0  0  0  0  0  0  0  0  0  0  0
   37.9740   28.8850   43.6860 C   0  0  0  0  0  0  0  0  0  0  0  0
   37.1560   27.7380   43.8040 C   0  0  0  0  0  0  0  0  0  0  0  0
   36.3170   27.4100   42.7260 C   0  0  0  0  0  0  0  0  0  0  0  0
   36.3520   28.2270   41.6370 N   0  0  0  0  0  0  0  0  0  0  0  0
   37.1480   29.3180   41.5550 C   0  0  0  0  0  0  0  0  0  0  0  0
   37.9380   29.6200   42.5810 N   0  0  0  0  0  0  0  0  0  0  0  0
   38.6240   29.1420   44.5170 H   0  0  0  0  0  0  0  0  0  0  0  0
   37.1540   27.1110   44.6840 H   0  0  0  0  0  0  0  0  0  0  0  0
   35.6670   26.5440   42.7540 H   0  0  0  0  0  0  0  0  0  0  0  0
   36.6280   29.6840   36.8030 C   0  0  0  0  0  0  0  0  0  0  0  0
   36.6260   30.2110   35.5130 C   0  0  0  0  0  0  0  0  0  0  0  0
   36.3530   29.3900   34.4500 C   0  0  0  0  0  0  0  0  0  0  0  0
   36.0810   27.9980   34.7650 C   0  0  0  0  0  0  0  0  0  0  0  0
   36.2300   27.9270   36.5890 S   0  0  0  0  0  0  0  0  0  0  0  0
  1  2  1  0  0  0  0
  1 14  1  0  0  0  0
  2  7  1  0  0  0  0
  3  8  1  0  0  0  0
  3  2  2  0  0  0  0
  4  3  1  0  0  0  0
  5  4  2  0  0  0  0
  5  6  1  0  0  0  0
  6  1  2  0  0  0  0
  9  4  1  0  0  0  0
 10 11  1  0  0  0  0
 10 16  1  0  0  0  0
 11 17  1  0  0  0  0
 12 18  1  0  0  0  0
 12 11  2  0  0  0  0
 13 12  1  0  0  0  0
 14 13  2  0  0  0  0
 14 15  1  0  0  0  0
 15 10  2  0  0  0  0
 19  5  1  0  0  0  0
 20 19  2  0  0  0  0
 21 22  2  0  0  0  0
 21 20  1  0  0  0  0
 22 23  1  0  0  0  0
 23 19  1  0  0  0  0
M  END
>  <minimizedAffinity>
-4.40331602

>  <minimizedRMSD>
1.26997066

$$$$
