
 OpenBabel03242509323D

 17 18  0  0  0  0  0  0  0  0999 V2000
   37.6210   28.6610   43.5930 C   0  0  0  0  0  0  0  0  0  0  0  0
   38.2280   27.3980   43.7490 C   0  0  0  0  0  0  0  0  0  0  0  0
   38.4080   26.6180   42.6070 C   0  0  0  0  0  0  0  0  0  0  0  0
   37.9900   27.1120   41.3960 N   0  0  0  0  0  0  0  0  0  0  0  0
   37.4130   28.3300   41.2980 C   0  0  0  0  0  0  0  0  0  0  0  0
   37.2340   29.0860   42.3790 N   0  0  0  0  0  0  0  0  0  0  0  0
   37.4820   29.2660   44.4820 H   0  0  0  0  0  0  0  0  0  0  0  0
   38.5320   27.0750   44.7370 H   0  0  0  0  0  0  0  0  0  0  0  0
   36.9560   28.8950   40.0480 C   0  0  0  0  0  0  0  0  0  0  0  0
   35.7200   28.7670   39.4300 C   0  0  0  0  0  3  0  0  0  0  0  0
   35.5290   29.4020   38.2420 C   0  0  0  0  0  3  0  0  0  0  0  0
   36.5800   30.1290   37.7350 C   0  0  0  0  0  3  0  0  0  0  0  0
   37.9210   29.9120   39.0000 S   0  0  0  0  0  0  0  0  0  0  0  0
   39.0430   25.2820   42.7240 C   0  0  0  0  0  0  0  0  0  0  0  0
   39.9070   25.1520   41.6630 F   0  0  0  0  0  0  0  0  0  0  0  0
   39.7700   25.1480   43.8850 F   0  0  0  0  0  0  0  0  0  0  0  0
   38.1010   24.2490   42.6750 F   0  0  0  0  0  0  0  0  0  0  0  0
  1  2  1  0  0  0  0
  1  7  1  0  0  0  0
  2  8  1  0  0  0  0
  3 14  1  0  0  0  0
  3  2  2  0  0  0  0
  4  3  1  0  0  0  0
  5  4  2  0  0  0  0
  5  6  1  0  0  0  0
  6  1  2  0  0  0  0
  9  5  1  0  0  0  0
 10  9  2  0  0  0  0
 11 10  1  0  0  0  0
 12 11  2  0  0  0  0
 12 13  1  0  0  0  0
 13  9  1  0  0  0  0
 14 16  1  0  0  0  0
 15 14  1  0  0  0  0
 17 14  1  0  0  0  0
M  END
>  <minimizedAffinity>
-4.10553789

>  <minimizedRMSD>
1.56656384

$$$$
