
 OpenBabel03242509313D

 17 18  0  0  0  0  0  0  0  0999 V2000
   37.8060   28.5660   43.5370 C   0  0  0  0  0  0  0  0  0  0  0  0
   38.3810   27.2870   43.6870 C   0  0  0  0  0  0  0  0  0  0  0  0
   38.3980   26.4470   42.5730 C   0  0  0  0  0  0  0  0  0  0  0  0
   37.8620   26.9020   41.3940 N   0  0  0  0  0  0  0  0  0  0  0  0
   37.3230   28.1380   41.3010 C   0  0  0  0  0  0  0  0  0  0  0  0
   37.2980   28.9500   42.3550 N   0  0  0  0  0  0  0  0  0  0  0  0
   37.7930   29.2160   44.4050 H   0  0  0  0  0  0  0  0  0  0  0  0
   38.7840   26.9970   44.6500 H   0  0  0  0  0  0  0  0  0  0  0  0
   36.7460   28.6630   40.0840 C   0  0  0  0  0  0  0  0  0  0  0  0
   35.4160   28.6920   39.6870 C   0  0  0  0  0  3  0  0  0  0  0  0
   35.1200   29.2480   38.4810 C   0  0  0  0  0  3  0  0  0  0  0  0
   36.1640   29.7430   37.7360 C   0  0  0  0  0  3  0  0  0  0  0  0
   37.6550   29.4130   38.7900 S   0  0  0  0  0  0  0  0  0  0  0  0
   38.9930   25.0930   42.6850 C   0  0  0  0  0  0  0  0  0  0  0  0
   39.8220   24.9260   41.6020 F   0  0  0  0  0  0  0  0  0  0  0  0
   39.7470   24.9450   43.8270 F   0  0  0  0  0  0  0  0  0  0  0  0
   38.0180   24.0910   42.6710 F   0  0  0  0  0  0  0  0  0  0  0  0
  1  2  1  0  0  0  0
  1  7  1  0  0  0  0
  2  8  1  0  0  0  0
  3 14  1  0  0  0  0
  3  2  2  0  0  0  0
  4  3  1  0  0  0  0
  5  4  2  0  0  0  0
  5  6  1  0  0  0  0
  6  1  2  0  0  0  0
  9  5  1  0  0  0  0
 10  9  2  0  0  0  0
 11 10  1  0  0  0  0
 12 11  2  0  0  0  0
 12 13  1  0  0  0  0
 13  9  1  0  0  0  0
 14 16  1  0  0  0  0
 15 14  1  0  0  0  0
 17 14  1  0  0  0  0
M  END
>  <minimizedAffinity>
-4.11254454

>  <minimizedRMSD>
1.52770591

$$$$
