
 OpenBabel03242509313D

 17 18  0  0  0  0  0  0  0  0999 V2000
   37.5030   28.5970   43.6160 C   0  0  0  0  0  0  0  0  0  0  0  0
   37.3950   27.2200   43.3320 C   0  0  0  0  0  0  0  0  0  0  0  0
   37.2610   26.8400   41.9960 C   0  0  0  0  0  0  0  0  0  0  0  0
   37.2410   27.8160   41.0300 N   0  0  0  0  0  0  0  0  0  0  0  0
   37.3480   29.1230   41.3540 C   0  0  0  0  0  0  0  0  0  0  0  0
   37.4760   29.5010   42.6230 N   0  0  0  0  0  0  0  0  0  0  0  0
   37.6070   28.8890   44.6550 H   0  0  0  0  0  0  0  0  0  0  0  0
   37.4190   26.5070   44.1480 H   0  0  0  0  0  0  0  0  0  0  0  0
   37.3320   30.1880   40.3750 C   0  0  0  0  0  0  0  0  0  0  0  0
   37.0370   31.5330   40.5500 C   0  0  0  0  0  3  0  0  0  0  0  0
   37.0910   32.3470   39.4610 C   0  0  0  0  0  3  0  0  0  0  0  0
   37.4350   31.7760   38.2580 C   0  0  0  0  0  3  0  0  0  0  0  0
   37.7010   29.9870   38.6770 S   0  0  0  0  0  0  0  0  0  0  0  0
   37.1450   25.4020   41.6510 C   0  0  0  0  0  0  0  0  0  0  0  0
   36.4810   25.3280   40.4500 F   0  0  0  0  0  0  0  0  0  0  0  0
   38.3720   24.7990   41.4980 F   0  0  0  0  0  0  0  0  0  0  0  0
   36.4240   24.6890   42.6150 F   0  0  0  0  0  0  0  0  0  0  0  0
  1  7  1  0  0  0  0
  2  1  1  0  0  0  0
  2  8  1  0  0  0  0
  3  2  2  0  0  0  0
  4  5  2  0  0  0  0
  4  3  1  0  0  0  0
  5  6  1  0  0  0  0
  6  1  2  0  0  0  0
  9 10  2  0  0  0  0
  9  5  1  0  0  0  0
 11 10  1  0  0  0  0
 12 13  1  0  0  0  0
 12 11  2  0  0  0  0
 13  9  1  0  0  0  0
 14  3  1  0  0  0  0
 14 17  1  0  0  0  0
 15 14  1  0  0  0  0
 16 14  1  0  0  0  0
M  END
>  <minimizedAffinity>
-4.56125879

>  <minimizedRMSD>
1.42318928

$$$$
