
 OpenBabel03242508443D

 34 37  0  0  1  0  0  0  0  0999 V2000
   37.9540   27.3600   42.7550 C   0  0  2  0  0  0  0  0  0  0  0  0
   39.0210   27.6340   43.7180 C   0  0  0  0  0  0  0  0  0  0  0  0
   39.7760   26.3260   43.8590 C   0  0  0  0  0  0  0  0  0  0  0  0
   39.3050   25.4460   42.7440 C   0  0  0  0  0  0  0  0  0  0  0  0
   38.5560   26.3650   41.7810 C   0  0  1  0  0  0  0  0  0  0  0  0
   37.1360   26.7660   43.2610 H   0  0  0  0  0  0  0  0  0  0  0  0
   39.7350   28.4190   43.4920 H   0  0  0  0  0  0  0  0  0  0  0  0
   38.5650   27.8460   44.7190 H   0  0  0  0  0  0  0  0  0  0  0  0
   39.6570   25.8720   44.8500 H   0  0  0  0  0  0  0  0  0  0  0  0
   40.8640   26.4800   43.7030 H   0  0  0  0  0  0  0  0  0  0  0  0
   38.6890   24.6520   43.1650 H   0  0  0  0  0  0  0  0  0  0  0  0
   40.1430   24.9560   42.1910 H   0  0  0  0  0  0  0  0  0  0  0  0
   39.2180   26.8240   41.0530 H   0  0  0  0  0  0  0  0  0  0  0  0
   38.0240   29.7670   41.9360 C   0  0  0  0  0  0  0  0  0  0  0  0
   37.3800   28.5070   42.0780 C   0  0  0  0  0  0  0  0  0  0  0  0
   36.1160   28.3500   41.5230 C   0  0  0  0  0  0  0  0  0  0  0  0
   35.5450   29.4230   40.8650 N   0  0  0  0  0  0  0  0  0  0  0  0
   36.2000   30.6260   40.7490 C   0  0  0  0  0  0  0  0  0  0  0  0
   37.4540   30.7860   41.2970 N   0  0  0  0  0  0  0  0  0  0  0  0
   38.9880   29.8790   42.3610 H   0  0  0  0  0  0  0  0  0  0  0  0
   35.5240   27.4450   41.5630 H   0  0  0  0  0  0  0  0  0  0  0  0
   35.7480   31.4430   40.2380 H   0  0  0  0  0  0  0  0  0  0  0  0
   37.5540   25.4310   41.1940 C   0  0  0  0  0  0  0  0  0  0  0  0
   36.8860   24.5190   41.9220 N   0  0  0  0  0  0  0  0  0  0  0  0
   36.0930   23.8720   41.0920 O   0  0  0  0  0  0  0  0  0  0  0  0
   36.2610   24.3630   39.8790 C   0  0  0  0  0  0  0  0  0  0  0  0
   37.1640   25.3390   39.8950 N   0  0  0  0  0  0  0  0  0  0  0  0
   35.5230   23.8600   38.7190 C   0  0  0  0  0  0  0  0  0  0  0  0
   34.4750   22.9740   38.9120 C   0  0  0  0  0  0  0  0  0  0  0  0
   33.8310   22.5460   37.7680 C   0  0  0  0  0  0  0  0  0  0  0  0
   34.1890   22.9590   36.5190 N   0  0  0  0  0  0  0  0  0  0  0  0
   35.2260   23.8320   36.3760 C   0  0  0  0  0  0  0  0  0  0  0  0
   35.5470   24.1870   35.4250 H   0  0  0  0  0  0  0  0  0  0  0  0
   35.8860   24.2760   37.4710 N   0  0  0  0  0  0  0  0  0  0  0  0
  1  6  1  1  0  0  0
  1  2  1  0  0  0  0
  2  3  1  0  0  0  0
  2  8  1  0  0  0  0
  3  9  1  0  0  0  0
  4 11  1  0  0  0  0
  4  3  1  0  0  0  0
  5 13  1  6  0  0  0
  5  4  1  0  0  0  0
  5  1  1  0  0  0  0
  7  2  1  0  0  0  0
 10  3  1  0  0  0  0
 12  4  1  0  0  0  0
 14 15  1  0  0  0  0
 14 20  1  0  0  0  0
 15  1  1  0  0  0  0
 16 21  1  0  0  0  0
 16 15  2  0  0  0  0
 17 16  1  0  0  0  0
 18 17  2  0  0  0  0
 18 19  1  0  0  0  0
 19 14  2  0  0  0  0
 22 18  1  0  0  0  0
 23  5  1  0  0  0  0
 23 24  2  0  0  0  0
 25 24  1  0  0  0  0
 26 27  2  0  0  0  0
 26 25  1  0  0  0  0
 27 23  1  0  0  0  0
 28 29  1  0  0  0  0
 28 26  1  0  0  0  0
 30 29  2  0  0  0  0
 31 30  1  0  0  0  0
 32 31  2  0  0  0  0
 32 34  1  0  0  0  0
 33 32  1  0  0  0  0
 34 28  2  0  0  0  0
M  END
>  <minimizedAffinity>
-4.95442724

>  <minimizedRMSD>
0.554060757

$$$$
