
 OpenBabel03242509313D

 19 20  0  0  0  0  0  0  0  0999 V2000
   37.6340   28.6970   43.6270 C   0  0  0  0  0  0  0  0  0  0  0  0
   38.1290   27.3680   43.7380 C   0  0  0  0  0  0  0  0  0  0  0  0
   38.3180   26.6540   42.5370 C   0  0  0  0  0  0  0  0  0  0  0  0
   38.0150   27.2810   41.3480 N   0  0  0  0  0  0  0  0  0  0  0  0
   37.5520   28.5380   41.3020 C   0  0  0  0  0  0  0  0  0  0  0  0
   37.3650   29.2320   42.4230 N   0  0  0  0  0  0  0  0  0  0  0  0
   37.4820   29.2650   44.5390 H   0  0  0  0  0  0  0  0  0  0  0  0
   38.3480   26.9270   44.6840 H   0  0  0  0  0  0  0  0  0  0  0  0
   37.2660   29.1000   39.9860 C   0  0  0  0  0  0  0  0  0  0  0  0
   37.0730   30.4760   39.8190 C   0  0  0  0  0  3  0  0  0  0  0  0
   36.8060   30.9180   38.5290 C   0  0  0  0  0  3  0  0  0  0  0  0
   36.7430   30.0260   37.5030 N   0  0  0  0  0  0  0  0  0  0  0  0
   36.9320   28.7030   37.6800 C   0  0  0  0  0  0  0  0  0  0  0  0
   36.8830   27.9960   36.8690 H   0  0  0  0  0  0  0  0  0  0  0  0
   37.1960   28.2320   38.9340 N   0  0  0  0  0  0  0  0  0  0  0  0
   38.8310   25.2670   42.6010 C   0  0  0  0  0  0  0  0  0  0  0  0
   39.5980   25.0790   41.4820 F   0  0  0  0  0  0  0  0  0  0  0  0
   39.6260   25.0420   43.6900 F   0  0  0  0  0  0  0  0  0  0  0  0
   37.7930   24.3280   42.5930 F   0  0  0  0  0  0  0  0  0  0  0  0
  1  2  1  0  0  0  0
  1  7  1  0  0  0  0
  2  8  1  0  0  0  0
  3 16  1  0  0  0  0
  3  2  2  0  0  0  0
  4  3  1  0  0  0  0
  5  4  2  0  0  0  0
  5  6  1  0  0  0  0
  6  1  2  0  0  0  0
  9  5  1  0  0  0  0
 10  9  1  0  0  0  0
 11 10  2  0  0  0  0
 12 13  2  0  0  0  0
 12 11  1  0  0  0  0
 13 15  1  0  0  0  0
 14 13  1  0  0  0  0
 15  9  2  0  0  0  0
 16 18  1  0  0  0  0
 17 16  1  0  0  0  0
 19 16  1  0  0  0  0
M  END
>  <minimizedAffinity>
-4.09783888

>  <minimizedRMSD>
1.63277483

$$$$
