
 OpenBabel03242509003D

 23 25  0  0  1  0  0  0  0  0999 V2000
   36.2690   30.7650   41.0070 C   0  0  1  0  0  0  0  0  0  0  0  0
   37.1880   31.8500   40.5490 C   0  0  0  0  0  0  0  0  0  0  0  0
   36.6650   30.9040   39.5240 C   0  0  1  0  0  0  0  0  0  0  0  0
   35.2060   30.9890   41.2250 H   0  0  0  0  0  0  0  0  0  0  0  0
   38.2730   31.7680   40.7630 H   0  0  0  0  0  0  0  0  0  0  0  0
   36.8400   32.9010   40.5760 H   0  0  0  0  0  0  0  0  0  0  0  0
   35.8880   31.3490   38.8820 H   0  0  0  0  0  0  0  0  0  0  0  0
   38.6990   28.8500   43.0290 C   0  0  0  0  0  0  0  0  0  0  0  0
   38.0860   27.5690   43.0720 C   0  0  0  0  0  0  0  0  0  0  0  0
   36.8530   27.3880   42.3990 C   0  0  0  0  0  0  0  0  0  0  0  0
   36.3120   28.4400   41.7450 N   0  0  0  0  0  0  0  0  0  0  0  0
   36.9290   29.6520   41.7260 C   0  0  0  0  0  0  0  0  0  0  0  0
   38.1040   29.8610   42.3560 N   0  0  0  0  0  0  0  0  0  0  0  0
   39.6360   28.9600   43.5500 H   0  0  0  0  0  0  0  0  0  0  0  0
   38.4880   26.7190   43.5810 H   0  0  0  0  0  0  0  0  0  0  0  0
   36.3330   26.4550   42.3860 H   0  0  0  0  0  0  0  0  0  0  0  0
   37.5510   29.8840   38.9230 C   0  0  0  0  0  0  0  0  0  0  0  0
   36.9900   28.7860   38.2610 C   0  0  0  0  0  0  0  0  0  0  0  0
   37.9110   27.8820   37.7300 C   0  0  0  0  0  0  0  0  0  0  0  0
   39.2350   28.0260   37.8310 N   0  0  0  0  0  0  0  0  0  0  0  0
   39.7480   29.0900   38.4720 C   0  0  0  0  0  0  0  0  0  0  0  0
   40.7810   29.3650   38.6480 H   0  0  0  0  0  0  0  0  0  0  0  0
   38.8870   29.9790   38.9950 N   0  0  0  0  0  0  0  0  0  0  0  0
  1  4  1  1  0  0  0
  1 12  1  0  0  0  0
  2  6  1  0  0  0  0
  2  5  1  0  0  0  0
  2  1  1  0  0  0  0
  3  7  1  6  0  0  0
  3  2  1  0  0  0  0
  3  1  1  0  0  0  0
  8  9  1  0  0  0  0
  8 14  1  0  0  0  0
  9 15  1  0  0  0  0
 10  9  2  0  0  0  0
 11 10  1  0  0  0  0
 12 11  2  0  0  0  0
 12 13  1  0  0  0  0
 13  8  2  0  0  0  0
 16 10  1  0  0  0  0
 17 23  1  0  0  0  0
 17  3  1  0  0  0  0
 18 17  2  0  0  0  0
 19 20  2  0  0  0  0
 19 18  1  0  0  0  0
 20 21  1  0  0  0  0
 21 22  1  0  0  0  0
 21 23  2  0  0  0  0
M  END
>  <minimizedAffinity>
-3.93505239

>  <minimizedRMSD>
0.733041704

$$$$
