
 OpenBabel03242509323D

 19 20  0  0  0  0  0  0  0  0999 V2000
   37.5430   28.5220   43.7240 C   0  0  0  0  0  0  0  0  0  0  0  0
   37.4400   27.1450   43.3860 C   0  0  0  0  0  0  0  0  0  0  0  0
   37.2690   26.8320   42.0220 C   0  0  0  0  0  0  0  0  0  0  0  0
   37.2130   27.8680   41.1150 N   0  0  0  0  0  0  0  0  0  0  0  0
   37.3170   29.1510   41.4900 C   0  0  0  0  0  0  0  0  0  0  0  0
   37.4790   29.4700   42.7720 N   0  0  0  0  0  0  0  0  0  0  0  0
   37.6750   28.7860   44.7680 H   0  0  0  0  0  0  0  0  0  0  0  0
   37.4880   26.3790   44.1270 H   0  0  0  0  0  0  0  0  0  0  0  0
   37.2450   30.1630   40.4420 C   0  0  0  0  0  0  0  0  0  0  0  0
   37.0440   29.7980   39.1040 C   0  0  0  0  0  3  0  0  0  0  0  0
   36.9890   30.8290   38.1760 C   0  0  0  0  0  3  0  0  0  0  0  0
   37.1260   32.1210   38.5840 N   0  0  0  0  0  0  0  0  0  0  0  0
   37.3180   32.4560   39.8770 C   0  0  0  0  0  0  0  0  0  0  0  0
   37.4270   33.4770   40.2010 H   0  0  0  0  0  0  0  0  0  0  0  0
   37.3780   31.4690   40.8170 N   0  0  0  0  0  0  0  0  0  0  0  0
   37.1570   25.4110   41.6200 C   0  0  0  0  0  0  0  0  0  0  0  0
   36.4860   25.3910   40.4270 F   0  0  0  0  0  0  0  0  0  0  0  0
   38.3710   24.8160   41.4230 F   0  0  0  0  0  0  0  0  0  0  0  0
   36.4300   24.6630   42.5540 F   0  0  0  0  0  0  0  0  0  0  0  0
  1  7  1  0  0  0  0
  2  1  1  0  0  0  0
  2  8  1  0  0  0  0
  3  2  2  0  0  0  0
  4  5  2  0  0  0  0
  4  3  1  0  0  0  0
  5  6  1  0  0  0  0
  6  1  2  0  0  0  0
  9 15  1  0  0  0  0
  9  5  1  0  0  0  0
 10  9  2  0  0  0  0
 11 12  2  0  0  0  0
 11 10  1  0  0  0  0
 12 13  1  0  0  0  0
 13 14  1  0  0  0  0
 13 15  2  0  0  0  0
 16  3  1  0  0  0  0
 16 19  1  0  0  0  0
 17 16  1  0  0  0  0
 18 16  1  0  0  0  0
M  END
>  <minimizedAffinity>
-4.60702705

>  <minimizedRMSD>
1.50053251

$$$$
