
 OpenBabel03242503423D

 31 33  0  0  1  0  0  0  0  0999 V2000
   37.1280   27.7180   43.0300 C   0  0  2  0  0  0  0  0  0  0  0  0
   36.1690   27.7530   42.4410 H   0  0  0  0  0  0  0  0  0  0  0  0
   38.4560   30.8500   41.7480 N   0  0  0  0  0  0  0  0  0  0  0  0
   39.5080   30.3400   42.4490 C   0  0  0  0  0  0  0  0  0  0  0  0
   39.1610   29.1610   42.9900 N   0  0  0  0  0  0  0  0  0  0  0  0
   37.8860   28.9230   42.6310 C   0  0  0  0  0  0  0  0  0  0  0  0
   37.5040   29.9760   41.8790 N   0  0  0  0  0  0  0  0  0  0  0  0
   40.4450   30.8960   42.4940 H   0  0  0  0  0  0  0  0  0  0  0  0
   37.2070   32.1430   40.0470 C   0  0  0  0  0  0  0  0  0  0  0  0
   38.2560   32.0240   40.9930 C   0  0  0  0  0  0  0  0  0  0  0  0
   39.0970   33.1370   41.1400 C   0  0  0  0  0  0  0  0  0  0  0  0
   38.8370   34.2290   40.3690 N   0  0  0  0  0  0  0  0  0  0  0  0
   37.8390   34.2950   39.4940 C   0  0  0  0  0  0  0  0  0  0  0  0
   37.0030   33.2380   39.3210 N   0  0  0  0  0  0  0  0  0  0  0  0
   36.5380   31.3000   39.9090 H   0  0  0  0  0  0  0  0  0  0  0  0
   39.9190   33.1210   41.8420 H   0  0  0  0  0  0  0  0  0  0  0  0
   37.8320   35.2580   39.0000 H   0  0  0  0  0  0  0  0  0  0  0  0
   36.7070   27.9420   44.4750 C   0  0  0  0  0  0  0  0  0  0  0  0
   36.1100   27.0410   44.7540 H   0  0  0  0  0  0  0  0  0  0  0  0
   37.5820   28.0960   45.1080 H   0  0  0  0  0  0  0  0  0  0  0  0
   35.9680   28.7740   44.4760 H   0  0  0  0  0  0  0  0  0  0  0  0
   37.8560   26.4420   42.8350 C   0  0  0  0  0  0  0  0  0  0  0  0
   37.9040   25.8430   43.7450 H   0  0  0  0  0  0  0  0  0  0  0  0
   38.9170   26.7020   42.5550 H   0  0  0  0  0  0  0  0  0  0  0  0
   37.2300   25.7170   41.6980 C   0  0  0  0  0  0  0  0  0  0  0  0
   36.8180   24.4030   41.6560 C   0  0  0  0  0  0  0  0  0  0  0  0
   36.2490   23.8940   40.5040 C   0  0  0  0  0  0  0  0  0  0  0  0
   35.9420   22.8640   40.5140 H   0  0  0  0  0  0  0  0  0  0  0  0
   36.1180   24.7260   39.4380 N   0  0  0  0  0  0  0  0  0  0  0  0
   36.5130   26.0040   39.4620 C   0  0  0  0  0  0  0  0  0  0  0  0
   37.0730   26.5030   40.6000 N   0  0  0  0  0  0  0  0  0  0  0  0
  1  2  1  6  0  0  0
  1 18  1  0  0  0  0
  3  7  1  0  0  0  0
  3  4  1  0  0  0  0
  4  8  1  0  0  0  0
  4  5  2  0  0  0  0
  6  5  1  0  0  0  0
  6  1  1  0  0  0  0
  7  6  2  0  0  0  0
  9 10  1  0  0  0  0
 10 11  2  0  0  0  0
 10  3  1  0  0  0  0
 11 16  1  0  0  0  0
 12 11  1  0  0  0  0
 13 12  2  0  0  0  0
 14 13  1  0  0  0  0
 14  9  2  0  0  0  0
 15  9  1  0  0  0  0
 17 13  1  0  0  0  0
 18 21  1  0  0  0  0
 18 19  1  0  0  0  0
 18 20  1  0  0  0  0
 22  1  1  0  0  0  0
 22 23  1  0  0  0  0
 24 22  1  0  0  0  0
 25 22  1  0  0  0  0
 26 25  1  0  0  0  0
 27 28  1  0  0  0  0
 27 26  2  0  0  0  0
 29 30  2  0  0  0  0
 29 27  1  0  0  0  0
 30 31  1  0  0  0  0
 31 25  2  0  0  0  0
M  END
>  <minimizedAffinity>
-5.16314983

>  <minimizedRMSD>
1.07565248

$$$$
