
 OpenBabel03242509323D

 19 20  0  0  0  0  0  0  0  0999 V2000
   37.8490   28.6870   43.5690 C   0  0  0  0  0  0  0  0  0  0  0  0
   38.3780   27.3730   43.6940 C   0  0  0  0  0  0  0  0  0  0  0  0
   38.3460   26.5590   42.5430 C   0  0  0  0  0  0  0  0  0  0  0  0
   37.8100   27.0820   41.3860 N   0  0  0  0  0  0  0  0  0  0  0  0
   37.3250   28.3300   41.3250 C   0  0  0  0  0  0  0  0  0  0  0  0
   37.3450   29.1160   42.3990 N   0  0  0  0  0  0  0  0  0  0  0  0
   37.8640   29.3310   44.4430 H   0  0  0  0  0  0  0  0  0  0  0  0
   38.7810   27.0140   44.6140 H   0  0  0  0  0  0  0  0  0  0  0  0
   36.7840   28.7760   40.0460 C   0  0  0  0  0  0  0  0  0  0  0  0
   35.4160   28.6620   39.7680 C   0  0  0  0  0  3  0  0  0  0  0  0
   34.9920   29.1130   38.5240 C   0  0  0  0  0  3  0  0  0  0  0  0
   35.8910   29.6340   37.6450 N   0  0  0  0  0  0  0  0  0  0  0  0
   37.2050   29.7380   37.9290 C   0  0  0  0  0  0  0  0  0  0  0  0
   37.9180   30.1500   37.2350 H   0  0  0  0  0  0  0  0  0  0  0  0
   37.6590   29.3040   39.1420 N   0  0  0  0  0  0  0  0  0  0  0  0
   38.8850   25.1820   42.6230 C   0  0  0  0  0  0  0  0  0  0  0  0
   39.6810   25.0060   41.5230 F   0  0  0  0  0  0  0  0  0  0  0  0
   39.6580   24.9760   43.7310 F   0  0  0  0  0  0  0  0  0  0  0  0
   37.8660   24.2220   42.5950 F   0  0  0  0  0  0  0  0  0  0  0  0
  1  2  1  0  0  0  0
  1  7  1  0  0  0  0
  2  8  1  0  0  0  0
  3 16  1  0  0  0  0
  3  2  2  0  0  0  0
  4  3  1  0  0  0  0
  5  4  2  0  0  0  0
  5  6  1  0  0  0  0
  6  1  2  0  0  0  0
  9  5  1  0  0  0  0
 10  9  1  0  0  0  0
 11 10  2  0  0  0  0
 12 13  2  0  0  0  0
 12 11  1  0  0  0  0
 13 15  1  0  0  0  0
 14 13  1  0  0  0  0
 15  9  2  0  0  0  0
 16 18  1  0  0  0  0
 17 16  1  0  0  0  0
 19 16  1  0  0  0  0
M  END
>  <minimizedAffinity>
-4.1611557

>  <minimizedRMSD>
1.41909397

$$$$
