
 OpenBabel03242506413D

 19 20  0  0  0  0  0  0  0  0999 V2000
   37.1770   28.9290   40.1780 O   0  0  0  0  0  0  0  0  0  0  0  0
   37.2480   32.5490   39.9390 C   0  0  0  0  0  0  0  0  0  0  0  0
   36.9050   31.2600   40.3680 C   0  0  0  0  0  0  0  0  0  0  0  0
   37.5180   30.1800   39.7530 C   0  0  0  0  0  0  0  0  0  0  0  0
   38.4130   30.4430   38.7700 N   0  0  0  0  0  0  0  0  0  0  0  0
   38.7370   31.6860   38.3640 C   0  0  0  0  0  0  0  0  0  0  0  0
   38.1420   32.7450   38.9600 N   0  0  0  0  0  0  0  0  0  0  0  0
   36.7770   33.4170   40.4110 H   0  0  0  0  0  0  0  0  0  0  0  0
   36.1830   31.0980   41.1580 H   0  0  0  0  0  0  0  0  0  0  0  0
   39.4700   31.6950   37.5670 H   0  0  0  0  0  0  0  0  0  0  0  0
   37.4870   28.4470   41.4500 C   0  0  0  0  0  0  0  0  0  0  0  0
   38.7460   28.4520   42.0090 C   0  0  0  0  0  0  0  0  0  0  0  0
   39.5430   28.8690   41.3930 H   0  0  0  0  0  0  0  0  0  0  0  0
   38.9640   27.9530   43.2840 C   0  0  0  0  0  0  0  0  0  0  0  0
   37.8940   27.4570   43.9640 C   0  0  0  0  0  0  0  0  0  0  0  0
   38.0310   27.0530   44.9740 H   0  0  0  0  0  0  0  0  0  0  0  0
   36.6190   27.4420   43.4190 C   0  0  0  0  0  0  0  0  0  0  0  0
   35.7660   27.0390   43.9780 H   0  0  0  0  0  0  0  0  0  0  0  0
   36.3950   27.9430   42.1380 C   0  0  0  0  0  0  0  0  0  0  0  0
  1 11  1  0  0  0  0
  2  3  1  0  0  0  0
  2  8  1  0  0  0  0
  3  9  1  0  0  0  0
  4  1  1  0  0  0  0
  4  3  2  0  0  0  0
  5  4  1  0  0  0  0
  6  5  2  0  0  0  0
  6  7  1  0  0  0  0
  7  2  2  0  0  0  0
 10  6  1  0  0  0  0
 11 12  2  0  0  0  0
 11 19  1  0  0  0  0
 12 14  1  0  0  0  0
 13 12  1  0  0  0  0
 14 15  2  0  0  0  0
 15 16  1  0  0  0  0
 17 15  1  0  0  0  0
 17 18  1  0  0  0  0
 19 17  2  0  0  0  0
M  END
>  <minimizedAffinity>
-3.87064624

>  <minimizedRMSD>
4.29584646

$$$$
