
 OpenBabel03242508503D

 42 45  0  0  1  0  0  0  0  0999 V2000
   39.0800   27.6090   42.3110 C   0  0  2  0  0  0  0  0  0  0  0  0
   38.8610   28.8480   43.0020 C   0  0  0  0  0  0  0  0  0  0  0  0
   37.3630   29.1440   42.8370 C   0  0  0  0  0  0  0  0  0  0  0  0
   36.7230   27.8030   42.5070 C   0  0  0  0  0  0  0  0  0  0  0  0
   37.7860   26.7760   42.6770 C   0  0  1  0  0  0  0  0  0  0  0  0
   38.9860   27.7120   41.2450 H   0  0  0  0  0  0  0  0  0  0  0  0
   39.0040   28.7380   44.1050 H   0  0  0  0  0  0  0  0  0  0  0  0
   39.4700   29.7020   42.6870 H   0  0  0  0  0  0  0  0  0  0  0  0
   37.2530   29.8810   42.0090 H   0  0  0  0  0  0  0  0  0  0  0  0
   36.9110   29.5360   43.7490 H   0  0  0  0  0  0  0  0  0  0  0  0
   36.3540   27.8850   41.4780 H   0  0  0  0  0  0  0  0  0  0  0  0
   35.8320   27.6110   43.1380 H   0  0  0  0  0  0  0  0  0  0  0  0
   37.9190   26.3550   43.6610 H   0  0  0  0  0  0  0  0  0  0  0  0
   40.7390   26.7470   44.0300 C   0  0  0  0  0  0  0  0  0  0  0  0
   40.2750   26.8450   42.6610 C   0  0  0  0  0  0  0  0  0  0  0  0
   40.9710   26.2210   41.6600 C   0  0  0  0  0  0  0  0  0  0  0  0
   42.0970   25.5220   42.0330 N   0  0  0  0  0  0  0  0  0  0  0  0
   42.5350   25.4310   43.3360 C   0  0  0  0  0  0  0  0  0  0  0  0
   41.8360   26.0590   44.3500 N   0  0  0  0  0  0  0  0  0  0  0  0
   43.7230   24.6790   43.5970 N   0  0  0  0  0  0  0  0  0  0  0  0
   40.1490   27.2560   44.7590 H   0  0  0  0  0  0  0  0  0  0  0  0
   44.5950   24.8770   43.0380 H   0  0  0  0  0  0  0  0  0  0  0  0
   43.5540   23.9860   44.3660 H   0  0  0  0  0  0  0  0  0  0  0  0
   40.6990   26.2030   40.2490 C   0  0  0  0  0  0  0  0  0  0  0  0
   40.6660   25.1770   39.8250 H   0  0  0  0  0  0  0  0  0  0  0  0
   39.6310   26.5380   40.0480 H   0  0  0  0  0  0  0  0  0  0  0  0
   41.6300   27.0150   39.4230 C   0  0  0  0  0  0  0  0  0  0  0  0
   41.3330   28.3870   39.4160 C   0  0  0  0  0  0  0  0  0  0  0  0
   42.0410   29.3520   38.7320 C   0  0  0  0  0  0  0  0  0  0  0  0
   41.7650   30.3940   38.7630 H   0  0  0  0  0  0  0  0  0  0  0  0
   43.0970   28.9870   38.0110 N   0  0  0  0  0  0  0  0  0  0  0  0
   43.4030   27.6640   38.0040 C   0  0  0  0  0  0  0  0  0  0  0  0
   42.7070   26.7340   38.6710 N   0  0  0  0  0  0  0  0  0  0  0  0
   37.4510   25.7630   41.6330 C   0  0  0  0  0  0  0  0  0  0  0  0
   36.7650   26.1170   40.4970 N   0  0  0  0  0  0  0  0  0  0  0  0
   36.6260   25.0320   39.7710 O   0  0  0  0  0  0  0  0  0  0  0  0
   37.1920   24.0390   40.4090 C   0  0  0  0  0  0  0  0  0  0  0  0
   37.7130   24.4640   41.5670 N   0  0  0  0  0  0  0  0  0  0  0  0
   37.2030   22.6510   39.8330 C   0  0  0  0  0  0  0  0  0  0  0  0
   37.8980   22.6610   38.6480 F   0  0  0  0  0  0  0  0  0  0  0  0
   37.8010   21.7670   40.7100 F   0  0  0  0  0  0  0  0  0  0  0  0
   35.9120   22.2330   39.5610 F   0  0  0  0  0  0  0  0  0  0  0  0
  1  6  1  6  0  0  0
  1 15  1  0  0  0  0
  1  5  1  0  0  0  0
  1  2  1  0  0  0  0
  2  7  1  0  0  0  0
  3  2  1  0  0  0  0
  3 10  1  0  0  0  0
  4  5  1  0  0  0  0
  4  3  1  0  0  0  0
  4 12  1  0  0  0  0
  5 13  1  1  0  0  0
  8  2  1  0  0  0  0
  9  3  1  0  0  0  0
 11  4  1  0  0  0  0
 14 19  1  0  0  0  0
 14 21  1  0  0  0  0
 15 14  2  0  0  0  0
 16 17  2  0  0  0  0
 16 15  1  0  0  0  0
 17 18  1  0  0  0  0
 18 20  1  0  0  0  0
 18 19  2  0  0  0  0
 20 23  1  0  0  0  0
 22 20  1  0  0  0  0
 24 16  1  0  0  0  0
 25 24  1  0  0  0  0
 26 24  1  0  0  0  0
 27 24  1  0  0  0  0
 28 27  1  0  0  0  0
 29 30  1  0  0  0  0
 29 28  2  0  0  0  0
 31 29  1  0  0  0  0
 32 31  2  0  0  0  0
 32 33  1  0  0  0  0
 33 27  2  0  0  0  0
 34  5  1  0  0  0  0
 35 34  2  0  0  0  0
 36 37  1  0  0  0  0
 36 35  1  0  0  0  0
 37 38  2  0  0  0  0
 38 34  1  0  0  0  0
 39 37  1  0  0  0  0
 39 41  1  0  0  0  0
 40 39  1  0  0  0  0
 42 39  1  0  0  0  0
M  END
>  <minimizedAffinity>
-5.38892841

>  <minimizedRMSD>
5.93933487

$$$$
