
 OpenBabel03242507443D

 41 44  0  0  0  0  0  0  0  0999 V2000
   42.3910   28.8530   43.3060 C   0  0  0  0  0  0  0  0  0  0  0  0
   41.8480   27.6500   43.8320 C   0  0  0  0  0  0  0  0  0  0  0  0
   40.4870   27.4560   43.6520 C   0  0  0  0  0  0  0  0  0  0  0  0
   39.7550   28.3850   43.0100 N   0  0  0  0  0  0  0  0  0  0  0  0
   40.2990   29.5140   42.5230 C   0  0  0  0  0  0  0  0  0  0  0  0
   41.6050   29.7550   42.6650 N   0  0  0  0  0  0  0  0  0  0  0  0
   39.8150   26.3170   44.1170 N   0  0  0  0  0  0  0  0  0  0  0  0
   39.5370   30.5150   41.8290 N   0  0  0  0  0  0  0  0  0  0  0  0
   38.2580   30.2230   41.5640 C   0  0  0  0  0  0  0  0  0  0  0  0
   37.3810   31.0480   40.9010 C   0  0  0  0  0  0  0  0  0  0  0  0
   37.8750   32.2590   40.4890 C   0  0  0  0  0  0  0  0  0  0  0  0
   37.1360   33.0820   39.8740 O   0  0  0  0  0  0  0  0  0  0  0  0
   39.1640   32.5420   40.7610 N   0  0  0  0  0  0  0  0  0  0  0  0
   39.9830   31.7000   41.4120 C   0  0  0  0  0  0  0  0  0  0  0  0
   41.1850   31.9550   41.6660 O   0  0  0  0  0  0  0  0  0  0  0  0
   43.4430   28.9820   43.4550 H   0  0  0  0  0  0  0  0  0  0  0  0
   42.4440   26.9200   44.3410 H   0  0  0  0  0  0  0  0  0  0  0  0
   38.9050   26.3900   44.6560 H   0  0  0  0  0  0  0  0  0  0  0  0
   40.0890   25.3080   44.0090 H   0  0  0  0  0  0  0  0  0  0  0  0
   37.8420   29.2600   41.8860 H   0  0  0  0  0  0  0  0  0  0  0  0
   39.7410   33.7770   40.3650 C   0  0  0  0  0  0  0  0  0  0  0  0
   39.2990   34.9320   40.9730 C   0  0  0  0  0  0  0  0  0  0  0  0
   39.8480   36.1390   40.6010 C   0  0  0  0  0  0  0  0  0  0  0  0
   40.8300   36.1270   39.6190 C   0  0  0  0  0  0  0  0  0  0  0  0
   41.2820   34.9770   39.0030 C   0  0  0  0  0  0  0  0  0  0  0  0
   40.7230   33.7670   39.3840 C   0  0  0  0  0  0  0  0  0  0  0  0
   38.5430   34.9820   41.7360 H   0  0  0  0  0  0  0  0  0  0  0  0
   39.5480   37.0890   41.0380 H   0  0  0  0  0  0  0  0  0  0  0  0
   41.2910   37.0660   39.2960 H   0  0  0  0  0  0  0  0  0  0  0  0
   42.0400   34.9680   38.2440 H   0  0  0  0  0  0  0  0  0  0  0  0
   41.0530   32.8390   38.9200 H   0  0  0  0  0  0  0  0  0  0  0  0
   35.9960   30.6200   40.6140 C   0  0  0  0  0  0  0  0  0  0  0  0
   35.5920   30.0460   41.4760 H   0  0  0  0  0  0  0  0  0  0  0  0
   35.3360   31.4810   40.4130 H   0  0  0  0  0  0  0  0  0  0  0  0
   36.0470   29.7080   39.4400 C   0  0  0  0  0  0  0  0  0  0  0  0
   35.7970   28.3430   39.6170 C   0  0  0  0  0  0  0  0  0  0  0  0
   35.8230   27.4190   38.5780 C   0  0  0  0  0  0  0  0  0  0  0  0
   35.6150   26.3940   38.8250 H   0  0  0  0  0  0  0  0  0  0  0  0
   36.1010   27.8400   37.3390 N   0  0  0  0  0  0  0  0  0  0  0  0
   36.3470   29.1710   37.1660 C   0  0  0  0  0  0  0  0  0  0  0  0
   36.3210   30.0640   38.1710 N   0  0  0  0  0  0  0  0  0  0  0  0
  1 16  1  0  0  0  0
  1  2  1  0  0  0  0
  2 17  1  0  0  0  0
  3  2  2  0  0  0  0
  3  7  1  0  0  0  0
  4  3  1  0  0  0  0
  5  6  1  0  0  0  0
  5  4  2  0  0  0  0
  6  1  2  0  0  0  0
  7 18  1  0  0  0  0
  8  5  1  0  0  0  0
  9  8  1  0  0  0  0
  9 20  1  0  0  0  0
 10  9  2  0  0  0  0
 11 13  1  0  0  0  0
 11 10  1  0  0  0  0
 12 11  2  0  0  0  0
 13 14  1  0  0  0  0
 14 15  2  0  0  0  0
 14  8  1  0  0  0  0
 19  7  1  0  0  0  0
 21 13  1  0  0  0  0
 21 22  1  0  0  0  0
 22 27  1  0  0  0  0
 23 22  2  0  0  0  0
 23 28  1  0  0  0  0
 24 23  1  0  0  0  0
 25 26  1  0  0  0  0
 25 24  2  0  0  0  0
 26 21  2  0  0  0  0
 29 24  1  0  0  0  0
 30 25  1  0  0  0  0
 31 26  1  0  0  0  0
 32 10  1  0  0  0  0
 32 33  1  0  0  0  0
 34 32  1  0  0  0  0
 35 36  1  0  0  0  0
 35 32  1  0  0  0  0
 37 38  1  0  0  0  0
 37 36  2  0  0  0  0
 39 37  1  0  0  0  0
 40 39  2  0  0  0  0
 40 41  1  0  0  0  0
 41 35  2  0  0  0  0
M  END
>  <minimizedAffinity>
-6.81296921

>  <minimizedRMSD>
2.82710981

$$$$
