
 OpenBabel03242507543D

 25 27  0  0  0  0  0  0  0  0999 V2000
   38.0960   30.1840   40.6550 C   0  0  0  0  0  0  0  0  0  0  0  0
   38.5810   29.5500   41.7840 C   0  0  0  0  0  0  0  0  0  0  0  0
   39.4870   30.2470   42.5680 C   0  0  0  0  0  0  0  0  0  0  0  0
   39.8490   31.5300   42.1770 C   0  0  0  0  0  0  0  0  0  0  0  0
   39.3620   32.1470   41.0590 C   0  0  0  0  0  0  0  0  0  0  0  0
   38.4890   31.4340   40.3300 N   0  0  0  0  0  0  0  0  0  0  0  0
   38.2780   28.5450   42.0610 H   0  0  0  0  0  0  0  0  0  0  0  0
   39.9220   29.8370   43.4690 H   0  0  0  0  0  0  0  0  0  0  0  0
   40.5550   32.0700   42.7920 H   0  0  0  0  0  0  0  0  0  0  0  0
   36.0570   27.4880   39.2170 C   0  0  0  0  0  0  0  0  0  0  0  0
   35.3360   28.1290   38.2080 C   0  0  0  0  0  0  0  0  0  0  0  0
   35.5540   29.5080   38.0170 C   0  0  0  0  0  0  0  0  0  0  0  0
   36.4490   30.1230   38.8270 N   0  0  0  0  0  0  0  0  0  0  0  0
   37.1290   29.4710   39.7950 C   0  0  0  0  0  0  0  0  0  0  0  0
   36.9230   28.1640   39.9770 N   0  0  0  0  0  0  0  0  0  0  0  0
   35.8860   26.4280   39.3610 H   0  0  0  0  0  0  0  0  0  0  0  0
   34.6360   27.5910   37.5920 H   0  0  0  0  0  0  0  0  0  0  0  0
   35.0150   30.0510   37.2420 H   0  0  0  0  0  0  0  0  0  0  0  0
   39.7080   33.4750   40.6120 C   0  0  0  0  0  0  0  0  0  0  0  0
   38.7960   34.5050   40.5140 C   0  0  0  0  0  0  0  0  0  0  0  0
   39.1020   35.7810   40.0920 C   0  0  0  0  0  0  0  0  0  0  0  0
   40.3710   36.0500   39.7480 N   0  0  0  0  0  0  0  0  0  0  0  0
   41.2750   35.0500   39.8390 C   0  0  0  0  0  0  0  0  0  0  0  0
   42.3160   35.2360   39.5670 H   0  0  0  0  0  0  0  0  0  0  0  0
   40.9590   33.8110   40.2540 N   0  0  0  0  0  0  0  0  0  0  0  0
  1  2  1  0  0  0  0
  2  7  1  0  0  0  0
  2  3  2  0  0  0  0
  3  8  1  0  0  0  0
  4  3  1  0  0  0  0
  4  9  1  0  0  0  0
  5  4  2  0  0  0  0
  6  1  2  0  0  0  0
  6  5  1  0  0  0  0
 10 16  1  0  0  0  0
 10 15  1  0  0  0  0
 11 10  2  0  0  0  0
 12 11  1  0  0  0  0
 12 13  2  0  0  0  0
 13 14  1  0  0  0  0
 14 15  2  0  0  0  0
 14  1  1  0  0  0  0
 17 11  1  0  0  0  0
 18 12  1  0  0  0  0
 19  5  1  0  0  0  0
 20 19  1  0  0  0  0
 21 20  2  0  0  0  0
 22 23  2  0  0  0  0
 22 21  1  0  0  0  0
 23 25  1  0  0  0  0
 24 23  1  0  0  0  0
 25 19  2  0  0  0  0
M  END
>  <minimizedAffinity>
-4.69430637

>  <minimizedRMSD>
5.37027693

$$$$
