
 OpenBabel03242509313D

 19 20  0  0  0  0  0  0  0  0999 V2000
   38.0990   28.4660   43.5800 C   0  0  0  0  0  0  0  0  0  0  0  0
   38.6390   27.1530   43.6650 C   0  0  0  0  0  0  0  0  0  0  0  0
   38.3810   26.2830   42.5860 C   0  0  0  0  0  0  0  0  0  0  0  0
   37.6300   26.7550   41.5310 N   0  0  0  0  0  0  0  0  0  0  0  0
   37.1440   28.0040   41.5030 C   0  0  0  0  0  0  0  0  0  0  0  0
   37.3760   28.8420   42.5100 N   0  0  0  0  0  0  0  0  0  0  0  0
   38.2860   29.1520   44.3990 H   0  0  0  0  0  0  0  0  0  0  0  0
   39.2150   26.8360   44.5060 H   0  0  0  0  0  0  0  0  0  0  0  0
   36.3630   28.3930   40.3340 C   0  0  0  0  0  0  0  0  0  0  0  0
   35.0850   28.9470   40.4770 C   0  0  0  0  0  3  0  0  0  0  0  0
   34.4160   29.2860   39.3070 C   0  0  0  0  0  3  0  0  0  0  0  0
   35.0060   29.0750   38.0990 N   0  0  0  0  0  0  0  0  0  0  0  0
   36.2380   28.5380   37.9780 C   0  0  0  0  0  0  0  0  0  0  0  0
   36.7070   28.3700   37.0240 H   0  0  0  0  0  0  0  0  0  0  0  0
   36.9250   28.1930   39.1070 N   0  0  0  0  0  0  0  0  0  0  0  0
   38.9230   24.9060   42.6290 C   0  0  0  0  0  0  0  0  0  0  0  0
   39.7160   24.7600   41.5220 F   0  0  0  0  0  0  0  0  0  0  0  0
   39.7000   24.6730   43.7280 F   0  0  0  0  0  0  0  0  0  0  0  0
   37.9060   23.9450   42.5790 F   0  0  0  0  0  0  0  0  0  0  0  0
  1  2  1  0  0  0  0
  1  7  1  0  0  0  0
  2  8  1  0  0  0  0
  3 16  1  0  0  0  0
  3  2  2  0  0  0  0
  4  3  1  0  0  0  0
  5  4  2  0  0  0  0
  5  6  1  0  0  0  0
  6  1  2  0  0  0  0
  9 10  1  0  0  0  0
  9  5  1  0  0  0  0
 11 10  2  0  0  0  0
 12 11  1  0  0  0  0
 13 12  2  0  0  0  0
 13 15  1  0  0  0  0
 14 13  1  0  0  0  0
 15  9  2  0  0  0  0
 16 18  1  0  0  0  0
 17 16  1  0  0  0  0
 19 16  1  0  0  0  0
M  END
>  <minimizedAffinity>
-4.2331748

>  <minimizedRMSD>
1.44462729

$$$$
