
 OpenBabel03242509313D

 19 20  0  0  0  0  0  0  0  0999 V2000
   37.8580   28.7090   43.5590 C   0  0  0  0  0  0  0  0  0  0  0  0
   38.3710   27.3870   43.6770 C   0  0  0  0  0  0  0  0  0  0  0  0
   38.3140   26.5740   42.5270 C   0  0  0  0  0  0  0  0  0  0  0  0
   37.7710   27.1040   41.3770 N   0  0  0  0  0  0  0  0  0  0  0  0
   37.3020   28.3580   41.3220 C   0  0  0  0  0  0  0  0  0  0  0  0
   37.3460   29.1450   42.3950 N   0  0  0  0  0  0  0  0  0  0  0  0
   37.8920   29.3520   44.4320 H   0  0  0  0  0  0  0  0  0  0  0  0
   38.7810   27.0240   44.5930 H   0  0  0  0  0  0  0  0  0  0  0  0
   36.7510   28.8120   40.0500 C   0  0  0  0  0  0  0  0  0  0  0  0
   37.1450   30.0340   39.4920 C   0  0  0  0  0  3  0  0  0  0  0  0
   36.5670   30.3840   38.2780 C   0  0  0  0  0  3  0  0  0  0  0  0
   35.6630   29.5520   37.6900 N   0  0  0  0  0  0  0  0  0  0  0  0
   35.2930   28.3780   38.2400 C   0  0  0  0  0  0  0  0  0  0  0  0
   34.5790   27.7190   37.7770 H   0  0  0  0  0  0  0  0  0  0  0  0
   35.8420   28.0020   39.4330 N   0  0  0  0  0  0  0  0  0  0  0  0
   38.8360   25.1900   42.6010 C   0  0  0  0  0  0  0  0  0  0  0  0
   39.6140   25.0030   41.4900 F   0  0  0  0  0  0  0  0  0  0  0  0
   39.6220   24.9750   43.6980 F   0  0  0  0  0  0  0  0  0  0  0  0
   37.8040   24.2440   42.5880 F   0  0  0  0  0  0  0  0  0  0  0  0
  1  2  1  0  0  0  0
  1  7  1  0  0  0  0
  2  8  1  0  0  0  0
  3 16  1  0  0  0  0
  3  2  2  0  0  0  0
  4  3  1  0  0  0  0
  5  4  2  0  0  0  0
  5  6  1  0  0  0  0
  6  1  2  0  0  0  0
  9  5  1  0  0  0  0
 10  9  1  0  0  0  0
 11 10  2  0  0  0  0
 12 13  2  0  0  0  0
 12 11  1  0  0  0  0
 13 15  1  0  0  0  0
 14 13  1  0  0  0  0
 15  9  2  0  0  0  0
 16 18  1  0  0  0  0
 17 16  1  0  0  0  0
 19 16  1  0  0  0  0
M  END
>  <minimizedAffinity>
-4.16045952

>  <minimizedRMSD>
1.42819285

$$$$
