
 OpenBabel03242507103D

 23 25  0  0  0  0  0  0  0  0999 V2000
   38.5240   28.0310   42.4210 N   0  0  0  0  0  0  0  0  0  0  0  0
   38.4080   26.9010   43.1860 C   0  0  0  0  0  0  0  0  0  0  0  0
   39.6800   26.8190   43.7790 C   0  0  0  0  0  0  0  0  0  0  0  0
   40.4660   27.8270   43.3810 N   0  0  0  0  0  0  0  0  0  0  0  0
   39.7210   28.5790   42.5210 C   0  0  0  0  0  0  0  0  0  0  0  0
   37.5280   26.2800   43.2660 H   0  0  0  0  0  0  0  0  0  0  0  0
   39.9400   26.0240   44.4630 H   0  0  0  0  0  0  0  0  0  0  0  0
   37.0240   29.8860   41.8080 C   0  0  0  0  0  0  0  0  0  0  0  0
   37.4580   28.5410   41.6690 C   0  0  0  0  0  0  0  0  0  0  0  0
   36.7740   27.7020   40.7270 C   0  0  0  0  0  0  0  0  0  0  0  0
   35.7460   28.2390   40.0120 N   0  0  0  0  0  0  0  0  0  0  0  0
   35.3650   29.5540   40.1820 C   0  0  0  0  0  0  0  0  0  0  0  0
   36.0030   30.3880   41.0820 N   0  0  0  0  0  0  0  0  0  0  0  0
   37.3610   30.6230   42.4930 H   0  0  0  0  0  0  0  0  0  0  0  0
   37.1220   26.6880   40.6460 H   0  0  0  0  0  0  0  0  0  0  0  0
   34.5530   29.8090   39.5480 H   0  0  0  0  0  0  0  0  0  0  0  0
   40.4140   29.6970   41.8980 C   0  0  0  0  0  0  0  0  0  0  0  0
   41.1380   30.6240   42.6140 C   0  0  0  0  0  0  0  0  0  0  0  0
   41.8120   31.7040   42.1100 C   0  0  0  0  0  0  0  0  0  0  0  0
   41.7800   31.9040   40.7860 N   0  0  0  0  0  0  0  0  0  0  0  0
   41.0940   31.0410   40.0380 C   0  0  0  0  0  0  0  0  0  0  0  0
   41.0260   31.1450   38.9530 H   0  0  0  0  0  0  0  0  0  0  0  0
   40.4810   30.0330   40.6270 N   0  0  0  0  0  0  0  0  0  0  0  0
  1  5  1  0  0  0  0
  1  2  1  0  0  0  0
  2  6  1  0  0  0  0
  2  3  2  0  0  0  0
  3  7  1  0  0  0  0
  4  3  1  0  0  0  0
  5  4  2  0  0  0  0
  8 14  1  0  0  0  0
  9  8  1  0  0  0  0
  9  1  1  0  0  0  0
 10  9  2  0  0  0  0
 11 12  2  0  0  0  0
 11 10  1  0  0  0  0
 12 13  1  0  0  0  0
 13  8  2  0  0  0  0
 15 10  1  0  0  0  0
 16 12  1  0  0  0  0
 17  5  1  0  0  0  0
 17 18  1  0  0  0  0
 19 18  2  0  0  0  0
 20 19  1  0  0  0  0
 21 23  1  0  0  0  0
 21 20  2  0  0  0  0
 22 21  1  0  0  0  0
 23 17  2  0  0  0  0
M  END
>  <minimizedAffinity>
-3.88186407

>  <minimizedRMSD>
0.868108153

$$$$
