
 OpenBabel03242509273D

 46 50  0  0  0  0  0  0  0  0999 V2000
   36.1620   30.0670   41.1190 C   0  0  0  0  0  0  0  0  0  0  0  0
   35.5680   30.5770   41.9240 H   0  0  0  0  0  0  0  0  0  0  0  0
   36.7680   30.8760   40.6520 H   0  0  0  0  0  0  0  0  0  0  0  0
   38.6330   28.1370   42.7040 C   0  0  0  0  0  0  0  0  0  0  0  0
   37.5500   27.3000   42.8030 C   0  0  0  0  0  0  0  0  0  0  0  0
   36.4820   27.9700   42.1940 C   0  0  0  0  0  0  0  0  0  0  0  0
   37.0030   29.1320   41.7870 N   0  0  0  0  0  0  0  0  0  0  0  0
   38.2660   29.2800   42.0630 N   0  0  0  0  0  0  0  0  0  0  0  0
   37.5650   26.3240   43.2700 H   0  0  0  0  0  0  0  0  0  0  0  0
   35.5220   27.5240   42.1410 H   0  0  0  0  0  0  0  0  0  0  0  0
   41.5760   26.4500   44.2440 C   0  0  0  0  0  0  0  0  0  0  0  0
   40.2660   26.6330   43.7990 C   0  0  0  0  0  0  0  0  0  0  0  0
   39.9700   27.8760   43.1930 C   0  0  0  0  0  0  0  0  0  0  0  0
   40.9370   28.8170   43.0700 N   0  0  0  0  0  0  0  0  0  0  0  0
   42.2060   28.5660   43.5330 C   0  0  0  0  0  0  0  0  0  0  0  0
   42.5090   27.3960   44.1090 N   0  0  0  0  0  0  0  0  0  0  0  0
   41.8550   25.5230   44.7110 H   0  0  0  0  0  0  0  0  0  0  0  0
   39.5090   25.8920   43.8960 H   0  0  0  0  0  0  0  0  0  0  0  0
   43.2180   29.6080   43.3810 C   0  0  0  0  0  0  0  0  0  0  0  0
   42.9130   30.9290   43.6310 C   0  0  0  0  0  0  0  0  0  0  0  0
   43.9570   31.8120   43.4510 C   0  0  0  0  0  0  0  0  0  0  0  0
   45.1890   31.4360   43.0600 N   0  0  0  0  0  0  0  0  0  0  0  0
   45.4590   30.1400   42.8230 C   0  0  0  0  0  0  0  0  0  0  0  0
   46.3920   29.6980   42.5080 H   0  0  0  0  0  0  0  0  0  0  0  0
   44.4600   29.2630   42.9920 N   0  0  0  0  0  0  0  0  0  0  0  0
   35.2700   29.4990   40.0620 C   0  0  0  0  0  0  0  0  0  0  0  0
   34.7990   28.5990   40.4290 H   0  0  0  0  0  0  0  0  0  0  0  0
   34.5580   30.3860   39.9420 H   0  0  0  0  0  0  0  0  0  0  0  0
   35.8840   29.4160   38.7160 C   0  0  0  0  0  0  0  0  0  0  0  0
   37.2030   29.5470   38.3920 C   0  0  0  0  0  0  0  0  0  0  0  0
   37.7210   29.5330   37.1280 C   0  0  0  0  0  0  0  0  0  0  0  0
   36.8780   29.3760   36.0570 C   0  0  0  0  0  0  0  0  0  0  0  0
   35.5280   29.2350   36.3140 C   0  0  0  0  0  0  0  0  0  0  0  0
   34.7320   29.0870   35.1970 C   0  0  0  0  0  0  0  0  0  0  0  0
   33.3810   28.9430   35.3490 C   0  0  0  0  0  0  0  0  0  0  0  0
   32.8370   28.9450   36.6190 C   0  0  0  0  0  0  0  0  0  0  0  0
   33.6810   29.0950   37.6810 C   0  0  0  0  0  0  0  0  0  0  0  0
   35.0260   29.2510   37.6140 C   0  0  0  0  0  0  0  0  0  0  0  0
   37.8790   29.6740   39.2350 H   0  0  0  0  0  0  0  0  0  0  0  0
   38.7900   29.6470   37.0150 H   0  0  0  0  0  0  0  0  0  0  0  0
   37.2970   29.3670   35.0590 H   0  0  0  0  0  0  0  0  0  0  0  0
   35.1410   29.0810   34.1920 H   0  0  0  0  0  0  0  0  0  0  0  0
   32.7310   28.8270   34.4920 H   0  0  0  0  0  0  0  0  0  0  0  0
   31.7770   28.8290   36.7250 H   0  0  0  0  0  0  0  0  0  0  0  0
   33.0770   29.0710   38.9300 O   0  0  0  0  0  0  0  0  0  0  0  0
   32.2830   29.7140   39.0630 H   0  0  0  0  0  0  0  0  0  0  0  0
  1  7  1  0  0  0  0
  1  2  1  0  0  0  0
  3  1  1  0  0  0  0
  4  5  1  0  0  0  0
  4 13  1  0  0  0  0
  5  9  1  0  0  0  0
  6  5  2  0  0  0  0
  7  8  1  0  0  0  0
  7  6  1  0  0  0  0
  8  4  2  0  0  0  0
 10  6  1  0  0  0  0
 11 17  1  0  0  0  0
 12 18  1  0  0  0  0
 12 11  2  0  0  0  0
 13 12  1  0  0  0  0
 14 13  2  0  0  0  0
 14 15  1  0  0  0  0
 15 16  2  0  0  0  0
 16 11  1  0  0  0  0
 19 15  1  0  0  0  0
 19 20  1  0  0  0  0
 21 20  2  0  0  0  0
 22 21  1  0  0  0  0
 23 25  1  0  0  0  0
 23 22  2  0  0  0  0
 24 23  1  0  0  0  0
 25 19  2  0  0  0  0
 26 27  1  0  0  0  0
 26  1  1  0  0  0  0
 28 26  1  0  0  0  0
 29 26  1  0  0  0  0
 30 29  1  0  0  0  0
 30 39  1  0  0  0  0
 31 30  2  0  0  0  0
 32 33  2  0  0  0  0
 32 31  1  0  0  0  0
 33 38  1  0  0  0  0
 34 35  2  0  0  0  0
 34 33  1  0  0  0  0
 35 36  1  0  0  0  0
 36 44  1  0  0  0  0
 36 37  2  0  0  0  0
 37 45  1  0  0  0  0
 38 37  1  0  0  0  0
 38 29  2  0  0  0  0
 40 31  1  0  0  0  0
 41 32  1  0  0  0  0
 42 34  1  0  0  0  0
 43 35  1  0  0  0  0
 45 46  1  0  0  0  0
M  END
>  <minimizedAffinity>
-6.07388115

>  <minimizedRMSD>
0.281425923

$$$$
