
 OpenBabel03242507103D

 23 25  0  0  0  0  0  0  0  0999 V2000
   38.5330   28.0380   42.4580 N   0  0  0  0  0  0  0  0  0  0  0  0
   38.4150   26.9080   43.2220 C   0  0  0  0  0  0  0  0  0  0  0  0
   39.6650   26.8220   43.7820 C   0  0  0  0  0  0  0  0  0  0  0  0
   40.4770   27.8160   43.3900 N   0  0  0  0  0  0  0  0  0  0  0  0
   39.7410   28.5900   42.5350 C   0  0  0  0  0  0  0  0  0  0  0  0
   37.5510   26.3030   43.3140 H   0  0  0  0  0  0  0  0  0  0  0  0
   39.9700   26.0310   44.4710 H   0  0  0  0  0  0  0  0  0  0  0  0
   37.0360   29.9080   41.8230 C   0  0  0  0  0  0  0  0  0  0  0  0
   37.4580   28.5660   41.7040 C   0  0  0  0  0  0  0  0  0  0  0  0
   36.7780   27.7080   40.7750 C   0  0  0  0  0  0  0  0  0  0  0  0
   35.7530   28.2440   40.0500 N   0  0  0  0  0  0  0  0  0  0  0  0
   35.3860   29.5680   40.2070 C   0  0  0  0  0  0  0  0  0  0  0  0
   36.0270   30.4100   41.0970 N   0  0  0  0  0  0  0  0  0  0  0  0
   37.3930   30.6370   42.5100 H   0  0  0  0  0  0  0  0  0  0  0  0
   37.1120   26.6880   40.7000 H   0  0  0  0  0  0  0  0  0  0  0  0
   34.5550   29.8880   39.5750 H   0  0  0  0  0  0  0  0  0  0  0  0
   40.4250   29.7050   41.9080 C   0  0  0  0  0  0  0  0  0  0  0  0
   41.1410   30.6280   42.6370 C   0  0  0  0  0  0  0  0  0  0  0  0
   41.8100   31.7110   42.1260 C   0  0  0  0  0  0  0  0  0  0  0  0
   41.7860   31.9230   40.7720 C   0  0  0  0  0  0  0  0  0  0  0  0
   42.2780   32.7370   40.2930 H   0  0  0  0  0  0  0  0  0  0  0  0
   41.0830   31.0190   40.0250 C   0  0  0  0  0  0  0  0  0  0  0  0
   40.4830   30.0240   40.6220 N   0  0  0  0  0  0  0  0  0  0  0  0
  1  5  1  0  0  0  0
  1  2  1  0  0  0  0
  2  6  1  0  0  0  0
  2  3  2  0  0  0  0
  3  7  1  0  0  0  0
  4  3  1  0  0  0  0
  5  4  2  0  0  0  0
  8 14  1  0  0  0  0
  9  8  1  0  0  0  0
  9  1  1  0  0  0  0
 10  9  2  0  0  0  0
 11 12  2  0  0  0  0
 11 10  1  0  0  0  0
 12 13  1  0  0  0  0
 13  8  2  0  0  0  0
 15 10  1  0  0  0  0
 16 12  1  0  0  0  0
 17  5  1  0  0  0  0
 17 18  1  0  0  0  0
 19 18  2  0  0  0  0
 20 19  1  0  0  0  0
 21 20  1  0  0  0  0
 22 23  1  0  0  0  0
 22 20  2  0  0  0  0
 23 17  2  0  0  0  0
M  END
>  <minimizedAffinity>
-3.92608619

>  <minimizedRMSD>
0.929713488

$$$$
