
 OpenBabel03242509323D

 19 20  0  0  0  0  0  0  0  0999 V2000
   37.6350   28.6950   43.6350 C   0  0  0  0  0  0  0  0  0  0  0  0
   38.1340   27.3630   43.7340 C   0  0  0  0  0  0  0  0  0  0  0  0
   38.3290   26.6430   42.5520 C   0  0  0  0  0  0  0  0  0  0  0  0
   38.0260   27.2650   41.3490 N   0  0  0  0  0  0  0  0  0  0  0  0
   37.5580   28.5240   41.3170 C   0  0  0  0  0  0  0  0  0  0  0  0
   37.3660   29.2270   42.4300 N   0  0  0  0  0  0  0  0  0  0  0  0
   37.4950   29.2230   44.5660 H   0  0  0  0  0  0  0  0  0  0  0  0
   38.3730   26.8660   44.6520 H   0  0  0  0  0  0  0  0  0  0  0  0
   37.2760   29.0700   39.9940 C   0  0  0  0  0  0  0  0  0  0  0  0
   37.0780   30.4450   39.8440 C   0  0  0  0  0  3  0  0  0  0  0  0
   36.8130   30.9480   38.5900 C   0  0  0  0  0  3  0  0  0  0  0  0
   36.7510   30.0650   37.5090 C   0  0  0  0  0  0  0  0  0  0  0  0
   36.5480   30.3990   36.5030 H   0  0  0  0  0  0  0  0  0  0  0  0
   36.9530   28.6980   37.6830 C   0  0  0  0  0  3  0  0  0  0  0  0
   37.2130   28.2310   38.9380 N   0  0  0  0  0  0  0  0  0  0  0  0
   38.8480   25.2540   42.6210 C   0  0  0  0  0  0  0  0  0  0  0  0
   39.6230   25.0870   41.4870 F   0  0  0  0  0  0  0  0  0  0  0  0
   39.6350   25.0440   43.7070 F   0  0  0  0  0  0  0  0  0  0  0  0
   37.8010   24.3260   42.5980 F   0  0  0  0  0  0  0  0  0  0  0  0
  1  2  1  0  0  0  0
  1  7  1  0  0  0  0
  2  8  1  0  0  0  0
  3 16  1  0  0  0  0
  3  2  2  0  0  0  0
  4  3  1  0  0  0  0
  5  4  2  0  0  0  0
  5  6  1  0  0  0  0
  6  1  2  0  0  0  0
  9  5  1  0  0  0  0
 10  9  1  0  0  0  0
 11 10  2  0  0  0  0
 12 14  2  0  0  0  0
 12 11  1  0  0  0  0
 13 12  1  0  0  0  0
 14 15  1  0  0  0  0
 15  9  2  0  0  0  0
 16 18  1  0  0  0  0
 17 16  1  0  0  0  0
 19 16  1  0  0  0  0
M  END
>  <minimizedAffinity>
-4.28994703

>  <minimizedRMSD>
1.63136208

$$$$
