
 OpenBabel03242508403D

 29 31  0  0  1  0  0  0  0  0999 V2000
   38.4080   26.9970   43.1620 C   0  0  2  0  0  0  0  0  0  0  0  0
   39.7560   27.2660   43.6570 C   0  0  0  0  0  0  0  0  0  0  0  0
   40.3770   25.8830   43.8460 C   0  0  0  0  0  0  0  0  0  0  0  0
   39.4560   24.9120   43.1510 C   0  0  0  0  0  0  0  0  0  0  0  0
   38.5820   25.7850   42.2730 C   0  0  2  0  0  0  0  0  0  0  0  0
   37.7420   26.6550   43.9890 H   0  0  0  0  0  0  0  0  0  0  0  0
   40.3820   27.9320   43.0470 H   0  0  0  0  0  0  0  0  0  0  0  0
   39.6840   27.6890   44.7010 H   0  0  0  0  0  0  0  0  0  0  0  0
   40.5320   25.6080   44.8870 H   0  0  0  0  0  0  0  0  0  0  0  0
   41.3740   25.9260   43.3250 H   0  0  0  0  0  0  0  0  0  0  0  0
   38.8750   24.2840   43.8350 H   0  0  0  0  0  0  0  0  0  0  0  0
   40.0720   24.2960   42.4630 H   0  0  0  0  0  0  0  0  0  0  0  0
   37.6130   25.2770   42.1950 H   0  0  0  0  0  0  0  0  0  0  0  0
   38.3110   29.3510   42.2020 C   0  0  0  0  0  0  0  0  0  0  0  0
   37.7280   28.0800   42.4490 C   0  0  0  0  0  0  0  0  0  0  0  0
   36.4330   27.8280   41.9800 C   0  0  0  0  0  0  0  0  0  0  0  0
   35.7980   28.8320   41.3070 N   0  0  0  0  0  0  0  0  0  0  0  0
   36.3740   30.0510   41.0790 C   0  0  0  0  0  0  0  0  0  0  0  0
   37.6420   30.2940   41.5380 N   0  0  0  0  0  0  0  0  0  0  0  0
   39.3080   29.4160   42.6120 H   0  0  0  0  0  0  0  0  0  0  0  0
   35.9150   26.8970   42.1200 H   0  0  0  0  0  0  0  0  0  0  0  0
   35.8330   30.8160   40.5400 H   0  0  0  0  0  0  0  0  0  0  0  0
   39.1330   26.0480   40.9540 C   0  0  0  0  0  0  0  0  0  0  0  0
   40.4510   26.4510   40.7570 C   0  0  0  0  0  0  0  0  0  0  0  0
   41.0300   26.7150   39.5460 C   0  0  0  0  0  0  0  0  0  0  0  0
   40.2470   26.5730   38.4080 C   0  0  0  0  0  0  0  0  0  0  0  0
   40.6980   26.7780   37.4620 H   0  0  0  0  0  0  0  0  0  0  0  0
   38.9370   26.1720   38.6010 C   0  0  0  0  0  0  0  0  0  0  0  0
   38.4210   25.9260   39.8210 N   0  0  0  0  0  0  0  0  0  0  0  0
  1  2  1  0  0  0  0
  1  6  1  1  0  0  0
  2  3  1  0  0  0  0
  2  8  1  0  0  0  0
  3  9  1  0  0  0  0
  4 11  1  0  0  0  0
  4  3  1  0  0  0  0
  5 13  1  6  0  0  0
  5  4  1  0  0  0  0
  5  1  1  0  0  0  0
  7  2  1  0  0  0  0
 10  3  1  0  0  0  0
 12  4  1  0  0  0  0
 14 15  1  0  0  0  0
 14 20  1  0  0  0  0
 15  1  1  0  0  0  0
 16 21  1  0  0  0  0
 16 15  2  0  0  0  0
 17 16  1  0  0  0  0
 18 17  2  0  0  0  0
 18 19  1  0  0  0  0
 19 14  2  0  0  0  0
 22 18  1  0  0  0  0
 23  5  1  0  0  0  0
 24 23  1  0  0  0  0
 25 24  2  0  0  0  0
 26 28  2  0  0  0  0
 26 25  1  0  0  0  0
 27 26  1  0  0  0  0
 28 29  1  0  0  0  0
 29 23  2  0  0  0  0
M  END
>  <minimizedAffinity>
-4.17742252

>  <minimizedRMSD>
0.715377867

$$$$
