
 OpenBabel03242509323D

 19 20  0  0  0  0  0  0  0  0999 V2000
   37.9640   28.5530   43.4820 C   0  0  0  0  0  0  0  0  0  0  0  0
   38.6020   27.2840   43.6070 C   0  0  0  0  0  0  0  0  0  0  0  0
   38.3540   26.3230   42.6250 C   0  0  0  0  0  0  0  0  0  0  0  0
   37.5000   26.6560   41.5820 N   0  0  0  0  0  0  0  0  0  0  0  0
   36.9260   27.8690   41.5160 C   0  0  0  0  0  0  0  0  0  0  0  0
   37.1490   28.7990   42.4400 N   0  0  0  0  0  0  0  0  0  0  0  0
   38.1750   29.2740   44.2570 H   0  0  0  0  0  0  0  0  0  0  0  0
   39.2630   27.0090   44.4030 H   0  0  0  0  0  0  0  0  0  0  0  0
   36.0490   28.1020   40.3750 C   0  0  0  0  0  0  0  0  0  0  0  0
   36.2450   27.3790   39.1950 C   0  0  0  0  0  3  0  0  0  0  0  0
   35.4110   27.6070   38.1250 C   0  0  0  0  0  3  0  0  0  0  0  0
   34.3940   28.5570   38.2540 C   0  0  0  0  0  0  0  0  0  0  0  0
   33.7080   28.7810   37.4510 H   0  0  0  0  0  0  0  0  0  0  0  0
   34.2170   29.2660   39.4400 C   0  0  0  0  0  3  0  0  0  0  0  0
   35.0610   29.0160   40.4820 N   0  0  0  0  0  0  0  0  0  0  0  0
   39.0040   24.9920   42.7260 C   0  0  0  0  0  0  0  0  0  0  0  0
   39.8330   24.8950   41.6230 F   0  0  0  0  0  0  0  0  0  0  0  0
   39.7660   24.8660   43.8420 F   0  0  0  0  0  0  0  0  0  0  0  0
   38.0540   23.9650   42.6730 F   0  0  0  0  0  0  0  0  0  0  0  0
  1  2  1  0  0  0  0
  1  7  1  0  0  0  0
  2  8  1  0  0  0  0
  3 16  1  0  0  0  0
  3  2  2  0  0  0  0
  4  3  1  0  0  0  0
  5  4  2  0  0  0  0
  5  6  1  0  0  0  0
  6  1  2  0  0  0  0
  9 15  1  0  0  0  0
  9  5  1  0  0  0  0
 10  9  2  0  0  0  0
 11 12  2  0  0  0  0
 11 10  1  0  0  0  0
 12 14  1  0  0  0  0
 13 12  1  0  0  0  0
 14 15  2  0  0  0  0
 16 18  1  0  0  0  0
 17 16  1  0  0  0  0
 19 16  1  0  0  0  0
M  END
>  <minimizedAffinity>
-4.54179573

>  <minimizedRMSD>
1.62584436

$$$$
