
 OpenBabel03242509313D

 19 20  0  0  0  0  0  0  0  0999 V2000
   39.3210   27.8270   43.3310 C   0  0  0  0  0  0  0  0  0  0  0  0
   38.7490   26.5550   43.0330 C   0  0  0  0  0  0  0  0  0  0  0  0
   37.8520   26.4710   41.9650 C   0  0  0  0  0  0  0  0  0  0  0  0
   37.5690   27.6300   41.2540 N   0  0  0  0  0  0  0  0  0  0  0  0
   38.1390   28.8020   41.5820 C   0  0  0  0  0  0  0  0  0  0  0  0
   38.9960   28.9030   42.5940 N   0  0  0  0  0  0  0  0  0  0  0  0
   40.0100   27.8580   44.1620 H   0  0  0  0  0  0  0  0  0  0  0  0
   38.9550   25.6520   43.5690 H   0  0  0  0  0  0  0  0  0  0  0  0
   37.7640   29.9490   40.7620 C   0  0  0  0  0  0  0  0  0  0  0  0
   37.0480   29.7460   39.5810 C   0  0  0  0  0  3  0  0  0  0  0  0
   36.6990   30.8370   38.8160 C   0  0  0  0  0  3  0  0  0  0  0  0
   37.0750   32.1110   39.2480 C   0  0  0  0  0  0  0  0  0  0  0  0
   36.8310   33.0030   38.6940 H   0  0  0  0  0  0  0  0  0  0  0  0
   37.7900   32.2880   40.4310 C   0  0  0  0  0  3  0  0  0  0  0  0
   38.1200   31.1860   41.1660 N   0  0  0  0  0  0  0  0  0  0  0  0
   37.2390   25.1620   41.6280 C   0  0  0  0  0  0  0  0  0  0  0  0
   36.4940   25.3810   40.4840 F   0  0  0  0  0  0  0  0  0  0  0  0
   38.1640   24.2060   41.3560 F   0  0  0  0  0  0  0  0  0  0  0  0
   36.3870   24.7300   42.6510 F   0  0  0  0  0  0  0  0  0  0  0  0
  1  7  1  0  0  0  0
  2  1  1  0  0  0  0
  2  8  1  0  0  0  0
  3  2  2  0  0  0  0
  4  5  2  0  0  0  0
  4  3  1  0  0  0  0
  5  6  1  0  0  0  0
  6  1  2  0  0  0  0
  9 15  1  0  0  0  0
  9  5  1  0  0  0  0
 10  9  2  0  0  0  0
 11 12  2  0  0  0  0
 11 10  1  0  0  0  0
 12 14  1  0  0  0  0
 13 12  1  0  0  0  0
 14 15  2  0  0  0  0
 16  3  1  0  0  0  0
 16 19  1  0  0  0  0
 17 16  1  0  0  0  0
 18 16  1  0  0  0  0
M  END
>  <minimizedAffinity>
-4.45175505

>  <minimizedRMSD>
1.83935082

$$$$
