
 OpenBabel03242509313D

 19 20  0  0  0  0  0  0  0  0999 V2000
   37.9770   28.5380   43.4750 C   0  0  0  0  0  0  0  0  0  0  0  0
   38.6120   27.2670   43.6030 C   0  0  0  0  0  0  0  0  0  0  0  0
   38.3640   26.3050   42.6220 C   0  0  0  0  0  0  0  0  0  0  0  0
   37.5140   26.6390   41.5770 N   0  0  0  0  0  0  0  0  0  0  0  0
   36.9430   27.8530   41.5070 C   0  0  0  0  0  0  0  0  0  0  0  0
   37.1660   28.7840   42.4300 N   0  0  0  0  0  0  0  0  0  0  0  0
   38.1890   29.2590   44.2500 H   0  0  0  0  0  0  0  0  0  0  0  0
   39.2700   26.9910   44.4020 H   0  0  0  0  0  0  0  0  0  0  0  0
   36.0700   28.0870   40.3630 C   0  0  0  0  0  0  0  0  0  0  0  0
   35.0760   29.0650   40.4420 C   0  0  0  0  0  3  0  0  0  0  0  0
   34.2580   29.2750   39.3550 C   0  0  0  0  0  3  0  0  0  0  0  0
   34.4500   28.5020   38.2070 C   0  0  0  0  0  0  0  0  0  0  0  0
   33.8420   28.6200   37.3230 H   0  0  0  0  0  0  0  0  0  0  0  0
   35.4480   27.5320   38.1510 C   0  0  0  0  0  3  0  0  0  0  0  0
   36.2430   27.3480   39.2450 N   0  0  0  0  0  0  0  0  0  0  0  0
   39.0100   24.9720   42.7270 C   0  0  0  0  0  0  0  0  0  0  0  0
   39.8430   24.8720   41.6280 F   0  0  0  0  0  0  0  0  0  0  0  0
   39.7680   24.8460   43.8460 F   0  0  0  0  0  0  0  0  0  0  0  0
   38.0580   23.9480   42.6730 F   0  0  0  0  0  0  0  0  0  0  0  0
  1  2  1  0  0  0  0
  1  7  1  0  0  0  0
  2  8  1  0  0  0  0
  3 16  1  0  0  0  0
  3  2  2  0  0  0  0
  4  3  1  0  0  0  0
  5  4  2  0  0  0  0
  5  6  1  0  0  0  0
  6  1  2  0  0  0  0
  9 10  1  0  0  0  0
  9  5  1  0  0  0  0
 11 10  2  0  0  0  0
 12 11  1  0  0  0  0
 13 12  1  0  0  0  0
 14 12  2  0  0  0  0
 14 15  1  0  0  0  0
 15  9  2  0  0  0  0
 16 18  1  0  0  0  0
 17 16  1  0  0  0  0
 19 16  1  0  0  0  0
M  END
>  <minimizedAffinity>
-4.66373587

>  <minimizedRMSD>
1.68057728

$$$$
