
 OpenBabel03242509313D

 19 20  0  0  0  0  0  0  0  0999 V2000
   37.5030   28.4450   43.7700 C   0  0  0  0  0  0  0  0  0  0  0  0
   37.4050   27.0780   43.3780 C   0  0  0  0  0  0  0  0  0  0  0  0
   37.2650   26.7910   42.0180 C   0  0  0  0  0  0  0  0  0  0  0  0
   37.2290   27.8530   41.1250 N   0  0  0  0  0  0  0  0  0  0  0  0
   37.3260   29.1230   41.5520 C   0  0  0  0  0  0  0  0  0  0  0  0
   37.4610   29.4180   42.8420 N   0  0  0  0  0  0  0  0  0  0  0  0
   37.6110   28.6340   44.8280 H   0  0  0  0  0  0  0  0  0  0  0  0
   37.4300   26.2460   44.0520 H   0  0  0  0  0  0  0  0  0  0  0  0
   37.2760   30.1530   40.5200 C   0  0  0  0  0  0  0  0  0  0  0  0
   37.0820   29.7840   39.1870 C   0  0  0  0  0  3  0  0  0  0  0  0
   37.0370   30.7660   38.2230 C   0  0  0  0  0  3  0  0  0  0  0  0
   37.1870   32.1000   38.6110 C   0  0  0  0  0  0  0  0  0  0  0  0
   37.1610   32.9130   37.9020 H   0  0  0  0  0  0  0  0  0  0  0  0
   37.3790   32.4430   39.9460 C   0  0  0  0  0  3  0  0  0  0  0  0
   37.4190   31.4470   40.8790 N   0  0  0  0  0  0  0  0  0  0  0  0
   37.1590   25.3770   41.5770 C   0  0  0  0  0  0  0  0  0  0  0  0
   36.4670   25.4090   40.3800 F   0  0  0  0  0  0  0  0  0  0  0  0
   38.3720   24.8090   41.3510 F   0  0  0  0  0  0  0  0  0  0  0  0
   36.4360   24.6160   42.5020 F   0  0  0  0  0  0  0  0  0  0  0  0
  1  7  1  0  0  0  0
  2  1  1  0  0  0  0
  2  8  1  0  0  0  0
  3  2  2  0  0  0  0
  4  5  2  0  0  0  0
  4  3  1  0  0  0  0
  5  6  1  0  0  0  0
  6  1  2  0  0  0  0
  9 15  1  0  0  0  0
  9  5  1  0  0  0  0
 10  9  2  0  0  0  0
 11 12  2  0  0  0  0
 11 10  1  0  0  0  0
 12 14  1  0  0  0  0
 13 12  1  0  0  0  0
 14 15  2  0  0  0  0
 16  3  1  0  0  0  0
 16 19  1  0  0  0  0
 17 16  1  0  0  0  0
 18 16  1  0  0  0  0
M  END
>  <minimizedAffinity>
-4.76587486

>  <minimizedRMSD>
1.81969023

$$$$
