
 OpenBabel03242509033D

 36 39  0  0  1  0  0  0  0  0999 V2000
   38.1210   28.4730   40.4840 N   0  0  1  0  0  0  0  0  0  0  0  0
   37.2010   27.7840   39.5400 C   0  0  0  0  0  0  0  0  0  0  0  0
   37.9480   27.0120   38.4970 C   0  0  0  0  0  0  0  0  0  0  0  0
   39.0330   27.7270   38.0110 O   0  0  0  0  0  0  0  0  0  0  0  0
   38.7780   29.0690   38.2170 C   0  0  0  0  0  0  0  0  0  0  0  0
   38.8250   29.4250   39.7170 C   0  0  1  0  0  0  0  0  0  0  0  0
   36.5750   27.0950   40.1620 H   0  0  0  0  0  0  0  0  0  0  0  0
   36.4770   28.5080   39.1210 H   0  0  0  0  0  0  0  0  0  0  0  0
   38.2400   26.0040   38.8840 H   0  0  0  0  0  0  0  0  0  0  0  0
   37.2670   26.8260   37.6530 H   0  0  0  0  0  0  0  0  0  0  0  0
   39.5290   29.7180   37.6990 H   0  0  0  0  0  0  0  0  0  0  0  0
   37.7980   29.2920   37.7730 H   0  0  0  0  0  0  0  0  0  0  0  0
   39.9210   29.2900   39.9650 H   0  0  0  0  0  0  0  0  0  0  0  0
   37.2600   28.0200   42.8820 C   0  0  1  0  0  0  0  0  0  0  0  0
   37.9940   29.3030   42.9090 C   0  0  0  0  0  0  0  0  0  0  0  0
   37.4250   28.8970   41.6220 C   0  0  1  0  0  0  0  0  0  0  0  0
   36.2470   27.8830   43.2560 H   0  0  0  0  0  0  0  0  0  0  0  0
   39.0570   29.2480   43.1950 H   0  0  0  0  0  0  0  0  0  0  0  0
   37.4850   30.0970   43.5350 H   0  0  0  0  0  0  0  0  0  0  0  0
   36.4540   29.4370   41.3960 H   0  0  0  0  0  0  0  0  0  0  0  0
   40.0170   25.7210   43.6850 C   0  0  0  0  0  0  0  0  0  0  0  0
   39.5740   24.4920   43.1060 C   0  0  0  0  0  0  0  0  0  0  0  0
   38.3150   24.5010   42.4340 C   0  0  0  0  0  0  0  0  0  0  0  0
   37.5950   25.6870   42.3760 N   0  0  0  0  0  0  0  0  0  0  0  0
   38.0860   26.7880   42.9440 C   0  0  0  0  0  0  0  0  0  0  0  0
   39.2730   26.8320   43.5920 N   0  0  0  0  0  0  0  0  0  0  0  0
   40.9730   25.6730   44.1840 H   0  0  0  0  0  0  0  0  0  0  0  0
   40.1350   23.5750   43.1530 H   0  0  0  0  0  0  0  0  0  0  0  0
   37.9540   23.6040   41.9910 H   0  0  0  0  0  0  0  0  0  0  0  0
   38.5180   30.8340   39.8860 C   0  0  0  0  0  0  0  0  0  0  0  0
   37.4260   31.4340   39.2420 C   0  0  0  0  0  0  0  0  0  0  0  0
   37.1180   32.7710   39.3890 C   0  0  0  0  0  0  0  0  0  0  0  0
   37.9480   33.5020   40.2130 C   0  0  0  0  0  0  0  0  0  0  0  0
   37.7370   34.5420   40.3500 H   0  0  0  0  0  0  0  0  0  0  0  0
   39.0320   32.9300   40.8600 C   0  0  0  0  0  0  0  0  0  0  0  0
   39.2710   31.6180   40.6670 N   0  0  0  0  0  0  0  0  0  0  0  0
  1  2  1  6  0  0  0
  1 16  1  0  0  0  0
  2  7  1  0  0  0  0
  3  9  1  0  0  0  0
  3  2  1  0  0  0  0
  4  5  1  0  0  0  0
  4  3  1  0  0  0  0
  5  6  1  0  0  0  0
  6 30  1  0  0  0  0
  6 13  1  1  0  0  0
  6  1  1  0  0  0  0
  8  2  1  0  0  0  0
 10  3  1  0  0  0  0
 11  5  1  0  0  0  0
 12  5  1  0  0  0  0
 14 15  1  0  0  0  0
 14 25  1  0  0  0  0
 14 17  1  1  0  0  0
 15 18  1  0  0  0  0
 15 19  1  0  0  0  0
 16 20  1  6  0  0  0
 16 14  1  0  0  0  0
 16 15  1  0  0  0  0
 21 27  1  0  0  0  0
 22 28  1  0  0  0  0
 22 21  2  0  0  0  0
 23 22  1  0  0  0  0
 24 23  2  0  0  0  0
 24 25  1  0  0  0  0
 25 26  2  0  0  0  0
 26 21  1  0  0  0  0
 29 23  1  0  0  0  0
 30 36  1  0  0  0  0
 31 32  1  0  0  0  0
 31 30  2  0  0  0  0
 32 33  2  0  0  0  0
 33 34  1  0  0  0  0
 33 35  1  0  0  0  0
 36 35  2  0  0  0  0
M  END
>  <minimizedAffinity>
-5.26362753

>  <minimizedRMSD>
2.74662781

$$$$
