
 OpenBabel03242507193D

 48 52  0  0  0  0  0  0  0  0999 V2000
   35.0980   29.1470   40.5530 C   0  0  0  0  0  0  0  0  0  0  0  0
   36.1140   28.2800   40.9490 C   0  0  0  0  0  0  0  0  0  0  0  0
   36.5740   27.3730   39.9780 C   0  0  0  0  0  0  0  0  0  0  0  0
   36.0270   27.3840   38.7510 N   0  0  0  0  0  0  0  0  0  0  0  0
   35.0340   28.2450   38.3930 C   0  0  0  0  0  0  0  0  0  0  0  0
   34.5560   29.1460   39.3090 N   0  0  0  0  0  0  0  0  0  0  0  0
   34.7580   29.8350   41.3080 H   0  0  0  0  0  0  0  0  0  0  0  0
   37.3570   26.6580   40.1820 H   0  0  0  0  0  0  0  0  0  0  0  0
   36.6680   28.2850   42.2270 N   0  0  0  0  0  0  0  0  0  0  0  0
   36.2990   27.5120   43.2600 C   0  0  0  0  0  0  0  0  0  0  0  0
   37.1320   27.8820   44.2910 C   0  0  0  0  0  0  0  0  0  0  0  0
   37.9860   28.8610   43.8790 N   0  0  0  0  0  0  0  0  0  0  0  0
   37.6880   29.0990   42.6020 C   0  0  0  0  0  0  0  0  0  0  0  0
   38.4670   30.1010   41.9620 N   0  0  0  0  0  0  0  0  0  0  0  0
   39.8070   30.2630   42.2260 C   0  0  0  0  0  0  0  0  0  0  0  0
   40.3230   31.2890   41.4830 N   0  0  0  0  0  0  0  0  0  0  0  0
   39.3240   31.7820   40.7470 C   0  0  0  0  0  0  0  0  0  0  0  0
   39.2660   32.8080   39.8300 C   0  0  0  0  0  0  0  0  0  0  0  0
   38.0630   33.0270   39.2740 N   0  0  0  0  0  0  0  0  0  0  0  0
   36.9680   32.3150   39.5650 C   0  0  0  0  0  0  0  0  0  0  0  0
   37.0070   31.3010   40.4670 N   0  0  0  0  0  0  0  0  0  0  0  0
   38.1930   31.0570   41.0400 C   0  0  0  0  0  0  0  0  0  0  0  0
   40.4140   33.5880   39.4950 N   0  0  0  0  0  0  0  0  0  0  0  0
   35.5110   26.7740   43.2360 H   0  0  0  0  0  0  0  0  0  0  0  0
   37.0860   27.4280   45.2920 H   0  0  0  0  0  0  0  0  0  0  0  0
   40.4780   29.7510   42.8780 H   0  0  0  0  0  0  0  0  0  0  0  0
   36.0330   32.5430   39.0830 H   0  0  0  0  0  0  0  0  0  0  0  0
   41.3430   33.2700   39.8320 H   0  0  0  0  0  0  0  0  0  0  0  0
   40.2490   34.4510   38.9200 H   0  0  0  0  0  0  0  0  0  0  0  0
   34.3920   28.3240   37.0860 C   0  0  0  0  0  0  0  0  0  0  0  0
   33.0120   28.9130   37.1310 C   0  0  0  0  0  0  0  0  0  0  0  0
   33.1070   30.0230   37.0310 H   0  0  0  0  0  0  0  0  0  0  0  0
   32.3730   28.5720   36.3090 H   0  0  0  0  0  0  0  0  0  0  0  0
   32.5120   28.7690   38.1300 H   0  0  0  0  0  0  0  0  0  0  0  0
   34.2420   26.9170   36.5220 C   0  0  0  0  0  0  0  0  0  0  0  0
   35.1060   26.2800   36.7070 H   0  0  0  0  0  0  0  0  0  0  0  0
   33.9670   27.0600   35.4590 H   0  0  0  0  0  0  0  0  0  0  0  0
   33.3540   26.4680   37.0260 H   0  0  0  0  0  0  0  0  0  0  0  0
   35.2450   29.0910   36.1030 C   0  0  0  0  0  0  0  0  0  0  0  0
   34.7990   30.0980   35.9010 H   0  0  0  0  0  0  0  0  0  0  0  0
   35.1400   28.5600   35.1220 H   0  0  0  0  0  0  0  0  0  0  0  0
   36.6630   29.1390   36.4410 C   0  0  0  0  0  0  0  0  0  0  0  0
   37.4230   28.1280   35.8380 C   0  0  0  0  0  0  0  0  0  0  0  0
   38.7410   28.3110   36.2580 C   0  0  0  0  0  0  0  0  0  0  0  0
   39.6340   27.7500   36.0240 H   0  0  0  0  0  0  0  0  0  0  0  0
   38.7700   29.3690   37.0650 N   0  0  0  0  0  0  0  0  0  0  0  0
   37.5560   29.8180   37.1460 N   0  0  0  0  0  0  0  0  0  0  0  0
   39.5170   29.8670   37.6010 H   0  0  0  0  0  0  0  0  0  0  0  0
  1  2  1  0  0  0  0
  1  7  1  0  0  0  0
  2  9  1  0  0  0  0
  3  8  1  0  0  0  0
  3  2  2  0  0  0  0
  4  3  1  0  0  0  0
  5  4  2  0  0  0  0
  5  6  1  0  0  0  0
  6  1  2  0  0  0  0
  9 13  1  0  0  0  0
  9 10  1  0  0  0  0
 10 11  2  0  0  0  0
 11 25  1  0  0  0  0
 12 11  1  0  0  0  0
 13 12  2  0  0  0  0
 14 15  1  0  0  0  0
 14 13  1  0  0  0  0
 15 26  1  0  0  0  0
 16 15  2  0  0  0  0
 17 22  1  0  0  0  0
 17 16  1  0  0  0  0
 18 17  2  0  0  0  0
 19 20  2  0  0  0  0
 19 18  1  0  0  0  0
 20 21  1  0  0  0  0
 21 22  2  0  0  0  0
 22 14  1  0  0  0  0
 23 18  1  0  0  0  0
 23 28  1  0  0  0  0
 24 10  1  0  0  0  0
 27 20  1  0  0  0  0
 29 23  1  0  0  0  0
 30 31  1  0  0  0  0
 30  5  1  0  0  0  0
 31 34  1  0  0  0  0
 32 31  1  0  0  0  0
 33 31  1  0  0  0  0
 35 36  1  0  0  0  0
 35 38  1  0  0  0  0
 35 30  1  0  0  0  0
 37 35  1  0  0  0  0
 39 42  1  0  0  0  0
 39 30  1  0  0  0  0
 40 39  1  0  0  0  0
 41 39  1  0  0  0  0
 42 47  2  0  0  0  0
 43 44  2  0  0  0  0
 43 42  1  0  0  0  0
 44 46  1  0  0  0  0
 45 44  1  0  0  0  0
 46 47  1  0  0  0  0
 46 48  1  0  0  0  0
M  END
>  <minimizedAffinity>
-6.40211058

>  <minimizedRMSD>
0.734851897

$$$$
