
 OpenBabel03242509323D

 18 19  0  0  0  0  0  0  0  0999 V2000
   37.6500   28.8580   43.5180 C   0  0  0  0  0  0  0  0  0  0  0  0
   37.6680   27.4320   43.4910 C   0  0  0  0  0  0  0  0  0  0  0  0
   37.6030   26.8090   42.2350 C   0  0  0  0  0  0  0  0  0  0  0  0
   37.5250   27.6050   41.1080 N   0  0  0  0  0  0  0  0  0  0  0  0
   37.5110   28.9460   41.2010 C   0  0  0  0  0  0  0  0  0  0  0  0
   37.5730   29.5580   42.3860 N   0  0  0  0  0  0  0  0  0  0  0  0
   37.7000   29.3700   44.4670 H   0  0  0  0  0  0  0  0  0  0  0  0
   37.7300   26.8520   44.3850 H   0  0  0  0  0  0  0  0  0  0  0  0
   37.4230   29.5960   39.8740 C   0  0  0  0  0  0  0  0  0  0  0  0
   36.9830   28.9830   38.7180 C   0  0  0  0  0  3  0  0  0  0  0  0
   37.1240   30.3080   37.4880 S   0  0  0  0  0  0  0  0  0  0  0  0
   37.7880   31.5250   38.8150 C   0  0  0  0  0  0  0  0  0  0  0  0
   38.0490   32.5540   38.5600 H   0  0  0  0  0  0  0  0  0  0  0  0
   37.8220   30.8500   39.9270 N   0  0  0  0  0  0  0  0  0  0  0  0
   37.6200   25.3280   42.1600 C   0  0  0  0  0  0  0  0  0  0  0  0
   37.7650   25.0130   40.8320 F   0  0  0  0  0  0  0  0  0  0  0  0
   38.6730   24.7850   42.8430 F   0  0  0  0  0  0  0  0  0  0  0  0
   36.4210   24.7850   42.6300 F   0  0  0  0  0  0  0  0  0  0  0  0
  1  7  1  0  0  0  0
  2  1  1  0  0  0  0
  2  8  1  0  0  0  0
  3  2  2  0  0  0  0
  4  5  2  0  0  0  0
  4  3  1  0  0  0  0
  5  6  1  0  0  0  0
  6  1  2  0  0  0  0
  9 14  1  0  0  0  0
  9  5  1  0  0  0  0
 10  9  2  0  0  0  0
 11 10  1  0  0  0  0
 11 12  1  0  0  0  0
 12 14  2  0  0  0  0
 13 12  1  0  0  0  0
 15  3  1  0  0  0  0
 15 18  1  0  0  0  0
 15 17  1  0  0  0  0
 16 15  1  0  0  0  0
M  END
>  <minimizedAffinity>
-4.04270983

>  <minimizedRMSD>
1.46028805

$$$$
