
 OpenBabel03242504443D

 41 43  0  0  1  0  0  0  0  0999 V2000
   37.7890   27.9210   41.4050 C   0  0  1  0  0  0  0  0  0  0  0  0
   36.8240   27.4350   41.7320 H   0  0  0  0  0  0  0  0  0  0  0  0
   37.3040   30.4380   38.6480 C   0  0  0  0  0  0  0  0  0  0  0  0
   37.6420   29.2440   39.2990 C   0  0  0  0  0  0  0  0  0  0  0  0
   37.3990   29.1420   40.6630 C   0  0  0  0  0  0  0  0  0  0  0  0
   36.8360   30.2210   41.2880 N   0  0  0  0  0  0  0  0  0  0  0  0
   36.5250   31.3450   40.6370 C   0  0  0  0  0  0  0  0  0  0  0  0
   36.7580   31.4540   39.3210 N   0  0  0  0  0  0  0  0  0  0  0  0
   37.4690   30.5830   37.5830 H   0  0  0  0  0  0  0  0  0  0  0  0
   38.0720   28.5100   38.6430 H   0  0  0  0  0  0  0  0  0  0  0  0
   36.0870   32.1010   41.2890 H   0  0  0  0  0  0  0  0  0  0  0  0
   38.4920   26.9750   40.5120 C   0  0  0  0  0  0  0  0  0  0  0  0
   37.9730   26.9930   39.5260 H   0  0  0  0  0  0  0  0  0  0  0  0
   39.5360   27.3050   40.3150 H   0  0  0  0  0  0  0  0  0  0  0  0
   38.4740   25.6000   41.0050 C   0  0  2  0  0  0  0  0  0  0  0  0
   39.3330   24.6810   40.1800 C   0  0  0  0  0  0  0  0  0  0  0  0
   38.6430   23.3240   40.2790 C   0  0  0  0  0  0  0  0  0  0  0  0
   37.3600   23.5620   41.0780 C   0  0  0  0  0  0  0  0  0  0  0  0
   37.1010   25.0280   40.8520 C   0  0  2  0  0  0  0  0  0  0  0  0
   38.7090   25.3010   42.0120 H   0  0  0  0  0  0  0  0  0  0  0  0
   40.3760   24.6360   40.5170 H   0  0  0  0  0  0  0  0  0  0  0  0
   39.3290   24.9970   39.1240 H   0  0  0  0  0  0  0  0  0  0  0  0
   38.3640   22.9280   39.2930 H   0  0  0  0  0  0  0  0  0  0  0  0
   39.3330   22.6610   40.8450 H   0  0  0  0  0  0  0  0  0  0  0  0
   37.5390   23.4190   42.1650 H   0  0  0  0  0  0  0  0  0  0  0  0
   36.5360   22.9130   40.7260 H   0  0  0  0  0  0  0  0  0  0  0  0
   36.3290   25.3720   41.5200 H   0  0  0  0  0  0  0  0  0  0  0  0
   36.5300   25.1780   39.4860 C   0  0  0  0  0  0  0  0  0  0  0  0
   35.6450   24.6200   38.8190 O   0  0  0  0  0  0  0  0  0  0  0  0
   36.6730   25.8160   38.5890 H   0  0  0  0  0  0  0  0  0  0  0  0
   38.5600   28.2010   42.6850 C   0  0  1  0  0  0  0  0  0  0  0  0
   38.7320   27.1230   43.1090 H   0  0  0  0  0  0  0  0  0  0  0  0
   39.8750   28.7340   42.5520 C   0  0  0  0  0  0  0  0  0  0  0  0
   40.2510   29.6830   41.4660 C   0  0  0  0  0  0  0  0  0  0  0  0
   40.1600   30.2530   42.8040 C   0  0  0  0  0  0  0  0  0  0  0  0
   37.7150   28.6900   43.6820 O   0  0  0  0  0  0  0  0  0  0  0  0
   36.7340   28.0400   44.2980 C   0  0  0  0  0  0  0  0  0  0  0  0
   36.3570   28.4900   45.5790 N   0  0  0  0  0  0  0  0  0  0  0  0
   36.1880   27.0750   43.7200 O   0  0  0  0  0  0  0  0  0  0  0  0
   36.8490   27.8930   46.2800 H   0  0  0  0  0  0  0  0  0  0  0  0
   35.6970   29.2880   45.7390 H   0  0  0  0  0  0  0  0  0  0  0  0
  1  2  1  1  0  0  0
  1 31  1  0  0  0  0
  3  4  2  0  0  0  0
  3  8  1  0  0  0  0
  4  5  1  0  0  0  0
  5  6  2  0  0  0  0
  5  1  1  0  0  0  0
  7  6  1  0  0  0  0
  7 11  1  0  0  0  0
  8  7  2  0  0  0  0
  9  3  1  0  0  0  0
 10  4  1  0  0  0  0
 12 15  1  0  0  0  0
 12  1  1  0  0  0  0
 13 12  1  0  0  0  0
 14 12  1  0  0  0  0
 15 20  1  1  0  0  0
 16 17  1  0  0  0  0
 16 21  1  0  0  0  0
 16 15  1  0  0  0  0
 17 24  1  0  0  0  0
 17 18  1  0  0  0  0
 18 25  1  0  0  0  0
 19 15  1  0  0  0  0
 19 18  1  0  0  0  0
 19 27  1  1  0  0  0
 22 16  1  0  0  0  0
 23 17  1  0  0  0  0
 26 18  1  0  0  0  0
 28 19  1  0  0  0  0
 29 28  2  0  0  0  0
 30 28  1  0  0  0  0
 31 32  1  1  0  0  0
 31 36  1  0  0  0  0
 33 31  1  0  0  0  0
 33 35  1  0  0  0  0
 34 33  1  0  0  0  0
 34 35  1  0  0  0  0
 36 37  1  0  0  0  0
 37 38  1  0  0  0  0
 38 41  1  0  0  0  0
 38 40  1  0  0  0  0
 39 37  2  0  0  0  0
M  END
>  <minimizedAffinity>
-4.64918995

>  <minimizedRMSD>
0.586058617

$$$$
