
 OpenBabel03242509313D

 18 19  0  0  0  0  0  0  0  0999 V2000
   37.8440   28.7110   43.5400 C   0  0  0  0  0  0  0  0  0  0  0  0
   38.2650   27.3490   43.6010 C   0  0  0  0  0  0  0  0  0  0  0  0
   38.1120   26.5740   42.4410 C   0  0  0  0  0  0  0  0  0  0  0  0
   37.5670   27.1690   41.3180 N   0  0  0  0  0  0  0  0  0  0  0  0
   37.1890   28.4580   41.3260 C   0  0  0  0  0  0  0  0  0  0  0  0
   37.3270   29.2130   42.4190 N   0  0  0  0  0  0  0  0  0  0  0  0
   37.9480   29.3360   44.4150 H   0  0  0  0  0  0  0  0  0  0  0  0
   38.6820   26.9260   44.4870 H   0  0  0  0  0  0  0  0  0  0  0  0
   36.6340   28.8850   40.0220 C   0  0  0  0  0  0  0  0  0  0  0  0
   35.7500   28.1510   39.2580 C   0  0  0  0  0  3  0  0  0  0  0  0
   35.4800   29.2250   37.8210 S   0  0  0  0  0  0  0  0  0  0  0  0
   36.6710   30.5490   38.5370 C   0  0  0  0  0  0  0  0  0  0  0  0
   36.8710   31.4800   38.0010 H   0  0  0  0  0  0  0  0  0  0  0  0
   37.0910   30.0690   39.6700 N   0  0  0  0  0  0  0  0  0  0  0  0
   38.5370   25.1530   42.4590 C   0  0  0  0  0  0  0  0  0  0  0  0
   39.1700   24.9270   41.2610 F   0  0  0  0  0  0  0  0  0  0  0  0
   39.4240   24.8890   43.4640 F   0  0  0  0  0  0  0  0  0  0  0  0
   37.4360   24.2980   42.5620 F   0  0  0  0  0  0  0  0  0  0  0  0
  1  2  1  0  0  0  0
  1  7  1  0  0  0  0
  2  8  1  0  0  0  0
  3 15  1  0  0  0  0
  3  2  2  0  0  0  0
  4  5  2  0  0  0  0
  4  3  1  0  0  0  0
  5  6  1  0  0  0  0
  6  1  2  0  0  0  0
  9  5  1  0  0  0  0
 10  9  2  0  0  0  0
 11 12  1  0  0  0  0
 11 10  1  0  0  0  0
 12 14  2  0  0  0  0
 13 12  1  0  0  0  0
 14  9  1  0  0  0  0
 15 18  1  0  0  0  0
 15 17  1  0  0  0  0
 16 15  1  0  0  0  0
M  END
>  <minimizedAffinity>
-3.93016195

>  <minimizedRMSD>
1.07719576

$$$$
