
 OpenBabel03242509313D

 18 19  0  0  0  0  0  0  0  0999 V2000
   37.8150   28.7760   43.4770 C   0  0  0  0  0  0  0  0  0  0  0  0
   38.0820   27.3760   43.5250 C   0  0  0  0  0  0  0  0  0  0  0  0
   37.9040   26.6440   42.3410 C   0  0  0  0  0  0  0  0  0  0  0  0
   37.4820   27.3150   41.2090 N   0  0  0  0  0  0  0  0  0  0  0  0
   37.2460   28.6370   41.2300 C   0  0  0  0  0  0  0  0  0  0  0  0
   37.4110   29.3520   42.3460 N   0  0  0  0  0  0  0  0  0  0  0  0
   37.9420   29.3700   44.3700 H   0  0  0  0  0  0  0  0  0  0  0  0
   38.4070   26.8940   44.4200 H   0  0  0  0  0  0  0  0  0  0  0  0
   36.8060   29.1460   39.9110 C   0  0  0  0  0  0  0  0  0  0  0  0
   36.1010   28.4170   38.9750 C   0  0  0  0  0  3  0  0  0  0  0  0
   35.8890   29.6080   37.6230 S   0  0  0  0  0  0  0  0  0  0  0  0
   36.8380   30.9560   38.6060 C   0  0  0  0  0  0  0  0  0  0  0  0
   37.0000   31.9520   38.1900 H   0  0  0  0  0  0  0  0  0  0  0  0
   37.1720   30.3990   39.7330 N   0  0  0  0  0  0  0  0  0  0  0  0
   38.1710   25.1850   42.3460 C   0  0  0  0  0  0  0  0  0  0  0  0
   38.6590   24.8810   41.0980 F   0  0  0  0  0  0  0  0  0  0  0  0
   39.1160   24.8320   43.2690 F   0  0  0  0  0  0  0  0  0  0  0  0
   36.9990   24.4570   42.5670 F   0  0  0  0  0  0  0  0  0  0  0  0
  1  2  1  0  0  0  0
  1  7  1  0  0  0  0
  2  8  1  0  0  0  0
  3 15  1  0  0  0  0
  3  2  2  0  0  0  0
  4  5  2  0  0  0  0
  4  3  1  0  0  0  0
  5  6  1  0  0  0  0
  6  1  2  0  0  0  0
  9  5  1  0  0  0  0
 10  9  2  0  0  0  0
 11 12  1  0  0  0  0
 11 10  1  0  0  0  0
 12 14  2  0  0  0  0
 13 12  1  0  0  0  0
 14  9  1  0  0  0  0
 15 18  1  0  0  0  0
 15 17  1  0  0  0  0
 16 15  1  0  0  0  0
M  END
>  <minimizedAffinity>
-3.90203738

>  <minimizedRMSD>
0.986122131

$$$$
