
 OpenBabel03242509313D

 18 19  0  0  0  0  0  0  0  0999 V2000
   37.8260   28.6590   43.5670 C   0  0  0  0  0  0  0  0  0  0  0  0
   38.3620   27.3450   43.7090 C   0  0  0  0  0  0  0  0  0  0  0  0
   38.4030   26.5380   42.5620 C   0  0  0  0  0  0  0  0  0  0  0  0
   37.9260   27.0570   41.3730 N   0  0  0  0  0  0  0  0  0  0  0  0
   37.4320   28.3050   41.3060 C   0  0  0  0  0  0  0  0  0  0  0  0
   37.3840   29.0880   42.3860 N   0  0  0  0  0  0  0  0  0  0  0  0
   37.7800   29.3070   44.4300 H   0  0  0  0  0  0  0  0  0  0  0  0
   38.7220   26.9800   44.6450 H   0  0  0  0  0  0  0  0  0  0  0  0
   36.9780   28.6520   39.9400 C   0  0  0  0  0  0  0  0  0  0  0  0
   36.3050   29.8070   39.5980 C   0  0  0  0  0  3  0  0  0  0  0  0
   36.0560   29.6060   37.8120 S   0  0  0  0  0  0  0  0  0  0  0  0
   36.9510   27.9080   37.8370 C   0  0  0  0  0  0  0  0  0  0  0  0
   37.0770   27.3220   36.9250 H   0  0  0  0  0  0  0  0  0  0  0  0
   37.3000   27.7120   39.0750 N   0  0  0  0  0  0  0  0  0  0  0  0
   38.9540   25.1640   42.6630 C   0  0  0  0  0  0  0  0  0  0  0  0
   39.7720   24.9980   41.5720 F   0  0  0  0  0  0  0  0  0  0  0  0
   39.7090   24.9880   43.7890 F   0  0  0  0  0  0  0  0  0  0  0  0
   37.9360   24.2070   42.6200 F   0  0  0  0  0  0  0  0  0  0  0  0
  1  2  1  0  0  0  0
  1  7  1  0  0  0  0
  2  8  1  0  0  0  0
  3 15  1  0  0  0  0
  3  2  2  0  0  0  0
  4  3  1  0  0  0  0
  5  4  2  0  0  0  0
  5  6  1  0  0  0  0
  6  1  2  0  0  0  0
  9  5  1  0  0  0  0
 10  9  2  0  0  0  0
 11 12  1  0  0  0  0
 11 10  1  0  0  0  0
 12 14  2  0  0  0  0
 13 12  1  0  0  0  0
 14  9  1  0  0  0  0
 15 17  1  0  0  0  0
 16 15  1  0  0  0  0
 18 15  1  0  0  0  0
M  END
>  <minimizedAffinity>
-3.7823832

>  <minimizedRMSD>
1.53976715

$$$$
