
 OpenBabel03242509273D

 45 49  0  0  0  0  0  0  0  0999 V2000
   36.1330   30.0720   41.0870 C   0  0  0  0  0  0  0  0  0  0  0  0
   36.7370   30.8620   40.5880 H   0  0  0  0  0  0  0  0  0  0  0  0
   35.5470   30.6030   41.8800 H   0  0  0  0  0  0  0  0  0  0  0  0
   38.6080   28.1630   42.6910 C   0  0  0  0  0  0  0  0  0  0  0  0
   37.5320   27.3280   42.7910 C   0  0  0  0  0  0  0  0  0  0  0  0
   36.4610   27.9830   42.1760 C   0  0  0  0  0  0  0  0  0  0  0  0
   36.9760   29.1470   41.7610 N   0  0  0  0  0  0  0  0  0  0  0  0
   38.2350   29.3000   42.0390 N   0  0  0  0  0  0  0  0  0  0  0  0
   37.5110   26.3330   43.2620 H   0  0  0  0  0  0  0  0  0  0  0  0
   35.4900   27.5420   42.1160 H   0  0  0  0  0  0  0  0  0  0  0  0
   41.5380   26.5300   44.3180 C   0  0  0  0  0  0  0  0  0  0  0  0
   40.2340   26.7240   43.8490 C   0  0  0  0  0  0  0  0  0  0  0  0
   39.9520   27.9280   43.1830 C   0  0  0  0  0  0  0  0  0  0  0  0
   40.9270   28.8650   43.0090 N   0  0  0  0  0  0  0  0  0  0  0  0
   42.1860   28.5970   43.5010 C   0  0  0  0  0  0  0  0  0  0  0  0
   42.4750   27.4660   44.1340 N   0  0  0  0  0  0  0  0  0  0  0  0
   41.6990   25.5900   44.8200 H   0  0  0  0  0  0  0  0  0  0  0  0
   39.4780   25.9900   43.9870 H   0  0  0  0  0  0  0  0  0  0  0  0
   43.2540   29.5780   43.3320 C   0  0  0  0  0  0  0  0  0  0  0  0
   42.9820   30.8890   43.7430 C   0  0  0  0  0  3  0  0  0  0  0  0
   44.1420   31.6100   43.4790 C   0  0  0  0  0  3  0  0  0  0  0  0
   45.0480   30.7010   42.9260 C   0  0  0  0  0  0  0  0  0  0  0  0
   46.0660   30.9290   42.5970 H   0  0  0  0  0  0  0  0  0  0  0  0
   44.4640   29.5410   42.8700 O   0  0  0  0  0  0  0  0  0  0  0  0
   35.2470   29.4950   40.0290 C   0  0  0  0  0  0  0  0  0  0  0  0
   34.5240   30.3720   39.9110 H   0  0  0  0  0  0  0  0  0  0  0  0
   34.7860   28.5880   40.3960 H   0  0  0  0  0  0  0  0  0  0  0  0
   35.8600   29.4170   38.6840 C   0  0  0  0  0  0  0  0  0  0  0  0
   37.1820   29.5470   38.3610 C   0  0  0  0  0  0  0  0  0  0  0  0
   37.7030   29.5320   37.1010 C   0  0  0  0  0  0  0  0  0  0  0  0
   36.8590   29.3750   36.0230 C   0  0  0  0  0  0  0  0  0  0  0  0
   35.5000   29.2350   36.2790 C   0  0  0  0  0  0  0  0  0  0  0  0
   34.7140   29.0820   35.1700 C   0  0  0  0  0  0  0  0  0  0  0  0
   33.3660   28.9340   35.3220 C   0  0  0  0  0  0  0  0  0  0  0  0
   32.8180   28.9370   36.5820 C   0  0  0  0  0  0  0  0  0  0  0  0
   33.6600   29.0930   37.6430 C   0  0  0  0  0  0  0  0  0  0  0  0
   35.0090   29.2520   37.5750 C   0  0  0  0  0  0  0  0  0  0  0  0
   37.8590   29.6720   39.2010 H   0  0  0  0  0  0  0  0  0  0  0  0
   38.7720   29.6450   36.9820 H   0  0  0  0  0  0  0  0  0  0  0  0
   37.2810   29.3660   35.0270 H   0  0  0  0  0  0  0  0  0  0  0  0
   35.1220   29.0730   34.1570 H   0  0  0  0  0  0  0  0  0  0  0  0
   32.7430   28.8140   34.4410 H   0  0  0  0  0  0  0  0  0  0  0  0
   31.7500   28.8170   36.6990 H   0  0  0  0  0  0  0  0  0  0  0  0
   33.0510   29.0710   38.8970 O   0  0  0  0  0  0  0  0  0  0  0  0
   32.5700   28.2550   39.2550 H   0  0  0  0  0  0  0  0  0  0  0  0
  1  7  1  0  0  0  0
  1  3  1  0  0  0  0
  2  1  1  0  0  0  0
  4  5  1  0  0  0  0
  4 13  1  0  0  0  0
  5  9  1  0  0  0  0
  6  5  2  0  0  0  0
  7  8  1  0  0  0  0
  7  6  1  0  0  0  0
  8  4  2  0  0  0  0
 10  6  1  0  0  0  0
 11 17  1  0  0  0  0
 12 18  1  0  0  0  0
 12 11  2  0  0  0  0
 13 12  1  0  0  0  0
 14 13  2  0  0  0  0
 14 15  1  0  0  0  0
 15 16  2  0  0  0  0
 16 11  1  0  0  0  0
 19 15  1  0  0  0  0
 19 20  2  0  0  0  0
 21 20  1  0  0  0  0
 22 21  2  0  0  0  0
 23 22  1  0  0  0  0
 24 22  1  0  0  0  0
 24 19  1  0  0  0  0
 25 27  1  0  0  0  0
 25  1  1  0  0  0  0
 26 25  1  0  0  0  0
 28 25  1  0  0  0  0
 29 28  1  0  0  0  0
 29 38  1  0  0  0  0
 30 29  2  0  0  0  0
 31 32  2  0  0  0  0
 31 30  1  0  0  0  0
 32 37  1  0  0  0  0
 33 34  2  0  0  0  0
 33 32  1  0  0  0  0
 34 35  1  0  0  0  0
 35 43  1  0  0  0  0
 35 36  2  0  0  0  0
 36 44  1  0  0  0  0
 37 36  1  0  0  0  0
 37 28  2  0  0  0  0
 39 30  1  0  0  0  0
 40 31  1  0  0  0  0
 41 33  1  0  0  0  0
 42 34  1  0  0  0  0
 44 45  1  0  0  0  0
M  END
>  <minimizedAffinity>
-6.02236128

>  <minimizedRMSD>
0.602783918

$$$$
