
 OpenBabel03242509313D

 18 19  0  0  0  0  0  0  0  0999 V2000
   37.5970   28.7700   43.6140 C   0  0  0  0  0  0  0  0  0  0  0  0
   37.6220   27.3490   43.5200 C   0  0  0  0  0  0  0  0  0  0  0  0
   37.4660   26.7870   42.2580 C   0  0  0  0  0  0  0  0  0  0  0  0
   37.2970   27.6310   41.1820 N   0  0  0  0  0  0  0  0  0  0  0  0
   37.2810   28.9630   41.3220 C   0  0  0  0  0  0  0  0  0  0  0  0
   37.4310   29.5230   42.5360 N   0  0  0  0  0  0  0  0  0  0  0  0
   37.7160   29.2560   44.5830 H   0  0  0  0  0  0  0  0  0  0  0  0
   37.7570   26.7640   44.4030 H   0  0  0  0  0  0  0  0  0  0  0  0
   37.0960   29.7620   40.1160 C   0  0  0  0  0  0  0  0  0  0  0  0
   36.4030   29.1750   39.0510 C   0  0  0  0  0  3  0  0  0  0  0  0
   36.3440   30.0910   38.0310 C   0  0  0  0  0  3  0  0  0  0  0  0
   37.0060   31.1980   38.5170 C   0  0  0  0  0  0  0  0  0  0  0  0
   37.2530   32.1830   38.1460 H   0  0  0  0  0  0  0  0  0  0  0  0
   37.4400   30.9740   39.7540 O   0  0  0  0  0  0  0  0  0  0  0  0
   37.4860   25.3090   42.1170 C   0  0  0  0  0  0  0  0  0  0  0  0
   37.5350   25.0680   40.7530 F   0  0  0  0  0  0  0  0  0  0  0  0
   38.5780   24.7460   42.7000 F   0  0  0  0  0  0  0  0  0  0  0  0
   36.3350   24.7230   42.6330 F   0  0  0  0  0  0  0  0  0  0  0  0
  1  7  1  0  0  0  0
  2  1  1  0  0  0  0
  2  8  1  0  0  0  0
  3  2  2  0  0  0  0
  4  5  2  0  0  0  0
  4  3  1  0  0  0  0
  5  6  1  0  0  0  0
  6  1  2  0  0  0  0
  9  5  1  0  0  0  0
 10  9  2  0  0  0  0
 11 12  2  0  0  0  0
 11 10  1  0  0  0  0
 12 14  1  0  0  0  0
 13 12  1  0  0  0  0
 14  9  1  0  0  0  0
 15  3  1  0  0  0  0
 15 18  1  0  0  0  0
 15 17  1  0  0  0  0
 16 15  1  0  0  0  0
M  END
>  <minimizedAffinity>
-4.27843809

>  <minimizedRMSD>
1.17016721

$$$$
