
 OpenBabel03242507543D

 24 26  0  0  0  0  0  0  0  0999 V2000
   37.2080   30.3450   40.3000 C   0  0  0  0  0  0  0  0  0  0  0  0
   37.3420   31.7070   40.4820 C   0  0  0  0  0  0  0  0  0  0  0  0
   37.3340   32.5040   39.3430 C   0  0  0  0  0  0  0  0  0  0  0  0
   37.1910   31.8790   38.0950 C   0  0  0  0  0  0  0  0  0  0  0  0
   37.0590   30.5190   37.9510 C   0  0  0  0  0  0  0  0  0  0  0  0
   37.0730   29.7900   39.0720 N   0  0  0  0  0  0  0  0  0  0  0  0
   37.4520   32.1780   41.4470 H   0  0  0  0  0  0  0  0  0  0  0  0
   37.4350   33.5890   39.4080 H   0  0  0  0  0  0  0  0  0  0  0  0
   37.1910   32.5420   37.2420 H   0  0  0  0  0  0  0  0  0  0  0  0
   38.1060   28.9530   43.5800 C   0  0  0  0  0  0  0  0  0  0  0  0
   37.2550   27.8550   43.7140 C   0  0  0  0  0  0  0  0  0  0  0  0
   36.3510   27.5830   42.6550 C   0  0  0  0  0  0  0  0  0  0  0  0
   36.3890   28.4180   41.5970 N   0  0  0  0  0  0  0  0  0  0  0  0
   37.2130   29.4670   41.4840 C   0  0  0  0  0  0  0  0  0  0  0  0
   38.0610   29.7170   42.4860 N   0  0  0  0  0  0  0  0  0  0  0  0
   38.7830   29.1330   44.4050 H   0  0  0  0  0  0  0  0  0  0  0  0
   37.2020   27.1750   44.5420 H   0  0  0  0  0  0  0  0  0  0  0  0
   35.6520   26.7430   42.6820 H   0  0  0  0  0  0  0  0  0  0  0  0
   36.9130   29.8970   36.6400 C   0  0  0  0  0  0  0  0  0  0  0  0
   37.1480   28.5680   36.3610 C   0  0  0  0  0  0  0  0  0  0  0  0
   36.8830   28.4540   35.0250 C   0  0  0  0  0  0  0  0  0  0  0  0
   36.5010   29.6880   34.5350 C   0  0  0  0  0  0  0  0  0  0  0  0
   36.2210   29.9670   33.5320 H   0  0  0  0  0  0  0  0  0  0  0  0
   36.5320   30.5390   35.5480 O   0  0  0  0  0  0  0  0  0  0  0  0
  1  2  1  0  0  0  0
  1 14  1  0  0  0  0
  2  7  1  0  0  0  0
  3  8  1  0  0  0  0
  3  2  2  0  0  0  0
  4  3  1  0  0  0  0
  5  4  2  0  0  0  0
  5  6  1  0  0  0  0
  6  1  2  0  0  0  0
  9  4  1  0  0  0  0
 10 11  1  0  0  0  0
 10 16  1  0  0  0  0
 11 17  1  0  0  0  0
 12 18  1  0  0  0  0
 12 11  2  0  0  0  0
 13 12  1  0  0  0  0
 14 13  2  0  0  0  0
 14 15  1  0  0  0  0
 15 10  2  0  0  0  0
 19  5  1  0  0  0  0
 20 19  2  0  0  0  0
 21 20  1  0  0  0  0
 22 21  2  0  0  0  0
 22 24  1  0  0  0  0
 23 22  1  0  0  0  0
 24 19  1  0  0  0  0
M  END
>  <minimizedAffinity>
-4.49336386

>  <minimizedRMSD>
0.987048447

$$$$
