
 OpenBabel03242507113D

 22 24  0  0  0  0  0  0  0  0999 V2000
   38.5270   28.0560   42.4880 N   0  0  0  0  0  0  0  0  0  0  0  0
   38.4300   26.9670   43.2860 C   0  0  0  0  0  0  0  0  0  0  0  0
   39.7090   26.8340   43.8320 C   0  0  0  0  0  0  0  0  0  0  0  0
   40.5370   27.8180   43.3720 N   0  0  0  0  0  0  0  0  0  0  0  0
   39.7620   28.5490   42.5430 C   0  0  0  0  0  0  0  0  0  0  0  0
   37.5700   26.3580   43.4490 H   0  0  0  0  0  0  0  0  0  0  0  0
   39.9560   26.0340   44.5300 H   0  0  0  0  0  0  0  0  0  0  0  0
   37.0610   29.9110   41.8310 C   0  0  0  0  0  0  0  0  0  0  0  0
   37.4800   28.5650   41.7320 C   0  0  0  0  0  0  0  0  0  0  0  0
   36.7800   27.7320   40.8130 C   0  0  0  0  0  0  0  0  0  0  0  0
   35.7590   28.2640   40.0870 N   0  0  0  0  0  0  0  0  0  0  0  0
   35.3980   29.5730   40.2230 C   0  0  0  0  0  0  0  0  0  0  0  0
   36.0470   30.3940   41.0930 N   0  0  0  0  0  0  0  0  0  0  0  0
   37.5240   30.6160   42.5010 H   0  0  0  0  0  0  0  0  0  0  0  0
   37.0770   26.6990   40.7150 H   0  0  0  0  0  0  0  0  0  0  0  0
   34.5690   29.8170   39.5670 H   0  0  0  0  0  0  0  0  0  0  0  0
   40.4230   29.6800   41.9020 C   0  0  0  0  0  0  0  0  0  0  0  0
   40.6960   30.8190   42.6290 C   0  0  0  0  0  0  0  0  0  0  0  0
   41.3150   31.7160   41.7870 C   0  0  0  0  0  0  0  0  0  0  0  0
   41.3930   31.0790   40.5770 C   0  0  0  0  0  0  0  0  0  0  0  0
   41.7620   31.2850   39.5950 H   0  0  0  0  0  0  0  0  0  0  0  0
   40.8700   29.9010   40.6690 O   0  0  0  0  0  0  0  0  0  0  0  0
  1  5  1  0  0  0  0
  1  2  1  0  0  0  0
  2  6  1  0  0  0  0
  2  3  2  0  0  0  0
  3  7  1  0  0  0  0
  4  3  1  0  0  0  0
  5  4  2  0  0  0  0
  8 14  1  0  0  0  0
  9  8  1  0  0  0  0
  9  1  1  0  0  0  0
 10  9  2  0  0  0  0
 11 12  2  0  0  0  0
 11 10  1  0  0  0  0
 12 13  1  0  0  0  0
 13  8  2  0  0  0  0
 15 10  1  0  0  0  0
 16 12  1  0  0  0  0
 17  5  1  0  0  0  0
 17 18  2  0  0  0  0
 19 18  1  0  0  0  0
 20 22  1  0  0  0  0
 20 19  2  0  0  0  0
 21 20  1  0  0  0  0
 22 17  1  0  0  0  0
M  END
>  <minimizedAffinity>
-3.78821611

>  <minimizedRMSD>
0.79671663

$$$$
