
 OpenBabel03242509213D

 28 30  0  0  0  0  0  0  0  0999 V2000
   39.5040   27.9630   43.2100 C   0  0  0  0  0  0  0  0  0  0  0  0
   38.4400   27.2950   43.7090 C   0  0  0  0  0  0  0  0  0  0  0  0
   37.2840   27.8800   43.2270 C   0  0  0  0  0  0  0  0  0  0  0  0
   37.7390   28.8970   42.4420 N   0  0  0  0  0  0  0  0  0  0  0  0
   39.0480   28.9380   42.4380 N   0  0  0  0  0  0  0  0  0  0  0  0
   38.4300   26.4400   44.3770 H   0  0  0  0  0  0  0  0  0  0  0  0
   36.2680   27.5700   43.4460 H   0  0  0  0  0  0  0  0  0  0  0  0
   42.6380   26.2400   44.3010 C   0  0  0  0  0  0  0  0  0  0  0  0
   41.2890   26.4720   44.0700 C   0  0  0  0  0  0  0  0  0  0  0  0
   40.8950   27.6600   43.4780 C   0  0  0  0  0  0  0  0  0  0  0  0
   41.8570   28.5660   43.1380 N   0  0  0  0  0  0  0  0  0  0  0  0
   43.1740   28.3020   43.3810 C   0  0  0  0  0  0  0  0  0  0  0  0
   43.5540   27.1540   43.9550 N   0  0  0  0  0  0  0  0  0  0  0  0
   42.8400   25.2750   44.7730 H   0  0  0  0  0  0  0  0  0  0  0  0
   40.5020   25.7550   44.3370 H   0  0  0  0  0  0  0  0  0  0  0  0
   43.9450   29.0160   43.1150 H   0  0  0  0  0  0  0  0  0  0  0  0
   36.7790   29.7690   41.7420 C   0  0  0  0  0  0  0  0  0  0  0  0
   36.3160   30.3620   42.5290 H   0  0  0  0  0  0  0  0  0  0  0  0
   37.4200   30.4680   41.1650 H   0  0  0  0  0  0  0  0  0  0  0  0
   35.8280   28.9910   40.9210 C   0  0  0  0  0  0  0  0  0  0  0  0
   36.2150   27.9870   40.6890 H   0  0  0  0  0  0  0  0  0  0  0  0
   34.9270   28.8020   41.5740 H   0  0  0  0  0  0  0  0  0  0  0  0
   35.2900   29.7140   39.7200 C   0  0  0  0  0  0  0  0  0  0  0  0
   36.4080   30.3490   38.9880 C   0  0  0  0  0  0  0  0  0  0  0  0
   36.6000   30.0160   37.5600 C   0  0  0  0  0  0  0  0  0  0  0  0
   35.9220   28.7360   37.1230 C   0  0  0  0  0  0  0  0  0  0  0  0
   34.4530   29.0210   37.4310 C   0  0  0  0  0  0  0  0  0  0  0  0
   34.3430   28.8890   38.9120 C   0  0  0  0  0  0  0  0  0  0  0  0
  1 10  1  0  0  0  0
  1  2  1  0  0  0  0
  2  6  1  0  0  0  0
  3  7  1  0  0  0  0
  3  2  2  0  0  0  0
  4  3  1  0  0  0  0
  5  4  1  0  0  0  0
  5  1  2  0  0  0  0
  8 14  1  0  0  0  0
  9  8  1  0  0  0  0
  9 15  1  0  0  0  0
 10  9  2  0  0  0  0
 11 12  2  0  0  0  0
 11 10  1  0  0  0  0
 12 13  1  0  0  0  0
 13  8  2  0  0  0  0
 16 12  1  0  0  0  0
 17  4  1  0  0  0  0
 17 18  1  0  0  0  0
 19 17  1  0  0  0  0
 20 22  1  0  0  0  0
 20 17  1  0  0  0  0
 21 20  1  0  0  0  0
 23 20  1  0  0  0  0
 24 23  1  0  0  0  0
 25 24  1  0  0  0  0
 26 27  1  0  0  0  0
 26 25  1  0  0  0  0
 27 28  1  0  0  0  0
 28 23  1  0  0  0  0
M  END
>  <minimizedAffinity>
-4.73002434

>  <minimizedRMSD>
1.38336051

$$$$
