
 OpenBabel03242505393D

 25 27  0  0  0  0  0  0  0  0999 V2000
   38.3820   31.3440   40.9020 C   0  0  0  0  0  0  0  0  0  0  0  0
   39.2390   32.3870   41.2460 C   0  0  0  0  0  0  0  0  0  0  0  0
   39.0410   33.6430   40.7260 C   0  0  0  0  0  0  0  0  0  0  0  0
   37.9650   33.8190   39.8590 C   0  0  0  0  0  0  0  0  0  0  0  0
   37.1060   32.7840   39.5120 C   0  0  0  0  0  0  0  0  0  0  0  0
   37.3090   31.5300   40.0350 C   0  0  0  0  0  0  0  0  0  0  0  0
   40.0620   32.1970   41.9250 H   0  0  0  0  0  0  0  0  0  0  0  0
   39.6620   34.4810   40.9510 H   0  0  0  0  0  0  0  0  0  0  0  0
   37.7890   34.7990   39.4370 H   0  0  0  0  0  0  0  0  0  0  0  0
   36.2830   32.9800   38.8290 H   0  0  0  0  0  0  0  0  0  0  0  0
   39.6180   27.9090   41.3030 C   0  0  0  0  0  0  0  0  0  0  0  0
   39.0880   27.5250   42.5530 C   0  0  0  0  0  0  0  0  0  0  0  0
   38.3000   28.4610   43.2520 C   0  0  0  0  0  0  0  0  0  0  0  0
   38.1060   29.6670   42.6770 N   0  0  0  0  0  0  0  0  0  0  0  0
   38.6260   30.0170   41.4730 C   0  0  0  0  0  0  0  0  0  0  0  0
   39.3700   29.1240   40.8200 N   0  0  0  0  0  0  0  0  0  0  0  0
   40.2200   27.2490   40.7240 H   0  0  0  0  0  0  0  0  0  0  0  0
   39.3030   26.5340   42.9240 H   0  0  0  0  0  0  0  0  0  0  0  0
   37.8870   28.1840   44.2100 H   0  0  0  0  0  0  0  0  0  0  0  0
   36.3880   30.4940   39.6470 C   0  0  0  0  0  0  0  0  0  0  0  0
   36.2320   29.7350   38.4810 C   0  0  0  0  0  0  0  0  0  0  0  0
   35.1590   28.8910   38.7090 C   0  0  0  0  0  0  0  0  0  0  0  0
   34.7200   29.1750   39.9920 C   0  0  0  0  0  0  0  0  0  0  0  0
   33.8730   28.6050   40.3570 H   0  0  0  0  0  0  0  0  0  0  0  0
   35.4620   30.1160   40.5060 O   0  0  0  0  0  0  0  0  0  0  0  0
  1  2  1  0  0  0  0
  1 15  1  0  0  0  0
  2  7  1  0  0  0  0
  3  8  1  0  0  0  0
  3  2  2  0  0  0  0
  4  3  1  0  0  0  0
  5  4  2  0  0  0  0
  5  6  1  0  0  0  0
  6  1  2  0  0  0  0
  9  4  1  0  0  0  0
 10  5  1  0  0  0  0
 11 12  1  0  0  0  0
 12 18  1  0  0  0  0
 12 13  2  0  0  0  0
 13 19  1  0  0  0  0
 14 13  1  0  0  0  0
 15 14  2  0  0  0  0
 16 11  2  0  0  0  0
 16 15  1  0  0  0  0
 17 11  1  0  0  0  0
 20  6  1  0  0  0  0
 20 25  1  0  0  0  0
 21 22  1  0  0  0  0
 21 20  2  0  0  0  0
 22 23  2  0  0  0  0
 23 24  1  0  0  0  0
 23 25  1  0  0  0  0
M  END
>  <minimizedAffinity>
-4.88908863

>  <minimizedRMSD>
4.0319891

$$$$
