
 OpenBabel03242509323D

 18 19  0  0  0  0  0  0  0  0999 V2000
   37.8360   28.5850   43.6020 C   0  0  0  0  0  0  0  0  0  0  0  0
   38.4190   27.2890   43.7070 C   0  0  0  0  0  0  0  0  0  0  0  0
   38.3350   26.4570   42.5960 C   0  0  0  0  0  0  0  0  0  0  0  0
   37.6990   26.9310   41.4690 N   0  0  0  0  0  0  0  0  0  0  0  0
   37.1660   28.1580   41.4200 C   0  0  0  0  0  0  0  0  0  0  0  0
   37.2380   28.9770   42.4850 N   0  0  0  0  0  0  0  0  0  0  0  0
   37.8770   29.2730   44.4470 H   0  0  0  0  0  0  0  0  0  0  0  0
   38.8950   26.9970   44.6160 H   0  0  0  0  0  0  0  0  0  0  0  0
   36.5160   28.5570   40.1780 C   0  0  0  0  0  0  0  0  0  0  0  0
   36.1220   27.5420   39.2980 C   0  0  0  0  0  3  0  0  0  0  0  0
   35.5370   28.1340   38.2060 C   0  0  0  0  0  3  0  0  0  0  0  0
   35.6000   29.4860   38.4650 C   0  0  0  0  0  0  0  0  0  0  0  0
   35.2970   30.3910   37.9590 H   0  0  0  0  0  0  0  0  0  0  0  0
   36.1850   29.7060   39.6400 O   0  0  0  0  0  0  0  0  0  0  0  0
   38.9300   25.0990   42.6640 C   0  0  0  0  0  0  0  0  0  0  0  0
   39.7290   24.9870   41.5380 F   0  0  0  0  0  0  0  0  0  0  0  0
   39.7060   24.9250   43.7690 F   0  0  0  0  0  0  0  0  0  0  0  0
   37.9590   24.1040   42.6240 F   0  0  0  0  0  0  0  0  0  0  0  0
  1  2  1  0  0  0  0
  1  7  1  0  0  0  0
  2  8  1  0  0  0  0
  3 15  1  0  0  0  0
  3  2  2  0  0  0  0
  4  3  1  0  0  0  0
  5  4  2  0  0  0  0
  5  6  1  0  0  0  0
  6  1  2  0  0  0  0
  9  5  1  0  0  0  0
 10  9  2  0  0  0  0
 11 12  2  0  0  0  0
 11 10  1  0  0  0  0
 12 14  1  0  0  0  0
 13 12  1  0  0  0  0
 14  9  1  0  0  0  0
 15 17  1  0  0  0  0
 16 15  1  0  0  0  0
 18 15  1  0  0  0  0
M  END
>  <minimizedAffinity>
-3.9908452

>  <minimizedRMSD>
1.39517057

$$$$
