
 OpenBabel03242509273D

 45 49  0  0  0  0  0  0  0  0999 V2000
   36.1750   30.0940   41.1130 C   0  0  0  0  0  0  0  0  0  0  0  0
   36.7930   30.8740   40.6150 H   0  0  0  0  0  0  0  0  0  0  0  0
   35.6020   30.6330   41.9100 H   0  0  0  0  0  0  0  0  0  0  0  0
   38.6190   28.1320   42.7010 C   0  0  0  0  0  0  0  0  0  0  0  0
   37.5270   27.3200   42.8080 C   0  0  0  0  0  0  0  0  0  0  0  0
   36.4660   27.9970   42.1990 C   0  0  0  0  0  0  0  0  0  0  0  0
   37.0020   29.1500   41.7810 N   0  0  0  0  0  0  0  0  0  0  0  0
   38.2660   29.2770   42.0520 N   0  0  0  0  0  0  0  0  0  0  0  0
   37.4880   26.3260   43.2790 H   0  0  0  0  0  0  0  0  0  0  0  0
   35.4860   27.5770   42.1450 H   0  0  0  0  0  0  0  0  0  0  0  0
   41.5130   26.4580   44.3500 C   0  0  0  0  0  0  0  0  0  0  0  0
   40.2110   26.6800   43.8900 C   0  0  0  0  0  0  0  0  0  0  0  0
   39.9600   27.8690   43.1850 C   0  0  0  0  0  0  0  0  0  0  0  0
   40.9650   28.7660   42.9660 N   0  0  0  0  0  0  0  0  0  0  0  0
   42.2200   28.4720   43.4520 C   0  0  0  0  0  0  0  0  0  0  0  0
   42.4790   27.3540   44.1220 N   0  0  0  0  0  0  0  0  0  0  0  0
   41.6490   25.5320   44.8830 H   0  0  0  0  0  0  0  0  0  0  0  0
   39.4330   25.9780   44.0630 H   0  0  0  0  0  0  0  0  0  0  0  0
   43.3180   29.4100   43.2360 C   0  0  0  0  0  0  0  0  0  0  0  0
   43.2150   30.2610   42.1290 C   0  0  0  0  0  3  0  0  0  0  0  0
   44.3690   31.0380   42.1500 C   0  0  0  0  0  3  0  0  0  0  0  0
   45.1020   30.6180   43.2630 C   0  0  0  0  0  0  0  0  0  0  0  0
   46.0690   31.0170   43.5830 H   0  0  0  0  0  0  0  0  0  0  0  0
   44.4320   29.6700   43.8460 O   0  0  0  0  0  0  0  0  0  0  0  0
   35.2750   29.5360   40.0560 C   0  0  0  0  0  0  0  0  0  0  0  0
   34.5690   30.4280   39.9420 H   0  0  0  0  0  0  0  0  0  0  0  0
   34.7970   28.6380   40.4220 H   0  0  0  0  0  0  0  0  0  0  0  0
   35.8830   29.4490   38.7090 C   0  0  0  0  0  0  0  0  0  0  0  0
   37.2020   29.5890   38.3790 C   0  0  0  0  0  0  0  0  0  0  0  0
   37.7180   29.5660   37.1160 C   0  0  0  0  0  0  0  0  0  0  0  0
   36.8710   29.3880   36.0440 C   0  0  0  0  0  0  0  0  0  0  0  0
   35.5150   29.2370   36.3080 C   0  0  0  0  0  0  0  0  0  0  0  0
   34.7260   29.0650   35.2050 C   0  0  0  0  0  0  0  0  0  0  0  0
   33.3800   28.9050   35.3640 C   0  0  0  0  0  0  0  0  0  0  0  0
   32.8370   28.9170   36.6260 C   0  0  0  0  0  0  0  0  0  0  0  0
   33.6820   29.0930   37.6820 C   0  0  0  0  0  0  0  0  0  0  0  0
   35.0290   29.2640   37.6060 C   0  0  0  0  0  0  0  0  0  0  0  0
   37.8810   29.7300   39.2150 H   0  0  0  0  0  0  0  0  0  0  0  0
   38.7850   29.6880   36.9920 H   0  0  0  0  0  0  0  0  0  0  0  0
   37.2880   29.3720   35.0470 H   0  0  0  0  0  0  0  0  0  0  0  0
   35.1290   29.0490   34.1900 H   0  0  0  0  0  0  0  0  0  0  0  0
   32.7550   28.7700   34.4870 H   0  0  0  0  0  0  0  0  0  0  0  0
   31.7700   28.7880   36.7490 H   0  0  0  0  0  0  0  0  0  0  0  0
   33.0790   29.0790   38.9380 O   0  0  0  0  0  0  0  0  0  0  0  0
   32.6070   28.2620   39.3070 H   0  0  0  0  0  0  0  0  0  0  0  0
  1  7  1  0  0  0  0
  1  3  1  0  0  0  0
  2  1  1  0  0  0  0
  4  5  1  0  0  0  0
  4 13  1  0  0  0  0
  5  9  1  0  0  0  0
  6  5  2  0  0  0  0
  7  8  1  0  0  0  0
  7  6  1  0  0  0  0
  8  4  2  0  0  0  0
 10  6  1  0  0  0  0
 11 17  1  0  0  0  0
 12 18  1  0  0  0  0
 12 11  2  0  0  0  0
 13 12  1  0  0  0  0
 14 13  2  0  0  0  0
 14 15  1  0  0  0  0
 15 16  2  0  0  0  0
 16 11  1  0  0  0  0
 19 15  1  0  0  0  0
 19 24  1  0  0  0  0
 20 21  1  0  0  0  0
 20 19  2  0  0  0  0
 21 22  2  0  0  0  0
 22 23  1  0  0  0  0
 22 24  1  0  0  0  0
 25 27  1  0  0  0  0
 25  1  1  0  0  0  0
 26 25  1  0  0  0  0
 28 25  1  0  0  0  0
 29 28  1  0  0  0  0
 29 38  1  0  0  0  0
 30 29  2  0  0  0  0
 31 32  2  0  0  0  0
 31 30  1  0  0  0  0
 32 37  1  0  0  0  0
 33 34  2  0  0  0  0
 33 32  1  0  0  0  0
 34 35  1  0  0  0  0
 35 43  1  0  0  0  0
 35 36  2  0  0  0  0
 36 44  1  0  0  0  0
 37 36  1  0  0  0  0
 37 28  2  0  0  0  0
 39 30  1  0  0  0  0
 40 31  1  0  0  0  0
 41 33  1  0  0  0  0
 42 34  1  0  0  0  0
 44 45  1  0  0  0  0
M  END
>  <minimizedAffinity>
-5.81505442

>  <minimizedRMSD>
0.140573993

$$$$
