
 OpenBabel03242507193D

 47 51  0  0  0  0  0  0  0  0999 V2000
   35.1040   29.0880   40.5000 C   0  0  0  0  0  0  0  0  0  0  0  0
   36.1320   28.2490   40.9560 C   0  0  0  0  0  0  0  0  0  0  0  0
   36.6190   27.2890   40.0250 C   0  0  0  0  0  0  0  0  0  0  0  0
   36.0880   27.2310   38.7860 N   0  0  0  0  0  0  0  0  0  0  0  0
   35.0750   28.0900   38.4030 C   0  0  0  0  0  0  0  0  0  0  0  0
   34.5850   29.0160   39.2620 N   0  0  0  0  0  0  0  0  0  0  0  0
   34.7340   29.8170   41.2120 H   0  0  0  0  0  0  0  0  0  0  0  0
   37.4110   26.6200   40.3280 H   0  0  0  0  0  0  0  0  0  0  0  0
   36.6720   28.3140   42.2270 N   0  0  0  0  0  0  0  0  0  0  0  0
   36.3280   27.5680   43.2900 C   0  0  0  0  0  0  0  0  0  0  0  0
   37.1350   27.9950   44.3150 C   0  0  0  0  0  0  0  0  0  0  0  0
   37.9620   28.9900   43.8750 N   0  0  0  0  0  0  0  0  0  0  0  0
   37.6570   29.1650   42.5910 C   0  0  0  0  0  0  0  0  0  0  0  0
   38.4160   30.1760   41.9270 N   0  0  0  0  0  0  0  0  0  0  0  0
   39.7410   30.3940   42.1970 C   0  0  0  0  0  0  0  0  0  0  0  0
   40.2240   31.4200   41.4220 N   0  0  0  0  0  0  0  0  0  0  0  0
   39.2150   31.8580   40.6570 C   0  0  0  0  0  0  0  0  0  0  0  0
   39.1300   32.8450   39.7160 C   0  0  0  0  0  0  0  0  0  0  0  0
   37.9110   33.0040   39.1340 N   0  0  0  0  0  0  0  0  0  0  0  0
   36.8400   32.2610   39.4400 C   0  0  0  0  0  0  0  0  0  0  0  0
   36.9150   31.2740   40.3780 N   0  0  0  0  0  0  0  0  0  0  0  0
   38.1070   31.0960   40.9670 C   0  0  0  0  0  0  0  0  0  0  0  0
   40.2420   33.6630   39.3560 N   0  0  0  0  0  0  0  0  0  0  0  0
   35.5580   26.8060   43.2650 H   0  0  0  0  0  0  0  0  0  0  0  0
   37.0950   27.5740   45.3290 H   0  0  0  0  0  0  0  0  0  0  0  0
   40.4280   29.9210   42.8800 H   0  0  0  0  0  0  0  0  0  0  0  0
   35.9040   32.4510   38.9310 H   0  0  0  0  0  0  0  0  0  0  0  0
   40.4460   33.7350   38.3380 H   0  0  0  0  0  0  0  0  0  0  0  0
   40.8410   34.1750   40.0320 H   0  0  0  0  0  0  0  0  0  0  0  0
   34.4800   28.0450   37.0570 C   0  0  0  0  0  0  0  0  0  0  0  0
   32.9590   28.1360   37.1400 C   0  0  0  0  0  0  0  0  0  0  0  0
   32.6850   29.1340   37.4820 H   0  0  0  0  0  0  0  0  0  0  0  0
   32.6040   27.3230   37.8150 H   0  0  0  0  0  0  0  0  0  0  0  0
   32.5510   27.9710   36.1350 H   0  0  0  0  0  0  0  0  0  0  0  0
   34.7630   26.7210   36.3980 C   0  0  0  0  0  0  0  0  0  0  0  0
   34.5200   26.7520   35.3080 H   0  0  0  0  0  0  0  0  0  0  0  0
   35.7310   26.2760   36.6420 H   0  0  0  0  0  0  0  0  0  0  0  0
   34.0070   25.9790   36.7970 H   0  0  0  0  0  0  0  0  0  0  0  0
   34.9560   29.1620   36.1970 C   0  0  0  0  0  0  0  0  0  0  0  0
   34.3010   30.0420   36.4240 H   0  0  0  0  0  0  0  0  0  0  0  0
   34.7090   28.9020   35.1460 H   0  0  0  0  0  0  0  0  0  0  0  0
   36.3400   29.6140   36.2550 C   0  0  0  0  0  0  0  0  0  0  0  0
   37.0390   28.8960   35.0830 C   0  0  0  0  0  0  0  0  0  0  0  0
   37.5860   27.5510   35.5560 C   0  0  0  0  0  0  0  0  0  0  0  0
   38.8310   27.8070   36.3930 C   0  0  0  0  0  0  0  0  0  0  0  0
   38.6290   29.1670   37.0220 C   0  0  0  0  0  0  0  0  0  0  0  0
   37.1530   29.2390   37.4480 C   0  0  0  0  0  0  0  0  0  0  0  0
  1  2  1  0  0  0  0
  1  7  1  0  0  0  0
  2  9  1  0  0  0  0
  3  8  1  0  0  0  0
  3  2  2  0  0  0  0
  4  3  1  0  0  0  0
  5  4  2  0  0  0  0
  5  6  1  0  0  0  0
  6  1  2  0  0  0  0
  9 13  1  0  0  0  0
  9 10  1  0  0  0  0
 10 11  2  0  0  0  0
 11 25  1  0  0  0  0
 12 11  1  0  0  0  0
 13 12  2  0  0  0  0
 14 15  1  0  0  0  0
 14 13  1  0  0  0  0
 15 26  1  0  0  0  0
 16 15  2  0  0  0  0
 17 22  1  0  0  0  0
 17 16  1  0  0  0  0
 18 17  2  0  0  0  0
 19 20  2  0  0  0  0
 19 18  1  0  0  0  0
 20 21  1  0  0  0  0
 21 22  2  0  0  0  0
 22 14  1  0  0  0  0
 23 18  1  0  0  0  0
 23 29  1  0  0  0  0
 24 10  1  0  0  0  0
 27 20  1  0  0  0  0
 28 23  1  0  0  0  0
 30 31  1  0  0  0  0
 30  5  1  0  0  0  0
 31 32  1  0  0  0  0
 31 33  1  0  0  0  0
 34 31  1  0  0  0  0
 35 37  1  0  0  0  0
 35 38  1  0  0  0  0
 35 30  1  0  0  0  0
 36 35  1  0  0  0  0
 39 42  1  0  0  0  0
 39 40  1  0  0  0  0
 39 30  1  0  0  0  0
 41 39  1  0  0  0  0
 42 47  1  0  0  0  0
 43 44  1  0  0  0  0
 43 42  1  0  0  0  0
 44 45  1  0  0  0  0
 45 46  1  0  0  0  0
 46 47  1  0  0  0  0
M  END
>  <minimizedAffinity>
-6.18253231

>  <minimizedRMSD>
0.796234369

$$$$
