
 OpenBabel03242509313D

 18 19  0  0  0  0  0  0  0  0999 V2000
   37.5340   28.6030   43.6150 C   0  0  0  0  0  0  0  0  0  0  0  0
   37.4350   27.2110   43.3290 C   0  0  0  0  0  0  0  0  0  0  0  0
   37.2620   26.8400   42.0000 C   0  0  0  0  0  0  0  0  0  0  0  0
   37.1970   27.8340   41.0470 N   0  0  0  0  0  0  0  0  0  0  0  0
   37.2960   29.1300   41.3660 C   0  0  0  0  0  0  0  0  0  0  0  0
   37.4650   29.5060   42.6470 N   0  0  0  0  0  0  0  0  0  0  0  0
   37.6710   28.9410   44.6430 H   0  0  0  0  0  0  0  0  0  0  0  0
   37.4940   26.5030   44.1250 H   0  0  0  0  0  0  0  0  0  0  0  0
   37.2150   30.0970   40.2780 C   0  0  0  0  0  0  0  0  0  0  0  0
   37.0820   31.4470   40.6210 C   0  0  0  0  0  3  0  0  0  0  0  0
   37.0240   32.1750   39.4580 C   0  0  0  0  0  3  0  0  0  0  0  0
   37.1260   31.2350   38.4540 C   0  0  0  0  0  0  0  0  0  0  0  0
   37.1370   31.2480   37.3730 H   0  0  0  0  0  0  0  0  0  0  0  0
   37.2380   30.0140   38.9700 O   0  0  0  0  0  0  0  0  0  0  0  0
   37.1530   25.4000   41.6590 C   0  0  0  0  0  0  0  0  0  0  0  0
   36.4790   25.3550   40.4490 F   0  0  0  0  0  0  0  0  0  0  0  0
   38.3700   24.8090   41.5040 F   0  0  0  0  0  0  0  0  0  0  0  0
   36.4180   24.6960   42.6070 F   0  0  0  0  0  0  0  0  0  0  0  0
  1  7  1  0  0  0  0
  2  1  1  0  0  0  0
  2  8  1  0  0  0  0
  3  2  2  0  0  0  0
  4  5  2  0  0  0  0
  4  3  1  0  0  0  0
  5  6  1  0  0  0  0
  6  1  2  0  0  0  0
  9 10  2  0  0  0  0
  9  5  1  0  0  0  0
 11 10  1  0  0  0  0
 12 14  1  0  0  0  0
 12 11  2  0  0  0  0
 13 12  1  0  0  0  0
 14  9  1  0  0  0  0
 15  3  1  0  0  0  0
 15 18  1  0  0  0  0
 16 15  1  0  0  0  0
 17 15  1  0  0  0  0
M  END
>  <minimizedAffinity>
-4.49678755

>  <minimizedRMSD>
1.30574548

$$$$
