
 OpenBabel03242506513D

 38 42  0  0  0  0  0  0  0  0999 V2000
   44.5910   26.4310   44.4110 C   0  0  0  0  0  0  0  0  0  0  0  0
   43.4290   26.4530   43.6290 C   0  0  0  0  0  0  0  0  0  0  0  0
   42.2600   26.9320   44.1840 C   0  0  0  0  0  0  0  0  0  0  0  0
   42.2880   27.3710   45.4960 N   0  0  0  0  0  0  0  0  0  0  0  0
   43.4240   27.3290   46.2030 C   0  0  0  0  0  0  0  0  0  0  0  0
   44.5730   26.8650   45.6750 N   0  0  0  0  0  0  0  0  0  0  0  0
   45.4890   26.0430   43.9250 H   0  0  0  0  0  0  0  0  0  0  0  0
   43.3980   25.9880   42.2410 C   0  0  0  0  0  0  0  0  0  0  0  0
   44.4210   26.1530   41.3490 C   0  0  0  0  0  0  0  0  0  0  0  0
   44.4150   25.7240   40.0370 C   0  0  0  0  0  0  0  0  0  0  0  0
   43.2930   25.0840   39.5980 N   0  0  0  0  0  0  0  0  0  0  0  0
   42.2770   24.9140   40.4630 C   0  0  0  0  0  0  0  0  0  0  0  0
   42.3210   25.3450   41.7330 N   0  0  0  0  0  0  0  0  0  0  0  0
   45.3260   26.6630   41.6840 H   0  0  0  0  0  0  0  0  0  0  0  0
   45.2440   25.8740   39.3640 H   0  0  0  0  0  0  0  0  0  0  0  0
   41.3850   24.3970   40.0900 H   0  0  0  0  0  0  0  0  0  0  0  0
   43.3970   27.8170   47.6180 C   0  0  0  0  0  0  0  0  0  0  0  0
   43.3630   29.2010   47.6540 F   0  0  0  0  0  0  0  0  0  0  0  0
   42.2170   27.4190   48.2430 F   0  0  0  0  0  0  0  0  0  0  0  0
   44.5160   27.4180   48.3370 F   0  0  0  0  0  0  0  0  0  0  0  0
   41.1260   26.9480   43.4090 O   0  0  0  0  0  0  0  0  0  0  0  0
   37.1700   29.1380   43.3260 N   0  0  0  0  0  0  0  0  0  0  0  0
   37.0350   27.8880   43.7850 C   0  0  0  0  0  0  0  0  0  0  0  0
   38.2630   27.3150   43.7740 N   0  0  0  0  0  0  0  0  0  0  0  0
   39.1790   28.1890   43.3120 C   0  0  0  0  0  0  0  0  0  0  0  0
   40.5540   28.1530   43.0870 C   0  0  0  0  0  0  0  0  0  0  0  0
   41.1720   29.2570   42.5960 N   0  0  0  0  0  0  0  0  0  0  0  0
   40.4540   30.3580   42.3360 C   0  0  0  0  0  0  0  0  0  0  0  0
   39.1270   30.4530   42.5300 N   0  0  0  0  0  0  0  0  0  0  0  0
   38.4580   29.3660   43.0250 C   0  0  0  0  0  0  0  0  0  0  0  0
   36.4600   29.8940   43.1840 H   0  0  0  0  0  0  0  0  0  0  0  0
   36.0960   27.4490   44.1000 H   0  0  0  0  0  0  0  0  0  0  0  0
   41.0900   31.5530   41.8100 C   0  0  0  0  0  0  0  0  0  0  0  0
   42.3560   31.8960   42.2430 C   0  0  0  0  0  0  0  0  0  0  0  0
   42.6960   33.0680   41.5740 C   0  0  0  0  0  0  0  0  0  0  0  0
   41.5770   33.3210   40.7880 C   0  0  0  0  0  0  0  0  0  0  0  0
   41.5130   34.1890   40.1210 H   0  0  0  0  0  0  0  0  0  0  0  0
   40.6430   32.4200   40.9390 O   0  0  0  0  0  0  0  0  0  0  0  0
  1  6  1  0  0  0  0
  2  3  1  0  0  0  0
  2  1  2  0  0  0  0
  3  4  2  0  0  0  0
  4  5  1  0  0  0  0
  5 17  1  0  0  0  0
  6  5  2  0  0  0  0
  7  1  1  0  0  0  0
  8  2  1  0  0  0  0
  9 14  1  0  0  0  0
  9  8  2  0  0  0  0
 10  9  1  0  0  0  0
 11 10  2  0  0  0  0
 11 12  1  0  0  0  0
 12 13  2  0  0  0  0
 13  8  1  0  0  0  0
 15 10  1  0  0  0  0
 16 12  1  0  0  0  0
 17 18  1  0  0  0  0
 17 19  1  0  0  0  0
 17 20  1  0  0  0  0
 21  3  1  0  0  0  0
 22 23  1  0  0  0  0
 23 32  1  0  0  0  0
 24 23  2  0  0  0  0
 25 24  1  0  0  0  0
 26 25  1  0  0  0  0
 26 21  1  0  0  0  0
 27 26  2  0  0  0  0
 28 29  2  0  0  0  0
 28 27  1  0  0  0  0
 29 30  1  0  0  0  0
 30 25  2  0  0  0  0
 30 22  1  0  0  0  0
 31 22  1  0  0  0  0
 33 34  2  0  0  0  0
 33 28  1  0  0  0  0
 35 34  1  0  0  0  0
 36 38  1  0  0  0  0
 36 35  2  0  0  0  0
 37 36  1  0  0  0  0
 38 33  1  0  0  0  0
M  END
>  <minimizedAffinity>
-6.07004642

>  <minimizedRMSD>
0.191308752

$$$$
