
 OpenBabel03242508043D

 27 29  0  0  0  0  0  0  0  0999 V2000
   38.2430   29.8220   42.0150 C   0  0  0  0  0  0  0  0  0  0  0  0
   38.1020   30.2220   40.6930 C   0  0  0  0  0  0  0  0  0  0  0  0
   39.0630   31.1400   40.1680 C   0  0  0  0  0  0  0  0  0  0  0  0
   40.0580   31.5760   40.9710 N   0  0  0  0  0  0  0  0  0  0  0  0
   40.1740   31.1780   42.2370 C   0  0  0  0  0  0  0  0  0  0  0  0
   39.2850   30.3310   42.7230 N   0  0  0  0  0  0  0  0  0  0  0  0
   38.9400   31.4340   39.1580 H   0  0  0  0  0  0  0  0  0  0  0  0
   41.0060   31.5960   42.7660 H   0  0  0  0  0  0  0  0  0  0  0  0
   37.0790   29.7980   39.8460 N   0  0  0  0  0  0  0  0  0  0  0  0
   35.6730   30.2160   39.8500 C   0  0  0  0  0  0  0  0  0  0  0  0
   34.9210   29.0210   39.3370 C   0  0  0  0  0  0  0  0  0  0  0  0
   35.9850   28.0140   38.9490 C   0  0  0  0  0  0  0  0  0  0  0  0
   37.1650   28.9000   38.7430 C   0  0  0  0  0  0  0  0  0  0  0  0
   35.5250   31.0830   39.1870 H   0  0  0  0  0  0  0  0  0  0  0  0
   35.3620   30.5260   40.8620 H   0  0  0  0  0  0  0  0  0  0  0  0
   34.2720   29.2300   38.4670 H   0  0  0  0  0  0  0  0  0  0  0  0
   34.2490   28.6320   40.1310 H   0  0  0  0  0  0  0  0  0  0  0  0
   35.7270   27.5300   37.9600 H   0  0  0  0  0  0  0  0  0  0  0  0
   36.1250   27.2920   39.7290 H   0  0  0  0  0  0  0  0  0  0  0  0
   36.9420   29.5050   37.7700 H   0  0  0  0  0  0  0  0  0  0  0  0
   38.1120   28.4020   38.6060 H   0  0  0  0  0  0  0  0  0  0  0  0
   37.5030   28.8530   42.7850 C   0  0  0  0  0  0  0  0  0  0  0  0
   36.7260   27.7510   42.6400 C   0  0  0  0  0  0  0  0  0  0  0  0
   36.2640   27.1870   43.7910 C   0  0  0  0  0  0  0  0  0  0  0  0
   36.8200   28.0310   44.7120 C   0  0  0  0  0  0  0  0  0  0  0  0
   36.7910   28.0700   45.8140 H   0  0  0  0  0  0  0  0  0  0  0  0
   37.4960   28.9350   44.1140 O   0  0  0  0  0  0  0  0  0  0  0  0
  1  6  1  0  0  0  0
  1 22  1  0  0  0  0
  2  1  2  0  0  0  0
  3  2  1  0  0  0  0
  3  4  2  0  0  0  0
  4  5  1  0  0  0  0
  5  6  2  0  0  0  0
  5  8  1  0  0  0  0
  7  3  1  0  0  0  0
  9 10  1  0  0  0  0
  9  2  1  0  0  0  0
 10 15  1  0  0  0  0
 11 10  1  0  0  0  0
 11 17  1  0  0  0  0
 12 11  1  0  0  0  0
 12 19  1  0  0  0  0
 13 12  1  0  0  0  0
 13  9  1  0  0  0  0
 14 10  1  0  0  0  0
 16 11  1  0  0  0  0
 18 12  1  0  0  0  0
 20 13  1  0  0  0  0
 21 13  1  0  0  0  0
 22 27  1  0  0  0  0
 23 22  2  0  0  0  0
 23 24  1  0  0  0  0
 24 25  2  0  0  0  0
 25 26  1  0  0  0  0
 27 25  1  0  0  0  0
M  END
>  <minimizedAffinity>
-4.3080678

>  <minimizedRMSD>
4.55281448

$$$$
