
 OpenBabel03242500403D

 34 36  0  0  1  0  0  0  0  0999 V2000
   37.4330   26.5980   40.2630 C   0  0  1  0  0  0  0  0  0  0  0  0
   37.3280   26.1070   41.7120 C   0  0  1  0  0  0  0  0  0  0  0  0
   36.9040   24.6750   41.5870 C   0  0  0  0  0  0  0  0  0  0  0  0
   36.7340   24.4130   40.0850 C   0  0  0  0  0  0  0  0  0  0  0  0
   36.3460   25.8270   39.6110 C   0  0  0  0  0  0  0  0  0  0  0  0
   38.4340   26.3350   39.8560 H   0  0  0  0  0  0  0  0  0  0  0  0
   36.6400   26.7130   42.3130 H   0  0  0  0  0  0  0  0  0  0  0  0
   37.7070   24.0220   41.9380 H   0  0  0  0  0  0  0  0  0  0  0  0
   35.9260   24.5030   42.1040 H   0  0  0  0  0  0  0  0  0  0  0  0
   37.6770   24.0960   39.6320 H   0  0  0  0  0  0  0  0  0  0  0  0
   35.9000   23.7070   39.9010 H   0  0  0  0  0  0  0  0  0  0  0  0
   35.3790   26.0930   40.0310 H   0  0  0  0  0  0  0  0  0  0  0  0
   36.3880   25.8790   38.5060 H   0  0  0  0  0  0  0  0  0  0  0  0
   37.2820   28.0530   40.2520 C   0  0  0  0  0  0  0  0  0  0  0  0
   36.1030   28.5850   40.8070 C   0  0  0  0  0  0  0  0  0  0  0  0
   35.9170   29.9790   40.8190 C   0  0  0  0  0  0  0  0  0  0  0  0
   36.9200   30.7330   40.2760 N   0  0  0  0  0  0  0  0  0  0  0  0
   38.0370   30.1770   39.7530 C   0  0  0  0  0  0  0  0  0  0  0  0
   38.2060   28.8570   39.7450 N   0  0  0  0  0  0  0  0  0  0  0  0
   35.3340   27.9600   41.2280 H   0  0  0  0  0  0  0  0  0  0  0  0
   35.0360   30.4570   41.2280 H   0  0  0  0  0  0  0  0  0  0  0  0
   38.8210   30.8140   39.3280 H   0  0  0  0  0  0  0  0  0  0  0  0
   38.6980   26.2390   42.3130 C   0  0  0  0  0  0  0  0  0  0  0  0
   38.9410   26.7350   43.5550 C   0  0  0  0  0  0  0  0  0  0  0  0
   40.2120   26.8570   44.0930 C   0  0  0  0  0  0  0  0  0  0  0  0
   41.2640   26.4430   43.3030 N   0  0  0  0  0  0  0  0  0  0  0  0
   41.0190   25.9570   42.0820 C   0  0  0  0  0  0  0  0  0  0  0  0
   39.7820   25.8450   41.5750 N   0  0  0  0  0  0  0  0  0  0  0  0
   38.0970   27.0480   44.1420 H   0  0  0  0  0  0  0  0  0  0  0  0
   40.4000   27.2500   45.0750 H   0  0  0  0  0  0  0  0  0  0  0  0
   42.4630   25.4510   41.1450 S   0  0  0  0  0  0  0  0  0  0  0  0
   43.9740   25.8660   42.0110 C   0  0  0  0  0  0  0  0  0  0  0  0
   45.2370   25.5020   41.2910 C   0  0  0  0  0  0  0  0  0  0  0  0
   45.2180   25.8350   40.2410 H   0  0  0  0  0  0  0  0  0  0  0  0
  1  6  1  6  0  0  0
  1  2  1  0  0  0  0
  2 23  1  0  0  0  0
  2  7  1  1  0  0  0
  3  2  1  0  0  0  0
  3  8  1  0  0  0  0
  3  9  1  0  0  0  0
  4  3  1  0  0  0  0
  5 12  1  0  0  0  0
  5  4  1  0  0  0  0
  5  1  1  0  0  0  0
 10  4  1  0  0  0  0
 11  4  1  0  0  0  0
 13  5  1  0  0  0  0
 14  1  1  0  0  0  0
 14 15  1  0  0  0  0
 15 16  2  0  0  0  0
 15 20  1  0  0  0  0
 16 21  1  0  0  0  0
 17 16  1  0  0  0  0
 18 17  2  0  0  0  0
 19 18  1  0  0  0  0
 19 14  2  0  0  0  0
 22 18  1  0  0  0  0
 23 24  1  0  0  0  0
 24 25  2  0  0  0  0
 24 29  1  0  0  0  0
 25 30  1  0  0  0  0
 26 25  1  0  0  0  0
 27 26  2  0  0  0  0
 28 27  1  0  0  0  0
 28 23  2  0  0  0  0
 31 32  1  0  0  0  0
 31 27  1  0  0  0  0
 33 32  1  0  0  0  0
 34 33  1  0  0  0  0
M  END
>  <minimizedAffinity>
-4.15339184

>  <minimizedRMSD>
0.0412633009

$$$$
