
 OpenBabel03242505573D

 40 43  0  0  0  0  0  0  0  0999 V2000
   37.7020   28.0690   43.0240 C   0  0  0  0  0  0  0  0  0  0  0  0
   37.6430   28.3260   44.1350 H   0  0  0  0  0  0  0  0  0  0  0  0
   36.6140   28.0460   42.7650 H   0  0  0  0  0  0  0  0  0  0  0  0
   38.4200   26.8320   42.9680 C   0  0  0  0  0  0  0  0  0  0  0  0
   39.5230   26.6590   43.8280 C   0  0  0  0  0  0  0  0  0  0  0  0
   40.2630   25.5090   43.8500 C   0  0  0  0  0  0  0  0  0  0  0  0
   39.8870   24.4780   42.9750 C   0  0  0  0  0  0  0  0  0  0  0  0
   38.8230   24.6340   42.1400 C   0  0  0  0  0  0  0  0  0  0  0  0
   38.4460   23.6040   41.2750 C   0  0  0  0  0  0  0  0  0  0  0  0
   37.3880   23.7490   40.4480 C   0  0  0  0  0  0  0  0  0  0  0  0
   36.6230   24.9310   40.4190 C   0  0  0  0  0  0  0  0  0  0  0  0
   37.0250   25.9530   41.3010 C   0  0  0  0  0  0  0  0  0  0  0  0
   38.0780   25.8120   42.1270 C   0  0  0  0  0  0  0  0  0  0  0  0
   39.9120   27.3530   44.5490 H   0  0  0  0  0  0  0  0  0  0  0  0
   41.1040   25.2750   44.4500 H   0  0  0  0  0  0  0  0  0  0  0  0
   40.4150   23.5340   42.9240 H   0  0  0  0  0  0  0  0  0  0  0  0
   39.0180   22.6960   41.2830 H   0  0  0  0  0  0  0  0  0  0  0  0
   37.1230   22.9360   39.7940 H   0  0  0  0  0  0  0  0  0  0  0  0
   35.7770   25.0520   39.7590 H   0  0  0  0  0  0  0  0  0  0  0  0
   36.4000   26.8320   41.2270 H   0  0  0  0  0  0  0  0  0  0  0  0
   39.2430   29.9710   43.1970 C   0  0  0  0  0  0  0  0  0  0  0  0
   38.3440   29.2680   42.4450 C   0  0  0  0  0  0  0  0  0  0  0  0
   38.1190   29.7760   41.1630 C   0  0  0  0  0  0  0  0  0  0  0  0
   38.7740   30.8750   40.7700 N   0  0  0  0  0  0  0  0  0  0  0  0
   39.6300   31.5230   41.5180 C   0  0  0  0  0  0  0  0  0  0  0  0
   39.8920   31.0710   42.7900 N   0  0  0  0  0  0  0  0  0  0  0  0
   40.2240   32.6740   40.9340 N   0  0  0  0  0  0  0  0  0  0  0  0
   41.4350   33.1020   40.7310 N   0  0  0  0  0  0  0  0  0  0  0  0
   41.4030   34.2950   40.1130 C   0  0  0  0  0  0  0  0  0  0  0  0
   40.0800   34.6330   39.9170 C   0  0  0  0  0  0  0  0  0  0  0  0
   39.3570   33.5890   40.4460 C   0  0  0  0  0  0  0  0  0  0  0  0
   39.5690   29.7820   44.2090 H   0  0  0  0  0  0  0  0  0  0  0  0
   37.4070   29.2300   40.5500 H   0  0  0  0  0  0  0  0  0  0  0  0
   42.2790   34.8760   39.8260 H   0  0  0  0  0  0  0  0  0  0  0  0
   39.7550   35.5520   39.4360 H   0  0  0  0  0  0  0  0  0  0  0  0
   37.9610   33.6530   40.3920 O   0  0  0  0  0  0  0  0  0  0  0  0
   37.2190   33.5820   39.2360 C   0  0  0  0  0  0  0  0  0  0  0  0
   37.1110   32.5540   38.5540 O   0  0  0  0  0  0  0  0  0  0  0  0
   36.5840   34.7900   38.8910 O   0  0  0  0  0  0  0  0  0  0  0  0
   36.0130   34.7860   38.0320 H   0  0  0  0  0  0  0  0  0  0  0  0
  1  2  1  0  0  0  0
  3  1  1  0  0  0  0
  4  1  1  0  0  0  0
  4  5  1  0  0  0  0
  5  6  2  0  0  0  0
  5 14  1  0  0  0  0
  6 15  1  0  0  0  0
  7  6  1  0  0  0  0
  8  7  2  0  0  0  0
  9 17  1  0  0  0  0
  9  8  1  0  0  0  0
 10  9  2  0  0  0  0
 11 10  1  0  0  0  0
 11 12  2  0  0  0  0
 12 13  1  0  0  0  0
 13  8  1  0  0  0  0
 13  4  2  0  0  0  0
 16  7  1  0  0  0  0
 18 10  1  0  0  0  0
 19 11  1  0  0  0  0
 20 12  1  0  0  0  0
 21 32  1  0  0  0  0
 22  1  1  0  0  0  0
 22 21  2  0  0  0  0
 23 22  1  0  0  0  0
 24 23  2  0  0  0  0
 24 25  1  0  0  0  0
 25 26  2  0  0  0  0
 26 21  1  0  0  0  0
 27 25  1  0  0  0  0
 28 27  1  0  0  0  0
 29 28  2  0  0  0  0
 30 29  1  0  0  0  0
 30 31  2  0  0  0  0
 31 27  1  0  0  0  0
 33 23  1  0  0  0  0
 34 29  1  0  0  0  0
 35 30  1  0  0  0  0
 36 31  1  0  0  0  0
 37 36  1  0  0  0  0
 38 37  2  0  0  0  0
 39 37  1  0  0  0  0
 40 39  1  0  0  0  0
M  END
>  <minimizedAffinity>
-6.9546628

>  <minimizedRMSD>
0.403677166

$$$$
