
 OpenBabel03242509293D

 15 15  0  0  0  0  0  0  0  0999 V2000
   38.0170   28.8730   43.3560 C   0  0  0  0  0  0  0  0  0  0  0  0
   38.1610   27.4550   43.2980 C   0  0  0  0  0  0  0  0  0  0  0  0
   37.4540   26.7940   42.2830 C   0  0  0  0  0  0  0  0  0  0  0  0
   36.6700   27.5340   41.4070 N   0  0  0  0  0  0  0  0  0  0  0  0
   36.5870   28.8690   41.5290 C   0  0  0  0  0  0  0  0  0  0  0  0
   37.2520   29.5210   42.4890 N   0  0  0  0  0  0  0  0  0  0  0  0
   38.5510   29.3860   44.1240 H   0  0  0  0  0  0  0  0  0  0  0  0
   38.7730   26.9140   43.9880 H   0  0  0  0  0  0  0  0  0  0  0  0
   35.7710   29.5880   40.6100 N   0  0  0  0  0  0  0  0  0  0  0  0
   35.2330   29.1510   39.8490 H   0  0  0  0  0  0  0  0  0  0  0  0
   35.6720   30.6170   40.6570 H   0  0  0  0  0  0  0  0  0  0  0  0
   37.5700   25.3130   42.1810 C   0  0  0  0  0  0  0  0  0  0  0  0
   37.7250   25.0340   40.8530 F   0  0  0  0  0  0  0  0  0  0  0  0
   38.6460   24.8280   42.8500 F   0  0  0  0  0  0  0  0  0  0  0  0
   36.4040   24.6830   42.6330 F   0  0  0  0  0  0  0  0  0  0  0  0
  1  7  1  0  0  0  0
  2  1  1  0  0  0  0
  2  8  1  0  0  0  0
  3  2  2  0  0  0  0
  4  5  2  0  0  0  0
  4  3  1  0  0  0  0
  5  6  1  0  0  0  0
  6  1  2  0  0  0  0
  9 11  1  0  0  0  0
  9  5  1  0  0  0  0
 10  9  1  0  0  0  0
 12  3  1  0  0  0  0
 12 15  1  0  0  0  0
 12 14  1  0  0  0  0
 13 12  1  0  0  0  0
M  END
>  <minimizedAffinity>
-3.64061213

>  <minimizedRMSD>
0.0882738903

$$$$
