
 OpenBabel03242506253D

 19 20  0  0  0  0  0  0  0  0999 V2000
   38.5820   28.1410   42.6290 C   0  0  0  0  0  0  0  0  0  0  0  0
   38.3580   27.1380   43.5530 C   0  0  0  0  0  0  0  0  0  0  0  0
   39.5340   26.7280   44.0850 N   0  0  0  0  0  0  0  0  0  0  0  0
   40.4870   27.4760   43.4900 C   0  0  0  0  0  0  0  0  0  0  0  0
   39.9060   28.3270   42.6120 N   0  0  0  0  0  0  0  0  0  0  0  0
   37.3800   26.7230   43.8310 H   0  0  0  0  0  0  0  0  0  0  0  0
   41.5710   27.4400   43.6540 H   0  0  0  0  0  0  0  0  0  0  0  0
   35.6360   28.6030   40.4360 C   0  0  0  0  0  0  0  0  0  0  0  0
   36.6540   27.9690   41.1550 C   0  0  0  0  0  0  0  0  0  0  0  0
   37.5320   28.7880   41.8890 C   0  0  0  0  0  0  0  0  0  0  0  0
   37.3660   30.1540   41.8750 N   0  0  0  0  0  0  0  0  0  0  0  0
   36.3460   30.7130   41.1500 C   0  0  0  0  0  0  0  0  0  0  0  0
   35.4900   29.9360   40.4360 N   0  0  0  0  0  0  0  0  0  0  0  0
   34.9600   28.0090   39.8760 H   0  0  0  0  0  0  0  0  0  0  0  0
   36.7890   26.8880   41.1660 H   0  0  0  0  0  0  0  0  0  0  0  0
   36.3460   31.7980   41.2410 H   0  0  0  0  0  0  0  0  0  0  0  0
   40.5840   29.2990   41.7710 C   0  0  0  0  0  0  0  0  0  0  0  0
   40.9140   30.5390   42.5670 C   0  0  0  0  0  0  0  0  0  0  0  0
   40.7690   31.4820   42.0450 H   0  0  0  0  0  0  0  0  0  0  0  0
  1  2  2  0  0  0  0
  2  6  1  0  0  0  0
  2  3  1  0  0  0  0
  4  7  1  0  0  0  0
  4  3  2  0  0  0  0
  5  1  1  0  0  0  0
  5  4  1  0  0  0  0
  8  9  1  0  0  0  0
  9 15  1  0  0  0  0
  9 10  2  0  0  0  0
 10  1  1  0  0  0  0
 11 10  1  0  0  0  0
 12 16  1  0  0  0  0
 12 11  2  0  0  0  0
 13  8  2  0  0  0  0
 13 12  1  0  0  0  0
 14  8  1  0  0  0  0
 17 18  1  0  0  0  0
 17  5  1  0  0  0  0
 19 18  1  0  0  0  0
M  END
>  <minimizedAffinity>
-3.56203032

>  <minimizedRMSD>
0.362783253

$$$$
