
 OpenBabel03242502353D

 16 17  0  0  0  0  0  0  0  0999 V2000
   39.2440   31.0920   41.7900 C   0  0  0  0  0  0  0  0  0  0  0  0
   39.0600   30.0100   42.6870 C   0  0  0  0  0  0  0  0  0  0  0  0
   37.8340   29.3680   42.6800 C   0  0  0  0  0  0  0  0  0  0  0  0
   36.8660   29.7870   41.8350 N   0  0  0  0  0  0  0  0  0  0  0  0
   37.0700   30.8230   40.9890 C   0  0  0  0  0  0  0  0  0  0  0  0
   38.2460   31.4830   40.9540 N   0  0  0  0  0  0  0  0  0  0  0  0
   40.1770   31.6420   41.7380 H   0  0  0  0  0  0  0  0  0  0  0  0
   39.9170   29.7760   43.3110 H   0  0  0  0  0  0  0  0  0  0  0  0
   36.2170   31.0580   40.3650 H   0  0  0  0  0  0  0  0  0  0  0  0
   37.6820   28.2810   43.5980 C   0  0  0  0  0  0  0  0  0  0  0  0
   36.9610   28.2640   44.6070 O   0  0  0  0  0  0  0  0  0  0  0  0
   38.4490   27.0270   43.3540 C   0  0  0  0  0  0  0  0  0  0  0  0
   39.6200   26.5950   43.9320 C   0  0  0  0  0  0  0  0  0  0  0  0
   40.1060   25.3980   43.5190 C   0  0  0  0  0  0  0  0  0  0  0  0
   39.4250   24.6560   42.5450 C   0  0  0  0  0  0  0  0  0  0  0  0
   37.9570   25.7690   42.1880 S   0  0  0  0  0  0  0  0  0  0  0  0
  1  2  1  0  0  0  0
  2  8  1  0  0  0  0
  3  2  2  0  0  0  0
  3 10  1  0  0  0  0
  4  3  1  0  0  0  0
  5  4  2  0  0  0  0
  6  5  1  0  0  0  0
  6  1  2  0  0  0  0
  7  1  1  0  0  0  0
  9  5  1  0  0  0  0
 10 11  2  0  0  0  0
 12 10  1  0  0  0  0
 12 13  2  0  0  0  0
 14 13  1  0  0  0  0
 15 14  2  0  0  0  0
 16 15  1  0  0  0  0
 16 12  1  0  0  0  0
M  END
>  <minimizedAffinity>
-4.22661161

>  <minimizedRMSD>
0.89259094

$$$$
