
 OpenBabel03242508563D

 39 42  0  0  0  0  0  0  0  0999 V2000
   36.7350   29.7910   39.8380 C   0  0  0  0  0  0  0  0  0  0  0  0
   37.5980   30.8930   39.8570 C   0  0  0  0  0  0  0  0  0  0  0  0
   38.2380   30.8450   41.0180 N   0  0  0  0  0  0  0  0  0  0  0  0
   37.8630   29.8010   41.7600 C   0  0  0  0  0  0  0  0  0  0  0  0
   38.2920   29.4060   43.0180 C   0  0  0  0  0  0  0  0  0  0  0  0
   37.7180   28.2610   43.5500 C   0  0  0  0  0  0  0  0  0  0  0  0
   36.7500   27.5430   42.8430 C   0  0  0  0  0  0  0  0  0  0  0  0
   36.3320   27.9490   41.5910 C   0  0  0  0  0  0  0  0  0  0  0  0
   36.8970   29.0910   41.0460 C   0  0  0  0  0  0  0  0  0  0  0  0
   37.5980   31.5460   38.9840 H   0  0  0  0  0  0  0  0  0  0  0  0
   39.0360   29.9470   43.5760 H   0  0  0  0  0  0  0  0  0  0  0  0
   37.9810   27.8660   44.5250 H   0  0  0  0  0  0  0  0  0  0  0  0
   36.3180   26.6530   43.2840 H   0  0  0  0  0  0  0  0  0  0  0  0
   35.5840   27.4220   41.0060 H   0  0  0  0  0  0  0  0  0  0  0  0
   33.6680   28.8040   38.1100 C   0  0  0  0  0  0  0  0  0  0  0  0
   34.0720   28.6970   36.7590 C   0  0  0  0  0  0  0  0  0  0  0  0
   35.4030   28.9690   36.4670 C   0  0  0  0  0  0  0  0  0  0  0  0
   36.2180   29.3150   37.4860 N   0  0  0  0  0  0  0  0  0  0  0  0
   35.8090   29.4090   38.7650 C   0  0  0  0  0  0  0  0  0  0  0  0
   34.5420   29.1540   39.0670 N   0  0  0  0  0  0  0  0  0  0  0  0
   32.6290   28.5880   38.3190 H   0  0  0  0  0  0  0  0  0  0  0  0
   33.3440   28.4140   36.0200 H   0  0  0  0  0  0  0  0  0  0  0  0
   35.7320   28.8950   35.4440 H   0  0  0  0  0  0  0  0  0  0  0  0
   39.2040   31.8620   41.3350 C   0  0  0  0  0  0  0  0  0  0  0  0
   39.5240   31.7640   42.3980 H   0  0  0  0  0  0  0  0  0  0  0  0
   40.1150   31.6030   40.7270 H   0  0  0  0  0  0  0  0  0  0  0  0
   38.7540   33.2630   41.0500 C   0  0  0  0  0  0  0  0  0  0  0  0
   37.8780   33.3800   40.4260 H   0  0  0  0  0  0  0  0  0  0  0  0
   38.6440   33.7720   42.0530 H   0  0  0  0  0  0  0  0  0  0  0  0
   39.9350   33.9100   40.4300 N   0  0  0  0  0  0  0  0  0  0  0  0
   41.1130   33.3360   40.3150 N   0  0  0  0  0  0  0  0  0  0  0  0
   41.9790   34.1600   39.7150 C   0  0  0  0  0  0  0  0  0  0  0  0
   41.2860   35.3530   39.4310 C   0  0  0  0  0  0  0  0  0  0  0  0
   40.0040   35.1360   39.9030 C   0  0  0  0  0  0  0  0  0  0  0  0
   43.0240   34.0770   39.4370 H   0  0  0  0  0  0  0  0  0  0  0  0
   41.5780   36.2850   38.9580 H   0  0  0  0  0  0  0  0  0  0  0  0
   38.9260   36.0500   39.8480 N   0  0  0  0  0  0  0  0  0  0  0  0
   37.9450   35.7570   40.0010 H   0  0  0  0  0  0  0  0  0  0  0  0
   38.9970   37.0660   39.6580 H   0  0  0  0  0  0  0  0  0  0  0  0
  1  2  2  0  0  0  0
  1  9  1  0  0  0  0
  2  3  1  0  0  0  0
  3 24  1  0  0  0  0
  3  4  1  0  0  0  0
  4  5  1  0  0  0  0
  5  6  2  0  0  0  0
  5 11  1  0  0  0  0
  6 12  1  0  0  0  0
  7 13  1  0  0  0  0
  7  6  1  0  0  0  0
  8  7  2  0  0  0  0
  9  8  1  0  0  0  0
  9  4  2  0  0  0  0
 10  2  1  0  0  0  0
 14  8  1  0  0  0  0
 15 21  1  0  0  0  0
 15 20  1  0  0  0  0
 16 15  2  0  0  0  0
 17 16  1  0  0  0  0
 17 18  2  0  0  0  0
 18 19  1  0  0  0  0
 19 20  2  0  0  0  0
 19  1  1  0  0  0  0
 22 16  1  0  0  0  0
 23 17  1  0  0  0  0
 24 25  1  0  0  0  0
 26 24  1  0  0  0  0
 27 24  1  0  0  0  0
 27 29  1  0  0  0  0
 28 27  1  0  0  0  0
 30 27  1  0  0  0  0
 31 30  1  0  0  0  0
 32 31  2  0  0  0  0
 33 32  1  0  0  0  0
 33 34  2  0  0  0  0
 34 30  1  0  0  0  0
 35 32  1  0  0  0  0
 36 33  1  0  0  0  0
 37 34  1  0  0  0  0
 37 38  1  0  0  0  0
 39 37  1  0  0  0  0
M  END
>  <minimizedAffinity>
-5.97531366

>  <minimizedRMSD>
0.914184988

$$$$
