
 OpenBabel03242509003D

 28 31  0  0  1  0  0  0  0  0999 V2000
   37.5400   27.3080   39.3960 C   0  0  1  0  0  0  0  0  0  0  0  0
   37.6250   26.2390   40.4370 C   0  0  0  0  0  0  0  0  0  0  0  0
   36.4170   26.2600   39.5790 C   0  0  2  0  0  0  0  0  0  0  0  0
   38.1340   27.2270   38.4890 H   0  0  0  0  0  0  0  0  0  0  0  0
   38.4010   25.4590   40.3580 H   0  0  0  0  0  0  0  0  0  0  0  0
   37.4380   26.5100   41.5150 H   0  0  0  0  0  0  0  0  0  0  0  0
   35.4730   26.6540   39.9990 H   0  0  0  0  0  0  0  0  0  0  0  0
   36.2330   25.4130   38.4030 C   0  0  0  0  0  0  0  0  0  0  0  0
   36.9530   24.2880   38.2180 N   0  0  0  0  0  0  0  0  0  0  0  0
   36.8310   23.4740   37.1680 C   0  0  0  0  0  0  0  0  0  0  0  0
   35.9230   23.7810   36.2000 N   0  0  0  0  0  0  0  0  0  0  0  0
   35.1610   24.8960   36.3100 C   0  0  0  0  0  0  0  0  0  0  0  0
   34.2460   25.1660   35.2950 C   0  0  0  0  0  0  0  0  0  0  0  0
   33.4650   26.3110   35.4140 C   0  0  0  0  0  0  0  0  0  0  0  0
   32.7630   26.5030   34.6160 H   0  0  0  0  0  0  0  0  0  0  0  0
   33.6040   27.1440   36.5120 C   0  0  0  0  0  0  0  0  0  0  0  0
   32.9840   28.0150   36.5650 H   0  0  0  0  0  0  0  0  0  0  0  0
   34.5320   26.8240   37.4930 C   0  0  0  0  0  0  0  0  0  0  0  0
   35.3190   25.7110   37.4180 C   0  0  0  0  0  0  0  0  0  0  0  0
   36.9910   30.1480   41.6900 C   0  0  0  0  0  0  0  0  0  0  0  0
   36.6970   31.2040   40.7900 C   0  0  0  0  0  0  0  0  0  0  0  0
   36.6860   30.9100   39.4040 C   0  0  0  0  0  0  0  0  0  0  0  0
   36.9550   29.6320   39.0020 N   0  0  0  0  0  0  0  0  0  0  0  0
   37.2290   28.6650   39.9060 C   0  0  0  0  0  0  0  0  0  0  0  0
   37.2470   28.9150   41.2340 N   0  0  0  0  0  0  0  0  0  0  0  0
   36.9930   30.4050   42.7400 H   0  0  0  0  0  0  0  0  0  0  0  0
   36.4820   32.2140   41.0670 H   0  0  0  0  0  0  0  0  0  0  0  0
   36.4700   31.6610   38.6570 H   0  0  0  0  0  0  0  0  0  0  0  0
  1  4  1  6  0  0  0
  1  3  1  0  0  0  0
  1 24  1  0  0  0  0
  1  2  1  0  0  0  0
  2  6  1  0  0  0  0
  3  7  1  1  0  0  0
  3  2  1  0  0  0  0
  5  2  1  0  0  0  0
  8  3  1  0  0  0  0
  9  8  1  0  0  0  0
 10  9  2  0  0  0  0
 11 12  2  0  0  0  0
 11 10  1  0  0  0  0
 12 19  1  0  0  0  0
 13 14  2  0  0  0  0
 13 12  1  0  0  0  0
 14 16  1  0  0  0  0
 15 14  1  0  0  0  0
 16 17  1  0  0  0  0
 16 18  2  0  0  0  0
 19 18  1  0  0  0  0
 19  8  2  0  0  0  0
 20 26  1  0  0  0  0
 21 27  1  0  0  0  0
 21 20  2  0  0  0  0
 22 21  1  0  0  0  0
 23 22  2  0  0  0  0
 23 24  1  0  0  0  0
 24 25  2  0  0  0  0
 25 20  1  0  0  0  0
 28 22  1  0  0  0  0
M  END
>  <minimizedAffinity>
-3.34690881

>  <minimizedRMSD>
5.29278326

$$$$
