
 OpenBabel03242509283D

 51 56  0  0  0  0  0  0  0  0999 V2000
   39.5770   27.8030   43.1890 C   0  0  0  0  0  0  0  0  0  0  0  0
   38.3270   27.3600   43.5930 C   0  0  0  0  0  0  0  0  0  0  0  0
   37.4190   28.3090   43.1080 C   0  0  0  0  0  0  0  0  0  0  0  0
   38.1690   29.2250   42.4660 N   0  0  0  0  0  0  0  0  0  0  0  0
   39.4200   28.9480   42.5030 N   0  0  0  0  0  0  0  0  0  0  0  0
   38.1260   26.4550   44.1690 H   0  0  0  0  0  0  0  0  0  0  0  0
   36.3790   28.1930   43.2890 H   0  0  0  0  0  0  0  0  0  0  0  0
   42.3230   25.2940   43.3090 C   0  0  0  0  0  0  0  0  0  0  0  0
   41.0930   25.8730   42.9630 C   0  0  0  0  0  0  0  0  0  0  0  0
   40.8310   27.1460   43.4690 C   0  0  0  0  0  0  0  0  0  0  0  0
   41.7410   27.7400   44.2370 N   0  0  0  0  0  0  0  0  0  0  0  0
   42.9350   27.1650   44.5660 C   0  0  0  0  0  0  0  0  0  0  0  0
   43.2020   25.9410   44.0880 N   0  0  0  0  0  0  0  0  0  0  0  0
   42.5400   24.2970   42.9190 H   0  0  0  0  0  0  0  0  0  0  0  0
   40.3770   25.3800   42.3450 H   0  0  0  0  0  0  0  0  0  0  0  0
   43.9830   27.7250   45.3920 C   0  0  0  0  0  0  0  0  0  0  0  0
   45.1760   28.0520   44.8690 N   0  0  0  0  0  0  0  0  0  0  0  0
   46.2050   28.5710   45.5410 C   0  0  0  0  0  3  0  0  0  0  0  0
   46.1010   28.8150   46.8810 N   0  0  0  0  0  0  0  0  0  0  0  0
   44.9280   28.5180   47.5140 C   0  0  0  0  0  0  0  0  0  0  0  0
   44.8020   28.7570   48.8640 C   0  0  0  0  0  3  0  0  0  0  0  0
   43.6300   28.4660   49.5260 C   0  0  0  0  0  0  0  0  0  0  0  0
   43.6530   28.6970   50.5810 H   0  0  0  0  0  0  0  0  0  0  0  0
   42.5900   27.9230   48.7600 C   0  0  0  0  0  0  0  0  0  0  0  0
   41.6990   27.7150   49.3240 H   0  0  0  0  0  0  0  0  0  0  0  0
   42.7900   27.7140   47.4170 C   0  0  0  0  0  3  0  0  0  0  0  0
   43.9410   27.9920   46.7390 C   0  0  0  0  0  0  0  0  0  0  0  0
   37.5180   30.3290   41.8620 C   0  0  0  0  0  0  0  0  0  0  0  0
   37.1650   30.9850   42.7110 H   0  0  0  0  0  0  0  0  0  0  0  0
   38.2480   30.9530   41.3040 H   0  0  0  0  0  0  0  0  0  0  0  0
   36.3890   29.9990   40.9380 C   0  0  0  0  0  0  0  0  0  0  0  0
   35.8090   29.1820   41.3450 H   0  0  0  0  0  0  0  0  0  0  0  0
   35.8510   31.0080   40.9590 H   0  0  0  0  0  0  0  0  0  0  0  0
   36.7730   29.8870   39.5150 C   0  0  0  0  0  0  0  0  0  0  0  0
   37.9860   30.1660   38.9520 C   0  0  0  0  0  0  0  0  0  0  0  0
   38.2780   30.1160   37.6160 C   0  0  0  0  0  0  0  0  0  0  0  0
   37.2950   29.7570   36.7220 C   0  0  0  0  0  0  0  0  0  0  0  0
   36.0370   29.4580   37.2310 C   0  0  0  0  0  0  0  0  0  0  0  0
   35.1020   29.1100   36.2830 C   0  0  0  0  0  0  0  0  0  0  0  0
   33.8350   28.7960   36.6860 C   0  0  0  0  0  0  0  0  0  0  0  0
   33.5200   28.8330   38.0240 C   0  0  0  0  0  0  0  0  0  0  0  0
   34.5010   29.1880   38.9100 C   0  0  0  0  0  0  0  0  0  0  0  0
   35.7820   29.5190   38.5840 C   0  0  0  0  0  0  0  0  0  0  0  0
   38.7700   30.4510   39.6460 H   0  0  0  0  0  0  0  0  0  0  0  0
   39.2650   30.3510   37.2550 H   0  0  0  0  0  0  0  0  0  0  0  0
   37.5470   29.7260   35.6840 H   0  0  0  0  0  0  0  0  0  0  0  0
   35.3290   29.0730   35.2230 H   0  0  0  0  0  0  0  0  0  0  0  0
   33.0660   28.5180   35.9750 H   0  0  0  0  0  0  0  0  0  0  0  0
   32.5210   28.5830   38.3300 H   0  0  0  0  0  0  0  0  0  0  0  0
   34.1180   29.1890   40.2490 O   0  0  0  0  0  0  0  0  0  0  0  0
   33.3580   29.7780   40.5840 H   0  0  0  0  0  0  0  0  0  0  0  0
  1 10  1  0  0  0  0
  1  2  1  0  0  0  0
  2  6  1  0  0  0  0
  3  7  1  0  0  0  0
  3  2  2  0  0  0  0
  4  5  1  0  0  0  0
  4  3  1  0  0  0  0
  5  1  2  0  0  0  0
  8 13  1  0  0  0  0
  9  8  2  0  0  0  0
  9 10  1  0  0  0  0
 10 11  2  0  0  0  0
 11 12  1  0  0  0  0
 12 16  1  0  0  0  0
 13 12  2  0  0  0  0
 14  8  1  0  0  0  0
 15  9  1  0  0  0  0
 16 27  1  0  0  0  0
 17 16  2  0  0  0  0
 17 18  1  0  0  0  0
 18 19  2  0  0  0  0
 19 20  1  0  0  0  0
 20 21  1  0  0  0  0
 21 22  2  0  0  0  0
 22 23  1  0  0  0  0
 24 25  1  0  0  0  0
 24 22  1  0  0  0  0
 26 24  2  0  0  0  0
 27 26  1  0  0  0  0
 27 20  2  0  0  0  0
 28  4  1  0  0  0  0
 28 29  1  0  0  0  0
 30 28  1  0  0  0  0
 31 33  1  0  0  0  0
 31 32  1  0  0  0  0
 31 28  1  0  0  0  0
 34 31  1  0  0  0  0
 35 34  1  0  0  0  0
 35 44  1  0  0  0  0
 36 35  2  0  0  0  0
 37 38  2  0  0  0  0
 37 36  1  0  0  0  0
 38 43  1  0  0  0  0
 39 40  2  0  0  0  0
 39 38  1  0  0  0  0
 40 41  1  0  0  0  0
 41 49  1  0  0  0  0
 41 42  2  0  0  0  0
 42 50  1  0  0  0  0
 43 42  1  0  0  0  0
 43 34  2  0  0  0  0
 45 36  1  0  0  0  0
 46 37  1  0  0  0  0
 47 39  1  0  0  0  0
 48 40  1  0  0  0  0
 50 51  1  0  0  0  0
M  END
>  <minimizedAffinity>
-7.91383791

>  <minimizedRMSD>
2.53769898

$$$$
