
 OpenBabel03242509273D

 51 56  0  0  0  0  0  0  0  0999 V2000
   39.5790   27.8050   43.1890 C   0  0  0  0  0  0  0  0  0  0  0  0
   38.3290   27.3590   43.5890 C   0  0  0  0  0  0  0  0  0  0  0  0
   37.4220   28.3100   43.1050 C   0  0  0  0  0  0  0  0  0  0  0  0
   38.1730   29.2290   42.4690 N   0  0  0  0  0  0  0  0  0  0  0  0
   39.4230   28.9530   42.5080 N   0  0  0  0  0  0  0  0  0  0  0  0
   38.1270   26.4520   44.1600 H   0  0  0  0  0  0  0  0  0  0  0  0
   36.3820   28.1920   43.2830 H   0  0  0  0  0  0  0  0  0  0  0  0
   42.3250   25.2950   43.3100 C   0  0  0  0  0  0  0  0  0  0  0  0
   41.0950   25.8740   42.9640 C   0  0  0  0  0  0  0  0  0  0  0  0
   40.8330   27.1480   43.4700 C   0  0  0  0  0  0  0  0  0  0  0  0
   41.7430   27.7410   44.2380 N   0  0  0  0  0  0  0  0  0  0  0  0
   42.9370   27.1660   44.5670 C   0  0  0  0  0  0  0  0  0  0  0  0
   43.2030   25.9410   44.0890 N   0  0  0  0  0  0  0  0  0  0  0  0
   42.5420   24.2970   42.9210 H   0  0  0  0  0  0  0  0  0  0  0  0
   40.3790   25.3820   42.3460 H   0  0  0  0  0  0  0  0  0  0  0  0
   43.9850   27.7250   45.3930 C   0  0  0  0  0  0  0  0  0  0  0  0
   45.1780   28.0520   44.8700 N   0  0  0  0  0  0  0  0  0  0  0  0
   46.2080   28.5710   45.5430 C   0  0  0  0  0  0  0  0  0  0  0  0
   46.1030   28.8150   46.8830 N   0  0  0  0  0  0  0  0  0  0  0  0
   44.9300   28.5190   47.5160 C   0  0  0  0  0  0  0  0  0  0  0  0
   44.8040   28.7580   48.8660 C   0  0  0  0  0  0  0  0  0  0  0  0
   43.6310   28.4670   49.5270 C   0  0  0  0  0  0  0  0  0  0  0  0
   43.6520   28.6980   50.5820 H   0  0  0  0  0  0  0  0  0  0  0  0
   42.5920   27.9250   48.7620 C   0  0  0  0  0  0  0  0  0  0  0  0
   41.7000   27.7170   49.3240 H   0  0  0  0  0  0  0  0  0  0  0  0
   42.7910   27.7140   47.4180 C   0  0  0  0  0  0  0  0  0  0  0  0
   43.9420   27.9930   46.7390 C   0  0  0  0  0  0  0  0  0  0  0  0
   37.5220   30.3340   41.8670 C   0  0  0  0  0  0  0  0  0  0  0  0
   37.1690   30.9880   42.7180 H   0  0  0  0  0  0  0  0  0  0  0  0
   38.2530   30.9590   41.3110 H   0  0  0  0  0  0  0  0  0  0  0  0
   36.3930   30.0080   40.9420 C   0  0  0  0  0  0  0  0  0  0  0  0
   35.8120   29.1900   41.3470 H   0  0  0  0  0  0  0  0  0  0  0  0
   35.8560   31.0170   40.9650 H   0  0  0  0  0  0  0  0  0  0  0  0
   36.7780   29.9000   39.5190 C   0  0  0  0  0  0  0  0  0  0  0  0
   37.9890   30.1860   38.9560 C   0  0  0  0  0  0  0  0  0  0  0  0
   38.2810   30.1390   37.6200 C   0  0  0  0  0  0  0  0  0  0  0  0
   37.3000   29.7750   36.7260 C   0  0  0  0  0  0  0  0  0  0  0  0
   36.0440   29.4680   37.2340 C   0  0  0  0  0  0  0  0  0  0  0  0
   35.1110   29.1150   36.2870 C   0  0  0  0  0  0  0  0  0  0  0  0
   33.8460   28.7930   36.6890 C   0  0  0  0  0  0  0  0  0  0  0  0
   33.5310   28.8260   38.0280 C   0  0  0  0  0  0  0  0  0  0  0  0
   34.5100   29.1870   38.9130 C   0  0  0  0  0  0  0  0  0  0  0  0
   35.7880   29.5260   38.5880 C   0  0  0  0  0  0  0  0  0  0  0  0
   38.7720   30.4750   39.6500 H   0  0  0  0  0  0  0  0  0  0  0  0
   39.2670   30.3810   37.2590 H   0  0  0  0  0  0  0  0  0  0  0  0
   37.5530   29.7460   35.6870 H   0  0  0  0  0  0  0  0  0  0  0  0
   35.3380   29.0790   35.2270 H   0  0  0  0  0  0  0  0  0  0  0  0
   33.0790   28.5100   35.9780 H   0  0  0  0  0  0  0  0  0  0  0  0
   32.5340   28.5700   38.3330 H   0  0  0  0  0  0  0  0  0  0  0  0
   34.1270   29.1840   40.2530 O   0  0  0  0  0  0  0  0  0  0  0  0
   33.3640   29.7680   40.5880 H   0  0  0  0  0  0  0  0  0  0  0  0
  1 10  1  0  0  0  0
  1  2  1  0  0  0  0
  2  6  1  0  0  0  0
  3  7  1  0  0  0  0
  3  2  2  0  0  0  0
  4  5  1  0  0  0  0
  4  3  1  0  0  0  0
  5  1  2  0  0  0  0
  8 13  1  0  0  0  0
  9  8  2  0  0  0  0
  9 10  1  0  0  0  0
 10 11  2  0  0  0  0
 11 12  1  0  0  0  0
 12 16  1  0  0  0  0
 13 12  2  0  0  0  0
 14  8  1  0  0  0  0
 15  9  1  0  0  0  0
 16 27  1  0  0  0  0
 17 16  2  0  0  0  0
 17 18  1  0  0  0  0
 18 19  2  0  0  0  0
 19 20  1  0  0  0  0
 20 21  1  0  0  0  0
 21 22  2  0  0  0  0
 22 23  1  0  0  0  0
 24 25  1  0  0  0  0
 24 22  1  0  0  0  0
 26 24  2  0  0  0  0
 27 26  1  0  0  0  0
 27 20  2  0  0  0  0
 28  4  1  0  0  0  0
 28 29  1  0  0  0  0
 30 28  1  0  0  0  0
 31 33  1  0  0  0  0
 31 32  1  0  0  0  0
 31 28  1  0  0  0  0
 34 31  1  0  0  0  0
 35 34  1  0  0  0  0
 35 44  1  0  0  0  0
 36 35  2  0  0  0  0
 37 38  2  0  0  0  0
 37 36  1  0  0  0  0
 38 43  1  0  0  0  0
 39 40  2  0  0  0  0
 39 38  1  0  0  0  0
 40 41  1  0  0  0  0
 41 49  1  0  0  0  0
 41 42  2  0  0  0  0
 42 50  1  0  0  0  0
 43 42  1  0  0  0  0
 43 34  2  0  0  0  0
 45 36  1  0  0  0  0
 46 37  1  0  0  0  0
 47 39  1  0  0  0  0
 48 40  1  0  0  0  0
 50 51  1  0  0  0  0
M  END
>  <minimizedAffinity>
-7.91575289

>  <minimizedRMSD>
2.79835463

$$$$
