
 OpenBabel03242509283D

 51 56  0  0  0  0  0  0  0  0999 V2000
   38.8530   28.2250   42.8020 C   0  0  0  0  0  0  0  0  0  0  0  0
   37.7270   27.4320   42.9580 C   0  0  0  0  0  0  0  0  0  0  0  0
   36.6760   28.1610   42.3880 C   0  0  0  0  0  0  0  0  0  0  0  0
   37.2340   29.3040   41.9440 N   0  0  0  0  0  0  0  0  0  0  0  0
   38.4930   29.3580   42.1760 N   0  0  0  0  0  0  0  0  0  0  0  0
   37.6980   26.4490   43.4310 H   0  0  0  0  0  0  0  0  0  0  0  0
   35.6930   27.7610   42.3800 H   0  0  0  0  0  0  0  0  0  0  0  0
   41.7430   26.4450   44.3300 C   0  0  0  0  0  0  0  0  0  0  0  0
   40.4280   26.6800   43.9020 C   0  0  0  0  0  0  0  0  0  0  0  0
   40.1830   27.8890   43.2500 C   0  0  0  0  0  0  0  0  0  0  0  0
   41.1870   28.7430   43.0680 N   0  0  0  0  0  0  0  0  0  0  0  0
   42.4630   28.5020   43.4910 C   0  0  0  0  0  0  0  0  0  0  0  0
   42.7140   27.3430   44.1200 N   0  0  0  0  0  0  0  0  0  0  0  0
   41.9470   25.5010   44.8430 H   0  0  0  0  0  0  0  0  0  0  0  0
   39.6370   25.9810   44.0570 H   0  0  0  0  0  0  0  0  0  0  0  0
   43.6170   29.3620   43.3440 C   0  0  0  0  0  0  0  0  0  0  0  0
   44.1860   29.5580   42.1430 N   0  0  0  0  0  0  0  0  0  0  0  0
   45.2490   30.3300   41.9010 C   0  0  0  0  0  3  0  0  0  0  0  0
   45.8570   31.0050   42.9210 N   0  0  0  0  0  0  0  0  0  0  0  0
   45.3580   30.8750   44.1850 C   0  0  0  0  0  0  0  0  0  0  0  0
   45.9560   31.5470   45.2270 C   0  0  0  0  0  3  0  0  0  0  0  0
   45.4720   31.4330   46.5110 C   0  0  0  0  0  0  0  0  0  0  0  0
   46.0240   32.0070   47.2420 H   0  0  0  0  0  0  0  0  0  0  0  0
   44.3550   30.6090   46.6940 C   0  0  0  0  0  0  0  0  0  0  0  0
   44.0170   30.5550   47.7130 H   0  0  0  0  0  0  0  0  0  0  0  0
   43.8120   29.9700   45.6060 C   0  0  0  0  0  3  0  0  0  0  0  0
   44.2720   30.0650   44.3250 C   0  0  0  0  0  0  0  0  0  0  0  0
   36.4020   30.2610   41.3110 C   0  0  0  0  0  0  0  0  0  0  0  0
   35.8260   30.7690   42.1390 H   0  0  0  0  0  0  0  0  0  0  0  0
   37.0160   31.0660   40.8530 H   0  0  0  0  0  0  0  0  0  0  0  0
   35.4750   29.7330   40.2630 C   0  0  0  0  0  0  0  0  0  0  0  0
   34.9740   28.8470   40.6300 H   0  0  0  0  0  0  0  0  0  0  0  0
   34.7940   30.6450   40.1620 H   0  0  0  0  0  0  0  0  0  0  0  0
   36.0650   29.6410   38.9110 C   0  0  0  0  0  0  0  0  0  0  0  0
   37.3590   29.8790   38.5460 C   0  0  0  0  0  0  0  0  0  0  0  0
   37.8480   29.8510   37.2680 C   0  0  0  0  0  0  0  0  0  0  0  0
   36.9980   29.5610   36.2250 C   0  0  0  0  0  0  0  0  0  0  0  0
   35.6660   29.3060   36.5290 C   0  0  0  0  0  0  0  0  0  0  0  0
   34.8730   29.0250   35.4410 C   0  0  0  0  0  0  0  0  0  0  0  0
   33.5480   28.7580   35.6380 C   0  0  0  0  0  0  0  0  0  0  0  0
   33.0350   28.7730   36.9150 C   0  0  0  0  0  0  0  0  0  0  0  0
   33.8850   29.0610   37.9490 C   0  0  0  0  0  0  0  0  0  0  0  0
   35.2120   29.3420   37.8300 C   0  0  0  0  0  0  0  0  0  0  0  0
   38.0410   30.1110   39.3580 H   0  0  0  0  0  0  0  0  0  0  0  0
   38.8870   30.0520   37.0670 H   0  0  0  0  0  0  0  0  0  0  0  0
   37.4030   29.5460   35.2360 H   0  0  0  0  0  0  0  0  0  0  0  0
   35.2550   29.0050   34.4260 H   0  0  0  0  0  0  0  0  0  0  0  0
   32.8850   28.5330   34.8120 H   0  0  0  0  0  0  0  0  0  0  0  0
   31.9930   28.5600   37.0590 H   0  0  0  0  0  0  0  0  0  0  0  0
   33.3030   29.0430   39.2150 O   0  0  0  0  0  0  0  0  0  0  0  0
   32.5260   29.6570   39.4510 H   0  0  0  0  0  0  0  0  0  0  0  0
  1  2  1  0  0  0  0
  1 10  1  0  0  0  0
  2  6  1  0  0  0  0
  3  2  2  0  0  0  0
  4  5  1  0  0  0  0
  4  3  1  0  0  0  0
  5  1  2  0  0  0  0
  7  3  1  0  0  0  0
  8 14  1  0  0  0  0
  9 15  1  0  0  0  0
  9  8  2  0  0  0  0
 10  9  1  0  0  0  0
 11 10  2  0  0  0  0
 11 12  1  0  0  0  0
 12 13  2  0  0  0  0
 13  8  1  0  0  0  0
 16 12  1  0  0  0  0
 16 27  1  0  0  0  0
 17 16  2  0  0  0  0
 18 17  1  0  0  0  0
 18 19  2  0  0  0  0
 19 20  1  0  0  0  0
 20 27  2  0  0  0  0
 20 21  1  0  0  0  0
 21 22  2  0  0  0  0
 22 24  1  0  0  0  0
 22 23  1  0  0  0  0
 24 25  1  0  0  0  0
 26 24  2  0  0  0  0
 27 26  1  0  0  0  0
 28  4  1  0  0  0  0
 28 29  1  0  0  0  0
 30 28  1  0  0  0  0
 31 32  1  0  0  0  0
 31 28  1  0  0  0  0
 33 31  1  0  0  0  0
 34 31  1  0  0  0  0
 35 34  1  0  0  0  0
 35 44  1  0  0  0  0
 36 35  2  0  0  0  0
 37 38  2  0  0  0  0
 37 36  1  0  0  0  0
 38 43  1  0  0  0  0
 39 40  2  0  0  0  0
 39 38  1  0  0  0  0
 40 41  1  0  0  0  0
 41 49  1  0  0  0  0
 41 42  2  0  0  0  0
 42 50  1  0  0  0  0
 43 42  1  0  0  0  0
 43 34  2  0  0  0  0
 45 36  1  0  0  0  0
 46 37  1  0  0  0  0
 47 39  1  0  0  0  0
 48 40  1  0  0  0  0
 50 51  1  0  0  0  0
M  END
>  <minimizedAffinity>
-6.66771173

>  <minimizedRMSD>
0.336153418

$$$$
