
 OpenBabel03242505353D

 39 42  0  0  1  0  0  0  0  0999 V2000
   39.1260   30.7360   41.8840 C   0  0  0  0  0  0  0  0  0  0  0  0
   38.7590   29.5770   42.5620 C   0  0  0  0  0  0  0  0  0  0  0  0
   37.4950   28.9880   42.5230 C   0  0  0  0  0  0  0  0  0  0  0  0
   36.6230   29.6580   41.7450 N   0  0  0  0  0  0  0  0  0  0  0  0
   36.9220   30.7640   41.0820 C   0  0  0  0  0  0  0  0  0  0  0  0
   38.1450   31.2730   41.1610 N   0  0  0  0  0  0  0  0  0  0  0  0
   39.5470   29.1380   43.1660 H   0  0  0  0  0  0  0  0  0  0  0  0
   36.1710   31.2510   40.4740 H   0  0  0  0  0  0  0  0  0  0  0  0
   40.3930   31.3890   41.8950 C   0  0  0  0  0  0  0  0  0  0  0  0
   41.3470   30.9750   42.8100 C   0  0  0  0  0  0  0  0  0  0  0  0
   42.5980   31.5390   42.9560 C   0  0  0  0  0  0  0  0  0  0  0  0
   42.9420   32.5940   42.1400 C   0  0  0  0  0  0  0  0  0  0  0  0
   42.0320   33.0580   41.1980 C   0  0  0  0  0  0  0  0  0  0  0  0
   42.3670   34.1040   40.3780 C   0  0  0  0  0  0  0  0  0  0  0  0
   41.4920   34.5920   39.4240 C   0  0  0  0  0  0  0  0  0  0  0  0
   40.2690   33.9560   39.3550 C   0  0  0  0  0  0  0  0  0  0  0  0
   39.9880   32.9190   40.1960 C   0  0  0  0  0  0  0  0  0  0  0  0
   40.8380   32.4350   41.1380 C   0  0  0  0  0  0  0  0  0  0  0  0
   41.2170   30.1570   43.5210 H   0  0  0  0  0  0  0  0  0  0  0  0
   43.3470   31.2240   43.6660 H   0  0  0  0  0  0  0  0  0  0  0  0
   43.9270   33.0620   42.2330 H   0  0  0  0  0  0  0  0  0  0  0  0
   43.3680   34.5430   40.5130 H   0  0  0  0  0  0  0  0  0  0  0  0
   41.8150   35.4240   38.8040 H   0  0  0  0  0  0  0  0  0  0  0  0
   39.6210   34.3790   38.5870 H   0  0  0  0  0  0  0  0  0  0  0  0
   38.9990   32.5560   39.9670 H   0  0  0  0  0  0  0  0  0  0  0  0
   37.2220   27.8010   43.3550 C   0  0  2  0  0  0  0  0  0  0  0  0
   36.3310   27.2930   42.8730 H   0  0  0  0  0  0  0  0  0  0  0  0
   36.7860   28.1720   44.7460 C   0  0  0  0  0  0  0  0  0  0  0  0
   35.7900   28.6350   44.6650 H   0  0  0  0  0  0  0  0  0  0  0  0
   37.5650   28.8600   45.1620 H   0  0  0  0  0  0  0  0  0  0  0  0
   36.7840   27.2420   45.3640 H   0  0  0  0  0  0  0  0  0  0  0  0
   38.3730   26.8590   43.3380 C   0  0  0  0  0  0  0  0  0  0  0  0
   39.3540   27.3690   43.5680 H   0  0  0  0  0  0  0  0  0  0  0  0
   38.2660   26.3350   44.3490 H   0  0  0  0  0  0  0  0  0  0  0  0
   38.4500   25.7670   42.3960 C   0  0  0  0  0  0  0  0  0  0  0  0
   36.9970   25.2340   42.1720 C   0  0  0  0  0  0  0  0  0  0  0  0
   37.2020   24.0040   41.3220 C   0  0  0  0  0  0  0  0  0  0  0  0
   38.6760   23.6790   41.2950 C   0  0  0  0  0  0  0  0  0  0  0  0
   39.2580   24.5550   42.4630 C   0  0  0  0  0  0  0  0  0  0  0  0
  1  9  1  0  0  0  0
  1  2  1  0  0  0  0
  2  7  1  0  0  0  0
  3  2  2  0  0  0  0
  3 26  1  0  0  0  0
  4  3  1  0  0  0  0
  5  6  1  0  0  0  0
  5  4  2  0  0  0  0
  6  1  2  0  0  0  0
  8  5  1  0  0  0  0
  9 10  1  0  0  0  0
 10 11  2  0  0  0  0
 10 19  1  0  0  0  0
 11 20  1  0  0  0  0
 12 21  1  0  0  0  0
 12 11  1  0  0  0  0
 13 12  2  0  0  0  0
 14 22  1  0  0  0  0
 14 13  1  0  0  0  0
 15 14  2  0  0  0  0
 16 15  1  0  0  0  0
 16 17  2  0  0  0  0
 17 18  1  0  0  0  0
 18 13  1  0  0  0  0
 18  9  2  0  0  0  0
 23 15  1  0  0  0  0
 24 16  1  0  0  0  0
 25 17  1  0  0  0  0
 26 27  1  6  0  0  0
 26 28  1  0  0  0  0
 28 30  1  0  0  0  0
 28 31  1  0  0  0  0
 29 28  1  0  0  0  0
 32 26  1  0  0  0  0
 32 33  1  0  0  0  0
 32 34  1  0  0  0  0
 35 39  1  0  0  0  0
 35 32  1  0  0  0  0
 36 35  1  0  0  0  0
 37 36  1  0  0  0  0
 38 37  1  0  0  0  0
 38 39  1  0  0  0  0
M  END
>  <minimizedAffinity>
-6.51200533

>  <minimizedRMSD>
0.969152451

$$$$
