
 OpenBabel03242509273D

 51 56  0  0  0  0  0  0  0  0999 V2000
   38.8450   28.2370   42.8050 C   0  0  0  0  0  0  0  0  0  0  0  0
   37.7130   27.4640   43.0140 C   0  0  0  0  0  0  0  0  0  0  0  0
   36.6570   28.1880   42.4470 C   0  0  0  0  0  0  0  0  0  0  0  0
   37.2170   29.3090   41.9530 N   0  0  0  0  0  0  0  0  0  0  0  0
   38.4820   29.3540   42.1520 N   0  0  0  0  0  0  0  0  0  0  0  0
   37.6850   26.4970   43.5190 H   0  0  0  0  0  0  0  0  0  0  0  0
   35.6690   27.8010   42.4770 H   0  0  0  0  0  0  0  0  0  0  0  0
   41.7380   26.5180   44.3930 C   0  0  0  0  0  0  0  0  0  0  0  0
   40.4140   26.7570   43.9980 C   0  0  0  0  0  0  0  0  0  0  0  0
   40.1820   27.8980   43.2290 C   0  0  0  0  0  0  0  0  0  0  0  0
   41.2050   28.6870   42.9120 N   0  0  0  0  0  0  0  0  0  0  0  0
   42.4900   28.4420   43.3040 C   0  0  0  0  0  0  0  0  0  0  0  0
   42.7300   27.3490   44.0450 N   0  0  0  0  0  0  0  0  0  0  0  0
   41.9330   25.6270   44.9970 H   0  0  0  0  0  0  0  0  0  0  0  0
   39.6070   26.1110   44.2610 H   0  0  0  0  0  0  0  0  0  0  0  0
   43.6650   29.2360   43.0150 C   0  0  0  0  0  0  0  0  0  0  0  0
   44.3080   29.1180   41.8420 N   0  0  0  0  0  0  0  0  0  0  0  0
   45.3980   29.8000   41.4790 C   0  0  0  0  0  3  0  0  0  0  0  0
   45.9540   30.7140   42.3290 N   0  0  0  0  0  0  0  0  0  0  0  0
   45.3770   30.9130   43.5500 C   0  0  0  0  0  0  0  0  0  0  0  0
   45.9220   31.8290   44.4220 C   0  0  0  0  0  3  0  0  0  0  0  0
   45.3590   32.0480   45.6590 C   0  0  0  0  0  0  0  0  0  0  0  0
   45.8760   32.7890   46.2520 H   0  0  0  0  0  0  0  0  0  0  0  0
   44.2200   31.2980   45.9760 C   0  0  0  0  0  0  0  0  0  0  0  0
   43.8190   31.5070   46.9520 H   0  0  0  0  0  0  0  0  0  0  0  0
   43.7310   30.4020   45.0560 C   0  0  0  0  0  3  0  0  0  0  0  0
   44.2710   30.1670   43.8240 C   0  0  0  0  0  0  0  0  0  0  0  0
   36.3810   30.2550   41.3100 C   0  0  0  0  0  0  0  0  0  0  0  0
   35.7980   30.7650   42.1330 H   0  0  0  0  0  0  0  0  0  0  0  0
   36.9900   31.0620   40.8510 H   0  0  0  0  0  0  0  0  0  0  0  0
   35.4620   29.7140   40.2620 C   0  0  0  0  0  0  0  0  0  0  0  0
   34.9700   28.8230   40.6290 H   0  0  0  0  0  0  0  0  0  0  0  0
   34.7710   30.6180   40.1570 H   0  0  0  0  0  0  0  0  0  0  0  0
   36.0560   29.6260   38.9110 C   0  0  0  0  0  0  0  0  0  0  0  0
   37.3540   29.8560   38.5520 C   0  0  0  0  0  0  0  0  0  0  0  0
   37.8470   29.8320   37.2760 C   0  0  0  0  0  0  0  0  0  0  0  0
   36.9980   29.5550   36.2280 C   0  0  0  0  0  0  0  0  0  0  0  0
   35.6630   29.3080   36.5260 C   0  0  0  0  0  0  0  0  0  0  0  0
   34.8710   29.0410   35.4330 C   0  0  0  0  0  0  0  0  0  0  0  0
   33.5440   28.7830   35.6240 C   0  0  0  0  0  0  0  0  0  0  0  0
   33.0270   28.7940   36.8990 C   0  0  0  0  0  0  0  0  0  0  0  0
   33.8750   29.0690   37.9380 C   0  0  0  0  0  0  0  0  0  0  0  0
   35.2050   29.3410   37.8260 C   0  0  0  0  0  0  0  0  0  0  0  0
   38.0340   30.0770   39.3680 H   0  0  0  0  0  0  0  0  0  0  0  0
   38.8880   30.0250   37.0800 H   0  0  0  0  0  0  0  0  0  0  0  0
   37.4070   29.5430   35.2400 H   0  0  0  0  0  0  0  0  0  0  0  0
   35.2570   29.0240   34.4200 H   0  0  0  0  0  0  0  0  0  0  0  0
   32.8820   28.5690   34.7940 H   0  0  0  0  0  0  0  0  0  0  0  0
   31.9820   28.5890   37.0380 H   0  0  0  0  0  0  0  0  0  0  0  0
   33.2890   29.0490   39.2020 O   0  0  0  0  0  0  0  0  0  0  0  0
   32.5160   29.6670   39.4390 H   0  0  0  0  0  0  0  0  0  0  0  0
  1  2  1  0  0  0  0
  1 10  1  0  0  0  0
  2  6  1  0  0  0  0
  3  7  1  0  0  0  0
  3  2  2  0  0  0  0
  4  5  1  0  0  0  0
  4  3  1  0  0  0  0
  5  1  2  0  0  0  0
  8 14  1  0  0  0  0
  9 15  1  0  0  0  0
  9  8  2  0  0  0  0
 10  9  1  0  0  0  0
 11 10  2  0  0  0  0
 11 12  1  0  0  0  0
 12 13  2  0  0  0  0
 13  8  1  0  0  0  0
 16 12  1  0  0  0  0
 16 27  1  0  0  0  0
 17 16  2  0  0  0  0
 18 17  1  0  0  0  0
 18 19  2  0  0  0  0
 19 20  1  0  0  0  0
 20 27  2  0  0  0  0
 20 21  1  0  0  0  0
 21 22  2  0  0  0  0
 22 24  1  0  0  0  0
 22 23  1  0  0  0  0
 24 25  1  0  0  0  0
 26 24  2  0  0  0  0
 27 26  1  0  0  0  0
 28  4  1  0  0  0  0
 28 29  1  0  0  0  0
 30 28  1  0  0  0  0
 31 32  1  0  0  0  0
 31 28  1  0  0  0  0
 33 31  1  0  0  0  0
 34 31  1  0  0  0  0
 35 34  1  0  0  0  0
 35 44  1  0  0  0  0
 36 35  2  0  0  0  0
 37 38  2  0  0  0  0
 37 36  1  0  0  0  0
 38 43  1  0  0  0  0
 39 40  2  0  0  0  0
 39 38  1  0  0  0  0
 40 41  1  0  0  0  0
 41 49  1  0  0  0  0
 41 42  2  0  0  0  0
 42 50  1  0  0  0  0
 43 42  1  0  0  0  0
 43 34  2  0  0  0  0
 45 36  1  0  0  0  0
 46 37  1  0  0  0  0
 47 39  1  0  0  0  0
 48 40  1  0  0  0  0
 50 51  1  0  0  0  0
M  END
>  <minimizedAffinity>
-6.59856653

>  <minimizedRMSD>
0.297026485

$$$$
