
 OpenBabel03242509283D

 51 56  0  0  0  0  0  0  0  0999 V2000
   38.5950   28.1200   42.6790 C   0  0  0  0  0  0  0  0  0  0  0  0
   37.4910   27.2890   42.7930 C   0  0  0  0  0  0  0  0  0  0  0  0
   36.4380   27.9820   42.1860 C   0  0  0  0  0  0  0  0  0  0  0  0
   36.9710   29.1440   41.7630 N   0  0  0  0  0  0  0  0  0  0  0  0
   38.2190   29.2400   42.0400 N   0  0  0  0  0  0  0  0  0  0  0  0
   37.4790   26.3050   43.2650 H   0  0  0  0  0  0  0  0  0  0  0  0
   35.4690   27.5480   42.1420 H   0  0  0  0  0  0  0  0  0  0  0  0
   41.4980   26.4150   44.2660 C   0  0  0  0  0  0  0  0  0  0  0  0
   40.1940   26.6050   43.7860 C   0  0  0  0  0  0  0  0  0  0  0  0
   39.9190   27.8280   43.1740 C   0  0  0  0  0  0  0  0  0  0  0  0
   40.8860   28.7370   43.0750 N   0  0  0  0  0  0  0  0  0  0  0  0
   42.1510   28.5400   43.5470 C   0  0  0  0  0  0  0  0  0  0  0  0
   42.4320   27.3680   44.1390 N   0  0  0  0  0  0  0  0  0  0  0  0
   41.7260   25.4610   44.7480 H   0  0  0  0  0  0  0  0  0  0  0  0
   39.4330   25.8630   43.8740 H   0  0  0  0  0  0  0  0  0  0  0  0
   43.2660   29.4610   43.4910 C   0  0  0  0  0  0  0  0  0  0  0  0
   43.5790   30.2350   44.5430 N   0  0  0  0  0  0  0  0  0  0  0  0
   44.5830   31.1130   44.5920 C   0  0  0  0  0  3  0  0  0  0  0  0
   45.4000   31.2870   43.5110 N   0  0  0  0  0  0  0  0  0  0  0  0
   45.1710   30.5470   42.3870 C   0  0  0  0  0  0  0  0  0  0  0  0
   45.9830   30.7070   41.2870 C   0  0  0  0  0  3  0  0  0  0  0  0
   45.7720   29.9730   40.1410 C   0  0  0  0  0  0  0  0  0  0  0  0
   46.4740   30.1860   39.3480 H   0  0  0  0  0  0  0  0  0  0  0  0
   44.7030   29.0700   40.1580 C   0  0  0  0  0  0  0  0  0  0  0  0
   44.5820   28.5220   39.2400 H   0  0  0  0  0  0  0  0  0  0  0  0
   43.9340   28.9650   41.2920 C   0  0  0  0  0  3  0  0  0  0  0  0
   44.1220   29.6810   42.4390 C   0  0  0  0  0  0  0  0  0  0  0  0
   36.1310   30.0720   41.1000 C   0  0  0  0  0  0  0  0  0  0  0  0
   35.5220   30.5740   41.9080 H   0  0  0  0  0  0  0  0  0  0  0  0
   36.7340   30.8880   40.6490 H   0  0  0  0  0  0  0  0  0  0  0  0
   35.2430   29.5100   40.0360 C   0  0  0  0  0  0  0  0  0  0  0  0
   34.7590   28.6130   40.3980 H   0  0  0  0  0  0  0  0  0  0  0  0
   34.5380   30.4020   39.9120 H   0  0  0  0  0  0  0  0  0  0  0  0
   35.8660   29.4260   38.6970 C   0  0  0  0  0  0  0  0  0  0  0  0
   37.1880   29.5600   38.3810 C   0  0  0  0  0  0  0  0  0  0  0  0
   37.7130   29.5450   37.1180 C   0  0  0  0  0  0  0  0  0  0  0  0
   36.8750   29.3820   36.0380 C   0  0  0  0  0  0  0  0  0  0  0  0
   35.5160   29.2370   36.2920 C   0  0  0  0  0  0  0  0  0  0  0  0
   34.7360   29.0800   35.1700 C   0  0  0  0  0  0  0  0  0  0  0  0
   33.3870   28.9280   35.3170 C   0  0  0  0  0  0  0  0  0  0  0  0
   32.8370   28.9320   36.5770 C   0  0  0  0  0  0  0  0  0  0  0  0
   33.6750   29.0930   37.6470 C   0  0  0  0  0  0  0  0  0  0  0  0
   35.0250   29.2560   37.5800 C   0  0  0  0  0  0  0  0  0  0  0  0
   37.8610   29.6900   39.2230 H   0  0  0  0  0  0  0  0  0  0  0  0
   38.7730   29.6570   36.9560 H   0  0  0  0  0  0  0  0  0  0  0  0
   37.3090   29.3740   35.0620 H   0  0  0  0  0  0  0  0  0  0  0  0
   35.1480   29.0710   34.1670 H   0  0  0  0  0  0  0  0  0  0  0  0
   32.7340   28.8030   34.4610 H   0  0  0  0  0  0  0  0  0  0  0  0
   31.7750   28.8110   36.6810 H   0  0  0  0  0  0  0  0  0  0  0  0
   33.0530   29.0720   38.8940 O   0  0  0  0  0  0  0  0  0  0  0  0
   32.3280   29.7440   39.1370 H   0  0  0  0  0  0  0  0  0  0  0  0
  1  2  1  0  0  0  0
  1 10  1  0  0  0  0
  2  6  1  0  0  0  0
  3  2  2  0  0  0  0
  4  5  1  0  0  0  0
  4  3  1  0  0  0  0
  5  1  2  0  0  0  0
  7  3  1  0  0  0  0
  8 14  1  0  0  0  0
  9 15  1  0  0  0  0
  9  8  2  0  0  0  0
 10  9  1  0  0  0  0
 11 10  2  0  0  0  0
 11 12  1  0  0  0  0
 12 13  2  0  0  0  0
 13  8  1  0  0  0  0
 16 12  1  0  0  0  0
 16 17  1  0  0  0  0
 17 18  2  0  0  0  0
 19 18  1  0  0  0  0
 20 27  1  0  0  0  0
 20 19  2  0  0  0  0
 21 20  1  0  0  0  0
 22 24  1  0  0  0  0
 22 21  2  0  0  0  0
 23 22  1  0  0  0  0
 24 26  2  0  0  0  0
 25 24  1  0  0  0  0
 26 27  1  0  0  0  0
 27 16  2  0  0  0  0
 28  4  1  0  0  0  0
 28 29  1  0  0  0  0
 30 28  1  0  0  0  0
 31 32  1  0  0  0  0
 31 28  1  0  0  0  0
 33 31  1  0  0  0  0
 34 31  1  0  0  0  0
 35 34  1  0  0  0  0
 35 44  1  0  0  0  0
 36 35  2  0  0  0  0
 37 38  2  0  0  0  0
 37 36  1  0  0  0  0
 38 43  1  0  0  0  0
 39 40  2  0  0  0  0
 39 38  1  0  0  0  0
 40 41  1  0  0  0  0
 41 49  1  0  0  0  0
 41 42  2  0  0  0  0
 42 50  1  0  0  0  0
 43 42  1  0  0  0  0
 43 34  2  0  0  0  0
 45 36  1  0  0  0  0
 46 37  1  0  0  0  0
 47 39  1  0  0  0  0
 48 40  1  0  0  0  0
 50 51  1  0  0  0  0
M  END
>  <minimizedAffinity>
-6.13015461

>  <minimizedRMSD>
0.613629282

$$$$
