
 OpenBabel03242509273D

 51 56  0  0  0  0  0  0  0  0999 V2000
   38.5930   28.1210   42.6800 C   0  0  0  0  0  0  0  0  0  0  0  0
   37.4880   27.2920   42.7990 C   0  0  0  0  0  0  0  0  0  0  0  0
   36.4350   27.9840   42.1900 C   0  0  0  0  0  0  0  0  0  0  0  0
   36.9700   29.1440   41.7630 N   0  0  0  0  0  0  0  0  0  0  0  0
   38.2180   29.2400   42.0380 N   0  0  0  0  0  0  0  0  0  0  0  0
   37.4760   26.3090   43.2740 H   0  0  0  0  0  0  0  0  0  0  0  0
   35.4660   27.5520   42.1500 H   0  0  0  0  0  0  0  0  0  0  0  0
   41.4970   26.4160   44.2650 C   0  0  0  0  0  0  0  0  0  0  0  0
   40.1930   26.6060   43.7860 C   0  0  0  0  0  0  0  0  0  0  0  0
   39.9170   27.8290   43.1740 C   0  0  0  0  0  0  0  0  0  0  0  0
   40.8850   28.7380   43.0750 N   0  0  0  0  0  0  0  0  0  0  0  0
   42.1510   28.5400   43.5460 C   0  0  0  0  0  0  0  0  0  0  0  0
   42.4310   27.3680   44.1370 N   0  0  0  0  0  0  0  0  0  0  0  0
   41.7250   25.4620   44.7470 H   0  0  0  0  0  0  0  0  0  0  0  0
   39.4310   25.8640   43.8750 H   0  0  0  0  0  0  0  0  0  0  0  0
   43.2650   29.4610   43.4890 C   0  0  0  0  0  0  0  0  0  0  0  0
   43.5780   30.2350   44.5390 N   0  0  0  0  0  0  0  0  0  0  0  0
   44.5830   31.1140   44.5880 C   0  0  0  0  0  3  0  0  0  0  0  0
   45.4000   31.2870   43.5070 N   0  0  0  0  0  0  0  0  0  0  0  0
   45.1690   30.5470   42.3840 C   0  0  0  0  0  0  0  0  0  0  0  0
   45.9820   30.7060   41.2840 C   0  0  0  0  0  3  0  0  0  0  0  0
   45.7700   29.9720   40.1370 C   0  0  0  0  0  0  0  0  0  0  0  0
   46.4720   30.1840   39.3430 H   0  0  0  0  0  0  0  0  0  0  0  0
   44.7000   29.0680   40.1540 C   0  0  0  0  0  0  0  0  0  0  0  0
   44.5790   28.5210   39.2380 H   0  0  0  0  0  0  0  0  0  0  0  0
   43.9320   28.9640   41.2900 C   0  0  0  0  0  3  0  0  0  0  0  0
   44.1210   29.6800   42.4360 C   0  0  0  0  0  0  0  0  0  0  0  0
   36.1300   30.0710   41.0980 C   0  0  0  0  0  0  0  0  0  0  0  0
   35.5210   30.5740   41.9050 H   0  0  0  0  0  0  0  0  0  0  0  0
   36.7330   30.8870   40.6450 H   0  0  0  0  0  0  0  0  0  0  0  0
   35.2420   29.5070   40.0340 C   0  0  0  0  0  0  0  0  0  0  0  0
   34.7610   28.6090   40.3960 H   0  0  0  0  0  0  0  0  0  0  0  0
   34.5370   30.3980   39.9100 H   0  0  0  0  0  0  0  0  0  0  0  0
   35.8660   29.4240   38.6960 C   0  0  0  0  0  0  0  0  0  0  0  0
   37.1880   29.5570   38.3790 C   0  0  0  0  0  0  0  0  0  0  0  0
   37.7120   29.5430   37.1150 C   0  0  0  0  0  0  0  0  0  0  0  0
   36.8730   29.3810   36.0360 C   0  0  0  0  0  0  0  0  0  0  0  0
   35.5150   29.2370   36.2900 C   0  0  0  0  0  0  0  0  0  0  0  0
   34.7350   29.0820   35.1680 C   0  0  0  0  0  0  0  0  0  0  0  0
   33.3850   28.9300   35.3150 C   0  0  0  0  0  0  0  0  0  0  0  0
   32.8350   28.9340   36.5750 C   0  0  0  0  0  0  0  0  0  0  0  0
   33.6730   29.0940   37.6450 C   0  0  0  0  0  0  0  0  0  0  0  0
   35.0240   29.2560   37.5780 C   0  0  0  0  0  0  0  0  0  0  0  0
   37.8600   29.6860   39.2210 H   0  0  0  0  0  0  0  0  0  0  0  0
   38.7720   29.6540   36.9540 H   0  0  0  0  0  0  0  0  0  0  0  0
   37.3080   29.3740   35.0590 H   0  0  0  0  0  0  0  0  0  0  0  0
   35.1470   29.0730   34.1650 H   0  0  0  0  0  0  0  0  0  0  0  0
   32.7320   28.8060   34.4600 H   0  0  0  0  0  0  0  0  0  0  0  0
   31.7730   28.8130   36.6800 H   0  0  0  0  0  0  0  0  0  0  0  0
   33.0520   29.0720   38.8920 O   0  0  0  0  0  0  0  0  0  0  0  0
   32.3270   29.7440   39.1360 H   0  0  0  0  0  0  0  0  0  0  0  0
  1  2  1  0  0  0  0
  1 10  1  0  0  0  0
  2  6  1  0  0  0  0
  3  2  2  0  0  0  0
  4  5  1  0  0  0  0
  4  3  1  0  0  0  0
  5  1  2  0  0  0  0
  7  3  1  0  0  0  0
  8 14  1  0  0  0  0
  9 15  1  0  0  0  0
  9  8  2  0  0  0  0
 10  9  1  0  0  0  0
 11 10  2  0  0  0  0
 11 12  1  0  0  0  0
 12 13  2  0  0  0  0
 13  8  1  0  0  0  0
 16 12  1  0  0  0  0
 16 17  1  0  0  0  0
 17 18  2  0  0  0  0
 19 18  1  0  0  0  0
 20 27  1  0  0  0  0
 20 19  2  0  0  0  0
 21 20  1  0  0  0  0
 22 24  1  0  0  0  0
 22 21  2  0  0  0  0
 23 22  1  0  0  0  0
 24 26  2  0  0  0  0
 25 24  1  0  0  0  0
 26 27  1  0  0  0  0
 27 16  2  0  0  0  0
 28  4  1  0  0  0  0
 28 29  1  0  0  0  0
 30 28  1  0  0  0  0
 31 32  1  0  0  0  0
 31 28  1  0  0  0  0
 33 31  1  0  0  0  0
 34 31  1  0  0  0  0
 35 34  1  0  0  0  0
 35 44  1  0  0  0  0
 36 35  2  0  0  0  0
 37 38  2  0  0  0  0
 37 36  1  0  0  0  0
 38 43  1  0  0  0  0
 39 40  2  0  0  0  0
 39 38  1  0  0  0  0
 40 41  1  0  0  0  0
 41 49  1  0  0  0  0
 41 42  2  0  0  0  0
 42 50  1  0  0  0  0
 43 42  1  0  0  0  0
 43 34  2  0  0  0  0
 45 36  1  0  0  0  0
 46 37  1  0  0  0  0
 47 39  1  0  0  0  0
 48 40  1  0  0  0  0
 50 51  1  0  0  0  0
M  END
>  <minimizedAffinity>
-6.13335705

>  <minimizedRMSD>
0.814481676

$$$$
