
 OpenBabel03242505583D

 44 48  0  0  0  0  0  0  0  0999 V2000
   41.0760   29.6200   41.6940 C   0  0  0  0  0  0  0  0  0  0  0  0
   39.7100   29.5700   41.7200 C   0  0  0  0  0  0  0  0  0  0  0  0
   39.0700   30.2290   40.6620 C   0  0  0  0  0  0  0  0  0  0  0  0
   39.8100   30.8410   39.7300 N   0  0  0  0  0  0  0  0  0  0  0  0
   41.1170   30.8680   39.7380 C   0  0  0  0  0  0  0  0  0  0  0  0
   41.8010   30.2390   40.7500 N   0  0  0  0  0  0  0  0  0  0  0  0
   41.7320   31.5700   38.6660 N   0  0  0  0  0  0  0  0  0  0  0  0
   42.6300   31.3000   37.7610 N   0  0  0  0  0  0  0  0  0  0  0  0
   42.8350   32.3670   36.9790 C   0  0  0  0  0  0  0  0  0  0  0  0
   42.0180   33.3660   37.4180 C   0  0  0  0  0  0  0  0  0  0  0  0
   41.3170   32.8470   38.4960 C   0  0  0  0  0  0  0  0  0  0  0  0
   41.7800   29.2010   42.3960 H   0  0  0  0  0  0  0  0  0  0  0  0
   37.9850   30.1980   40.6680 H   0  0  0  0  0  0  0  0  0  0  0  0
   43.5170   32.4570   36.1410 H   0  0  0  0  0  0  0  0  0  0  0  0
   41.9590   34.3560   36.9830 H   0  0  0  0  0  0  0  0  0  0  0  0
   39.0340   28.8550   42.8210 C   0  0  0  0  0  0  0  0  0  0  0  0
   37.9870   29.2170   42.9080 H   0  0  0  0  0  0  0  0  0  0  0  0
   39.5000   29.3270   43.7520 H   0  0  0  0  0  0  0  0  0  0  0  0
   39.2700   27.4480   42.9520 C   0  0  0  0  0  0  0  0  0  0  0  0
   40.3290   27.0230   43.7820 C   0  0  0  0  0  0  0  0  0  0  0  0
   40.6220   25.7030   43.9730 C   0  0  0  0  0  0  0  0  0  0  0  0
   39.8270   24.7580   43.3080 C   0  0  0  0  0  0  0  0  0  0  0  0
   38.8060   25.1610   42.5090 C   0  0  0  0  0  0  0  0  0  0  0  0
   38.0070   24.2110   41.8510 C   0  0  0  0  0  0  0  0  0  0  0  0
   36.9820   24.6070   41.0560 C   0  0  0  0  0  0  0  0  0  0  0  0
   36.6780   25.9560   40.8560 C   0  0  0  0  0  0  0  0  0  0  0  0
   37.4950   26.8890   41.5280 C   0  0  0  0  0  0  0  0  0  0  0  0
   38.5140   26.4990   42.3180 C   0  0  0  0  0  0  0  0  0  0  0  0
   41.0040   27.6330   44.3540 H   0  0  0  0  0  0  0  0  0  0  0  0
   41.3980   25.2810   44.5780 H   0  0  0  0  0  0  0  0  0  0  0  0
   39.9890   23.6900   43.4020 H   0  0  0  0  0  0  0  0  0  0  0  0
   38.1730   23.1470   41.9500 H   0  0  0  0  0  0  0  0  0  0  0  0
   36.3460   23.8940   40.5350 H   0  0  0  0  0  0  0  0  0  0  0  0
   35.8720   26.2490   40.2310 H   0  0  0  0  0  0  0  0  0  0  0  0
   37.2060   27.9110   41.3260 H   0  0  0  0  0  0  0  0  0  0  0  0
   40.3890   33.6450   39.1680 O   0  0  0  0  0  0  0  0  0  0  0  0
   40.6780   34.7510   39.9160 C   0  0  0  0  0  0  0  0  0  0  0  0
   41.7850   34.5330   40.7460 C   0  0  0  0  0  0  0  0  0  0  0  0
   42.2500   35.5380   41.5960 C   0  0  0  0  0  0  0  0  0  0  0  0
   43.0930   35.4220   42.2510 H   0  0  0  0  0  0  0  0  0  0  0  0
   41.5760   36.7590   41.5890 C   0  0  0  0  0  0  0  0  0  0  0  0
   40.4850   36.9760   40.7720 C   0  0  0  0  0  0  0  0  0  0  0  0
   39.9520   37.9280   40.7600 H   0  0  0  0  0  0  0  0  0  0  0  0
   40.0360   35.9740   39.9360 C   0  0  0  0  0  0  0  0  0  0  0  0
  1  2  1  0  0  0  0
  1 12  1  0  0  0  0
  2 16  1  0  0  0  0
  3 13  1  0  0  0  0
  3  2  2  0  0  0  0
  4  5  2  0  0  0  0
  4  3  1  0  0  0  0
  5  6  1  0  0  0  0
  6  1  2  0  0  0  0
  7  5  1  0  0  0  0
  8  7  1  0  0  0  0
  9 10  1  0  0  0  0
  9  8  2  0  0  0  0
 10 11  2  0  0  0  0
 11  7  1  0  0  0  0
 11 36  1  0  0  0  0
 14  9  1  0  0  0  0
 15 10  1  0  0  0  0
 16 17  1  0  0  0  0
 16 19  1  0  0  0  0
 16 18  1  0  0  0  0
 19 20  1  0  0  0  0
 20 21  2  0  0  0  0
 20 29  1  0  0  0  0
 21 30  1  0  0  0  0
 22 31  1  0  0  0  0
 22 21  1  0  0  0  0
 23 22  2  0  0  0  0
 24 32  1  0  0  0  0
 24 23  1  0  0  0  0
 25 24  2  0  0  0  0
 26 25  1  0  0  0  0
 26 27  2  0  0  0  0
 27 28  1  0  0  0  0
 28 23  1  0  0  0  0
 28 19  2  0  0  0  0
 33 25  1  0  0  0  0
 34 26  1  0  0  0  0
 35 27  1  0  0  0  0
 36 37  1  0  0  0  0
 37 44  2  0  0  0  0
 37 38  1  0  0  0  0
 38 39  2  0  0  0  0
 39 40  1  0  0  0  0
 41 39  1  0  0  0  0
 42 41  2  0  0  0  0
 43 42  1  0  0  0  0
 44 42  1  0  0  0  0
M  END
>  <minimizedAffinity>
-6.89436007

>  <minimizedRMSD>
3.03166127

$$$$
