
 OpenBabel03242506573D

 46 51  0  0  0  0  0  0  0  0999 V2000
   39.5780   32.2590   40.9810 C   0  0  0  0  0  0  0  0  0  0  0  0
   40.6720   31.7380   41.7180 C   0  0  0  0  0  0  0  0  0  0  0  0
   40.7020   30.4590   42.2500 C   0  0  0  0  0  0  0  0  0  0  0  0
   39.6020   29.6360   42.0550 C   0  0  0  0  0  0  0  0  0  0  0  0
   38.5290   30.0950   41.3520 C   0  0  0  0  0  0  0  0  0  0  0  0
   37.4820   29.2500   41.1860 C   0  0  0  0  0  0  0  0  0  0  0  0
   36.3360   29.6670   40.4600 C   0  0  0  0  0  0  0  0  0  0  0  0
   36.3760   30.9790   39.9460 C   0  0  0  0  0  0  0  0  0  0  0  0
   37.4760   31.7620   40.1630 C   0  0  0  0  0  0  0  0  0  0  0  0
   38.5750   31.3560   40.8640 C   0  0  0  0  0  0  0  0  0  0  0  0
   41.5680   32.3460   41.9030 H   0  0  0  0  0  0  0  0  0  0  0  0
   41.5520   30.1190   42.7970 H   0  0  0  0  0  0  0  0  0  0  0  0
   39.5830   28.6100   42.4610 H   0  0  0  0  0  0  0  0  0  0  0  0
   35.4630   29.1070   40.2620 H   0  0  0  0  0  0  0  0  0  0  0  0
   35.5320   31.3710   39.3750 H   0  0  0  0  0  0  0  0  0  0  0  0
   37.4560   32.7810   39.7390 H   0  0  0  0  0  0  0  0  0  0  0  0
   39.7340   33.5960   40.5320 C   0  0  0  0  0  0  0  0  0  0  0  0
   38.8630   34.6970   40.6420 C   0  0  0  0  0  0  0  0  0  0  0  0
   39.1790   35.9650   40.1640 C   0  0  0  0  0  0  0  0  0  0  0  0
   40.3980   36.0770   39.5740 N   0  0  0  0  0  0  0  0  0  0  0  0
   41.2310   35.0630   39.4580 C   0  0  0  0  0  0  0  0  0  0  0  0
   40.9100   33.8520   39.9230 N   0  0  0  0  0  0  0  0  0  0  0  0
   37.9280   34.4300   41.1420 H   0  0  0  0  0  0  0  0  0  0  0  0
   38.4320   36.7360   40.3050 H   0  0  0  0  0  0  0  0  0  0  0  0
   42.1920   35.2700   38.9620 H   0  0  0  0  0  0  0  0  0  0  0  0
   37.2930   27.9030   41.6610 C   0  0  0  0  0  0  0  0  0  0  0  0
   36.7820   27.4500   42.8310 C   0  0  0  0  0  0  0  0  0  0  0  0
   36.6040   26.1410   43.1870 C   0  0  0  0  0  0  0  0  0  0  0  0
   36.9610   25.1450   42.3100 C   0  0  0  0  0  0  0  0  0  0  0  0
   37.4910   25.5840   41.1010 C   0  0  0  0  0  0  0  0  0  0  0  0
   37.6100   26.8840   40.8820 N   0  0  0  0  0  0  0  0  0  0  0  0
   36.4870   28.2220   43.5510 H   0  0  0  0  0  0  0  0  0  0  0  0
   36.1770   25.8950   44.1670 H   0  0  0  0  0  0  0  0  0  0  0  0
   36.8220   24.1140   42.5870 H   0  0  0  0  0  0  0  0  0  0  0  0
   37.8480   24.4570   40.2260 C   0  0  0  0  0  0  0  0  0  0  0  0
   39.1110   24.1700   39.8930 N   0  0  0  0  0  0  0  0  0  0  0  0
   39.4560   23.1540   39.1000 C   0  0  0  0  0  0  0  0  0  0  0  0
   38.5540   22.3180   38.5620 N   0  0  0  0  0  0  0  0  0  0  0  0
   37.2560   22.5390   38.8490 C   0  0  0  0  0  0  0  0  0  0  0  0
   36.3150   21.6930   38.3060 C   0  0  0  0  0  0  0  0  0  0  0  0
   34.9730   21.8640   38.5590 C   0  0  0  0  0  0  0  0  0  0  0  0
   34.3220   21.1580   38.0930 H   0  0  0  0  0  0  0  0  0  0  0  0
   34.6170   22.9330   39.3920 C   0  0  0  0  0  0  0  0  0  0  0  0
   33.5580   23.0460   39.5760 H   0  0  0  0  0  0  0  0  0  0  0  0
   35.6120   23.7370   39.8980 C   0  0  0  0  0  0  0  0  0  0  0  0
   36.9420   23.5990   39.6700 C   0  0  0  0  0  0  0  0  0  0  0  0
  1  2  1  0  0  0  0
  2 11  1  0  0  0  0
  2  3  2  0  0  0  0
  3 12  1  0  0  0  0
  4  3  1  0  0  0  0
  4 13  1  0  0  0  0
  5  4  2  0  0  0  0
  6  5  1  0  0  0  0
  6 26  1  0  0  0  0
  7  6  2  0  0  0  0
  8  9  2  0  0  0  0
  8  7  1  0  0  0  0
  9 10  1  0  0  0  0
 10  1  2  0  0  0  0
 10  5  1  0  0  0  0
 14  7  1  0  0  0  0
 15  8  1  0  0  0  0
 16  9  1  0  0  0  0
 17 18  1  0  0  0  0
 17  1  1  0  0  0  0
 18 23  1  0  0  0  0
 19 24  1  0  0  0  0
 19 18  2  0  0  0  0
 20 19  1  0  0  0  0
 21 20  2  0  0  0  0
 21 22  1  0  0  0  0
 22 17  2  0  0  0  0
 25 21  1  0  0  0  0
 26 27  1  0  0  0  0
 27 28  2  0  0  0  0
 27 32  1  0  0  0  0
 28 33  1  0  0  0  0
 29 34  1  0  0  0  0
 29 28  1  0  0  0  0
 30 29  2  0  0  0  0
 31 30  1  0  0  0  0
 31 26  2  0  0  0  0
 35 30  1  0  0  0  0
 36 35  1  0  0  0  0
 37 36  2  0  0  0  0
 38 39  2  0  0  0  0
 38 37  1  0  0  0  0
 39 46  1  0  0  0  0
 40 41  2  0  0  0  0
 40 39  1  0  0  0  0
 41 43  1  0  0  0  0
 42 41  1  0  0  0  0
 43 44  1  0  0  0  0
 43 45  2  0  0  0  0
 46 45  1  0  0  0  0
 46 35  2  0  0  0  0
M  END
>  <minimizedAffinity>
-7.40596771

>  <minimizedRMSD>
1.74435306

$$$$
