
 OpenBabel03242505313D

 30 32  0  0  0  0  0  0  0  0999 V2000
   38.5590   31.4830   41.0960 C   0  0  0  0  0  0  0  0  0  0  0  0
   38.7060   30.2940   41.8160 C   0  0  0  0  0  0  0  0  0  0  0  0
   37.6710   29.4010   42.0940 C   0  0  0  0  0  0  0  0  0  0  0  0
   36.4710   29.7850   41.5950 N   0  0  0  0  0  0  0  0  0  0  0  0
   36.3020   30.9230   40.9000 C   0  0  0  0  0  0  0  0  0  0  0  0
   37.3210   31.7420   40.6610 N   0  0  0  0  0  0  0  0  0  0  0  0
   39.6550   29.9660   42.2240 H   0  0  0  0  0  0  0  0  0  0  0  0
   35.3500   31.2380   40.4990 H   0  0  0  0  0  0  0  0  0  0  0  0
   39.8400   32.1980   40.9800 C   0  0  0  0  0  0  0  0  0  0  0  0
   41.0450   31.6390   41.1870 N   0  0  0  0  0  0  0  0  0  0  0  0
   42.1890   32.2940   41.0790 C   0  0  0  0  0  0  0  0  0  0  0  0
   42.2670   33.5930   40.7510 N   0  0  0  0  0  0  0  0  0  0  0  0
   41.1030   34.2240   40.5280 C   0  0  0  0  0  0  0  0  0  0  0  0
   41.1740   35.5580   40.1910 C   0  0  0  0  0  0  0  0  0  0  0  0
   40.0210   36.2750   39.9460 C   0  0  0  0  0  0  0  0  0  0  0  0
   40.0540   37.3220   39.6800 H   0  0  0  0  0  0  0  0  0  0  0  0
   38.8020   35.5950   40.0550 C   0  0  0  0  0  0  0  0  0  0  0  0
   37.9280   36.1900   39.8570 H   0  0  0  0  0  0  0  0  0  0  0  0
   38.8110   34.2640   40.3970 C   0  0  0  0  0  0  0  0  0  0  0  0
   39.9230   33.5280   40.6430 C   0  0  0  0  0  0  0  0  0  0  0  0
   37.9100   28.1640   42.8540 C   0  0  0  0  0  0  0  0  0  0  0  0
   37.6390   27.3020   42.2000 H   0  0  0  0  0  0  0  0  0  0  0  0
   37.1310   28.1010   44.1400 C   0  0  0  0  0  0  0  0  0  0  0  0
   36.2430   28.7810   44.0030 H   0  0  0  0  0  0  0  0  0  0  0  0
   36.7870   27.0830   44.3580 H   0  0  0  0  0  0  0  0  0  0  0  0
   37.7220   28.5760   44.9480 H   0  0  0  0  0  0  0  0  0  0  0  0
   39.4300   28.1100   43.1500 C   0  0  0  0  0  0  0  0  0  0  0  0
   39.8710   27.6530   42.2280 H   0  0  0  0  0  0  0  0  0  0  0  0
   39.8360   29.1530   43.1740 H   0  0  0  0  0  0  0  0  0  0  0  0
   39.6360   27.5410   44.0560 H   0  0  0  0  0  0  0  0  0  0  0  0
  1  2  1  0  0  0  0
  2  3  2  0  0  0  0
  2  7  1  0  0  0  0
  3 21  1  0  0  0  0
  4  3  1  0  0  0  0
  5  4  2  0  0  0  0
  6  5  1  0  0  0  0
  6  1  2  0  0  0  0
  8  5  1  0  0  0  0
  9  1  1  0  0  0  0
  9 10  1  0  0  0  0
 11 10  2  0  0  0  0
 12 11  1  0  0  0  0
 13 20  1  0  0  0  0
 13 12  2  0  0  0  0
 14 13  1  0  0  0  0
 15 17  1  0  0  0  0
 15 14  2  0  0  0  0
 16 15  1  0  0  0  0
 17 19  2  0  0  0  0
 18 17  1  0  0  0  0
 19 20  1  0  0  0  0
 20  9  2  0  0  0  0
 21 27  1  0  0  0  0
 21 23  1  0  0  0  0
 22 21  1  0  0  0  0
 23 25  1  0  0  0  0
 23 26  1  0  0  0  0
 24 23  1  0  0  0  0
 27 29  1  0  0  0  0
 27 30  1  0  0  0  0
 28 27  1  0  0  0  0
M  END
>  <minimizedAffinity>
-6.01378536

>  <minimizedRMSD>
3.34319234

$$$$
