
 OpenBabel03242509033D

 41 45  0  0  1  0  0  0  0  0999 V2000
   38.3010   29.7650   40.2460 N   0  0  1  0  0  0  0  0  0  0  0  0
   36.9870   29.4730   39.6580 C   0  0  0  0  0  0  0  0  0  0  0  0
   37.1000   28.6050   38.4430 C   0  0  0  0  0  0  0  0  0  0  0  0
   38.1390   29.0150   37.6200 O   0  0  0  0  0  0  0  0  0  0  0  0
   38.3780   30.3540   37.8740 C   0  0  0  0  0  0  0  0  0  0  0  0
   38.9970   30.5740   39.2690 C   0  0  1  0  0  0  0  0  0  0  0  0
   36.3900   30.3830   39.5040 H   0  0  0  0  0  0  0  0  0  0  0  0
   36.4450   28.8800   40.4510 H   0  0  0  0  0  0  0  0  0  0  0  0
   36.1720   28.6930   37.8460 H   0  0  0  0  0  0  0  0  0  0  0  0
   37.2390   27.5420   38.7660 H   0  0  0  0  0  0  0  0  0  0  0  0
   39.0260   30.7250   37.0850 H   0  0  0  0  0  0  0  0  0  0  0  0
   37.4500   30.9720   37.8450 H   0  0  0  0  0  0  0  0  0  0  0  0
   40.0380   30.2190   39.3250 H   0  0  0  0  0  0  0  0  0  0  0  0
   38.8300   32.0270   39.5330 C   0  0  0  0  0  0  0  0  0  0  0  0
   37.5990   32.5950   39.3710 N   0  0  0  0  0  0  0  0  0  0  0  0
   37.3900   33.9050   39.5950 C   0  0  0  0  0  0  0  0  0  0  0  0
   38.3820   34.7530   39.9960 N   0  0  0  0  0  0  0  0  0  0  0  0
   39.6130   34.2270   40.1680 C   0  0  0  0  0  0  0  0  0  0  0  0
   40.6670   35.0320   40.5740 C   0  0  0  0  0  0  0  0  0  0  0  0
   41.9530   34.5160   40.7590 C   0  0  0  0  0  0  0  0  0  0  0  0
   42.7990   35.1090   41.0730 H   0  0  0  0  0  0  0  0  0  0  0  0
   42.1430   33.1600   40.5200 C   0  0  0  0  0  0  0  0  0  0  0  0
   43.1360   32.7400   40.6570 H   0  0  0  0  0  0  0  0  0  0  0  0
   41.0650   32.3950   40.1170 C   0  0  0  0  0  0  0  0  0  0  0  0
   39.8150   32.8840   39.9350 C   0  0  0  0  0  0  0  0  0  0  0  0
   37.9870   29.4220   42.7910 C   0  0  1  0  0  0  0  0  0  0  0  0
   39.1720   30.2920   42.6150 C   0  0  0  0  0  0  0  0  0  0  0  0
   38.1800   30.3000   41.5360 C   0  0  1  0  0  0  0  0  0  0  0  0
   37.1080   29.6330   43.4020 H   0  0  0  0  0  0  0  0  0  0  0  0
   39.3100   31.1780   43.2970 H   0  0  0  0  0  0  0  0  0  0  0  0
   40.1720   29.7860   42.4800 H   0  0  0  0  0  0  0  0  0  0  0  0
   37.5140   31.2150   41.5910 H   0  0  0  0  0  0  0  0  0  0  0  0
   39.7080   26.1710   42.6230 C   0  0  0  0  0  0  0  0  0  0  0  0
   38.6530   25.2700   42.3790 C   0  0  0  0  0  0  0  0  0  0  0  0
   37.3440   25.8130   42.2630 C   0  0  0  0  0  0  0  0  0  0  0  0
   37.1690   27.1860   42.3930 N   0  0  0  0  0  0  0  0  0  0  0  0
   38.2270   27.9660   42.6240 C   0  0  0  0  0  0  0  0  0  0  0  0
   39.4850   27.4880   42.7410 N   0  0  0  0  0  0  0  0  0  0  0  0
   40.7180   25.8130   42.7200 H   0  0  0  0  0  0  0  0  0  0  0  0
   38.8270   24.2240   42.2850 H   0  0  0  0  0  0  0  0  0  0  0  0
   36.5040   25.1700   42.0760 H   0  0  0  0  0  0  0  0  0  0  0  0
  1  2  1  6  0  0  0
  1 28  1  0  0  0  0
  2  8  1  0  0  0  0
  3 10  1  0  0  0  0
  3  2  1  0  0  0  0
  4  5  1  0  0  0  0
  4  3  1  0  0  0  0
  5  6  1  0  0  0  0
  6 13  1  6  0  0  0
  6 14  1  0  0  0  0
  6  1  1  0  0  0  0
  7  2  1  0  0  0  0
  9  3  1  0  0  0  0
 11  5  1  0  0  0  0
 12  5  1  0  0  0  0
 14 25  1  0  0  0  0
 15 14  2  0  0  0  0
 15 16  1  0  0  0  0
 16 17  2  0  0  0  0
 17 18  1  0  0  0  0
 18 19  1  0  0  0  0
 19 20  2  0  0  0  0
 20 21  1  0  0  0  0
 22 23  1  0  0  0  0
 22 20  1  0  0  0  0
 24 22  2  0  0  0  0
 25 24  1  0  0  0  0
 25 18  2  0  0  0  0
 26 29  1  1  0  0  0
 27 26  1  0  0  0  0
 27 30  1  0  0  0  0
 28 32  1  1  0  0  0
 28 27  1  0  0  0  0
 28 26  1  0  0  0  0
 31 27  1  0  0  0  0
 33 39  1  0  0  0  0
 33 38  1  0  0  0  0
 34 33  2  0  0  0  0
 35 34  1  0  0  0  0
 35 36  2  0  0  0  0
 36 37  1  0  0  0  0
 37 38  2  0  0  0  0
 37 26  1  0  0  0  0
 40 34  1  0  0  0  0
 41 35  1  0  0  0  0
M  END
>  <minimizedAffinity>
-5.78925514

>  <minimizedRMSD>
2.03155112

$$$$
