
 OpenBabel03242509273D

 51 56  0  0  0  0  0  0  0  0999 V2000
   38.4660   28.1800   42.5920 C   0  0  0  0  0  0  0  0  0  0  0  0
   37.4010   27.2990   42.7140 C   0  0  0  0  0  0  0  0  0  0  0  0
   36.3230   27.9270   42.0810 C   0  0  0  0  0  0  0  0  0  0  0  0
   36.8050   29.1040   41.6360 N   0  0  0  0  0  0  0  0  0  0  0  0
   38.0430   29.2660   41.9240 N   0  0  0  0  0  0  0  0  0  0  0  0
   37.4310   26.3270   43.2080 H   0  0  0  0  0  0  0  0  0  0  0  0
   35.3770   27.4470   42.0380 H   0  0  0  0  0  0  0  0  0  0  0  0
   41.4240   26.6620   44.2640 C   0  0  0  0  0  0  0  0  0  0  0  0
   40.1170   26.7780   43.7690 C   0  0  0  0  0  0  0  0  0  0  0  0
   39.7960   27.9630   43.1060 C   0  0  0  0  0  0  0  0  0  0  0  0
   40.7260   28.9060   42.9760 N   0  0  0  0  0  0  0  0  0  0  0  0
   41.9950   28.7800   43.4630 C   0  0  0  0  0  0  0  0  0  0  0  0
   42.3190   27.6470   44.1040 N   0  0  0  0  0  0  0  0  0  0  0  0
   41.6870   25.7390   44.7870 H   0  0  0  0  0  0  0  0  0  0  0  0
   39.3860   26.0100   43.8830 H   0  0  0  0  0  0  0  0  0  0  0  0
   43.0720   29.7430   43.3760 C   0  0  0  0  0  0  0  0  0  0  0  0
   43.6560   30.2300   44.4820 N   0  0  0  0  0  0  0  0  0  0  0  0
   44.6530   31.1190   44.5100 C   0  0  0  0  0  3  0  0  0  0  0  0
   45.1680   31.6130   43.3450 N   0  0  0  0  0  0  0  0  0  0  0  0
   44.6450   31.1830   42.1600 C   0  0  0  0  0  0  0  0  0  0  0  0
   45.1500   31.6690   40.9750 C   0  0  0  0  0  3  0  0  0  0  0  0
   44.6390   31.2510   39.7660 C   0  0  0  0  0  0  0  0  0  0  0  0
   45.1160   31.7020   38.9070 H   0  0  0  0  0  0  0  0  0  0  0  0
   43.5950   30.3190   39.8090 C   0  0  0  0  0  0  0  0  0  0  0  0
   43.2340   30.0260   38.8400 H   0  0  0  0  0  0  0  0  0  0  0  0
   43.1430   29.8780   41.0300 C   0  0  0  0  0  3  0  0  0  0  0  0
   43.6320   30.2780   42.2410 C   0  0  0  0  0  0  0  0  0  0  0  0
   35.9280   29.9750   40.9440 C   0  0  0  0  0  0  0  0  0  0  0  0
   35.2680   30.4430   41.7320 H   0  0  0  0  0  0  0  0  0  0  0  0
   36.4930   30.8250   40.5040 H   0  0  0  0  0  0  0  0  0  0  0  0
   35.1070   29.3550   39.8590 C   0  0  0  0  0  0  0  0  0  0  0  0
   34.6910   28.4180   40.2050 H   0  0  0  0  0  0  0  0  0  0  0  0
   34.3350   30.1880   39.7310 H   0  0  0  0  0  0  0  0  0  0  0  0
   35.7570   29.3340   38.5320 C   0  0  0  0  0  0  0  0  0  0  0  0
   37.0870   29.4680   38.2510 C   0  0  0  0  0  0  0  0  0  0  0  0
   37.6390   29.5140   36.9990 C   0  0  0  0  0  0  0  0  0  0  0  0
   36.8220   29.4200   35.8960 C   0  0  0  0  0  0  0  0  0  0  0  0
   35.4570   29.2790   36.1130 C   0  0  0  0  0  0  0  0  0  0  0  0
   34.6990   29.1930   34.9680 C   0  0  0  0  0  0  0  0  0  0  0  0
   33.3450   29.0500   35.0790 C   0  0  0  0  0  0  0  0  0  0  0  0
   32.7680   28.9940   36.3260 C   0  0  0  0  0  0  0  0  0  0  0  0
   33.5850   29.0870   37.4200 C   0  0  0  0  0  0  0  0  0  0  0  0
   34.9380   29.2360   37.3900 C   0  0  0  0  0  0  0  0  0  0  0  0
   37.7430   29.5450   39.1120 H   0  0  0  0  0  0  0  0  0  0  0  0
   38.7030   29.6220   36.8660 H   0  0  0  0  0  0  0  0  0  0  0  0
   37.2770   29.4590   34.9290 H   0  0  0  0  0  0  0  0  0  0  0  0
   35.1320   29.2320   33.9750 H   0  0  0  0  0  0  0  0  0  0  0  0
   32.7090   28.9800   34.2050 H   0  0  0  0  0  0  0  0  0  0  0  0
   31.7030   28.8800   36.4010 H   0  0  0  0  0  0  0  0  0  0  0  0
   32.9370   29.0070   38.6510 O   0  0  0  0  0  0  0  0  0  0  0  0
   32.2140   29.6730   38.9150 H   0  0  0  0  0  0  0  0  0  0  0  0
  1  2  1  0  0  0  0
  1 10  1  0  0  0  0
  2  6  1  0  0  0  0
  3  2  2  0  0  0  0
  4  5  1  0  0  0  0
  4  3  1  0  0  0  0
  5  1  2  0  0  0  0
  7  3  1  0  0  0  0
  8 14  1  0  0  0  0
  9 15  1  0  0  0  0
  9  8  2  0  0  0  0
 10  9  1  0  0  0  0
 11 10  2  0  0  0  0
 11 12  1  0  0  0  0
 12 13  2  0  0  0  0
 13  8  1  0  0  0  0
 16 12  1  0  0  0  0
 16 17  1  0  0  0  0
 17 18  2  0  0  0  0
 19 18  1  0  0  0  0
 20 27  1  0  0  0  0
 20 19  2  0  0  0  0
 21 20  1  0  0  0  0
 22 24  1  0  0  0  0
 22 21  2  0  0  0  0
 23 22  1  0  0  0  0
 24 26  2  0  0  0  0
 25 24  1  0  0  0  0
 26 27  1  0  0  0  0
 27 16  2  0  0  0  0
 28  4  1  0  0  0  0
 28 29  1  0  0  0  0
 30 28  1  0  0  0  0
 31 32  1  0  0  0  0
 31 28  1  0  0  0  0
 33 31  1  0  0  0  0
 34 31  1  0  0  0  0
 35 34  1  0  0  0  0
 35 44  1  0  0  0  0
 36 35  2  0  0  0  0
 37 38  2  0  0  0  0
 37 36  1  0  0  0  0
 38 43  1  0  0  0  0
 39 40  2  0  0  0  0
 39 38  1  0  0  0  0
 40 41  1  0  0  0  0
 41 49  1  0  0  0  0
 41 42  2  0  0  0  0
 42 50  1  0  0  0  0
 43 42  1  0  0  0  0
 43 34  2  0  0  0  0
 45 36  1  0  0  0  0
 46 37  1  0  0  0  0
 47 39  1  0  0  0  0
 48 40  1  0  0  0  0
 50 51  1  0  0  0  0
M  END
>  <minimizedAffinity>
-6.20192575

>  <minimizedRMSD>
0.520452678

$$$$
