
 OpenBabel03242509273D

 51 56  0  0  0  0  0  0  0  0999 V2000
   38.7540   28.0820   42.6630 C   0  0  0  0  0  0  0  0  0  0  0  0
   37.6300   27.3030   42.8880 C   0  0  0  0  0  0  0  0  0  0  0  0
   36.5610   28.0240   42.3440 C   0  0  0  0  0  0  0  0  0  0  0  0
   37.1070   29.1500   41.8460 N   0  0  0  0  0  0  0  0  0  0  0  0
   38.3750   29.2000   42.0220 N   0  0  0  0  0  0  0  0  0  0  0  0
   37.6150   26.3330   43.3890 H   0  0  0  0  0  0  0  0  0  0  0  0
   35.5750   27.6330   42.3890 H   0  0  0  0  0  0  0  0  0  0  0  0
   41.6660   26.5360   44.3910 C   0  0  0  0  0  0  0  0  0  0  0  0
   40.3300   26.7790   44.0410 C   0  0  0  0  0  0  0  0  0  0  0  0
   40.1000   27.7460   43.0620 C   0  0  0  0  0  0  0  0  0  0  0  0
   41.1370   28.3770   42.5170 N   0  0  0  0  0  0  0  0  0  0  0  0
   42.4340   28.1310   42.8670 C   0  0  0  0  0  0  0  0  0  0  0  0
   42.6710   27.2040   43.8080 N   0  0  0  0  0  0  0  0  0  0  0  0
   41.8590   25.7810   45.1580 H   0  0  0  0  0  0  0  0  0  0  0  0
   39.5120   26.2620   44.4890 H   0  0  0  0  0  0  0  0  0  0  0  0
   43.6240   28.7620   42.3380 C   0  0  0  0  0  0  0  0  0  0  0  0
   44.6420   28.0270   41.8620 N   0  0  0  0  0  0  0  0  0  0  0  0
   45.7790   28.5090   41.3540 C   0  0  0  0  0  3  0  0  0  0  0  0
   45.9860   29.8580   41.2850 N   0  0  0  0  0  0  0  0  0  0  0  0
   45.0120   30.6970   41.7430 C   0  0  0  0  0  0  0  0  0  0  0  0
   45.2000   32.0590   41.6820 C   0  0  0  0  0  3  0  0  0  0  0  0
   44.2320   32.9270   42.1390 C   0  0  0  0  0  0  0  0  0  0  0  0
   44.4960   33.9700   42.0390 H   0  0  0  0  0  0  0  0  0  0  0  0
   43.0650   32.3550   42.6590 C   0  0  0  0  0  0  0  0  0  0  0  0
   42.3440   33.0740   42.9990 H   0  0  0  0  0  0  0  0  0  0  0  0
   42.9480   30.9860   42.6860 C   0  0  0  0  0  3  0  0  0  0  0  0
   43.8910   30.1050   42.2410 C   0  0  0  0  0  0  0  0  0  0  0  0
   36.2560   30.0960   41.2220 C   0  0  0  0  0  0  0  0  0  0  0  0
   35.7390   30.6500   42.0600 H   0  0  0  0  0  0  0  0  0  0  0  0
   36.8540   30.8690   40.6960 H   0  0  0  0  0  0  0  0  0  0  0  0
   35.2580   29.5440   40.2540 C   0  0  0  0  0  0  0  0  0  0  0  0
   34.7610   28.6870   40.6890 H   0  0  0  0  0  0  0  0  0  0  0  0
   34.5920   30.4670   40.1500 H   0  0  0  0  0  0  0  0  0  0  0  0
   35.7680   29.3770   38.8760 C   0  0  0  0  0  0  0  0  0  0  0  0
   37.0680   29.4040   38.4570 C   0  0  0  0  0  0  0  0  0  0  0  0
   37.4900   29.3160   37.1580 C   0  0  0  0  0  0  0  0  0  0  0  0
   36.5610   29.1870   36.1510 C   0  0  0  0  0  0  0  0  0  0  0  0
   35.2190   29.1510   36.5120 C   0  0  0  0  0  0  0  0  0  0  0  0
   34.3450   29.0230   35.4570 C   0  0  0  0  0  0  0  0  0  0  0  0
   33.0040   28.9760   35.7100 C   0  0  0  0  0  0  0  0  0  0  0  0
   32.5550   29.0550   37.0080 C   0  0  0  0  0  0  0  0  0  0  0  0
   33.4830   29.1820   38.0060 C   0  0  0  0  0  0  0  0  0  0  0  0
   34.8320   29.2420   37.8320 C   0  0  0  0  0  0  0  0  0  0  0  0
   37.8110   29.5060   39.2400 H   0  0  0  0  0  0  0  0  0  0  0  0
   38.5390   29.3440   36.9140 H   0  0  0  0  0  0  0  0  0  0  0  0
   36.9160   29.1210   35.1450 H   0  0  0  0  0  0  0  0  0  0  0  0
   34.6760   28.9570   34.4260 H   0  0  0  0  0  0  0  0  0  0  0  0
   32.2780   28.8780   34.9120 H   0  0  0  0  0  0  0  0  0  0  0  0
   31.4980   29.0160   37.1960 H   0  0  0  0  0  0  0  0  0  0  0  0
   32.9600   29.2410   39.2960 O   0  0  0  0  0  0  0  0  0  0  0  0
   32.3070   29.9710   39.5720 H   0  0  0  0  0  0  0  0  0  0  0  0
  1  2  1  0  0  0  0
  1 10  1  0  0  0  0
  2  6  1  0  0  0  0
  3  7  1  0  0  0  0
  3  2  2  0  0  0  0
  4  5  1  0  0  0  0
  4  3  1  0  0  0  0
  5  1  2  0  0  0  0
  8 14  1  0  0  0  0
  9  8  1  0  0  0  0
  9 15  1  0  0  0  0
 10  9  2  0  0  0  0
 11 12  2  0  0  0  0
 11 10  1  0  0  0  0
 12 13  1  0  0  0  0
 13  8  2  0  0  0  0
 16 12  1  0  0  0  0
 17 16  2  0  0  0  0
 18 17  1  0  0  0  0
 19 18  2  0  0  0  0
 19 20  1  0  0  0  0
 20 27  1  0  0  0  0
 21 20  2  0  0  0  0
 21 22  1  0  0  0  0
 22 24  2  0  0  0  0
 23 22  1  0  0  0  0
 24 26  1  0  0  0  0
 24 25  1  0  0  0  0
 27 16  1  0  0  0  0
 27 26  2  0  0  0  0
 28  4  1  0  0  0  0
 28 29  1  0  0  0  0
 30 28  1  0  0  0  0
 31 32  1  0  0  0  0
 31 28  1  0  0  0  0
 33 31  1  0  0  0  0
 34 31  1  0  0  0  0
 35 34  1  0  0  0  0
 35 44  1  0  0  0  0
 36 35  2  0  0  0  0
 37 38  2  0  0  0  0
 37 36  1  0  0  0  0
 38 43  1  0  0  0  0
 39 40  2  0  0  0  0
 39 38  1  0  0  0  0
 40 41  1  0  0  0  0
 41 49  1  0  0  0  0
 41 42  2  0  0  0  0
 42 50  1  0  0  0  0
 43 42  1  0  0  0  0
 43 34  2  0  0  0  0
 45 36  1  0  0  0  0
 46 37  1  0  0  0  0
 47 39  1  0  0  0  0
 48 40  1  0  0  0  0
 50 51  1  0  0  0  0
M  END
>  <minimizedAffinity>
-6.09343433

>  <minimizedRMSD>
0.814182997

$$$$
