
 OpenBabel03242507503D

 43 48  0  0  1  0  0  0  0  0999 V2000
   39.9040   26.2710   43.7750 C   0  0  2  0  0  0  0  0  0  0  0  0
   40.9770   25.7930   42.7780 C   0  0  0  0  0  0  0  0  0  0  0  0
   39.7470   24.9890   43.0100 C   0  0  2  0  0  0  0  0  0  0  0  0
   40.2220   26.2360   44.8420 H   0  0  0  0  0  0  0  0  0  0  0  0
   41.0000   26.3310   41.8130 H   0  0  0  0  0  0  0  0  0  0  0  0
   41.9470   25.4540   43.1960 H   0  0  0  0  0  0  0  0  0  0  0  0
   39.8260   24.1060   43.6820 H   0  0  0  0  0  0  0  0  0  0  0  0
   38.6880   24.8790   41.9650 C   0  0  0  0  0  0  0  0  0  0  0  0
   37.6320   24.0170   42.1700 C   0  0  0  0  0  0  0  0  0  0  0  0
   36.7350   23.9940   41.1280 C   0  0  0  0  0  0  0  0  0  0  0  0
   36.8100   24.7010   40.0030 N   0  0  0  0  0  0  0  0  0  0  0  0
   37.8660   25.5410   39.8350 C   0  0  0  0  0  0  0  0  0  0  0  0
   38.7510   25.5790   40.8350 N   0  0  0  0  0  0  0  0  0  0  0  0
   37.5070   23.4230   43.0430 H   0  0  0  0  0  0  0  0  0  0  0  0
   35.8430   23.3500   41.1600 H   0  0  0  0  0  0  0  0  0  0  0  0
   38.2540   26.4520   38.7400 C   0  0  0  0  0  0  0  0  0  0  0  0
   39.3600   26.2970   37.9970 N   0  0  0  0  0  0  0  0  0  0  0  0
   39.7150   27.1190   37.0090 C   0  0  0  0  0  0  0  0  0  0  0  0
   38.9690   28.1890   36.6760 N   0  0  0  0  0  0  0  0  0  0  0  0
   37.8180   28.4400   37.3720 C   0  0  0  0  0  0  0  0  0  0  0  0
   37.0580   29.5360   37.0310 C   0  0  0  0  0  0  0  0  0  0  0  0
   35.8960   29.8020   37.7220 C   0  0  0  0  0  0  0  0  0  0  0  0
   35.3830   30.6850   37.3680 H   0  0  0  0  0  0  0  0  0  0  0  0
   35.5450   28.9340   38.7490 C   0  0  0  0  0  0  0  0  0  0  0  0
   34.6290   29.1910   39.2540 H   0  0  0  0  0  0  0  0  0  0  0  0
   36.3540   27.8580   39.0350 C   0  0  0  0  0  0  0  0  0  0  0  0
   37.5140   27.5540   38.3780 C   0  0  0  0  0  0  0  0  0  0  0  0
   38.5290   29.3280   42.5070 C   0  0  0  0  0  0  0  0  0  0  0  0
   37.4620   28.8810   43.3010 C   0  0  0  0  0  0  0  0  0  0  0  0
   37.8880   27.6830   43.8520 C   0  0  0  0  0  0  0  0  0  0  0  0
   39.1360   27.4460   43.4000 N   0  0  0  0  0  0  0  0  0  0  0  0
   39.5340   28.4290   42.5910 N   0  0  0  0  0  0  0  0  0  0  0  0
   36.4930   29.3500   43.4710 H   0  0  0  0  0  0  0  0  0  0  0  0
   37.3160   27.0600   44.5180 H   0  0  0  0  0  0  0  0  0  0  0  0
   37.1610   32.0040   40.4130 C   0  0  0  0  0  0  0  0  0  0  0  0
   38.2160   32.9370   40.3560 C   0  0  0  0  0  0  0  0  0  0  0  0
   39.3980   32.6270   41.0490 C   0  0  0  0  0  0  0  0  0  0  0  0
   39.4760   31.4580   41.7350 N   0  0  0  0  0  0  0  0  0  0  0  0
   38.4290   30.5810   41.7650 C   0  0  0  0  0  0  0  0  0  0  0  0
   37.2600   30.8630   41.0940 N   0  0  0  0  0  0  0  0  0  0  0  0
   36.2070   32.1500   39.9120 H   0  0  0  0  0  0  0  0  0  0  0  0
   38.0730   33.8390   39.7900 H   0  0  0  0  0  0  0  0  0  0  0  0
   40.2170   33.3320   41.0150 H   0  0  0  0  0  0  0  0  0  0  0  0
  1  4  1  1  0  0  0
  2  3  1  0  0  0  0
  2  6  1  0  0  0  0
  2  1  1  0  0  0  0
  3  7  1  1  0  0  0
  3  1  1  0  0  0  0
  5  2  1  0  0  0  0
  8  9  1  0  0  0  0
  8  3  1  0  0  0  0
  9 14  1  0  0  0  0
 10 15  1  0  0  0  0
 10  9  2  0  0  0  0
 11 10  1  0  0  0  0
 12 11  2  0  0  0  0
 12 13  1  0  0  0  0
 13  8  2  0  0  0  0
 16 12  1  0  0  0  0
 17 16  2  0  0  0  0
 18 17  1  0  0  0  0
 19 18  2  0  0  0  0
 19 20  1  0  0  0  0
 20 27  1  0  0  0  0
 21 20  2  0  0  0  0
 21 22  1  0  0  0  0
 22 24  2  0  0  0  0
 23 22  1  0  0  0  0
 24 26  1  0  0  0  0
 24 25  1  0  0  0  0
 27 16  1  0  0  0  0
 27 26  2  0  0  0  0
 28 32  2  0  0  0  0
 28 29  1  0  0  0  0
 29 33  1  0  0  0  0
 29 30  2  0  0  0  0
 30 34  1  0  0  0  0
 31  1  1  0  0  0  0
 31 30  1  0  0  0  0
 32 31  1  0  0  0  0
 35 40  1  0  0  0  0
 36 35  2  0  0  0  0
 36 37  1  0  0  0  0
 37 38  2  0  0  0  0
 38 39  1  0  0  0  0
 39 28  1  0  0  0  0
 40 39  2  0  0  0  0
 41 35  1  0  0  0  0
 42 36  1  0  0  0  0
 43 37  1  0  0  0  0
M  END
>  <minimizedAffinity>
-6.42428493

>  <minimizedRMSD>
1.05478764

$$$$
