
 OpenBabel03242508003D

 46 50  0  0  1  0  0  0  0  0999 V2000
   33.4380   26.9740   36.7870 N   0  0  0  0  0  0  0  0  0  0  0  0
   33.5780   28.1070   37.6500 C   0  0  0  0  0  0  0  0  0  0  0  0
   34.5380   29.1460   37.0880 C   0  0  0  0  0  0  0  0  0  0  0  0
   35.5950   28.5190   36.2190 C   0  0  2  0  0  0  0  0  0  0  0  0
   35.8760   27.0920   36.6330 C   0  0  0  0  0  0  0  0  0  0  0  0
   34.6630   26.2130   36.5960 C   0  0  1  0  0  0  0  0  0  0  0  0
   32.7740   26.3210   37.2530 H   0  0  0  0  0  0  0  0  0  0  0  0
   33.9830   27.8220   38.6330 H   0  0  0  0  0  0  0  0  0  0  0  0
   32.5980   28.5570   37.7930 H   0  0  0  0  0  0  0  0  0  0  0  0
   34.9740   29.7540   37.9080 H   0  0  0  0  0  0  0  0  0  0  0  0
   33.9420   29.8270   36.4470 H   0  0  0  0  0  0  0  0  0  0  0  0
   35.3520   28.5110   35.1450 H   0  0  0  0  0  0  0  0  0  0  0  0
   36.2490   27.1490   37.6760 H   0  0  0  0  0  0  0  0  0  0  0  0
   36.6860   26.7250   35.9450 H   0  0  0  0  0  0  0  0  0  0  0  0
   34.5840   25.8100   35.5670 H   0  0  0  0  0  0  0  0  0  0  0  0
   34.8110   25.1700   37.6370 C   0  0  0  0  0  0  0  0  0  0  0  0
   33.8640   24.1880   37.6140 N   0  0  0  0  0  0  0  0  0  0  0  0
   33.8980   23.1830   38.5080 C   0  0  0  0  0  0  0  0  0  0  0  0
   34.8540   23.0960   39.4540 N   0  0  0  0  0  0  0  0  0  0  0  0
   35.8080   24.0440   39.5130 C   0  0  0  0  0  0  0  0  0  0  0  0
   36.8120   24.0120   40.4610 C   0  0  0  0  0  0  0  0  0  0  0  0
   37.7900   25.0070   40.5050 C   0  0  0  0  0  0  0  0  0  0  0  0
   38.5670   24.9490   41.2650 H   0  0  0  0  0  0  0  0  0  0  0  0
   37.7200   26.0320   39.5610 C   0  0  0  0  0  0  0  0  0  0  0  0
   38.5040   26.7950   39.6260 H   0  0  0  0  0  0  0  0  0  0  0  0
   36.7130   26.0580   38.6170 C   0  0  0  0  0  0  0  0  0  0  0  0
   35.7790   25.0740   38.6040 C   0  0  0  0  0  0  0  0  0  0  0  0
   37.1450   29.4260   36.4690 S   0  0  0  0  0  0  0  0  0  0  0  0
   37.1810   30.1500   40.4290 C   0  0  0  0  0  0  0  0  0  0  0  0
   37.1820   31.5210   40.5300 C   0  0  0  0  0  0  0  0  0  0  0  0
   37.1700   32.2660   39.3620 C   0  0  0  0  0  0  0  0  0  0  0  0
   37.1590   31.5930   38.1480 C   0  0  0  0  0  0  0  0  0  0  0  0
   37.1590   30.2180   38.0670 C   0  0  0  0  0  0  0  0  0  0  0  0
   37.1710   29.5230   39.2160 N   0  0  0  0  0  0  0  0  0  0  0  0
   37.1900   32.0120   41.5060 H   0  0  0  0  0  0  0  0  0  0  0  0
   37.1700   33.3430   39.4180 H   0  0  0  0  0  0  0  0  0  0  0  0
   37.1510   32.2400   37.2710 H   0  0  0  0  0  0  0  0  0  0  0  0
   38.1870   28.8550   43.6980 C   0  0  0  0  0  0  0  0  0  0  0  0
   37.2780   27.7940   43.9160 C   0  0  0  0  0  0  0  0  0  0  0  0
   36.3220   27.5350   42.9230 C   0  0  0  0  0  0  0  0  0  0  0  0
   36.3280   28.3150   41.8240 N   0  0  0  0  0  0  0  0  0  0  0  0
   37.1940   29.3140   41.6350 C   0  0  0  0  0  0  0  0  0  0  0  0
   38.1030   29.5620   42.5760 N   0  0  0  0  0  0  0  0  0  0  0  0
   38.9220   29.0410   44.4780 H   0  0  0  0  0  0  0  0  0  0  0  0
   37.2680   27.1660   44.7920 H   0  0  0  0  0  0  0  0  0  0  0  0
   35.6170   26.7270   43.0690 H   0  0  0  0  0  0  0  0  0  0  0  0
  1  7  1  0  0  0  0
  1  2  1  0  0  0  0
  2  9  1  0  0  0  0
  2  8  1  0  0  0  0
  3  2  1  0  0  0  0
  3 10  1  0  0  0  0
  4 12  1  6  0  0  0
  4 28  1  0  0  0  0
  4  5  1  0  0  0  0
  4  3  1  0  0  0  0
  5 13  1  0  0  0  0
  6 15  1  6  0  0  0
  6  5  1  0  0  0  0
  6  1  1  0  0  0  0
  6 16  1  0  0  0  0
 11  3  1  0  0  0  0
 14  5  1  0  0  0  0
 16 27  1  0  0  0  0
 17 16  2  0  0  0  0
 17 18  1  0  0  0  0
 18 19  2  0  0  0  0
 19 20  1  0  0  0  0
 20 21  1  0  0  0  0
 21 22  2  0  0  0  0
 22 23  1  0  0  0  0
 24 25  1  0  0  0  0
 24 22  1  0  0  0  0
 26 24  2  0  0  0  0
 27 26  1  0  0  0  0
 27 20  2  0  0  0  0
 28 33  1  0  0  0  0
 29 30  1  0  0  0  0
 29 42  1  0  0  0  0
 30 35  1  0  0  0  0
 31 36  1  0  0  0  0
 31 30  2  0  0  0  0
 32 31  1  0  0  0  0
 33 32  2  0  0  0  0
 33 34  1  0  0  0  0
 34 29  2  0  0  0  0
 37 32  1  0  0  0  0
 38 39  1  0  0  0  0
 38 44  1  0  0  0  0
 39 45  1  0  0  0  0
 40 46  1  0  0  0  0
 40 39  2  0  0  0  0
 41 40  1  0  0  0  0
 42 41  2  0  0  0  0
 42 43  1  0  0  0  0
 43 38  2  0  0  0  0
M  END
>  <minimizedAffinity>
-5.76223898

>  <minimizedRMSD>
0.831073284

$$$$
