
 OpenBabel03242509273D

 51 56  0  0  0  0  0  0  0  0999 V2000
   39.0660   28.2460   42.8750 C   0  0  0  0  0  0  0  0  0  0  0  0
   37.9520   27.4500   43.0870 C   0  0  0  0  0  0  0  0  0  0  0  0
   36.8770   28.1570   42.5340 C   0  0  0  0  0  0  0  0  0  0  0  0
   37.4110   29.2930   42.0450 N   0  0  0  0  0  0  0  0  0  0  0  0
   38.6770   29.3610   42.2340 N   0  0  0  0  0  0  0  0  0  0  0  0
   37.9460   26.4790   43.5850 H   0  0  0  0  0  0  0  0  0  0  0  0
   35.8970   27.7510   42.5690 H   0  0  0  0  0  0  0  0  0  0  0  0
   42.0130   26.5420   44.3810 C   0  0  0  0  0  0  0  0  0  0  0  0
   40.6820   26.7580   43.9930 C   0  0  0  0  0  0  0  0  0  0  0  0
   40.4130   27.9300   43.2860 C   0  0  0  0  0  0  0  0  0  0  0  0
   41.4100   28.7690   43.0170 N   0  0  0  0  0  0  0  0  0  0  0  0
   42.7010   28.5470   43.4010 C   0  0  0  0  0  0  0  0  0  0  0  0
   42.9760   27.4240   44.0820 N   0  0  0  0  0  0  0  0  0  0  0  0
   42.2360   25.6270   44.9360 H   0  0  0  0  0  0  0  0  0  0  0  0
   39.8970   26.0720   44.2180 H   0  0  0  0  0  0  0  0  0  0  0  0
   43.8500   29.3940   43.1600 C   0  0  0  0  0  0  0  0  0  0  0  0
   44.5100   29.3490   41.9920 N   0  0  0  0  0  0  0  0  0  0  0  0
   45.5760   30.0860   41.6710 C   0  0  0  0  0  3  0  0  0  0  0  0
   46.0900   30.9820   42.5660 N   0  0  0  0  0  0  0  0  0  0  0  0
   45.4930   31.1070   43.7870 C   0  0  0  0  0  0  0  0  0  0  0  0
   45.9950   32.0050   44.7020 C   0  0  0  0  0  3  0  0  0  0  0  0
   45.4090   32.1500   45.9410 C   0  0  0  0  0  0  0  0  0  0  0  0
   45.8920   32.8840   46.5710 H   0  0  0  0  0  0  0  0  0  0  0  0
   44.2960   31.3470   46.2110 C   0  0  0  0  0  0  0  0  0  0  0  0
   43.8780   31.4990   47.1910 H   0  0  0  0  0  0  0  0  0  0  0  0
   43.8510   30.4730   45.2480 C   0  0  0  0  0  3  0  0  0  0  0  0
   44.4120   30.3110   44.0150 C   0  0  0  0  0  0  0  0  0  0  0  0
   36.5520   30.2270   41.4160 C   0  0  0  0  0  0  0  0  0  0  0  0
   36.0290   30.7800   42.2510 H   0  0  0  0  0  0  0  0  0  0  0  0
   37.1440   31.0040   40.8870 H   0  0  0  0  0  0  0  0  0  0  0  0
   35.5620   29.6620   40.4480 C   0  0  0  0  0  0  0  0  0  0  0  0
   35.0840   28.7920   40.8790 H   0  0  0  0  0  0  0  0  0  0  0  0
   34.8760   30.5710   40.3540 H   0  0  0  0  0  0  0  0  0  0  0  0
   36.0680   29.5150   39.0670 C   0  0  0  0  0  0  0  0  0  0  0  0
   37.3590   29.6250   38.6340 C   0  0  0  0  0  0  0  0  0  0  0  0
   37.7740   29.5520   37.3320 C   0  0  0  0  0  0  0  0  0  0  0  0
   36.8460   29.3500   36.3360 C   0  0  0  0  0  0  0  0  0  0  0  0
   35.5130   29.2280   36.7110 C   0  0  0  0  0  0  0  0  0  0  0  0
   34.6400   29.0300   35.6660 C   0  0  0  0  0  0  0  0  0  0  0  0
   33.3070   28.8950   35.9340 C   0  0  0  0  0  0  0  0  0  0  0  0
   32.8670   28.9570   37.2350 C   0  0  0  0  0  0  0  0  0  0  0  0
   33.7930   29.1570   38.2220 C   0  0  0  0  0  0  0  0  0  0  0  0
   35.1340   29.3060   38.0340 C   0  0  0  0  0  0  0  0  0  0  0  0
   38.1020   29.7850   39.4090 H   0  0  0  0  0  0  0  0  0  0  0  0
   38.8160   29.6490   37.0770 H   0  0  0  0  0  0  0  0  0  0  0  0
   37.1950   29.2980   35.3270 H   0  0  0  0  0  0  0  0  0  0  0  0
   34.9640   28.9750   34.6330 H   0  0  0  0  0  0  0  0  0  0  0  0
   32.5830   28.7400   35.1440 H   0  0  0  0  0  0  0  0  0  0  0  0
   31.8170   28.8490   37.4350 H   0  0  0  0  0  0  0  0  0  0  0  0
   33.2800   29.1940   39.5170 O   0  0  0  0  0  0  0  0  0  0  0  0
   32.5820   29.8810   39.7930 H   0  0  0  0  0  0  0  0  0  0  0  0
  1  2  1  0  0  0  0
  1 10  1  0  0  0  0
  2  6  1  0  0  0  0
  3  7  1  0  0  0  0
  3  2  2  0  0  0  0
  4  5  1  0  0  0  0
  4  3  1  0  0  0  0
  5  1  2  0  0  0  0
  8 14  1  0  0  0  0
  9 15  1  0  0  0  0
  9  8  2  0  0  0  0
 10  9  1  0  0  0  0
 11 10  2  0  0  0  0
 11 12  1  0  0  0  0
 12 13  2  0  0  0  0
 13  8  1  0  0  0  0
 16 12  1  0  0  0  0
 16 27  1  0  0  0  0
 17 16  2  0  0  0  0
 18 17  1  0  0  0  0
 18 19  2  0  0  0  0
 19 20  1  0  0  0  0
 20 27  2  0  0  0  0
 20 21  1  0  0  0  0
 21 22  2  0  0  0  0
 22 24  1  0  0  0  0
 22 23  1  0  0  0  0
 24 25  1  0  0  0  0
 26 24  2  0  0  0  0
 27 26  1  0  0  0  0
 28  4  1  0  0  0  0
 28 29  1  0  0  0  0
 30 28  1  0  0  0  0
 31 32  1  0  0  0  0
 31 28  1  0  0  0  0
 33 31  1  0  0  0  0
 34 31  1  0  0  0  0
 35 34  1  0  0  0  0
 35 44  1  0  0  0  0
 36 35  2  0  0  0  0
 37 38  2  0  0  0  0
 37 36  1  0  0  0  0
 38 43  1  0  0  0  0
 39 40  2  0  0  0  0
 39 38  1  0  0  0  0
 40 41  1  0  0  0  0
 41 49  1  0  0  0  0
 41 42  2  0  0  0  0
 42 50  1  0  0  0  0
 43 42  1  0  0  0  0
 43 34  2  0  0  0  0
 45 36  1  0  0  0  0
 46 37  1  0  0  0  0
 47 39  1  0  0  0  0
 48 40  1  0  0  0  0
 50 51  1  0  0  0  0
M  END
>  <minimizedAffinity>
-6.66880465

>  <minimizedRMSD>
0.525464237

$$$$
