
 OpenBabel03242508453D

 33 36  0  0  1  0  0  0  0  0999 V2000
   37.9440   27.3740   42.7310 C   0  0  2  0  0  0  0  0  0  0  0  0
   39.0390   27.6780   43.6600 C   0  0  0  0  0  0  0  0  0  0  0  0
   39.7510   26.3550   43.8670 C   0  0  0  0  0  0  0  0  0  0  0  0
   39.3000   25.4700   42.7460 C   0  0  0  0  0  0  0  0  0  0  0  0
   38.5580   26.3770   41.7630 C   0  0  1  0  0  0  0  0  0  0  0  0
   37.1410   26.7800   43.2510 H   0  0  0  0  0  0  0  0  0  0  0  0
   38.7360   28.1500   44.6160 H   0  0  0  0  0  0  0  0  0  0  0  0
   39.8010   28.3240   43.1790 H   0  0  0  0  0  0  0  0  0  0  0  0
   40.8570   26.4410   43.8270 H   0  0  0  0  0  0  0  0  0  0  0  0
   39.5080   25.9520   44.8870 H   0  0  0  0  0  0  0  0  0  0  0  0
   38.6170   24.7260   43.2020 H   0  0  0  0  0  0  0  0  0  0  0  0
   40.1110   24.9160   42.2460 H   0  0  0  0  0  0  0  0  0  0  0  0
   39.2070   26.8430   41.0310 H   0  0  0  0  0  0  0  0  0  0  0  0
   37.9720   29.7770   41.9070 C   0  0  0  0  0  0  0  0  0  0  0  0
   37.3510   28.5090   42.0450 C   0  0  0  0  0  0  0  0  0  0  0  0
   36.0980   28.3290   41.4870 C   0  0  0  0  0  0  0  0  0  0  0  0
   35.5190   29.3920   40.8240 N   0  0  0  0  0  0  0  0  0  0  0  0
   36.1460   30.6050   40.7090 C   0  0  0  0  0  0  0  0  0  0  0  0
   37.3960   30.7900   41.2650 N   0  0  0  0  0  0  0  0  0  0  0  0
   38.9430   29.9310   42.3340 H   0  0  0  0  0  0  0  0  0  0  0  0
   35.5010   27.4290   41.5060 H   0  0  0  0  0  0  0  0  0  0  0  0
   35.6350   31.3840   40.1810 H   0  0  0  0  0  0  0  0  0  0  0  0
   37.5670   25.4340   41.1730 C   0  0  0  0  0  0  0  0  0  0  0  0
   36.8730   24.5480   41.9130 N   0  0  0  0  0  0  0  0  0  0  0  0
   36.1010   23.8760   41.0870 O   0  0  0  0  0  0  0  0  0  0  0  0
   36.3030   24.3220   39.8630 C   0  0  0  0  0  0  0  0  0  0  0  0
   37.2100   25.2930   39.8750 N   0  0  0  0  0  0  0  0  0  0  0  0
   35.6120   23.8000   38.6910 C   0  0  0  0  0  0  0  0  0  0  0  0
   36.0890   23.6460   37.4130 C   0  0  0  0  0  0  0  0  0  0  0  0
   35.1310   23.1230   36.6010 N   0  0  0  0  0  0  0  0  0  0  0  0
   34.0310   22.9430   37.3820 C   0  0  0  0  0  0  0  0  0  0  0  0
   34.3460   23.3510   38.6100 N   0  0  0  0  0  0  0  0  0  0  0  0
   33.6410   23.3030   39.3840 H   0  0  0  0  0  0  0  0  0  0  0  0
  1  6  1  1  0  0  0
  1  2  1  0  0  0  0
  2  3  1  0  0  0  0
  2  7  1  0  0  0  0
  3 10  1  0  0  0  0
  4 11  1  0  0  0  0
  4  3  1  0  0  0  0
  5 13  1  6  0  0  0
  5  1  1  0  0  0  0
  5  4  1  0  0  0  0
  8  2  1  0  0  0  0
  9  3  1  0  0  0  0
 12  4  1  0  0  0  0
 14 15  1  0  0  0  0
 14 20  1  0  0  0  0
 15  1  1  0  0  0  0
 16 21  1  0  0  0  0
 16 15  2  0  0  0  0
 17 16  1  0  0  0  0
 18 17  2  0  0  0  0
 18 19  1  0  0  0  0
 19 14  2  0  0  0  0
 22 18  1  0  0  0  0
 23  5  1  0  0  0  0
 23 24  2  0  0  0  0
 25 24  1  0  0  0  0
 26 27  2  0  0  0  0
 26 25  1  0  0  0  0
 27 23  1  0  0  0  0
 28 26  1  0  0  0  0
 29 28  2  0  0  0  0
 30 31  2  0  0  0  0
 30 29  1  0  0  0  0
 31 32  1  0  0  0  0
 32 28  1  0  0  0  0
 32 33  1  0  0  0  0
M  END
>  <minimizedAffinity>
-4.78841352

>  <minimizedRMSD>
0.579205513

$$$$
