
 OpenBabel03242509283D

 45 49  0  0  0  0  0  0  0  0999 V2000
   36.1330   30.0850   41.0830 C   0  0  0  0  0  0  0  0  0  0  0  0
   36.7660   30.8540   40.5760 H   0  0  0  0  0  0  0  0  0  0  0  0
   35.5760   30.6420   41.8660 H   0  0  0  0  0  0  0  0  0  0  0  0
   38.5740   28.1310   42.6870 C   0  0  0  0  0  0  0  0  0  0  0  0
   37.4820   27.3140   42.7940 C   0  0  0  0  0  0  0  0  0  0  0  0
   36.4230   27.9890   42.1810 C   0  0  0  0  0  0  0  0  0  0  0  0
   36.9620   29.1480   41.7590 N   0  0  0  0  0  0  0  0  0  0  0  0
   38.2210   29.2690   42.0350 N   0  0  0  0  0  0  0  0  0  0  0  0
   37.4550   26.3240   43.2720 H   0  0  0  0  0  0  0  0  0  0  0  0
   35.4550   27.5500   42.1380 H   0  0  0  0  0  0  0  0  0  0  0  0
   41.4750   26.4660   44.3240 C   0  0  0  0  0  0  0  0  0  0  0  0
   40.1650   26.6680   43.8760 C   0  0  0  0  0  0  0  0  0  0  0  0
   39.9110   27.8660   43.1740 C   0  0  0  0  0  0  0  0  0  0  0  0
   40.9070   28.7430   42.9700 N   0  0  0  0  0  0  0  0  0  0  0  0
   42.1690   28.4890   43.4340 C   0  0  0  0  0  0  0  0  0  0  0  0
   42.4420   27.3600   44.1040 N   0  0  0  0  0  0  0  0  0  0  0  0
   41.7030   25.5590   44.8650 H   0  0  0  0  0  0  0  0  0  0  0  0
   39.3740   25.9480   44.0510 H   0  0  0  0  0  0  0  0  0  0  0  0
   43.2150   29.4740   43.1850 C   0  0  0  0  0  0  0  0  0  0  0  0
   44.1860   29.8890   44.0670 C   0  0  0  0  0  3  0  0  0  0  0  0
   44.9510   30.8090   43.4420 N   0  0  0  0  0  0  0  0  0  0  0  0
   44.4640   30.9600   42.1970 C   0  0  0  0  0  3  0  0  0  0  0  0
   43.3970   30.1440   42.0300 N   0  0  0  0  0  0  0  0  0  0  0  0
   42.8210   30.0460   41.1730 H   0  0  0  0  0  0  0  0  0  0  0  0
   35.2390   29.5190   40.0240 C   0  0  0  0  0  0  0  0  0  0  0  0
   34.7670   28.6170   40.3860 H   0  0  0  0  0  0  0  0  0  0  0  0
   34.5310   30.4060   39.9070 H   0  0  0  0  0  0  0  0  0  0  0  0
   35.8590   29.4300   38.6770 C   0  0  0  0  0  0  0  0  0  0  0  0
   37.1770   29.5650   38.3530 C   0  0  0  0  0  0  0  0  0  0  0  0
   37.6990   29.5470   37.0980 C   0  0  0  0  0  0  0  0  0  0  0  0
   36.8550   29.3800   36.0220 C   0  0  0  0  0  0  0  0  0  0  0  0
   35.5000   29.2360   36.2810 C   0  0  0  0  0  0  0  0  0  0  0  0
   34.7110   29.0760   35.1680 C   0  0  0  0  0  0  0  0  0  0  0  0
   33.3660   28.9220   35.3070 C   0  0  0  0  0  0  0  0  0  0  0  0
   32.8190   28.9280   36.5840 C   0  0  0  0  0  0  0  0  0  0  0  0
   33.6580   29.0910   37.6420 C   0  0  0  0  0  0  0  0  0  0  0  0
   35.0030   29.2550   37.5730 C   0  0  0  0  0  0  0  0  0  0  0  0
   37.8440   29.6970   39.2110 H   0  0  0  0  0  0  0  0  0  0  0  0
   38.7690   29.6650   36.9970 H   0  0  0  0  0  0  0  0  0  0  0  0
   37.2870   29.3720   35.0480 H   0  0  0  0  0  0  0  0  0  0  0  0
   35.0910   29.0630   34.1560 H   0  0  0  0  0  0  0  0  0  0  0  0
   32.7050   28.7960   34.4580 H   0  0  0  0  0  0  0  0  0  0  0  0
   31.7570   28.8030   36.6870 H   0  0  0  0  0  0  0  0  0  0  0  0
   33.0520   29.0700   38.8870 O   0  0  0  0  0  0  0  0  0  0  0  0
   32.1440   29.4620   39.0980 H   0  0  0  0  0  0  0  0  0  0  0  0
  1  7  1  0  0  0  0
  1  3  1  0  0  0  0
  2  1  1  0  0  0  0
  4  5  1  0  0  0  0
  4 13  1  0  0  0  0
  5  9  1  0  0  0  0
  6  5  2  0  0  0  0
  7  8  1  0  0  0  0
  7  6  1  0  0  0  0
  8  4  2  0  0  0  0
 10  6  1  0  0  0  0
 11 17  1  0  0  0  0
 12 18  1  0  0  0  0
 12 11  2  0  0  0  0
 13 12  1  0  0  0  0
 14 13  2  0  0  0  0
 14 15  1  0  0  0  0
 15 16  2  0  0  0  0
 16 11  1  0  0  0  0
 19 15  1  0  0  0  0
 19 20  2  0  0  0  0
 21 20  1  0  0  0  0
 22 21  2  0  0  0  0
 23 22  1  0  0  0  0
 23 19  1  0  0  0  0
 24 23  1  0  0  0  0
 25 26  1  0  0  0  0
 25  1  1  0  0  0  0
 27 25  1  0  0  0  0
 28 25  1  0  0  0  0
 29 28  1  0  0  0  0
 29 38  1  0  0  0  0
 30 29  2  0  0  0  0
 31 32  2  0  0  0  0
 31 30  1  0  0  0  0
 32 37  1  0  0  0  0
 33 34  2  0  0  0  0
 33 32  1  0  0  0  0
 34 35  1  0  0  0  0
 35 43  1  0  0  0  0
 35 36  2  0  0  0  0
 36 44  1  0  0  0  0
 37 36  1  0  0  0  0
 37 28  2  0  0  0  0
 39 30  1  0  0  0  0
 40 31  1  0  0  0  0
 41 33  1  0  0  0  0
 42 34  1  0  0  0  0
 44 45  1  0  0  0  0
M  END
>  <minimizedAffinity>
-5.83341169

>  <minimizedRMSD>
0.164055988

$$$$
