
 OpenBabel03242504063D

 36 38  0  0  0  0  0  0  0  0999 V2000
   36.2760   30.3260   39.9810 C   0  0  0  0  0  0  0  0  0  0  0  0
   36.6860   31.5420   40.4830 C   0  0  0  0  0  0  0  0  0  0  0  0
   37.2870   32.4490   39.6440 C   0  0  0  0  0  0  0  0  0  0  0  0
   37.5030   32.2050   38.3160 C   0  0  0  0  0  0  0  0  0  0  0  0
   37.0920   30.9840   37.8040 C   0  0  0  0  0  0  0  0  0  0  0  0
   36.4920   30.0830   38.6460 C   0  0  0  0  0  0  0  0  0  0  0  0
   36.5490   31.8050   41.5220 H   0  0  0  0  0  0  0  0  0  0  0  0
   37.6260   33.4240   40.0060 H   0  0  0  0  0  0  0  0  0  0  0  0
   37.9740   32.9110   37.6440 H   0  0  0  0  0  0  0  0  0  0  0  0
   37.2190   30.6950   36.7580 H   0  0  0  0  0  0  0  0  0  0  0  0
   35.6270   29.3290   40.8520 C   0  0  0  0  0  0  0  0  0  0  0  0
   35.0890   28.6140   40.2360 H   0  0  0  0  0  0  0  0  0  0  0  0
   34.8450   29.8420   41.4820 H   0  0  0  0  0  0  0  0  0  0  0  0
   38.1770   28.6370   43.4490 C   0  0  0  0  0  0  0  0  0  0  0  0
   38.3480   27.2470   43.3380 C   0  0  0  0  0  0  0  0  0  0  0  0
   37.5800   26.5870   42.3700 C   0  0  0  0  0  0  0  0  0  0  0  0
   36.7420   27.3080   41.6200 N   0  0  0  0  0  0  0  0  0  0  0  0
   36.5960   28.6360   41.7470 C   0  0  0  0  0  0  0  0  0  0  0  0
   37.3190   29.2890   42.6640 N   0  0  0  0  0  0  0  0  0  0  0  0
   37.6410   25.1950   42.1380 N   0  0  0  0  0  0  0  0  0  0  0  0
   38.7920   29.0650   44.2040 H   0  0  0  0  0  0  0  0  0  0  0  0
   38.9950   26.6100   43.8980 H   0  0  0  0  0  0  0  0  0  0  0  0
   37.0480   24.4110   42.5410 H   0  0  0  0  0  0  0  0  0  0  0  0
   38.3520   24.8170   41.4800 H   0  0  0  0  0  0  0  0  0  0  0  0
   36.0410   28.7490   38.0990 C   0  0  0  0  0  0  0  0  0  0  0  0
   36.8400   28.1830   37.6280 H   0  0  0  0  0  0  0  0  0  0  0  0
   35.6600   28.2000   39.0070 H   0  0  0  0  0  0  0  0  0  0  0  0
   34.9020   28.9340   37.1740 C   0  0  0  0  0  0  0  0  0  0  0  0
   35.0210   29.0450   35.8030 C   0  0  0  0  0  0  0  0  0  0  0  0
   36.0120   28.9930   35.3740 H   0  0  0  0  0  0  0  0  0  0  0  0
   33.8670   29.2140   35.0660 C   0  0  0  0  0  0  0  0  0  0  0  0
   32.6280   29.2700   35.7050 C   0  0  0  0  0  0  0  0  0  0  0  0
   31.7440   29.4020   35.1160 H   0  0  0  0  0  0  0  0  0  0  0  0
   32.5020   29.1590   37.0880 C   0  0  0  0  0  0  0  0  0  0  0  0
   31.5500   29.2010   37.5870 H   0  0  0  0  0  0  0  0  0  0  0  0
   33.6610   28.9900   37.8140 C   0  0  0  0  0  0  0  0  0  0  0  0
  1  2  1  0  0  0  0
  1 11  1  0  0  0  0
  2  7  1  0  0  0  0
  3  8  1  0  0  0  0
  3  2  2  0  0  0  0
  4  3  1  0  0  0  0
  5  4  2  0  0  0  0
  5  6  1  0  0  0  0
  6  1  2  0  0  0  0
  9  4  1  0  0  0  0
 10  5  1  0  0  0  0
 11 13  1  0  0  0  0
 11 18  1  0  0  0  0
 12 11  1  0  0  0  0
 14 21  1  0  0  0  0
 15 14  1  0  0  0  0
 15 22  1  0  0  0  0
 16 15  2  0  0  0  0
 17 18  2  0  0  0  0
 17 16  1  0  0  0  0
 18 19  1  0  0  0  0
 19 14  2  0  0  0  0
 20 16  1  0  0  0  0
 20 23  1  0  0  0  0
 24 20  1  0  0  0  0
 25  6  1  0  0  0  0
 25 27  1  0  0  0  0
 26 25  1  0  0  0  0
 28 36  1  0  0  0  0
 28 25  1  0  0  0  0
 29 28  2  0  0  0  0
 30 29  1  0  0  0  0
 31 32  2  0  0  0  0
 31 29  1  0  0  0  0
 32 34  1  0  0  0  0
 33 32  1  0  0  0  0
 34 35  1  0  0  0  0
 34 36  2  0  0  0  0
M  END
>  <minimizedAffinity>
-5.86982346

>  <minimizedRMSD>
1.80437577

$$$$
