
 OpenBabel03242508573D

 42 46  0  0  0  0  0  0  0  0999 V2000
   36.5800   30.1370   38.3450 C   0  0  0  0  0  0  0  0  0  0  0  0
   37.0070   31.4420   38.5960 C   0  0  0  0  0  0  0  0  0  0  0  0
   37.3210   31.5020   39.8870 N   0  0  0  0  0  0  0  0  0  0  0  0
   37.1290   30.3180   40.5090 C   0  0  0  0  0  0  0  0  0  0  0  0
   37.3360   29.9660   41.8260 C   0  0  0  0  0  0  0  0  0  0  0  0
   37.0500   28.6530   42.1790 C   0  0  0  0  0  0  0  0  0  0  0  0
   36.5770   27.7440   41.2370 C   0  0  0  0  0  0  0  0  0  0  0  0
   36.3750   28.1110   39.9300 C   0  0  0  0  0  0  0  0  0  0  0  0
   36.6550   29.4250   39.5470 C   0  0  0  0  0  0  0  0  0  0  0  0
   37.0050   32.1150   37.7490 H   0  0  0  0  0  0  0  0  0  0  0  0
   37.7060   30.6960   42.5420 H   0  0  0  0  0  0  0  0  0  0  0  0
   37.1940   28.3190   43.2020 H   0  0  0  0  0  0  0  0  0  0  0  0
   36.3550   26.7170   41.5180 H   0  0  0  0  0  0  0  0  0  0  0  0
   36.0080   27.4330   39.1680 H   0  0  0  0  0  0  0  0  0  0  0  0
   34.4300   28.6760   35.7730 C   0  0  0  0  0  0  0  0  0  0  0  0
   35.3020   28.5230   34.6710 C   0  0  0  0  0  0  0  0  0  0  0  0
   36.6420   28.9310   34.8330 C   0  0  0  0  0  0  0  0  0  0  0  0
   36.9890   29.4390   36.0310 N   0  0  0  0  0  0  0  0  0  0  0  0
   36.1280   29.5760   37.0740 C   0  0  0  0  0  0  0  0  0  0  0  0
   34.8640   29.1940   36.9330 N   0  0  0  0  0  0  0  0  0  0  0  0
   33.3980   28.3590   35.6410 H   0  0  0  0  0  0  0  0  0  0  0  0
   35.0010   28.1110   33.7180 H   0  0  0  0  0  0  0  0  0  0  0  0
   37.3800   28.8510   34.0460 H   0  0  0  0  0  0  0  0  0  0  0  0
   37.8060   32.7110   40.4680 C   0  0  0  0  0  0  0  0  0  0  0  0
   37.8710   33.4860   39.6770 H   0  0  0  0  0  0  0  0  0  0  0  0
   37.0970   33.1410   41.2230 H   0  0  0  0  0  0  0  0  0  0  0  0
   39.2150   32.5780   41.0480 C   0  0  0  0  0  0  0  0  0  0  0  0
   39.3780   33.1940   41.9210 H   0  0  0  0  0  0  0  0  0  0  0  0
   39.3970   31.4950   41.2640 H   0  0  0  0  0  0  0  0  0  0  0  0
   40.1090   33.0780   40.0040 N   0  0  0  0  0  0  0  0  0  0  0  0
   40.5490   34.3420   39.9650 N   0  0  0  0  0  0  0  0  0  0  0  0
   41.3350   34.5340   38.8960 C   0  0  0  0  0  0  0  0  0  0  0  0
   41.4030   33.3310   38.2180 C   0  0  0  0  0  0  0  0  0  0  0  0
   40.6110   32.4290   38.9530 C   0  0  0  0  0  0  0  0  0  0  0  0
   41.8300   35.4480   38.6070 H   0  0  0  0  0  0  0  0  0  0  0  0
   41.9810   33.2130   37.3070 H   0  0  0  0  0  0  0  0  0  0  0  0
   40.4510   31.0550   38.5330 C   0  0  0  0  0  0  0  0  0  0  0  0
   40.7340   29.9600   39.3620 C   0  0  0  0  0  0  0  0  0  0  0  0
   40.5310   28.7830   38.7330 N   0  0  0  0  0  0  0  0  0  0  0  0
   40.1130   29.0720   37.4830 C   0  0  0  0  0  0  0  0  0  0  0  0
   40.0840   30.4100   37.4240 N   0  0  0  0  0  0  0  0  0  0  0  0
   39.7770   30.8550   36.5580 H   0  0  0  0  0  0  0  0  0  0  0  0
  1  2  2  0  0  0  0
  1  9  1  0  0  0  0
  2  3  1  0  0  0  0
  3 24  1  0  0  0  0
  3  4  1  0  0  0  0
  4  5  1  0  0  0  0
  5  6  2  0  0  0  0
  5 11  1  0  0  0  0
  6 12  1  0  0  0  0
  7 13  1  0  0  0  0
  7  6  1  0  0  0  0
  8  7  2  0  0  0  0
  9  8  1  0  0  0  0
  9  4  2  0  0  0  0
 10  2  1  0  0  0  0
 14  8  1  0  0  0  0
 15 20  1  0  0  0  0
 16 17  1  0  0  0  0
 16 15  2  0  0  0  0
 17 18  2  0  0  0  0
 18 19  1  0  0  0  0
 19  1  1  0  0  0  0
 20 19  2  0  0  0  0
 21 15  1  0  0  0  0
 22 16  1  0  0  0  0
 23 17  1  0  0  0  0
 24 27  1  0  0  0  0
 24 26  1  0  0  0  0
 25 24  1  0  0  0  0
 27 29  1  0  0  0  0
 27 28  1  0  0  0  0
 30 27  1  0  0  0  0
 31 30  1  0  0  0  0
 32 31  2  0  0  0  0
 33 32  1  0  0  0  0
 33 34  2  0  0  0  0
 34 30  1  0  0  0  0
 35 32  1  0  0  0  0
 36 33  1  0  0  0  0
 37 34  1  0  0  0  0
 37 38  2  0  0  0  0
 39 38  1  0  0  0  0
 40 39  2  0  0  0  0
 41 40  1  0  0  0  0
 41 37  1  0  0  0  0
 42 41  1  0  0  0  0
M  END
>  <minimizedAffinity>
-5.30634356

>  <minimizedRMSD>
4.13150454

$$$$
