
 OpenBabel03242509273D

 45 49  0  0  0  0  0  0  0  0999 V2000
   36.1320   30.0850   41.0840 C   0  0  0  0  0  0  0  0  0  0  0  0
   36.7660   30.8540   40.5770 H   0  0  0  0  0  0  0  0  0  0  0  0
   35.5760   30.6410   41.8670 H   0  0  0  0  0  0  0  0  0  0  0  0
   38.5750   28.1310   42.6880 C   0  0  0  0  0  0  0  0  0  0  0  0
   37.4820   27.3140   42.7950 C   0  0  0  0  0  0  0  0  0  0  0  0
   36.4230   27.9890   42.1820 C   0  0  0  0  0  0  0  0  0  0  0  0
   36.9620   29.1470   41.7590 N   0  0  0  0  0  0  0  0  0  0  0  0
   38.2210   29.2680   42.0360 N   0  0  0  0  0  0  0  0  0  0  0  0
   37.4560   26.3240   43.2720 H   0  0  0  0  0  0  0  0  0  0  0  0
   35.4560   27.5500   42.1380 H   0  0  0  0  0  0  0  0  0  0  0  0
   41.4750   26.4660   44.3240 C   0  0  0  0  0  0  0  0  0  0  0  0
   40.1660   26.6670   43.8760 C   0  0  0  0  0  0  0  0  0  0  0  0
   39.9110   27.8660   43.1740 C   0  0  0  0  0  0  0  0  0  0  0  0
   40.9080   28.7430   42.9700 N   0  0  0  0  0  0  0  0  0  0  0  0
   42.1700   28.4890   43.4330 C   0  0  0  0  0  0  0  0  0  0  0  0
   42.4420   27.3590   44.1030 N   0  0  0  0  0  0  0  0  0  0  0  0
   41.7030   25.5590   44.8650 H   0  0  0  0  0  0  0  0  0  0  0  0
   39.3740   25.9480   44.0510 H   0  0  0  0  0  0  0  0  0  0  0  0
   43.2150   29.4730   43.1850 C   0  0  0  0  0  0  0  0  0  0  0  0
   44.1860   29.8890   44.0670 C   0  0  0  0  0  3  0  0  0  0  0  0
   44.9520   30.8080   43.4420 N   0  0  0  0  0  0  0  0  0  0  0  0
   44.4630   30.9600   42.1970 C   0  0  0  0  0  3  0  0  0  0  0  0
   43.3970   30.1450   42.0300 N   0  0  0  0  0  0  0  0  0  0  0  0
   42.8200   30.0470   41.1730 H   0  0  0  0  0  0  0  0  0  0  0  0
   35.2390   29.5190   40.0250 C   0  0  0  0  0  0  0  0  0  0  0  0
   34.7670   28.6170   40.3860 H   0  0  0  0  0  0  0  0  0  0  0  0
   34.5310   30.4060   39.9070 H   0  0  0  0  0  0  0  0  0  0  0  0
   35.8600   29.4290   38.6780 C   0  0  0  0  0  0  0  0  0  0  0  0
   37.1780   29.5650   38.3540 C   0  0  0  0  0  0  0  0  0  0  0  0
   37.7000   29.5470   37.0990 C   0  0  0  0  0  0  0  0  0  0  0  0
   36.8550   29.3800   36.0230 C   0  0  0  0  0  0  0  0  0  0  0  0
   35.5010   29.2360   36.2810 C   0  0  0  0  0  0  0  0  0  0  0  0
   34.7120   29.0760   35.1690 C   0  0  0  0  0  0  0  0  0  0  0  0
   33.3670   28.9220   35.3070 C   0  0  0  0  0  0  0  0  0  0  0  0
   32.8190   28.9280   36.5850 C   0  0  0  0  0  0  0  0  0  0  0  0
   33.6580   29.0910   37.6430 C   0  0  0  0  0  0  0  0  0  0  0  0
   35.0040   29.2550   37.5740 C   0  0  0  0  0  0  0  0  0  0  0  0
   37.8440   29.6970   39.2120 H   0  0  0  0  0  0  0  0  0  0  0  0
   38.7690   29.6650   36.9980 H   0  0  0  0  0  0  0  0  0  0  0  0
   37.2880   29.3720   35.0490 H   0  0  0  0  0  0  0  0  0  0  0  0
   35.0920   29.0630   34.1560 H   0  0  0  0  0  0  0  0  0  0  0  0
   32.7060   28.7970   34.4580 H   0  0  0  0  0  0  0  0  0  0  0  0
   31.7570   28.8040   36.6870 H   0  0  0  0  0  0  0  0  0  0  0  0
   33.0530   29.0700   38.8880 O   0  0  0  0  0  0  0  0  0  0  0  0
   32.1450   29.4620   39.0980 H   0  0  0  0  0  0  0  0  0  0  0  0
  1  7  1  0  0  0  0
  1  3  1  0  0  0  0
  2  1  1  0  0  0  0
  4  5  1  0  0  0  0
  4 13  1  0  0  0  0
  5  9  1  0  0  0  0
  6  5  2  0  0  0  0
  7  8  1  0  0  0  0
  7  6  1  0  0  0  0
  8  4  2  0  0  0  0
 10  6  1  0  0  0  0
 11 17  1  0  0  0  0
 12 18  1  0  0  0  0
 12 11  2  0  0  0  0
 13 12  1  0  0  0  0
 14 13  2  0  0  0  0
 14 15  1  0  0  0  0
 15 16  2  0  0  0  0
 16 11  1  0  0  0  0
 19 15  1  0  0  0  0
 19 20  2  0  0  0  0
 21 20  1  0  0  0  0
 22 21  2  0  0  0  0
 23 22  1  0  0  0  0
 23 19  1  0  0  0  0
 24 23  1  0  0  0  0
 25 26  1  0  0  0  0
 25  1  1  0  0  0  0
 27 25  1  0  0  0  0
 28 25  1  0  0  0  0
 29 28  1  0  0  0  0
 29 38  1  0  0  0  0
 30 29  2  0  0  0  0
 31 32  2  0  0  0  0
 31 30  1  0  0  0  0
 32 37  1  0  0  0  0
 33 34  2  0  0  0  0
 33 32  1  0  0  0  0
 34 35  1  0  0  0  0
 35 43  1  0  0  0  0
 35 36  2  0  0  0  0
 36 44  1  0  0  0  0
 37 36  1  0  0  0  0
 37 28  2  0  0  0  0
 39 30  1  0  0  0  0
 40 31  1  0  0  0  0
 41 33  1  0  0  0  0
 42 34  1  0  0  0  0
 44 45  1  0  0  0  0
M  END
>  <minimizedAffinity>
-5.83327198

>  <minimizedRMSD>
0.154930145

$$$$
