
 OpenBabel03242508273D

 21 23  0  0  0  0  0  0  0  0999 V2000
   36.6630   31.1190   40.2610 C   0  0  0  0  0  0  0  0  0  0  0  0
   36.7470   31.2670   38.9150 N   0  0  0  0  0  0  0  0  0  0  0  0
   37.5160   32.2960   38.6440 O   0  0  0  0  0  0  0  0  0  0  0  0
   37.9130   32.7930   39.8010 C   0  0  0  0  0  0  0  0  0  0  0  0
   37.4080   32.0940   40.8230 N   0  0  0  0  0  0  0  0  0  0  0  0
   38.7870   33.9490   39.9850 C   0  0  0  0  0  0  0  0  0  0  0  0
   40.1120   34.0060   40.3700 C   0  0  0  0  0  0  0  0  0  0  0  0
   40.4670   35.3080   40.3930 N   0  0  0  0  0  0  0  0  0  0  0  0
   39.4230   36.0860   40.0380 C   0  0  0  0  0  0  0  0  0  0  0  0
   38.4200   35.2270   39.7980 N   0  0  0  0  0  0  0  0  0  0  0  0
   37.4900   35.6340   39.5000 H   0  0  0  0  0  0  0  0  0  0  0  0
   35.9750   30.1850   41.0220 O   0  0  0  0  0  0  0  0  0  0  0  0
   37.9980   28.1800   43.2760 C   0  0  0  0  0  0  0  0  0  0  0  0
   37.8700   26.9300   42.6540 C   0  0  0  0  0  0  0  0  0  0  0  0
   37.0870   26.8630   41.4880 C   0  0  0  0  0  0  0  0  0  0  0  0
   36.5040   28.0210   41.0400 N   0  0  0  0  0  0  0  0  0  0  0  0
   36.6550   29.1880   41.6670 C   0  0  0  0  0  0  0  0  0  0  0  0
   37.4010   29.2730   42.7850 N   0  0  0  0  0  0  0  0  0  0  0  0
   38.5980   28.2650   44.1800 H   0  0  0  0  0  0  0  0  0  0  0  0
   38.3370   26.0390   43.0260 H   0  0  0  0  0  0  0  0  0  0  0  0
   36.9590   25.9050   40.9690 H   0  0  0  0  0  0  0  0  0  0  0  0
  1  5  1  0  0  0  0
  1 12  1  0  0  0  0
  2  1  2  0  0  0  0
  3  2  1  0  0  0  0
  3  4  1  0  0  0  0
  4  6  1  0  0  0  0
  4  5  2  0  0  0  0
  6  7  2  0  0  0  0
  7  8  1  0  0  0  0
  9  8  2  0  0  0  0
 10  6  1  0  0  0  0
 10  9  1  0  0  0  0
 11 10  1  0  0  0  0
 12 17  1  0  0  0  0
 13 19  1  0  0  0  0
 14 20  1  0  0  0  0
 14 13  2  0  0  0  0
 15 14  1  0  0  0  0
 16 15  2  0  0  0  0
 16 17  1  0  0  0  0
 17 18  2  0  0  0  0
 18 13  1  0  0  0  0
 21 15  1  0  0  0  0
M  END
>  <minimizedAffinity>
-5.05273771

>  <minimizedRMSD>
1.20856059

$$$$
