
 OpenBabel03242507193D

 50 54  0  0  0  0  0  0  0  0999 V2000
   35.2320   28.7410   40.2150 C   0  0  0  0  0  0  0  0  0  0  0  0
   36.4860   28.2790   40.6600 C   0  0  0  0  0  0  0  0  0  0  0  0
   37.3290   27.7160   39.6890 C   0  0  0  0  0  0  0  0  0  0  0  0
   36.9170   27.6420   38.4010 N   0  0  0  0  0  0  0  0  0  0  0  0
   35.6650   28.1160   38.0230 C   0  0  0  0  0  0  0  0  0  0  0  0
   34.8270   28.6620   38.9240 N   0  0  0  0  0  0  0  0  0  0  0  0
   34.5890   29.1720   40.9740 H   0  0  0  0  0  0  0  0  0  0  0  0
   38.3070   27.3320   39.9080 H   0  0  0  0  0  0  0  0  0  0  0  0
   36.9060   28.3640   41.9800 N   0  0  0  0  0  0  0  0  0  0  0  0
   36.5330   27.5530   42.9910 C   0  0  0  0  0  0  0  0  0  0  0  0
   37.2010   28.0290   44.0920 C   0  0  0  0  0  0  0  0  0  0  0  0
   37.9640   29.1110   43.7470 N   0  0  0  0  0  0  0  0  0  0  0  0
   37.7630   29.2930   42.4450 C   0  0  0  0  0  0  0  0  0  0  0  0
   38.4760   30.3890   41.8710 N   0  0  0  0  0  0  0  0  0  0  0  0
   39.7500   30.7260   42.2710 C   0  0  0  0  0  0  0  0  0  0  0  0
   40.1990   31.8140   41.5610 N   0  0  0  0  0  0  0  0  0  0  0  0
   39.2270   32.1740   40.7150 C   0  0  0  0  0  0  0  0  0  0  0  0
   39.1280   33.1820   39.7820 C   0  0  0  0  0  0  0  0  0  0  0  0
   37.9600   33.2230   39.1120 N   0  0  0  0  0  0  0  0  0  0  0  0
   36.9420   32.3750   39.3020 C   0  0  0  0  0  0  0  0  0  0  0  0
   37.0220   31.3840   40.2080 N   0  0  0  0  0  0  0  0  0  0  0  0
   38.1720   31.3060   40.9000 C   0  0  0  0  0  0  0  0  0  0  0  0
   40.1840   34.1070   39.5450 N   0  0  0  0  0  0  0  0  0  0  0  0
   35.8540   26.7140   42.9290 H   0  0  0  0  0  0  0  0  0  0  0  0
   37.1210   27.5900   45.0950 H   0  0  0  0  0  0  0  0  0  0  0  0
   40.4070   30.2980   43.0050 H   0  0  0  0  0  0  0  0  0  0  0  0
   36.0250   32.4680   38.7240 H   0  0  0  0  0  0  0  0  0  0  0  0
   40.5090   34.3790   38.5840 H   0  0  0  0  0  0  0  0  0  0  0  0
   40.7260   34.5940   40.2960 H   0  0  0  0  0  0  0  0  0  0  0  0
   35.2010   28.0520   36.6320 C   0  0  0  0  0  0  0  0  0  0  0  0
   34.0330   29.0010   36.4000 C   0  0  0  0  0  0  0  0  0  0  0  0
   33.6930   28.8510   35.3580 H   0  0  0  0  0  0  0  0  0  0  0  0
   33.2160   28.6950   37.0860 H   0  0  0  0  0  0  0  0  0  0  0  0
   34.3390   30.0380   36.5260 H   0  0  0  0  0  0  0  0  0  0  0  0
   34.6660   26.6560   36.3300 C   0  0  0  0  0  0  0  0  0  0  0  0
   35.1820   25.8880   36.9720 H   0  0  0  0  0  0  0  0  0  0  0  0
   33.5860   26.6220   36.5070 H   0  0  0  0  0  0  0  0  0  0  0  0
   34.8550   26.3940   35.2670 H   0  0  0  0  0  0  0  0  0  0  0  0
   36.2990   28.3170   35.6470 C   0  0  0  0  0  0  0  0  0  0  0  0
   37.2760   28.3490   36.2820 H   0  0  0  0  0  0  0  0  0  0  0  0
   36.5170   27.3600   35.0580 H   0  0  0  0  0  0  0  0  0  0  0  0
   36.3520   29.4630   34.7930 C   0  0  0  0  0  0  0  0  0  0  0  0
   36.3990   29.0260   33.4620 C   0  0  0  0  0  0  0  0  0  0  0  0
   36.3340   28.0030   33.0530 H   0  0  0  0  0  0  0  0  0  0  0  0
   36.5570   29.8770   32.3570 C   0  0  0  0  0  0  0  0  0  0  0  0
   36.6740   31.2410   32.5940 C   0  0  0  0  0  0  0  0  0  0  0  0
   36.7990   31.9870   31.8230 H   0  0  0  0  0  0  0  0  0  0  0  0
   36.6230   31.6370   33.9080 C   0  0  0  0  0  0  0  0  0  0  0  0
   36.7270   32.6890   34.1170 H   0  0  0  0  0  0  0  0  0  0  0  0
   36.4680   30.8180   35.0060 C   0  0  0  0  0  0  0  0  0  0  0  0
  1  2  1  0  0  0  0
  1  7  1  0  0  0  0
  2  9  1  0  0  0  0
  3  8  1  0  0  0  0
  3  2  2  0  0  0  0
  4  3  1  0  0  0  0
  5  4  2  0  0  0  0
  5  6  1  0  0  0  0
  6  1  2  0  0  0  0
  9 13  1  0  0  0  0
  9 10  1  0  0  0  0
 10 11  2  0  0  0  0
 11 25  1  0  0  0  0
 12 11  1  0  0  0  0
 13 12  2  0  0  0  0
 14 15  1  0  0  0  0
 14 13  1  0  0  0  0
 15 26  1  0  0  0  0
 16 15  2  0  0  0  0
 17 22  1  0  0  0  0
 17 16  1  0  0  0  0
 18 17  2  0  0  0  0
 19 20  2  0  0  0  0
 19 18  1  0  0  0  0
 20 21  1  0  0  0  0
 21 22  2  0  0  0  0
 22 14  1  0  0  0  0
 23 18  1  0  0  0  0
 23 29  1  0  0  0  0
 24 10  1  0  0  0  0
 27 20  1  0  0  0  0
 28 23  1  0  0  0  0
 30  5  1  0  0  0  0
 31 34  1  0  0  0  0
 31 30  1  0  0  0  0
 31 33  1  0  0  0  0
 32 31  1  0  0  0  0
 35 37  1  0  0  0  0
 35 30  1  0  0  0  0
 35 36  1  0  0  0  0
 38 35  1  0  0  0  0
 39 40  1  0  0  0  0
 39 30  1  0  0  0  0
 41 39  1  0  0  0  0
 42 50  1  0  0  0  0
 42 39  1  0  0  0  0
 43 42  2  0  0  0  0
 44 43  1  0  0  0  0
 45 46  2  0  0  0  0
 45 43  1  0  0  0  0
 46 48  1  0  0  0  0
 47 46  1  0  0  0  0
 48 49  1  0  0  0  0
 48 50  2  0  0  0  0
M  END
>  <minimizedAffinity>
-6.3514452

>  <minimizedRMSD>
1.42437923

$$$$
