
 OpenBabel03242508553D

 38 41  0  0  0  0  0  0  0  0999 V2000
   37.5890   28.1840   41.4110 C   0  0  0  0  0  0  0  0  0  0  0  0
   36.3540   27.9270   40.8390 C   0  0  0  0  0  0  0  0  0  0  0  0
   35.9090   29.0890   40.3260 N   0  0  0  0  0  0  0  0  0  0  0  0
   36.7840   30.0830   40.5340 C   0  0  0  0  0  0  0  0  0  0  0  0
   36.6990   31.4030   40.1680 C   0  0  0  0  0  0  0  0  0  0  0  0
   37.7630   32.2300   40.5150 C   0  0  0  0  0  0  0  0  0  0  0  0
   38.8600   31.7140   41.2040 C   0  0  0  0  0  0  0  0  0  0  0  0
   38.9340   30.3850   41.5670 C   0  0  0  0  0  0  0  0  0  0  0  0
   37.8690   29.5440   41.2240 C   0  0  0  0  0  0  0  0  0  0  0  0
   35.8740   26.9450   40.8310 H   0  0  0  0  0  0  0  0  0  0  0  0
   35.8460   31.8090   39.6310 H   0  0  0  0  0  0  0  0  0  0  0  0
   37.7860   33.2830   40.2690 H   0  0  0  0  0  0  0  0  0  0  0  0
   39.6710   32.3860   41.4570 H   0  0  0  0  0  0  0  0  0  0  0  0
   39.7750   29.9530   42.1040 H   0  0  0  0  0  0  0  0  0  0  0  0
   39.6040   26.6260   44.0430 C   0  0  0  0  0  0  0  0  0  0  0  0
   40.1130   25.4500   43.3880 C   0  0  0  0  0  0  0  0  0  0  0  0
   39.7420   25.2340   42.0550 C   0  0  0  0  0  0  0  0  0  0  0  0
   38.9310   26.1350   41.4590 N   0  0  0  0  0  0  0  0  0  0  0  0
   38.4680   27.2290   42.0960 C   0  0  0  0  0  0  0  0  0  0  0  0
   38.8040   27.4660   43.3710 N   0  0  0  0  0  0  0  0  0  0  0  0
   39.8490   26.8570   45.0710 H   0  0  0  0  0  0  0  0  0  0  0  0
   40.7450   24.7950   43.9310 H   0  0  0  0  0  0  0  0  0  0  0  0
   40.1070   24.3600   41.5330 H   0  0  0  0  0  0  0  0  0  0  0  0
   34.6340   29.1500   39.6550 C   0  0  0  0  0  0  0  0  0  0  0  0
   34.3710   30.2180   39.5560 H   0  0  0  0  0  0  0  0  0  0  0  0
   33.8140   28.6970   40.2600 H   0  0  0  0  0  0  0  0  0  0  0  0
   34.6260   28.4380   38.3310 C   0  0  0  0  0  0  0  0  0  0  0  0
   35.6540   28.5570   37.8920 H   0  0  0  0  0  0  0  0  0  0  0  0
   34.5130   27.3510   38.5260 H   0  0  0  0  0  0  0  0  0  0  0  0
   33.6260   28.9610   37.3960 C   0  0  0  0  0  0  0  0  0  0  0  0
   34.0560   28.9670   36.0750 C   0  0  0  0  0  0  0  0  0  0  0  0
   35.0210   28.6260   35.7340 H   0  0  0  0  0  0  0  0  0  0  0  0
   33.2340   29.4300   35.0560 C   0  0  0  0  0  0  0  0  0  0  0  0
   31.9720   29.8890   35.3910 C   0  0  0  0  0  0  0  0  0  0  0  0
   31.3260   30.2530   34.5990 H   0  0  0  0  0  0  0  0  0  0  0  0
   31.5730   29.8720   36.7180 C   0  0  0  0  0  0  0  0  0  0  0  0
   30.5930   30.2270   36.9860 H   0  0  0  0  0  0  0  0  0  0  0  0
   32.3720   29.4160   37.7480 C   0  0  0  0  0  0  0  0  0  0  0  0
  1 19  1  0  0  0  0
  2  1  2  0  0  0  0
  3  4  1  0  0  0  0
  3  2  1  0  0  0  0
  4  9  1  0  0  0  0
  5  6  1  0  0  0  0
  5  4  2  0  0  0  0
  6  7  2  0  0  0  0
  7 13  1  0  0  0  0
  7  8  1  0  0  0  0
  8 14  1  0  0  0  0
  9  1  1  0  0  0  0
  9  8  2  0  0  0  0
 10  2  1  0  0  0  0
 11  5  1  0  0  0  0
 12  6  1  0  0  0  0
 15 21  1  0  0  0  0
 16 22  1  0  0  0  0
 16 15  1  0  0  0  0
 17 16  2  0  0  0  0
 18 17  1  0  0  0  0
 18 19  2  0  0  0  0
 19 20  1  0  0  0  0
 20 15  2  0  0  0  0
 23 17  1  0  0  0  0
 24 26  1  0  0  0  0
 24  3  1  0  0  0  0
 25 24  1  0  0  0  0
 27 29  1  0  0  0  0
 27 24  1  0  0  0  0
 28 27  1  0  0  0  0
 30 38  1  0  0  0  0
 30 27  1  0  0  0  0
 31 30  2  0  0  0  0
 32 31  1  0  0  0  0
 33 34  2  0  0  0  0
 33 31  1  0  0  0  0
 34 36  1  0  0  0  0
 35 34  1  0  0  0  0
 36 37  1  0  0  0  0
 36 38  2  0  0  0  0
M  END
>  <minimizedAffinity>
-5.38850164

>  <minimizedRMSD>
0.846934736

$$$$
