
 OpenBabel03242509183D

 32 35  0  0  1  0  0  0  0  0999 V2000
   38.3180   29.1770   41.9310 C   0  0  1  0  0  0  0  0  0  0  0  0
   37.6040   28.8540   43.1770 C   0  0  0  0  0  0  0  0  0  0  0  0
   36.9070   28.4420   41.9640 C   0  0  2  0  0  0  0  0  0  0  0  0
   39.1800   28.5990   41.6650 H   0  0  0  0  0  0  0  0  0  0  0  0
   38.0280   28.0920   43.8380 H   0  0  0  0  0  0  0  0  0  0  0  0
   37.2480   29.7600   43.7380 H   0  0  0  0  0  0  0  0  0  0  0  0
   36.2390   29.0920   41.3370 H   0  0  0  0  0  0  0  0  0  0  0  0
   37.0120   27.0140   41.5300 C   0  0  0  0  0  0  0  0  0  0  0  0
   37.1280   26.0670   42.5600 C   0  0  0  0  0  0  0  0  0  0  0  0
   36.9770   24.7380   42.2830 C   0  0  0  0  0  0  0  0  0  0  0  0
   36.7110   24.3530   40.9880 C   0  0  0  0  0  0  0  0  0  0  0  0
   36.6050   25.2880   40.0010 C   0  0  0  0  0  0  0  0  0  0  0  0
   36.7630   26.6620   40.2650 C   0  0  0  0  0  0  0  0  0  0  0  0
   37.3390   26.4270   43.5510 H   0  0  0  0  0  0  0  0  0  0  0  0
   37.0770   24.0650   43.1100 H   0  0  0  0  0  0  0  0  0  0  0  0
   36.6070   23.2740   40.8970 H   0  0  0  0  0  0  0  0  0  0  0  0
   36.3920   24.7810   39.0480 H   0  0  0  0  0  0  0  0  0  0  0  0
   36.8440   27.3080   38.9770 C   0  0  0  0  0  0  0  0  0  0  0  0
   37.7080   26.8880   37.9380 C   0  0  0  0  0  0  0  0  0  0  0  0
   37.5160   27.6180   36.8280 N   0  0  0  0  0  0  0  0  0  0  0  0
   36.5610   28.5290   37.0370 C   0  0  0  0  0  0  0  0  0  0  0  0
   36.2260   28.2860   38.2990 N   0  0  0  0  0  0  0  0  0  0  0  0
   35.4860   28.8600   38.8010 H   0  0  0  0  0  0  0  0  0  0  0  0
   38.2050   30.5840   41.3720 C   0  0  0  0  0  0  0  0  0  0  0  0
   37.0420   30.9250   40.6100 C   0  0  0  0  0  0  0  0  0  0  0  0
   36.9730   32.1960   40.0930 C   0  0  0  0  0  0  0  0  0  0  0  0
   38.0130   33.0720   40.3350 N   0  0  0  0  0  0  0  0  0  0  0  0
   39.0980   32.7020   41.0690 C   0  0  0  0  0  0  0  0  0  0  0  0
   39.1860   31.4330   41.5910 N   0  0  0  0  0  0  0  0  0  0  0  0
   36.1850   30.3290   40.4100 H   0  0  0  0  0  0  0  0  0  0  0  0
   36.1380   32.5360   39.5070 H   0  0  0  0  0  0  0  0  0  0  0  0
   39.8780   33.4330   41.2250 H   0  0  0  0  0  0  0  0  0  0  0  0
  1  4  1  6  0  0  0
  1  3  1  0  0  0  0
  1  2  1  0  0  0  0
  2  6  1  0  0  0  0
  2  5  1  0  0  0  0
  3  7  1  6  0  0  0
  3  2  1  0  0  0  0
  8  3  1  0  0  0  0
  8  9  1  0  0  0  0
  9 14  1  0  0  0  0
 10  9  2  0  0  0  0
 10 15  1  0  0  0  0
 11 10  1  0  0  0  0
 12 13  1  0  0  0  0
 12 11  2  0  0  0  0
 13  8  2  0  0  0  0
 16 11  1  0  0  0  0
 17 12  1  0  0  0  0
 18 13  1  0  0  0  0
 19 18  2  0  0  0  0
 20 21  2  0  0  0  0
 20 19  1  0  0  0  0
 21 22  1  0  0  0  0
 22 23  1  0  0  0  0
 22 18  1  0  0  0  0
 24 29  1  0  0  0  0
 24  1  1  0  0  0  0
 25 24  2  0  0  0  0
 26 27  2  0  0  0  0
 26 25  1  0  0  0  0
 27 28  1  0  0  0  0
 28 32  1  0  0  0  0
 28 29  2  0  0  0  0
 30 25  1  0  0  0  0
 31 26  1  0  0  0  0
M  END
>  <minimizedAffinity>
-5.15873957

>  <minimizedRMSD>
0.926495552

$$$$
