
 OpenBabel03242507383D

 35 37  0  0  1  0  0  0  0  0999 V2000
   36.9380   27.5430   39.8980 C   0  0  2  0  0  0  0  0  0  0  0  0
   36.5700   26.0850   39.9250 C   0  0  0  0  0  0  0  0  0  0  0  0
   36.0290   25.8870   38.5250 C   0  0  0  0  0  0  0  0  0  0  0  0
   36.6830   26.9100   37.6740 C   0  0  0  0  0  0  0  0  0  0  0  0
   37.7320   27.6070   38.6090 C   0  0  1  0  0  0  0  0  0  0  0  0
   36.1100   28.2220   39.6670 H   0  0  0  0  0  0  0  0  0  0  0  0
   37.4260   25.4300   40.1430 H   0  0  0  0  0  0  0  0  0  0  0  0
   35.7090   25.8950   40.6170 H   0  0  0  0  0  0  0  0  0  0  0  0
   34.9220   25.8910   38.4830 H   0  0  0  0  0  0  0  0  0  0  0  0
   36.3810   24.8810   38.1750 H   0  0  0  0  0  0  0  0  0  0  0  0
   37.2970   26.4850   36.8370 H   0  0  0  0  0  0  0  0  0  0  0  0
   35.9650   27.6580   37.2850 H   0  0  0  0  0  0  0  0  0  0  0  0
   38.6450   27.0230   38.6460 H   0  0  0  0  0  0  0  0  0  0  0  0
   38.4830   29.3190   42.8080 C   0  0  0  0  0  0  0  0  0  0  0  0
   37.9180   29.1940   41.4780 C   0  0  0  0  0  0  0  0  0  0  0  0
   37.6230   27.9280   41.0950 C   0  0  0  0  0  0  0  0  0  0  0  0
   37.8780   26.8870   41.9740 N   0  0  0  0  0  0  0  0  0  0  0  0
   38.3970   27.0490   43.1830 C   0  0  0  0  0  0  0  0  0  0  0  0
   38.7050   28.2950   43.6060 N   0  0  0  0  0  0  0  0  0  0  0  0
   38.7410   30.3000   43.1770 H   0  0  0  0  0  0  0  0  0  0  0  0
   38.5810   26.2100   43.8390 H   0  0  0  0  0  0  0  0  0  0  0  0
   37.7870   30.3440   40.7030 N   0  0  0  0  0  0  0  0  0  0  0  0
   36.7170   31.2850   40.8390 C   0  0  0  0  0  0  0  0  0  0  0  0
   35.5570   30.8010   41.1470 N   0  0  0  0  0  0  0  0  0  0  0  0
   37.0670   32.6830   40.6320 N   0  0  0  0  0  0  0  0  0  0  0  0
   34.7340   31.4080   41.2800 H   0  0  0  0  0  0  0  0  0  0  0  0
   38.4870   30.6490   39.9820 H   0  0  0  0  0  0  0  0  0  0  0  0
   37.1830   33.0640   39.6620 H   0  0  0  0  0  0  0  0  0  0  0  0
   37.1900   33.2740   41.5030 H   0  0  0  0  0  0  0  0  0  0  0  0
   37.8380   28.9310   37.9770 C   0  0  0  0  0  0  0  0  0  0  0  0
   39.0620   29.5550   37.7550 C   0  0  0  0  0  0  0  0  0  0  0  0
   38.7190   30.7280   37.1530 N   0  0  0  0  0  0  0  0  0  0  0  0
   37.3620   30.7950   37.0240 C   0  0  0  0  0  0  0  0  0  0  0  0
   36.7970   29.6660   37.5410 N   0  0  0  0  0  0  0  0  0  0  0  0
   35.7950   29.3960   37.6030 H   0  0  0  0  0  0  0  0  0  0  0  0
  1  6  1  6  0  0  0
  1  2  1  0  0  0  0
  1 16  1  0  0  0  0
  2  7  1  0  0  0  0
  2  8  1  0  0  0  0
  3  2  1  0  0  0  0
  4  3  1  0  0  0  0
  4  5  1  0  0  0  0
  5 13  1  1  0  0  0
  5  1  1  0  0  0  0
  9  3  1  0  0  0  0
 10  3  1  0  0  0  0
 11  4  1  0  0  0  0
 12  4  1  0  0  0  0
 14 20  1  0  0  0  0
 14 19  1  0  0  0  0
 15 14  2  0  0  0  0
 16 15  1  0  0  0  0
 16 17  2  0  0  0  0
 17 18  1  0  0  0  0
 18 19  2  0  0  0  0
 18 21  1  0  0  0  0
 22 23  1  0  0  0  0
 22 15  1  0  0  0  0
 23 24  2  0  0  0  0
 24 26  1  0  0  0  0
 25 23  1  0  0  0  0
 25 29  1  0  0  0  0
 27 22  1  0  0  0  0
 28 25  1  0  0  0  0
 30  5  1  0  0  0  0
 31 30  2  0  0  0  0
 32 31  1  0  0  0  0
 33 32  2  0  0  0  0
 33 34  1  0  0  0  0
 34 35  1  0  0  0  0
 34 30  1  0  0  0  0
M  END
>  <minimizedAffinity>
-5.06672955

>  <minimizedRMSD>
0.259741813

$$$$
