
 OpenBabel03242508403D

 28 30  0  0  1  0  0  0  0  0999 V2000
   39.5820   30.1680   42.4290 C   0  0  2  0  0  0  0  0  0  0  0  0
   41.0280   30.2380   42.1350 C   0  0  0  0  0  0  0  0  0  0  0  0
   41.5920   28.9210   42.6740 C   0  0  0  0  0  0  0  0  0  0  0  0
   40.4130   28.1430   43.1630 C   0  0  0  0  0  0  0  0  0  0  0  0
   39.2610   28.7020   42.2970 C   0  0  1  0  0  0  0  0  0  0  0  0
   39.3830   30.4210   43.4920 H   0  0  0  0  0  0  0  0  0  0  0  0
   41.5200   31.0770   42.6930 H   0  0  0  0  0  0  0  0  0  0  0  0
   41.2850   30.3730   41.0720 H   0  0  0  0  0  0  0  0  0  0  0  0
   41.9910   28.3620   41.8020 H   0  0  0  0  0  0  0  0  0  0  0  0
   42.3650   29.1120   43.4440 H   0  0  0  0  0  0  0  0  0  0  0  0
   40.1900   28.4430   44.2060 H   0  0  0  0  0  0  0  0  0  0  0  0
   40.4990   27.0480   43.0280 H   0  0  0  0  0  0  0  0  0  0  0  0
   39.2970   28.2990   41.2900 H   0  0  0  0  0  0  0  0  0  0  0  0
   37.4580   30.6250   41.0620 C   0  0  0  0  0  0  0  0  0  0  0  0
   38.7290   30.9910   41.5600 C   0  0  0  0  0  0  0  0  0  0  0  0
   39.2330   32.2470   41.2230 C   0  0  0  0  0  0  0  0  0  0  0  0
   38.4790   33.0570   40.4310 N   0  0  0  0  0  0  0  0  0  0  0  0
   37.2490   32.6820   39.9580 C   0  0  0  0  0  0  0  0  0  0  0  0
   36.7500   31.4490   40.2880 N   0  0  0  0  0  0  0  0  0  0  0  0
   37.1070   29.6600   41.3410 H   0  0  0  0  0  0  0  0  0  0  0  0
   40.1410   32.7580   41.4480 H   0  0  0  0  0  0  0  0  0  0  0  0
   36.6430   33.3010   39.3370 H   0  0  0  0  0  0  0  0  0  0  0  0
   38.0550   28.2530   43.0330 C   0  0  0  0  0  0  0  0  0  0  0  0
   37.2230   27.1950   42.6360 C   0  0  0  0  0  0  0  0  0  0  0  0
   36.2930   27.1280   43.5790 N   0  0  0  0  0  0  0  0  0  0  0  0
   36.5300   28.0790   44.5000 C   0  0  0  0  0  0  0  0  0  0  0  0
   37.6180   28.8060   44.2040 N   0  0  0  0  0  0  0  0  0  0  0  0
   38.0840   29.6060   44.6840 H   0  0  0  0  0  0  0  0  0  0  0  0
  1  6  1  1  0  0  0
  2  1  1  0  0  0  0
  2  3  1  0  0  0  0
  2  7  1  0  0  0  0
  3  4  1  0  0  0  0
  3 10  1  0  0  0  0
  4 11  1  0  0  0  0
  5 13  1  6  0  0  0
  5  1  1  0  0  0  0
  5 23  1  0  0  0  0
  5  4  1  0  0  0  0
  8  2  1  0  0  0  0
  9  3  1  0  0  0  0
 12  4  1  0  0  0  0
 14 20  1  0  0  0  0
 14 15  1  0  0  0  0
 15  1  1  0  0  0  0
 16 21  1  0  0  0  0
 16 15  2  0  0  0  0
 17 16  1  0  0  0  0
 18 19  1  0  0  0  0
 18 17  2  0  0  0  0
 19 14  2  0  0  0  0
 22 18  1  0  0  0  0
 23 27  1  0  0  0  0
 24 23  2  0  0  0  0
 24 25  1  0  0  0  0
 25 26  2  0  0  0  0
 27 26  1  0  0  0  0
 27 28  1  0  0  0  0
M  END
>  <minimizedAffinity>
-4.45874214

>  <minimizedRMSD>
3.6462028

$$$$
