
 OpenBabel03242503323D

 38 41  0  0  1  0  0  0  0  0999 V2000
   37.5570   28.9010   41.8490 N   0  0  0  0  0  0  0  0  0  0  0  0
   37.0220   28.6040   43.0280 C   0  0  0  0  0  0  0  0  0  0  0  0
   36.6670   27.3170   43.4030 C   0  0  0  0  0  0  0  0  0  0  0  0
   36.8670   26.2500   42.5290 C   0  0  0  0  0  0  0  0  0  0  0  0
   36.5580   25.0980   42.8460 O   0  0  0  0  0  0  0  0  0  0  0  0
   37.4130   26.5980   41.3420 N   0  0  0  0  0  0  0  0  0  0  0  0
   37.7360   27.8600   41.0330 C   0  0  0  0  0  0  0  0  0  0  0  0
   38.2470   28.0720   39.8840 O   0  0  0  0  0  0  0  0  0  0  0  0
   36.8390   29.3890   43.7570 H   0  0  0  0  0  0  0  0  0  0  0  0
   36.2300   27.1350   44.3890 H   0  0  0  0  0  0  0  0  0  0  0  0
   37.6380   25.5310   40.3760 C   0  0  2  0  0  0  0  0  0  0  0  0
   36.4650   24.7340   40.0000 C   0  0  0  0  0  0  0  0  0  0  0  0
   37.1160   23.4490   39.4450 C   0  0  0  0  0  0  0  0  0  0  0  0
   38.1260   23.1550   40.4930 C   0  0  0  0  0  0  0  0  0  0  0  0
   38.6410   24.5210   40.8820 C   0  0  1  0  0  0  0  0  0  0  0  0
   38.0470   25.9870   39.4260 H   0  0  0  0  0  0  0  0  0  0  0  0
   35.9780   25.1790   39.0790 H   0  0  0  0  0  0  0  0  0  0  0  0
   35.6660   24.5320   40.6750 H   0  0  0  0  0  0  0  0  0  0  0  0
   36.3630   22.6340   39.4040 H   0  0  0  0  0  0  0  0  0  0  0  0
   37.5970   23.6670   38.4870 H   0  0  0  0  0  0  0  0  0  0  0  0
   38.9640   22.5720   40.0540 H   0  0  0  0  0  0  0  0  0  0  0  0
   37.7230   22.5850   41.3550 H   0  0  0  0  0  0  0  0  0  0  0  0
   38.6490   24.5970   42.0060 H   0  0  0  0  0  0  0  0  0  0  0  0
   40.0070   24.7230   40.3990 C   0  0  0  0  0  0  0  0  0  0  0  0
   41.0400   25.3710   41.0400 C   0  0  0  0  0  0  0  0  0  0  0  0
   42.1480   25.3390   40.2490 N   0  0  0  0  0  0  0  0  0  0  0  0
   41.8360   24.6860   39.1240 C   0  0  0  0  0  0  0  0  0  0  0  0
   40.5400   24.3130   39.2150 N   0  0  0  0  0  0  0  0  0  0  0  0
   39.9510   23.7760   38.5100 H   0  0  0  0  0  0  0  0  0  0  0  0
   37.9170   30.2050   41.4650 C   0  0  0  0  0  0  0  0  0  0  0  0
   39.1840   30.8010   41.7600 C   0  0  0  0  0  0  0  0  0  0  0  0
   39.3720   32.1160   41.2980 C   0  0  0  0  0  0  0  0  0  0  0  0
   38.3880   32.7320   40.6250 N   0  0  0  0  0  0  0  0  0  0  0  0
   37.2000   32.1460   40.3600 C   0  0  0  0  0  0  0  0  0  0  0  0
   36.9880   30.8960   40.7850 N   0  0  0  0  0  0  0  0  0  0  0  0
   39.8860   30.1980   42.3070 H   0  0  0  0  0  0  0  0  0  0  0  0
   40.3350   32.5520   41.5280 H   0  0  0  0  0  0  0  0  0  0  0  0
   36.4320   32.6770   39.8140 H   0  0  0  0  0  0  0  0  0  0  0  0
  1  2  1  0  0  0  0
  2  3  2  0  0  0  0
  2  9  1  0  0  0  0
  3 10  1  0  0  0  0
  4  5  2  0  0  0  0
  4  3  1  0  0  0  0
  6  4  1  0  0  0  0
  7  6  1  0  0  0  0
  7  1  1  0  0  0  0
  8  7  2  0  0  0  0
 11 16  1  6  0  0  0
 11 15  1  0  0  0  0
 11  6  1  0  0  0  0
 12 11  1  0  0  0  0
 12 18  1  0  0  0  0
 13 12  1  0  0  0  0
 13 14  1  0  0  0  0
 14 15  1  0  0  0  0
 14 22  1  0  0  0  0
 15 23  1  1  0  0  0
 17 12  1  0  0  0  0
 19 13  1  0  0  0  0
 20 13  1  0  0  0  0
 21 14  1  0  0  0  0
 24 15  1  0  0  0  0
 24 25  2  0  0  0  0
 26 25  1  0  0  0  0
 27 28  1  0  0  0  0
 27 26  2  0  0  0  0
 28 24  1  0  0  0  0
 29 28  1  0  0  0  0
 30 31  1  0  0  0  0
 30  1  1  0  0  0  0
 31 36  1  0  0  0  0
 32 37  1  0  0  0  0
 32 31  2  0  0  0  0
 33 32  1  0  0  0  0
 34 33  2  0  0  0  0
 34 35  1  0  0  0  0
 35 30  2  0  0  0  0
 38 34  1  0  0  0  0
M  END
>  <minimizedAffinity>
-5.11530781

>  <minimizedRMSD>
0.491660744

$$$$
