
 OpenBabel03242509323D

 18 19  0  0  0  0  0  0  0  0999 V2000
   37.8500   28.7080   43.5460 C   0  0  0  0  0  0  0  0  0  0  0  0
   38.3850   27.3890   43.6730 C   0  0  0  0  0  0  0  0  0  0  0  0
   38.2760   26.5680   42.5340 C   0  0  0  0  0  0  0  0  0  0  0  0
   37.6760   27.0690   41.3930 N   0  0  0  0  0  0  0  0  0  0  0  0
   37.1990   28.3160   41.3520 C   0  0  0  0  0  0  0  0  0  0  0  0
   37.2820   29.1240   42.4070 N   0  0  0  0  0  0  0  0  0  0  0  0
   37.9270   29.3590   44.4220 H   0  0  0  0  0  0  0  0  0  0  0  0
   38.8460   27.0380   44.5820 H   0  0  0  0  0  0  0  0  0  0  0  0
   36.5740   28.8020   40.1280 C   0  0  0  0  0  0  0  0  0  0  0  0
   37.1630   29.5520   39.1230 C   0  0  0  0  0  3  0  0  0  0  0  0
   36.2750   29.8030   38.1660 N   0  0  0  0  0  0  0  0  0  0  0  0
   35.1100   29.2290   38.5270 C   0  0  0  0  0  3  0  0  0  0  0  0
   35.3100   28.6390   39.6980 N   0  0  0  0  0  0  0  0  0  0  0  0
   34.5580   28.1140   40.2060 H   0  0  0  0  0  0  0  0  0  0  0  0
   38.8150   25.1810   42.6050 C   0  0  0  0  0  0  0  0  0  0  0  0
   39.5810   25.0110   41.4750 F   0  0  0  0  0  0  0  0  0  0  0  0
   39.6120   24.9890   43.6980 F   0  0  0  0  0  0  0  0  0  0  0  0
   37.7860   24.2310   42.5960 F   0  0  0  0  0  0  0  0  0  0  0  0
  1  2  1  0  0  0  0
  1  7  1  0  0  0  0
  2  8  1  0  0  0  0
  3 15  1  0  0  0  0
  3  2  2  0  0  0  0
  4  3  1  0  0  0  0
  5  4  2  0  0  0  0
  5  6  1  0  0  0  0
  6  1  2  0  0  0  0
  9  5  1  0  0  0  0
 10  9  2  0  0  0  0
 11 12  2  0  0  0  0
 11 10  1  0  0  0  0
 12 13  1  0  0  0  0
 13  9  1  0  0  0  0
 13 14  1  0  0  0  0
 15 17  1  0  0  0  0
 16 15  1  0  0  0  0
 18 15  1  0  0  0  0
M  END
>  <minimizedAffinity>
-3.87059546

>  <minimizedRMSD>
1.2762804

$$$$
