
 OpenBabel03242506113D

 21 23  0  0  0  0  0  0  0  0999 V2000
   36.7620   29.9480   41.6530 C   0  0  0  0  0  0  0  0  0  0  0  0
   38.0030   29.3760   41.2110 C   0  0  0  0  0  0  0  0  0  0  0  0
   38.6950   29.9430   40.1650 C   0  0  0  0  0  0  0  0  0  0  0  0
   38.1330   31.0590   39.5730 N   0  0  0  0  0  0  0  0  0  0  0  0
   36.9440   31.5900   40.0100 C   0  0  0  0  0  0  0  0  0  0  0  0
   36.2610   31.0380   41.0470 N   0  0  0  0  0  0  0  0  0  0  0  0
   36.2640   29.4650   42.4810 H   0  0  0  0  0  0  0  0  0  0  0  0
   36.6070   32.4530   39.4790 H   0  0  0  0  0  0  0  0  0  0  0  0
   38.4140   28.1500   41.8730 C   0  0  0  0  0  0  0  0  0  0  0  0
   38.0220   26.8890   41.3320 C   0  0  0  0  0  0  0  0  0  0  0  0
   38.7530   25.6550   42.5200 S   0  0  0  0  0  0  0  0  0  0  0  0
   39.4610   27.1200   43.5470 C   0  0  0  0  0  0  0  0  0  0  0  0
   39.1320   28.0350   42.9920 N   0  0  0  0  0  0  0  0  0  0  0  0
   37.3220   26.4670   40.3930 H   0  0  0  0  0  0  0  0  0  0  0  0
   40.0380   26.9250   44.4530 H   0  0  0  0  0  0  0  0  0  0  0  0
   40.0140   29.5700   39.7130 C   0  0  0  0  0  0  0  0  0  0  0  0
   40.5880   28.6860   38.9030 N   0  0  0  0  0  0  0  0  0  0  0  0
   41.8550   28.8050   38.8670 O   0  0  0  0  0  0  0  0  0  0  0  0
   42.2420   29.7670   39.6410 C   0  0  0  0  0  0  0  0  0  0  0  0
   43.1910   30.2020   39.9090 H   0  0  0  0  0  0  0  0  0  0  0  0
   41.1020   30.2160   40.1450 N   0  0  0  0  0  0  0  0  0  0  0  0
  1  7  1  0  0  0  0
  2  1  1  0  0  0  0
  2  9  1  0  0  0  0
  3  2  2  0  0  0  0
  4  5  2  0  0  0  0
  4  3  1  0  0  0  0
  5  6  1  0  0  0  0
  6  1  2  0  0  0  0
  8  5  1  0  0  0  0
  9 13  1  0  0  0  0
 10  9  2  0  0  0  0
 10 11  1  0  0  0  0
 11 12  1  0  0  0  0
 12 15  1  0  0  0  0
 13 12  2  0  0  0  0
 14 10  1  0  0  0  0
 16 21  1  0  0  0  0
 16  3  1  0  0  0  0
 17 16  2  0  0  0  0
 18 17  1  0  0  0  0
 18 19  1  0  0  0  0
 19 20  1  0  0  0  0
 19 21  2  0  0  0  0
M  END
>  <minimizedAffinity>
-3.32452703

>  <minimizedRMSD>
1.6519618

$$$$
