
 OpenBabel03242508453D

 33 36  0  0  1  0  0  0  0  0999 V2000
   37.9190   27.3610   42.7280 C   0  0  2  0  0  0  0  0  0  0  0  0
   38.9900   27.6580   43.6890 C   0  0  0  0  0  0  0  0  0  0  0  0
   39.7360   26.3460   43.8610 C   0  0  0  0  0  0  0  0  0  0  0  0
   39.2790   25.4590   42.7510 C   0  0  0  0  0  0  0  0  0  0  0  0
   38.5420   26.3680   41.7680 C   0  0  1  0  0  0  0  0  0  0  0  0
   37.1100   26.7670   43.2420 H   0  0  0  0  0  0  0  0  0  0  0  0
   38.5210   27.8750   44.6780 H   0  0  0  0  0  0  0  0  0  0  0  0
   39.7450   28.3960   43.4010 H   0  0  0  0  0  0  0  0  0  0  0  0
   40.8380   26.4590   43.7620 H   0  0  0  0  0  0  0  0  0  0  0  0
   39.5810   25.8870   44.8560 H   0  0  0  0  0  0  0  0  0  0  0  0
   38.5950   24.7130   43.2050 H   0  0  0  0  0  0  0  0  0  0  0  0
   40.0880   24.8980   42.2480 H   0  0  0  0  0  0  0  0  0  0  0  0
   39.2100   26.8300   41.0470 H   0  0  0  0  0  0  0  0  0  0  0  0
   37.9680   29.7690   41.9140 C   0  0  0  0  0  0  0  0  0  0  0  0
   37.3340   28.5030   42.0420 C   0  0  0  0  0  0  0  0  0  0  0  0
   36.0820   28.3220   41.4740 C   0  0  0  0  0  0  0  0  0  0  0  0
   35.5060   29.3810   40.8110 N   0  0  0  0  0  0  0  0  0  0  0  0
   36.1360   30.6010   40.6980 C   0  0  0  0  0  0  0  0  0  0  0  0
   37.3810   30.7750   41.2640 N   0  0  0  0  0  0  0  0  0  0  0  0
   38.9440   29.8970   42.3600 H   0  0  0  0  0  0  0  0  0  0  0  0
   35.5220   27.3990   41.5170 H   0  0  0  0  0  0  0  0  0  0  0  0
   35.6210   31.3910   40.1610 H   0  0  0  0  0  0  0  0  0  0  0  0
   37.5610   25.4250   41.1620 C   0  0  0  0  0  0  0  0  0  0  0  0
   36.8590   24.5370   41.9010 N   0  0  0  0  0  0  0  0  0  0  0  0
   36.0930   23.8680   41.0630 O   0  0  0  0  0  0  0  0  0  0  0  0
   36.3070   24.3200   39.8430 C   0  0  0  0  0  0  0  0  0  0  0  0
   37.2140   25.2910   39.8540 N   0  0  0  0  0  0  0  0  0  0  0  0
   35.6690   23.8620   38.6110 C   0  0  0  0  0  0  0  0  0  0  0  0
   34.3880   23.7710   38.2070 N   0  0  0  0  0  0  0  0  0  0  0  0
   34.3330   23.2900   37.0000 O   0  0  0  0  0  0  0  0  0  0  0  0
   35.5610   23.0600   36.5960 C   0  0  0  0  0  0  0  0  0  0  0  0
   35.6370   22.6470   35.5780 H   0  0  0  0  0  0  0  0  0  0  0  0
   36.4340   23.4040   37.5750 N   0  0  0  0  0  0  0  0  0  0  0  0
  1  6  1  1  0  0  0
  1  2  1  0  0  0  0
  2  3  1  0  0  0  0
  2  7  1  0  0  0  0
  3 10  1  0  0  0  0
  4 11  1  0  0  0  0
  4  3  1  0  0  0  0
  5 13  1  6  0  0  0
  5  1  1  0  0  0  0
  5  4  1  0  0  0  0
  8  2  1  0  0  0  0
  9  3  1  0  0  0  0
 12  4  1  0  0  0  0
 14 15  1  0  0  0  0
 14 20  1  0  0  0  0
 15  1  1  0  0  0  0
 16 21  1  0  0  0  0
 16 15  2  0  0  0  0
 17 16  1  0  0  0  0
 18 17  2  0  0  0  0
 18 19  1  0  0  0  0
 19 14  2  0  0  0  0
 22 18  1  0  0  0  0
 23  5  1  0  0  0  0
 23 24  2  0  0  0  0
 25 24  1  0  0  0  0
 26 27  2  0  0  0  0
 26 25  1  0  0  0  0
 27 23  1  0  0  0  0
 28 26  1  0  0  0  0
 29 28  2  0  0  0  0
 30 29  1  0  0  0  0
 31 30  1  0  0  0  0
 31 33  2  0  0  0  0
 32 31  1  0  0  0  0
 33 28  1  0  0  0  0
M  END
>  <minimizedAffinity>
-4.78694296

>  <minimizedRMSD>
0.574838579

$$$$
