
 OpenBabel03242509273D

 45 49  0  0  0  0  0  0  0  0999 V2000
   36.1440   30.0700   41.1010 C   0  0  0  0  0  0  0  0  0  0  0  0
   35.5370   30.5660   41.9030 H   0  0  0  0  0  0  0  0  0  0  0  0
   36.7520   30.8770   40.6320 H   0  0  0  0  0  0  0  0  0  0  0  0
   38.6030   28.1350   42.6950 C   0  0  0  0  0  0  0  0  0  0  0  0
   37.5200   27.3020   42.7920 C   0  0  0  0  0  0  0  0  0  0  0  0
   36.4530   27.9640   42.1810 C   0  0  0  0  0  0  0  0  0  0  0  0
   36.9780   29.1360   41.7710 N   0  0  0  0  0  0  0  0  0  0  0  0
   38.2280   29.2620   42.0560 N   0  0  0  0  0  0  0  0  0  0  0  0
   37.5100   26.3190   43.2560 H   0  0  0  0  0  0  0  0  0  0  0  0
   35.4640   27.5420   42.1090 H   0  0  0  0  0  0  0  0  0  0  0  0
   41.5530   26.4410   44.2130 C   0  0  0  0  0  0  0  0  0  0  0  0
   40.2450   26.6330   43.7550 C   0  0  0  0  0  0  0  0  0  0  0  0
   39.9410   27.8790   43.1890 C   0  0  0  0  0  0  0  0  0  0  0  0
   40.8990   28.8420   43.1030 N   0  0  0  0  0  0  0  0  0  0  0  0
   42.1590   28.5920   43.5710 C   0  0  0  0  0  0  0  0  0  0  0  0
   42.4750   27.4030   44.1190 N   0  0  0  0  0  0  0  0  0  0  0  0
   41.7760   25.4910   44.6430 H   0  0  0  0  0  0  0  0  0  0  0  0
   39.5050   25.8400   43.8390 H   0  0  0  0  0  0  0  0  0  0  0  0
   43.0780   29.7130   43.4130 C   0  0  0  0  0  0  0  0  0  0  0  0
   42.5210   30.9360   43.4760 N   0  0  0  0  0  0  0  0  0  0  0  0
   43.4290   31.8470   43.3240 O   0  0  0  0  0  0  0  0  0  0  0  0
   44.5830   31.2580   43.1620 C   0  0  0  0  0  0  0  0  0  0  0  0
   45.5110   31.7930   43.0140 H   0  0  0  0  0  0  0  0  0  0  0  0
   44.3940   29.9250   43.2130 N   0  0  0  0  0  0  0  0  0  0  0  0
   35.2540   29.5040   40.0410 C   0  0  0  0  0  0  0  0  0  0  0  0
   34.7750   28.6090   40.4080 H   0  0  0  0  0  0  0  0  0  0  0  0
   34.5530   30.3950   39.9070 H   0  0  0  0  0  0  0  0  0  0  0  0
   35.8730   29.4090   38.6950 C   0  0  0  0  0  0  0  0  0  0  0  0
   37.1910   29.5370   38.3700 C   0  0  0  0  0  0  0  0  0  0  0  0
   37.7110   29.5230   37.1140 C   0  0  0  0  0  0  0  0  0  0  0  0
   36.8670   29.3690   36.0390 C   0  0  0  0  0  0  0  0  0  0  0  0
   35.5230   29.2330   36.2970 C   0  0  0  0  0  0  0  0  0  0  0  0
   34.7350   29.0880   35.1820 C   0  0  0  0  0  0  0  0  0  0  0  0
   33.3760   28.9440   35.3220 C   0  0  0  0  0  0  0  0  0  0  0  0
   32.8260   28.9450   36.6000 C   0  0  0  0  0  0  0  0  0  0  0  0
   33.6690   29.0940   37.6640 C   0  0  0  0  0  0  0  0  0  0  0  0
   35.0140   29.2470   37.5930 C   0  0  0  0  0  0  0  0  0  0  0  0
   37.8490   29.6610   39.2450 H   0  0  0  0  0  0  0  0  0  0  0  0
   38.7830   29.6370   37.0350 H   0  0  0  0  0  0  0  0  0  0  0  0
   37.2790   29.3610   35.0620 H   0  0  0  0  0  0  0  0  0  0  0  0
   35.1240   29.0800   34.1740 H   0  0  0  0  0  0  0  0  0  0  0  0
   32.7430   28.8320   34.4510 H   0  0  0  0  0  0  0  0  0  0  0  0
   31.7570   28.8290   36.7090 H   0  0  0  0  0  0  0  0  0  0  0  0
   33.0610   29.0690   38.9050 O   0  0  0  0  0  0  0  0  0  0  0  0
   32.1210   29.4100   39.0630 H   0  0  0  0  0  0  0  0  0  0  0  0
  1  7  1  0  0  0  0
  1  2  1  0  0  0  0
  3  1  1  0  0  0  0
  4  5  1  0  0  0  0
  4 13  1  0  0  0  0
  5  9  1  0  0  0  0
  6  5  2  0  0  0  0
  7  8  1  0  0  0  0
  7  6  1  0  0  0  0
  8  4  2  0  0  0  0
 10  6  1  0  0  0  0
 11 17  1  0  0  0  0
 12 18  1  0  0  0  0
 12 11  2  0  0  0  0
 13 12  1  0  0  0  0
 14 13  2  0  0  0  0
 14 15  1  0  0  0  0
 15 16  2  0  0  0  0
 16 11  1  0  0  0  0
 19 20  2  0  0  0  0
 19 15  1  0  0  0  0
 21 20  1  0  0  0  0
 22 24  2  0  0  0  0
 22 21  1  0  0  0  0
 23 22  1  0  0  0  0
 24 19  1  0  0  0  0
 25 26  1  0  0  0  0
 25  1  1  0  0  0  0
 27 25  1  0  0  0  0
 28 25  1  0  0  0  0
 29 28  1  0  0  0  0
 29 38  1  0  0  0  0
 30 29  2  0  0  0  0
 31 32  2  0  0  0  0
 31 30  1  0  0  0  0
 32 37  1  0  0  0  0
 33 34  2  0  0  0  0
 33 32  1  0  0  0  0
 34 35  1  0  0  0  0
 35 43  1  0  0  0  0
 35 36  2  0  0  0  0
 36 44  1  0  0  0  0
 37 36  1  0  0  0  0
 37 28  2  0  0  0  0
 39 30  1  0  0  0  0
 40 31  1  0  0  0  0
 41 33  1  0  0  0  0
 42 34  1  0  0  0  0
 44 45  1  0  0  0  0
M  END
>  <minimizedAffinity>
-5.94090605

>  <minimizedRMSD>
0.369294941

$$$$
