
 OpenBabel03242506353D

 23 25  0  0  0  0  0  0  0  0999 V2000
   37.1440   30.1490   40.4080 C   0  0  0  0  0  0  0  0  0  0  0  0
   37.1400   31.5220   40.5200 C   0  0  0  0  0  0  0  0  0  0  0  0
   37.1340   32.2510   39.3460 C   0  0  0  0  0  0  0  0  0  0  0  0
   37.1310   31.6510   38.1220 N   0  0  0  0  0  0  0  0  0  0  0  0
   37.1350   30.2980   38.0540 C   0  0  0  0  0  0  0  0  0  0  0  0
   37.1410   29.5750   39.1960 N   0  0  0  0  0  0  0  0  0  0  0  0
   37.1410   32.0350   41.4840 H   0  0  0  0  0  0  0  0  0  0  0  0
   37.1300   33.3410   39.4130 H   0  0  0  0  0  0  0  0  0  0  0  0
   37.9610   28.8540   43.7390 C   0  0  0  0  0  0  0  0  0  0  0  0
   37.1210   27.7160   43.8420 C   0  0  0  0  0  0  0  0  0  0  0  0
   36.2970   27.4280   42.7610 C   0  0  0  0  0  0  0  0  0  0  0  0
   36.3470   28.2530   41.6720 N   0  0  0  0  0  0  0  0  0  0  0  0
   37.1500   29.3210   41.6020 C   0  0  0  0  0  0  0  0  0  0  0  0
   37.9470   29.6130   42.6300 N   0  0  0  0  0  0  0  0  0  0  0  0
   38.5890   29.0440   44.6070 H   0  0  0  0  0  0  0  0  0  0  0  0
   37.0500   27.0490   44.6640 H   0  0  0  0  0  0  0  0  0  0  0  0
   35.6030   26.6220   42.6510 H   0  0  0  0  0  0  0  0  0  0  0  0
   37.1330   29.6150   36.7650 C   0  0  0  0  0  0  0  0  0  0  0  0
   37.8690   28.5510   36.4080 N   0  0  0  0  0  0  0  0  0  0  0  0
   37.5640   28.2600   35.1800 O   0  0  0  0  0  0  0  0  0  0  0  0
   36.6560   29.0810   34.6970 C   0  0  0  0  0  0  0  0  0  0  0  0
   36.1620   29.1630   33.7500 H   0  0  0  0  0  0  0  0  0  0  0  0
   36.3750   29.9520   35.7070 N   0  0  0  0  0  0  0  0  0  0  0  0
  1  2  1  0  0  0  0
  1 13  1  0  0  0  0
  2  7  1  0  0  0  0
  3  8  1  0  0  0  0
  3  2  2  0  0  0  0
  4  3  1  0  0  0  0
  5  4  2  0  0  0  0
  5  6  1  0  0  0  0
  6  1  2  0  0  0  0
  9 10  1  0  0  0  0
  9 15  1  0  0  0  0
 10 16  1  0  0  0  0
 11 10  2  0  0  0  0
 12 11  1  0  0  0  0
 13 12  2  0  0  0  0
 13 14  1  0  0  0  0
 14  9  2  0  0  0  0
 17 11  1  0  0  0  0
 18  5  1  0  0  0  0
 19 18  2  0  0  0  0
 20 19  1  0  0  0  0
 21 20  1  0  0  0  0
 21 23  2  0  0  0  0
 22 21  1  0  0  0  0
 23 18  1  0  0  0  0
M  END
>  <minimizedAffinity>
-4.33315992

>  <minimizedRMSD>
0.863121629

$$$$
