
 OpenBabel03242508343D

 38 41  0  0  0  0  0  0  0  0999 V2000
   38.4650   28.3780   43.2600 C   0  0  0  0  0  0  0  0  0  0  0  0
   38.1630   27.1770   42.5640 C   0  0  0  0  0  0  0  0  0  0  0  0
   37.2580   27.2620   41.5080 C   0  0  0  0  0  0  0  0  0  0  0  0
   36.7260   28.4600   41.2100 N   0  0  0  0  0  0  0  0  0  0  0  0
   37.0240   29.5710   41.8760 C   0  0  0  0  0  0  0  0  0  0  0  0
   37.9000   29.5300   42.9090 N   0  0  0  0  0  0  0  0  0  0  0  0
   39.1570   28.4000   44.0920 H   0  0  0  0  0  0  0  0  0  0  0  0
   38.6930   26.3350   42.9590 H   0  0  0  0  0  0  0  0  0  0  0  0
   36.9860   26.0080   40.8330 C   0  0  0  0  0  0  0  0  0  0  0  0
   37.5800   25.8410   39.9120 H   0  0  0  0  0  0  0  0  0  0  0  0
   35.9210   26.0470   40.4660 H   0  0  0  0  0  0  0  0  0  0  0  0
   37.0380   24.7870   41.7210 C   0  0  0  0  0  0  0  0  0  0  0  0
   37.9460   24.6850   42.3130 H   0  0  0  0  0  0  0  0  0  0  0  0
   36.1690   24.7320   42.4060 H   0  0  0  0  0  0  0  0  0  0  0  0
   36.6480   21.5260   38.9430 C   0  0  0  0  0  0  0  0  0  0  0  0
   37.7590   21.6470   39.7330 C   0  0  0  0  0  0  0  0  0  0  0  0
   37.9650   22.6550   40.6450 C   0  0  0  0  0  0  0  0  0  0  0  0
   36.9800   23.6140   40.7740 C   0  0  0  0  0  0  0  0  0  0  0  0
   35.8440   23.4950   39.9690 C   0  0  0  0  0  0  0  0  0  0  0  0
   35.6610   22.4720   39.0610 C   0  0  0  0  0  0  0  0  0  0  0  0
   37.0510   20.5240   36.6080 H   0  0  0  0  0  0  0  0  0  0  0  0
   36.4620   20.2180   37.8110 S   0  0  0  0  0  0  0  0  0  0  0  0
   37.0300   18.9590   38.3850 O   0  0  0  0  0  0  0  0  0  0  0  0
   34.9910   19.9970   37.5950 O   0  0  0  0  0  0  0  0  0  0  0  0
   36.3520   30.6520   41.3760 O   0  0  0  0  0  0  0  0  0  0  0  0
   36.9920   31.5350   40.5140 C   0  0  0  0  0  0  0  0  0  0  0  0
   36.8620   31.6920   39.1660 N   0  0  0  0  0  0  0  0  0  0  0  0
   37.6740   32.6530   38.7820 O   0  0  0  0  0  0  0  0  0  0  0  0
   38.3000   33.0940   39.8590 C   0  0  0  0  0  0  0  0  0  0  0  0
   37.9050   32.4280   40.9340 N   0  0  0  0  0  0  0  0  0  0  0  0
   39.2850   34.1670   39.8140 C   0  0  0  0  0  0  0  0  0  0  0  0
   39.0900   35.4880   40.2030 C   0  0  0  0  0  0  0  0  0  0  0  0
   40.2360   36.2040   40.0170 C   0  0  0  0  0  0  0  0  0  0  0  0
   41.1340   35.2740   39.5020 C   0  0  0  0  0  0  0  0  0  0  0  0
   40.5190   34.1310   39.4130 O   0  0  0  0  0  0  0  0  0  0  0  0
   38.1760   35.9370   40.6040 H   0  0  0  0  0  0  0  0  0  0  0  0
   40.5190   37.2310   40.1830 H   0  0  0  0  0  0  0  0  0  0  0  0
   42.1690   35.3520   39.1930 H   0  0  0  0  0  0  0  0  0  0  0  0
  1  7  1  0  0  0  0
  2  8  1  0  0  0  0
  2  1  2  0  0  0  0
  3  2  1  0  0  0  0
  4  3  2  0  0  0  0
  4  5  1  0  0  0  0
  5  6  2  0  0  0  0
  6  1  1  0  0  0  0
  9  3  1  0  0  0  0
  9 12  1  0  0  0  0
 10  9  1  0  0  0  0
 11  9  1  0  0  0  0
 12 13  1  0  0  0  0
 12 14  1  0  0  0  0
 15 20  2  0  0  0  0
 15 16  1  0  0  0  0
 16 17  2  0  0  0  0
 17 18  1  0  0  0  0
 18 12  1  0  0  0  0
 19 18  2  0  0  0  0
 20 19  1  0  0  0  0
 21 22  1  0  0  0  0
 22 23  2  0  0  0  0
 22 15  1  0  0  0  0
 24 22  2  0  0  0  0
 25  5  1  0  0  0  0
 26 30  1  0  0  0  0
 26 25  1  0  0  0  0
 27 26  2  0  0  0  0
 28 27  1  0  0  0  0
 28 29  1  0  0  0  0
 29 30  2  0  0  0  0
 31 29  1  0  0  0  0
 31 32  2  0  0  0  0
 32 36  1  0  0  0  0
 33 37  1  0  0  0  0
 33 32  1  0  0  0  0
 34 33  2  0  0  0  0
 35 34  1  0  0  0  0
 35 31  1  0  0  0  0
 38 34  1  0  0  0  0
M  END
>  <minimizedAffinity>
-6.03261232

>  <minimizedRMSD>
0.434707761

$$$$
