
 OpenBabel03242509273D

 45 49  0  0  0  0  0  0  0  0999 V2000
   36.1470   30.0740   41.1010 C   0  0  0  0  0  0  0  0  0  0  0  0
   35.5430   30.5740   41.9030 H   0  0  0  0  0  0  0  0  0  0  0  0
   36.7610   30.8770   40.6330 H   0  0  0  0  0  0  0  0  0  0  0  0
   38.5940   28.1220   42.6950 C   0  0  0  0  0  0  0  0  0  0  0  0
   37.5020   27.3010   42.7990 C   0  0  0  0  0  0  0  0  0  0  0  0
   36.4390   27.9700   42.1890 C   0  0  0  0  0  0  0  0  0  0  0  0
   36.9750   29.1340   41.7720 N   0  0  0  0  0  0  0  0  0  0  0  0
   38.2270   29.2500   42.0520 N   0  0  0  0  0  0  0  0  0  0  0  0
   37.4840   26.3190   43.2670 H   0  0  0  0  0  0  0  0  0  0  0  0
   35.4460   27.5570   42.1230 H   0  0  0  0  0  0  0  0  0  0  0  0
   41.5290   26.4100   44.2200 C   0  0  0  0  0  0  0  0  0  0  0  0
   40.2210   26.6130   43.7660 C   0  0  0  0  0  0  0  0  0  0  0  0
   39.9310   27.8550   43.1840 C   0  0  0  0  0  0  0  0  0  0  0  0
   40.9010   28.8040   43.0790 N   0  0  0  0  0  0  0  0  0  0  0  0
   42.1600   28.5440   43.5430 C   0  0  0  0  0  0  0  0  0  0  0  0
   42.4640   27.3580   44.1060 N   0  0  0  0  0  0  0  0  0  0  0  0
   41.7420   25.4630   44.6620 H   0  0  0  0  0  0  0  0  0  0  0  0
   39.4710   25.8320   43.8670 H   0  0  0  0  0  0  0  0  0  0  0  0
   43.0940   29.6500   43.3640 C   0  0  0  0  0  0  0  0  0  0  0  0
   44.2480   29.3410   42.7440 N   0  0  0  0  0  0  0  0  0  0  0  0
   44.9950   30.3940   42.6420 O   0  0  0  0  0  0  0  0  0  0  0  0
   44.3630   31.4020   43.1820 C   0  0  0  0  0  0  0  0  0  0  0  0
   44.7670   32.4030   43.2290 H   0  0  0  0  0  0  0  0  0  0  0  0
   43.1730   30.9640   43.6400 N   0  0  0  0  0  0  0  0  0  0  0  0
   35.2540   29.5140   40.0410 C   0  0  0  0  0  0  0  0  0  0  0  0
   34.7700   28.6210   40.4070 H   0  0  0  0  0  0  0  0  0  0  0  0
   34.5580   30.4080   39.9080 H   0  0  0  0  0  0  0  0  0  0  0  0
   35.8730   29.4170   38.6950 C   0  0  0  0  0  0  0  0  0  0  0  0
   37.1900   29.5460   38.3690 C   0  0  0  0  0  0  0  0  0  0  0  0
   37.7100   29.5300   37.1130 C   0  0  0  0  0  0  0  0  0  0  0  0
   36.8660   29.3710   36.0390 C   0  0  0  0  0  0  0  0  0  0  0  0
   35.5220   29.2330   36.2970 C   0  0  0  0  0  0  0  0  0  0  0  0
   34.7340   29.0840   35.1830 C   0  0  0  0  0  0  0  0  0  0  0  0
   33.3750   28.9370   35.3250 C   0  0  0  0  0  0  0  0  0  0  0  0
   32.8260   28.9410   36.6020 C   0  0  0  0  0  0  0  0  0  0  0  0
   33.6690   29.0940   37.6660 C   0  0  0  0  0  0  0  0  0  0  0  0
   35.0140   29.2500   37.5940 C   0  0  0  0  0  0  0  0  0  0  0  0
   37.8490   29.6740   39.2440 H   0  0  0  0  0  0  0  0  0  0  0  0
   38.7820   29.6450   37.0330 H   0  0  0  0  0  0  0  0  0  0  0  0
   37.2780   29.3610   35.0610 H   0  0  0  0  0  0  0  0  0  0  0  0
   35.1230   29.0730   34.1750 H   0  0  0  0  0  0  0  0  0  0  0  0
   32.7420   28.8210   34.4540 H   0  0  0  0  0  0  0  0  0  0  0  0
   31.7580   28.8220   36.7120 H   0  0  0  0  0  0  0  0  0  0  0  0
   33.0620   29.0710   38.9070 O   0  0  0  0  0  0  0  0  0  0  0  0
   32.1210   29.4100   39.0640 H   0  0  0  0  0  0  0  0  0  0  0  0
  1  7  1  0  0  0  0
  1  2  1  0  0  0  0
  3  1  1  0  0  0  0
  4  5  1  0  0  0  0
  4 13  1  0  0  0  0
  5  9  1  0  0  0  0
  6  5  2  0  0  0  0
  7  8  1  0  0  0  0
  7  6  1  0  0  0  0
  8  4  2  0  0  0  0
 10  6  1  0  0  0  0
 11 17  1  0  0  0  0
 12 18  1  0  0  0  0
 12 11  2  0  0  0  0
 13 12  1  0  0  0  0
 14 13  2  0  0  0  0
 14 15  1  0  0  0  0
 15 16  2  0  0  0  0
 16 11  1  0  0  0  0
 19 15  1  0  0  0  0
 19 24  1  0  0  0  0
 20 19  2  0  0  0  0
 21 20  1  0  0  0  0
 21 22  1  0  0  0  0
 22 23  1  0  0  0  0
 22 24  2  0  0  0  0
 25 26  1  0  0  0  0
 25  1  1  0  0  0  0
 27 25  1  0  0  0  0
 28 25  1  0  0  0  0
 29 28  1  0  0  0  0
 29 38  1  0  0  0  0
 30 29  2  0  0  0  0
 31 32  2  0  0  0  0
 31 30  1  0  0  0  0
 32 37  1  0  0  0  0
 33 34  2  0  0  0  0
 33 32  1  0  0  0  0
 34 35  1  0  0  0  0
 35 43  1  0  0  0  0
 35 36  2  0  0  0  0
 36 44  1  0  0  0  0
 37 36  1  0  0  0  0
 37 28  2  0  0  0  0
 39 30  1  0  0  0  0
 40 31  1  0  0  0  0
 41 33  1  0  0  0  0
 42 34  1  0  0  0  0
 44 45  1  0  0  0  0
M  END
>  <minimizedAffinity>
-5.84718943

>  <minimizedRMSD>
0.296771467

$$$$
