
 OpenBabel03242505273D

 34 36  0  0  1  0  0  0  0  0999 V2000
   36.6390   31.4120   40.5710 N   0  0  0  0  0  0  0  0  0  0  0  0
   36.8980   32.6070   39.8470 C   0  0  0  0  0  0  0  0  0  0  0  0
   38.2150   32.5230   39.0620 C   0  0  0  0  0  0  0  0  0  0  0  0
   39.2580   32.2160   40.1440 C   0  0  1  0  0  0  0  0  0  0  0  0
   38.9750   30.7990   40.6030 C   0  0  0  0  0  0  0  0  0  0  0  0
   37.6820   30.9070   41.4070 C   0  0  2  0  0  0  0  0  0  0  0  0
   35.6840   31.3180   40.8940 H   0  0  0  0  0  0  0  0  0  0  0  0
   36.9610   33.4660   40.5530 H   0  0  0  0  0  0  0  0  0  0  0  0
   36.0500   32.7820   39.1730 H   0  0  0  0  0  0  0  0  0  0  0  0
   38.1240   31.7180   38.3330 H   0  0  0  0  0  0  0  0  0  0  0  0
   38.3620   33.5220   38.6140 H   0  0  0  0  0  0  0  0  0  0  0  0
   38.7540   32.7810   40.9330 H   0  0  0  0  0  0  0  0  0  0  0  0
   38.8180   30.1570   39.7020 H   0  0  0  0  0  0  0  0  0  0  0  0
   39.8150   30.4590   41.2230 H   0  0  0  0  0  0  0  0  0  0  0  0
   37.8890   31.6930   42.1740 H   0  0  0  0  0  0  0  0  0  0  0  0
   37.3100   29.6480   42.0380 C   0  0  0  0  0  0  0  0  0  0  0  0
   36.4370   28.6780   41.6670 N   0  0  0  0  0  0  0  0  0  0  0  0
   36.4440   27.7320   42.5630 O   0  0  0  0  0  0  0  0  0  0  0  0
   37.2980   28.0250   43.5350 C   0  0  0  0  0  0  0  0  0  0  0  0
   37.5060   27.4170   44.4070 H   0  0  0  0  0  0  0  0  0  0  0  0
   37.8410   29.2310   43.2030 N   0  0  0  0  0  0  0  0  0  0  0  0
   40.5070   32.3890   39.6720 O   0  0  0  0  0  0  0  0  0  0  0  0
   41.1010   33.5030   39.1290 C   0  0  0  0  0  0  0  0  0  0  0  0
   41.4630   33.4710   37.9540 O   0  0  0  0  0  0  0  0  0  0  0  0
   41.2870   34.7020   39.9670 C   0  0  0  0  0  0  0  0  0  0  0  0
   40.3490   35.6860   39.8200 C   0  0  0  0  0  0  0  0  0  0  0  0
   40.4480   36.8070   40.6800 C   0  0  0  0  0  0  0  0  0  0  0  0
   41.4740   36.8250   41.5990 N   0  0  0  0  0  0  0  0  0  0  0  0
   42.3550   35.8130   41.6790 C   0  0  0  0  0  0  0  0  0  0  0  0
   42.2750   34.7180   40.8520 N   0  0  0  0  0  0  0  0  0  0  0  0
   39.5540   35.6550   39.0970 H   0  0  0  0  0  0  0  0  0  0  0  0
   39.7510   37.6280   40.6320 H   0  0  0  0  0  0  0  0  0  0  0  0
   43.6650   35.9060   42.8870 S   0  0  0  0  0  0  0  0  0  0  0  0
   44.8810   35.5130   42.3230 H   0  0  0  0  0  0  0  0  0  0  0  0
  1  7  1  0  0  0  0
  1  6  1  0  0  0  0
  2  8  1  0  0  0  0
  2  1  1  0  0  0  0
  3  2  1  0  0  0  0
  3  4  1  0  0  0  0
  4  5  1  0  0  0  0
  4 12  1  1  0  0  0
  5 14  1  0  0  0  0
  5  6  1  0  0  0  0
  6 16  1  0  0  0  0
  6 15  1  1  0  0  0
  9  2  1  0  0  0  0
 10  3  1  0  0  0  0
 11  3  1  0  0  0  0
 13  5  1  0  0  0  0
 16 21  1  0  0  0  0
 17 16  2  0  0  0  0
 17 18  1  0  0  0  0
 18 19  1  0  0  0  0
 19 20  1  0  0  0  0
 21 19  2  0  0  0  0
 22  4  1  0  0  0  0
 23 22  1  0  0  0  0
 23 25  1  0  0  0  0
 24 23  2  0  0  0  0
 25 30  1  0  0  0  0
 26 25  2  0  0  0  0
 26 27  1  0  0  0  0
 27 28  2  0  0  0  0
 28 29  1  0  0  0  0
 29 33  1  0  0  0  0
 30 29  2  0  0  0  0
 31 26  1  0  0  0  0
 32 27  1  0  0  0  0
 34 33  1  0  0  0  0
M  END
>  <minimizedAffinity>
-5.54007483

>  <minimizedRMSD>
6.90585184

$$$$
