
 OpenBabel03242503423D

 34 36  0  0  1  0  0  0  0  0999 V2000
   36.9910   27.7710   43.1510 C   0  0  2  0  0  0  0  0  0  0  0  0
   36.0090   27.8580   42.6440 H   0  0  0  0  0  0  0  0  0  0  0  0
   38.4380   30.7950   41.7480 N   0  0  0  0  0  0  0  0  0  0  0  0
   39.5050   30.2220   42.3700 C   0  0  0  0  0  0  0  0  0  0  0  0
   39.1250   29.0710   42.9490 N   0  0  0  0  0  0  0  0  0  0  0  0
   37.8070   28.9140   42.6900 C   0  0  0  0  0  0  0  0  0  0  0  0
   37.4330   29.9870   41.9580 N   0  0  0  0  0  0  0  0  0  0  0  0
   40.4640   30.7430   42.3180 H   0  0  0  0  0  0  0  0  0  0  0  0
   37.1940   32.1110   40.0570 C   0  0  0  0  0  0  0  0  0  0  0  0
   38.2550   31.9760   40.9970 C   0  0  0  0  0  0  0  0  0  0  0  0
   39.1180   33.0730   41.1410 C   0  0  0  0  0  0  0  0  0  0  0  0
   38.8820   34.1760   40.3800 N   0  0  0  0  0  0  0  0  0  0  0  0
   37.8630   34.2540   39.5030 C   0  0  0  0  0  0  0  0  0  0  0  0
   37.0150   33.2220   39.3390 N   0  0  0  0  0  0  0  0  0  0  0  0
   36.5150   31.2960   39.9190 H   0  0  0  0  0  0  0  0  0  0  0  0
   39.9420   33.0250   41.8410 H   0  0  0  0  0  0  0  0  0  0  0  0
   37.8880   35.2250   39.0230 H   0  0  0  0  0  0  0  0  0  0  0  0
   36.7510   28.0260   44.6480 C   0  0  0  0  0  0  0  0  0  0  0  0
   35.8290   27.4930   44.9120 H   0  0  0  0  0  0  0  0  0  0  0  0
   36.7290   29.1020   44.8790 H   0  0  0  0  0  0  0  0  0  0  0  0
   37.5770   27.5170   45.1970 H   0  0  0  0  0  0  0  0  0  0  0  0
   37.6260   26.4470   42.9380 C   0  0  0  0  0  0  0  0  0  0  0  0
   37.4710   25.7370   43.7600 H   0  0  0  0  0  0  0  0  0  0  0  0
   38.7320   26.5580   42.8380 H   0  0  0  0  0  0  0  0  0  0  0  0
   36.1680   24.4250   39.4500 C   0  0  0  0  0  0  0  0  0  0  0  0
   36.3400   23.7890   40.6630 C   0  0  0  0  0  0  0  0  0  0  0  0
   36.8150   24.5190   41.7350 C   0  0  0  0  0  0  0  0  0  0  0  0
   37.1330   25.8810   41.6540 C   0  0  0  0  0  0  0  0  0  0  0  0
   36.9490   26.4890   40.4290 C   0  0  0  0  0  0  0  0  0  0  0  0
   36.4740   25.7430   39.3700 C   0  0  0  0  0  0  0  0  0  0  0  0
   34.2290   23.3880   38.1780 H   0  0  0  0  0  0  0  0  0  0  0  0
   35.5730   23.5290   38.0920 S   0  0  0  0  0  0  0  0  0  0  0  0
   36.1760   22.1540   38.0310 O   0  0  0  0  0  0  0  0  0  0  0  0
   35.9780   24.2280   36.8180 O   0  0  0  0  0  0  0  0  0  0  0  0
  1  2  1  6  0  0  0
  1 18  1  0  0  0  0
  3  7  1  0  0  0  0
  3  4  1  0  0  0  0
  4  5  2  0  0  0  0
  6  5  1  0  0  0  0
  6  1  1  0  0  0  0
  7  6  2  0  0  0  0
  8  4  1  0  0  0  0
  9 10  1  0  0  0  0
 10 11  2  0  0  0  0
 10  3  1  0  0  0  0
 11 16  1  0  0  0  0
 12 11  1  0  0  0  0
 13 12  2  0  0  0  0
 14 13  1  0  0  0  0
 14  9  2  0  0  0  0
 15  9  1  0  0  0  0
 17 13  1  0  0  0  0
 18 20  1  0  0  0  0
 18 19  1  0  0  0  0
 18 21  1  0  0  0  0
 22  1  1  0  0  0  0
 22 23  1  0  0  0  0
 24 22  1  0  0  0  0
 25 26  1  0  0  0  0
 26 27  2  0  0  0  0
 28 27  1  0  0  0  0
 28 22  1  0  0  0  0
 29 28  2  0  0  0  0
 30 25  2  0  0  0  0
 30 29  1  0  0  0  0
 32 31  1  0  0  0  0
 32 25  1  0  0  0  0
 33 32  2  0  0  0  0
 34 32  2  0  0  0  0
M  END
>  <minimizedAffinity>
-5.53705883

>  <minimizedRMSD>
1.31420577

$$$$
