
 OpenBabel03242509043D

 35 38  0  0  1  0  0  0  0  0999 V2000
   38.2020   30.8740   40.6770 N   0  0  1  0  0  0  0  0  0  0  0  0
   36.7410   30.9610   40.9330 C   0  0  0  0  0  0  0  0  0  0  0  0
   35.9470   30.3640   39.8110 C   0  0  0  0  0  0  0  0  0  0  0  0
   36.4530   30.7350   38.5750 O   0  0  0  0  0  0  0  0  0  0  0  0
   37.1550   31.9110   38.7330 C   0  0  0  0  0  0  0  0  0  0  0  0
   38.4490   31.6940   39.5460 C   0  0  1  0  0  0  0  0  0  0  0  0
   36.5260   32.0310   41.0930 H   0  0  0  0  0  0  0  0  0  0  0  0
   36.5470   30.3590   41.8510 H   0  0  0  0  0  0  0  0  0  0  0  0
   35.9170   29.2520   39.9370 H   0  0  0  0  0  0  0  0  0  0  0  0
   34.9200   30.7770   39.8810 H   0  0  0  0  0  0  0  0  0  0  0  0
   36.5540   32.7290   39.1690 H   0  0  0  0  0  0  0  0  0  0  0  0
   37.4840   32.2480   37.7270 H   0  0  0  0  0  0  0  0  0  0  0  0
   39.1110   31.1320   38.8560 H   0  0  0  0  0  0  0  0  0  0  0  0
   39.1500   30.0400   42.9360 C   0  0  1  0  0  0  0  0  0  0  0  0
   40.2690   30.6480   42.1830 C   0  0  0  0  0  0  0  0  0  0  0  0
   38.9220   31.1190   41.8540 C   0  0  1  0  0  0  0  0  0  0  0  0
   38.8520   30.2970   43.9530 H   0  0  0  0  0  0  0  0  0  0  0  0
   40.8720   29.9620   41.5400 H   0  0  0  0  0  0  0  0  0  0  0  0
   40.9750   31.2850   42.7930 H   0  0  0  0  0  0  0  0  0  0  0  0
   38.6880   32.1140   42.3450 H   0  0  0  0  0  0  0  0  0  0  0  0
   39.3870   26.6420   41.5470 C   0  0  0  0  0  0  0  0  0  0  0  0
   38.1630   26.0560   41.9490 C   0  0  0  0  0  0  0  0  0  0  0  0
   37.2590   26.8680   42.6960 C   0  0  0  0  0  0  0  0  0  0  0  0
   37.6180   28.1760   42.9880 N   0  0  0  0  0  0  0  0  0  0  0  0
   38.7950   28.6470   42.5690 C   0  0  0  0  0  0  0  0  0  0  0  0
   39.6790   27.9130   41.8590 N   0  0  0  0  0  0  0  0  0  0  0  0
   40.1150   26.0830   40.9800 H   0  0  0  0  0  0  0  0  0  0  0  0
   37.9330   25.0490   41.7010 H   0  0  0  0  0  0  0  0  0  0  0  0
   36.3330   26.4560   43.0120 H   0  0  0  0  0  0  0  0  0  0  0  0
   39.0000   33.0370   39.8240 C   0  0  0  0  0  0  0  0  0  0  0  0
   40.2500   33.5800   39.9200 N   0  0  0  0  0  0  0  0  0  0  0  0
   40.1830   34.8250   40.1880 O   0  0  0  0  0  0  0  0  0  0  0  0
   38.9270   35.1370   40.2760 C   0  0  0  0  0  0  0  0  0  0  0  0
   38.6020   36.1620   40.5010 H   0  0  0  0  0  0  0  0  0  0  0  0
   38.1710   34.0500   40.0550 N   0  0  0  0  0  0  0  0  0  0  0  0
  1  2  1  1  0  0  0
  1 16  1  0  0  0  0
  2  7  1  0  0  0  0
  2  8  1  0  0  0  0
  3 10  1  0  0  0  0
  3  9  1  0  0  0  0
  3  2  1  0  0  0  0
  4  5  1  0  0  0  0
  4  3  1  0  0  0  0
  5 11  1  0  0  0  0
  5  6  1  0  0  0  0
  6 13  1  6  0  0  0
  6 30  1  0  0  0  0
  6  1  1  0  0  0  0
 12  5  1  0  0  0  0
 14 17  1  1  0  0  0
 15 19  1  0  0  0  0
 15 14  1  0  0  0  0
 16 15  1  0  0  0  0
 16 20  1  1  0  0  0
 16 14  1  0  0  0  0
 18 15  1  0  0  0  0
 21 26  2  0  0  0  0
 21 22  1  0  0  0  0
 22 23  2  0  0  0  0
 23 24  1  0  0  0  0
 23 29  1  0  0  0  0
 25 14  1  0  0  0  0
 25 24  2  0  0  0  0
 26 25  1  0  0  0  0
 27 21  1  0  0  0  0
 28 22  1  0  0  0  0
 30 31  2  0  0  0  0
 30 35  1  0  0  0  0
 31 32  1  0  0  0  0
 32 33  1  0  0  0  0
 33 34  1  0  0  0  0
 35 33  2  0  0  0  0
M  END
>  <minimizedAffinity>
-5.01857615

>  <minimizedRMSD>
2.72090816

$$$$
