
 OpenBabel03242509313D

 18 19  0  0  0  0  0  0  0  0999 V2000
   37.6570   28.7220   43.6750 C   0  0  0  0  0  0  0  0  0  0  0  0
   38.1520   27.4030   43.7350 C   0  0  0  0  0  0  0  0  0  0  0  0
   38.2270   26.6880   42.5250 C   0  0  0  0  0  0  0  0  0  0  0  0
   37.8170   27.3070   41.3660 N   0  0  0  0  0  0  0  0  0  0  0  0
   37.3490   28.5710   41.3610 C   0  0  0  0  0  0  0  0  0  0  0  0
   37.2770   29.2590   42.5180 N   0  0  0  0  0  0  0  0  0  0  0  0
   37.5800   29.3170   44.5860 H   0  0  0  0  0  0  0  0  0  0  0  0
   38.4630   26.9630   44.6730 H   0  0  0  0  0  0  0  0  0  0  0  0
   36.9640   29.0520   40.0360 C   0  0  0  0  0  0  0  0  0  0  0  0
   36.1540   30.0570   39.6550 N   0  0  0  0  0  0  0  0  0  0  0  0
   36.0960   30.1320   38.3590 O   0  0  0  0  0  0  0  0  0  0  0  0
   36.8650   29.1790   37.8600 C   0  0  0  0  0  0  0  0  0  0  0  0
   37.1280   28.8560   36.8610 H   0  0  0  0  0  0  0  0  0  0  0  0
   37.4080   28.5030   38.8900 N   0  0  0  0  0  0  0  0  0  0  0  0
   38.7430   25.2870   42.5500 C   0  0  0  0  0  0  0  0  0  0  0  0
   39.4410   25.1310   41.3860 F   0  0  0  0  0  0  0  0  0  0  0  0
   39.5640   25.0530   43.6030 F   0  0  0  0  0  0  0  0  0  0  0  0
   37.6880   24.3660   42.5610 F   0  0  0  0  0  0  0  0  0  0  0  0
  1  2  1  0  0  0  0
  1  7  1  0  0  0  0
  2  8  1  0  0  0  0
  3 15  1  0  0  0  0
  3  2  2  0  0  0  0
  4  3  1  0  0  0  0
  5  4  2  0  0  0  0
  5  6  1  0  0  0  0
  6  1  2  0  0  0  0
  9  5  1  0  0  0  0
 10  9  2  0  0  0  0
 11 10  1  0  0  0  0
 12 11  1  0  0  0  0
 12 14  2  0  0  0  0
 13 12  1  0  0  0  0
 14  9  1  0  0  0  0
 15 18  1  0  0  0  0
 15 17  1  0  0  0  0
 16 15  1  0  0  0  0
M  END
>  <minimizedAffinity>
-3.81721568

>  <minimizedRMSD>
1.32161999

$$$$
