
 OpenBabel03242509323D

 18 19  0  0  0  0  0  0  0  0999 V2000
   37.5820   28.5000   43.7330 C   0  0  0  0  0  0  0  0  0  0  0  0
   37.4960   27.1380   43.3760 C   0  0  0  0  0  0  0  0  0  0  0  0
   37.2650   26.8410   42.0200 C   0  0  0  0  0  0  0  0  0  0  0  0
   37.1390   27.8820   41.1290 N   0  0  0  0  0  0  0  0  0  0  0  0
   37.2280   29.1690   41.5190 C   0  0  0  0  0  0  0  0  0  0  0  0
   37.4490   29.4560   42.8180 N   0  0  0  0  0  0  0  0  0  0  0  0
   37.7590   28.7810   44.7710 H   0  0  0  0  0  0  0  0  0  0  0  0
   37.6040   26.3570   44.1170 H   0  0  0  0  0  0  0  0  0  0  0  0
   37.0670   30.1280   40.4290 C   0  0  0  0  0  0  0  0  0  0  0  0
   36.8680   31.4590   40.4380 N   0  0  0  0  0  0  0  0  0  0  0  0
   36.7800   31.9170   39.2240 O   0  0  0  0  0  0  0  0  0  0  0  0
   36.9180   30.8980   38.3930 C   0  0  0  0  0  0  0  0  0  0  0  0
   36.9160   30.7870   37.3160 H   0  0  0  0  0  0  0  0  0  0  0  0
   37.0960   29.7850   39.1280 N   0  0  0  0  0  0  0  0  0  0  0  0
   37.1640   25.4090   41.6060 C   0  0  0  0  0  0  0  0  0  0  0  0
   36.4810   25.4160   40.4240 F   0  0  0  0  0  0  0  0  0  0  0  0
   38.3770   24.8320   41.4230 F   0  0  0  0  0  0  0  0  0  0  0  0
   36.4260   24.6710   42.5400 F   0  0  0  0  0  0  0  0  0  0  0  0
  1  7  1  0  0  0  0
  2  1  1  0  0  0  0
  2  8  1  0  0  0  0
  3  2  2  0  0  0  0
  4  5  2  0  0  0  0
  4  3  1  0  0  0  0
  5  6  1  0  0  0  0
  6  1  2  0  0  0  0
  9 10  2  0  0  0  0
  9  5  1  0  0  0  0
 11 10  1  0  0  0  0
 12 14  2  0  0  0  0
 12 11  1  0  0  0  0
 13 12  1  0  0  0  0
 14  9  1  0  0  0  0
 15  3  1  0  0  0  0
 15 18  1  0  0  0  0
 16 15  1  0  0  0  0
 17 15  1  0  0  0  0
M  END
>  <minimizedAffinity>
-4.262568

>  <minimizedRMSD>
1.29207253

$$$$
