
 OpenBabel03242506543D

 31 34  0  0  0  0  0  0  0  0999 V2000
   38.6590   28.8740   41.5770 C   0  0  0  0  0  0  0  0  0  0  0  0
   39.4220   30.0600   41.6500 C   0  0  0  0  0  0  0  0  0  0  0  0
   40.6010   30.1920   42.3560 C   0  0  0  0  0  0  0  0  0  0  0  0
   41.0720   29.0900   43.0410 C   0  0  0  0  0  0  0  0  0  0  0  0
   40.3890   27.9070   43.0170 C   0  0  0  0  0  0  0  0  0  0  0  0
   40.8670   26.8250   43.6980 C   0  0  0  0  0  0  0  0  0  0  0  0
   40.1910   25.5950   43.6950 C   0  0  0  0  0  0  0  0  0  0  0  0
   39.0120   25.5620   42.9540 C   0  0  0  0  0  0  0  0  0  0  0  0
   38.5720   26.6700   42.2880 C   0  0  0  0  0  0  0  0  0  0  0  0
   39.2240   27.8640   42.2880 C   0  0  0  0  0  0  0  0  0  0  0  0
   39.0760   30.9550   41.1180 H   0  0  0  0  0  0  0  0  0  0  0  0
   41.1190   31.1400   42.3560 H   0  0  0  0  0  0  0  0  0  0  0  0
   41.9920   29.2640   43.5660 H   0  0  0  0  0  0  0  0  0  0  0  0
   40.4730   24.7010   44.1850 H   0  0  0  0  0  0  0  0  0  0  0  0
   38.4410   24.6420   42.9090 H   0  0  0  0  0  0  0  0  0  0  0  0
   37.6440   26.5790   41.7280 H   0  0  0  0  0  0  0  0  0  0  0  0
   37.4670   28.9440   40.7920 C   0  0  0  0  0  0  0  0  0  0  0  0
   36.1300   29.0670   41.1980 C   0  0  0  0  0  0  0  0  0  0  0  0
   35.0770   29.1640   40.2900 C   0  0  0  0  0  0  0  0  0  0  0  0
   35.4260   29.1320   38.9780 N   0  0  0  0  0  0  0  0  0  0  0  0
   36.6840   29.0150   38.5690 C   0  0  0  0  0  0  0  0  0  0  0  0
   37.6730   28.9240   39.4640 N   0  0  0  0  0  0  0  0  0  0  0  0
   36.0280   29.0760   42.2840 H   0  0  0  0  0  0  0  0  0  0  0  0
   34.0930   29.2550   40.7070 H   0  0  0  0  0  0  0  0  0  0  0  0
   36.8110   29.0030   37.5070 H   0  0  0  0  0  0  0  0  0  0  0  0
   42.1250   26.8580   44.4900 C   0  0  0  0  0  0  0  0  0  0  0  0
   43.2620   26.3430   43.9900 N   0  0  0  0  0  0  0  0  0  0  0  0
   44.2420   26.4530   44.7950 O   0  0  0  0  0  0  0  0  0  0  0  0
   43.7900   27.0490   45.8630 C   0  0  0  0  0  0  0  0  0  0  0  0
   44.3350   27.3190   46.7720 H   0  0  0  0  0  0  0  0  0  0  0  0
   42.4980   27.2920   45.6670 N   0  0  0  0  0  0  0  0  0  0  0  0
  1  2  2  0  0  0  0
  1 10  1  0  0  0  0
  2  3  1  0  0  0  0
  3  4  2  0  0  0  0
  4 13  1  0  0  0  0
  5  4  1  0  0  0  0
  5  6  1  0  0  0  0
  6 26  1  0  0  0  0
  7  6  2  0  0  0  0
  7 14  1  0  0  0  0
  8  7  1  0  0  0  0
  9  8  2  0  0  0  0
 10  9  1  0  0  0  0
 10  5  2  0  0  0  0
 11  2  1  0  0  0  0
 12  3  1  0  0  0  0
 15  8  1  0  0  0  0
 16  9  1  0  0  0  0
 17 18  1  0  0  0  0
 17  1  1  0  0  0  0
 18 23  1  0  0  0  0
 19 24  1  0  0  0  0
 19 18  2  0  0  0  0
 20 19  1  0  0  0  0
 21 20  2  0  0  0  0
 21 22  1  0  0  0  0
 22 17  2  0  0  0  0
 25 21  1  0  0  0  0
 26 31  1  0  0  0  0
 27 26  2  0  0  0  0
 27 28  1  0  0  0  0
 28 29  1  0  0  0  0
 29 30  1  0  0  0  0
 31 29  2  0  0  0  0
M  END
>  <minimizedAffinity>
-5.09406424

>  <minimizedRMSD>
4.43716431

$$$$
