
 OpenBabel03242507293D

 33 36  0  0  0  0  0  0  0  0999 V2000
   39.1980   29.6800   42.6420 C   0  0  0  0  0  0  0  0  0  0  0  0
   40.1620   30.0070   43.0280 H   0  0  0  0  0  0  0  0  0  0  0  0
   38.4820   29.4400   43.4830 H   0  0  0  0  0  0  0  0  0  0  0  0
   36.6660   31.4760   40.4530 C   0  0  0  0  0  0  0  0  0  0  0  0
   37.2580   30.4910   41.2900 C   0  0  0  0  0  0  0  0  0  0  0  0
   38.5370   30.6770   41.7660 C   0  0  0  0  0  0  0  0  0  0  0  0
   39.1930   31.8240   41.4040 N   0  0  0  0  0  0  0  0  0  0  0  0
   38.6140   32.7560   40.6040 C   0  0  0  0  0  0  0  0  0  0  0  0
   37.3860   32.5780   40.1470 N   0  0  0  0  0  0  0  0  0  0  0  0
   35.6620   31.2740   40.1120 H   0  0  0  0  0  0  0  0  0  0  0  0
   36.7530   29.5980   41.5750 H   0  0  0  0  0  0  0  0  0  0  0  0
   39.3650   33.9730   40.2440 C   0  0  0  0  0  0  0  0  0  0  0  0
   40.6490   33.8400   39.7060 C   0  0  0  0  0  0  0  0  0  0  0  0
   41.3300   34.9930   39.3780 C   0  0  0  0  0  0  0  0  0  0  0  0
   42.3270   34.8610   38.9610 H   0  0  0  0  0  0  0  0  0  0  0  0
   40.7560   36.1880   39.5780 N   0  0  0  0  0  0  0  0  0  0  0  0
   39.5030   36.2840   40.1050 C   0  0  0  0  0  0  0  0  0  0  0  0
   38.8090   35.1820   40.4370 N   0  0  0  0  0  0  0  0  0  0  0  0
   39.3970   28.4170   41.9130 C   0  0  0  0  0  0  0  0  0  0  0  0
   40.2320   27.9730   40.9620 C   0  0  0  0  0  0  0  0  0  0  0  0
   40.1710   26.7180   40.4750 C   0  0  0  0  0  0  0  0  0  0  0  0
   39.1230   25.9380   41.0880 C   0  0  0  0  0  0  0  0  0  0  0  0
   38.3600   27.0000   42.2420 S   0  0  0  0  0  0  0  0  0  0  0  0
   40.9530   28.7110   40.6280 H   0  0  0  0  0  0  0  0  0  0  0  0
   40.8140   26.3020   39.7130 H   0  0  0  0  0  0  0  0  0  0  0  0
   38.7880   24.5530   40.7930 C   0  0  0  0  0  0  0  0  0  0  0  0
   39.1910   23.8670   39.7070 C   0  0  0  0  0  0  0  0  0  0  0  0
   38.6220   22.6080   39.8760 C   0  0  0  0  0  0  0  0  0  0  0  0
   37.9070   22.5780   41.0400 N   0  0  0  0  0  0  0  0  0  0  0  0
   38.0260   23.7820   41.5830 N   0  0  0  0  0  0  0  0  0  0  0  0
   39.8090   24.1570   38.8600 H   0  0  0  0  0  0  0  0  0  0  0  0
   38.6770   21.7260   39.2430 H   0  0  0  0  0  0  0  0  0  0  0  0
   37.3510   21.8510   41.5150 H   0  0  0  0  0  0  0  0  0  0  0  0
  1  2  1  0  0  0  0
  1  3  1  0  0  0  0
  4  5  1  0  0  0  0
  5 11  1  0  0  0  0
  5  6  2  0  0  0  0
  6  1  1  0  0  0  0
  7  6  1  0  0  0  0
  8  7  2  0  0  0  0
  9  4  2  0  0  0  0
  9  8  1  0  0  0  0
 10  4  1  0  0  0  0
 12 18  1  0  0  0  0
 12  8  1  0  0  0  0
 13 12  2  0  0  0  0
 14 16  2  0  0  0  0
 14 13  1  0  0  0  0
 15 14  1  0  0  0  0
 16 17  1  0  0  0  0
 17 18  2  0  0  0  0
 19 23  1  0  0  0  0
 19  1  1  0  0  0  0
 20 19  2  0  0  0  0
 21 20  1  0  0  0  0
 21 22  2  0  0  0  0
 22 23  1  0  0  0  0
 24 20  1  0  0  0  0
 25 21  1  0  0  0  0
 26 22  1  0  0  0  0
 26 30  2  0  0  0  0
 27 28  2  0  0  0  0
 27 26  1  0  0  0  0
 28 29  1  0  0  0  0
 29 33  1  0  0  0  0
 29 30  1  0  0  0  0
 31 27  1  0  0  0  0
 32 28  1  0  0  0  0
M  END
>  <minimizedAffinity>
-5.58540535

>  <minimizedRMSD>
3.80110931

$$$$
