
 OpenBabel03242509273D

 46 50  0  0  0  0  0  0  0  0999 V2000
   36.1320   30.0660   41.1050 C   0  0  0  0  0  0  0  0  0  0  0  0
   35.5540   30.5990   41.9040 H   0  0  0  0  0  0  0  0  0  0  0  0
   36.7530   30.8550   40.6350 H   0  0  0  0  0  0  0  0  0  0  0  0
   38.5470   28.0740   42.6940 C   0  0  0  0  0  0  0  0  0  0  0  0
   37.4410   27.2700   42.7910 C   0  0  0  0  0  0  0  0  0  0  0  0
   36.3920   27.9640   42.1810 C   0  0  0  0  0  0  0  0  0  0  0  0
   36.9500   29.1180   41.7700 N   0  0  0  0  0  0  0  0  0  0  0  0
   38.2060   29.2120   42.0540 N   0  0  0  0  0  0  0  0  0  0  0  0
   37.4600   26.2960   43.2670 H   0  0  0  0  0  0  0  0  0  0  0  0
   35.3850   27.5740   42.1060 H   0  0  0  0  0  0  0  0  0  0  0  0
   41.4580   26.2720   44.1700 C   0  0  0  0  0  0  0  0  0  0  0  0
   40.1600   26.5050   43.7020 C   0  0  0  0  0  0  0  0  0  0  0  0
   39.8760   27.7790   43.1860 C   0  0  0  0  0  0  0  0  0  0  0  0
   40.8480   28.7270   43.1560 N   0  0  0  0  0  0  0  0  0  0  0  0
   42.0990   28.4320   43.6310 C   0  0  0  0  0  0  0  0  0  0  0  0
   42.3920   27.2260   44.1260 N   0  0  0  0  0  0  0  0  0  0  0  0
   41.6380   25.2810   44.5580 H   0  0  0  0  0  0  0  0  0  0  0  0
   39.3860   25.7360   43.7310 H   0  0  0  0  0  0  0  0  0  0  0  0
   43.1030   29.4890   43.5730 C   0  0  0  0  0  0  0  0  0  0  0  0
   42.6940   30.7890   43.3590 C   0  0  0  0  0  3  0  0  0  0  0  0
   43.6070   31.8440   43.2930 C   0  0  0  0  0  0  0  0  0  0  0  0
   43.2230   32.8360   43.1230 H   0  0  0  0  0  0  0  0  0  0  0  0
   44.9150   31.5210   43.4530 N   0  0  0  0  0  0  0  0  0  0  0  0
   45.2960   30.2380   43.6630 C   0  0  0  0  0  3  0  0  0  0  0  0
   44.3950   29.2420   43.7210 N   0  0  0  0  0  0  0  0  0  0  0  0
   35.2370   29.5290   40.0360 C   0  0  0  0  0  0  0  0  0  0  0  0
   34.5450   30.4320   39.9200 H   0  0  0  0  0  0  0  0  0  0  0  0
   34.7410   28.6340   40.3860 H   0  0  0  0  0  0  0  0  0  0  0  0
   35.8560   29.4460   38.6920 C   0  0  0  0  0  0  0  0  0  0  0  0
   37.1780   29.5910   38.3740 C   0  0  0  0  0  0  0  0  0  0  0  0
   37.7040   29.5670   37.1130 C   0  0  0  0  0  0  0  0  0  0  0  0
   36.8720   29.3850   36.0420 C   0  0  0  0  0  0  0  0  0  0  0  0
   35.5250   29.2320   36.2910 C   0  0  0  0  0  0  0  0  0  0  0  0
   34.7410   29.0630   35.1770 C   0  0  0  0  0  0  0  0  0  0  0  0
   33.3830   28.9060   35.3160 C   0  0  0  0  0  0  0  0  0  0  0  0
   32.8300   28.9180   36.5790 C   0  0  0  0  0  0  0  0  0  0  0  0
   33.6660   29.0900   37.6520 C   0  0  0  0  0  0  0  0  0  0  0  0
   35.0080   29.2560   37.5840 C   0  0  0  0  0  0  0  0  0  0  0  0
   37.8300   29.7350   39.2450 H   0  0  0  0  0  0  0  0  0  0  0  0
   38.7740   29.6960   37.0400 H   0  0  0  0  0  0  0  0  0  0  0  0
   37.2930   29.3680   35.0450 H   0  0  0  0  0  0  0  0  0  0  0  0
   35.1410   29.0450   34.1690 H   0  0  0  0  0  0  0  0  0  0  0  0
   32.7350   28.7720   34.4580 H   0  0  0  0  0  0  0  0  0  0  0  0
   31.7610   28.7940   36.6910 H   0  0  0  0  0  0  0  0  0  0  0  0
   33.0510   29.0770   38.8930 O   0  0  0  0  0  0  0  0  0  0  0  0
   32.2260   29.6580   39.0010 H   0  0  0  0  0  0  0  0  0  0  0  0
  1  7  1  0  0  0  0
  1  2  1  0  0  0  0
  3  1  1  0  0  0  0
  4  5  1  0  0  0  0
  4 13  1  0  0  0  0
  5  9  1  0  0  0  0
  6  5  2  0  0  0  0
  7  8  1  0  0  0  0
  7  6  1  0  0  0  0
  8  4  2  0  0  0  0
 10  6  1  0  0  0  0
 11 17  1  0  0  0  0
 12 18  1  0  0  0  0
 12 11  2  0  0  0  0
 13 12  1  0  0  0  0
 14 13  2  0  0  0  0
 14 15  1  0  0  0  0
 15 16  2  0  0  0  0
 16 11  1  0  0  0  0
 19 15  1  0  0  0  0
 19 25  1  0  0  0  0
 20 19  2  0  0  0  0
 21 20  1  0  0  0  0
 21 23  2  0  0  0  0
 22 21  1  0  0  0  0
 23 24  1  0  0  0  0
 24 25  2  0  0  0  0
 26 28  1  0  0  0  0
 26  1  1  0  0  0  0
 27 26  1  0  0  0  0
 29 26  1  0  0  0  0
 30 29  1  0  0  0  0
 30 39  1  0  0  0  0
 31 30  2  0  0  0  0
 32 33  2  0  0  0  0
 32 31  1  0  0  0  0
 33 38  1  0  0  0  0
 34 35  2  0  0  0  0
 34 33  1  0  0  0  0
 35 36  1  0  0  0  0
 36 44  1  0  0  0  0
 36 37  2  0  0  0  0
 37 45  1  0  0  0  0
 38 37  1  0  0  0  0
 38 29  2  0  0  0  0
 40 31  1  0  0  0  0
 41 32  1  0  0  0  0
 42 34  1  0  0  0  0
 43 35  1  0  0  0  0
 45 46  1  0  0  0  0
M  END
>  <minimizedAffinity>
-6.07440901

>  <minimizedRMSD>
0.449661106

$$$$
