
 OpenBabel03242509323D

 19 20  0  0  0  0  0  0  0  0999 V2000
   37.7960   28.6840   43.5080 C   0  0  0  0  0  0  0  0  0  0  0  0
   38.2940   27.3670   43.6560 C   0  0  0  0  0  0  0  0  0  0  0  0
   38.3840   26.5770   42.5140 C   0  0  0  0  0  0  0  0  0  0  0  0
   37.9850   27.1210   41.3220 N   0  0  0  0  0  0  0  0  0  0  0  0
   37.5180   28.3700   41.2130 C   0  0  0  0  0  0  0  0  0  0  0  0
   37.4280   29.1400   42.3100 N   0  0  0  0  0  0  0  0  0  0  0  0
   37.7290   29.2950   44.4060 H   0  0  0  0  0  0  0  0  0  0  0  0
   38.5820   27.0240   44.6280 H   0  0  0  0  0  0  0  0  0  0  0  0
   37.1030   28.9070   39.9170 C   0  0  0  0  0  0  0  0  0  0  0  0
   35.7720   28.7710   39.5330 C   0  0  0  0  0  3  0  0  0  0  0  0
   35.3560   29.2700   38.3160 C   0  0  0  0  0  0  0  0  0  0  0  0
   34.3390   29.1690   38.0170 H   0  0  0  0  0  0  0  0  0  0  0  0
   36.2940   29.8720   37.5620 N   0  0  0  0  0  0  0  0  0  0  0  0
   37.5840   30.0070   37.9290 C   0  0  0  0  0  3  0  0  0  0  0  0
   38.0050   29.5230   39.1190 N   0  0  0  0  0  0  0  0  0  0  0  0
   38.9040   25.1820   42.6290 C   0  0  0  0  0  0  0  0  0  0  0  0
   39.7220   24.9890   41.5340 F   0  0  0  0  0  0  0  0  0  0  0  0
   39.6640   25.0140   43.7610 F   0  0  0  0  0  0  0  0  0  0  0  0
   37.8860   24.2450   42.6120 F   0  0  0  0  0  0  0  0  0  0  0  0
  1  2  1  0  0  0  0
  1  7  1  0  0  0  0
  2  8  1  0  0  0  0
  3 16  1  0  0  0  0
  3  2  2  0  0  0  0
  4  3  1  0  0  0  0
  5  4  2  0  0  0  0
  5  6  1  0  0  0  0
  6  1  2  0  0  0  0
  9  5  1  0  0  0  0
 10  9  1  0  0  0  0
 11 10  2  0  0  0  0
 12 11  1  0  0  0  0
 13 14  2  0  0  0  0
 13 11  1  0  0  0  0
 14 15  1  0  0  0  0
 15  9  2  0  0  0  0
 16 18  1  0  0  0  0
 17 16  1  0  0  0  0
 19 16  1  0  0  0  0
M  END
>  <minimizedAffinity>
-4.15261412

>  <minimizedRMSD>
1.69082236

$$$$
