
 OpenBabel03242508213D

 29 32  0  0  0  0  0  0  0  0999 V2000
   38.6070   27.3000   43.8280 C   0  0  0  0  0  0  0  0  0  0  0  0
   39.0670   26.3300   42.9290 C   0  0  0  0  0  0  0  0  0  0  0  0
   39.0530   26.6540   41.5610 C   0  0  0  0  0  0  0  0  0  0  0  0
   38.5930   27.8840   41.2050 N   0  0  0  0  0  0  0  0  0  0  0  0
   38.1600   28.7880   42.1070 C   0  0  0  0  0  0  0  0  0  0  0  0
   38.1610   28.5050   43.4390 N   0  0  0  0  0  0  0  0  0  0  0  0
   37.7330   29.9960   41.4760 N   0  0  0  0  0  0  0  0  0  0  0  0
   36.4370   30.1870   41.1180 C   0  0  0  0  0  0  0  0  0  0  0  0
   36.2950   31.3990   40.5450 N   0  0  0  0  0  0  0  0  0  0  0  0
   37.4880   31.9860   40.5320 C   0  0  0  0  0  0  0  0  0  0  0  0
   37.9690   33.2110   40.0850 C   0  0  0  0  0  0  0  0  0  0  0  0
   39.2980   33.4870   40.2380 N   0  0  0  0  0  0  0  0  0  0  0  0
   40.1410   32.6110   40.8080 C   0  0  0  0  0  0  0  0  0  0  0  0
   39.6880   31.4080   41.2530 N   0  0  0  0  0  0  0  0  0  0  0  0
   38.3810   31.1050   41.1150 C   0  0  0  0  0  0  0  0  0  0  0  0
   36.9970   34.0460   39.5030 N   0  0  0  0  0  0  0  0  0  0  0  0
   38.5680   27.1770   44.9030 H   0  0  0  0  0  0  0  0  0  0  0  0
   39.4070   25.3880   43.3380 H   0  0  0  0  0  0  0  0  0  0  0  0
   39.4030   25.9160   40.8750 H   0  0  0  0  0  0  0  0  0  0  0  0
   35.5890   29.5060   41.2460 H   0  0  0  0  0  0  0  0  0  0  0  0
   36.2290   34.6320   39.8780 H   0  0  0  0  0  0  0  0  0  0  0  0
   37.1800   33.9890   38.4760 H   0  0  0  0  0  0  0  0  0  0  0  0
   41.5520   32.9480   40.9520 C   0  0  0  0  0  0  0  0  0  0  0  0
   42.1480   33.8230   40.0690 C   0  0  0  0  0  0  0  0  0  0  0  0
   43.4890   34.1550   40.1900 C   0  0  0  0  0  0  0  0  0  0  0  0
   43.8560   34.8470   39.4490 H   0  0  0  0  0  0  0  0  0  0  0  0
   44.1810   33.6070   41.1820 N   0  0  0  0  0  0  0  0  0  0  0  0
   43.6050   32.7480   42.0530 C   0  0  0  0  0  0  0  0  0  0  0  0
   42.2850   32.4280   41.9240 N   0  0  0  0  0  0  0  0  0  0  0  0
  1 17  1  0  0  0  0
  2 18  1  0  0  0  0
  2  1  2  0  0  0  0
  3  2  1  0  0  0  0
  4  3  2  0  0  0  0
  4  5  1  0  0  0  0
  5  6  2  0  0  0  0
  6  1  1  0  0  0  0
  7  5  1  0  0  0  0
  8 20  1  0  0  0  0
  8  7  1  0  0  0  0
  9  8  2  0  0  0  0
 10  9  1  0  0  0  0
 10 15  1  0  0  0  0
 11 12  1  0  0  0  0
 11 10  2  0  0  0  0
 12 13  2  0  0  0  0
 13 23  1  0  0  0  0
 13 14  1  0  0  0  0
 15 14  2  0  0  0  0
 15  7  1  0  0  0  0
 16 21  1  0  0  0  0
 16 11  1  0  0  0  0
 19  3  1  0  0  0  0
 22 16  1  0  0  0  0
 23 29  1  0  0  0  0
 24 25  1  0  0  0  0
 24 23  2  0  0  0  0
 25 27  2  0  0  0  0
 26 25  1  0  0  0  0
 27 28  1  0  0  0  0
 29 28  2  0  0  0  0
M  END
>  <minimizedAffinity>
-6.00063372

>  <minimizedRMSD>
1.28553188

$$$$
