
 OpenBabel03242509273D

 46 50  0  0  0  0  0  0  0  0999 V2000
   35.9940   29.9880   40.9380 C   0  0  0  0  0  0  0  0  0  0  0  0
   35.3840   30.5190   41.7130 H   0  0  0  0  0  0  0  0  0  0  0  0
   36.6020   30.7850   40.4640 H   0  0  0  0  0  0  0  0  0  0  0  0
   38.4340   28.1040   42.6200 C   0  0  0  0  0  0  0  0  0  0  0  0
   37.3520   27.2670   42.7070 C   0  0  0  0  0  0  0  0  0  0  0  0
   36.2960   27.9150   42.0590 C   0  0  0  0  0  0  0  0  0  0  0  0
   36.8260   29.0790   41.6400 N   0  0  0  0  0  0  0  0  0  0  0  0
   38.0720   29.2180   41.9520 N   0  0  0  0  0  0  0  0  0  0  0  0
   37.3900   26.3020   43.2010 H   0  0  0  0  0  0  0  0  0  0  0  0
   35.3050   27.4900   41.9680 H   0  0  0  0  0  0  0  0  0  0  0  0
   41.3390   26.4580   44.2800 C   0  0  0  0  0  0  0  0  0  0  0  0
   40.0430   26.6410   43.7810 C   0  0  0  0  0  0  0  0  0  0  0  0
   39.7590   27.8620   43.1500 C   0  0  0  0  0  0  0  0  0  0  0  0
   40.7270   28.8080   43.0430 N   0  0  0  0  0  0  0  0  0  0  0  0
   41.9750   28.5640   43.5540 C   0  0  0  0  0  0  0  0  0  0  0  0
   42.2680   27.4090   44.1580 N   0  0  0  0  0  0  0  0  0  0  0  0
   41.5190   25.5070   44.7580 H   0  0  0  0  0  0  0  0  0  0  0  0
   39.2720   25.8740   43.8720 H   0  0  0  0  0  0  0  0  0  0  0  0
   42.9740   29.6170   43.4100 C   0  0  0  0  0  0  0  0  0  0  0  0
   42.5540   30.9170   43.2220 C   0  0  0  0  0  3  0  0  0  0  0  0
   43.4640   31.9680   43.0780 C   0  0  0  0  0  0  0  0  0  0  0  0
   43.0700   32.9600   42.9360 H   0  0  0  0  0  0  0  0  0  0  0  0
   44.7770   31.6410   43.1340 N   0  0  0  0  0  0  0  0  0  0  0  0
   45.1710   30.3570   43.3190 C   0  0  0  0  0  3  0  0  0  0  0  0
   44.2730   29.3650   43.4540 N   0  0  0  0  0  0  0  0  0  0  0  0
   35.1390   29.4010   39.8620 C   0  0  0  0  0  0  0  0  0  0  0  0
   34.3880   30.2560   39.7540 H   0  0  0  0  0  0  0  0  0  0  0  0
   34.7050   28.4720   40.2030 H   0  0  0  0  0  0  0  0  0  0  0  0
   35.7630   29.3730   38.5190 C   0  0  0  0  0  0  0  0  0  0  0  0
   37.0880   29.5170   38.2140 C   0  0  0  0  0  0  0  0  0  0  0  0
   37.6200   29.5450   36.9560 C   0  0  0  0  0  0  0  0  0  0  0  0
   36.7910   29.4230   35.8740 C   0  0  0  0  0  0  0  0  0  0  0  0
   35.4410   29.2740   36.1090 C   0  0  0  0  0  0  0  0  0  0  0  0
   34.6610   29.1650   34.9850 C   0  0  0  0  0  0  0  0  0  0  0  0
   33.3010   29.0170   35.1120 C   0  0  0  0  0  0  0  0  0  0  0  0
   32.7420   28.9780   36.3710 C   0  0  0  0  0  0  0  0  0  0  0  0
   33.5750   29.0900   37.4550 C   0  0  0  0  0  0  0  0  0  0  0  0
   34.9190   29.2440   37.4000 C   0  0  0  0  0  0  0  0  0  0  0  0
   37.7380   29.6140   39.0940 H   0  0  0  0  0  0  0  0  0  0  0  0
   38.6920   29.6650   36.8930 H   0  0  0  0  0  0  0  0  0  0  0  0
   37.2170   29.4460   34.8790 H   0  0  0  0  0  0  0  0  0  0  0  0
   35.0660   29.1890   33.9790 H   0  0  0  0  0  0  0  0  0  0  0  0
   32.6550   28.9310   34.2450 H   0  0  0  0  0  0  0  0  0  0  0  0
   31.6710   28.8600   36.4730 H   0  0  0  0  0  0  0  0  0  0  0  0
   32.9530   29.0280   38.6910 O   0  0  0  0  0  0  0  0  0  0  0  0
   32.1350   29.6120   38.8220 H   0  0  0  0  0  0  0  0  0  0  0  0
  1  7  1  0  0  0  0
  1  2  1  0  0  0  0
  3  1  1  0  0  0  0
  4  5  1  0  0  0  0
  4 13  1  0  0  0  0
  5  9  1  0  0  0  0
  6  5  2  0  0  0  0
  7  8  1  0  0  0  0
  7  6  1  0  0  0  0
  8  4  2  0  0  0  0
 10  6  1  0  0  0  0
 11 17  1  0  0  0  0
 12 18  1  0  0  0  0
 12 11  2  0  0  0  0
 13 12  1  0  0  0  0
 14 13  2  0  0  0  0
 14 15  1  0  0  0  0
 15 16  2  0  0  0  0
 16 11  1  0  0  0  0
 19 25  1  0  0  0  0
 19 15  1  0  0  0  0
 20 19  2  0  0  0  0
 21 23  2  0  0  0  0
 21 20  1  0  0  0  0
 22 21  1  0  0  0  0
 23 24  1  0  0  0  0
 24 25  2  0  0  0  0
 26 28  1  0  0  0  0
 26  1  1  0  0  0  0
 27 26  1  0  0  0  0
 29 26  1  0  0  0  0
 30 29  1  0  0  0  0
 30 39  1  0  0  0  0
 31 30  2  0  0  0  0
 32 33  2  0  0  0  0
 32 31  1  0  0  0  0
 33 38  1  0  0  0  0
 34 35  2  0  0  0  0
 34 33  1  0  0  0  0
 35 36  1  0  0  0  0
 36 44  1  0  0  0  0
 36 37  2  0  0  0  0
 37 45  1  0  0  0  0
 38 37  1  0  0  0  0
 38 29  2  0  0  0  0
 40 31  1  0  0  0  0
 41 32  1  0  0  0  0
 42 34  1  0  0  0  0
 43 35  1  0  0  0  0
 45 46  1  0  0  0  0
M  END
>  <minimizedAffinity>
-6.09106827

>  <minimizedRMSD>
0.528209329

$$$$
