
 OpenBabel03242505013D

 49 53  0  0  0  0  0  0  0  0999 V2000
   39.3200   31.0180   41.4620 C   0  0  0  0  0  0  0  0  0  0  0  0
   39.3570   29.6330   41.3960 C   0  0  0  0  0  0  0  0  0  0  0  0
   38.7120   28.9890   40.3220 C   0  0  0  0  0  0  0  0  0  0  0  0
   38.0860   29.8240   39.4100 N   0  0  0  0  0  0  0  0  0  0  0  0
   38.0860   31.1530   39.5290 C   0  0  0  0  0  0  0  0  0  0  0  0
   38.6940   31.7490   40.5410 N   0  0  0  0  0  0  0  0  0  0  0  0
   39.8450   31.4040   42.3240 H   0  0  0  0  0  0  0  0  0  0  0  0
   40.0050   28.7530   42.3460 C   0  0  0  0  0  0  0  0  0  0  0  0
   39.5330   28.0560   43.3600 N   0  0  0  0  0  0  0  0  0  0  0  0
   40.4690   27.3940   43.9420 O   0  0  0  0  0  0  0  0  0  0  0  0
   41.6090   27.6100   43.3580 C   0  0  0  0  0  0  0  0  0  0  0  0
   41.3400   28.4660   42.3470 N   0  0  0  0  0  0  0  0  0  0  0  0
   42.9420   27.1620   43.5650 N   0  0  0  0  0  0  0  0  0  0  0  0
   43.7620   27.2500   42.5000 C   0  0  0  0  0  0  0  0  0  0  0  0
   45.0730   26.8470   42.6170 C   0  0  0  0  0  0  0  0  0  0  0  0
   45.4380   26.3690   43.8750 C   0  0  0  0  0  0  0  0  0  0  0  0
   46.6320   25.9900   44.0310 O   0  0  0  0  0  0  0  0  0  0  0  0
   44.5920   26.2910   44.9340 N   0  0  0  0  0  0  0  0  0  0  0  0
   43.3370   26.6930   44.7640 C   0  0  0  0  0  0  0  0  0  0  0  0
   42.5240   26.6400   45.7100 O   0  0  0  0  0  0  0  0  0  0  0  0
   43.4950   27.6170   41.5200 H   0  0  0  0  0  0  0  0  0  0  0  0
   45.7910   26.8870   41.8090 H   0  0  0  0  0  0  0  0  0  0  0  0
   44.9410   25.9200   45.8510 H   0  0  0  0  0  0  0  0  0  0  0  0
   37.3710   31.9120   38.4780 C   0  0  0  0  0  0  0  0  0  0  0  0
   36.8440   33.0600   39.0010 F   0  0  0  0  0  0  0  0  0  0  0  0
   38.2230   32.2350   37.4500 F   0  0  0  0  0  0  0  0  0  0  0  0
   36.3200   31.1580   37.9760 F   0  0  0  0  0  0  0  0  0  0  0  0
   38.6250   27.5210   40.0610 C   0  0  0  0  0  0  0  0  0  0  0  0
   39.9610   26.8510   39.8820 C   0  0  0  0  0  0  0  0  0  0  0  0
   39.9500   26.0070   39.1690 H   0  0  0  0  0  0  0  0  0  0  0  0
   40.3770   26.6110   40.8660 H   0  0  0  0  0  0  0  0  0  0  0  0
   40.6980   27.5780   39.4320 H   0  0  0  0  0  0  0  0  0  0  0  0
   38.0000   27.3710   38.6240 C   0  0  0  0  0  0  0  0  0  0  0  0
   36.8800   27.4210   38.7300 H   0  0  0  0  0  0  0  0  0  0  0  0
   38.2960   28.2580   38.0300 H   0  0  0  0  0  0  0  0  0  0  0  0
   38.2670   26.4070   38.1950 H   0  0  0  0  0  0  0  0  0  0  0  0
   37.6760   26.7970   40.9400 C   0  0  0  0  0  0  0  0  0  0  0  0
   37.3950   27.2220   41.9010 H   0  0  0  0  0  0  0  0  0  0  0  0
   36.6270   26.7720   40.4370 H   0  0  0  0  0  0  0  0  0  0  0  0
   37.9540   25.3180   41.0580 C   0  0  0  0  0  0  0  0  0  0  0  0
   38.7210   24.7010   42.0590 C   0  0  0  0  0  0  0  0  0  0  0  0
   38.7470   23.3640   41.9360 N   0  0  0  0  0  0  0  0  0  0  0  0
   38.0080   23.0490   40.8600 C   0  0  0  0  0  0  0  0  0  0  0  0
   37.6900   21.8540   40.2480 C   0  0  0  0  0  0  0  0  0  0  0  0
   36.8940   21.8070   39.0990 C   0  0  0  0  0  0  0  0  0  0  0  0
   36.4010   22.9960   38.5450 C   0  0  0  0  0  0  0  0  0  0  0  0
   36.7620   24.1450   39.2120 C   0  0  0  0  0  0  0  0  0  0  0  0
   37.5380   24.2310   40.3410 C   0  0  0  0  0  0  0  0  0  0  0  0
   39.2530   22.7110   42.5690 H   0  0  0  0  0  0  0  0  0  0  0  0
  1  7  1  0  0  0  0
  2  1  1  0  0  0  0
  2  8  1  0  0  0  0
  3  2  2  0  0  0  0
  4  5  2  0  0  0  0
  4  3  1  0  0  0  0
  5  6  1  0  0  0  0
  6  1  2  0  0  0  0
  8 12  1  0  0  0  0
  8  9  2  0  0  0  0
  9 10  1  0  0  0  0
 11 13  1  0  0  0  0
 11 10  1  0  0  0  0
 12 11  2  0  0  0  0
 13 19  1  0  0  0  0
 14 15  2  0  0  0  0
 14 13  1  0  0  0  0
 15 16  1  0  0  0  0
 16 17  2  0  0  0  0
 16 18  1  0  0  0  0
 18 23  1  0  0  0  0
 19 18  1  0  0  0  0
 19 20  2  0  0  0  0
 21 14  1  0  0  0  0
 22 15  1  0  0  0  0
 24 25  1  0  0  0  0
 24  5  1  0  0  0  0
 26 24  1  0  0  0  0
 27 24  1  0  0  0  0
 28  3  1  0  0  0  0
 28 37  1  0  0  0  0
 29 28  1  0  0  0  0
 29 31  1  0  0  0  0
 30 29  1  0  0  0  0
 32 29  1  0  0  0  0
 33 34  1  0  0  0  0
 33 28  1  0  0  0  0
 35 33  1  0  0  0  0
 36 33  1  0  0  0  0
 37 40  1  0  0  0  0
 37 38  1  0  0  0  0
 39 37  1  0  0  0  0
 40 41  2  0  0  0  0
 42 41  1  0  0  0  0
 42 49  1  0  0  0  0
 43 42  1  0  0  0  0
 44 43  2  0  0  0  0
 45 44  1  0  0  0  0
 46 45  2  0  0  0  0
 46 47  1  0  0  0  0
 47 48  2  0  0  0  0
 48 43  1  0  0  0  0
 48 40  1  0  0  0  0
M  END
>  <minimizedAffinity>
-6.05417013

>  <minimizedRMSD>
1.27575636

$$$$
