
 OpenBabel03242509283D

 46 50  0  0  0  0  0  0  0  0999 V2000
   36.1770   30.0790   41.1220 C   0  0  0  0  0  0  0  0  0  0  0  0
   35.5970   30.6060   41.9240 H   0  0  0  0  0  0  0  0  0  0  0  0
   36.7760   30.8770   40.6400 H   0  0  0  0  0  0  0  0  0  0  0  0
   38.6510   28.1540   42.7050 C   0  0  0  0  0  0  0  0  0  0  0  0
   37.5680   27.3200   42.8030 C   0  0  0  0  0  0  0  0  0  0  0  0
   36.4980   27.9840   42.1950 C   0  0  0  0  0  0  0  0  0  0  0  0
   37.0220   29.1540   41.7850 N   0  0  0  0  0  0  0  0  0  0  0  0
   38.2760   29.2830   42.0670 N   0  0  0  0  0  0  0  0  0  0  0  0
   37.6150   26.3450   43.2770 H   0  0  0  0  0  0  0  0  0  0  0  0
   35.5030   27.5650   42.1220 H   0  0  0  0  0  0  0  0  0  0  0  0
   41.5670   26.5040   44.3390 C   0  0  0  0  0  0  0  0  0  0  0  0
   40.2590   26.7030   43.8820 C   0  0  0  0  0  0  0  0  0  0  0  0
   39.9880   27.8970   43.1940 C   0  0  0  0  0  0  0  0  0  0  0  0
   40.9800   28.8020   42.9980 N   0  0  0  0  0  0  0  0  0  0  0  0
   42.2390   28.5450   43.4720 C   0  0  0  0  0  0  0  0  0  0  0  0
   42.5210   27.4150   44.1290 N   0  0  0  0  0  0  0  0  0  0  0  0
   41.7360   25.5750   44.8630 H   0  0  0  0  0  0  0  0  0  0  0  0
   39.4690   25.9690   44.0460 H   0  0  0  0  0  0  0  0  0  0  0  0
   43.2650   29.5540   43.2310 C   0  0  0  0  0  0  0  0  0  0  0  0
   43.0920   30.8200   43.7490 C   0  0  0  0  0  3  0  0  0  0  0  0
   44.0400   31.8290   43.5530 C   0  0  0  0  0  0  0  0  0  0  0  0
   43.8430   32.7960   43.9850 H   0  0  0  0  0  0  0  0  0  0  0  0
   45.1330   31.4950   42.8270 N   0  0  0  0  0  0  0  0  0  0  0  0
   45.2860   30.2460   42.3260 C   0  0  0  0  0  3  0  0  0  0  0  0
   44.3580   29.2940   42.5300 N   0  0  0  0  0  0  0  0  0  0  0  0
   35.2810   29.5150   40.0680 C   0  0  0  0  0  0  0  0  0  0  0  0
   34.5680   30.4000   39.9550 H   0  0  0  0  0  0  0  0  0  0  0  0
   34.8110   28.6110   40.4300 H   0  0  0  0  0  0  0  0  0  0  0  0
   35.8850   29.4370   38.7170 C   0  0  0  0  0  0  0  0  0  0  0  0
   37.2040   29.5800   38.3850 C   0  0  0  0  0  0  0  0  0  0  0  0
   37.7160   29.5620   37.1190 C   0  0  0  0  0  0  0  0  0  0  0  0
   36.8720   29.3880   36.0560 C   0  0  0  0  0  0  0  0  0  0  0  0
   35.5270   29.2370   36.3180 C   0  0  0  0  0  0  0  0  0  0  0  0
   34.7310   29.0770   35.2120 C   0  0  0  0  0  0  0  0  0  0  0  0
   33.3740   28.9220   35.3660 C   0  0  0  0  0  0  0  0  0  0  0  0
   32.8350   28.9290   36.6340 C   0  0  0  0  0  0  0  0  0  0  0  0
   33.6830   29.0930   37.6990 C   0  0  0  0  0  0  0  0  0  0  0  0
   35.0250   29.2560   37.6180 C   0  0  0  0  0  0  0  0  0  0  0  0
   37.8660   29.7180   39.2500 H   0  0  0  0  0  0  0  0  0  0  0  0
   38.7860   29.6890   37.0340 H   0  0  0  0  0  0  0  0  0  0  0  0
   37.2820   29.3760   35.0540 H   0  0  0  0  0  0  0  0  0  0  0  0
   35.1200   29.0630   34.2000 H   0  0  0  0  0  0  0  0  0  0  0  0
   32.7160   28.7950   34.5140 H   0  0  0  0  0  0  0  0  0  0  0  0
   31.7670   28.8070   36.7580 H   0  0  0  0  0  0  0  0  0  0  0  0
   33.0810   29.0750   38.9470 O   0  0  0  0  0  0  0  0  0  0  0  0
   32.2600   29.6570   39.0670 H   0  0  0  0  0  0  0  0  0  0  0  0
  1  7  1  0  0  0  0
  1  2  1  0  0  0  0
  3  1  1  0  0  0  0
  4  5  1  0  0  0  0
  4 13  1  0  0  0  0
  5  9  1  0  0  0  0
  6  5  2  0  0  0  0
  7  8  1  0  0  0  0
  7  6  1  0  0  0  0
  8  4  2  0  0  0  0
 10  6  1  0  0  0  0
 11 17  1  0  0  0  0
 12 18  1  0  0  0  0
 12 11  2  0  0  0  0
 13 12  1  0  0  0  0
 14 13  2  0  0  0  0
 14 15  1  0  0  0  0
 15 16  2  0  0  0  0
 16 11  1  0  0  0  0
 19 15  1  0  0  0  0
 19 20  1  0  0  0  0
 21 20  2  0  0  0  0
 21 22  1  0  0  0  0
 23 21  1  0  0  0  0
 24 25  1  0  0  0  0
 24 23  2  0  0  0  0
 25 19  2  0  0  0  0
 26 28  1  0  0  0  0
 26  1  1  0  0  0  0
 27 26  1  0  0  0  0
 29 26  1  0  0  0  0
 30 29  1  0  0  0  0
 30 39  1  0  0  0  0
 31 30  2  0  0  0  0
 32 33  2  0  0  0  0
 32 31  1  0  0  0  0
 33 38  1  0  0  0  0
 34 35  2  0  0  0  0
 34 33  1  0  0  0  0
 35 36  1  0  0  0  0
 36 44  1  0  0  0  0
 36 37  2  0  0  0  0
 37 45  1  0  0  0  0
 38 37  1  0  0  0  0
 38 29  2  0  0  0  0
 40 31  1  0  0  0  0
 41 32  1  0  0  0  0
 42 34  1  0  0  0  0
 43 35  1  0  0  0  0
 45 46  1  0  0  0  0
M  END
>  <minimizedAffinity>
-6.07670832

>  <minimizedRMSD>
0.187919915

$$$$
