
 OpenBabel03242509323D

 19 20  0  0  0  0  0  0  0  0999 V2000
   37.4860   28.6280   43.5940 C   0  0  0  0  0  0  0  0  0  0  0  0
   37.3780   27.2450   43.3150 C   0  0  0  0  0  0  0  0  0  0  0  0
   37.2630   26.8610   41.9830 C   0  0  0  0  0  0  0  0  0  0  0  0
   37.2600   27.8420   41.0270 N   0  0  0  0  0  0  0  0  0  0  0  0
   37.3640   29.1440   41.3210 C   0  0  0  0  0  0  0  0  0  0  0  0
   37.4750   29.5240   42.6050 N   0  0  0  0  0  0  0  0  0  0  0  0
   37.5750   28.9210   44.6380 H   0  0  0  0  0  0  0  0  0  0  0  0
   37.3880   26.5470   44.1260 H   0  0  0  0  0  0  0  0  0  0  0  0
   37.3560   30.1560   40.2660 C   0  0  0  0  0  0  0  0  0  0  0  0
   37.1420   31.4860   40.6200 C   0  0  0  0  0  3  0  0  0  0  0  0
   37.1300   32.4610   39.6450 C   0  0  0  0  0  0  0  0  0  0  0  0
   36.9670   33.4800   39.9100 H   0  0  0  0  0  0  0  0  0  0  0  0
   37.3310   32.0470   38.3800 N   0  0  0  0  0  0  0  0  0  0  0  0
   37.5380   30.7610   38.0320 C   0  0  0  0  0  3  0  0  0  0  0  0
   37.5530   29.7950   38.9790 N   0  0  0  0  0  0  0  0  0  0  0  0
   37.1470   25.4100   41.6480 C   0  0  0  0  0  0  0  0  0  0  0  0
   36.4760   25.3500   40.4420 F   0  0  0  0  0  0  0  0  0  0  0  0
   38.3790   24.8270   41.4770 F   0  0  0  0  0  0  0  0  0  0  0  0
   36.4330   24.7110   42.6050 F   0  0  0  0  0  0  0  0  0  0  0  0
  1  7  1  0  0  0  0
  2  1  1  0  0  0  0
  2  8  1  0  0  0  0
  3  2  2  0  0  0  0
  4  5  2  0  0  0  0
  4  3  1  0  0  0  0
  5  6  1  0  0  0  0
  6  1  2  0  0  0  0
  9 10  1  0  0  0  0
  9  5  1  0  0  0  0
 11 12  1  0  0  0  0
 11 10  2  0  0  0  0
 13 11  1  0  0  0  0
 14 13  2  0  0  0  0
 14 15  1  0  0  0  0
 15  9  2  0  0  0  0
 16  3  1  0  0  0  0
 16 19  1  0  0  0  0
 17 16  1  0  0  0  0
 18 16  1  0  0  0  0
M  END
>  <minimizedAffinity>
-4.647542

>  <minimizedRMSD>
1.68258631

$$$$
