
 OpenBabel03242505103D

 29 31  0  0  1  0  0  0  0  0999 V2000
   36.7210   30.5110   40.4300 C   0  0  1  0  0  0  0  0  0  0  0  0
   37.4260   31.8150   40.6220 C   0  0  0  0  0  0  0  0  0  0  0  0
   37.0870   32.5090   39.3090 C   0  0  0  0  0  0  0  0  0  0  0  0
   37.0670   31.3800   38.2970 C   0  0  0  0  0  0  0  0  0  0  0  0
   37.1650   30.0770   39.0800 C   0  0  2  0  0  0  0  0  0  0  0  0
   35.6200   30.7060   40.4780 H   0  0  0  0  0  0  0  0  0  0  0  0
   37.0610   32.3930   41.4910 H   0  0  0  0  0  0  0  0  0  0  0  0
   38.5290   31.6870   40.6300 H   0  0  0  0  0  0  0  0  0  0  0  0
   36.0720   32.9350   39.3760 H   0  0  0  0  0  0  0  0  0  0  0  0
   37.8540   33.2690   39.0440 H   0  0  0  0  0  0  0  0  0  0  0  0
   36.1520   31.4000   37.6730 H   0  0  0  0  0  0  0  0  0  0  0  0
   37.9340   31.4160   37.6070 H   0  0  0  0  0  0  0  0  0  0  0  0
   38.2130   29.7410   39.1450 H   0  0  0  0  0  0  0  0  0  0  0  0
   38.2930   28.9900   43.3800 C   0  0  0  0  0  0  0  0  0  0  0  0
   37.4850   27.8250   43.6100 C   0  0  0  0  0  0  0  0  0  0  0  0
   36.4150   27.5970   42.7250 C   0  0  0  0  0  0  0  0  0  0  0  0
   36.1870   28.4640   41.7070 N   0  0  0  0  0  0  0  0  0  0  0  0
   36.9890   29.5590   41.5320 C   0  0  0  0  0  0  0  0  0  0  0  0
   38.0150   29.8170   42.3450 N   0  0  0  0  0  0  0  0  0  0  0  0
   39.1050   29.1310   44.0800 H   0  0  0  0  0  0  0  0  0  0  0  0
   37.6720   27.1460   44.4160 H   0  0  0  0  0  0  0  0  0  0  0  0
   35.7610   26.7570   42.8190 H   0  0  0  0  0  0  0  0  0  0  0  0
   36.3380   29.0840   38.4000 C   0  0  0  0  0  0  0  0  0  0  0  0
   34.9470   29.1080   38.2830 C   0  0  0  0  0  0  0  0  0  0  0  0
   34.2520   28.1160   37.6150 C   0  0  0  0  0  0  0  0  0  0  0  0
   33.1700   28.1570   37.5380 H   0  0  0  0  0  0  0  0  0  0  0  0
   34.9290   27.1090   37.0700 N   0  0  0  0  0  0  0  0  0  0  0  0
   36.2850   27.0500   37.1620 C   0  0  0  0  0  0  0  0  0  0  0  0
   36.9230   28.0140   37.8070 N   0  0  0  0  0  0  0  0  0  0  0  0
  1  6  1  6  0  0  0
  1  2  1  0  0  0  0
  1 18  1  0  0  0  0
  2  8  1  0  0  0  0
  2  7  1  0  0  0  0
  3  9  1  0  0  0  0
  3  2  1  0  0  0  0
  4  5  1  0  0  0  0
  4  3  1  0  0  0  0
  5 13  1  1  0  0  0
  5  1  1  0  0  0  0
 10  3  1  0  0  0  0
 11  4  1  0  0  0  0
 12  4  1  0  0  0  0
 14 15  1  0  0  0  0
 14 20  1  0  0  0  0
 15 21  1  0  0  0  0
 16 22  1  0  0  0  0
 16 15  2  0  0  0  0
 17 16  1  0  0  0  0
 18 17  2  0  0  0  0
 18 19  1  0  0  0  0
 19 14  2  0  0  0  0
 23  5  1  0  0  0  0
 24 23  1  0  0  0  0
 25 24  2  0  0  0  0
 26 25  1  0  0  0  0
 27 28  2  0  0  0  0
 27 25  1  0  0  0  0
 28 29  1  0  0  0  0
 29 23  2  0  0  0  0
M  END
>  <minimizedAffinity>
-4.62729263

>  <minimizedRMSD>
1.70853913

$$$$
