
 OpenBabel03242508313D

 29 32  0  0  0  0  0  0  0  0999 V2000
   38.4850   28.3500   43.2450 C   0  0  0  0  0  0  0  0  0  0  0  0
   38.1630   27.1470   42.5660 C   0  0  0  0  0  0  0  0  0  0  0  0
   37.2330   27.2180   41.5140 C   0  0  0  0  0  0  0  0  0  0  0  0
   36.7030   28.4280   41.2140 N   0  0  0  0  0  0  0  0  0  0  0  0
   37.0380   29.5400   41.8850 C   0  0  0  0  0  0  0  0  0  0  0  0
   37.9190   29.5140   42.8910 N   0  0  0  0  0  0  0  0  0  0  0  0
   39.1900   28.3380   44.0550 H   0  0  0  0  0  0  0  0  0  0  0  0
   38.6340   26.2310   42.8730 H   0  0  0  0  0  0  0  0  0  0  0  0
   36.8900   25.9880   40.8030 C   0  0  0  0  0  0  0  0  0  0  0  0
   37.0150   24.7880   41.4730 C   0  0  0  0  0  0  0  0  0  0  0  0
   36.6590   23.6860   40.6930 C   0  0  0  0  0  0  0  0  0  0  0  0
   36.7430   22.7040   41.1860 H   0  0  0  0  0  0  0  0  0  0  0  0
   36.2350   23.8140   39.4040 N   0  0  0  0  0  0  0  0  0  0  0  0
   36.1440   25.0110   38.8370 C   0  0  0  0  0  0  0  0  0  0  0  0
   36.4760   26.1170   39.5440 N   0  0  0  0  0  0  0  0  0  0  0  0
   36.3670   30.6330   41.3930 O   0  0  0  0  0  0  0  0  0  0  0  0
   36.9900   31.4960   40.5040 C   0  0  0  0  0  0  0  0  0  0  0  0
   36.8730   31.6520   39.1510 N   0  0  0  0  0  0  0  0  0  0  0  0
   37.6800   32.6100   38.7700 O   0  0  0  0  0  0  0  0  0  0  0  0
   38.2990   33.0580   39.8340 C   0  0  0  0  0  0  0  0  0  0  0  0
   37.8980   32.3950   40.9270 N   0  0  0  0  0  0  0  0  0  0  0  0
   39.2810   34.1320   39.8030 C   0  0  0  0  0  0  0  0  0  0  0  0
   39.0680   35.4560   40.2080 C   0  0  0  0  0  0  0  0  0  0  0  0
   40.2310   36.1740   40.0300 C   0  0  0  0  0  0  0  0  0  0  0  0
   41.1290   35.2510   39.5150 C   0  0  0  0  0  0  0  0  0  0  0  0
   40.5200   34.1060   39.4110 O   0  0  0  0  0  0  0  0  0  0  0  0
   38.0950   35.7810   40.5940 H   0  0  0  0  0  0  0  0  0  0  0  0
   40.3170   37.2120   40.2690 H   0  0  0  0  0  0  0  0  0  0  0  0
   42.1540   35.5010   39.2600 H   0  0  0  0  0  0  0  0  0  0  0  0
  1  7  1  0  0  0  0
  2  8  1  0  0  0  0
  2  1  2  0  0  0  0
  3  2  1  0  0  0  0
  4  3  2  0  0  0  0
  4  5  1  0  0  0  0
  5  6  2  0  0  0  0
  6  1  1  0  0  0  0
  9 10  1  0  0  0  0
  9  3  1  0  0  0  0
 11 12  1  0  0  0  0
 11 10  2  0  0  0  0
 13 11  1  0  0  0  0
 14 13  2  0  0  0  0
 14 15  1  0  0  0  0
 15  9  2  0  0  0  0
 16  5  1  0  0  0  0
 17 21  1  0  0  0  0
 17 16  1  0  0  0  0
 18 17  2  0  0  0  0
 19 18  1  0  0  0  0
 19 20  1  0  0  0  0
 20 21  2  0  0  0  0
 22 20  1  0  0  0  0
 22 23  2  0  0  0  0
 23 27  1  0  0  0  0
 24 23  1  0  0  0  0
 24 28  1  0  0  0  0
 25 24  2  0  0  0  0
 26 25  1  0  0  0  0
 26 22  1  0  0  0  0
 29 25  1  0  0  0  0
M  END
>  <minimizedAffinity>
-5.92576647

>  <minimizedRMSD>
0.841408849

$$$$
