
 OpenBabel03242509033D

 36 39  0  0  1  0  0  0  0  0999 V2000
   39.3280   31.7480   39.9230 N   0  0  1  0  0  0  0  0  0  0  0  0
   40.4910   31.0960   39.2630 C   0  0  0  0  0  0  0  0  0  0  0  0
   41.2360   30.2100   40.2130 C   0  0  0  0  0  0  0  0  0  0  0  0
   41.3990   30.8210   41.4540 O   0  0  0  0  0  0  0  0  0  0  0  0
   41.3140   32.1810   41.2700 C   0  0  0  0  0  0  0  0  0  0  0  0
   39.8790   32.6210   40.8990 C   0  0  1  0  0  0  0  0  0  0  0  0
   41.1330   31.8500   38.7650 H   0  0  0  0  0  0  0  0  0  0  0  0
   40.1020   30.4370   38.4330 H   0  0  0  0  0  0  0  0  0  0  0  0
   40.6850   29.2400   40.3120 H   0  0  0  0  0  0  0  0  0  0  0  0
   42.2110   29.9760   39.7700 H   0  0  0  0  0  0  0  0  0  0  0  0
   41.5270   32.6790   42.2390 H   0  0  0  0  0  0  0  0  0  0  0  0
   42.0300   32.5590   40.4970 H   0  0  0  0  0  0  0  0  0  0  0  0
   39.3030   32.5460   41.8390 H   0  0  0  0  0  0  0  0  0  0  0  0
   37.2420   31.5230   38.4090 C   0  0  1  0  0  0  0  0  0  0  0  0
   37.0980   32.7770   39.1790 C   0  0  0  0  0  0  0  0  0  0  0  0
   38.4620   32.2910   38.9630 C   0  0  1  0  0  0  0  0  0  0  0  0
   37.1720   31.4310   37.3260 H   0  0  0  0  0  0  0  0  0  0  0  0
   36.5390   32.7120   40.1350 H   0  0  0  0  0  0  0  0  0  0  0  0
   36.6890   33.6400   38.5730 H   0  0  0  0  0  0  0  0  0  0  0  0
   38.9860   32.8480   38.1250 H   0  0  0  0  0  0  0  0  0  0  0  0
   35.6020   29.2140   40.7620 C   0  0  0  0  0  0  0  0  0  0  0  0
   36.1360   27.9550   40.3780 C   0  0  0  0  0  0  0  0  0  0  0  0
   37.0730   27.9380   39.3060 C   0  0  0  0  0  0  0  0  0  0  0  0
   37.4160   29.1350   38.6970 N   0  0  0  0  0  0  0  0  0  0  0  0
   36.8660   30.2760   39.1190 C   0  0  0  0  0  0  0  0  0  0  0  0
   35.9740   30.3400   40.1330 N   0  0  0  0  0  0  0  0  0  0  0  0
   34.8880   29.3050   41.5670 H   0  0  0  0  0  0  0  0  0  0  0  0
   35.8350   27.0700   40.8840 H   0  0  0  0  0  0  0  0  0  0  0  0
   37.4950   27.0080   38.9900 H   0  0  0  0  0  0  0  0  0  0  0  0
   40.0380   34.0390   40.4540 C   0  0  0  0  0  0  0  0  0  0  0  0
   39.2180   35.1530   40.6780 C   0  0  0  0  0  0  0  0  0  0  0  0
   39.6210   36.3540   40.1390 C   0  0  0  0  0  0  0  0  0  0  0  0
   38.9320   37.1580   40.3610 H   0  0  0  0  0  0  0  0  0  0  0  0
   40.7540   36.4380   39.4270 N   0  0  0  0  0  0  0  0  0  0  0  0
   41.5530   35.3790   39.2000 C   0  0  0  0  0  0  0  0  0  0  0  0
   41.1650   34.2030   39.7260 N   0  0  0  0  0  0  0  0  0  0  0  0
  1  2  1  6  0  0  0
  1  6  1  0  0  0  0
  2  3  1  0  0  0  0
  3  9  1  0  0  0  0
  3  4  1  0  0  0  0
  5  4  1  0  0  0  0
  5 11  1  0  0  0  0
  6  5  1  0  0  0  0
  6 13  1  1  0  0  0
  7  2  1  0  0  0  0
  8  2  1  0  0  0  0
 10  3  1  0  0  0  0
 12  5  1  0  0  0  0
 14 17  1  6  0  0  0
 14 16  1  0  0  0  0
 14 25  1  0  0  0  0
 14 15  1  0  0  0  0
 15 18  1  0  0  0  0
 16 20  1  6  0  0  0
 16 15  1  0  0  0  0
 16  1  1  0  0  0  0
 19 15  1  0  0  0  0
 21 27  1  0  0  0  0
 22 21  1  0  0  0  0
 22 28  1  0  0  0  0
 23 22  2  0  0  0  0
 24 25  2  0  0  0  0
 24 23  1  0  0  0  0
 25 26  1  0  0  0  0
 26 21  2  0  0  0  0
 29 23  1  0  0  0  0
 30 31  1  0  0  0  0
 30  6  1  0  0  0  0
 32 33  1  0  0  0  0
 32 31  2  0  0  0  0
 34 32  1  0  0  0  0
 35 34  2  0  0  0  0
 35 36  1  0  0  0  0
 36 30  2  0  0  0  0
M  END
>  <minimizedAffinity>
-5.06898355

>  <minimizedRMSD>
3.13317943

$$$$
