
 OpenBabel03242503573D

 24 26  0  0  0  0  0  0  0  0999 V2000
   35.5440   28.7210   40.9830 C   0  0  0  0  0  0  0  0  0  0  0  0
   34.8240   27.9110   40.8280 H   0  0  0  0  0  0  0  0  0  0  0  0
   35.0050   29.5670   41.4610 H   0  0  0  0  0  0  0  0  0  0  0  0
   38.2410   28.4780   43.5020 C   0  0  0  0  0  0  0  0  0  0  0  0
   38.6080   27.1250   43.4120 C   0  0  0  0  0  0  0  0  0  0  0  0
   37.9210   26.3320   42.4900 C   0  0  0  0  0  0  0  0  0  0  0  0
   36.9550   26.9040   41.7460 N   0  0  0  0  0  0  0  0  0  0  0  0
   36.6300   28.2150   41.8630 C   0  0  0  0  0  0  0  0  0  0  0  0
   37.2830   28.9990   42.7500 N   0  0  0  0  0  0  0  0  0  0  0  0
   38.1490   24.9490   42.2560 N   0  0  0  0  0  0  0  0  0  0  0  0
   38.8200   29.0330   44.2420 H   0  0  0  0  0  0  0  0  0  0  0  0
   39.3680   26.6150   43.9770 H   0  0  0  0  0  0  0  0  0  0  0  0
   37.5240   24.1480   42.5670 H   0  0  0  0  0  0  0  0  0  0  0  0
   39.0300   24.7030   41.7160 H   0  0  0  0  0  0  0  0  0  0  0  0
   36.0920   29.2370   39.6900 C   0  0  0  0  0  0  0  0  0  0  0  0
   36.1680   28.5510   38.4950 C   0  0  0  0  0  0  0  0  0  0  0  0
   36.7330   29.4240   37.6200 N   0  0  0  0  0  0  0  0  0  0  0  0
   36.9980   30.5990   38.2280 C   0  0  0  0  0  0  0  0  0  0  0  0
   37.5580   31.7850   37.7860 C   0  0  0  0  0  0  0  0  0  0  0  0
   37.7150   32.8570   38.6460 C   0  0  0  0  0  0  0  0  0  0  0  0
   37.3230   32.7890   39.9750 C   0  0  0  0  0  0  0  0  0  0  0  0
   36.7580   31.5910   40.4150 C   0  0  0  0  0  0  0  0  0  0  0  0
   36.6060   30.5240   39.5470 C   0  0  0  0  0  0  0  0  0  0  0  0
   36.9210   29.1730   36.6040 H   0  0  0  0  0  0  0  0  0  0  0  0
  1  3  1  0  0  0  0
  1  8  1  0  0  0  0
  2  1  1  0  0  0  0
  4 11  1  0  0  0  0
  5  4  1  0  0  0  0
  5 12  1  0  0  0  0
  6  5  2  0  0  0  0
  7  8  2  0  0  0  0
  7  6  1  0  0  0  0
  8  9  1  0  0  0  0
  9  4  2  0  0  0  0
 10  6  1  0  0  0  0
 10 13  1  0  0  0  0
 14 10  1  0  0  0  0
 15  1  1  0  0  0  0
 16 15  2  0  0  0  0
 17 18  1  0  0  0  0
 17 16  1  0  0  0  0
 18 23  1  0  0  0  0
 19 18  2  0  0  0  0
 19 20  1  0  0  0  0
 20 21  2  0  0  0  0
 21 22  1  0  0  0  0
 23 15  1  0  0  0  0
 23 22  2  0  0  0  0
 24 17  1  0  0  0  0
M  END
>  <minimizedAffinity>
-4.9459033

>  <minimizedRMSD>
1.02358973

$$$$
