
 OpenBabel03242509283D

 46 50  0  0  0  0  0  0  0  0999 V2000
   36.1740   30.1210   41.0920 C   0  0  0  0  0  0  0  0  0  0  0  0
   35.6380   30.7050   41.8630 H   0  0  0  0  0  0  0  0  0  0  0  0
   36.8210   30.8640   40.5720 H   0  0  0  0  0  0  0  0  0  0  0  0
   38.5730   28.1100   42.6940 C   0  0  0  0  0  0  0  0  0  0  0  0
   37.4610   27.3240   42.8040 C   0  0  0  0  0  0  0  0  0  0  0  0
   36.4140   28.0140   42.1950 C   0  0  0  0  0  0  0  0  0  0  0  0
   36.9740   29.1590   41.7690 N   0  0  0  0  0  0  0  0  0  0  0  0
   38.2410   29.2550   42.0420 N   0  0  0  0  0  0  0  0  0  0  0  0
   37.4570   26.3480   43.2880 H   0  0  0  0  0  0  0  0  0  0  0  0
   35.4370   27.5960   42.1560 H   0  0  0  0  0  0  0  0  0  0  0  0
   41.4380   26.3730   44.3220 C   0  0  0  0  0  0  0  0  0  0  0  0
   40.1370   26.6180   43.8660 C   0  0  0  0  0  0  0  0  0  0  0  0
   39.9030   27.8170   43.1800 C   0  0  0  0  0  0  0  0  0  0  0  0
   40.9210   28.6870   42.9820 N   0  0  0  0  0  0  0  0  0  0  0  0
   42.1730   28.3930   43.4510 C   0  0  0  0  0  0  0  0  0  0  0  0
   42.4200   27.2540   44.1080 N   0  0  0  0  0  0  0  0  0  0  0  0
   41.5810   25.4290   44.8510 H   0  0  0  0  0  0  0  0  0  0  0  0
   39.3610   25.9000   44.0460 H   0  0  0  0  0  0  0  0  0  0  0  0
   43.2390   29.3570   43.2140 C   0  0  0  0  0  0  0  0  0  0  0  0
   44.5300   28.8710   43.0810 C   0  0  0  0  0  3  0  0  0  0  0  0
   45.3470   29.9740   42.8660 C   0  0  0  0  0  0  0  0  0  0  0  0
   46.4330   29.9580   42.7180 H   0  0  0  0  0  0  0  0  0  0  0  0
   44.5590   31.0710   42.8740 N   0  0  0  0  0  0  0  0  0  0  0  0
   43.3010   30.7130   43.0810 N   0  0  0  0  0  0  0  0  0  0  0  0
   44.9130   32.0400   42.7350 H   0  0  0  0  0  0  0  0  0  0  0  0
   35.2640   29.5660   40.0370 C   0  0  0  0  0  0  0  0  0  0  0  0
   34.7710   28.6820   40.4080 H   0  0  0  0  0  0  0  0  0  0  0  0
   34.5830   30.4720   39.9050 H   0  0  0  0  0  0  0  0  0  0  0  0
   35.8790   29.4460   38.6860 C   0  0  0  0  0  0  0  0  0  0  0  0
   37.1960   29.5810   38.3570 C   0  0  0  0  0  0  0  0  0  0  0  0
   37.7110   29.5550   37.1020 C   0  0  0  0  0  0  0  0  0  0  0  0
   36.8640   29.3800   36.0320 C   0  0  0  0  0  0  0  0  0  0  0  0
   35.5130   29.2350   36.2960 C   0  0  0  0  0  0  0  0  0  0  0  0
   34.7200   29.0700   35.1850 C   0  0  0  0  0  0  0  0  0  0  0  0
   33.3700   28.9170   35.3390 C   0  0  0  0  0  0  0  0  0  0  0  0
   32.8270   28.9280   36.6200 C   0  0  0  0  0  0  0  0  0  0  0  0
   33.6790   29.0970   37.6760 C   0  0  0  0  0  0  0  0  0  0  0  0
   35.0220   29.2630   37.6010 C   0  0  0  0  0  0  0  0  0  0  0  0
   37.8770   29.7220   39.2060 H   0  0  0  0  0  0  0  0  0  0  0  0
   38.7800   29.6740   36.9820 H   0  0  0  0  0  0  0  0  0  0  0  0
   37.2830   29.3640   35.0450 H   0  0  0  0  0  0  0  0  0  0  0  0
   35.1200   29.0560   34.1800 H   0  0  0  0  0  0  0  0  0  0  0  0
   32.6980   28.7870   34.4990 H   0  0  0  0  0  0  0  0  0  0  0  0
   31.7620   28.8040   36.7360 H   0  0  0  0  0  0  0  0  0  0  0  0
   33.0760   29.0780   38.9240 O   0  0  0  0  0  0  0  0  0  0  0  0
   32.6140   28.2100   39.2320 H   0  0  0  0  0  0  0  0  0  0  0  0
  1  7  1  0  0  0  0
  1  2  1  0  0  0  0
  3  1  1  0  0  0  0
  4  5  1  0  0  0  0
  4 13  1  0  0  0  0
  5  9  1  0  0  0  0
  6  5  2  0  0  0  0
  7  8  1  0  0  0  0
  7  6  1  0  0  0  0
  8  4  2  0  0  0  0
 10  6  1  0  0  0  0
 11 17  1  0  0  0  0
 12 18  1  0  0  0  0
 12 11  2  0  0  0  0
 13 12  1  0  0  0  0
 14 13  2  0  0  0  0
 14 15  1  0  0  0  0
 15 16  2  0  0  0  0
 16 11  1  0  0  0  0
 19 15  1  0  0  0  0
 20 19  1  0  0  0  0
 21 23  1  0  0  0  0
 21 20  2  0  0  0  0
 22 21  1  0  0  0  0
 23 24  1  0  0  0  0
 24 19  2  0  0  0  0
 25 23  1  0  0  0  0
 26 27  1  0  0  0  0
 26  1  1  0  0  0  0
 28 26  1  0  0  0  0
 29 26  1  0  0  0  0
 30 29  1  0  0  0  0
 30 39  1  0  0  0  0
 31 30  2  0  0  0  0
 32 33  2  0  0  0  0
 32 31  1  0  0  0  0
 33 38  1  0  0  0  0
 34 35  2  0  0  0  0
 34 33  1  0  0  0  0
 35 36  1  0  0  0  0
 36 44  1  0  0  0  0
 36 37  2  0  0  0  0
 37 45  1  0  0  0  0
 38 37  1  0  0  0  0
 38 29  2  0  0  0  0
 40 31  1  0  0  0  0
 41 32  1  0  0  0  0
 42 34  1  0  0  0  0
 43 35  1  0  0  0  0
 45 46  1  0  0  0  0
M  END
>  <minimizedAffinity>
-5.81033945

>  <minimizedRMSD>
0.187667876

$$$$
