
 OpenBabel03242509283D

 46 50  0  0  0  0  0  0  0  0999 V2000
   36.1740   30.1210   41.0940 C   0  0  0  0  0  0  0  0  0  0  0  0
   35.6380   30.7050   41.8650 H   0  0  0  0  0  0  0  0  0  0  0  0
   36.8210   30.8650   40.5740 H   0  0  0  0  0  0  0  0  0  0  0  0
   38.5730   28.1110   42.6950 C   0  0  0  0  0  0  0  0  0  0  0  0
   37.4610   27.3250   42.8060 C   0  0  0  0  0  0  0  0  0  0  0  0
   36.4140   28.0140   42.1980 C   0  0  0  0  0  0  0  0  0  0  0  0
   36.9750   29.1590   41.7710 N   0  0  0  0  0  0  0  0  0  0  0  0
   38.2410   29.2550   42.0430 N   0  0  0  0  0  0  0  0  0  0  0  0
   37.4580   26.3490   43.2900 H   0  0  0  0  0  0  0  0  0  0  0  0
   35.4370   27.5970   42.1590 H   0  0  0  0  0  0  0  0  0  0  0  0
   41.4390   26.3720   44.3210 C   0  0  0  0  0  0  0  0  0  0  0  0
   40.1380   26.6170   43.8650 C   0  0  0  0  0  0  0  0  0  0  0  0
   39.9040   27.8170   43.1800 C   0  0  0  0  0  0  0  0  0  0  0  0
   40.9220   28.6870   42.9820 N   0  0  0  0  0  0  0  0  0  0  0  0
   42.1740   28.3930   43.4500 C   0  0  0  0  0  0  0  0  0  0  0  0
   42.4210   27.2540   44.1070 N   0  0  0  0  0  0  0  0  0  0  0  0
   41.5820   25.4280   44.8480 H   0  0  0  0  0  0  0  0  0  0  0  0
   39.3620   25.9000   44.0450 H   0  0  0  0  0  0  0  0  0  0  0  0
   43.2400   29.3570   43.2140 C   0  0  0  0  0  0  0  0  0  0  0  0
   44.5310   28.8720   43.0810 C   0  0  0  0  0  3  0  0  0  0  0  0
   45.3480   29.9750   42.8660 C   0  0  0  0  0  0  0  0  0  0  0  0
   46.4330   29.9580   42.7190 H   0  0  0  0  0  0  0  0  0  0  0  0
   44.5590   31.0710   42.8730 N   0  0  0  0  0  0  0  0  0  0  0  0
   43.3020   30.7130   43.0800 N   0  0  0  0  0  0  0  0  0  0  0  0
   44.9140   32.0410   42.7350 H   0  0  0  0  0  0  0  0  0  0  0  0
   35.2640   29.5670   40.0380 C   0  0  0  0  0  0  0  0  0  0  0  0
   34.7710   28.6830   40.4100 H   0  0  0  0  0  0  0  0  0  0  0  0
   34.5830   30.4730   39.9060 H   0  0  0  0  0  0  0  0  0  0  0  0
   35.8800   29.4460   38.6880 C   0  0  0  0  0  0  0  0  0  0  0  0
   37.1970   29.5830   38.3590 C   0  0  0  0  0  0  0  0  0  0  0  0
   37.7130   29.5570   37.1040 C   0  0  0  0  0  0  0  0  0  0  0  0
   36.8660   29.3810   36.0340 C   0  0  0  0  0  0  0  0  0  0  0  0
   35.5150   29.2350   36.2980 C   0  0  0  0  0  0  0  0  0  0  0  0
   34.7220   29.0700   35.1870 C   0  0  0  0  0  0  0  0  0  0  0  0
   33.3720   28.9160   35.3400 C   0  0  0  0  0  0  0  0  0  0  0  0
   32.8290   28.9270   36.6210 C   0  0  0  0  0  0  0  0  0  0  0  0
   33.6810   29.0970   37.6770 C   0  0  0  0  0  0  0  0  0  0  0  0
   35.0230   29.2630   37.6030 C   0  0  0  0  0  0  0  0  0  0  0  0
   37.8780   29.7240   39.2080 H   0  0  0  0  0  0  0  0  0  0  0  0
   38.7810   29.6750   36.9850 H   0  0  0  0  0  0  0  0  0  0  0  0
   37.2860   29.3650   35.0470 H   0  0  0  0  0  0  0  0  0  0  0  0
   35.1230   29.0550   34.1820 H   0  0  0  0  0  0  0  0  0  0  0  0
   32.7010   28.7860   34.5000 H   0  0  0  0  0  0  0  0  0  0  0  0
   31.7640   28.8030   36.7360 H   0  0  0  0  0  0  0  0  0  0  0  0
   33.0770   29.0780   38.9250 O   0  0  0  0  0  0  0  0  0  0  0  0
   32.6150   28.2100   39.2330 H   0  0  0  0  0  0  0  0  0  0  0  0
  1  7  1  0  0  0  0
  1  2  1  0  0  0  0
  3  1  1  0  0  0  0
  4  5  1  0  0  0  0
  4 13  1  0  0  0  0
  5  9  1  0  0  0  0
  6  5  2  0  0  0  0
  7  8  1  0  0  0  0
  7  6  1  0  0  0  0
  8  4  2  0  0  0  0
 10  6  1  0  0  0  0
 11 17  1  0  0  0  0
 12 18  1  0  0  0  0
 12 11  2  0  0  0  0
 13 12  1  0  0  0  0
 14 13  2  0  0  0  0
 14 15  1  0  0  0  0
 15 16  2  0  0  0  0
 16 11  1  0  0  0  0
 19 15  1  0  0  0  0
 20 19  1  0  0  0  0
 21 23  1  0  0  0  0
 21 20  2  0  0  0  0
 22 21  1  0  0  0  0
 23 24  1  0  0  0  0
 24 19  2  0  0  0  0
 25 23  1  0  0  0  0
 26 27  1  0  0  0  0
 26  1  1  0  0  0  0
 28 26  1  0  0  0  0
 29 26  1  0  0  0  0
 30 29  1  0  0  0  0
 30 39  1  0  0  0  0
 31 30  2  0  0  0  0
 32 33  2  0  0  0  0
 32 31  1  0  0  0  0
 33 38  1  0  0  0  0
 34 35  2  0  0  0  0
 34 33  1  0  0  0  0
 35 36  1  0  0  0  0
 36 44  1  0  0  0  0
 36 37  2  0  0  0  0
 37 45  1  0  0  0  0
 38 37  1  0  0  0  0
 38 29  2  0  0  0  0
 40 31  1  0  0  0  0
 41 32  1  0  0  0  0
 42 34  1  0  0  0  0
 43 35  1  0  0  0  0
 45 46  1  0  0  0  0
M  END
>  <minimizedAffinity>
-5.81007528

>  <minimizedRMSD>
0.170078173

$$$$
