
 OpenBabel03242509323D

 19 20  0  0  0  0  0  0  0  0999 V2000
   37.5650   28.5200   43.6900 C   0  0  0  0  0  0  0  0  0  0  0  0
   37.4740   27.1460   43.3510 C   0  0  0  0  0  0  0  0  0  0  0  0
   37.2510   26.8300   42.0130 C   0  0  0  0  0  0  0  0  0  0  0  0
   37.1340   27.8550   41.1120 N   0  0  0  0  0  0  0  0  0  0  0  0
   37.2260   29.1380   41.4770 C   0  0  0  0  0  0  0  0  0  0  0  0
   37.4400   29.4580   42.7550 N   0  0  0  0  0  0  0  0  0  0  0  0
   37.7380   28.7890   44.7230 H   0  0  0  0  0  0  0  0  0  0  0  0
   37.5760   26.4040   44.1100 H   0  0  0  0  0  0  0  0  0  0  0  0
   37.0990   30.2140   40.5020 C   0  0  0  0  0  0  0  0  0  0  0  0
   37.2370   30.1820   39.1480 C   0  0  0  0  0  3  0  0  0  0  0  0
   37.0170   31.4680   38.6780 C   0  0  0  0  0  0  0  0  0  0  0  0
   37.0490   31.7890   37.6560 H   0  0  0  0  0  0  0  0  0  0  0  0
   36.7530   32.2450   39.7540 N   0  0  0  0  0  0  0  0  0  0  0  0
   36.8030   31.5010   40.8310 N   0  0  0  0  0  0  0  0  0  0  0  0
   36.5400   33.2600   39.7910 H   0  0  0  0  0  0  0  0  0  0  0  0
   37.1470   25.3900   41.6070 C   0  0  0  0  0  0  0  0  0  0  0  0
   36.4790   25.3780   40.4090 F   0  0  0  0  0  0  0  0  0  0  0  0
   38.3790   24.8260   41.4200 F   0  0  0  0  0  0  0  0  0  0  0  0
   36.4330   24.6430   42.5300 F   0  0  0  0  0  0  0  0  0  0  0  0
  1  7  1  0  0  0  0
  2  1  1  0  0  0  0
  2  8  1  0  0  0  0
  3  2  2  0  0  0  0
  4  5  2  0  0  0  0
  4  3  1  0  0  0  0
  5  6  1  0  0  0  0
  6  1  2  0  0  0  0
  9 14  2  0  0  0  0
  9  5  1  0  0  0  0
 10  9  1  0  0  0  0
 11 10  2  0  0  0  0
 11 13  1  0  0  0  0
 12 11  1  0  0  0  0
 13 15  1  0  0  0  0
 13 14  1  0  0  0  0
 16  3  1  0  0  0  0
 16 19  1  0  0  0  0
 17 16  1  0  0  0  0
 18 16  1  0  0  0  0
M  END
>  <minimizedAffinity>
-4.60986328

>  <minimizedRMSD>
1.25528991

$$$$
