
 OpenBabel03242507023D

 17 18  0  0  0  0  0  0  0  0999 V2000
   40.0230   26.7720   43.7960 C   0  0  0  0  0  0  0  0  0  0  0  0
   39.7430   25.4400   43.4500 C   0  0  0  0  0  0  0  0  0  0  0  0
   38.6560   25.1580   42.6420 C   0  0  0  0  0  0  0  0  0  0  0  0
   37.8910   26.2030   42.2100 N   0  0  0  0  0  0  0  0  0  0  0  0
   38.1730   27.4750   42.5500 C   0  0  0  0  0  0  0  0  0  0  0  0
   39.2320   27.7550   43.3370 N   0  0  0  0  0  0  0  0  0  0  0  0
   40.8630   27.0420   44.4260 H   0  0  0  0  0  0  0  0  0  0  0  0
   40.4150   24.6680   43.8480 H   0  0  0  0  0  0  0  0  0  0  0  0
   37.2450   28.4520   41.9910 C   0  0  0  0  0  0  0  0  0  0  0  0
   37.6670   29.7640   41.9280 C   0  0  0  0  0  0  0  0  0  0  0  0
   36.6080   30.4800   41.3630 C   0  0  0  0  0  0  0  0  0  0  0  0
   36.5040   31.5410   41.1290 H   0  0  0  0  0  0  0  0  0  0  0  0
   35.6060   29.6020   41.1090 N   0  0  0  0  0  0  0  0  0  0  0  0
   35.9810   28.3840   41.4820 N   0  0  0  0  0  0  0  0  0  0  0  0
   34.6660   29.7910   40.6870 H   0  0  0  0  0  0  0  0  0  0  0  0
   38.4220   23.8460   42.3330 O   0  0  0  0  0  0  0  0  0  0  0  0
   37.4620   23.4900   42.3990 H   0  0  0  0  0  0  0  0  0  0  0  0
  1  7  1  0  0  0  0
  2  1  1  0  0  0  0
  2  8  1  0  0  0  0
  3  2  2  0  0  0  0
  4  5  2  0  0  0  0
  4  3  1  0  0  0  0
  5  6  1  0  0  0  0
  6  1  2  0  0  0  0
  9  5  1  0  0  0  0
 10  9  1  0  0  0  0
 11 10  2  0  0  0  0
 12 11  1  0  0  0  0
 13 11  1  0  0  0  0
 13 14  1  0  0  0  0
 14  9  2  0  0  0  0
 15 13  1  0  0  0  0
 16 17  1  0  0  0  0
 16  3  1  0  0  0  0
M  END
>  <minimizedAffinity>
-4.14210463

>  <minimizedRMSD>
2.74325705

$$$$
