
 OpenBabel03242506483D

 31 34  0  0  0  0  0  0  0  0999 V2000
   44.5720   26.3100   44.4570 C   0  0  0  0  0  0  0  0  0  0  0  0
   43.4050   26.3520   43.6690 C   0  0  0  0  0  0  0  0  0  0  0  0
   42.2430   26.9140   44.1800 C   0  0  0  0  0  0  0  0  0  0  0  0
   42.2850   27.4190   45.4650 N   0  0  0  0  0  0  0  0  0  0  0  0
   43.4220   27.3590   46.1850 C   0  0  0  0  0  0  0  0  0  0  0  0
   44.5430   26.8190   45.6980 N   0  0  0  0  0  0  0  0  0  0  0  0
   45.4760   25.8660   44.0420 H   0  0  0  0  0  0  0  0  0  0  0  0
   43.4040   25.8060   42.3150 C   0  0  0  0  0  0  0  0  0  0  0  0
   42.2760   25.3850   41.6400 C   0  0  0  0  0  0  0  0  0  0  0  0
   42.6850   24.9330   40.3830 C   0  0  0  0  0  0  0  0  0  0  0  0
   42.0590   24.5310   39.5910 H   0  0  0  0  0  0  0  0  0  0  0  0
   44.0190   25.0890   40.3320 N   0  0  0  0  0  0  0  0  0  0  0  0
   44.4410   25.6000   41.4590 N   0  0  0  0  0  0  0  0  0  0  0  0
   44.6760   24.8580   39.5400 H   0  0  0  0  0  0  0  0  0  0  0  0
   43.3870   27.9280   47.5690 C   0  0  0  0  0  0  0  0  0  0  0  0
   43.4120   29.3210   47.5340 F   0  0  0  0  0  0  0  0  0  0  0  0
   42.1840   27.6240   48.2090 F   0  0  0  0  0  0  0  0  0  0  0  0
   44.4910   27.5430   48.3190 F   0  0  0  0  0  0  0  0  0  0  0  0
   41.1390   26.9320   43.3820 O   0  0  0  0  0  0  0  0  0  0  0  0
   37.1490   29.0980   43.3350 N   0  0  0  0  0  0  0  0  0  0  0  0
   37.0200   27.8340   43.7510 C   0  0  0  0  0  0  0  0  0  0  0  0
   38.2550   27.2760   43.7300 N   0  0  0  0  0  0  0  0  0  0  0  0
   39.1790   28.1780   43.3020 C   0  0  0  0  0  0  0  0  0  0  0  0
   40.5450   28.1400   43.0990 C   0  0  0  0  0  0  0  0  0  0  0  0
   41.1430   29.2680   42.6510 N   0  0  0  0  0  0  0  0  0  0  0  0
   40.4300   30.3810   42.4160 C   0  0  0  0  0  0  0  0  0  0  0  0
   39.0840   30.4470   42.6080 N   0  0  0  0  0  0  0  0  0  0  0  0
   38.4420   29.3360   43.0570 C   0  0  0  0  0  0  0  0  0  0  0  0
   36.3290   29.7560   43.2600 H   0  0  0  0  0  0  0  0  0  0  0  0
   36.1740   27.2370   44.0710 H   0  0  0  0  0  0  0  0  0  0  0  0
   40.9220   31.2780   42.0590 H   0  0  0  0  0  0  0  0  0  0  0  0
  1  6  1  0  0  0  0
  2  3  1  0  0  0  0
  2  1  2  0  0  0  0
  3  4  2  0  0  0  0
  4  5  1  0  0  0  0
  5 15  1  0  0  0  0
  6  5  2  0  0  0  0
  7  1  1  0  0  0  0
  8  2  1  0  0  0  0
  9  8  1  0  0  0  0
 10  9  2  0  0  0  0
 11 10  1  0  0  0  0
 12 10  1  0  0  0  0
 12 13  1  0  0  0  0
 13  8  2  0  0  0  0
 14 12  1  0  0  0  0
 15 17  1  0  0  0  0
 15 18  1  0  0  0  0
 16 15  1  0  0  0  0
 19  3  1  0  0  0  0
 20 21  1  0  0  0  0
 21 30  1  0  0  0  0
 22 21  2  0  0  0  0
 23 22  1  0  0  0  0
 24 23  1  0  0  0  0
 24 19  1  0  0  0  0
 25 24  2  0  0  0  0
 26 27  2  0  0  0  0
 26 25  1  0  0  0  0
 27 28  1  0  0  0  0
 28 23  2  0  0  0  0
 28 20  1  0  0  0  0
 29 20  1  0  0  0  0
 31 26  1  0  0  0  0
M  END
>  <minimizedAffinity>
-5.58965921

>  <minimizedRMSD>
0.0821639523

$$$$
