
 OpenBabel03242509273D

 46 50  0  0  0  0  0  0  0  0999 V2000
   36.1560   30.1070   41.0870 C   0  0  0  0  0  0  0  0  0  0  0  0
   35.6120   30.6830   41.8590 H   0  0  0  0  0  0  0  0  0  0  0  0
   36.7930   30.8590   40.5690 H   0  0  0  0  0  0  0  0  0  0  0  0
   38.5790   28.1250   42.6890 C   0  0  0  0  0  0  0  0  0  0  0  0
   37.4770   27.3240   42.7950 C   0  0  0  0  0  0  0  0  0  0  0  0
   36.4220   28.0010   42.1860 C   0  0  0  0  0  0  0  0  0  0  0  0
   36.9680   29.1540   41.7640 N   0  0  0  0  0  0  0  0  0  0  0  0
   38.2320   29.2670   42.0390 N   0  0  0  0  0  0  0  0  0  0  0  0
   37.4860   26.3460   43.2770 H   0  0  0  0  0  0  0  0  0  0  0  0
   35.4510   27.5700   42.1450 H   0  0  0  0  0  0  0  0  0  0  0  0
   41.4590   26.4330   44.3380 C   0  0  0  0  0  0  0  0  0  0  0  0
   40.1560   26.6620   43.8810 C   0  0  0  0  0  0  0  0  0  0  0  0
   39.9120   27.8490   43.1770 C   0  0  0  0  0  0  0  0  0  0  0  0
   40.9230   28.7230   42.9630 N   0  0  0  0  0  0  0  0  0  0  0  0
   42.1780   28.4450   43.4340 C   0  0  0  0  0  0  0  0  0  0  0  0
   42.4350   27.3180   44.1080 N   0  0  0  0  0  0  0  0  0  0  0  0
   41.6100   25.4990   44.8810 H   0  0  0  0  0  0  0  0  0  0  0  0
   39.3850   25.9420   44.0730 H   0  0  0  0  0  0  0  0  0  0  0  0
   43.2380   29.4130   43.1800 C   0  0  0  0  0  0  0  0  0  0  0  0
   43.7400   29.4960   41.8920 C   0  0  0  0  0  3  0  0  0  0  0  0
   44.7230   30.4780   41.9140 C   0  0  0  0  0  0  0  0  0  0  0  0
   45.3300   30.8060   41.0620 H   0  0  0  0  0  0  0  0  0  0  0  0
   44.7930   30.9540   43.1750 N   0  0  0  0  0  0  0  0  0  0  0  0
   43.9110   30.3250   43.9360 N   0  0  0  0  0  0  0  0  0  0  0  0
   45.4500   31.7040   43.4760 H   0  0  0  0  0  0  0  0  0  0  0  0
   35.2530   29.5420   40.0310 C   0  0  0  0  0  0  0  0  0  0  0  0
   34.7690   28.6530   40.4020 H   0  0  0  0  0  0  0  0  0  0  0  0
   34.5630   30.4410   39.8980 H   0  0  0  0  0  0  0  0  0  0  0  0
   35.8720   29.4280   38.6810 C   0  0  0  0  0  0  0  0  0  0  0  0
   37.1900   29.5600   38.3570 C   0  0  0  0  0  0  0  0  0  0  0  0
   37.7090   29.5400   37.1030 C   0  0  0  0  0  0  0  0  0  0  0  0
   36.8640   29.3760   36.0300 C   0  0  0  0  0  0  0  0  0  0  0  0
   35.5110   29.2350   36.2890 C   0  0  0  0  0  0  0  0  0  0  0  0
   34.7210   29.0810   35.1750 C   0  0  0  0  0  0  0  0  0  0  0  0
   33.3700   28.9330   35.3240 C   0  0  0  0  0  0  0  0  0  0  0  0
   32.8230   28.9380   36.6030 C   0  0  0  0  0  0  0  0  0  0  0  0
   33.6740   29.0960   37.6630 C   0  0  0  0  0  0  0  0  0  0  0  0
   35.0170   29.2560   37.5930 C   0  0  0  0  0  0  0  0  0  0  0  0
   37.8690   29.6930   39.2090 H   0  0  0  0  0  0  0  0  0  0  0  0
   38.7780   29.6550   36.9870 H   0  0  0  0  0  0  0  0  0  0  0  0
   37.2860   29.3650   35.0440 H   0  0  0  0  0  0  0  0  0  0  0  0
   35.1240   29.0720   34.1710 H   0  0  0  0  0  0  0  0  0  0  0  0
   32.7000   28.8110   34.4810 H   0  0  0  0  0  0  0  0  0  0  0  0
   31.7570   28.8170   36.7150 H   0  0  0  0  0  0  0  0  0  0  0  0
   33.0670   29.0710   38.9090 O   0  0  0  0  0  0  0  0  0  0  0  0
   32.5990   28.2040   39.2100 H   0  0  0  0  0  0  0  0  0  0  0  0
  1  7  1  0  0  0  0
  1  2  1  0  0  0  0
  3  1  1  0  0  0  0
  4  5  1  0  0  0  0
  4 13  1  0  0  0  0
  5  9  1  0  0  0  0
  6  5  2  0  0  0  0
  7  8  1  0  0  0  0
  7  6  1  0  0  0  0
  8  4  2  0  0  0  0
 10  6  1  0  0  0  0
 11 17  1  0  0  0  0
 12 18  1  0  0  0  0
 12 11  2  0  0  0  0
 13 12  1  0  0  0  0
 14 13  2  0  0  0  0
 14 15  1  0  0  0  0
 15 16  2  0  0  0  0
 16 11  1  0  0  0  0
 19 15  1  0  0  0  0
 19 24  2  0  0  0  0
 20 21  2  0  0  0  0
 20 19  1  0  0  0  0
 21 23  1  0  0  0  0
 22 21  1  0  0  0  0
 23 25  1  0  0  0  0
 23 24  1  0  0  0  0
 26 27  1  0  0  0  0
 26  1  1  0  0  0  0
 28 26  1  0  0  0  0
 29 26  1  0  0  0  0
 30 29  1  0  0  0  0
 30 39  1  0  0  0  0
 31 30  2  0  0  0  0
 32 33  2  0  0  0  0
 32 31  1  0  0  0  0
 33 38  1  0  0  0  0
 34 35  2  0  0  0  0
 34 33  1  0  0  0  0
 35 36  1  0  0  0  0
 36 44  1  0  0  0  0
 36 37  2  0  0  0  0
 37 45  1  0  0  0  0
 38 37  1  0  0  0  0
 38 29  2  0  0  0  0
 40 31  1  0  0  0  0
 41 32  1  0  0  0  0
 42 34  1  0  0  0  0
 43 35  1  0  0  0  0
 45 46  1  0  0  0  0
M  END
>  <minimizedAffinity>
-5.82518768

>  <minimizedRMSD>
0.15344356

$$$$
