
 OpenBabel03242509273D

 46 50  0  0  0  0  0  0  0  0999 V2000
   36.1410   30.0960   41.0840 C   0  0  0  0  0  0  0  0  0  0  0  0
   35.5900   30.6670   41.8540 H   0  0  0  0  0  0  0  0  0  0  0  0
   36.7710   30.8530   40.5660 H   0  0  0  0  0  0  0  0  0  0  0  0
   38.5810   28.1370   42.6870 C   0  0  0  0  0  0  0  0  0  0  0  0
   37.4860   27.3280   42.7980 C   0  0  0  0  0  0  0  0  0  0  0  0
   36.4240   27.9950   42.1900 C   0  0  0  0  0  0  0  0  0  0  0  0
   36.9610   29.1510   41.7610 N   0  0  0  0  0  0  0  0  0  0  0  0
   38.2250   29.2740   42.0330 N   0  0  0  0  0  0  0  0  0  0  0  0
   37.5030   26.3530   43.2830 H   0  0  0  0  0  0  0  0  0  0  0  0
   35.4560   27.5580   42.1520 H   0  0  0  0  0  0  0  0  0  0  0  0
   41.4740   26.4790   44.3480 C   0  0  0  0  0  0  0  0  0  0  0  0
   40.1680   26.6970   43.8940 C   0  0  0  0  0  0  0  0  0  0  0  0
   39.9180   27.8710   43.1710 C   0  0  0  0  0  0  0  0  0  0  0  0
   40.9260   28.7450   42.9380 N   0  0  0  0  0  0  0  0  0  0  0  0
   42.1840   28.4770   43.4070 C   0  0  0  0  0  0  0  0  0  0  0  0
   42.4460   27.3620   44.0980 N   0  0  0  0  0  0  0  0  0  0  0  0
   41.6300   25.5540   44.9050 H   0  0  0  0  0  0  0  0  0  0  0  0
   39.4000   25.9790   44.1010 H   0  0  0  0  0  0  0  0  0  0  0  0
   43.2390   29.4440   43.1320 C   0  0  0  0  0  0  0  0  0  0  0  0
   43.2130   30.0970   41.9110 C   0  0  0  0  0  3  0  0  0  0  0  0
   44.3090   30.9520   41.8960 C   0  0  0  0  0  0  0  0  0  0  0  0
   44.5950   31.6240   41.0790 H   0  0  0  0  0  0  0  0  0  0  0  0
   44.9540   30.8030   43.0730 N   0  0  0  0  0  0  0  0  0  0  0  0
   44.3250   29.9060   43.8150 N   0  0  0  0  0  0  0  0  0  0  0  0
   45.8170   31.3270   43.3300 H   0  0  0  0  0  0  0  0  0  0  0  0
   35.2450   29.5220   40.0260 C   0  0  0  0  0  0  0  0  0  0  0  0
   34.7690   28.6280   40.3970 H   0  0  0  0  0  0  0  0  0  0  0  0
   34.5460   30.4130   39.8920 H   0  0  0  0  0  0  0  0  0  0  0  0
   35.8670   29.4130   38.6770 C   0  0  0  0  0  0  0  0  0  0  0  0
   37.1860   29.5420   38.3570 C   0  0  0  0  0  0  0  0  0  0  0  0
   37.7080   29.5270   37.1040 C   0  0  0  0  0  0  0  0  0  0  0  0
   36.8650   29.3720   36.0280 C   0  0  0  0  0  0  0  0  0  0  0  0
   35.5110   29.2350   36.2830 C   0  0  0  0  0  0  0  0  0  0  0  0
   34.7220   29.0900   35.1660 C   0  0  0  0  0  0  0  0  0  0  0  0
   33.3710   28.9460   35.3110 C   0  0  0  0  0  0  0  0  0  0  0  0
   32.8210   28.9460   36.5890 C   0  0  0  0  0  0  0  0  0  0  0  0
   33.6690   29.0950   37.6520 C   0  0  0  0  0  0  0  0  0  0  0  0
   35.0140   29.2500   37.5860 C   0  0  0  0  0  0  0  0  0  0  0  0
   37.8630   29.6670   39.2110 H   0  0  0  0  0  0  0  0  0  0  0  0
   38.7780   29.6380   36.9920 H   0  0  0  0  0  0  0  0  0  0  0  0
   37.2890   29.3650   35.0430 H   0  0  0  0  0  0  0  0  0  0  0  0
   35.1280   29.0850   34.1630 H   0  0  0  0  0  0  0  0  0  0  0  0
   32.7020   28.8320   34.4660 H   0  0  0  0  0  0  0  0  0  0  0  0
   31.7540   28.8290   36.6980 H   0  0  0  0  0  0  0  0  0  0  0  0
   33.0590   29.0650   38.8960 O   0  0  0  0  0  0  0  0  0  0  0  0
   32.5880   28.1980   39.1910 H   0  0  0  0  0  0  0  0  0  0  0  0
  1  7  1  0  0  0  0
  1  2  1  0  0  0  0
  3  1  1  0  0  0  0
  4  5  1  0  0  0  0
  4 13  1  0  0  0  0
  5  9  1  0  0  0  0
  6  5  2  0  0  0  0
  7  8  1  0  0  0  0
  7  6  1  0  0  0  0
  8  4  2  0  0  0  0
 10  6  1  0  0  0  0
 11 17  1  0  0  0  0
 12 18  1  0  0  0  0
 12 11  2  0  0  0  0
 13 12  1  0  0  0  0
 14 13  2  0  0  0  0
 14 15  1  0  0  0  0
 15 16  2  0  0  0  0
 16 11  1  0  0  0  0
 19 15  1  0  0  0  0
 19 24  2  0  0  0  0
 20 19  1  0  0  0  0
 21 20  2  0  0  0  0
 21 23  1  0  0  0  0
 22 21  1  0  0  0  0
 23 25  1  0  0  0  0
 23 24  1  0  0  0  0
 26 27  1  0  0  0  0
 26  1  1  0  0  0  0
 28 26  1  0  0  0  0
 29 26  1  0  0  0  0
 30 29  1  0  0  0  0
 30 39  1  0  0  0  0
 31 30  2  0  0  0  0
 32 33  2  0  0  0  0
 32 31  1  0  0  0  0
 33 38  1  0  0  0  0
 34 35  2  0  0  0  0
 34 33  1  0  0  0  0
 35 36  1  0  0  0  0
 36 44  1  0  0  0  0
 36 37  2  0  0  0  0
 37 45  1  0  0  0  0
 38 37  1  0  0  0  0
 38 29  2  0  0  0  0
 40 31  1  0  0  0  0
 41 32  1  0  0  0  0
 42 34  1  0  0  0  0
 43 35  1  0  0  0  0
 45 46  1  0  0  0  0
M  END
>  <minimizedAffinity>
-5.80993986

>  <minimizedRMSD>
0.117202334

$$$$
