
 OpenBabel03242507343D

 23 24  0  0  0  0  0  0  0  0999 V2000
   38.6360   29.3110   42.5250 C   0  0  0  0  0  0  0  0  0  0  0  0
   37.8700   29.1760   41.3230 C   0  0  0  0  0  0  0  0  0  0  0  0
   37.3880   27.8990   41.1040 C   0  0  0  0  0  0  0  0  0  0  0  0
   37.6350   26.8840   41.9680 N   0  0  0  0  0  0  0  0  0  0  0  0
   38.3680   27.0750   43.0910 C   0  0  0  0  0  0  0  0  0  0  0  0
   38.8640   28.2970   43.3580 N   0  0  0  0  0  0  0  0  0  0  0  0
   39.0490   30.2800   42.7690 H   0  0  0  0  0  0  0  0  0  0  0  0
   38.4520   26.1450   43.6460 H   0  0  0  0  0  0  0  0  0  0  0  0
   37.6650   30.2950   40.4820 N   0  0  0  0  0  0  0  0  0  0  0  0
   36.7600   31.3470   40.7830 C   0  0  0  0  0  0  0  0  0  0  0  0
   35.6170   30.9850   41.3250 N   0  0  0  0  0  0  0  0  0  0  0  0
   37.2140   32.6800   40.4520 N   0  0  0  0  0  0  0  0  0  0  0  0
   34.8930   31.6800   41.5480 H   0  0  0  0  0  0  0  0  0  0  0  0
   38.2440   30.2980   39.5890 H   0  0  0  0  0  0  0  0  0  0  0  0
   37.6570   32.8260   39.5340 H   0  0  0  0  0  0  0  0  0  0  0  0
   36.9930   33.3130   41.2710 H   0  0  0  0  0  0  0  0  0  0  0  0
   36.5960   27.6850   39.8970 C   0  0  0  0  0  0  0  0  0  0  0  0
   36.7730   26.7710   38.8780 C   0  0  0  0  0  0  0  0  0  0  0  0
   35.7410   26.9890   37.9700 C   0  0  0  0  0  0  0  0  0  0  0  0
   35.7270   26.3510   37.0990 H   0  0  0  0  0  0  0  0  0  0  0  0
   34.9760   28.0030   38.4370 N   0  0  0  0  0  0  0  0  0  0  0  0
   35.5060   28.3970   39.5800 N   0  0  0  0  0  0  0  0  0  0  0  0
   34.1580   28.3020   37.8820 H   0  0  0  0  0  0  0  0  0  0  0  0
  1  7  1  0  0  0  0
  1  6  1  0  0  0  0
  2  1  2  0  0  0  0
  3  2  1  0  0  0  0
  3  4  2  0  0  0  0
  4  5  1  0  0  0  0
  5  6  2  0  0  0  0
  5  8  1  0  0  0  0
  9 10  1  0  0  0  0
  9  2  1  0  0  0  0
 10 11  2  0  0  0  0
 11 13  1  0  0  0  0
 12 10  1  0  0  0  0
 12 16  1  0  0  0  0
 14  9  1  0  0  0  0
 15 12  1  0  0  0  0
 17  3  1  0  0  0  0
 18 17  1  0  0  0  0
 19 21  1  0  0  0  0
 19 18  2  0  0  0  0
 20 19  1  0  0  0  0
 21 22  1  0  0  0  0
 22 17  2  0  0  0  0
 23 21  1  0  0  0  0
M  END
>  <minimizedAffinity>
-4.62105656

>  <minimizedRMSD>
0.321524739

$$$$
