
 OpenBabel03242509273D

 46 50  0  0  0  0  0  0  0  0999 V2000
   35.9880   30.0120   40.9500 C   0  0  0  0  0  0  0  0  0  0  0  0
   35.3960   30.5610   41.7060 H   0  0  0  0  0  0  0  0  0  0  0  0
   36.6010   30.7940   40.4470 H   0  0  0  0  0  0  0  0  0  0  0  0
   38.4650   28.1470   42.6080 C   0  0  0  0  0  0  0  0  0  0  0  0
   37.3940   27.3050   42.7120 C   0  0  0  0  0  0  0  0  0  0  0  0
   36.3210   27.9320   42.0810 C   0  0  0  0  0  0  0  0  0  0  0  0
   36.8270   29.1000   41.6490 N   0  0  0  0  0  0  0  0  0  0  0  0
   38.0830   29.2650   41.9380 N   0  0  0  0  0  0  0  0  0  0  0  0
   37.4340   26.3350   43.2060 H   0  0  0  0  0  0  0  0  0  0  0  0
   35.3680   27.4640   42.0330 H   0  0  0  0  0  0  0  0  0  0  0  0
   41.3910   26.5800   44.2990 C   0  0  0  0  0  0  0  0  0  0  0  0
   40.0860   26.7520   43.8220 C   0  0  0  0  0  0  0  0  0  0  0  0
   39.8020   27.9280   43.1150 C   0  0  0  0  0  0  0  0  0  0  0  0
   40.7760   28.8460   42.9170 N   0  0  0  0  0  0  0  0  0  0  0  0
   42.0350   28.6230   43.4070 C   0  0  0  0  0  0  0  0  0  0  0  0
   42.3300   27.5080   44.0840 N   0  0  0  0  0  0  0  0  0  0  0  0
   41.5750   25.6530   44.8430 H   0  0  0  0  0  0  0  0  0  0  0  0
   39.3450   25.9990   44.0020 H   0  0  0  0  0  0  0  0  0  0  0  0
   43.0540   29.6370   43.1700 C   0  0  0  0  0  0  0  0  0  0  0  0
   43.5360   30.3350   44.2660 C   0  0  0  0  0  3  0  0  0  0  0  0
   44.4830   31.2290   43.7810 C   0  0  0  0  0  0  0  0  0  0  0  0
   45.0660   31.9420   44.3750 H   0  0  0  0  0  0  0  0  0  0  0  0
   44.5510   31.0600   42.4430 N   0  0  0  0  0  0  0  0  0  0  0  0
   43.7030   30.1130   42.0710 N   0  0  0  0  0  0  0  0  0  0  0  0
   45.1850   31.6060   41.8220 H   0  0  0  0  0  0  0  0  0  0  0  0
   35.1410   29.4030   39.8720 C   0  0  0  0  0  0  0  0  0  0  0  0
   34.7110   28.4790   40.2240 H   0  0  0  0  0  0  0  0  0  0  0  0
   34.3950   30.2560   39.7380 H   0  0  0  0  0  0  0  0  0  0  0  0
   35.7880   29.3480   38.5310 C   0  0  0  0  0  0  0  0  0  0  0  0
   37.1140   29.4820   38.2420 C   0  0  0  0  0  0  0  0  0  0  0  0
   37.6600   29.5180   36.9990 C   0  0  0  0  0  0  0  0  0  0  0  0
   36.8360   29.4140   35.9020 C   0  0  0  0  0  0  0  0  0  0  0  0
   35.4770   29.2760   36.1250 C   0  0  0  0  0  0  0  0  0  0  0  0
   34.7090   29.1840   34.9890 C   0  0  0  0  0  0  0  0  0  0  0  0
   33.3540   29.0430   35.1020 C   0  0  0  0  0  0  0  0  0  0  0  0
   32.7800   28.9910   36.3680 C   0  0  0  0  0  0  0  0  0  0  0  0
   33.6090   29.0890   37.4520 C   0  0  0  0  0  0  0  0  0  0  0  0
   34.9550   29.2390   37.4180 C   0  0  0  0  0  0  0  0  0  0  0  0
   37.7760   29.5660   39.1130 H   0  0  0  0  0  0  0  0  0  0  0  0
   38.7320   29.6260   36.9120 H   0  0  0  0  0  0  0  0  0  0  0  0
   37.2800   29.4470   34.9260 H   0  0  0  0  0  0  0  0  0  0  0  0
   35.1340   29.2190   33.9940 H   0  0  0  0  0  0  0  0  0  0  0  0
   32.7020   28.9700   34.2400 H   0  0  0  0  0  0  0  0  0  0  0  0
   31.7110   28.8770   36.4510 H   0  0  0  0  0  0  0  0  0  0  0  0
   32.9750   29.0100   38.6820 O   0  0  0  0  0  0  0  0  0  0  0  0
   32.4930   28.1340   38.9300 H   0  0  0  0  0  0  0  0  0  0  0  0
  1  7  1  0  0  0  0
  1  2  1  0  0  0  0
  3  1  1  0  0  0  0
  4  5  1  0  0  0  0
  4 13  1  0  0  0  0
  5  9  1  0  0  0  0
  6  5  2  0  0  0  0
  7  8  1  0  0  0  0
  7  6  1  0  0  0  0
  8  4  2  0  0  0  0
 10  6  1  0  0  0  0
 11 17  1  0  0  0  0
 12 18  1  0  0  0  0
 12 11  2  0  0  0  0
 13 12  1  0  0  0  0
 14 13  2  0  0  0  0
 14 15  1  0  0  0  0
 15 16  2  0  0  0  0
 16 11  1  0  0  0  0
 19 15  1  0  0  0  0
 19 20  1  0  0  0  0
 21 20  2  0  0  0  0
 21 22  1  0  0  0  0
 23 21  1  0  0  0  0
 24 23  1  0  0  0  0
 24 19  2  0  0  0  0
 25 23  1  0  0  0  0
 26 27  1  0  0  0  0
 26  1  1  0  0  0  0
 28 26  1  0  0  0  0
 29 26  1  0  0  0  0
 30 29  1  0  0  0  0
 30 39  1  0  0  0  0
 31 30  2  0  0  0  0
 32 33  2  0  0  0  0
 32 31  1  0  0  0  0
 33 38  1  0  0  0  0
 34 35  2  0  0  0  0
 34 33  1  0  0  0  0
 35 36  1  0  0  0  0
 36 44  1  0  0  0  0
 36 37  2  0  0  0  0
 37 45  1  0  0  0  0
 38 37  1  0  0  0  0
 38 29  2  0  0  0  0
 40 31  1  0  0  0  0
 41 32  1  0  0  0  0
 42 34  1  0  0  0  0
 43 35  1  0  0  0  0
 45 46  1  0  0  0  0
M  END
>  <minimizedAffinity>
-5.95959806

>  <minimizedRMSD>
0.325139433

$$$$
