
 OpenBabel03242508113D

 43 47  0  0  1  0  0  0  0  0999 V2000
   39.4520   35.6940   39.9610 C   0  0  0  0  0  0  0  0  0  0  0  0
   40.7190   36.1590   40.3300 C   0  0  0  0  0  0  0  0  0  0  0  0
   41.5770   35.2110   40.9090 C   0  0  0  0  0  0  0  0  0  0  0  0
   41.0970   33.9790   41.0410 N   0  0  0  0  0  0  0  0  0  0  0  0
   39.9030   33.5160   40.6990 C   0  0  0  0  0  0  0  0  0  0  0  0
   39.1170   34.4250   40.1590 N   0  0  0  0  0  0  0  0  0  0  0  0
   38.8280   36.4620   39.5190 H   0  0  0  0  0  0  0  0  0  0  0  0
   41.0580   37.1750   40.1990 H   0  0  0  0  0  0  0  0  0  0  0  0
   39.2750   32.2080   40.7940 C   0  0  0  0  0  0  0  0  0  0  0  0
   39.3170   31.4370   41.8850 N   0  0  0  0  0  0  0  0  0  0  0  0
   38.7530   30.2360   42.0070 C   0  0  0  0  0  0  0  0  0  0  0  0
   38.0900   29.7090   41.0180 N   0  0  0  0  0  0  0  0  0  0  0  0
   37.9650   30.3740   39.8530 C   0  0  0  0  0  0  0  0  0  0  0  0
   37.2580   29.8160   38.7980 C   0  0  0  0  0  0  0  0  0  0  0  0
   37.1190   30.4710   37.6200 C   0  0  0  0  0  0  0  0  0  0  0  0
   37.7150   31.7410   37.4940 C   0  0  0  0  0  0  0  0  0  0  0  0
   38.4070   32.2440   38.5770 C   0  0  0  0  0  0  0  0  0  0  0  0
   38.5650   31.6080   39.7780 C   0  0  0  0  0  0  0  0  0  0  0  0
   38.8480   29.6950   42.9400 H   0  0  0  0  0  0  0  0  0  0  0  0
   36.8040   28.8350   38.9170 H   0  0  0  0  0  0  0  0  0  0  0  0
   36.5830   30.0920   36.7670 H   0  0  0  0  0  0  0  0  0  0  0  0
   37.6420   32.3250   36.5690 H   0  0  0  0  0  0  0  0  0  0  0  0
   38.8560   33.2300   38.4470 H   0  0  0  0  0  0  0  0  0  0  0  0
   42.8150   35.4820   41.3180 O   0  0  0  0  0  0  0  0  0  0  0  0
   43.1870   35.7590   42.6580 C   0  0  2  0  0  0  0  0  0  0  0  0
   42.7250   35.0240   43.3330 H   0  0  0  0  0  0  0  0  0  0  0  0
   42.4920   37.0840   43.0620 C   0  0  0  0  0  0  0  0  0  0  0  0
   43.1620   37.9390   42.8290 H   0  0  0  0  0  0  0  0  0  0  0  0
   42.2170   37.0470   44.1310 H   0  0  0  0  0  0  0  0  0  0  0  0
   41.6020   37.1900   42.4110 H   0  0  0  0  0  0  0  0  0  0  0  0
   44.6770   35.9130   42.7660 C   0  0  0  0  0  0  0  0  0  0  0  0
   45.2290   35.6280   41.8860 H   0  0  0  0  0  0  0  0  0  0  0  0
   44.8730   37.0210   42.8710 H   0  0  0  0  0  0  0  0  0  0  0  0
   45.1440   35.3310   44.0390 C   0  0  0  0  0  0  0  0  0  0  0  0
   44.6110   35.6790   45.2890 C   0  0  0  0  0  0  0  0  0  0  0  0
   45.0400   35.1210   46.4750 C   0  0  0  0  0  0  0  0  0  0  0  0
   46.0410   34.1710   46.4540 C   0  0  0  0  0  0  0  0  0  0  0  0
   46.6080   33.7890   45.2320 C   0  0  0  0  0  0  0  0  0  0  0  0
   47.5970   32.8410   45.3240 C   0  0  0  0  0  0  0  0  0  0  0  0
   48.1940   32.4330   44.1270 C   0  0  0  0  0  0  0  0  0  0  0  0
   47.7510   33.0030   42.9530 C   0  0  0  0  0  0  0  0  0  0  0  0
   46.7610   33.9440   42.9230 C   0  0  0  0  0  0  0  0  0  0  0  0
   46.1390   34.3800   44.0790 C   0  0  0  0  0  0  0  0  0  0  0  0
  1  6  2  0  0  0  0
  1  2  1  0  0  0  0
  2  3  2  0  0  0  0
  3  4  1  0  0  0  0
  3 24  1  0  0  0  0
  5  9  1  0  0  0  0
  5  4  2  0  0  0  0
  6  5  1  0  0  0  0
  7  1  1  0  0  0  0
  8  2  1  0  0  0  0
  9 10  1  0  0  0  0
 10 11  2  0  0  0  0
 11 19  1  0  0  0  0
 12 11  1  0  0  0  0
 13 12  2  0  0  0  0
 14 20  1  0  0  0  0
 14 13  1  0  0  0  0
 15 14  2  0  0  0  0
 16 15  1  0  0  0  0
 16 17  2  0  0  0  0
 17 18  1  0  0  0  0
 18 13  1  0  0  0  0
 18  9  2  0  0  0  0
 21 15  1  0  0  0  0
 22 16  1  0  0  0  0
 23 17  1  0  0  0  0
 24 25  1  0  0  0  0
 25 31  1  0  0  0  0
 25 27  1  0  0  0  0
 25 26  1  1  0  0  0
 27 29  1  0  0  0  0
 28 27  1  0  0  0  0
 30 27  1  0  0  0  0
 31 33  1  0  0  0  0
 31 34  1  0  0  0  0
 32 31  1  0  0  0  0
 34 43  2  0  0  0  0
 34 35  1  0  0  0  0
 35 36  2  0  0  0  0
 37 36  1  0  0  0  0
 38 39  1  0  0  0  0
 38 37  2  0  0  0  0
 40 39  2  0  0  0  0
 41 40  1  0  0  0  0
 42 41  2  0  0  0  0
 42 43  1  0  0  0  0
 43 38  1  0  0  0  0
M  END
>  <minimizedAffinity>
-7.30086374

>  <minimizedRMSD>
2.48409581

$$$$
