
 OpenBabel03242509283D

 42 46  0  0  0  0  0  0  0  0999 V2000
   35.1510   29.4020   39.8700 C   0  0  0  0  0  0  0  0  0  0  0  0
   34.7260   28.4720   40.2200 H   0  0  0  0  0  0  0  0  0  0  0  0
   34.3940   30.2500   39.7550 H   0  0  0  0  0  0  0  0  0  0  0  0
   35.7780   29.3620   38.5260 C   0  0  0  0  0  0  0  0  0  0  0  0
   37.1030   29.5000   38.2270 C   0  0  0  0  0  0  0  0  0  0  0  0
   37.6410   29.5330   36.9740 C   0  0  0  0  0  0  0  0  0  0  0  0
   36.8050   29.4200   35.8780 C   0  0  0  0  0  0  0  0  0  0  0  0
   35.4560   29.2770   36.1200 C   0  0  0  0  0  0  0  0  0  0  0  0
   34.6710   29.1740   34.9940 C   0  0  0  0  0  0  0  0  0  0  0  0
   33.3200   29.0290   35.1260 C   0  0  0  0  0  0  0  0  0  0  0  0
   32.7560   28.9850   36.3770 C   0  0  0  0  0  0  0  0  0  0  0  0
   33.5930   29.0920   37.4630 C   0  0  0  0  0  0  0  0  0  0  0  0
   34.9390   29.2440   37.4140 C   0  0  0  0  0  0  0  0  0  0  0  0
   37.7700   29.5910   39.0880 H   0  0  0  0  0  0  0  0  0  0  0  0
   38.7120   29.6470   36.8810 H   0  0  0  0  0  0  0  0  0  0  0  0
   37.2290   29.4480   34.8860 H   0  0  0  0  0  0  0  0  0  0  0  0
   35.0690   29.2010   33.9870 H   0  0  0  0  0  0  0  0  0  0  0  0
   32.6640   28.9470   34.2600 H   0  0  0  0  0  0  0  0  0  0  0  0
   31.6850   28.8680   36.4840 H   0  0  0  0  0  0  0  0  0  0  0  0
   32.9680   29.0210   38.7020 O   0  0  0  0  0  0  0  0  0  0  0  0
   32.3630   28.2000   38.8570 H   0  0  0  0  0  0  0  0  0  0  0  0
   36.0040   30.0070   40.9420 C   0  0  0  0  0  0  0  0  0  0  0  0
   35.4080   30.5570   41.7040 H   0  0  0  0  0  0  0  0  0  0  0  0
   36.6250   30.7850   40.4380 H   0  0  0  0  0  0  0  0  0  0  0  0
   38.4680   28.1420   42.6140 C   0  0  0  0  0  0  0  0  0  0  0  0
   37.3860   27.3060   42.7310 C   0  0  0  0  0  0  0  0  0  0  0  0
   36.3210   27.9480   42.0920 C   0  0  0  0  0  0  0  0  0  0  0  0
   36.8390   29.0990   41.6470 N   0  0  0  0  0  0  0  0  0  0  0  0
   38.0960   29.2470   41.9350 N   0  0  0  0  0  0  0  0  0  0  0  0
   37.4290   26.3510   43.2370 H   0  0  0  0  0  0  0  0  0  0  0  0
   35.3340   27.5130   42.0300 H   0  0  0  0  0  0  0  0  0  0  0  0
   41.3790   26.5400   44.3070 C   0  0  0  0  0  0  0  0  0  0  0  0
   40.0750   26.7230   43.8300 C   0  0  0  0  0  0  0  0  0  0  0  0
   39.8010   27.9030   43.1260 C   0  0  0  0  0  0  0  0  0  0  0  0
   40.7840   28.8240   42.9280 N   0  0  0  0  0  0  0  0  0  0  0  0
   42.0400   28.5920   43.4190 C   0  0  0  0  0  0  0  0  0  0  0  0
   42.3230   27.4610   44.0990 N   0  0  0  0  0  0  0  0  0  0  0  0
   41.6020   25.6460   44.8440 H   0  0  0  0  0  0  0  0  0  0  0  0
   39.3050   26.0030   43.9830 H   0  0  0  0  0  0  0  0  0  0  0  0
   43.0720   29.6360   43.1710 C   0  0  0  0  0  3  0  0  0  0  0  0
   43.4910   30.4890   44.3710 C   0  0  0  0  0  2  0  0  0  0  0  0
   42.7040   31.0920   43.2180 C   0  0  0  0  0  2  0  0  0  0  0  0
  1  2  1  0  0  0  0
  1 22  1  0  0  0  0
  3  1  1  0  0  0  0
  4  1  1  0  0  0  0
  5  4  1  0  0  0  0
  5 14  1  0  0  0  0
  6  5  2  0  0  0  0
  7  8  2  0  0  0  0
  7  6  1  0  0  0  0
  8 13  1  0  0  0  0
  9 10  2  0  0  0  0
  9  8  1  0  0  0  0
 10 11  1  0  0  0  0
 11 19  1  0  0  0  0
 11 12  2  0  0  0  0
 12 20  1  0  0  0  0
 13 12  1  0  0  0  0
 13  4  2  0  0  0  0
 15  6  1  0  0  0  0
 16  7  1  0  0  0  0
 17  9  1  0  0  0  0
 18 10  1  0  0  0  0
 20 21  1  0  0  0  0
 22 28  1  0  0  0  0
 22 23  1  0  0  0  0
 24 22  1  0  0  0  0
 25 26  1  0  0  0  0
 25 34  1  0  0  0  0
 26 30  1  0  0  0  0
 27 26  2  0  0  0  0
 28 29  1  0  0  0  0
 28 27  1  0  0  0  0
 29 25  2  0  0  0  0
 31 27  1  0  0  0  0
 32 38  1  0  0  0  0
 33 39  1  0  0  0  0
 33 32  2  0  0  0  0
 34 33  1  0  0  0  0
 35 34  2  0  0  0  0
 35 36  1  0  0  0  0
 36 37  2  0  0  0  0
 37 32  1  0  0  0  0
 40 42  1  0  0  0  0
 40 36  1  0  0  0  0
 40 41  1  0  0  0  0
 42 41  1  0  0  0  0
M  END
>  <minimizedAffinity>
-6.04139471

>  <minimizedRMSD>
0.428770453

$$$$
