
 OpenBabel03242508363D

 32 35  0  0  0  0  0  0  0  0999 V2000
   38.0590   27.8570   43.4150 C   0  0  0  0  0  0  0  0  0  0  0  0
   37.9070   26.6410   42.6730 C   0  0  0  0  0  0  0  0  0  0  0  0
   37.1030   26.6650   41.5480 C   0  0  0  0  0  0  0  0  0  0  0  0
   36.5110   27.8300   41.2170 N   0  0  0  0  0  0  0  0  0  0  0  0
   36.6530   28.9540   41.9040 C   0  0  0  0  0  0  0  0  0  0  0  0
   37.4300   28.9830   43.0160 N   0  0  0  0  0  0  0  0  0  0  0  0
   38.6390   28.0080   44.3000 H   0  0  0  0  0  0  0  0  0  0  0  0
   38.5040   25.9020   43.1870 H   0  0  0  0  0  0  0  0  0  0  0  0
   37.0350   25.3790   40.8960 C   0  0  0  0  0  0  0  0  0  0  0  0
   35.9880   25.2610   40.4910 H   0  0  0  0  0  0  0  0  0  0  0  0
   37.6810   25.4260   39.9700 H   0  0  0  0  0  0  0  0  0  0  0  0
   37.4660   24.2140   41.6910 C   0  0  0  0  0  0  0  0  0  0  0  0
   38.1570   24.3700   42.5120 H   0  0  0  0  0  0  0  0  0  0  0  0
   36.5270   23.8030   42.1830 H   0  0  0  0  0  0  0  0  0  0  0  0
   38.0050   22.8380   40.6130 S   0  0  0  0  0  0  0  0  0  0  0  0
   36.8990   22.0980   40.1460 H   0  0  0  0  0  0  0  0  0  0  0  0
   35.9450   29.9810   41.3480 O   0  0  0  0  0  0  0  0  0  0  0  0
   36.5940   30.8760   40.4840 C   0  0  0  0  0  0  0  0  0  0  0  0
   36.5010   31.0150   39.1180 N   0  0  0  0  0  0  0  0  0  0  0  0
   37.2990   31.9930   38.7480 O   0  0  0  0  0  0  0  0  0  0  0  0
   37.8770   32.4560   39.8300 C   0  0  0  0  0  0  0  0  0  0  0  0
   37.4710   31.7950   40.9260 N   0  0  0  0  0  0  0  0  0  0  0  0
   38.8410   33.5550   39.8240 C   0  0  0  0  0  0  0  0  0  0  0  0
   38.6820   34.8060   40.3890 C   0  0  0  0  0  0  0  0  0  0  0  0
   39.7990   35.5690   40.1830 C   0  0  0  0  0  0  0  0  0  0  0  0
   40.6460   34.7250   39.4650 C   0  0  0  0  0  0  0  0  0  0  0  0
   40.0390   33.5940   39.2950 O   0  0  0  0  0  0  0  0  0  0  0  0
   37.7900   35.1220   40.9190 H   0  0  0  0  0  0  0  0  0  0  0  0
   40.0100   36.5840   40.4860 H   0  0  0  0  0  0  0  0  0  0  0  0
   42.0150   35.0910   38.9870 C   0  0  0  0  0  0  0  0  0  0  0  0
   43.0340   34.0080   39.1000 C   0  0  0  0  0  0  0  0  0  0  0  0
   42.5520   34.4720   37.7520 C   0  0  0  0  0  0  0  0  0  0  0  0
  1  7  1  0  0  0  0
  2  8  1  0  0  0  0
  2  1  2  0  0  0  0
  3  2  1  0  0  0  0
  4  3  2  0  0  0  0
  4  5  1  0  0  0  0
  5  6  2  0  0  0  0
  6  1  1  0  0  0  0
  9  3  1  0  0  0  0
  9 12  1  0  0  0  0
 10  9  1  0  0  0  0
 11  9  1  0  0  0  0
 12 14  1  0  0  0  0
 12 13  1  0  0  0  0
 15 12  1  0  0  0  0
 16 15  1  0  0  0  0
 17  5  1  0  0  0  0
 18 22  1  0  0  0  0
 18 17  1  0  0  0  0
 19 18  2  0  0  0  0
 20 19  1  0  0  0  0
 20 21  1  0  0  0  0
 21 22  2  0  0  0  0
 23 21  1  0  0  0  0
 23 24  2  0  0  0  0
 24 28  1  0  0  0  0
 25 24  1  0  0  0  0
 25 29  1  0  0  0  0
 26 25  2  0  0  0  0
 27 26  1  0  0  0  0
 27 23  1  0  0  0  0
 30 31  1  0  0  0  0
 30 26  1  0  0  0  0
 32 30  1  0  0  0  0
 32 31  1  0  0  0  0
M  END
>  <minimizedAffinity>
-5.39572954

>  <minimizedRMSD>
0.569657147

$$$$
