
 OpenBabel03242504063D

 35 37  0  0  0  0  0  0  0  0999 V2000
   36.2850   30.2890   40.0470 C   0  0  0  0  0  0  0  0  0  0  0  0
   36.7000   31.4900   40.6100 C   0  0  0  0  0  0  0  0  0  0  0  0
   37.2980   32.4190   39.8000 C   0  0  0  0  0  0  0  0  0  0  0  0
   37.5180   32.2420   38.4560 C   0  0  0  0  0  0  0  0  0  0  0  0
   37.1020   31.0420   37.9000 C   0  0  0  0  0  0  0  0  0  0  0  0
   36.4980   30.1010   38.7060 C   0  0  0  0  0  0  0  0  0  0  0  0
   36.5240   31.6190   41.6640 H   0  0  0  0  0  0  0  0  0  0  0  0
   37.6000   33.3370   40.3040 H   0  0  0  0  0  0  0  0  0  0  0  0
   37.9930   32.9970   37.8520 H   0  0  0  0  0  0  0  0  0  0  0  0
   37.2540   30.8550   36.8340 H   0  0  0  0  0  0  0  0  0  0  0  0
   35.6370   29.2630   40.8830 C   0  0  0  0  0  0  0  0  0  0  0  0
   34.9540   29.8350   41.5760 H   0  0  0  0  0  0  0  0  0  0  0  0
   34.9900   28.5640   40.3430 H   0  0  0  0  0  0  0  0  0  0  0  0
   38.1190   28.3600   43.4780 C   0  0  0  0  0  0  0  0  0  0  0  0
   38.3590   27.0160   43.2020 C   0  0  0  0  0  0  0  0  0  0  0  0
   37.6670   26.4280   42.1280 C   0  0  0  0  0  0  0  0  0  0  0  0
   36.8190   27.2070   41.4370 N   0  0  0  0  0  0  0  0  0  0  0  0
   36.6070   28.5110   41.7290 C   0  0  0  0  0  0  0  0  0  0  0  0
   37.2630   29.0850   42.7560 N   0  0  0  0  0  0  0  0  0  0  0  0
   37.8000   25.0930   41.7270 N   0  0  0  0  0  0  0  0  0  0  0  0
   38.6570   28.8000   44.3060 H   0  0  0  0  0  0  0  0  0  0  0  0
   39.0360   26.3860   43.7510 H   0  0  0  0  0  0  0  0  0  0  0  0
   38.4390   24.8120   40.9310 H   0  0  0  0  0  0  0  0  0  0  0  0
   37.2590   24.3230   42.2150 H   0  0  0  0  0  0  0  0  0  0  0  0
   36.0430   28.7960   38.1130 C   0  0  0  0  0  0  0  0  0  0  0  0
   36.8570   28.4290   37.4550 H   0  0  0  0  0  0  0  0  0  0  0  0
   35.8320   28.0580   38.9010 H   0  0  0  0  0  0  0  0  0  0  0  0
   34.8520   28.9570   37.2720 C   0  0  0  0  0  0  0  0  0  0  0  0
   34.9770   29.0520   35.8820 C   0  0  0  0  0  0  0  0  0  0  0  0
   33.8860   29.2030   35.0510 C   0  0  0  0  0  0  0  0  0  0  0  0
   34.0130   29.2760   33.9640 H   0  0  0  0  0  0  0  0  0  0  0  0
   32.6190   29.2620   35.6320 C   0  0  0  0  0  0  0  0  0  0  0  0
   32.4540   29.1710   37.0100 C   0  0  0  0  0  0  0  0  0  0  0  0
   31.4400   29.2200   37.4290 H   0  0  0  0  0  0  0  0  0  0  0  0
   33.5720   29.0180   37.8360 C   0  0  0  0  0  0  0  0  0  0  0  0
  1  2  1  0  0  0  0
  1 11  1  0  0  0  0
  2  7  1  0  0  0  0
  3  8  1  0  0  0  0
  3  2  2  0  0  0  0
  4  3  1  0  0  0  0
  5  4  2  0  0  0  0
  5  6  1  0  0  0  0
  6  1  2  0  0  0  0
  9  4  1  0  0  0  0
 10  5  1  0  0  0  0
 11 12  1  0  0  0  0
 11 18  1  0  0  0  0
 13 11  1  0  0  0  0
 14 21  1  0  0  0  0
 15 14  1  0  0  0  0
 15 22  1  0  0  0  0
 16 15  2  0  0  0  0
 17 18  2  0  0  0  0
 17 16  1  0  0  0  0
 18 19  1  0  0  0  0
 19 14  2  0  0  0  0
 20 16  1  0  0  0  0
 20 24  1  0  0  0  0
 23 20  1  0  0  0  0
 25  6  1  0  0  0  0
 25 27  1  0  0  0  0
 26 25  1  0  0  0  0
 28 35  1  0  0  0  0
 28 25  1  0  0  0  0
 29 28  2  0  0  0  0
 30 32  2  0  0  0  0
 30 29  1  0  0  0  0
 31 30  1  0  0  0  0
 32 33  1  0  0  0  0
 33 34  1  0  0  0  0
 33 35  2  0  0  0  0
M  END
>  <minimizedAffinity>
-5.81672764

>  <minimizedRMSD>
1.90867436

$$$$
