
 OpenBabel03242508463D

 30 33  0  0  1  0  0  0  0  0999 V2000
   37.9710   27.3680   42.7530 C   0  0  2  0  0  0  0  0  0  0  0  0
   39.0610   27.6540   43.6910 C   0  0  0  0  0  0  0  0  0  0  0  0
   39.7990   26.3360   43.8480 C   0  0  0  0  0  0  0  0  0  0  0  0
   39.3160   25.4530   42.7480 C   0  0  0  0  0  0  0  0  0  0  0  0
   38.5580   26.3640   41.7810 C   0  0  1  0  0  0  0  0  0  0  0  0
   37.1610   26.7870   43.2810 H   0  0  0  0  0  0  0  0  0  0  0  0
   38.7400   28.0500   44.6800 H   0  0  0  0  0  0  0  0  0  0  0  0
   39.8060   28.3650   43.2990 H   0  0  0  0  0  0  0  0  0  0  0  0
   40.9160   26.4730   43.8200 H   0  0  0  0  0  0  0  0  0  0  0  0
   39.5540   25.9490   44.8550 H   0  0  0  0  0  0  0  0  0  0  0  0
   38.6410   24.7080   43.2110 H   0  0  0  0  0  0  0  0  0  0  0  0
   40.1400   24.9220   42.2180 H   0  0  0  0  0  0  0  0  0  0  0  0
   39.1990   26.8200   41.0310 H   0  0  0  0  0  0  0  0  0  0  0  0
   38.0230   29.7740   41.9310 C   0  0  0  0  0  0  0  0  0  0  0  0
   37.3860   28.5120   42.0720 C   0  0  0  0  0  0  0  0  0  0  0  0
   36.1280   28.3440   41.5210 C   0  0  0  0  0  0  0  0  0  0  0  0
   35.5500   29.4080   40.8620 N   0  0  0  0  0  0  0  0  0  0  0  0
   36.1960   30.6190   40.7430 C   0  0  0  0  0  0  0  0  0  0  0  0
   37.4520   30.7900   41.2910 N   0  0  0  0  0  0  0  0  0  0  0  0
   39.0030   29.9150   42.3550 H   0  0  0  0  0  0  0  0  0  0  0  0
   35.5320   27.4440   41.5530 H   0  0  0  0  0  0  0  0  0  0  0  0
   35.6460   31.3810   40.2040 H   0  0  0  0  0  0  0  0  0  0  0  0
   37.5500   25.4290   41.2070 C   0  0  0  0  0  0  0  0  0  0  0  0
   36.8360   24.5760   41.9640 N   0  0  0  0  0  0  0  0  0  0  0  0
   36.0520   23.9020   41.1500 O   0  0  0  0  0  0  0  0  0  0  0  0
   36.2660   24.3170   39.9180 C   0  0  0  0  0  0  0  0  0  0  0  0
   37.1940   25.2700   39.9100 N   0  0  0  0  0  0  0  0  0  0  0  0
   35.5110   23.7240   38.7840 C   0  0  0  0  0  0  0  0  0  0  0  0
   34.5310   22.6220   39.0160 C   0  0  0  0  0  0  0  0  0  0  0  0
   35.8330   22.3180   38.3730 C   0  0  0  0  0  0  0  0  0  0  0  0
  1  6  1  1  0  0  0
  1  2  1  0  0  0  0
  2  3  1  0  0  0  0
  2  7  1  0  0  0  0
  3 10  1  0  0  0  0
  4 11  1  0  0  0  0
  4  3  1  0  0  0  0
  5 13  1  6  0  0  0
  5  4  1  0  0  0  0
  5  1  1  0  0  0  0
  8  2  1  0  0  0  0
  9  3  1  0  0  0  0
 12  4  1  0  0  0  0
 14 15  1  0  0  0  0
 14 20  1  0  0  0  0
 15  1  1  0  0  0  0
 16 21  1  0  0  0  0
 16 15  2  0  0  0  0
 17 16  1  0  0  0  0
 18 17  2  0  0  0  0
 18 19  1  0  0  0  0
 19 14  2  0  0  0  0
 22 18  1  0  0  0  0
 23  5  1  0  0  0  0
 23 24  2  0  0  0  0
 25 24  1  0  0  0  0
 26 25  1  0  0  0  0
 27 26  2  0  0  0  0
 27 23  1  0  0  0  0
 28 29  1  0  0  0  0
 28 26  1  0  0  0  0
 30 28  1  0  0  0  0
 30 29  1  0  0  0  0
M  END
>  <minimizedAffinity>
-4.85155153

>  <minimizedRMSD>
0.594911158

$$$$
