
 OpenBabel03242508343D

 36 39  0  0  0  0  0  0  0  0999 V2000
   38.3540   28.2770   43.2250 C   0  0  0  0  0  0  0  0  0  0  0  0
   38.0820   27.1230   42.4500 C   0  0  0  0  0  0  0  0  0  0  0  0
   37.2290   27.2660   41.3600 C   0  0  0  0  0  0  0  0  0  0  0  0
   36.7070   28.4830   41.0970 N   0  0  0  0  0  0  0  0  0  0  0  0
   36.9800   29.5510   41.8450 C   0  0  0  0  0  0  0  0  0  0  0  0
   37.8000   29.4550   42.9060 N   0  0  0  0  0  0  0  0  0  0  0  0
   38.9960   28.2950   44.0900 H   0  0  0  0  0  0  0  0  0  0  0  0
   38.6050   26.2880   42.8490 H   0  0  0  0  0  0  0  0  0  0  0  0
   36.9880   26.0470   40.6100 C   0  0  0  0  0  0  0  0  0  0  0  0
   35.9360   26.1200   40.2030 H   0  0  0  0  0  0  0  0  0  0  0  0
   37.6240   25.9940   39.7090 H   0  0  0  0  0  0  0  0  0  0  0  0
   37.0210   24.7910   41.4260 C   0  0  0  0  0  0  0  0  0  0  0  0
   36.2580   24.7470   42.2010 H   0  0  0  0  0  0  0  0  0  0  0  0
   38.0260   24.7320   41.9170 H   0  0  0  0  0  0  0  0  0  0  0  0
   36.9090   23.5670   40.5920 C   0  0  0  0  0  0  0  0  0  0  0  0
   35.7450   23.4280   39.8490 C   0  0  0  0  0  0  0  0  0  0  0  0
   35.5210   22.3350   39.0350 C   0  0  0  0  0  0  0  0  0  0  0  0
   34.6150   22.2280   38.4590 H   0  0  0  0  0  0  0  0  0  0  0  0
   36.5220   21.3880   39.0010 C   0  0  0  0  0  0  0  0  0  0  0  0
   37.7060   21.4630   39.7130 C   0  0  0  0  0  0  0  0  0  0  0  0
   38.4630   20.6920   39.6530 H   0  0  0  0  0  0  0  0  0  0  0  0
   37.8640   22.5850   40.5100 C   0  0  0  0  0  0  0  0  0  0  0  0
   36.3350   30.6710   41.3830 O   0  0  0  0  0  0  0  0  0  0  0  0
   36.9820   31.5340   40.5070 C   0  0  0  0  0  0  0  0  0  0  0  0
   36.8720   31.6700   39.1520 N   0  0  0  0  0  0  0  0  0  0  0  0
   37.6900   32.6270   38.7610 O   0  0  0  0  0  0  0  0  0  0  0  0
   38.2960   33.0810   39.8420 C   0  0  0  0  0  0  0  0  0  0  0  0
   37.8860   32.4340   40.9280 N   0  0  0  0  0  0  0  0  0  0  0  0
   39.2850   34.1580   39.8060 C   0  0  0  0  0  0  0  0  0  0  0  0
   39.0910   35.4750   40.2050 C   0  0  0  0  0  0  0  0  0  0  0  0
   40.2420   36.1860   40.0230 C   0  0  0  0  0  0  0  0  0  0  0  0
   41.1330   35.2660   39.5050 C   0  0  0  0  0  0  0  0  0  0  0  0
   40.5150   34.1230   39.4080 O   0  0  0  0  0  0  0  0  0  0  0  0
   38.1540   35.8500   40.5980 H   0  0  0  0  0  0  0  0  0  0  0  0
   40.3660   37.2300   40.2520 H   0  0  0  0  0  0  0  0  0  0  0  0
   42.1630   35.4920   39.2380 H   0  0  0  0  0  0  0  0  0  0  0  0
  1  7  1  0  0  0  0
  2  8  1  0  0  0  0
  2  1  2  0  0  0  0
  3  2  1  0  0  0  0
  4  3  2  0  0  0  0
  4  5  1  0  0  0  0
  5  6  2  0  0  0  0
  6  1  1  0  0  0  0
  9  3  1  0  0  0  0
  9 12  1  0  0  0  0
 10  9  1  0  0  0  0
 11  9  1  0  0  0  0
 12 14  1  0  0  0  0
 12 13  1  0  0  0  0
 15 12  1  0  0  0  0
 16 15  2  0  0  0  0
 17 16  1  0  0  0  0
 18 17  1  0  0  0  0
 19 17  2  0  0  0  0
 19 20  1  0  0  0  0
 20 22  2  0  0  0  0
 21 20  1  0  0  0  0
 22 15  1  0  0  0  0
 23  5  1  0  0  0  0
 24 28  1  0  0  0  0
 24 23  1  0  0  0  0
 25 24  2  0  0  0  0
 26 25  1  0  0  0  0
 26 27  1  0  0  0  0
 27 28  2  0  0  0  0
 29 27  1  0  0  0  0
 29 30  2  0  0  0  0
 30 34  1  0  0  0  0
 31 30  1  0  0  0  0
 31 35  1  0  0  0  0
 32 31  2  0  0  0  0
 33 32  1  0  0  0  0
 33 29  1  0  0  0  0
 36 32  1  0  0  0  0
M  END
>  <minimizedAffinity>
-6.11044884

>  <minimizedRMSD>
0.491511315

$$$$
