
 OpenBabel03242509293D

 42 46  0  0  0  0  0  0  0  0999 V2000
   35.2360   29.4830   40.0220 C   0  0  0  0  0  0  0  0  0  0  0  0
   34.7790   28.5750   40.3900 H   0  0  0  0  0  0  0  0  0  0  0  0
   34.5110   30.3560   39.8990 H   0  0  0  0  0  0  0  0  0  0  0  0
   35.8500   29.3980   38.6740 C   0  0  0  0  0  0  0  0  0  0  0  0
   37.1730   29.5250   38.3590 C   0  0  0  0  0  0  0  0  0  0  0  0
   37.6990   29.5170   37.1000 C   0  0  0  0  0  0  0  0  0  0  0  0
   36.8540   29.3680   36.0160 C   0  0  0  0  0  0  0  0  0  0  0  0
   35.5060   29.2340   36.2750 C   0  0  0  0  0  0  0  0  0  0  0  0
   34.7110   29.0940   35.1600 C   0  0  0  0  0  0  0  0  0  0  0  0
   33.3620   28.9540   35.3100 C   0  0  0  0  0  0  0  0  0  0  0  0
   32.8090   28.9520   36.5670 C   0  0  0  0  0  0  0  0  0  0  0  0
   33.6570   29.0940   37.6410 C   0  0  0  0  0  0  0  0  0  0  0  0
   35.0010   29.2440   37.5740 C   0  0  0  0  0  0  0  0  0  0  0  0
   37.8480   29.6440   39.2100 H   0  0  0  0  0  0  0  0  0  0  0  0
   38.7690   29.6270   36.9930 H   0  0  0  0  0  0  0  0  0  0  0  0
   37.2690   29.3640   35.0200 H   0  0  0  0  0  0  0  0  0  0  0  0
   35.1000   29.0880   34.1500 H   0  0  0  0  0  0  0  0  0  0  0  0
   32.6980   28.8440   34.4530 H   0  0  0  0  0  0  0  0  0  0  0  0
   31.7400   28.8390   36.6870 H   0  0  0  0  0  0  0  0  0  0  0  0
   33.0430   29.0640   38.8870 O   0  0  0  0  0  0  0  0  0  0  0  0
   32.4390   28.2490   39.0750 H   0  0  0  0  0  0  0  0  0  0  0  0
   36.1190   30.0720   41.0780 C   0  0  0  0  0  0  0  0  0  0  0  0
   35.5460   30.6210   41.8570 H   0  0  0  0  0  0  0  0  0  0  0  0
   36.7360   30.8470   40.5650 H   0  0  0  0  0  0  0  0  0  0  0  0
   38.5990   28.1750   42.6900 C   0  0  0  0  0  0  0  0  0  0  0  0
   37.5190   27.3370   42.8020 C   0  0  0  0  0  0  0  0  0  0  0  0
   36.4480   27.9900   42.1850 C   0  0  0  0  0  0  0  0  0  0  0  0
   36.9610   29.1500   41.7580 N   0  0  0  0  0  0  0  0  0  0  0  0
   38.2210   29.2930   42.0360 N   0  0  0  0  0  0  0  0  0  0  0  0
   37.5670   26.3730   43.2890 H   0  0  0  0  0  0  0  0  0  0  0  0
   35.4610   27.5560   42.1250 H   0  0  0  0  0  0  0  0  0  0  0  0
   41.5300   26.5380   44.3150 C   0  0  0  0  0  0  0  0  0  0  0  0
   40.2210   26.7290   43.8540 C   0  0  0  0  0  0  0  0  0  0  0  0
   39.9370   27.9260   43.1840 C   0  0  0  0  0  0  0  0  0  0  0  0
   40.9160   28.8560   43.0040 N   0  0  0  0  0  0  0  0  0  0  0  0
   42.1760   28.6150   43.4780 C   0  0  0  0  0  0  0  0  0  0  0  0
   42.4690   27.4670   44.1250 N   0  0  0  0  0  0  0  0  0  0  0  0
   41.7600   25.6300   44.8260 H   0  0  0  0  0  0  0  0  0  0  0  0
   39.4550   26.0020   43.9930 H   0  0  0  0  0  0  0  0  0  0  0  0
   43.2030   29.6690   43.2500 C   0  0  0  0  0  3  0  0  0  0  0  0
   43.5800   30.5370   44.4520 C   0  0  0  0  0  2  0  0  0  0  0  0
   42.8190   31.1210   43.2720 C   0  0  0  0  0  2  0  0  0  0  0  0
  1  2  1  0  0  0  0
  1 22  1  0  0  0  0
  3  1  1  0  0  0  0
  4  1  1  0  0  0  0
  5  4  1  0  0  0  0
  5 14  1  0  0  0  0
  6  5  2  0  0  0  0
  7  8  2  0  0  0  0
  7  6  1  0  0  0  0
  8 13  1  0  0  0  0
  9 10  2  0  0  0  0
  9  8  1  0  0  0  0
 10 11  1  0  0  0  0
 11 19  1  0  0  0  0
 11 12  2  0  0  0  0
 12 20  1  0  0  0  0
 13 12  1  0  0  0  0
 13  4  2  0  0  0  0
 15  6  1  0  0  0  0
 16  7  1  0  0  0  0
 17  9  1  0  0  0  0
 18 10  1  0  0  0  0
 20 21  1  0  0  0  0
 22 28  1  0  0  0  0
 22 23  1  0  0  0  0
 24 22  1  0  0  0  0
 25 26  1  0  0  0  0
 25 34  1  0  0  0  0
 26 30  1  0  0  0  0
 27 26  2  0  0  0  0
 28 29  1  0  0  0  0
 28 27  1  0  0  0  0
 29 25  2  0  0  0  0
 31 27  1  0  0  0  0
 32 38  1  0  0  0  0
 33 39  1  0  0  0  0
 33 32  2  0  0  0  0
 34 33  1  0  0  0  0
 35 34  2  0  0  0  0
 35 36  1  0  0  0  0
 36 37  2  0  0  0  0
 37 32  1  0  0  0  0
 40 42  1  0  0  0  0
 40 36  1  0  0  0  0
 40 41  1  0  0  0  0
 42 41  1  0  0  0  0
M  END
>  <minimizedAffinity>
-6.03372335

>  <minimizedRMSD>
0.225739494

$$$$
