
 OpenBabel03242503353D

 41 44  0  0  1  0  0  0  0  0999 V2000
   39.4530   30.0160   41.7820 N   0  0  0  0  0  0  0  0  0  0  0  0
   38.7650   29.6940   42.8680 C   0  0  0  0  0  0  0  0  0  0  0  0
   37.5110   29.1230   42.8200 C   0  0  0  0  0  0  0  0  0  0  0  0
   36.9000   28.8550   41.6080 C   0  0  0  0  0  0  0  0  0  0  0  0
   35.7680   28.3390   41.5570 O   0  0  0  0  0  0  0  0  0  0  0  0
   37.6400   29.2000   40.5100 N   0  0  0  0  0  0  0  0  0  0  0  0
   38.8470   29.7490   40.6100 C   0  0  0  0  0  0  0  0  0  0  0  0
   39.4560   30.0350   39.5350 O   0  0  0  0  0  0  0  0  0  0  0  0
   39.1810   29.8770   43.8450 H   0  0  0  0  0  0  0  0  0  0  0  0
   36.9610   28.8660   43.7320 H   0  0  0  0  0  0  0  0  0  0  0  0
   37.0490   28.9400   39.2280 C   0  0  2  0  0  0  0  0  0  0  0  0
   35.7710   29.5670   38.9360 C   0  0  0  0  0  0  0  0  0  0  0  0
   35.2260   28.6800   37.7940 C   0  0  0  0  0  0  0  0  0  0  0  0
   35.5210   27.3200   38.2690 C   0  0  0  0  0  0  0  0  0  0  0  0
   36.8260   27.4350   39.0050 C   0  0  1  0  0  0  0  0  0  0  0  0
   37.7700   29.2310   38.4180 H   0  0  0  0  0  0  0  0  0  0  0  0
   35.0220   29.7000   39.7010 H   0  0  0  0  0  0  0  0  0  0  0  0
   35.9460   30.5900   38.4910 H   0  0  0  0  0  0  0  0  0  0  0  0
   34.1600   28.8990   37.6040 H   0  0  0  0  0  0  0  0  0  0  0  0
   35.8900   28.9170   36.9200 H   0  0  0  0  0  0  0  0  0  0  0  0
   34.7170   26.9760   38.9560 H   0  0  0  0  0  0  0  0  0  0  0  0
   35.5480   26.5510   37.4450 H   0  0  0  0  0  0  0  0  0  0  0  0
   36.7180   26.9860   40.0180 H   0  0  0  0  0  0  0  0  0  0  0  0
   37.9830   26.7750   38.3350 C   0  0  0  0  0  0  0  0  0  0  0  0
   37.7330   26.4610   37.2940 H   0  0  0  0  0  0  0  0  0  0  0  0
   38.9010   27.4000   38.3040 H   0  0  0  0  0  0  0  0  0  0  0  0
   38.2730   25.8400   38.8570 H   0  0  0  0  0  0  0  0  0  0  0  0
   40.7430   30.6030   41.8170 C   0  0  0  0  0  0  0  0  0  0  0  0
   41.9220   29.9110   42.2570 C   0  0  0  0  0  0  0  0  0  0  0  0
   43.1210   30.6040   42.2410 C   0  0  0  0  0  0  0  0  0  0  0  0
   43.1120   31.8760   41.8160 N   0  0  0  0  0  0  0  0  0  0  0  0
   42.0110   32.5130   41.4080 C   0  0  0  0  0  0  0  0  0  0  0  0
   40.8310   31.8630   41.4140 N   0  0  0  0  0  0  0  0  0  0  0  0
   41.7590   28.8860   42.5690 H   0  0  0  0  0  0  0  0  0  0  0  0
   43.9910   30.0550   42.5770 H   0  0  0  0  0  0  0  0  0  0  0  0
   42.1390   33.9370   40.9570 C   0  0  0  0  0  0  0  0  0  0  0  0
   43.4260   34.0770   40.1570 C   0  0  0  0  0  0  0  0  0  0  0  0
   43.2030   33.7560   38.6860 C   0  0  0  0  0  0  0  0  0  0  0  0
   42.2430   34.7020   38.0240 C   0  0  0  0  0  0  0  0  0  0  0  0
   41.4810   35.4260   39.1320 C   0  0  0  0  0  0  0  0  0  0  0  0
   40.9650   34.3780   40.1140 C   0  0  0  0  0  0  0  0  0  0  0  0
  1 28  1  0  0  0  0
  1  2  1  0  0  0  0
  2  9  1  0  0  0  0
  3  2  2  0  0  0  0
  3 10  1  0  0  0  0
  4  3  1  0  0  0  0
  5  4  2  0  0  0  0
  6  7  1  0  0  0  0
  6  4  1  0  0  0  0
  7  1  1  0  0  0  0
  8  7  2  0  0  0  0
 11 16  1  6  0  0  0
 11  6  1  0  0  0  0
 12 11  1  0  0  0  0
 12 17  1  0  0  0  0
 13 14  1  0  0  0  0
 13 12  1  0  0  0  0
 14 21  1  0  0  0  0
 14 15  1  0  0  0  0
 15 11  1  0  0  0  0
 15 23  1  1  0  0  0
 18 12  1  0  0  0  0
 19 13  1  0  0  0  0
 20 13  1  0  0  0  0
 22 14  1  0  0  0  0
 24 27  1  0  0  0  0
 24 15  1  0  0  0  0
 25 24  1  0  0  0  0
 26 24  1  0  0  0  0
 28 29  1  0  0  0  0
 29 34  1  0  0  0  0
 30 29  2  0  0  0  0
 30 35  1  0  0  0  0
 31 30  1  0  0  0  0
 32 33  1  0  0  0  0
 32 31  2  0  0  0  0
 33 28  2  0  0  0  0
 36 32  1  0  0  0  0
 37 36  1  0  0  0  0
 38 37  1  0  0  0  0
 39 38  1  0  0  0  0
 39 40  1  0  0  0  0
 40 41  1  0  0  0  0
 41 36  1  0  0  0  0
M  END
>  <minimizedAffinity>
-5.19955873

>  <minimizedRMSD>
4.45859766

$$$$
