
 OpenBabel03242509283D

 45 49  0  0  0  0  0  0  0  0999 V2000
   36.1800   30.1250   41.1010 C   0  0  0  0  0  0  0  0  0  0  0  0
   36.8220   30.8910   40.5970 H   0  0  0  0  0  0  0  0  0  0  0  0
   35.6260   30.6860   41.8840 H   0  0  0  0  0  0  0  0  0  0  0  0
   38.5820   28.1110   42.6940 C   0  0  0  0  0  0  0  0  0  0  0  0
   37.4630   27.3230   42.8160 C   0  0  0  0  0  0  0  0  0  0  0  0
   36.4220   28.0270   42.2070 C   0  0  0  0  0  0  0  0  0  0  0  0
   36.9900   29.1700   41.7730 N   0  0  0  0  0  0  0  0  0  0  0  0
   38.2570   29.2610   42.0370 N   0  0  0  0  0  0  0  0  0  0  0  0
   37.4390   26.3530   43.2980 H   0  0  0  0  0  0  0  0  0  0  0  0
   35.4280   27.6440   42.1570 H   0  0  0  0  0  0  0  0  0  0  0  0
   41.4280   26.4040   44.3850 C   0  0  0  0  0  0  0  0  0  0  0  0
   40.1300   26.6470   43.9310 C   0  0  0  0  0  0  0  0  0  0  0  0
   39.9170   27.8260   43.1720 C   0  0  0  0  0  0  0  0  0  0  0  0
   40.9470   28.6570   42.9150 N   0  0  0  0  0  0  0  0  0  0  0  0
   42.2020   28.3510   43.3970 C   0  0  0  0  0  0  0  0  0  0  0  0
   42.4230   27.2520   44.1110 N   0  0  0  0  0  0  0  0  0  0  0  0
   41.6350   25.5140   44.9700 H   0  0  0  0  0  0  0  0  0  0  0  0
   39.3160   25.9640   44.1490 H   0  0  0  0  0  0  0  0  0  0  0  0
   43.2290   29.3710   43.0270 C   0  0  0  0  0  3  0  0  0  0  0  0
   44.5620   28.8010   43.3920 C   0  0  0  0  0  2  0  0  0  0  0  0
   45.6050   29.8410   43.6960 C   0  0  0  0  0  2  0  0  0  0  0  0
   45.0600   30.5760   44.9260 C   0  0  0  0  0  2  0  0  0  0  0  0
   43.8990   31.3760   44.4360 C   0  0  0  0  0  2  0  0  0  0  0  0
   42.8680   30.6500   43.6650 C   0  0  0  0  0  2  0  0  0  0  0  0
   35.2730   29.5820   40.0440 C   0  0  0  0  0  0  0  0  0  0  0  0
   34.7760   28.6950   40.4070 H   0  0  0  0  0  0  0  0  0  0  0  0
   34.5900   30.4880   39.9160 H   0  0  0  0  0  0  0  0  0  0  0  0
   35.8850   29.4760   38.6930 C   0  0  0  0  0  0  0  0  0  0  0  0
   37.1980   29.6220   38.3610 C   0  0  0  0  0  0  0  0  0  0  0  0
   37.7120   29.5880   37.1000 C   0  0  0  0  0  0  0  0  0  0  0  0
   36.8650   29.3920   36.0330 C   0  0  0  0  0  0  0  0  0  0  0  0
   35.5120   29.2350   36.3030 C   0  0  0  0  0  0  0  0  0  0  0  0
   34.7220   29.0460   35.1940 C   0  0  0  0  0  0  0  0  0  0  0  0
   33.3750   28.8780   35.3550 C   0  0  0  0  0  0  0  0  0  0  0  0
   32.8380   28.8990   36.6290 C   0  0  0  0  0  0  0  0  0  0  0  0
   33.6830   29.0910   37.6820 C   0  0  0  0  0  0  0  0  0  0  0  0
   35.0240   29.2720   37.5990 C   0  0  0  0  0  0  0  0  0  0  0  0
   37.8700   29.7780   39.2070 H   0  0  0  0  0  0  0  0  0  0  0  0
   38.7800   29.7190   36.9870 H   0  0  0  0  0  0  0  0  0  0  0  0
   37.2600   29.3650   35.0260 H   0  0  0  0  0  0  0  0  0  0  0  0
   35.1220   29.0230   34.1800 H   0  0  0  0  0  0  0  0  0  0  0  0
   32.7400   28.7300   34.4910 H   0  0  0  0  0  0  0  0  0  0  0  0
   31.7750   28.7640   36.7470 H   0  0  0  0  0  0  0  0  0  0  0  0
   33.0850   29.0840   38.9310 O   0  0  0  0  0  0  0  0  0  0  0  0
   32.2240   29.6050   39.0620 H   0  0  0  0  0  0  0  0  0  0  0  0
  1  7  1  0  0  0  0
  1  3  1  0  0  0  0
  2  1  1  0  0  0  0
  4  5  1  0  0  0  0
  4 13  1  0  0  0  0
  5  9  1  0  0  0  0
  6  5  2  0  0  0  0
  7  8  1  0  0  0  0
  7  6  1  0  0  0  0
  8  4  2  0  0  0  0
 10  6  1  0  0  0  0
 11 17  1  0  0  0  0
 12 18  1  0  0  0  0
 12 11  2  0  0  0  0
 13 12  1  0  0  0  0
 14 13  2  0  0  0  0
 14 15  1  0  0  0  0
 15 16  2  0  0  0  0
 16 11  1  0  0  0  0
 19 20  1  0  0  0  0
 19 15  1  0  0  0  0
 19 24  1  0  0  0  0
 20 21  1  0  0  0  0
 21 22  1  0  0  0  0
 23 22  1  0  0  0  0
 24 23  1  0  0  0  0
 25 26  1  0  0  0  0
 25  1  1  0  0  0  0
 27 25  1  0  0  0  0
 28 25  1  0  0  0  0
 29 28  1  0  0  0  0
 29 38  1  0  0  0  0
 30 29  2  0  0  0  0
 31 32  2  0  0  0  0
 31 30  1  0  0  0  0
 32 37  1  0  0  0  0
 33 34  2  0  0  0  0
 33 32  1  0  0  0  0
 34 35  1  0  0  0  0
 35 43  1  0  0  0  0
 35 36  2  0  0  0  0
 36 44  1  0  0  0  0
 37 36  1  0  0  0  0
 37 28  2  0  0  0  0
 39 30  1  0  0  0  0
 40 31  1  0  0  0  0
 41 33  1  0  0  0  0
 42 34  1  0  0  0  0
 44 45  1  0  0  0  0
M  END
>  <minimizedAffinity>
-6.29275703

>  <minimizedRMSD>
0.363449544

$$$$
