
 OpenBabel03242509283D

 45 49  0  0  0  0  0  0  0  0999 V2000
   36.1160   30.0330   41.1410 C   0  0  0  0  0  0  0  0  0  0  0  0
   36.7200   30.8410   40.6560 H   0  0  0  0  0  0  0  0  0  0  0  0
   35.5190   30.5510   41.9210 H   0  0  0  0  0  0  0  0  0  0  0  0
   38.6160   28.1290   42.7190 C   0  0  0  0  0  0  0  0  0  0  0  0
   37.5220   27.3150   42.8960 C   0  0  0  0  0  0  0  0  0  0  0  0
   36.4460   27.9750   42.2980 C   0  0  0  0  0  0  0  0  0  0  0  0
   36.9710   29.1190   41.8150 N   0  0  0  0  0  0  0  0  0  0  0  0
   38.2420   29.2510   42.0400 N   0  0  0  0  0  0  0  0  0  0  0  0
   37.5390   26.3600   43.4050 H   0  0  0  0  0  0  0  0  0  0  0  0
   35.4620   27.5640   42.2870 H   0  0  0  0  0  0  0  0  0  0  0  0
   41.5530   26.5500   44.3790 C   0  0  0  0  0  0  0  0  0  0  0  0
   40.2370   26.7470   43.9580 C   0  0  0  0  0  0  0  0  0  0  0  0
   39.9710   27.8930   43.1650 C   0  0  0  0  0  0  0  0  0  0  0  0
   40.9730   28.7380   42.8480 N   0  0  0  0  0  0  0  0  0  0  0  0
   42.2480   28.4790   43.3010 C   0  0  0  0  0  0  0  0  0  0  0  0
   42.5180   27.4120   44.0460 N   0  0  0  0  0  0  0  0  0  0  0  0
   41.7990   25.6870   44.9880 H   0  0  0  0  0  0  0  0  0  0  0  0
   39.4460   26.0520   44.2250 H   0  0  0  0  0  0  0  0  0  0  0  0
   43.2390   29.5090   42.8650 C   0  0  0  0  0  3  0  0  0  0  0  0
   43.0740   30.6870   43.7690 C   0  0  0  0  0  2  0  0  0  0  0  0
   43.4810   31.9950   43.1440 C   0  0  0  0  0  2  0  0  0  0  0  0
   42.5120   32.1680   41.9690 C   0  0  0  0  0  2  0  0  0  0  0  0
   42.9230   31.1540   40.9550 C   0  0  0  0  0  2  0  0  0  0  0  0
   43.0500   29.7580   41.4250 C   0  0  0  0  0  2  0  0  0  0  0  0
   35.2600   29.4500   40.0640 C   0  0  0  0  0  0  0  0  0  0  0  0
   34.8040   28.5350   40.4120 H   0  0  0  0  0  0  0  0  0  0  0  0
   34.5310   30.3200   39.9290 H   0  0  0  0  0  0  0  0  0  0  0  0
   35.9010   29.3870   38.7240 C   0  0  0  0  0  0  0  0  0  0  0  0
   37.2250   29.5130   38.4290 C   0  0  0  0  0  0  0  0  0  0  0  0
   37.7680   29.5210   37.1800 C   0  0  0  0  0  0  0  0  0  0  0  0
   36.9420   29.3930   36.0860 C   0  0  0  0  0  0  0  0  0  0  0  0
   35.5790   29.2600   36.3180 C   0  0  0  0  0  0  0  0  0  0  0  0
   34.8110   29.1400   35.1840 C   0  0  0  0  0  0  0  0  0  0  0  0
   33.4570   29.0010   35.3060 C   0  0  0  0  0  0  0  0  0  0  0  0
   32.8900   28.9810   36.5670 C   0  0  0  0  0  0  0  0  0  0  0  0
   33.7150   29.1050   37.6460 C   0  0  0  0  0  0  0  0  0  0  0  0
   35.0610   29.2530   37.6020 C   0  0  0  0  0  0  0  0  0  0  0  0
   37.8790   29.6140   39.2960 H   0  0  0  0  0  0  0  0  0  0  0  0
   38.8410   29.6280   37.0970 H   0  0  0  0  0  0  0  0  0  0  0  0
   37.3600   29.4000   35.0880 H   0  0  0  0  0  0  0  0  0  0  0  0
   35.2360   29.1510   34.1790 H   0  0  0  0  0  0  0  0  0  0  0  0
   32.8400   28.9080   34.4220 H   0  0  0  0  0  0  0  0  0  0  0  0
   31.8220   28.8680   36.6550 H   0  0  0  0  0  0  0  0  0  0  0  0
   33.0860   29.0590   38.8800 O   0  0  0  0  0  0  0  0  0  0  0  0
   32.2360   29.5960   39.0140 H   0  0  0  0  0  0  0  0  0  0  0  0
  1  7  1  0  0  0  0
  1  3  1  0  0  0  0
  2  1  1  0  0  0  0
  4  5  1  0  0  0  0
  4 13  1  0  0  0  0
  5  9  1  0  0  0  0
  6  5  2  0  0  0  0
  7  8  1  0  0  0  0
  7  6  1  0  0  0  0
  8  4  2  0  0  0  0
 10  6  1  0  0  0  0
 11 17  1  0  0  0  0
 12 18  1  0  0  0  0
 12 11  2  0  0  0  0
 13 12  1  0  0  0  0
 14 13  2  0  0  0  0
 14 15  1  0  0  0  0
 15 16  2  0  0  0  0
 16 11  1  0  0  0  0
 19 15  1  0  0  0  0
 19 20  1  0  0  0  0
 21 20  1  0  0  0  0
 22 21  1  0  0  0  0
 23 24  1  0  0  0  0
 23 22  1  0  0  0  0
 24 19  1  0  0  0  0
 25 26  1  0  0  0  0
 25  1  1  0  0  0  0
 27 25  1  0  0  0  0
 28 25  1  0  0  0  0
 29 28  1  0  0  0  0
 29 38  1  0  0  0  0
 30 29  2  0  0  0  0
 31 32  2  0  0  0  0
 31 30  1  0  0  0  0
 32 37  1  0  0  0  0
 33 34  2  0  0  0  0
 33 32  1  0  0  0  0
 34 35  1  0  0  0  0
 35 43  1  0  0  0  0
 35 36  2  0  0  0  0
 36 44  1  0  0  0  0
 37 36  1  0  0  0  0
 37 28  2  0  0  0  0
 39 30  1  0  0  0  0
 40 31  1  0  0  0  0
 41 33  1  0  0  0  0
 42 34  1  0  0  0  0
 44 45  1  0  0  0  0
M  END
>  <minimizedAffinity>
-6.24298859

>  <minimizedRMSD>
0.104803644

$$$$
