
 OpenBabel03242506363D

 23 25  0  0  0  0  0  0  0  0999 V2000
   37.1500   30.1700   40.4000 C   0  0  0  0  0  0  0  0  0  0  0  0
   37.0940   31.5360   40.5170 C   0  0  0  0  0  0  0  0  0  0  0  0
   37.1040   32.2690   39.3560 C   0  0  0  0  0  0  0  0  0  0  0  0
   37.1660   31.6930   38.1370 N   0  0  0  0  0  0  0  0  0  0  0  0
   37.2230   30.3230   38.0370 C   0  0  0  0  0  0  0  0  0  0  0  0
   37.2130   29.5880   39.1900 N   0  0  0  0  0  0  0  0  0  0  0  0
   37.0440   32.0080   41.4870 H   0  0  0  0  0  0  0  0  0  0  0  0
   37.0600   33.3440   39.4170 H   0  0  0  0  0  0  0  0  0  0  0  0
   37.9780   28.8410   43.7200 C   0  0  0  0  0  0  0  0  0  0  0  0
   37.1260   27.6950   43.8120 C   0  0  0  0  0  0  0  0  0  0  0  0
   36.3040   27.4260   42.7310 C   0  0  0  0  0  0  0  0  0  0  0  0
   36.3410   28.2520   41.6430 N   0  0  0  0  0  0  0  0  0  0  0  0
   37.1450   29.3150   41.5840 C   0  0  0  0  0  0  0  0  0  0  0  0
   37.9610   29.6120   42.6160 N   0  0  0  0  0  0  0  0  0  0  0  0
   38.6590   29.1540   44.4900 H   0  0  0  0  0  0  0  0  0  0  0  0
   37.1910   27.1220   44.7280 H   0  0  0  0  0  0  0  0  0  0  0  0
   35.6690   26.5710   42.7990 H   0  0  0  0  0  0  0  0  0  0  0  0
   37.2920   29.6890   36.6870 C   0  0  0  0  0  0  0  0  0  0  0  0
   38.2250   28.5400   36.5940 C   0  0  0  0  0  0  0  0  0  0  0  0
   37.5900   27.1850   36.6870 C   0  0  0  0  0  0  0  0  0  0  0  0
   36.3170   27.0830   35.8820 C   0  0  0  0  0  0  0  0  0  0  0  0
   35.3550   28.0730   36.5530 C   0  0  0  0  0  0  0  0  0  0  0  0
   35.8960   29.4330   36.1920 C   0  0  0  0  0  0  0  0  0  0  0  0
  1  2  1  0  0  0  0
  1 13  1  0  0  0  0
  2  7  1  0  0  0  0
  3  8  1  0  0  0  0
  3  2  2  0  0  0  0
  4  3  1  0  0  0  0
  5  4  2  0  0  0  0
  5  6  1  0  0  0  0
  6  1  2  0  0  0  0
  9 10  1  0  0  0  0
  9 15  1  0  0  0  0
 10 16  1  0  0  0  0
 11 17  1  0  0  0  0
 11 10  2  0  0  0  0
 12 11  1  0  0  0  0
 13 12  2  0  0  0  0
 13 14  1  0  0  0  0
 14  9  2  0  0  0  0
 18  5  1  0  0  0  0
 19 20  1  0  0  0  0
 19 18  1  0  0  0  0
 21 22  1  0  0  0  0
 21 20  1  0  0  0  0
 23 22  1  0  0  0  0
 23 18  1  0  0  0  0
M  END
>  <minimizedAffinity>
-4.4134388

>  <minimizedRMSD>
0.58637023

$$$$
