
 OpenBabel03242509293D

 45 49  0  0  0  0  0  0  0  0999 V2000
   36.2080   30.1320   41.1180 C   0  0  0  0  0  0  0  0  0  0  0  0
   36.8510   30.8960   40.6110 H   0  0  0  0  0  0  0  0  0  0  0  0
   35.6590   30.6960   41.9030 H   0  0  0  0  0  0  0  0  0  0  0  0
   38.6080   28.1120   42.7070 C   0  0  0  0  0  0  0  0  0  0  0  0
   37.4880   27.3240   42.8260 C   0  0  0  0  0  0  0  0  0  0  0  0
   36.4480   28.0310   42.2180 C   0  0  0  0  0  0  0  0  0  0  0  0
   37.0170   29.1740   41.7870 N   0  0  0  0  0  0  0  0  0  0  0  0
   38.2840   29.2640   42.0530 N   0  0  0  0  0  0  0  0  0  0  0  0
   37.4640   26.3530   43.3040 H   0  0  0  0  0  0  0  0  0  0  0  0
   35.4540   27.6490   42.1660 H   0  0  0  0  0  0  0  0  0  0  0  0
   41.4570   26.3870   44.3740 C   0  0  0  0  0  0  0  0  0  0  0  0
   40.1600   26.6320   43.9200 C   0  0  0  0  0  0  0  0  0  0  0  0
   39.9420   27.8250   43.1840 C   0  0  0  0  0  0  0  0  0  0  0  0
   40.9690   28.6670   42.9490 N   0  0  0  0  0  0  0  0  0  0  0  0
   42.2230   28.3580   43.4300 C   0  0  0  0  0  0  0  0  0  0  0  0
   42.4480   27.2460   44.1220 N   0  0  0  0  0  0  0  0  0  0  0  0
   41.6660   25.4860   44.9420 H   0  0  0  0  0  0  0  0  0  0  0  0
   39.3480   25.9400   44.1210 H   0  0  0  0  0  0  0  0  0  0  0  0
   43.2470   29.3910   43.0850 C   0  0  0  0  0  3  0  0  0  0  0  0
   44.5670   28.8710   43.5540 C   0  0  0  0  0  2  0  0  0  0  0  0
   45.5640   29.9500   43.8820 C   0  0  0  0  0  2  0  0  0  0  0  0
   44.9240   30.7140   45.0450 C   0  0  0  0  0  2  0  0  0  0  0  0
   43.7770   31.4640   44.4540 C   0  0  0  0  0  2  0  0  0  0  0  0
   42.8140   30.6830   43.6500 C   0  0  0  0  0  2  0  0  0  0  0  0
   35.2960   29.5920   40.0650 C   0  0  0  0  0  0  0  0  0  0  0  0
   34.7960   28.7070   40.4300 H   0  0  0  0  0  0  0  0  0  0  0  0
   34.6150   30.5010   39.9390 H   0  0  0  0  0  0  0  0  0  0  0  0
   35.9020   29.4820   38.7120 C   0  0  0  0  0  0  0  0  0  0  0  0
   37.2140   29.6280   38.3740 C   0  0  0  0  0  0  0  0  0  0  0  0
   37.7230   29.5920   37.1110 C   0  0  0  0  0  0  0  0  0  0  0  0
   36.8710   29.3910   36.0480 C   0  0  0  0  0  0  0  0  0  0  0  0
   35.5190   29.2330   36.3240 C   0  0  0  0  0  0  0  0  0  0  0  0
   34.7250   29.0400   35.2190 C   0  0  0  0  0  0  0  0  0  0  0  0
   33.3790   28.8710   35.3860 C   0  0  0  0  0  0  0  0  0  0  0  0
   32.8470   28.8960   36.6620 C   0  0  0  0  0  0  0  0  0  0  0  0
   33.6960   29.0920   37.7100 C   0  0  0  0  0  0  0  0  0  0  0  0
   35.0370   29.2740   37.6220 C   0  0  0  0  0  0  0  0  0  0  0  0
   37.8880   29.7880   39.2170 H   0  0  0  0  0  0  0  0  0  0  0  0
   38.7900   29.7230   36.9940 H   0  0  0  0  0  0  0  0  0  0  0  0
   37.2620   29.3610   35.0390 H   0  0  0  0  0  0  0  0  0  0  0  0
   35.1210   29.0140   34.2040 H   0  0  0  0  0  0  0  0  0  0  0  0
   32.7410   28.7210   34.5240 H   0  0  0  0  0  0  0  0  0  0  0  0
   31.7850   28.7600   36.7850 H   0  0  0  0  0  0  0  0  0  0  0  0
   33.1030   29.0880   38.9630 O   0  0  0  0  0  0  0  0  0  0  0  0
   32.2420   29.6090   39.0950 H   0  0  0  0  0  0  0  0  0  0  0  0
  1  7  1  0  0  0  0
  1  3  1  0  0  0  0
  2  1  1  0  0  0  0
  4  5  1  0  0  0  0
  4 13  1  0  0  0  0
  5  9  1  0  0  0  0
  6  5  2  0  0  0  0
  7  8  1  0  0  0  0
  7  6  1  0  0  0  0
  8  4  2  0  0  0  0
 10  6  1  0  0  0  0
 11 17  1  0  0  0  0
 12 18  1  0  0  0  0
 12 11  2  0  0  0  0
 13 12  1  0  0  0  0
 14 13  2  0  0  0  0
 14 15  1  0  0  0  0
 15 16  2  0  0  0  0
 16 11  1  0  0  0  0
 19 15  1  0  0  0  0
 19 20  1  0  0  0  0
 19 24  1  0  0  0  0
 20 21  1  0  0  0  0
 21 22  1  0  0  0  0
 23 22  1  0  0  0  0
 24 23  1  0  0  0  0
 25 26  1  0  0  0  0
 25  1  1  0  0  0  0
 27 25  1  0  0  0  0
 28 25  1  0  0  0  0
 29 28  1  0  0  0  0
 29 38  1  0  0  0  0
 30 29  2  0  0  0  0
 31 32  2  0  0  0  0
 31 30  1  0  0  0  0
 32 37  1  0  0  0  0
 33 34  2  0  0  0  0
 33 32  1  0  0  0  0
 34 35  1  0  0  0  0
 35 43  1  0  0  0  0
 35 36  2  0  0  0  0
 36 44  1  0  0  0  0
 37 36  1  0  0  0  0
 37 28  2  0  0  0  0
 39 30  1  0  0  0  0
 40 31  1  0  0  0  0
 41 33  1  0  0  0  0
 42 34  1  0  0  0  0
 44 45  1  0  0  0  0
M  END
>  <minimizedAffinity>
-6.30522728

>  <minimizedRMSD>
0.15337576

$$$$
