
 OpenBabel03242508313D

 28 31  0  0  0  0  0  0  0  0999 V2000
   36.4110   30.6320   41.4050 O   0  0  0  0  0  0  0  0  0  0  0  0
   38.6840   28.4970   43.2490 C   0  0  0  0  0  0  0  0  0  0  0  0
   38.2470   27.2410   42.7820 C   0  0  0  0  0  0  0  0  0  0  0  0
   37.1780   27.2290   41.8450 C   0  0  0  0  0  0  0  0  0  0  0  0
   36.6430   28.4110   41.4580 N   0  0  0  0  0  0  0  0  0  0  0  0
   37.1000   29.5780   41.9360 C   0  0  0  0  0  0  0  0  0  0  0  0
   38.1040   29.6250   42.8180 N   0  0  0  0  0  0  0  0  0  0  0  0
   39.4950   28.5510   43.9620 H   0  0  0  0  0  0  0  0  0  0  0  0
   38.7090   26.3240   43.1240 H   0  0  0  0  0  0  0  0  0  0  0  0
   36.6820   25.9040   41.3230 C   0  0  0  0  0  0  0  0  0  0  0  0
   37.1490   25.8030   39.8920 C   0  0  0  0  0  0  0  0  0  0  0  0
   36.5830   24.5390   39.2510 C   0  0  0  0  0  0  0  0  0  0  0  0
   36.5950   23.4210   40.2680 C   0  0  0  0  0  0  0  0  0  0  0  0
   37.7070   23.6290   41.2670 C   0  0  0  0  0  0  0  0  0  0  0  0
   37.4230   24.8460   42.1120 C   0  0  0  0  0  0  0  0  0  0  0  0
   37.0230   31.5050   40.5110 C   0  0  0  0  0  0  0  0  0  0  0  0
   36.8930   31.6590   39.1680 N   0  0  0  0  0  0  0  0  0  0  0  0
   37.6870   32.6200   38.7800 O   0  0  0  0  0  0  0  0  0  0  0  0
   38.3160   33.0770   39.8510 C   0  0  0  0  0  0  0  0  0  0  0  0
   37.9280   32.4110   40.9290 N   0  0  0  0  0  0  0  0  0  0  0  0
   39.2890   34.1610   39.8020 C   0  0  0  0  0  0  0  0  0  0  0  0
   39.0560   35.4740   40.2080 C   0  0  0  0  0  0  0  0  0  0  0  0
   40.2060   36.2120   40.0140 C   0  0  0  0  0  0  0  0  0  0  0  0
   41.1130   35.2930   39.4850 C   0  0  0  0  0  0  0  0  0  0  0  0
   40.5150   34.1420   39.3940 O   0  0  0  0  0  0  0  0  0  0  0  0
   38.1470   35.9130   40.6180 H   0  0  0  0  0  0  0  0  0  0  0  0
   40.4640   37.2480   40.1890 H   0  0  0  0  0  0  0  0  0  0  0  0
   42.1410   35.3870   39.1690 H   0  0  0  0  0  0  0  0  0  0  0  0
  1  6  1  0  0  0  0
  2  8  1  0  0  0  0
  3  9  1  0  0  0  0
  3  2  2  0  0  0  0
  4  3  1  0  0  0  0
  5  4  2  0  0  0  0
  5  6  1  0  0  0  0
  6  7  2  0  0  0  0
  7  2  1  0  0  0  0
 10  4  1  0  0  0  0
 10 15  1  0  0  0  0
 11 10  1  0  0  0  0
 12 11  1  0  0  0  0
 12 13  1  0  0  0  0
 13 14  1  0  0  0  0
 14 15  1  0  0  0  0
 16 20  1  0  0  0  0
 16  1  1  0  0  0  0
 17 16  2  0  0  0  0
 18 17  1  0  0  0  0
 18 19  1  0  0  0  0
 19 20  2  0  0  0  0
 21 19  1  0  0  0  0
 21 22  2  0  0  0  0
 22 26  1  0  0  0  0
 23 27  1  0  0  0  0
 23 22  1  0  0  0  0
 24 23  2  0  0  0  0
 25 24  1  0  0  0  0
 25 21  1  0  0  0  0
 28 24  1  0  0  0  0
M  END
>  <minimizedAffinity>
-6.25882435

>  <minimizedRMSD>
0.420265615

$$$$
