
 OpenBabel03242508273D

 21 23  0  0  1  0  0  0  0  0999 V2000
   38.5040   28.5350   43.0260 C   0  0  0  0  0  0  0  0  0  0  0  0
   39.3240   29.5030   42.5630 N   0  0  0  0  0  0  0  0  0  0  0  0
   38.6160   30.3470   41.8450 O   0  0  0  0  0  0  0  0  0  0  0  0
   37.3690   29.9320   41.8450 C   0  0  0  0  0  0  0  0  0  0  0  0
   37.2760   28.8060   42.5740 N   0  0  0  0  0  0  0  0  0  0  0  0
   36.2950   30.6710   41.1150 C   0  0  1  0  0  0  0  0  0  0  0  0
   36.8040   31.7630   40.2550 C   0  0  0  0  0  0  0  0  0  0  0  0
   37.0660   31.4250   38.8260 C   0  0  0  0  0  0  0  0  0  0  0  0
   37.1020   29.9970   38.4430 C   0  0  0  0  0  0  0  0  0  0  0  0
   36.1950   29.0770   39.1970 C   0  0  0  0  0  0  0  0  0  0  0  0
   35.4320   29.7510   40.3020 C   0  0  0  0  0  0  0  0  0  0  0  0
   38.7760   27.4260   43.8240 O   0  0  0  0  0  0  0  0  0  0  0  0
   42.2160   26.2710   44.1010 C   0  0  0  0  0  0  0  0  0  0  0  0
   42.1850   25.2320   43.1500 C   0  0  0  0  0  0  0  0  0  0  0  0
   40.9660   25.0100   42.4800 C   0  0  0  0  0  0  0  0  0  0  0  0
   39.9060   25.8050   42.7930 N   0  0  0  0  0  0  0  0  0  0  0  0
   39.9880   26.7770   43.7020 C   0  0  0  0  0  0  0  0  0  0  0  0
   41.1360   27.0150   44.3590 N   0  0  0  0  0  0  0  0  0  0  0  0
   43.1220   26.5020   44.6580 H   0  0  0  0  0  0  0  0  0  0  0  0
   43.0830   24.6490   42.9660 H   0  0  0  0  0  0  0  0  0  0  0  0
   40.9320   24.2150   41.7470 H   0  0  0  0  0  0  0  0  0  0  0  0
  1 12  1  0  0  0  0
  2  1  2  0  0  0  0
  3  2  1  0  0  0  0
  4  3  1  0  0  0  0
  4  5  2  0  0  0  0
  5  1  1  0  0  0  0
  6  4  1  6  0  0  0
  7  6  1  0  0  0  0
  8  7  2  0  0  0  0
  9  8  1  0  0  0  0
  9 10  1  0  0  0  0
 10 11  1  0  0  0  0
 11  6  1  0  0  0  0
 13 18  1  0  0  0  0
 13 19  1  0  0  0  0
 14 13  2  0  0  0  0
 15 16  2  0  0  0  0
 15 14  1  0  0  0  0
 16 17  1  0  0  0  0
 17 12  1  0  0  0  0
 17 18  2  0  0  0  0
 20 14  1  0  0  0  0
 21 15  1  0  0  0  0
M  END
>  <minimizedAffinity>
-5.03027391

>  <minimizedRMSD>
4.72846842

$$$$
