
 OpenBabel03242509123D

 41 46  0  0  1  0  0  0  0  0999 V2000
   35.1680   29.4970   40.3080 C   0  0  0  0  0  0  0  0  0  0  0  0
   35.9070   28.6290   41.1360 C   0  0  0  0  0  0  0  0  0  0  0  0
   37.2540   28.8620   41.3180 C   0  0  0  0  0  0  0  0  0  0  0  0
   37.7690   29.9400   40.6680 N   0  0  0  0  0  0  0  0  0  0  0  0
   37.0570   30.7690   39.8780 C   0  0  0  0  0  0  0  0  0  0  0  0
   35.7480   30.5350   39.7020 N   0  0  0  0  0  0  0  0  0  0  0  0
   34.1170   29.4030   40.0990 H   0  0  0  0  0  0  0  0  0  0  0  0
   35.2550   27.8840   41.5450 H   0  0  0  0  0  0  0  0  0  0  0  0
   38.0150   27.9730   42.1450 C   0  0  0  0  0  0  0  0  0  0  0  0
   38.6760   28.2750   43.3300 C   0  0  0  0  0  0  0  0  0  0  0  0
   39.2700   27.1510   43.8010 N   0  0  0  0  0  0  0  0  0  0  0  0
   39.0320   26.1170   42.9780 C   0  0  0  0  0  0  0  0  0  0  0  0
   39.3920   24.7800   42.9800 C   0  0  0  0  0  0  0  0  0  0  0  0
   38.9890   23.9240   41.9640 C   0  0  0  0  0  0  0  0  0  0  0  0
   38.2160   24.4590   40.9500 C   0  0  0  0  0  0  0  0  0  0  0  0
   37.8640   25.7770   40.9520 C   0  0  0  0  0  0  0  0  0  0  0  0
   38.2530   26.6290   41.9490 C   0  0  0  0  0  0  0  0  0  0  0  0
   38.6790   29.2670   43.7570 H   0  0  0  0  0  0  0  0  0  0  0  0
   39.8250   27.1330   44.6810 H   0  0  0  0  0  0  0  0  0  0  0  0
   39.9970   24.4710   43.8210 H   0  0  0  0  0  0  0  0  0  0  0  0
   39.3230   22.8960   42.0580 H   0  0  0  0  0  0  0  0  0  0  0  0
   37.9570   23.7000   40.2050 H   0  0  0  0  0  0  0  0  0  0  0  0
   37.2880   26.0010   40.0790 H   0  0  0  0  0  0  0  0  0  0  0  0
   37.7250   31.9510   39.2330 C   0  0  1  0  0  0  0  0  0  0  0  0
   37.1460   33.3390   39.5720 C   0  0  0  0  0  0  0  0  0  0  0  0
   38.4610   32.9010   40.0970 C   0  0  2  0  0  0  0  0  0  0  0  0
   38.0560   31.8220   38.1890 H   0  0  0  0  0  0  0  0  0  0  0  0
   37.2020   34.0570   38.7320 H   0  0  0  0  0  0  0  0  0  0  0  0
   36.2410   33.3160   40.2050 H   0  0  0  0  0  0  0  0  0  0  0  0
   38.4940   32.7010   41.2100 H   0  0  0  0  0  0  0  0  0  0  0  0
   39.7210   33.5180   39.6370 C   0  0  0  0  0  0  0  0  0  0  0  0
   40.2790   34.6520   40.1030 N   0  0  0  0  0  0  0  0  0  0  0  0
   41.3800   34.8870   39.4320 O   0  0  0  0  0  0  0  0  0  0  0  0
   41.5730   33.9470   38.5360 C   0  0  0  0  0  0  0  0  0  0  0  0
   40.5300   33.0670   38.6500 N   0  0  0  0  0  0  0  0  0  0  0  0
   42.6580   33.7550   37.5360 C   0  0  0  0  0  0  0  0  0  0  0  0
   42.7630   32.3100   37.1030 C   0  0  0  0  0  0  0  0  0  0  0  0
   43.2120   31.4120   38.2310 C   0  0  0  0  0  0  0  0  0  0  0  0
   44.5760   31.8240   38.7140 C   0  0  0  0  0  0  0  0  0  0  0  0
   44.5620   33.2640   39.1010 C   0  0  0  0  0  0  0  0  0  0  0  0
   44.0100   34.1700   38.0300 C   0  0  0  0  0  0  0  0  0  0  0  0
  1  2  1  0  0  0  0
  2  3  2  0  0  0  0
  2  8  1  0  0  0  0
  3  9  1  0  0  0  0
  4  3  1  0  0  0  0
  5  4  2  0  0  0  0
  6  5  1  0  0  0  0
  6  1  2  0  0  0  0
  7  1  1  0  0  0  0
  9 10  2  0  0  0  0
 10 18  1  0  0  0  0
 10 11  1  0  0  0  0
 11 19  1  0  0  0  0
 12 13  1  0  0  0  0
 12 11  1  0  0  0  0
 13 20  1  0  0  0  0
 14 21  1  0  0  0  0
 14 13  2  0  0  0  0
 15 16  2  0  0  0  0
 15 14  1  0  0  0  0
 16 17  1  0  0  0  0
 17  9  1  0  0  0  0
 17 12  2  0  0  0  0
 22 15  1  0  0  0  0
 23 16  1  0  0  0  0
 24 27  1  6  0  0  0
 24 25  1  0  0  0  0
 24  5  1  0  0  0  0
 24 26  1  0  0  0  0
 25 26  1  0  0  0  0
 25 29  1  0  0  0  0
 26 30  1  1  0  0  0
 28 25  1  0  0  0  0
 31 26  1  0  0  0  0
 31 32  2  0  0  0  0
 33 32  1  0  0  0  0
 34 35  2  0  0  0  0
 34 33  1  0  0  0  0
 35 31  1  0  0  0  0
 36 41  1  0  0  0  0
 36 34  1  0  0  0  0
 37 36  1  0  0  0  0
 37 38  1  0  0  0  0
 38 39  1  0  0  0  0
 39 40  1  0  0  0  0
 41 40  1  0  0  0  0
M  END
>  <minimizedAffinity>
-6.61681366

>  <minimizedRMSD>
1.54262507

$$$$
