
 OpenBabel03242507543D

 24 26  0  0  0  0  0  0  0  0999 V2000
   37.5950   30.0620   40.6630 C   0  0  0  0  0  0  0  0  0  0  0  0
   37.8560   31.4100   40.8880 C   0  0  0  0  0  0  0  0  0  0  0  0
   37.5940   32.2900   39.8470 C   0  0  0  0  0  0  0  0  0  0  0  0
   37.0930   31.7800   38.6620 C   0  0  0  0  0  0  0  0  0  0  0  0
   36.8440   30.4410   38.4660 C   0  0  0  0  0  0  0  0  0  0  0  0
   37.1060   29.6120   39.4900 N   0  0  0  0  0  0  0  0  0  0  0  0
   38.2490   31.7920   41.8220 H   0  0  0  0  0  0  0  0  0  0  0  0
   37.7850   33.3560   39.9780 H   0  0  0  0  0  0  0  0  0  0  0  0
   36.9070   32.5280   37.8780 H   0  0  0  0  0  0  0  0  0  0  0  0
   39.4040   28.0080   43.1130 C   0  0  0  0  0  0  0  0  0  0  0  0
   38.3840   27.3380   43.7910 C   0  0  0  0  0  0  0  0  0  0  0  0
   37.0560   27.5930   43.4010 C   0  0  0  0  0  0  0  0  0  0  0  0
   36.8830   28.4750   42.3950 N   0  0  0  0  0  0  0  0  0  0  0  0
   37.8660   29.1090   41.7570 C   0  0  0  0  0  0  0  0  0  0  0  0
   39.1400   28.8730   42.1200 N   0  0  0  0  0  0  0  0  0  0  0  0
   40.3840   27.7650   43.4640 H   0  0  0  0  0  0  0  0  0  0  0  0
   38.5530   26.6350   44.5940 H   0  0  0  0  0  0  0  0  0  0  0  0
   36.2200   27.1060   43.8860 H   0  0  0  0  0  0  0  0  0  0  0  0
   36.3050   29.9440   37.1730 C   0  0  0  0  0  0  0  0  0  0  0  0
   37.3040   29.0120   36.5170 C   0  0  0  0  0  0  0  0  0  0  0  0
   36.8960   28.8080   35.0760 C   0  0  0  0  0  0  0  0  0  0  0  0
   35.5520   28.1170   35.0900 C   0  0  0  0  0  0  0  0  0  0  0  0
   34.5330   28.8190   35.9460 C   0  0  0  0  0  0  0  0  0  0  0  0
   35.0310   29.1460   37.3340 C   0  0  0  0  0  0  0  0  0  0  0  0
  1  2  1  0  0  0  0
  1 14  1  0  0  0  0
  2  7  1  0  0  0  0
  3  8  1  0  0  0  0
  3  2  2  0  0  0  0
  4  3  1  0  0  0  0
  5  4  2  0  0  0  0
  5  6  1  0  0  0  0
  6  1  2  0  0  0  0
  9  4  1  0  0  0  0
 10 16  1  0  0  0  0
 10 11  1  0  0  0  0
 11 17  1  0  0  0  0
 12 11  2  0  0  0  0
 12 18  1  0  0  0  0
 13 12  1  0  0  0  0
 14 15  1  0  0  0  0
 14 13  2  0  0  0  0
 15 10  2  0  0  0  0
 19 24  1  0  0  0  0
 19  5  1  0  0  0  0
 20 19  1  0  0  0  0
 21 22  1  0  0  0  0
 21 20  1  0  0  0  0
 22 23  1  0  0  0  0
 23 24  1  0  0  0  0
M  END
>  <minimizedAffinity>
-4.73718262

>  <minimizedRMSD>
1.74366021

$$$$
