
 OpenBabel03242509283D

 45 49  0  0  0  0  0  0  0  0999 V2000
   36.0820   29.9990   40.9360 C   0  0  0  0  0  0  0  0  0  0  0  0
   36.7200   30.7050   40.3470 H   0  0  0  0  0  0  0  0  0  0  0  0
   35.5640   30.6380   41.6840 H   0  0  0  0  0  0  0  0  0  0  0  0
   38.4960   28.0960   42.6430 C   0  0  0  0  0  0  0  0  0  0  0  0
   37.3780   27.3170   42.8250 C   0  0  0  0  0  0  0  0  0  0  0  0
   36.3330   27.9800   42.1790 C   0  0  0  0  0  0  0  0  0  0  0  0
   36.8980   29.0900   41.6640 N   0  0  0  0  0  0  0  0  0  0  0  0
   38.1660   29.1990   41.9130 N   0  0  0  0  0  0  0  0  0  0  0  0
   37.3590   26.3820   43.3710 H   0  0  0  0  0  0  0  0  0  0  0  0
   35.3390   27.5940   42.1610 H   0  0  0  0  0  0  0  0  0  0  0  0
   41.3670   26.4710   44.3720 C   0  0  0  0  0  0  0  0  0  0  0  0
   40.0670   26.6830   43.9120 C   0  0  0  0  0  0  0  0  0  0  0  0
   39.8350   27.8430   43.1290 C   0  0  0  0  0  0  0  0  0  0  0  0
   40.8520   28.6870   42.8580 N   0  0  0  0  0  0  0  0  0  0  0  0
   42.1100   28.4120   43.3480 C   0  0  0  0  0  0  0  0  0  0  0  0
   42.3490   27.3310   44.0840 N   0  0  0  0  0  0  0  0  0  0  0  0
   41.5880   25.5970   44.9750 H   0  0  0  0  0  0  0  0  0  0  0  0
   39.2640   25.9900   44.1420 H   0  0  0  0  0  0  0  0  0  0  0  0
   43.1210   29.4410   42.9600 C   0  0  0  0  0  3  0  0  0  0  0  0
   44.4690   28.8470   43.2080 C   0  0  0  0  0  2  0  0  0  0  0  0
   45.5400   29.8640   43.4930 C   0  0  0  0  0  2  0  0  0  0  0  0
   45.0830   30.5410   44.7890 C   0  0  0  0  0  2  0  0  0  0  0  0
   43.9010   31.3710   44.4170 C   0  0  0  0  0  2  0  0  0  0  0  0
   42.8140   30.6900   43.6830 C   0  0  0  0  0  2  0  0  0  0  0  0
   35.1320   29.3830   39.9610 C   0  0  0  0  0  0  0  0  0  0  0  0
   34.6980   28.4900   40.3850 H   0  0  0  0  0  0  0  0  0  0  0  0
   34.4040   30.2560   39.8500 H   0  0  0  0  0  0  0  0  0  0  0  0
   35.6570   29.2550   38.5760 C   0  0  0  0  0  0  0  0  0  0  0  0
   36.9600   29.2670   38.1760 C   0  0  0  0  0  0  0  0  0  0  0  0
   37.4010   29.2180   36.8880 C   0  0  0  0  0  0  0  0  0  0  0  0
   36.4830   29.1510   35.8640 C   0  0  0  0  0  0  0  0  0  0  0  0
   35.1360   29.1350   36.2040 C   0  0  0  0  0  0  0  0  0  0  0  0
   34.2740   29.0700   35.1360 C   0  0  0  0  0  0  0  0  0  0  0  0
   32.9260   29.0460   35.3660 C   0  0  0  0  0  0  0  0  0  0  0  0
   32.4620   29.0840   36.6680 C   0  0  0  0  0  0  0  0  0  0  0  0
   33.3770   29.1480   37.6770 C   0  0  0  0  0  0  0  0  0  0  0  0
   34.7230   29.1830   37.5260 C   0  0  0  0  0  0  0  0  0  0  0  0
   37.6870   29.3200   38.9880 H   0  0  0  0  0  0  0  0  0  0  0  0
   38.4690   29.2350   36.7200 H   0  0  0  0  0  0  0  0  0  0  0  0
   36.8190   29.1140   34.8370 H   0  0  0  0  0  0  0  0  0  0  0  0
   34.6160   29.0370   34.1010 H   0  0  0  0  0  0  0  0  0  0  0  0
   32.2360   28.9980   34.5350 H   0  0  0  0  0  0  0  0  0  0  0  0
   31.3980   29.0620   36.8410 H   0  0  0  0  0  0  0  0  0  0  0  0
   32.8470   29.1650   38.9570 O   0  0  0  0  0  0  0  0  0  0  0  0
   32.0570   29.7730   39.1490 H   0  0  0  0  0  0  0  0  0  0  0  0
  1  7  1  0  0  0  0
  1  3  1  0  0  0  0
  2  1  1  0  0  0  0
  4  5  1  0  0  0  0
  4 13  1  0  0  0  0
  5  9  1  0  0  0  0
  6  5  2  0  0  0  0
  7  8  1  0  0  0  0
  7  6  1  0  0  0  0
  8  4  2  0  0  0  0
 10  6  1  0  0  0  0
 11 17  1  0  0  0  0
 12 18  1  0  0  0  0
 12 11  2  0  0  0  0
 13 12  1  0  0  0  0
 14 13  2  0  0  0  0
 14 15  1  0  0  0  0
 15 16  2  0  0  0  0
 16 11  1  0  0  0  0
 19 20  1  0  0  0  0
 19 15  1  0  0  0  0
 19 24  1  0  0  0  0
 20 21  1  0  0  0  0
 21 22  1  0  0  0  0
 23 22  1  0  0  0  0
 24 23  1  0  0  0  0
 25 26  1  0  0  0  0
 25  1  1  0  0  0  0
 27 25  1  0  0  0  0
 28 25  1  0  0  0  0
 29 28  1  0  0  0  0
 29 38  1  0  0  0  0
 30 29  2  0  0  0  0
 31 32  2  0  0  0  0
 31 30  1  0  0  0  0
 32 37  1  0  0  0  0
 33 34  2  0  0  0  0
 33 32  1  0  0  0  0
 34 35  1  0  0  0  0
 35 43  1  0  0  0  0
 35 36  2  0  0  0  0
 36 44  1  0  0  0  0
 37 36  1  0  0  0  0
 37 28  2  0  0  0  0
 39 30  1  0  0  0  0
 40 31  1  0  0  0  0
 41 33  1  0  0  0  0
 42 34  1  0  0  0  0
 44 45  1  0  0  0  0
M  END
>  <minimizedAffinity>
-6.25772572

>  <minimizedRMSD>
1.18244159

$$$$
