
 OpenBabel03242507123D

 22 24  0  0  0  0  0  0  0  0999 V2000
   38.7090   28.1520   42.3590 N   0  0  0  0  0  0  0  0  0  0  0  0
   38.2600   27.0540   43.0150 C   0  0  0  0  0  0  0  0  0  0  0  0
   39.3700   26.7020   43.7900 C   0  0  0  0  0  0  0  0  0  0  0  0
   40.4220   27.5510   43.5980 N   0  0  0  0  0  0  0  0  0  0  0  0
   39.9720   28.4500   42.6910 C   0  0  0  0  0  0  0  0  0  0  0  0
   37.2900   26.5940   42.9390 H   0  0  0  0  0  0  0  0  0  0  0  0
   39.3390   25.8380   44.4520 H   0  0  0  0  0  0  0  0  0  0  0  0
   37.0040   29.8670   41.9020 C   0  0  0  0  0  0  0  0  0  0  0  0
   37.9290   28.8900   41.4600 C   0  0  0  0  0  0  0  0  0  0  0  0
   38.0450   28.6690   40.0580 C   0  0  0  0  0  0  0  0  0  0  0  0
   37.2660   29.4080   39.2200 N   0  0  0  0  0  0  0  0  0  0  0  0
   36.3800   30.3480   39.6860 C   0  0  0  0  0  0  0  0  0  0  0  0
   36.2450   30.5840   41.0300 N   0  0  0  0  0  0  0  0  0  0  0  0
   36.8260   30.0960   42.9370 H   0  0  0  0  0  0  0  0  0  0  0  0
   38.7400   27.9310   39.6890 H   0  0  0  0  0  0  0  0  0  0  0  0
   35.7700   30.9270   39.0170 H   0  0  0  0  0  0  0  0  0  0  0  0
   40.9680   29.4690   42.2850 C   0  0  0  0  0  0  0  0  0  0  0  0
   42.2670   29.3220   43.0940 C   0  0  0  0  0  0  0  0  0  0  0  0
   43.2540   30.3290   42.5860 C   0  0  0  0  0  0  0  0  0  0  0  0
   42.7410   31.7380   42.6250 C   0  0  0  0  0  0  0  0  0  0  0  0
   41.4140   31.8190   41.9110 C   0  0  0  0  0  0  0  0  0  0  0  0
   40.4670   30.8730   42.6540 C   0  0  0  0  0  0  0  0  0  0  0  0
  1  5  1  0  0  0  0
  1  2  1  0  0  0  0
  2  3  2  0  0  0  0
  3  7  1  0  0  0  0
  4  3  1  0  0  0  0
  5  4  2  0  0  0  0
  6  2  1  0  0  0  0
  8 14  1  0  0  0  0
  9  8  1  0  0  0  0
  9  1  1  0  0  0  0
 10  9  2  0  0  0  0
 11 12  2  0  0  0  0
 11 10  1  0  0  0  0
 12 13  1  0  0  0  0
 13  8  2  0  0  0  0
 15 10  1  0  0  0  0
 16 12  1  0  0  0  0
 17 22  1  0  0  0  0
 17  5  1  0  0  0  0
 17 18  1  0  0  0  0
 19 20  1  0  0  0  0
 19 18  1  0  0  0  0
 21 20  1  0  0  0  0
 21 22  1  0  0  0  0
M  END
>  <minimizedAffinity>
-3.93549895

>  <minimizedRMSD>
1.15916133

$$$$
