
 OpenBabel03242509283D

 45 49  0  0  0  0  0  0  0  0999 V2000
   36.1380   30.0790   41.1010 C   0  0  0  0  0  0  0  0  0  0  0  0
   36.7650   30.8630   40.6060 H   0  0  0  0  0  0  0  0  0  0  0  0
   35.5690   30.6210   41.8860 H   0  0  0  0  0  0  0  0  0  0  0  0
   38.5800   28.1090   42.6890 C   0  0  0  0  0  0  0  0  0  0  0  0
   37.4780   27.2950   42.8040 C   0  0  0  0  0  0  0  0  0  0  0  0
   36.4240   27.9800   42.1960 C   0  0  0  0  0  0  0  0  0  0  0  0
   36.9680   29.1370   41.7700 N   0  0  0  0  0  0  0  0  0  0  0  0
   38.2320   29.2550   42.0380 N   0  0  0  0  0  0  0  0  0  0  0  0
   37.4750   26.3230   43.2790 H   0  0  0  0  0  0  0  0  0  0  0  0
   35.4390   27.5750   42.1410 H   0  0  0  0  0  0  0  0  0  0  0  0
   41.4930   26.3850   44.2440 C   0  0  0  0  0  0  0  0  0  0  0  0
   40.1930   26.6020   43.7840 C   0  0  0  0  0  0  0  0  0  0  0  0
   39.9200   27.8500   43.1680 C   0  0  0  0  0  0  0  0  0  0  0  0
   40.9000   28.7680   43.0450 N   0  0  0  0  0  0  0  0  0  0  0  0
   42.1600   28.4840   43.5230 C   0  0  0  0  0  0  0  0  0  0  0  0
   42.4370   27.3210   44.1050 N   0  0  0  0  0  0  0  0  0  0  0  0
   41.7440   25.4440   44.7220 H   0  0  0  0  0  0  0  0  0  0  0  0
   39.4200   25.8480   43.8940 H   0  0  0  0  0  0  0  0  0  0  0  0
   43.1270   29.6020   43.3110 C   0  0  0  0  0  3  0  0  0  0  0  0
   43.0390   29.9920   41.8720 C   0  0  0  0  0  2  0  0  0  0  0  0
   44.3010   30.6040   41.3280 C   0  0  0  0  0  2  0  0  0  0  0  0
   45.3430   29.4850   41.4450 C   0  0  0  0  0  2  0  0  0  0  0  0
   45.6220   29.3460   42.9040 C   0  0  0  0  0  2  0  0  0  0  0  0
   44.4530   29.1690   43.7910 C   0  0  0  0  0  2  0  0  0  0  0  0
   35.2490   29.5230   40.0370 C   0  0  0  0  0  0  0  0  0  0  0  0
   34.7650   28.6250   40.3940 H   0  0  0  0  0  0  0  0  0  0  0  0
   34.5500   30.4170   39.9080 H   0  0  0  0  0  0  0  0  0  0  0  0
   35.8710   29.4310   38.6900 C   0  0  0  0  0  0  0  0  0  0  0  0
   37.1890   29.5660   38.3720 C   0  0  0  0  0  0  0  0  0  0  0  0
   37.7140   29.5470   37.1150 C   0  0  0  0  0  0  0  0  0  0  0  0
   36.8730   29.3800   36.0370 C   0  0  0  0  0  0  0  0  0  0  0  0
   35.5160   29.2360   36.2930 C   0  0  0  0  0  0  0  0  0  0  0  0
   34.7330   29.0760   35.1750 C   0  0  0  0  0  0  0  0  0  0  0  0
   33.3830   28.9220   35.3210 C   0  0  0  0  0  0  0  0  0  0  0  0
   32.8350   28.9290   36.5900 C   0  0  0  0  0  0  0  0  0  0  0  0
   33.6730   29.0930   37.6530 C   0  0  0  0  0  0  0  0  0  0  0  0
   35.0170   29.2570   37.5850 C   0  0  0  0  0  0  0  0  0  0  0  0
   37.8550   29.6990   39.2260 H   0  0  0  0  0  0  0  0  0  0  0  0
   38.7840   29.6660   37.0140 H   0  0  0  0  0  0  0  0  0  0  0  0
   37.2770   29.3650   35.0330 H   0  0  0  0  0  0  0  0  0  0  0  0
   35.1430   29.0650   34.1640 H   0  0  0  0  0  0  0  0  0  0  0  0
   32.7540   28.7980   34.4480 H   0  0  0  0  0  0  0  0  0  0  0  0
   31.7690   28.8060   36.6970 H   0  0  0  0  0  0  0  0  0  0  0  0
   33.0640   29.0720   38.8970 O   0  0  0  0  0  0  0  0  0  0  0  0
   32.2090   29.6010   39.0290 H   0  0  0  0  0  0  0  0  0  0  0  0
  1  7  1  0  0  0  0
  1  3  1  0  0  0  0
  2  1  1  0  0  0  0
  4  5  1  0  0  0  0
  4 13  1  0  0  0  0
  5  9  1  0  0  0  0
  6  5  2  0  0  0  0
  7  8  1  0  0  0  0
  7  6  1  0  0  0  0
  8  4  2  0  0  0  0
 10  6  1  0  0  0  0
 11 17  1  0  0  0  0
 12 18  1  0  0  0  0
 12 11  2  0  0  0  0
 13 12  1  0  0  0  0
 14 13  2  0  0  0  0
 14 15  1  0  0  0  0
 15 16  2  0  0  0  0
 16 11  1  0  0  0  0
 19 15  1  0  0  0  0
 19 24  1  0  0  0  0
 20 19  1  0  0  0  0
 21 22  1  0  0  0  0
 21 20  1  0  0  0  0
 22 23  1  0  0  0  0
 23 24  1  0  0  0  0
 25 26  1  0  0  0  0
 25  1  1  0  0  0  0
 27 25  1  0  0  0  0
 28 25  1  0  0  0  0
 29 28  1  0  0  0  0
 29 38  1  0  0  0  0
 30 29  2  0  0  0  0
 31 32  2  0  0  0  0
 31 30  1  0  0  0  0
 32 37  1  0  0  0  0
 33 34  2  0  0  0  0
 33 32  1  0  0  0  0
 34 35  1  0  0  0  0
 35 43  1  0  0  0  0
 35 36  2  0  0  0  0
 36 44  1  0  0  0  0
 37 36  1  0  0  0  0
 37 28  2  0  0  0  0
 39 30  1  0  0  0  0
 40 31  1  0  0  0  0
 41 33  1  0  0  0  0
 42 34  1  0  0  0  0
 44 45  1  0  0  0  0
M  END
>  <minimizedAffinity>
-5.8580246

>  <minimizedRMSD>
0.254591525

$$$$
