
 OpenBabel03242509283D

 45 49  0  0  0  0  0  0  0  0999 V2000
   36.0590   29.9910   41.1130 C   0  0  0  0  0  0  0  0  0  0  0  0
   36.6470   30.8160   40.6360 H   0  0  0  0  0  0  0  0  0  0  0  0
   35.4420   30.4910   41.8900 H   0  0  0  0  0  0  0  0  0  0  0  0
   38.5950   28.1410   42.6990 C   0  0  0  0  0  0  0  0  0  0  0  0
   37.5170   27.3080   42.8800 C   0  0  0  0  0  0  0  0  0  0  0  0
   36.4280   27.9440   42.2800 C   0  0  0  0  0  0  0  0  0  0  0  0
   36.9310   29.0960   41.7910 N   0  0  0  0  0  0  0  0  0  0  0  0
   38.1990   29.2530   42.0150 N   0  0  0  0  0  0  0  0  0  0  0  0
   37.5510   26.3550   43.3930 H   0  0  0  0  0  0  0  0  0  0  0  0
   35.4520   27.5150   42.2710 H   0  0  0  0  0  0  0  0  0  0  0  0
   41.5660   26.6120   44.3450 C   0  0  0  0  0  0  0  0  0  0  0  0
   40.2460   26.7820   43.9230 C   0  0  0  0  0  0  0  0  0  0  0  0
   39.9540   27.9330   43.1460 C   0  0  0  0  0  0  0  0  0  0  0  0
   40.9350   28.8080   42.8460 N   0  0  0  0  0  0  0  0  0  0  0  0
   42.2150   28.5750   43.2990 C   0  0  0  0  0  0  0  0  0  0  0  0
   42.5100   27.5030   44.0290 N   0  0  0  0  0  0  0  0  0  0  0  0
   41.8310   25.7460   44.9420 H   0  0  0  0  0  0  0  0  0  0  0  0
   39.4730   26.0630   44.1760 H   0  0  0  0  0  0  0  0  0  0  0  0
   43.1810   29.6350   42.8820 C   0  0  0  0  0  3  0  0  0  0  0  0
   42.7600   30.9000   43.5550 C   0  0  0  0  0  2  0  0  0  0  0  0
   43.1640   32.1480   42.8150 C   0  0  0  0  0  2  0  0  0  0  0  0
   42.4120   32.0550   41.4830 C   0  0  0  0  0  2  0  0  0  0  0  0
   43.0790   30.9620   40.7180 C   0  0  0  0  0  2  0  0  0  0  0  0
   43.2330   29.6640   41.4080 C   0  0  0  0  0  2  0  0  0  0  0  0
   35.2270   29.3910   40.0270 C   0  0  0  0  0  0  0  0  0  0  0  0
   34.7910   28.4630   40.3680 H   0  0  0  0  0  0  0  0  0  0  0  0
   34.4780   30.2420   39.8890 H   0  0  0  0  0  0  0  0  0  0  0  0
   35.8800   29.3480   38.6920 C   0  0  0  0  0  0  0  0  0  0  0  0
   37.2080   29.4670   38.4130 C   0  0  0  0  0  0  0  0  0  0  0  0
   37.7640   29.4950   37.1690 C   0  0  0  0  0  0  0  0  0  0  0  0
   36.9470   29.3980   36.0650 C   0  0  0  0  0  0  0  0  0  0  0  0
   35.5810   29.2730   36.2810 C   0  0  0  0  0  0  0  0  0  0  0  0
   34.8230   29.1830   35.1380 C   0  0  0  0  0  0  0  0  0  0  0  0
   33.4670   29.0540   35.2440 C   0  0  0  0  0  0  0  0  0  0  0  0
   32.8870   29.0140   36.4990 C   0  0  0  0  0  0  0  0  0  0  0  0
   33.7020   29.1080   37.5880 C   0  0  0  0  0  0  0  0  0  0  0  0
   35.0510   29.2450   37.5600 C   0  0  0  0  0  0  0  0  0  0  0  0
   37.8550   29.5450   39.2880 H   0  0  0  0  0  0  0  0  0  0  0  0
   38.8390   29.5940   37.0990 H   0  0  0  0  0  0  0  0  0  0  0  0
   37.3750   29.4200   35.0710 H   0  0  0  0  0  0  0  0  0  0  0  0
   35.2570   29.2100   34.1380 H   0  0  0  0  0  0  0  0  0  0  0  0
   32.8580   28.9850   34.3520 H   0  0  0  0  0  0  0  0  0  0  0  0
   31.8170   28.9100   36.5740 H   0  0  0  0  0  0  0  0  0  0  0  0
   33.0620   29.0430   38.8150 O   0  0  0  0  0  0  0  0  0  0  0  0
   32.2150   29.5860   38.9520 H   0  0  0  0  0  0  0  0  0  0  0  0
  1  7  1  0  0  0  0
  1  3  1  0  0  0  0
  2  1  1  0  0  0  0
  4  5  1  0  0  0  0
  4 13  1  0  0  0  0
  5  9  1  0  0  0  0
  6  5  2  0  0  0  0
  7  8  1  0  0  0  0
  7  6  1  0  0  0  0
  8  4  2  0  0  0  0
 10  6  1  0  0  0  0
 11 17  1  0  0  0  0
 12 18  1  0  0  0  0
 12 11  2  0  0  0  0
 13 12  1  0  0  0  0
 14 13  2  0  0  0  0
 14 15  1  0  0  0  0
 15 16  2  0  0  0  0
 16 11  1  0  0  0  0
 19 15  1  0  0  0  0
 19 20  1  0  0  0  0
 21 20  1  0  0  0  0
 22 21  1  0  0  0  0
 23 24  1  0  0  0  0
 23 22  1  0  0  0  0
 24 19  1  0  0  0  0
 25 26  1  0  0  0  0
 25  1  1  0  0  0  0
 27 25  1  0  0  0  0
 28 25  1  0  0  0  0
 29 28  1  0  0  0  0
 29 38  1  0  0  0  0
 30 29  2  0  0  0  0
 31 32  2  0  0  0  0
 31 30  1  0  0  0  0
 32 37  1  0  0  0  0
 33 34  2  0  0  0  0
 33 32  1  0  0  0  0
 34 35  1  0  0  0  0
 35 43  1  0  0  0  0
 35 36  2  0  0  0  0
 36 44  1  0  0  0  0
 37 36  1  0  0  0  0
 37 28  2  0  0  0  0
 39 30  1  0  0  0  0
 40 31  1  0  0  0  0
 41 33  1  0  0  0  0
 42 34  1  0  0  0  0
 44 45  1  0  0  0  0
M  END
>  <minimizedAffinity>
-6.22799683

>  <minimizedRMSD>
0.767454684

$$$$
