
 OpenBabel03242509283D

 45 49  0  0  0  0  0  0  0  0999 V2000
   36.0420   29.9810   41.1190 C   0  0  0  0  0  0  0  0  0  0  0  0
   36.6240   30.8140   40.6510 H   0  0  0  0  0  0  0  0  0  0  0  0
   35.4170   30.4690   41.8970 H   0  0  0  0  0  0  0  0  0  0  0  0
   38.5850   28.1390   42.7020 C   0  0  0  0  0  0  0  0  0  0  0  0
   37.5130   27.2960   42.8720 C   0  0  0  0  0  0  0  0  0  0  0  0
   36.4220   27.9290   42.2720 C   0  0  0  0  0  0  0  0  0  0  0  0
   36.9180   29.0870   41.7940 N   0  0  0  0  0  0  0  0  0  0  0  0
   38.1840   29.2520   42.0240 N   0  0  0  0  0  0  0  0  0  0  0  0
   37.5530   26.3410   43.3790 H   0  0  0  0  0  0  0  0  0  0  0  0
   35.4490   27.4930   42.2570 H   0  0  0  0  0  0  0  0  0  0  0  0
   41.5640   26.6150   44.3370 C   0  0  0  0  0  0  0  0  0  0  0  0
   40.2450   26.7770   43.9110 C   0  0  0  0  0  0  0  0  0  0  0  0
   39.9450   27.9380   43.1520 C   0  0  0  0  0  0  0  0  0  0  0  0
   40.9170   28.8280   42.8710 N   0  0  0  0  0  0  0  0  0  0  0  0
   42.1980   28.6010   43.3270 C   0  0  0  0  0  0  0  0  0  0  0  0
   42.5000   27.5210   44.0400 N   0  0  0  0  0  0  0  0  0  0  0  0
   41.8360   25.7420   44.9210 H   0  0  0  0  0  0  0  0  0  0  0  0
   39.4780   26.0470   44.1480 H   0  0  0  0  0  0  0  0  0  0  0  0
   43.1540   29.6790   42.9330 C   0  0  0  0  0  3  0  0  0  0  0  0
   42.5840   30.9710   43.4210 C   0  0  0  0  0  2  0  0  0  0  0  0
   43.0170   32.1690   42.6180 C   0  0  0  0  0  2  0  0  0  0  0  0
   42.4530   31.9090   41.2190 C   0  0  0  0  0  2  0  0  0  0  0  0
   43.2690   30.7960   40.6540 C   0  0  0  0  0  2  0  0  0  0  0  0
   43.3980   29.5780   41.4820 C   0  0  0  0  0  2  0  0  0  0  0  0
   35.2190   29.3820   40.0240 C   0  0  0  0  0  0  0  0  0  0  0  0
   34.7830   28.4520   40.3580 H   0  0  0  0  0  0  0  0  0  0  0  0
   34.4690   30.2320   39.8840 H   0  0  0  0  0  0  0  0  0  0  0  0
   35.8830   29.3470   38.6940 C   0  0  0  0  0  0  0  0  0  0  0  0
   37.2130   29.4700   38.4250 C   0  0  0  0  0  0  0  0  0  0  0  0
   37.7780   29.5040   37.1870 C   0  0  0  0  0  0  0  0  0  0  0  0
   36.9700   29.4080   36.0750 C   0  0  0  0  0  0  0  0  0  0  0  0
   35.6030   29.2790   36.2800 C   0  0  0  0  0  0  0  0  0  0  0  0
   34.8540   29.1920   35.1310 C   0  0  0  0  0  0  0  0  0  0  0  0
   33.4970   29.0600   35.2260 C   0  0  0  0  0  0  0  0  0  0  0  0
   32.9080   29.0140   36.4770 C   0  0  0  0  0  0  0  0  0  0  0  0
   33.7140   29.1060   37.5730 C   0  0  0  0  0  0  0  0  0  0  0  0
   35.0620   29.2460   37.5550 C   0  0  0  0  0  0  0  0  0  0  0  0
   37.8530   29.5460   39.3060 H   0  0  0  0  0  0  0  0  0  0  0  0
   38.8530   29.6060   37.1250 H   0  0  0  0  0  0  0  0  0  0  0  0
   37.4060   29.4360   35.0850 H   0  0  0  0  0  0  0  0  0  0  0  0
   35.2960   29.2240   34.1350 H   0  0  0  0  0  0  0  0  0  0  0  0
   32.8950   28.9930   34.3300 H   0  0  0  0  0  0  0  0  0  0  0  0
   31.8370   28.9070   36.5430 H   0  0  0  0  0  0  0  0  0  0  0  0
   33.0640   29.0350   38.7940 O   0  0  0  0  0  0  0  0  0  0  0  0
   32.2160   29.5740   38.9260 H   0  0  0  0  0  0  0  0  0  0  0  0
  1  7  1  0  0  0  0
  1  3  1  0  0  0  0
  2  1  1  0  0  0  0
  4  5  1  0  0  0  0
  4 13  1  0  0  0  0
  5  9  1  0  0  0  0
  6  5  2  0  0  0  0
  7  8  1  0  0  0  0
  7  6  1  0  0  0  0
  8  4  2  0  0  0  0
 10  6  1  0  0  0  0
 11 17  1  0  0  0  0
 12 18  1  0  0  0  0
 12 11  2  0  0  0  0
 13 12  1  0  0  0  0
 14 13  2  0  0  0  0
 14 15  1  0  0  0  0
 15 16  2  0  0  0  0
 16 11  1  0  0  0  0
 19 15  1  0  0  0  0
 19 20  1  0  0  0  0
 21 20  1  0  0  0  0
 22 21  1  0  0  0  0
 23 22  1  0  0  0  0
 23 24  1  0  0  0  0
 24 19  1  0  0  0  0
 25 26  1  0  0  0  0
 25  1  1  0  0  0  0
 27 25  1  0  0  0  0
 28 25  1  0  0  0  0
 29 28  1  0  0  0  0
 29 38  1  0  0  0  0
 30 29  2  0  0  0  0
 31 32  2  0  0  0  0
 31 30  1  0  0  0  0
 32 37  1  0  0  0  0
 33 34  2  0  0  0  0
 33 32  1  0  0  0  0
 34 35  1  0  0  0  0
 35 43  1  0  0  0  0
 35 36  2  0  0  0  0
 36 44  1  0  0  0  0
 37 36  1  0  0  0  0
 37 28  2  0  0  0  0
 39 30  1  0  0  0  0
 40 31  1  0  0  0  0
 41 33  1  0  0  0  0
 42 34  1  0  0  0  0
 44 45  1  0  0  0  0
M  END
>  <minimizedAffinity>
-6.21985674

>  <minimizedRMSD>
0.166347057

$$$$
