
 OpenBabel03242501013D

 27 29  0  0  1  0  0  0  0  0999 V2000
   36.9770   30.7110   41.0580 C   0  0  0  0  0  0  0  0  0  0  0  0
   37.8250   29.8170   41.7340 C   0  0  0  0  0  0  0  0  0  0  0  0
   37.3810   28.5030   41.8500 C   0  0  0  0  0  0  0  0  0  0  0  0
   36.1710   28.1780   41.3070 N   0  0  0  0  0  0  0  0  0  0  0  0
   35.3910   29.0760   40.6670 C   0  0  0  0  0  0  0  0  0  0  0  0
   35.8070   30.3590   40.5440 N   0  0  0  0  0  0  0  0  0  0  0  0
   38.0750   27.4290   42.5000 N   0  0  0  0  0  0  0  0  0  0  0  0
   38.5150   27.4440   43.8870 C   0  0  0  0  0  0  0  0  0  0  0  0
   39.6630   26.4910   43.9050 C   0  0  0  0  0  0  0  0  0  0  0  0
   39.2490   25.4550   42.9040 C   0  0  0  0  0  0  0  0  0  0  0  0
   38.4030   26.2050   41.8950 C   0  0  2  0  0  0  0  0  0  0  0  0
   37.3500   31.7250   40.9840 H   0  0  0  0  0  0  0  0  0  0  0  0
   38.7750   30.0240   42.1720 H   0  0  0  0  0  0  0  0  0  0  0  0
   34.4540   28.6880   40.2820 H   0  0  0  0  0  0  0  0  0  0  0  0
   37.7070   27.0220   44.5410 H   0  0  0  0  0  0  0  0  0  0  0  0
   38.7990   28.4610   44.2160 H   0  0  0  0  0  0  0  0  0  0  0  0
   39.7560   26.0160   44.9070 H   0  0  0  0  0  0  0  0  0  0  0  0
   40.6190   26.9490   43.5900 H   0  0  0  0  0  0  0  0  0  0  0  0
   40.1650   25.0120   42.4110 H   0  0  0  0  0  0  0  0  0  0  0  0
   38.7250   24.6370   43.4000 H   0  0  0  0  0  0  0  0  0  0  0  0
   37.4350   25.6150   41.8520 H   0  0  0  0  0  0  0  0  0  0  0  0
   39.0830   26.1480   40.5990 C   0  0  0  0  0  0  0  0  0  0  0  0
   38.2290   25.9330   39.3730 C   0  0  0  0  0  0  0  0  0  0  0  0
   39.1680   26.0820   38.1640 C   0  0  0  0  0  0  0  0  0  0  0  0
   40.2750   25.0930   38.1400 C   0  0  0  0  0  0  0  0  0  0  0  0
   40.9580   24.9270   39.4810 C   0  0  0  0  0  0  0  0  0  0  0  0
   39.9900   24.8910   40.6120 C   0  0  0  0  0  0  0  0  0  0  0  0
  1  2  1  0  0  0  0
  2  3  2  0  0  0  0
  2 13  1  0  0  0  0
  3  7  1  0  0  0  0
  4  3  1  0  0  0  0
  5  4  2  0  0  0  0
  6  5  1  0  0  0  0
  6  1  2  0  0  0  0
  7  8  1  0  0  0  0
  8  9  1  0  0  0  0
  8 16  1  0  0  0  0
  8 15  1  0  0  0  0
  9 17  1  0  0  0  0
 10 20  1  0  0  0  0
 10  9  1  0  0  0  0
 11 21  1  6  0  0  0
 11  7  1  0  0  0  0
 11 10  1  0  0  0  0
 12  1  1  0  0  0  0
 14  5  1  0  0  0  0
 18  9  1  0  0  0  0
 19 10  1  0  0  0  0
 22 27  1  0  0  0  0
 22 11  1  0  0  0  0
 23 22  1  0  0  0  0
 24 23  1  0  0  0  0
 25 24  1  0  0  0  0
 25 26  1  0  0  0  0
 26 27  1  0  0  0  0
M  END
>  <minimizedAffinity>
-4.24172163

>  <minimizedRMSD>
0.425864071

$$$$
