
 OpenBabel03242509283D

 45 49  0  0  0  0  0  0  0  0999 V2000
   36.0410   29.9800   41.1180 C   0  0  0  0  0  0  0  0  0  0  0  0
   36.6240   30.8130   40.6500 H   0  0  0  0  0  0  0  0  0  0  0  0
   35.4160   30.4690   41.8960 H   0  0  0  0  0  0  0  0  0  0  0  0
   38.5850   28.1390   42.7010 C   0  0  0  0  0  0  0  0  0  0  0  0
   37.5120   27.2970   42.8730 C   0  0  0  0  0  0  0  0  0  0  0  0
   36.4210   27.9290   42.2730 C   0  0  0  0  0  0  0  0  0  0  0  0
   36.9170   29.0870   41.7930 N   0  0  0  0  0  0  0  0  0  0  0  0
   38.1830   29.2520   42.0230 N   0  0  0  0  0  0  0  0  0  0  0  0
   37.5520   26.3410   43.3800 H   0  0  0  0  0  0  0  0  0  0  0  0
   35.4480   27.4930   42.2580 H   0  0  0  0  0  0  0  0  0  0  0  0
   41.5640   26.6150   44.3370 C   0  0  0  0  0  0  0  0  0  0  0  0
   40.2450   26.7780   43.9100 C   0  0  0  0  0  0  0  0  0  0  0  0
   39.9440   27.9380   43.1520 C   0  0  0  0  0  0  0  0  0  0  0  0
   40.9170   28.8290   42.8710 N   0  0  0  0  0  0  0  0  0  0  0  0
   42.1970   28.6020   43.3270 C   0  0  0  0  0  0  0  0  0  0  0  0
   42.5000   27.5210   44.0400 N   0  0  0  0  0  0  0  0  0  0  0  0
   41.8360   25.7420   44.9200 H   0  0  0  0  0  0  0  0  0  0  0  0
   39.4780   26.0470   44.1480 H   0  0  0  0  0  0  0  0  0  0  0  0
   43.1530   29.6800   42.9330 C   0  0  0  0  0  3  0  0  0  0  0  0
   42.5820   30.9720   43.4190 C   0  0  0  0  0  2  0  0  0  0  0  0
   43.0150   32.1700   42.6170 C   0  0  0  0  0  2  0  0  0  0  0  0
   42.4510   31.9080   41.2160 C   0  0  0  0  0  2  0  0  0  0  0  0
   43.2690   30.7950   40.6530 C   0  0  0  0  0  2  0  0  0  0  0  0
   43.3980   29.5780   41.4820 C   0  0  0  0  0  2  0  0  0  0  0  0
   35.2190   29.3810   40.0230 C   0  0  0  0  0  0  0  0  0  0  0  0
   34.7840   28.4510   40.3570 H   0  0  0  0  0  0  0  0  0  0  0  0
   34.4680   30.2310   39.8830 H   0  0  0  0  0  0  0  0  0  0  0  0
   35.8830   29.3460   38.6930 C   0  0  0  0  0  0  0  0  0  0  0  0
   37.2130   29.4690   38.4240 C   0  0  0  0  0  0  0  0  0  0  0  0
   37.7770   29.5030   37.1860 C   0  0  0  0  0  0  0  0  0  0  0  0
   36.9700   29.4080   36.0750 C   0  0  0  0  0  0  0  0  0  0  0  0
   35.6020   29.2790   36.2800 C   0  0  0  0  0  0  0  0  0  0  0  0
   34.8540   29.1930   35.1300 C   0  0  0  0  0  0  0  0  0  0  0  0
   33.4960   29.0600   35.2250 C   0  0  0  0  0  0  0  0  0  0  0  0
   32.9080   29.0140   36.4760 C   0  0  0  0  0  0  0  0  0  0  0  0
   33.7140   29.1060   37.5720 C   0  0  0  0  0  0  0  0  0  0  0  0
   35.0620   29.2450   37.5540 C   0  0  0  0  0  0  0  0  0  0  0  0
   37.8530   29.5440   39.3050 H   0  0  0  0  0  0  0  0  0  0  0  0
   38.8530   29.6050   37.1240 H   0  0  0  0  0  0  0  0  0  0  0  0
   37.4050   29.4360   35.0840 H   0  0  0  0  0  0  0  0  0  0  0  0
   35.2950   29.2250   34.1340 H   0  0  0  0  0  0  0  0  0  0  0  0
   32.8950   28.9940   34.3290 H   0  0  0  0  0  0  0  0  0  0  0  0
   31.8370   28.9070   36.5420 H   0  0  0  0  0  0  0  0  0  0  0  0
   33.0640   29.0340   38.7930 O   0  0  0  0  0  0  0  0  0  0  0  0
   32.2150   29.5740   38.9250 H   0  0  0  0  0  0  0  0  0  0  0  0
  1  7  1  0  0  0  0
  1  3  1  0  0  0  0
  2  1  1  0  0  0  0
  4  5  1  0  0  0  0
  4 13  1  0  0  0  0
  5  9  1  0  0  0  0
  6  5  2  0  0  0  0
  7  8  1  0  0  0  0
  7  6  1  0  0  0  0
  8  4  2  0  0  0  0
 10  6  1  0  0  0  0
 11 17  1  0  0  0  0
 12 18  1  0  0  0  0
 12 11  2  0  0  0  0
 13 12  1  0  0  0  0
 14 13  2  0  0  0  0
 14 15  1  0  0  0  0
 15 16  2  0  0  0  0
 16 11  1  0  0  0  0
 19 15  1  0  0  0  0
 19 20  1  0  0  0  0
 21 20  1  0  0  0  0
 22 21  1  0  0  0  0
 23 22  1  0  0  0  0
 23 24  1  0  0  0  0
 24 19  1  0  0  0  0
 25 26  1  0  0  0  0
 25  1  1  0  0  0  0
 27 25  1  0  0  0  0
 28 25  1  0  0  0  0
 29 28  1  0  0  0  0
 29 38  1  0  0  0  0
 30 29  2  0  0  0  0
 31 32  2  0  0  0  0
 31 30  1  0  0  0  0
 32 37  1  0  0  0  0
 33 34  2  0  0  0  0
 33 32  1  0  0  0  0
 34 35  1  0  0  0  0
 35 43  1  0  0  0  0
 35 36  2  0  0  0  0
 36 44  1  0  0  0  0
 37 36  1  0  0  0  0
 37 28  2  0  0  0  0
 39 30  1  0  0  0  0
 40 31  1  0  0  0  0
 41 33  1  0  0  0  0
 42 34  1  0  0  0  0
 44 45  1  0  0  0  0
M  END
>  <minimizedAffinity>
-6.22010279

>  <minimizedRMSD>
0.504392266

$$$$
