
 OpenBabel03242509283D

 45 49  0  0  0  0  0  0  0  0999 V2000
   36.1620   30.1010   41.1210 C   0  0  0  0  0  0  0  0  0  0  0  0
   36.7910   30.8810   40.6240 H   0  0  0  0  0  0  0  0  0  0  0  0
   35.5960   30.6470   41.9070 H   0  0  0  0  0  0  0  0  0  0  0  0
   38.6000   28.1190   42.7010 C   0  0  0  0  0  0  0  0  0  0  0  0
   37.4900   27.3190   42.8360 C   0  0  0  0  0  0  0  0  0  0  0  0
   36.4360   28.0100   42.2340 C   0  0  0  0  0  0  0  0  0  0  0  0
   36.9890   29.1570   41.7890 N   0  0  0  0  0  0  0  0  0  0  0  0
   38.2560   29.2630   42.0420 N   0  0  0  0  0  0  0  0  0  0  0  0
   37.4820   26.3510   43.3210 H   0  0  0  0  0  0  0  0  0  0  0  0
   35.4470   27.6160   42.1940 H   0  0  0  0  0  0  0  0  0  0  0  0
   41.4740   26.4640   44.3950 C   0  0  0  0  0  0  0  0  0  0  0  0
   40.1690   26.6920   43.9540 C   0  0  0  0  0  0  0  0  0  0  0  0
   39.9420   27.8500   43.1670 C   0  0  0  0  0  0  0  0  0  0  0  0
   40.9660   28.6770   42.8750 N   0  0  0  0  0  0  0  0  0  0  0  0
   42.2280   28.3870   43.3470 C   0  0  0  0  0  0  0  0  0  0  0  0
   42.4630   27.3070   44.0860 N   0  0  0  0  0  0  0  0  0  0  0  0
   41.6910   25.5900   45.0010 H   0  0  0  0  0  0  0  0  0  0  0  0
   39.3600   26.0120   44.2010 H   0  0  0  0  0  0  0  0  0  0  0  0
   43.2470   29.3990   42.9370 C   0  0  0  0  0  3  0  0  0  0  0  0
   43.2300   30.4810   43.9670 C   0  0  0  0  0  2  0  0  0  0  0  0
   43.6720   31.8230   43.4470 C   0  0  0  0  0  2  0  0  0  0  0  0
   42.6300   32.1760   42.3800 C   0  0  0  0  0  2  0  0  0  0  0  0
   42.8940   31.2530   41.2380 C   0  0  0  0  0  2  0  0  0  0  0  0
   42.9650   29.8110   41.5490 C   0  0  0  0  0  2  0  0  0  0  0  0
   35.2680   29.5470   40.0590 C   0  0  0  0  0  0  0  0  0  0  0  0
   34.7810   28.6520   40.4190 H   0  0  0  0  0  0  0  0  0  0  0  0
   34.5720   30.4440   39.9310 H   0  0  0  0  0  0  0  0  0  0  0  0
   35.8870   29.4520   38.7110 C   0  0  0  0  0  0  0  0  0  0  0  0
   37.2030   29.5930   38.3890 C   0  0  0  0  0  0  0  0  0  0  0  0
   37.7240   29.5700   37.1300 C   0  0  0  0  0  0  0  0  0  0  0  0
   36.8820   29.3900   36.0560 C   0  0  0  0  0  0  0  0  0  0  0  0
   35.5260   29.2380   36.3170 C   0  0  0  0  0  0  0  0  0  0  0  0
   34.7410   29.0660   35.2020 C   0  0  0  0  0  0  0  0  0  0  0  0
   33.3920   28.9040   35.3520 C   0  0  0  0  0  0  0  0  0  0  0  0
   32.8480   28.9160   36.6240 C   0  0  0  0  0  0  0  0  0  0  0  0
   33.6880   29.0910   37.6830 C   0  0  0  0  0  0  0  0  0  0  0  0
   35.0310   29.2640   37.6100 C   0  0  0  0  0  0  0  0  0  0  0  0
   37.8700   29.7360   39.2400 H   0  0  0  0  0  0  0  0  0  0  0  0
   38.7930   29.6950   37.0250 H   0  0  0  0  0  0  0  0  0  0  0  0
   37.2820   29.3710   35.0510 H   0  0  0  0  0  0  0  0  0  0  0  0
   35.1480   29.0510   34.1900 H   0  0  0  0  0  0  0  0  0  0  0  0
   32.7620   28.7700   34.4830 H   0  0  0  0  0  0  0  0  0  0  0  0
   31.7840   28.7850   36.7340 H   0  0  0  0  0  0  0  0  0  0  0  0
   33.0830   29.0740   38.9290 O   0  0  0  0  0  0  0  0  0  0  0  0
   32.2240   29.5990   39.0600 H   0  0  0  0  0  0  0  0  0  0  0  0
  1  7  1  0  0  0  0
  1  3  1  0  0  0  0
  2  1  1  0  0  0  0
  4  5  1  0  0  0  0
  4 13  1  0  0  0  0
  5  9  1  0  0  0  0
  6  5  2  0  0  0  0
  7  8  1  0  0  0  0
  7  6  1  0  0  0  0
  8  4  2  0  0  0  0
 10  6  1  0  0  0  0
 11 17  1  0  0  0  0
 12 18  1  0  0  0  0
 12 11  2  0  0  0  0
 13 12  1  0  0  0  0
 14 13  2  0  0  0  0
 14 15  1  0  0  0  0
 15 16  2  0  0  0  0
 16 11  1  0  0  0  0
 19 15  1  0  0  0  0
 19 20  1  0  0  0  0
 21 20  1  0  0  0  0
 22 21  1  0  0  0  0
 23 24  1  0  0  0  0
 23 22  1  0  0  0  0
 24 19  1  0  0  0  0
 25 26  1  0  0  0  0
 25  1  1  0  0  0  0
 27 25  1  0  0  0  0
 28 25  1  0  0  0  0
 29 28  1  0  0  0  0
 29 38  1  0  0  0  0
 30 29  2  0  0  0  0
 31 32  2  0  0  0  0
 31 30  1  0  0  0  0
 32 37  1  0  0  0  0
 33 34  2  0  0  0  0
 33 32  1  0  0  0  0
 34 35  1  0  0  0  0
 35 43  1  0  0  0  0
 35 36  2  0  0  0  0
 36 44  1  0  0  0  0
 37 36  1  0  0  0  0
 37 28  2  0  0  0  0
 39 30  1  0  0  0  0
 40 31  1  0  0  0  0
 41 33  1  0  0  0  0
 42 34  1  0  0  0  0
 44 45  1  0  0  0  0
M  END
>  <minimizedAffinity>
-6.27023697

>  <minimizedRMSD>
0.346266985

$$$$
