
 OpenBabel03242509283D

 45 49  0  0  0  0  0  0  0  0999 V2000
   36.1690   30.1580   41.0710 C   0  0  0  0  0  0  0  0  0  0  0  0
   36.8620   30.8860   40.5790 H   0  0  0  0  0  0  0  0  0  0  0  0
   35.6370   30.7470   41.8480 H   0  0  0  0  0  0  0  0  0  0  0  0
   38.4290   27.9950   42.6770 C   0  0  0  0  0  0  0  0  0  0  0  0
   37.2560   27.2920   42.8180 C   0  0  0  0  0  0  0  0  0  0  0  0
   36.2650   28.0630   42.2060 C   0  0  0  0  0  0  0  0  0  0  0  0
   36.9120   29.1540   41.7510 N   0  0  0  0  0  0  0  0  0  0  0  0
   38.1840   29.1560   42.0050 N   0  0  0  0  0  0  0  0  0  0  0  0
   37.1650   26.3340   43.3130 H   0  0  0  0  0  0  0  0  0  0  0  0
   35.2460   27.7530   42.1670 H   0  0  0  0  0  0  0  0  0  0  0  0
   41.1720   26.0540   44.2840 C   0  0  0  0  0  0  0  0  0  0  0  0
   39.8930   26.3850   43.8330 C   0  0  0  0  0  0  0  0  0  0  0  0
   39.7430   27.6190   43.1490 C   0  0  0  0  0  0  0  0  0  0  0  0
   40.8130   28.4170   42.9580 N   0  0  0  0  0  0  0  0  0  0  0  0
   42.0460   28.0240   43.4320 C   0  0  0  0  0  0  0  0  0  0  0  0
   42.2080   26.8720   44.0760 N   0  0  0  0  0  0  0  0  0  0  0  0
   41.3310   25.1200   44.8120 H   0  0  0  0  0  0  0  0  0  0  0  0
   39.0460   25.7270   43.9980 H   0  0  0  0  0  0  0  0  0  0  0  0
   43.1240   29.0160   43.1400 C   0  0  0  0  0  3  0  0  0  0  0  0
   44.1340   28.9010   44.2340 C   0  0  0  0  0  2  0  0  0  0  0  0
   44.9120   30.1660   44.4800 C   0  0  0  0  0  2  0  0  0  0  0  0
   43.8520   31.1790   44.9280 C   0  0  0  0  0  2  0  0  0  0  0  0
   43.0510   31.4910   43.7080 C   0  0  0  0  0  2  0  0  0  0  0  0
   42.5010   30.3410   42.9610 C   0  0  0  0  0  2  0  0  0  0  0  0
   35.2480   29.6710   39.9990 C   0  0  0  0  0  0  0  0  0  0  0  0
   34.6980   28.8110   40.3500 H   0  0  0  0  0  0  0  0  0  0  0  0
   34.6170   30.6150   39.8680 H   0  0  0  0  0  0  0  0  0  0  0  0
   35.8700   29.5390   38.6550 C   0  0  0  0  0  0  0  0  0  0  0  0
   37.1820   29.7060   38.3260 C   0  0  0  0  0  0  0  0  0  0  0  0
   37.7050   29.6470   37.0700 C   0  0  0  0  0  0  0  0  0  0  0  0
   36.8690   29.3980   36.0040 C   0  0  0  0  0  0  0  0  0  0  0  0
   35.5180   29.2180   36.2720 C   0  0  0  0  0  0  0  0  0  0  0  0
   34.7400   28.9770   35.1650 C   0  0  0  0  0  0  0  0  0  0  0  0
   33.3960   28.7820   35.3230 C   0  0  0  0  0  0  0  0  0  0  0  0
   32.8510   28.8290   36.5920 C   0  0  0  0  0  0  0  0  0  0  0  0
   33.6840   29.0730   37.6430 C   0  0  0  0  0  0  0  0  0  0  0  0
   35.0210   29.2820   37.5630 C   0  0  0  0  0  0  0  0  0  0  0  0
   37.8440   29.9030   39.1710 H   0  0  0  0  0  0  0  0  0  0  0  0
   38.7700   29.7990   36.9590 H   0  0  0  0  0  0  0  0  0  0  0  0
   37.2710   29.3500   35.0010 H   0  0  0  0  0  0  0  0  0  0  0  0
   35.1470   28.9330   34.1540 H   0  0  0  0  0  0  0  0  0  0  0  0
   32.7710   28.5940   34.4600 H   0  0  0  0  0  0  0  0  0  0  0  0
   31.7900   28.6720   36.7080 H   0  0  0  0  0  0  0  0  0  0  0  0
   33.0790   29.0890   38.8890 O   0  0  0  0  0  0  0  0  0  0  0  0
   32.2050   29.5930   39.0000 H   0  0  0  0  0  0  0  0  0  0  0  0
  1  7  1  0  0  0  0
  1  3  1  0  0  0  0
  2  1  1  0  0  0  0
  4  5  1  0  0  0  0
  4 13  1  0  0  0  0
  5  9  1  0  0  0  0
  6  5  2  0  0  0  0
  7  8  1  0  0  0  0
  7  6  1  0  0  0  0
  8  4  2  0  0  0  0
 10  6  1  0  0  0  0
 11 17  1  0  0  0  0
 12 18  1  0  0  0  0
 12 11  2  0  0  0  0
 13 12  1  0  0  0  0
 14 13  2  0  0  0  0
 14 15  1  0  0  0  0
 15 16  2  0  0  0  0
 16 11  1  0  0  0  0
 19 15  1  0  0  0  0
 19 20  1  0  0  0  0
 20 21  1  0  0  0  0
 21 22  1  0  0  0  0
 23 22  1  0  0  0  0
 24 19  1  0  0  0  0
 24 23  1  0  0  0  0
 25 26  1  0  0  0  0
 25  1  1  0  0  0  0
 27 25  1  0  0  0  0
 28 25  1  0  0  0  0
 29 28  1  0  0  0  0
 29 38  1  0  0  0  0
 30 29  2  0  0  0  0
 31 32  2  0  0  0  0
 31 30  1  0  0  0  0
 32 37  1  0  0  0  0
 33 34  2  0  0  0  0
 33 32  1  0  0  0  0
 34 35  1  0  0  0  0
 35 43  1  0  0  0  0
 35 36  2  0  0  0  0
 36 44  1  0  0  0  0
 37 36  1  0  0  0  0
 37 28  2  0  0  0  0
 39 30  1  0  0  0  0
 40 31  1  0  0  0  0
 41 33  1  0  0  0  0
 42 34  1  0  0  0  0
 44 45  1  0  0  0  0
M  END
>  <minimizedAffinity>
-6.29058456

>  <minimizedRMSD>
0.59337455

$$$$
