
 OpenBabel03242509283D

 44 48  0  0  0  0  0  0  0  0999 V2000
   36.1300   30.0620   41.1110 C   0  0  0  0  0  0  0  0  0  0  0  0
   36.7460   30.8440   40.6040 H   0  0  0  0  0  0  0  0  0  0  0  0
   35.5560   30.5960   41.8960 H   0  0  0  0  0  0  0  0  0  0  0  0
   38.6230   28.1540   42.7040 C   0  0  0  0  0  0  0  0  0  0  0  0
   37.5460   27.3270   42.8290 C   0  0  0  0  0  0  0  0  0  0  0  0
   36.4680   27.9780   42.2250 C   0  0  0  0  0  0  0  0  0  0  0  0
   36.9770   29.1340   41.7870 N   0  0  0  0  0  0  0  0  0  0  0  0
   38.2360   29.2780   42.0470 N   0  0  0  0  0  0  0  0  0  0  0  0
   37.6170   26.3640   43.3240 H   0  0  0  0  0  0  0  0  0  0  0  0
   35.4910   27.5380   42.1850 H   0  0  0  0  0  0  0  0  0  0  0  0
   41.5650   26.5680   44.3390 C   0  0  0  0  0  0  0  0  0  0  0  0
   40.2510   26.7510   43.8980 C   0  0  0  0  0  0  0  0  0  0  0  0
   39.9760   27.9330   43.1710 C   0  0  0  0  0  0  0  0  0  0  0  0
   40.9620   28.8160   42.9350 N   0  0  0  0  0  0  0  0  0  0  0  0
   42.2240   28.5790   43.3930 C   0  0  0  0  0  0  0  0  0  0  0  0
   42.5200   27.4650   44.0880 N   0  0  0  0  0  0  0  0  0  0  0  0
   41.8480   25.6710   44.9100 H   0  0  0  0  0  0  0  0  0  0  0  0
   39.4870   26.0060   44.1140 H   0  0  0  0  0  0  0  0  0  0  0  0
   43.2310   29.6170   43.0770 C   0  0  0  0  0  3  0  0  0  0  0  0
   43.2160   29.9360   41.5930 C   0  0  0  0  0  2  0  0  0  0  0  0
   43.7720   31.3540   41.5830 C   0  0  0  0  0  2  0  0  0  0  0  0
   42.9510   31.9860   42.6870 C   0  0  0  0  0  2  0  0  0  0  0  0
   43.0010   30.9240   43.7690 C   0  0  0  0  0  2  0  0  0  0  0  0
   35.2520   29.4720   40.0530 C   0  0  0  0  0  0  0  0  0  0  0  0
   34.5280   30.3440   39.9230 H   0  0  0  0  0  0  0  0  0  0  0  0
   34.8000   28.5600   40.4090 H   0  0  0  0  0  0  0  0  0  0  0  0
   35.8760   29.3870   38.7060 C   0  0  0  0  0  0  0  0  0  0  0  0
   37.1970   29.5090   38.3940 C   0  0  0  0  0  0  0  0  0  0  0  0
   37.7250   29.5050   37.1380 C   0  0  0  0  0  0  0  0  0  0  0  0
   36.8830   29.3670   36.0540 C   0  0  0  0  0  0  0  0  0  0  0  0
   35.5330   29.2370   36.3050 C   0  0  0  0  0  0  0  0  0  0  0  0
   34.7440   29.1070   35.1880 C   0  0  0  0  0  0  0  0  0  0  0  0
   33.3900   28.9700   35.3220 C   0  0  0  0  0  0  0  0  0  0  0  0
   32.8370   28.9620   36.5940 C   0  0  0  0  0  0  0  0  0  0  0  0
   33.6770   29.0950   37.6640 C   0  0  0  0  0  0  0  0  0  0  0  0
   35.0220   29.2420   37.6030 C   0  0  0  0  0  0  0  0  0  0  0  0
   37.8610   29.6200   39.2600 H   0  0  0  0  0  0  0  0  0  0  0  0
   38.7970   29.6110   37.0500 H   0  0  0  0  0  0  0  0  0  0  0  0
   37.3060   29.3660   35.0600 H   0  0  0  0  0  0  0  0  0  0  0  0
   35.1460   29.1080   34.1840 H   0  0  0  0  0  0  0  0  0  0  0  0
   32.7290   28.8680   34.4670 H   0  0  0  0  0  0  0  0  0  0  0  0
   31.7730   28.8520   36.6930 H   0  0  0  0  0  0  0  0  0  0  0  0
   33.0630   29.0620   38.9030 O   0  0  0  0  0  0  0  0  0  0  0  0
   32.6180   28.1940   39.2000 H   0  0  0  0  0  0  0  0  0  0  0  0
  1  7  1  0  0  0  0
  1  3  1  0  0  0  0
  2  1  1  0  0  0  0
  4  5  1  0  0  0  0
  4 13  1  0  0  0  0
  5  9  1  0  0  0  0
  6  5  2  0  0  0  0
  7  8  1  0  0  0  0
  7  6  1  0  0  0  0
  8  4  2  0  0  0  0
 10  6  1  0  0  0  0
 11 17  1  0  0  0  0
 12 18  1  0  0  0  0
 12 11  2  0  0  0  0
 13 12  1  0  0  0  0
 14 13  2  0  0  0  0
 14 15  1  0  0  0  0
 15 16  2  0  0  0  0
 16 11  1  0  0  0  0
 19 15  1  0  0  0  0
 19 23  1  0  0  0  0
 20 19  1  0  0  0  0
 21 20  1  0  0  0  0
 21 22  1  0  0  0  0
 22 23  1  0  0  0  0
 24 26  1  0  0  0  0
 24  1  1  0  0  0  0
 25 24  1  0  0  0  0
 27 24  1  0  0  0  0
 28 27  1  0  0  0  0
 28 37  1  0  0  0  0
 29 28  2  0  0  0  0
 30 31  2  0  0  0  0
 30 29  1  0  0  0  0
 31 36  1  0  0  0  0
 32 33  2  0  0  0  0
 32 31  1  0  0  0  0
 33 34  1  0  0  0  0
 34 42  1  0  0  0  0
 34 35  2  0  0  0  0
 35 43  1  0  0  0  0
 36 35  1  0  0  0  0
 36 27  2  0  0  0  0
 38 29  1  0  0  0  0
 39 30  1  0  0  0  0
 40 32  1  0  0  0  0
 41 33  1  0  0  0  0
 43 44  1  0  0  0  0
M  END
>  <minimizedAffinity>
-6.15291166

>  <minimizedRMSD>
0.238965422

$$$$
