
 OpenBabel03242509283D

 44 48  0  0  0  0  0  0  0  0999 V2000
   36.1070   30.0700   41.0310 C   0  0  0  0  0  0  0  0  0  0  0  0
   36.7860   30.8030   40.5340 H   0  0  0  0  0  0  0  0  0  0  0  0
   35.5690   30.6430   41.8140 H   0  0  0  0  0  0  0  0  0  0  0  0
   38.4300   27.9630   42.6310 C   0  0  0  0  0  0  0  0  0  0  0  0
   37.2890   27.2250   42.7490 C   0  0  0  0  0  0  0  0  0  0  0  0
   36.2700   27.9620   42.1410 C   0  0  0  0  0  0  0  0  0  0  0  0
   36.8730   29.0750   41.7090 N   0  0  0  0  0  0  0  0  0  0  0  0
   38.1380   29.1160   41.9760 N   0  0  0  0  0  0  0  0  0  0  0  0
   37.2800   26.2580   43.2410 H   0  0  0  0  0  0  0  0  0  0  0  0
   35.2610   27.6020   42.0940 H   0  0  0  0  0  0  0  0  0  0  0  0
   41.2660   26.0610   44.1090 C   0  0  0  0  0  0  0  0  0  0  0  0
   39.9740   26.3480   43.6560 C   0  0  0  0  0  0  0  0  0  0  0  0
   39.7580   27.6330   43.1050 C   0  0  0  0  0  0  0  0  0  0  0  0
   40.7750   28.5090   43.0370 N   0  0  0  0  0  0  0  0  0  0  0  0
   42.0120   28.1680   43.4960 C   0  0  0  0  0  0  0  0  0  0  0  0
   42.2530   26.9550   44.0260 N   0  0  0  0  0  0  0  0  0  0  0  0
   41.5030   25.0810   44.5490 H   0  0  0  0  0  0  0  0  0  0  0  0
   39.1840   25.6040   43.7330 H   0  0  0  0  0  0  0  0  0  0  0  0
   43.0570   29.2090   43.3710 C   0  0  0  0  0  3  0  0  0  0  0  0
   42.4250   30.5700   43.1410 C   0  0  0  0  0  2  0  0  0  0  0  0
   43.5090   31.5010   43.6710 C   0  0  0  0  0  2  0  0  0  0  0  0
   43.8360   30.8290   44.9880 C   0  0  0  0  0  2  0  0  0  0  0  0
   43.9120   29.3680   44.5890 C   0  0  0  0  0  2  0  0  0  0  0  0
   35.1940   29.5550   39.9620 C   0  0  0  0  0  0  0  0  0  0  0  0
   34.5320   30.4770   39.8420 H   0  0  0  0  0  0  0  0  0  0  0  0
   34.6800   28.6710   40.3040 H   0  0  0  0  0  0  0  0  0  0  0  0
   35.8170   29.4460   38.6170 C   0  0  0  0  0  0  0  0  0  0  0  0
   37.1350   29.5850   38.2970 C   0  0  0  0  0  0  0  0  0  0  0  0
   37.6590   29.5570   37.0400 C   0  0  0  0  0  0  0  0  0  0  0  0
   36.8170   29.3750   35.9630 C   0  0  0  0  0  0  0  0  0  0  0  0
   35.4710   29.2260   36.2210 C   0  0  0  0  0  0  0  0  0  0  0  0
   34.6810   29.0520   35.1100 C   0  0  0  0  0  0  0  0  0  0  0  0
   33.3300   28.8940   35.2510 C   0  0  0  0  0  0  0  0  0  0  0  0
   32.7800   28.9090   36.5260 C   0  0  0  0  0  0  0  0  0  0  0  0
   33.6200   29.0870   37.5890 C   0  0  0  0  0  0  0  0  0  0  0  0
   34.9630   29.2560   37.5200 C   0  0  0  0  0  0  0  0  0  0  0  0
   37.7980   29.7300   39.1580 H   0  0  0  0  0  0  0  0  0  0  0  0
   38.7290   29.6810   36.9460 H   0  0  0  0  0  0  0  0  0  0  0  0
   37.2380   29.3560   34.9680 H   0  0  0  0  0  0  0  0  0  0  0  0
   35.0810   29.0340   34.1060 H   0  0  0  0  0  0  0  0  0  0  0  0
   32.6700   28.7570   34.4020 H   0  0  0  0  0  0  0  0  0  0  0  0
   31.7190   28.7820   36.6300 H   0  0  0  0  0  0  0  0  0  0  0  0
   33.0110   29.0740   38.8300 O   0  0  0  0  0  0  0  0  0  0  0  0
   32.5820   28.2060   39.1510 H   0  0  0  0  0  0  0  0  0  0  0  0
  1  7  1  0  0  0  0
  1  3  1  0  0  0  0
  2  1  1  0  0  0  0
  4  5  1  0  0  0  0
  4 13  1  0  0  0  0
  5  9  1  0  0  0  0
  6  5  2  0  0  0  0
  7  8  1  0  0  0  0
  7  6  1  0  0  0  0
  8  4  2  0  0  0  0
 10  6  1  0  0  0  0
 11 17  1  0  0  0  0
 12 18  1  0  0  0  0
 12 11  2  0  0  0  0
 13 12  1  0  0  0  0
 14 13  2  0  0  0  0
 14 15  1  0  0  0  0
 15 16  2  0  0  0  0
 16 11  1  0  0  0  0
 19 15  1  0  0  0  0
 19 23  1  0  0  0  0
 20 19  1  0  0  0  0
 20 21  1  0  0  0  0
 21 22  1  0  0  0  0
 23 22  1  0  0  0  0
 24 26  1  0  0  0  0
 24  1  1  0  0  0  0
 25 24  1  0  0  0  0
 27 24  1  0  0  0  0
 28 27  1  0  0  0  0
 28 37  1  0  0  0  0
 29 28  2  0  0  0  0
 30 31  2  0  0  0  0
 30 29  1  0  0  0  0
 31 36  1  0  0  0  0
 32 33  2  0  0  0  0
 32 31  1  0  0  0  0
 33 34  1  0  0  0  0
 34 42  1  0  0  0  0
 34 35  2  0  0  0  0
 35 43  1  0  0  0  0
 36 35  1  0  0  0  0
 36 27  2  0  0  0  0
 38 29  1  0  0  0  0
 39 30  1  0  0  0  0
 40 32  1  0  0  0  0
 41 33  1  0  0  0  0
 43 44  1  0  0  0  0
M  END
>  <minimizedAffinity>
-6.36359739

>  <minimizedRMSD>
0.695097566

$$$$
