
 OpenBabel03242506533D

 37 41  0  0  0  0  0  0  0  0999 V2000
   44.5850   26.4030   44.3920 C   0  0  0  0  0  0  0  0  0  0  0  0
   43.4240   26.4330   43.6100 C   0  0  0  0  0  0  0  0  0  0  0  0
   42.2450   26.9290   44.1700 C   0  0  0  0  0  0  0  0  0  0  0  0
   42.2890   27.3680   45.4840 N   0  0  0  0  0  0  0  0  0  0  0  0
   43.4340   27.3140   46.1830 C   0  0  0  0  0  0  0  0  0  0  0  0
   44.5750   26.8400   45.6560 N   0  0  0  0  0  0  0  0  0  0  0  0
   45.4810   26.0070   43.9090 H   0  0  0  0  0  0  0  0  0  0  0  0
   43.3860   25.9690   42.2290 C   0  0  0  0  0  0  0  0  0  0  0  0
   44.4190   26.1240   41.3340 C   0  0  0  0  0  0  0  0  0  0  0  0
   44.4010   25.6910   40.0230 C   0  0  0  0  0  0  0  0  0  0  0  0
   43.2650   25.0620   39.5930 N   0  0  0  0  0  0  0  0  0  0  0  0
   42.2510   24.9050   40.4560 C   0  0  0  0  0  0  0  0  0  0  0  0
   42.2920   25.3390   41.7350 N   0  0  0  0  0  0  0  0  0  0  0  0
   45.3040   26.6290   41.7190 H   0  0  0  0  0  0  0  0  0  0  0  0
   45.2730   25.8700   39.4180 H   0  0  0  0  0  0  0  0  0  0  0  0
   41.3190   24.4160   40.1850 H   0  0  0  0  0  0  0  0  0  0  0  0
   43.4070   27.8060   47.5970 C   0  0  0  0  0  0  0  0  0  0  0  0
   43.3720   29.1900   47.6350 F   0  0  0  0  0  0  0  0  0  0  0  0
   42.2230   27.4180   48.2320 F   0  0  0  0  0  0  0  0  0  0  0  0
   44.5270   27.4030   48.3140 F   0  0  0  0  0  0  0  0  0  0  0  0
   41.1210   26.9550   43.4050 O   0  0  0  0  0  0  0  0  0  0  0  0
   37.1350   29.0870   43.3010 N   0  0  0  0  0  0  0  0  0  0  0  0
   37.0060   27.8040   43.7110 C   0  0  0  0  0  0  0  0  0  0  0  0
   38.2480   27.2590   43.7060 N   0  0  0  0  0  0  0  0  0  0  0  0
   39.1670   28.1810   43.2990 C   0  0  0  0  0  0  0  0  0  0  0  0
   40.5290   28.1630   43.1170 C   0  0  0  0  0  0  0  0  0  0  0  0
   41.1510   29.2910   42.6860 N   0  0  0  0  0  0  0  0  0  0  0  0
   40.4090   30.3980   42.4510 C   0  0  0  0  0  0  0  0  0  0  0  0
   39.0790   30.4570   42.6150 N   0  0  0  0  0  0  0  0  0  0  0  0
   38.4180   29.3360   43.0490 C   0  0  0  0  0  0  0  0  0  0  0  0
   36.3300   29.7460   43.2100 H   0  0  0  0  0  0  0  0  0  0  0  0
   36.1260   27.2440   44.0030 H   0  0  0  0  0  0  0  0  0  0  0  0
   41.1110   31.6310   41.9770 C   0  0  0  0  0  0  0  0  0  0  0  0
   41.5120   31.5360   40.5180 C   0  0  0  0  0  0  0  0  0  0  0  0
   42.4520   32.7160   40.3850 C   0  0  0  0  0  0  0  0  0  0  0  0
   43.0100   32.9650   41.7840 C   0  0  0  0  0  0  0  0  0  0  0  0
   42.4760   31.7920   42.6180 C   0  0  0  0  0  0  0  0  0  0  0  0
  1  6  1  0  0  0  0
  2  3  1  0  0  0  0
  2  1  2  0  0  0  0
  3  4  2  0  0  0  0
  4  5  1  0  0  0  0
  5 17  1  0  0  0  0
  6  5  2  0  0  0  0
  7  1  1  0  0  0  0
  8  2  1  0  0  0  0
  9 14  1  0  0  0  0
  9  8  2  0  0  0  0
 10  9  1  0  0  0  0
 11 10  2  0  0  0  0
 11 12  1  0  0  0  0
 12 13  2  0  0  0  0
 13  8  1  0  0  0  0
 15 10  1  0  0  0  0
 16 12  1  0  0  0  0
 17 18  1  0  0  0  0
 17 19  1  0  0  0  0
 17 20  1  0  0  0  0
 21  3  1  0  0  0  0
 22 23  1  0  0  0  0
 23 32  1  0  0  0  0
 24 23  2  0  0  0  0
 25 24  1  0  0  0  0
 26 25  1  0  0  0  0
 26 21  1  0  0  0  0
 27 26  2  0  0  0  0
 28 29  2  0  0  0  0
 28 27  1  0  0  0  0
 29 30  1  0  0  0  0
 30 25  2  0  0  0  0
 30 22  1  0  0  0  0
 31 22  1  0  0  0  0
 33 28  1  0  0  0  0
 33 37  1  0  0  0  0
 34 33  1  0  0  0  0
 35 34  1  0  0  0  0
 35 36  1  0  0  0  0
 36 37  1  0  0  0  0
M  END
>  <minimizedAffinity>
-5.97635651

>  <minimizedRMSD>
0.157939419

$$$$
