
 OpenBabel03242506473D

 29 32  0  0  0  0  0  0  0  0999 V2000
   44.5890   26.4370   44.4140 C   0  0  0  0  0  0  0  0  0  0  0  0
   43.4260   26.4500   43.6270 C   0  0  0  0  0  0  0  0  0  0  0  0
   42.2400   26.9660   44.1810 C   0  0  0  0  0  0  0  0  0  0  0  0
   42.2860   27.4370   45.4860 N   0  0  0  0  0  0  0  0  0  0  0  0
   43.4250   27.4000   46.1920 C   0  0  0  0  0  0  0  0  0  0  0  0
   44.5720   26.9060   45.6740 N   0  0  0  0  0  0  0  0  0  0  0  0
   45.5150   26.0460   44.0130 H   0  0  0  0  0  0  0  0  0  0  0  0
   43.4100   25.9470   42.2530 C   0  0  0  0  0  0  0  0  0  0  0  0
   43.5910   27.0000   41.2000 C   0  0  0  0  0  0  0  0  0  0  0  0
   42.5700   26.6710   40.1020 C   0  0  0  0  0  0  0  0  0  0  0  0
   42.3190   25.1960   40.3330 C   0  0  0  0  0  0  0  0  0  0  0  0
   42.1860   25.1850   41.8610 C   0  0  0  0  0  0  0  0  0  0  0  0
   43.4030   27.9210   47.5900 C   0  0  0  0  0  0  0  0  0  0  0  0
   43.4210   29.3040   47.5990 F   0  0  0  0  0  0  0  0  0  0  0  0
   42.1920   27.5760   48.2140 F   0  0  0  0  0  0  0  0  0  0  0  0
   44.4980   27.4880   48.3270 F   0  0  0  0  0  0  0  0  0  0  0  0
   41.1260   26.9740   43.4080 O   0  0  0  0  0  0  0  0  0  0  0  0
   37.1230   29.0950   43.3240 N   0  0  0  0  0  0  0  0  0  0  0  0
   37.0050   27.8260   43.7600 C   0  0  0  0  0  0  0  0  0  0  0  0
   38.2460   27.2810   43.7490 N   0  0  0  0  0  0  0  0  0  0  0  0
   39.1550   28.1920   43.3090 C   0  0  0  0  0  0  0  0  0  0  0  0
   40.5330   28.1720   43.1050 C   0  0  0  0  0  0  0  0  0  0  0  0
   41.1280   29.2990   42.6410 N   0  0  0  0  0  0  0  0  0  0  0  0
   40.3980   30.3980   42.3910 C   0  0  0  0  0  0  0  0  0  0  0  0
   39.0520   30.4560   42.5780 N   0  0  0  0  0  0  0  0  0  0  0  0
   38.4070   29.3450   43.0440 C   0  0  0  0  0  0  0  0  0  0  0  0
   36.3170   29.7800   43.2210 H   0  0  0  0  0  0  0  0  0  0  0  0
   36.0960   27.3140   44.0690 H   0  0  0  0  0  0  0  0  0  0  0  0
   40.9380   31.2610   42.0240 H   0  0  0  0  0  0  0  0  0  0  0  0
  1  6  1  0  0  0  0
  2  3  1  0  0  0  0
  2  1  2  0  0  0  0
  3  4  2  0  0  0  0
  4  5  1  0  0  0  0
  5 13  1  0  0  0  0
  6  5  2  0  0  0  0
  7  1  1  0  0  0  0
  8  2  1  0  0  0  0
  9  8  1  0  0  0  0
 10 11  1  0  0  0  0
 10  9  1  0  0  0  0
 11 12  1  0  0  0  0
 12  8  1  0  0  0  0
 13 14  1  0  0  0  0
 13 15  1  0  0  0  0
 13 16  1  0  0  0  0
 17  3  1  0  0  0  0
 18 19  1  0  0  0  0
 19 28  1  0  0  0  0
 20 19  2  0  0  0  0
 21 20  1  0  0  0  0
 22 21  1  0  0  0  0
 22 17  1  0  0  0  0
 23 22  2  0  0  0  0
 24 25  2  0  0  0  0
 24 23  1  0  0  0  0
 25 26  1  0  0  0  0
 26 21  2  0  0  0  0
 26 18  1  0  0  0  0
 27 18  1  0  0  0  0
 29 24  1  0  0  0  0
M  END
>  <minimizedAffinity>
-5.48138285

>  <minimizedRMSD>
0.442962438

$$$$
