
 OpenBabel03242508053D

 26 28  0  0  0  0  0  0  0  0999 V2000
   36.6780   30.0750   40.7510 C   0  0  0  0  0  0  0  0  0  0  0  0
   37.8300   30.1310   41.5390 C   0  0  0  0  0  0  0  0  0  0  0  0
   38.6500   31.2780   41.3910 C   0  0  0  0  0  0  0  0  0  0  0  0
   38.2790   32.2420   40.5090 N   0  0  0  0  0  0  0  0  0  0  0  0
   37.1400   32.1300   39.7680 C   0  0  0  0  0  0  0  0  0  0  0  0
   36.3360   31.0350   39.8930 N   0  0  0  0  0  0  0  0  0  0  0  0
   39.5380   31.3280   41.9930 H   0  0  0  0  0  0  0  0  0  0  0  0
   36.9200   32.9550   39.0840 H   0  0  0  0  0  0  0  0  0  0  0  0
   38.2080   29.1550   42.4510 N   0  0  0  0  0  0  0  0  0  0  0  0
   39.2790   28.1840   42.3200 C   0  0  0  0  0  0  0  0  0  0  0  0
   38.7940   26.9770   43.0920 C   0  0  0  0  0  0  0  0  0  0  0  0
   37.5200   27.4170   43.7700 C   0  0  0  0  0  0  0  0  0  0  0  0
   37.6320   28.9080   43.7380 C   0  0  0  0  0  0  0  0  0  0  0  0
   39.4690   27.9400   41.2370 H   0  0  0  0  0  0  0  0  0  0  0  0
   40.2460   28.5830   42.6820 H   0  0  0  0  0  0  0  0  0  0  0  0
   39.5440   26.5410   43.7620 H   0  0  0  0  0  0  0  0  0  0  0  0
   38.4830   26.2180   42.3160 H   0  0  0  0  0  0  0  0  0  0  0  0
   37.6480   27.1050   44.8450 H   0  0  0  0  0  0  0  0  0  0  0  0
   36.6040   27.0020   43.3620 H   0  0  0  0  0  0  0  0  0  0  0  0
   36.6780   29.3800   43.9540 H   0  0  0  0  0  0  0  0  0  0  0  0
   38.4160   29.2010   44.4910 H   0  0  0  0  0  0  0  0  0  0  0  0
   35.7150   28.9500   40.7720 C   0  0  0  0  0  0  0  0  0  0  0  0
   34.5230   29.2170   39.8790 C   0  0  0  0  0  0  0  0  0  0  0  0
   34.7970   28.6540   38.5280 C   0  0  0  0  0  0  0  0  0  0  0  0
   35.8980   27.6770   38.7300 C   0  0  0  0  0  0  0  0  0  0  0  0
   36.3200   27.6950   40.1590 C   0  0  0  0  0  0  0  0  0  0  0  0
  1 22  1  0  0  0  0
  1  2  1  0  0  0  0
  2  9  1  0  0  0  0
  3  2  2  0  0  0  0
  3  7  1  0  0  0  0
  4  3  1  0  0  0  0
  5  6  1  0  0  0  0
  5  4  2  0  0  0  0
  6  1  2  0  0  0  0
  8  5  1  0  0  0  0
  9 13  1  0  0  0  0
 10  9  1  0  0  0  0
 10 15  1  0  0  0  0
 10 11  1  0  0  0  0
 11 16  1  0  0  0  0
 11 12  1  0  0  0  0
 12 18  1  0  0  0  0
 13 12  1  0  0  0  0
 13 20  1  0  0  0  0
 13 21  1  0  0  0  0
 14 10  1  0  0  0  0
 17 11  1  0  0  0  0
 19 12  1  0  0  0  0
 23 22  1  0  0  0  0
 24 25  1  0  0  0  0
 24 23  1  0  0  0  0
 25 26  1  0  0  0  0
 26 22  1  0  0  0  0
M  END
>  <minimizedAffinity>
-4.68430901

>  <minimizedRMSD>
3.91158652

$$$$
