
 OpenBabel03242507163D

 34 38  0  0  0  0  0  0  0  0999 V2000
   36.7630   28.3440   42.0910 N   0  0  0  0  0  0  0  0  0  0  0  0
   36.3500   27.4880   43.0430 C   0  0  0  0  0  0  0  0  0  0  0  0
   37.0760   27.8490   44.1590 C   0  0  0  0  0  0  0  0  0  0  0  0
   37.9000   28.8940   43.8760 N   0  0  0  0  0  0  0  0  0  0  0  0
   37.6890   29.1810   42.5950 C   0  0  0  0  0  0  0  0  0  0  0  0
   38.4580   30.2620   42.0700 N   0  0  0  0  0  0  0  0  0  0  0  0
   39.7560   30.4750   42.4670 C   0  0  0  0  0  0  0  0  0  0  0  0
   40.2680   31.5700   41.8200 N   0  0  0  0  0  0  0  0  0  0  0  0
   39.3130   32.0460   41.0230 C   0  0  0  0  0  0  0  0  0  0  0  0
   39.2670   33.1140   40.1520 C   0  0  0  0  0  0  0  0  0  0  0  0
   38.1060   33.2930   39.5010 N   0  0  0  0  0  0  0  0  0  0  0  0
   37.0290   32.5090   39.6550 C   0  0  0  0  0  0  0  0  0  0  0  0
   37.0590   31.4550   40.5070 N   0  0  0  0  0  0  0  0  0  0  0  0
   38.2040   31.2480   41.1730 C   0  0  0  0  0  0  0  0  0  0  0  0
   35.6160   26.7210   42.8990 H   0  0  0  0  0  0  0  0  0  0  0  0
   36.9590   27.3280   45.1080 H   0  0  0  0  0  0  0  0  0  0  0  0
   40.4020   29.9620   43.1580 H   0  0  0  0  0  0  0  0  0  0  0  0
   36.1430   32.7490   39.0760 H   0  0  0  0  0  0  0  0  0  0  0  0
   35.0990   28.9080   40.3690 C   0  0  0  0  0  0  0  0  0  0  0  0
   36.3090   28.3740   40.7710 C   0  0  0  0  0  0  0  0  0  0  0  0
   37.1200   27.8240   39.7370 C   0  0  0  0  0  0  0  0  0  0  0  0
   36.6770   27.8530   38.4540 N   0  0  0  0  0  0  0  0  0  0  0  0
   35.4640   28.4020   38.1320 C   0  0  0  0  0  0  0  0  0  0  0  0
   34.6680   28.9360   39.1020 N   0  0  0  0  0  0  0  0  0  0  0  0
   34.4860   29.3230   41.1430 H   0  0  0  0  0  0  0  0  0  0  0  0
   38.0670   27.3910   39.9590 H   0  0  0  0  0  0  0  0  0  0  0  0
   34.9720   28.4400   36.7400 C   0  0  0  0  0  0  0  0  0  0  0  0
   35.8160   29.2790   35.8400 C   0  0  0  0  0  0  0  0  0  0  0  0
   34.9060   29.6020   34.6890 C   0  0  0  0  0  0  0  0  0  0  0  0
   33.4940   29.2460   35.1210 C   0  0  0  0  0  0  0  0  0  0  0  0
   33.6060   29.1030   36.6450 C   0  0  0  0  0  0  0  0  0  0  0  0
   40.3760   33.9800   39.9480 N   0  0  0  0  0  0  0  0  0  0  0  0
   41.0900   33.3840   39.4790 H   0  0  0  0  0  0  0  0  0  0  0  0
   40.3810   34.9720   40.2370 H   0  0  0  0  0  0  0  0  0  0  0  0
  1  5  1  0  0  0  0
  1  2  1  0  0  0  0
  2  3  2  0  0  0  0
  3 16  1  0  0  0  0
  4  3  1  0  0  0  0
  5  4  2  0  0  0  0
  6  7  1  0  0  0  0
  6  5  1  0  0  0  0
  7 17  1  0  0  0  0
  8  7  2  0  0  0  0
  9 14  1  0  0  0  0
  9  8  1  0  0  0  0
 10  9  2  0  0  0  0
 11 12  2  0  0  0  0
 11 10  1  0  0  0  0
 12 13  1  0  0  0  0
 13 14  2  0  0  0  0
 14  6  1  0  0  0  0
 15  2  1  0  0  0  0
 18 12  1  0  0  0  0
 19 20  1  0  0  0  0
 19 25  1  0  0  0  0
 20  1  1  0  0  0  0
 21 26  1  0  0  0  0
 21 20  2  0  0  0  0
 22 21  1  0  0  0  0
 23 22  2  0  0  0  0
 23 24  1  0  0  0  0
 24 19  2  0  0  0  0
 27 23  1  0  0  0  0
 28 27  1  0  0  0  0
 29 30  1  0  0  0  0
 29 28  1  0  0  0  0
 30 31  1  0  0  0  0
 31 27  1  0  0  0  0
 32 10  1  0  0  0  0
 32 34  1  0  0  0  0
 33 32  1  0  0  0  0
M  END
>  <minimizedAffinity>
-6.31134605

>  <minimizedRMSD>
1.7692908

$$$$
