
 OpenBabel03242506183D

 25 28  0  0  0  0  0  0  0  0999 V2000
   37.1680   29.7010   41.3630 C   0  0  0  0  0  0  0  0  0  0  0  0
   38.5590   30.0060   41.3010 C   0  0  0  0  0  0  0  0  0  0  0  0
   38.9760   31.2270   40.8520 C   0  0  0  0  0  0  0  0  0  0  0  0
   37.9970   32.1200   40.4710 N   0  0  0  0  0  0  0  0  0  0  0  0
   36.6690   31.8070   40.5360 C   0  0  0  0  0  0  0  0  0  0  0  0
   36.2480   30.6010   40.9810 N   0  0  0  0  0  0  0  0  0  0  0  0
   36.8610   28.7310   41.7220 H   0  0  0  0  0  0  0  0  0  0  0  0
   35.9770   32.5820   40.2120 H   0  0  0  0  0  0  0  0  0  0  0  0
   39.4590   28.9400   41.7050 C   0  0  0  0  0  0  0  0  0  0  0  0
   39.8470   27.9550   40.7290 C   0  0  0  0  0  0  0  0  0  0  0  0
   40.9700   26.8130   41.6540 S   0  0  0  0  0  0  0  0  0  0  0  0
   40.7040   27.8980   43.2250 C   0  0  0  0  0  0  0  0  0  0  0  0
   40.0120   28.7020   42.8770 N   0  0  0  0  0  0  0  0  0  0  0  0
   39.5280   27.9180   39.6660 H   0  0  0  0  0  0  0  0  0  0  0  0
   41.0740   27.9110   44.3890 H   0  0  0  0  0  0  0  0  0  0  0  0
   40.3510   31.6930   40.7670 C   0  0  0  0  0  0  0  0  0  0  0  0
   41.5880   31.2660   40.6480 N   0  0  0  0  0  0  0  0  0  0  0  0
   42.4320   32.2290   40.6340 O   0  0  0  0  0  0  0  0  0  0  0  0
   41.8450   33.3680   40.7410 C   0  0  0  0  0  0  0  0  0  0  0  0
   40.5760   33.0230   40.8200 N   0  0  0  0  0  0  0  0  0  0  0  0
   42.4370   34.7230   40.7680 C   0  0  0  0  0  0  0  0  0  0  0  0
   41.3680   35.7730   40.6900 C   0  0  0  0  0  0  0  0  0  0  0  0
   41.3850   36.4980   42.0390 C   0  0  0  0  0  0  0  0  0  0  0  0
   42.8460   36.3620   42.4100 C   0  0  0  0  0  0  0  0  0  0  0  0
   43.0890   34.9090   42.1320 C   0  0  0  0  0  0  0  0  0  0  0  0
  1  7  1  0  0  0  0
  2  1  1  0  0  0  0
  2  9  1  0  0  0  0
  3  2  2  0  0  0  0
  4  5  2  0  0  0  0
  4  3  1  0  0  0  0
  5  6  1  0  0  0  0
  6  1  2  0  0  0  0
  8  5  1  0  0  0  0
  9 13  1  0  0  0  0
 10 11  1  0  0  0  0
 10  9  2  0  0  0  0
 11 12  1  0  0  0  0
 12 15  1  0  0  0  0
 13 12  2  0  0  0  0
 14 10  1  0  0  0  0
 16 20  1  0  0  0  0
 16  3  1  0  0  0  0
 17 16  2  0  0  0  0
 18 17  1  0  0  0  0
 18 19  1  0  0  0  0
 19 21  1  0  0  0  0
 19 20  2  0  0  0  0
 21 25  1  0  0  0  0
 22 21  1  0  0  0  0
 22 23  1  0  0  0  0
 23 24  1  0  0  0  0
 25 24  1  0  0  0  0
M  END
>  <minimizedAffinity>
-4.58288145

>  <minimizedRMSD>
3.59811568

$$$$
