
 OpenBabel03242507393D

 34 36  0  0  1  0  0  0  0  0999 V2000
   36.9140   27.6280   39.7680 C   0  0  2  0  0  0  0  0  0  0  0  0
   36.7000   26.1550   39.8120 C   0  0  0  0  0  0  0  0  0  0  0  0
   35.9530   25.9040   38.5180 C   0  0  0  0  0  0  0  0  0  0  0  0
   36.3140   27.0370   37.5920 C   0  0  0  0  0  0  0  0  0  0  0  0
   37.3600   27.8490   38.3570 C   0  0  2  0  0  0  0  0  0  0  0  0
   35.9810   28.2080   39.7880 H   0  0  0  0  0  0  0  0  0  0  0  0
   35.9680   25.9580   40.6490 H   0  0  0  0  0  0  0  0  0  0  0  0
   37.6060   25.5580   39.9110 H   0  0  0  0  0  0  0  0  0  0  0  0
   36.2790   24.9150   38.1080 H   0  0  0  0  0  0  0  0  0  0  0  0
   34.8610   25.8750   38.6880 H   0  0  0  0  0  0  0  0  0  0  0  0
   35.4130   27.6130   37.3630 H   0  0  0  0  0  0  0  0  0  0  0  0
   36.7780   26.6280   36.6660 H   0  0  0  0  0  0  0  0  0  0  0  0
   37.1230   28.9060   38.1310 H   0  0  0  0  0  0  0  0  0  0  0  0
   38.8190   29.5530   42.3500 C   0  0  0  0  0  0  0  0  0  0  0  0
   38.0550   29.3870   41.1420 C   0  0  0  0  0  0  0  0  0  0  0  0
   37.7460   28.0920   40.8290 C   0  0  0  0  0  0  0  0  0  0  0  0
   38.1780   27.1030   41.6700 N   0  0  0  0  0  0  0  0  0  0  0  0
   38.8780   27.2900   42.7740 C   0  0  0  0  0  0  0  0  0  0  0  0
   39.1980   28.5450   43.1070 N   0  0  0  0  0  0  0  0  0  0  0  0
   39.0630   30.5870   42.5940 H   0  0  0  0  0  0  0  0  0  0  0  0
   39.2130   26.5000   43.4300 H   0  0  0  0  0  0  0  0  0  0  0  0
   37.6850   30.4970   40.3440 N   0  0  0  0  0  0  0  0  0  0  0  0
   36.7150   31.4480   40.7030 C   0  0  0  0  0  0  0  0  0  0  0  0
   35.6520   30.9490   41.2940 N   0  0  0  0  0  0  0  0  0  0  0  0
   37.0050   32.8280   40.3840 N   0  0  0  0  0  0  0  0  0  0  0  0
   34.8650   31.5500   41.5820 H   0  0  0  0  0  0  0  0  0  0  0  0
   38.2050   30.5820   39.4160 H   0  0  0  0  0  0  0  0  0  0  0  0
   36.8390   32.9230   39.3550 H   0  0  0  0  0  0  0  0  0  0  0  0
   37.3010   33.3740   41.2260 H   0  0  0  0  0  0  0  0  0  0  0  0
   38.7160   27.6480   37.9280 C   0  0  0  0  0  0  0  0  0  0  0  0
   38.9010   26.8850   36.6350 C   0  0  0  0  0  0  0  0  0  0  0  0
   40.4330   26.7540   36.6390 C   0  0  0  0  0  0  0  0  0  0  0  0
   40.9470   27.9310   37.4540 C   0  0  0  0  0  0  0  0  0  0  0  0
   39.6810   28.7630   37.7530 C   0  0  0  0  0  0  0  0  0  0  0  0
  1  6  1  1  0  0  0
  1  2  1  0  0  0  0
  1 16  1  0  0  0  0
  2  8  1  0  0  0  0
  2  7  1  0  0  0  0
  3 10  1  0  0  0  0
  3  2  1  0  0  0  0
  4  5  1  0  0  0  0
  4  3  1  0  0  0  0
  5 13  1  6  0  0  0
  5  1  1  0  0  0  0
  9  3  1  0  0  0  0
 11  4  1  0  0  0  0
 12  4  1  0  0  0  0
 14 20  1  0  0  0  0
 14 19  1  0  0  0  0
 15 14  2  0  0  0  0
 16 15  1  0  0  0  0
 16 17  2  0  0  0  0
 17 18  1  0  0  0  0
 18 19  2  0  0  0  0
 18 21  1  0  0  0  0
 22 23  1  0  0  0  0
 22 15  1  0  0  0  0
 23 24  2  0  0  0  0
 24 26  1  0  0  0  0
 25 23  1  0  0  0  0
 25 29  1  0  0  0  0
 27 22  1  0  0  0  0
 28 25  1  0  0  0  0
 30  5  1  0  0  0  0
 31 32  1  0  0  0  0
 31 30  1  0  0  0  0
 32 33  1  0  0  0  0
 33 34  1  0  0  0  0
 34 30  1  0  0  0  0
M  END
>  <minimizedAffinity>
-5.12961721

>  <minimizedRMSD>
0.785412669

$$$$
