
 OpenBabel03242509283D

 44 48  0  0  0  0  0  0  0  0999 V2000
   36.0440   30.0530   40.9230 C   0  0  0  0  0  0  0  0  0  0  0  0
   36.7110   30.7840   40.4050 H   0  0  0  0  0  0  0  0  0  0  0  0
   35.4940   30.6380   41.6880 H   0  0  0  0  0  0  0  0  0  0  0  0
   38.3960   28.0480   42.6090 C   0  0  0  0  0  0  0  0  0  0  0  0
   37.2830   27.2650   42.6940 C   0  0  0  0  0  0  0  0  0  0  0  0
   36.2550   27.9580   42.0490 C   0  0  0  0  0  0  0  0  0  0  0  0
   36.8270   29.0930   41.6300 N   0  0  0  0  0  0  0  0  0  0  0  0
   38.0800   29.1860   41.9380 N   0  0  0  0  0  0  0  0  0  0  0  0
   37.2960   26.3010   43.1900 H   0  0  0  0  0  0  0  0  0  0  0  0
   35.2630   27.5580   41.9710 H   0  0  0  0  0  0  0  0  0  0  0  0
   41.2290   26.3070   44.2790 C   0  0  0  0  0  0  0  0  0  0  0  0
   39.9420   26.5410   43.7860 C   0  0  0  0  0  0  0  0  0  0  0  0
   39.7200   27.7740   43.1280 C   0  0  0  0  0  0  0  0  0  0  0  0
   40.7280   28.6540   43.0020 N   0  0  0  0  0  0  0  0  0  0  0  0
   41.9620   28.3660   43.5060 C   0  0  0  0  0  0  0  0  0  0  0  0
   42.2070   27.2030   44.1380 N   0  0  0  0  0  0  0  0  0  0  0  0
   41.4700   25.3700   44.8020 H   0  0  0  0  0  0  0  0  0  0  0  0
   39.1580   25.7960   43.9120 H   0  0  0  0  0  0  0  0  0  0  0  0
   42.9980   29.4060   43.3120 C   0  0  0  0  0  3  0  0  0  0  0  0
   42.3520   30.7550   43.0530 C   0  0  0  0  0  2  0  0  0  0  0  0
   43.4470   31.7080   43.5150 C   0  0  0  0  0  2  0  0  0  0  0  0
   43.8190   31.0860   44.8430 C   0  0  0  0  0  2  0  0  0  0  0  0
   43.8890   29.6110   44.4960 C   0  0  0  0  0  2  0  0  0  0  0  0
   35.1440   29.4910   39.8680 C   0  0  0  0  0  0  0  0  0  0  0  0
   34.4300   30.3750   39.7610 H   0  0  0  0  0  0  0  0  0  0  0  0
   34.6840   28.5790   40.2160 H   0  0  0  0  0  0  0  0  0  0  0  0
   35.7490   29.4170   38.5120 C   0  0  0  0  0  0  0  0  0  0  0  0
   37.0620   29.5650   38.1800 C   0  0  0  0  0  0  0  0  0  0  0  0
   37.5710   29.5710   36.9160 C   0  0  0  0  0  0  0  0  0  0  0  0
   36.7150   29.4160   35.8450 C   0  0  0  0  0  0  0  0  0  0  0  0
   35.3720   29.2600   36.1160 C   0  0  0  0  0  0  0  0  0  0  0  0
   34.5690   29.1150   35.0110 C   0  0  0  0  0  0  0  0  0  0  0  0
   33.2200   28.9530   35.1650 C   0  0  0  0  0  0  0  0  0  0  0  0
   32.6860   28.9340   36.4470 C   0  0  0  0  0  0  0  0  0  0  0  0
   33.5400   29.0840   37.5030 C   0  0  0  0  0  0  0  0  0  0  0  0
   34.8810   29.2560   37.4220 C   0  0  0  0  0  0  0  0  0  0  0  0
   37.7370   29.6880   39.0350 H   0  0  0  0  0  0  0  0  0  0  0  0
   38.6390   29.6970   36.8110 H   0  0  0  0  0  0  0  0  0  0  0  0
   37.1230   29.4230   34.8440 H   0  0  0  0  0  0  0  0  0  0  0  0
   34.9560   29.1240   34.0010 H   0  0  0  0  0  0  0  0  0  0  0  0
   32.5480   28.8380   34.3210 H   0  0  0  0  0  0  0  0  0  0  0  0
   31.6260   28.8040   36.5610 H   0  0  0  0  0  0  0  0  0  0  0  0
   32.9460   29.0380   38.7510 O   0  0  0  0  0  0  0  0  0  0  0  0
   32.5220   28.1620   39.0550 H   0  0  0  0  0  0  0  0  0  0  0  0
  1  7  1  0  0  0  0
  1  3  1  0  0  0  0
  2  1  1  0  0  0  0
  4  5  1  0  0  0  0
  4 13  1  0  0  0  0
  5  9  1  0  0  0  0
  6  5  2  0  0  0  0
  7  8  1  0  0  0  0
  7  6  1  0  0  0  0
  8  4  2  0  0  0  0
 10  6  1  0  0  0  0
 11 17  1  0  0  0  0
 12 18  1  0  0  0  0
 12 11  2  0  0  0  0
 13 12  1  0  0  0  0
 14 13  2  0  0  0  0
 14 15  1  0  0  0  0
 15 16  2  0  0  0  0
 16 11  1  0  0  0  0
 19 15  1  0  0  0  0
 19 23  1  0  0  0  0
 20 19  1  0  0  0  0
 20 21  1  0  0  0  0
 21 22  1  0  0  0  0
 23 22  1  0  0  0  0
 24 26  1  0  0  0  0
 24  1  1  0  0  0  0
 25 24  1  0  0  0  0
 27 24  1  0  0  0  0
 28 27  1  0  0  0  0
 28 37  1  0  0  0  0
 29 28  2  0  0  0  0
 30 31  2  0  0  0  0
 30 29  1  0  0  0  0
 31 36  1  0  0  0  0
 32 33  2  0  0  0  0
 32 31  1  0  0  0  0
 33 34  1  0  0  0  0
 34 42  1  0  0  0  0
 34 35  2  0  0  0  0
 35 43  1  0  0  0  0
 36 35  1  0  0  0  0
 36 27  2  0  0  0  0
 38 29  1  0  0  0  0
 39 30  1  0  0  0  0
 40 32  1  0  0  0  0
 41 33  1  0  0  0  0
 43 44  1  0  0  0  0
M  END
>  <minimizedAffinity>
-6.39806843

>  <minimizedRMSD>
1.20542741

$$$$
