
 OpenBabel03242509283D

 44 48  0  0  0  0  0  0  0  0999 V2000
   36.1350   30.0610   41.1180 C   0  0  0  0  0  0  0  0  0  0  0  0
   36.7500   30.8430   40.6110 H   0  0  0  0  0  0  0  0  0  0  0  0
   35.5600   30.5940   41.9030 H   0  0  0  0  0  0  0  0  0  0  0  0
   38.6300   28.1540   42.7090 C   0  0  0  0  0  0  0  0  0  0  0  0
   37.5540   27.3270   42.8360 C   0  0  0  0  0  0  0  0  0  0  0  0
   36.4740   27.9770   42.2330 C   0  0  0  0  0  0  0  0  0  0  0  0
   36.9830   29.1340   41.7930 N   0  0  0  0  0  0  0  0  0  0  0  0
   38.2420   29.2770   42.0510 N   0  0  0  0  0  0  0  0  0  0  0  0
   37.6250   26.3640   43.3310 H   0  0  0  0  0  0  0  0  0  0  0  0
   35.4970   27.5380   42.1940 H   0  0  0  0  0  0  0  0  0  0  0  0
   41.5750   26.5680   44.3390 C   0  0  0  0  0  0  0  0  0  0  0  0
   40.2600   26.7510   43.9000 C   0  0  0  0  0  0  0  0  0  0  0  0
   39.9830   27.9340   43.1740 C   0  0  0  0  0  0  0  0  0  0  0  0
   40.9690   28.8170   42.9390 N   0  0  0  0  0  0  0  0  0  0  0  0
   42.2310   28.5810   43.3950 C   0  0  0  0  0  0  0  0  0  0  0  0
   42.5290   27.4670   44.0880 N   0  0  0  0  0  0  0  0  0  0  0  0
   41.8590   25.6710   44.9090 H   0  0  0  0  0  0  0  0  0  0  0  0
   39.4970   26.0050   44.1150 H   0  0  0  0  0  0  0  0  0  0  0  0
   43.2380   29.6200   43.0790 C   0  0  0  0  0  3  0  0  0  0  0  0
   43.2240   29.9370   41.5940 C   0  0  0  0  0  2  0  0  0  0  0  0
   43.7780   31.3560   41.5820 C   0  0  0  0  0  2  0  0  0  0  0  0
   42.9550   31.9880   42.6840 C   0  0  0  0  0  2  0  0  0  0  0  0
   43.0050   30.9280   43.7680 C   0  0  0  0  0  2  0  0  0  0  0  0
   35.2570   29.4700   40.0590 C   0  0  0  0  0  0  0  0  0  0  0  0
   34.5320   30.3420   39.9300 H   0  0  0  0  0  0  0  0  0  0  0  0
   34.8060   28.5570   40.4160 H   0  0  0  0  0  0  0  0  0  0  0  0
   35.8810   29.3860   38.7130 C   0  0  0  0  0  0  0  0  0  0  0  0
   37.2020   29.5090   38.4010 C   0  0  0  0  0  0  0  0  0  0  0  0
   37.7290   29.5050   37.1450 C   0  0  0  0  0  0  0  0  0  0  0  0
   36.8870   29.3680   36.0610 C   0  0  0  0  0  0  0  0  0  0  0  0
   35.5380   29.2380   36.3120 C   0  0  0  0  0  0  0  0  0  0  0  0
   34.7490   29.1090   35.1950 C   0  0  0  0  0  0  0  0  0  0  0  0
   33.3940   28.9730   35.3280 C   0  0  0  0  0  0  0  0  0  0  0  0
   32.8410   28.9640   36.6010 C   0  0  0  0  0  0  0  0  0  0  0  0
   33.6810   29.0960   37.6710 C   0  0  0  0  0  0  0  0  0  0  0  0
   35.0270   29.2420   37.6100 C   0  0  0  0  0  0  0  0  0  0  0  0
   37.8660   29.6180   39.2660 H   0  0  0  0  0  0  0  0  0  0  0  0
   38.8020   29.6110   37.0560 H   0  0  0  0  0  0  0  0  0  0  0  0
   37.3110   29.3680   35.0660 H   0  0  0  0  0  0  0  0  0  0  0  0
   35.1510   29.1110   34.1910 H   0  0  0  0  0  0  0  0  0  0  0  0
   32.7340   28.8710   34.4740 H   0  0  0  0  0  0  0  0  0  0  0  0
   31.7770   28.8540   36.6990 H   0  0  0  0  0  0  0  0  0  0  0  0
   33.0680   29.0610   38.9100 O   0  0  0  0  0  0  0  0  0  0  0  0
   32.6220   28.1930   39.2060 H   0  0  0  0  0  0  0  0  0  0  0  0
  1  7  1  0  0  0  0
  1  3  1  0  0  0  0
  2  1  1  0  0  0  0
  4  5  1  0  0  0  0
  4 13  1  0  0  0  0
  5  9  1  0  0  0  0
  6  5  2  0  0  0  0
  7  8  1  0  0  0  0
  7  6  1  0  0  0  0
  8  4  2  0  0  0  0
 10  6  1  0  0  0  0
 11 17  1  0  0  0  0
 12 18  1  0  0  0  0
 12 11  2  0  0  0  0
 13 12  1  0  0  0  0
 14 13  2  0  0  0  0
 14 15  1  0  0  0  0
 15 16  2  0  0  0  0
 16 11  1  0  0  0  0
 19 15  1  0  0  0  0
 19 23  1  0  0  0  0
 20 19  1  0  0  0  0
 21 20  1  0  0  0  0
 21 22  1  0  0  0  0
 22 23  1  0  0  0  0
 24 26  1  0  0  0  0
 24  1  1  0  0  0  0
 25 24  1  0  0  0  0
 27 24  1  0  0  0  0
 28 27  1  0  0  0  0
 28 37  1  0  0  0  0
 29 28  2  0  0  0  0
 30 31  2  0  0  0  0
 30 29  1  0  0  0  0
 31 36  1  0  0  0  0
 32 33  2  0  0  0  0
 32 31  1  0  0  0  0
 33 34  1  0  0  0  0
 34 42  1  0  0  0  0
 34 35  2  0  0  0  0
 35 43  1  0  0  0  0
 36 35  1  0  0  0  0
 36 27  2  0  0  0  0
 38 29  1  0  0  0  0
 39 30  1  0  0  0  0
 40 32  1  0  0  0  0
 41 33  1  0  0  0  0
 43 44  1  0  0  0  0
M  END
>  <minimizedAffinity>
-6.14857721

>  <minimizedRMSD>
0.511651278

$$$$
