
 OpenBabel03242508573D

 41 45  0  0  0  0  0  0  0  0999 V2000
   36.8170   29.8830   39.9670 C   0  0  0  0  0  0  0  0  0  0  0  0
   37.7030   30.9640   39.9640 C   0  0  0  0  0  0  0  0  0  0  0  0
   38.3790   30.9010   41.1050 N   0  0  0  0  0  0  0  0  0  0  0  0
   38.0060   29.8610   41.8600 C   0  0  0  0  0  0  0  0  0  0  0  0
   38.4660   29.4550   43.1000 C   0  0  0  0  0  0  0  0  0  0  0  0
   37.8810   28.3200   43.6410 C   0  0  0  0  0  0  0  0  0  0  0  0
   36.8770   27.6230   42.9660 C   0  0  0  0  0  0  0  0  0  0  0  0
   36.4310   28.0450   41.7270 C   0  0  0  0  0  0  0  0  0  0  0  0
   37.0050   29.1820   41.1650 C   0  0  0  0  0  0  0  0  0  0  0  0
   37.6890   31.6170   39.0950 H   0  0  0  0  0  0  0  0  0  0  0  0
   39.2390   29.9770   43.6400 H   0  0  0  0  0  0  0  0  0  0  0  0
   38.1570   27.9120   44.5950 H   0  0  0  0  0  0  0  0  0  0  0  0
   36.3890   26.7430   43.3290 H   0  0  0  0  0  0  0  0  0  0  0  0
   35.6570   27.5390   41.1650 H   0  0  0  0  0  0  0  0  0  0  0  0
   33.6850   28.9100   38.3520 C   0  0  0  0  0  0  0  0  0  0  0  0
   34.0540   28.8430   36.9680 C   0  0  0  0  0  0  0  0  0  0  0  0
   35.3700   29.1330   36.6290 C   0  0  0  0  0  0  0  0  0  0  0  0
   36.2250   29.4630   37.6210 N   0  0  0  0  0  0  0  0  0  0  0  0
   35.8550   29.5210   38.9270 C   0  0  0  0  0  0  0  0  0  0  0  0
   34.6000   29.2450   39.2640 N   0  0  0  0  0  0  0  0  0  0  0  0
   32.6630   28.6840   38.6120 H   0  0  0  0  0  0  0  0  0  0  0  0
   33.3470   28.5750   36.1910 H   0  0  0  0  0  0  0  0  0  0  0  0
   35.6780   29.0920   35.5950 H   0  0  0  0  0  0  0  0  0  0  0  0
   39.3760   31.8950   41.3970 C   0  0  0  0  0  0  0  0  0  0  0  0
   39.5030   31.9600   42.5150 H   0  0  0  0  0  0  0  0  0  0  0  0
   40.3350   31.4880   41.0110 H   0  0  0  0  0  0  0  0  0  0  0  0
   39.0950   33.2530   40.8330 C   0  0  0  0  0  0  0  0  0  0  0  0
   39.2350   34.0140   41.6560 H   0  0  0  0  0  0  0  0  0  0  0  0
   38.1370   33.4010   40.3540 H   0  0  0  0  0  0  0  0  0  0  0  0
   40.2180   33.5190   39.9130 N   0  0  0  0  0  0  0  0  0  0  0  0
   40.3070   33.0150   38.6810 N   0  0  0  0  0  0  0  0  0  0  0  0
   41.4380   33.4310   38.0940 C   0  0  0  0  0  0  0  0  0  0  0  0
   42.1160   34.2570   39.0130 C   0  0  0  0  0  0  0  0  0  0  0  0
   41.3030   34.2720   40.1310 C   0  0  0  0  0  0  0  0  0  0  0  0
   41.7420   33.1640   37.0970 H   0  0  0  0  0  0  0  0  0  0  0  0
   43.0490   34.7460   38.8490 H   0  0  0  0  0  0  0  0  0  0  0  0
   41.6290   35.0200   41.3470 C   0  0  0  0  0  0  0  0  0  0  0  0
   43.1230   35.1230   41.6000 C   0  0  0  0  0  0  0  0  0  0  0  0
   43.1210   36.0700   42.7820 C   0  0  0  0  0  0  0  0  0  0  0  0
   42.0060   37.0190   42.4930 C   0  0  0  0  0  0  0  0  0  0  0  0
   41.2770   36.4850   41.2600 C   0  0  0  0  0  0  0  0  0  0  0  0
  1  9  1  0  0  0  0
  2  1  2  0  0  0  0
  2  3  1  0  0  0  0
  3 24  1  0  0  0  0
  3  4  1  0  0  0  0
  4  5  1  0  0  0  0
  5 11  1  0  0  0  0
  5  6  2  0  0  0  0
  6 12  1  0  0  0  0
  7 13  1  0  0  0  0
  7  6  1  0  0  0  0
  8  7  2  0  0  0  0
  9  8  1  0  0  0  0
  9  4  2  0  0  0  0
 10  2  1  0  0  0  0
 14  8  1  0  0  0  0
 15 21  1  0  0  0  0
 15 20  1  0  0  0  0
 16 15  2  0  0  0  0
 17 16  1  0  0  0  0
 17 18  2  0  0  0  0
 18 19  1  0  0  0  0
 19 20  2  0  0  0  0
 19  1  1  0  0  0  0
 22 16  1  0  0  0  0
 23 17  1  0  0  0  0
 24 25  1  0  0  0  0
 26 24  1  0  0  0  0
 27 24  1  0  0  0  0
 27 28  1  0  0  0  0
 29 27  1  0  0  0  0
 30 34  1  0  0  0  0
 30 27  1  0  0  0  0
 31 30  1  0  0  0  0
 32 31  2  0  0  0  0
 32 33  1  0  0  0  0
 33 34  2  0  0  0  0
 34 37  1  0  0  0  0
 35 32  1  0  0  0  0
 36 33  1  0  0  0  0
 37 38  1  0  0  0  0
 38 39  1  0  0  0  0
 40 39  1  0  0  0  0
 41 37  1  0  0  0  0
 41 40  1  0  0  0  0
M  END
>  <minimizedAffinity>
-6.53594208

>  <minimizedRMSD>
2.59087515

$$$$
