
 OpenBabel03242509283D

 44 48  0  0  0  0  0  0  0  0999 V2000
   36.2240   30.0880   41.1660 C   0  0  0  0  0  0  0  0  0  0  0  0
   36.9090   30.8150   40.6660 H   0  0  0  0  0  0  0  0  0  0  0  0
   35.6980   30.6660   41.9540 H   0  0  0  0  0  0  0  0  0  0  0  0
   38.5340   27.9430   42.7340 C   0  0  0  0  0  0  0  0  0  0  0  0
   37.3790   27.2340   42.8880 C   0  0  0  0  0  0  0  0  0  0  0  0
   36.3640   27.9890   42.2960 C   0  0  0  0  0  0  0  0  0  0  0  0
   36.9830   29.0830   41.8370 N   0  0  0  0  0  0  0  0  0  0  0  0
   38.2540   29.0950   42.0720 N   0  0  0  0  0  0  0  0  0  0  0  0
   37.3590   26.2740   43.3910 H   0  0  0  0  0  0  0  0  0  0  0  0
   35.3450   27.6540   42.2790 H   0  0  0  0  0  0  0  0  0  0  0  0
   41.3740   25.9630   44.0970 C   0  0  0  0  0  0  0  0  0  0  0  0
   40.0800   26.2770   43.6710 C   0  0  0  0  0  0  0  0  0  0  0  0
   39.8650   27.5860   43.1790 C   0  0  0  0  0  0  0  0  0  0  0  0
   40.8860   28.4590   43.1390 N   0  0  0  0  0  0  0  0  0  0  0  0
   42.1260   28.0920   43.5700 C   0  0  0  0  0  0  0  0  0  0  0  0
   42.3650   26.8550   44.0430 N   0  0  0  0  0  0  0  0  0  0  0  0
   41.6110   24.9640   44.4910 H   0  0  0  0  0  0  0  0  0  0  0  0
   39.2860   25.5340   43.7230 H   0  0  0  0  0  0  0  0  0  0  0  0
   43.1760   29.1320   43.4800 C   0  0  0  0  0  3  0  0  0  0  0  0
   42.5520   30.4940   43.2320 C   0  0  0  0  0  2  0  0  0  0  0  0
   43.6200   31.4230   43.7990 C   0  0  0  0  0  2  0  0  0  0  0  0
   43.9040   30.7500   45.1230 C   0  0  0  0  0  2  0  0  0  0  0  0
   43.9910   29.2880   44.7260 C   0  0  0  0  0  2  0  0  0  0  0  0
   35.2990   29.5870   40.1020 C   0  0  0  0  0  0  0  0  0  0  0  0
   34.6470   30.5180   39.9880 H   0  0  0  0  0  0  0  0  0  0  0  0
   34.7750   28.7090   40.4460 H   0  0  0  0  0  0  0  0  0  0  0  0
   35.9110   29.4730   38.7530 C   0  0  0  0  0  0  0  0  0  0  0  0
   37.2260   29.6150   38.4230 C   0  0  0  0  0  0  0  0  0  0  0  0
   37.7410   29.5820   37.1620 C   0  0  0  0  0  0  0  0  0  0  0  0
   36.8910   29.3900   36.0920 C   0  0  0  0  0  0  0  0  0  0  0  0
   35.5480   29.2370   36.3610 C   0  0  0  0  0  0  0  0  0  0  0  0
   34.7510   29.0530   35.2570 C   0  0  0  0  0  0  0  0  0  0  0  0
   33.4020   28.8900   35.4100 C   0  0  0  0  0  0  0  0  0  0  0  0
   32.8610   28.9110   36.6880 C   0  0  0  0  0  0  0  0  0  0  0  0
   33.7090   29.0980   37.7440 C   0  0  0  0  0  0  0  0  0  0  0  0
   35.0500   29.2730   37.6640 C   0  0  0  0  0  0  0  0  0  0  0  0
   37.8960   29.7690   39.2770 H   0  0  0  0  0  0  0  0  0  0  0  0
   38.8100   29.7100   37.0580 H   0  0  0  0  0  0  0  0  0  0  0  0
   37.3050   29.3660   35.0940 H   0  0  0  0  0  0  0  0  0  0  0  0
   35.1430   29.0310   34.2500 H   0  0  0  0  0  0  0  0  0  0  0  0
   32.7350   28.7450   34.5670 H   0  0  0  0  0  0  0  0  0  0  0  0
   31.8020   28.7800   36.8020 H   0  0  0  0  0  0  0  0  0  0  0  0
   33.1080   29.0900   38.9900 O   0  0  0  0  0  0  0  0  0  0  0  0
   32.6860   28.2230   39.3190 H   0  0  0  0  0  0  0  0  0  0  0  0
  1  7  1  0  0  0  0
  1  3  1  0  0  0  0
  2  1  1  0  0  0  0
  4  5  1  0  0  0  0
  4 13  1  0  0  0  0
  5  9  1  0  0  0  0
  6  5  2  0  0  0  0
  7  8  1  0  0  0  0
  7  6  1  0  0  0  0
  8  4  2  0  0  0  0
 10  6  1  0  0  0  0
 11 17  1  0  0  0  0
 12 18  1  0  0  0  0
 12 11  2  0  0  0  0
 13 12  1  0  0  0  0
 14 13  2  0  0  0  0
 14 15  1  0  0  0  0
 15 16  2  0  0  0  0
 16 11  1  0  0  0  0
 19 15  1  0  0  0  0
 19 23  1  0  0  0  0
 20 19  1  0  0  0  0
 20 21  1  0  0  0  0
 21 22  1  0  0  0  0
 23 22  1  0  0  0  0
 24 26  1  0  0  0  0
 24  1  1  0  0  0  0
 25 24  1  0  0  0  0
 27 24  1  0  0  0  0
 28 27  1  0  0  0  0
 28 37  1  0  0  0  0
 29 28  2  0  0  0  0
 30 31  2  0  0  0  0
 30 29  1  0  0  0  0
 31 36  1  0  0  0  0
 32 33  2  0  0  0  0
 32 31  1  0  0  0  0
 33 34  1  0  0  0  0
 34 42  1  0  0  0  0
 34 35  2  0  0  0  0
 35 43  1  0  0  0  0
 36 35  1  0  0  0  0
 36 27  2  0  0  0  0
 38 29  1  0  0  0  0
 39 30  1  0  0  0  0
 40 32  1  0  0  0  0
 41 33  1  0  0  0  0
 43 44  1  0  0  0  0
M  END
>  <minimizedAffinity>
-6.36648035

>  <minimizedRMSD>
0.607765496

$$$$
