
 OpenBabel03242508463D

 32 35  0  0  1  0  0  0  0  0999 V2000
   37.8900   27.3390   42.7180 C   0  0  2  0  0  0  0  0  0  0  0  0
   38.9370   27.6520   43.6970 C   0  0  0  0  0  0  0  0  0  0  0  0
   39.7150   26.3580   43.8650 C   0  0  0  0  0  0  0  0  0  0  0  0
   39.2780   25.4600   42.7570 C   0  0  0  0  0  0  0  0  0  0  0  0
   38.5420   26.3600   41.7630 C   0  0  1  0  0  0  0  0  0  0  0  0
   37.0800   26.7250   43.2150 H   0  0  0  0  0  0  0  0  0  0  0  0
   39.6060   28.4850   43.5020 H   0  0  0  0  0  0  0  0  0  0  0  0
   38.4370   27.8330   44.6890 H   0  0  0  0  0  0  0  0  0  0  0  0
   40.7940   26.5760   43.7060 H   0  0  0  0  0  0  0  0  0  0  0  0
   39.6170   25.9210   44.8620 H   0  0  0  0  0  0  0  0  0  0  0  0
   40.1100   24.9240   42.2620 H   0  0  0  0  0  0  0  0  0  0  0  0
   38.5880   24.7190   43.2110 H   0  0  0  0  0  0  0  0  0  0  0  0
   39.2110   26.8330   41.0520 H   0  0  0  0  0  0  0  0  0  0  0  0
   37.9060   29.7490   41.9000 C   0  0  0  0  0  0  0  0  0  0  0  0
   37.2950   28.4710   42.0240 C   0  0  0  0  0  0  0  0  0  0  0  0
   36.0540   28.2710   41.4430 C   0  0  0  0  0  0  0  0  0  0  0  0
   35.4650   29.3220   40.7700 N   0  0  0  0  0  0  0  0  0  0  0  0
   36.0840   30.5490   40.6700 C   0  0  0  0  0  0  0  0  0  0  0  0
   37.3230   30.7500   41.2480 N   0  0  0  0  0  0  0  0  0  0  0  0
   38.8590   29.8990   42.3470 H   0  0  0  0  0  0  0  0  0  0  0  0
   35.4840   27.3690   41.4570 H   0  0  0  0  0  0  0  0  0  0  0  0
   35.5710   31.3220   40.1340 H   0  0  0  0  0  0  0  0  0  0  0  0
   37.5840   25.3990   41.1440 C   0  0  0  0  0  0  0  0  0  0  0  0
   36.8360   24.5520   41.8710 N   0  0  0  0  0  0  0  0  0  0  0  0
   36.1120   23.8510   41.0230 O   0  0  0  0  0  0  0  0  0  0  0  0
   36.3960   24.2470   39.7990 C   0  0  0  0  0  0  0  0  0  0  0  0
   37.3110   25.2110   39.8320 N   0  0  0  0  0  0  0  0  0  0  0  0
   35.7370   23.6400   38.6210 C   0  0  0  0  0  0  0  0  0  0  0  0
   34.7950   24.5510   37.9030 C   0  0  0  0  0  0  0  0  0  0  0  0
   33.5510   23.6940   37.6470 C   0  0  0  0  0  0  0  0  0  0  0  0
   33.4730   22.8910   38.9310 C   0  0  0  0  0  0  0  0  0  0  0  0
   34.9140   22.4520   39.1090 C   0  0  0  0  0  0  0  0  0  0  0  0
  1  6  1  1  0  0  0
  1  2  1  0  0  0  0
  2  3  1  0  0  0  0
  2  8  1  0  0  0  0
  3 10  1  0  0  0  0
  4 12  1  0  0  0  0
  4  3  1  0  0  0  0
  5 13  1  6  0  0  0
  5  1  1  0  0  0  0
  5  4  1  0  0  0  0
  7  2  1  0  0  0  0
  9  3  1  0  0  0  0
 11  4  1  0  0  0  0
 14 15  1  0  0  0  0
 14 20  1  0  0  0  0
 15  1  1  0  0  0  0
 16 21  1  0  0  0  0
 16 15  2  0  0  0  0
 17 16  1  0  0  0  0
 18 17  2  0  0  0  0
 18 19  1  0  0  0  0
 19 14  2  0  0  0  0
 22 18  1  0  0  0  0
 23  5  1  0  0  0  0
 23 24  2  0  0  0  0
 25 24  1  0  0  0  0
 26 27  2  0  0  0  0
 26 25  1  0  0  0  0
 27 23  1  0  0  0  0
 28 32  1  0  0  0  0
 28 26  1  0  0  0  0
 29 28  1  0  0  0  0
 30 29  1  0  0  0  0
 30 31  1  0  0  0  0
 31 32  1  0  0  0  0
M  END
>  <minimizedAffinity>
-5.22093391

>  <minimizedRMSD>
0.706268787

$$$$
