
 OpenBabel03242509283D

 44 48  0  0  0  0  0  0  0  0999 V2000
   36.0390   30.0440   40.9190 C   0  0  0  0  0  0  0  0  0  0  0  0
   36.7050   30.7780   40.4040 H   0  0  0  0  0  0  0  0  0  0  0  0
   35.4840   30.6270   41.6820 H   0  0  0  0  0  0  0  0  0  0  0  0
   38.3930   28.0460   42.6100 C   0  0  0  0  0  0  0  0  0  0  0  0
   37.2800   27.2630   42.6980 C   0  0  0  0  0  0  0  0  0  0  0  0
   36.2520   27.9530   42.0520 C   0  0  0  0  0  0  0  0  0  0  0  0
   36.8230   29.0860   41.6290 N   0  0  0  0  0  0  0  0  0  0  0  0
   38.0760   29.1810   41.9350 N   0  0  0  0  0  0  0  0  0  0  0  0
   37.2940   26.3010   43.1990 H   0  0  0  0  0  0  0  0  0  0  0  0
   35.2600   27.5530   41.9780 H   0  0  0  0  0  0  0  0  0  0  0  0
   41.2290   26.3090   44.2790 C   0  0  0  0  0  0  0  0  0  0  0  0
   39.9420   26.5420   43.7860 C   0  0  0  0  0  0  0  0  0  0  0  0
   39.7180   27.7730   43.1270 C   0  0  0  0  0  0  0  0  0  0  0  0
   40.7250   28.6540   43.0010 N   0  0  0  0  0  0  0  0  0  0  0  0
   41.9600   28.3690   43.5040 C   0  0  0  0  0  0  0  0  0  0  0  0
   42.2070   27.2070   44.1360 N   0  0  0  0  0  0  0  0  0  0  0  0
   41.4720   25.3730   44.8020 H   0  0  0  0  0  0  0  0  0  0  0  0
   39.1590   25.7960   43.9140 H   0  0  0  0  0  0  0  0  0  0  0  0
   42.9940   29.4090   43.3080 C   0  0  0  0  0  0  0  0  0  0  0  0
   42.3470   30.7590   43.0560 C   0  0  0  0  0  0  0  0  0  0  0  0
   43.4430   31.7110   43.5160 C   0  0  0  0  0  0  0  0  0  0  0  0
   43.8200   31.0860   44.8410 C   0  0  0  0  0  0  0  0  0  0  0  0
   43.8890   29.6130   44.4910 C   0  0  0  0  0  0  0  0  0  0  0  0
   35.1450   29.4790   39.8600 C   0  0  0  0  0  0  0  0  0  0  0  0
   34.4260   30.3590   39.7530 H   0  0  0  0  0  0  0  0  0  0  0  0
   34.6900   28.5640   40.2060 H   0  0  0  0  0  0  0  0  0  0  0  0
   35.7540   29.4120   38.5060 C   0  0  0  0  0  0  0  0  0  0  0  0
   37.0690   29.5590   38.1790 C   0  0  0  0  0  0  0  0  0  0  0  0
   37.5810   29.5710   36.9160 C   0  0  0  0  0  0  0  0  0  0  0  0
   36.7290   29.4230   35.8420 C   0  0  0  0  0  0  0  0  0  0  0  0
   35.3850   29.2680   36.1080 C   0  0  0  0  0  0  0  0  0  0  0  0
   34.5850   29.1300   35.0000 C   0  0  0  0  0  0  0  0  0  0  0  0
   33.2350   28.9690   35.1490 C   0  0  0  0  0  0  0  0  0  0  0  0
   32.6970   28.9440   36.4280 C   0  0  0  0  0  0  0  0  0  0  0  0
   33.5480   29.0870   37.4880 C   0  0  0  0  0  0  0  0  0  0  0  0
   34.8900   29.2580   37.4120 C   0  0  0  0  0  0  0  0  0  0  0  0
   37.7410   29.6770   39.0370 H   0  0  0  0  0  0  0  0  0  0  0  0
   38.6510   29.6960   36.8160 H   0  0  0  0  0  0  0  0  0  0  0  0
   37.1400   29.4350   34.8420 H   0  0  0  0  0  0  0  0  0  0  0  0
   34.9750   29.1430   33.9910 H   0  0  0  0  0  0  0  0  0  0  0  0
   32.5660   28.8590   34.3020 H   0  0  0  0  0  0  0  0  0  0  0  0
   31.6370   28.8150   36.5390 H   0  0  0  0  0  0  0  0  0  0  0  0
   32.9500   29.0360   38.7340 O   0  0  0  0  0  0  0  0  0  0  0  0
   32.5240   28.1580   39.0320 H   0  0  0  0  0  0  0  0  0  0  0  0
  1  7  1  0  0  0  0
  1  3  1  0  0  0  0
  2  1  1  0  0  0  0
  4  5  1  0  0  0  0
  4 13  1  0  0  0  0
  5  9  1  0  0  0  0
  6  5  2  0  0  0  0
  7  8  1  0  0  0  0
  7  6  1  0  0  0  0
  8  4  2  0  0  0  0
 10  6  1  0  0  0  0
 11 17  1  0  0  0  0
 12 18  1  0  0  0  0
 12 11  2  0  0  0  0
 13 12  1  0  0  0  0
 14 13  2  0  0  0  0
 14 15  1  0  0  0  0
 15 16  2  0  0  0  0
 16 11  1  0  0  0  0
 19 15  1  0  0  0  0
 19 23  1  0  0  0  0
 20 19  1  0  0  0  0
 20 21  1  0  0  0  0
 21 22  1  0  0  0  0
 23 22  1  0  0  0  0
 24 26  1  0  0  0  0
 24  1  1  0  0  0  0
 25 24  1  0  0  0  0
 27 24  1  0  0  0  0
 28 27  1  0  0  0  0
 28 37  1  0  0  0  0
 29 28  2  0  0  0  0
 30 31  2  0  0  0  0
 30 29  1  0  0  0  0
 31 36  1  0  0  0  0
 32 33  2  0  0  0  0
 32 31  1  0  0  0  0
 33 34  1  0  0  0  0
 34 42  1  0  0  0  0
 34 35  2  0  0  0  0
 35 43  1  0  0  0  0
 36 35  1  0  0  0  0
 36 27  2  0  0  0  0
 38 29  1  0  0  0  0
 39 30  1  0  0  0  0
 40 32  1  0  0  0  0
 41 33  1  0  0  0  0
 43 44  1  0  0  0  0
M  END
>  <minimizedAffinity>
-6.40145874

>  <minimizedRMSD>
0.386202395

$$$$
