
 OpenBabel03242509283D

 48 52  0  0  0  0  0  0  0  0999 V2000
   36.1430   30.0710   41.1060 C   0  0  0  0  0  0  0  0  0  0  0  0
   35.5340   30.5660   41.9180 H   0  0  0  0  0  0  0  0  0  0  0  0
   36.7630   30.8740   40.6580 H   0  0  0  0  0  0  0  0  0  0  0  0
   38.5540   28.0710   42.6950 C   0  0  0  0  0  0  0  0  0  0  0  0
   37.4460   27.2690   42.7900 C   0  0  0  0  0  0  0  0  0  0  0  0
   36.3990   27.9640   42.1800 C   0  0  0  0  0  0  0  0  0  0  0  0
   36.9570   29.1150   41.7730 N   0  0  0  0  0  0  0  0  0  0  0  0
   38.2150   29.2220   42.0540 N   0  0  0  0  0  0  0  0  0  0  0  0
   37.4000   26.2790   43.2530 H   0  0  0  0  0  0  0  0  0  0  0  0
   35.4070   27.5610   42.1120 H   0  0  0  0  0  0  0  0  0  0  0  0
   41.4660   26.2510   44.1530 C   0  0  0  0  0  0  0  0  0  0  0  0
   40.1720   26.4970   43.6770 C   0  0  0  0  0  0  0  0  0  0  0  0
   39.8820   27.7790   43.1900 C   0  0  0  0  0  0  0  0  0  0  0  0
   40.8460   28.7420   43.1880 N   0  0  0  0  0  0  0  0  0  0  0  0
   42.0930   28.4460   43.6640 C   0  0  0  0  0  0  0  0  0  0  0  0
   42.3920   27.2200   44.1370 N   0  0  0  0  0  0  0  0  0  0  0  0
   41.6820   25.2640   44.5260 H   0  0  0  0  0  0  0  0  0  0  0  0
   39.4520   25.7040   43.7010 H   0  0  0  0  0  0  0  0  0  0  0  0
   43.0940   29.5020   43.6450 C   0  0  0  0  0  0  0  0  0  0  0  0
   44.4050   29.1920   43.9300 C   0  0  0  0  0  0  0  0  0  0  0  0
   44.7600   28.2140   44.1730 H   0  0  0  0  0  0  0  0  0  0  0  0
   45.2890   30.2380   43.8920 C   0  0  0  0  0  3  0  0  0  0  0  0
   44.9070   31.5060   43.5910 C   0  0  0  0  0  0  0  0  0  0  0  0
   45.6910   32.2680   43.5890 H   0  0  0  0  0  0  0  0  0  0  0  0
   43.5800   31.8360   43.3000 C   0  0  0  0  0  0  0  0  0  0  0  0
   43.3110   32.8460   43.0670 H   0  0  0  0  0  0  0  0  0  0  0  0
   42.7120   30.7900   43.3410 C   0  0  0  0  0  3  0  0  0  0  0  0
   35.2450   29.5340   40.0380 C   0  0  0  0  0  0  0  0  0  0  0  0
   34.5570   30.4380   39.9160 H   0  0  0  0  0  0  0  0  0  0  0  0
   34.7490   28.6440   40.3950 H   0  0  0  0  0  0  0  0  0  0  0  0
   35.8720   29.4400   38.6990 C   0  0  0  0  0  0  0  0  0  0  0  0
   37.1910   29.5750   38.3790 C   0  0  0  0  0  0  0  0  0  0  0  0
   37.7190   29.5510   37.1240 C   0  0  0  0  0  0  0  0  0  0  0  0
   36.8790   29.3800   36.0420 C   0  0  0  0  0  0  0  0  0  0  0  0
   35.5210   29.2340   36.2960 C   0  0  0  0  0  0  0  0  0  0  0  0
   34.7430   29.0670   35.1810 C   0  0  0  0  0  0  0  0  0  0  0  0
   33.3940   28.9100   35.3170 C   0  0  0  0  0  0  0  0  0  0  0  0
   32.8420   28.9210   36.5920 C   0  0  0  0  0  0  0  0  0  0  0  0
   33.6770   29.0920   37.6500 C   0  0  0  0  0  0  0  0  0  0  0  0
   35.0230   29.2600   37.5910 C   0  0  0  0  0  0  0  0  0  0  0  0
   37.8630   29.7120   39.2260 H   0  0  0  0  0  0  0  0  0  0  0  0
   38.7880   29.6700   37.0120 H   0  0  0  0  0  0  0  0  0  0  0  0
   37.2840   29.3620   35.0470 H   0  0  0  0  0  0  0  0  0  0  0  0
   35.1590   29.0530   34.1710 H   0  0  0  0  0  0  0  0  0  0  0  0
   32.7810   28.7810   34.4330 H   0  0  0  0  0  0  0  0  0  0  0  0
   31.7910   28.7960   36.6740 H   0  0  0  0  0  0  0  0  0  0  0  0
   33.0630   29.0770   38.8930 O   0  0  0  0  0  0  0  0  0  0  0  0
   32.5380   28.2960   39.2670 H   0  0  0  0  0  0  0  0  0  0  0  0
  1  7  1  0  0  0  0
  1  2  1  0  0  0  0
  3  1  1  0  0  0  0
  4  5  1  0  0  0  0
  4 13  1  0  0  0  0
  5  9  1  0  0  0  0
  6  5  2  0  0  0  0
  7  8  1  0  0  0  0
  7  6  1  0  0  0  0
  8  4  2  0  0  0  0
 10  6  1  0  0  0  0
 11 17  1  0  0  0  0
 12 18  1  0  0  0  0
 12 11  2  0  0  0  0
 13 12  1  0  0  0  0
 14 13  2  0  0  0  0
 14 15  1  0  0  0  0
 15 16  2  0  0  0  0
 16 11  1  0  0  0  0
 19 15  1  0  0  0  0
 19 20  1  0  0  0  0
 20 21  1  0  0  0  0
 22 20  2  0  0  0  0
 23 22  1  0  0  0  0
 24 23  1  0  0  0  0
 25 27  1  0  0  0  0
 25 23  2  0  0  0  0
 26 25  1  0  0  0  0
 27 19  2  0  0  0  0
 28 30  1  0  0  0  0
 28  1  1  0  0  0  0
 29 28  1  0  0  0  0
 31 28  1  0  0  0  0
 32 31  1  0  0  0  0
 32 41  1  0  0  0  0
 33 32  2  0  0  0  0
 34 35  2  0  0  0  0
 34 33  1  0  0  0  0
 35 40  1  0  0  0  0
 36 37  2  0  0  0  0
 36 35  1  0  0  0  0
 37 38  1  0  0  0  0
 38 46  1  0  0  0  0
 38 39  2  0  0  0  0
 39 47  1  0  0  0  0
 40 39  1  0  0  0  0
 40 31  2  0  0  0  0
 42 33  1  0  0  0  0
 43 34  1  0  0  0  0
 44 36  1  0  0  0  0
 45 37  1  0  0  0  0
 47 48  1  0  0  0  0
M  END
>  <minimizedAffinity>
-6.17503881

>  <minimizedRMSD>
0.492979407

$$$$
