
 OpenBabel03242509283D

 48 52  0  0  0  0  0  0  0  0999 V2000
   36.1240   30.0580   41.1010 C   0  0  0  0  0  0  0  0  0  0  0  0
   35.5100   30.5470   41.9140 H   0  0  0  0  0  0  0  0  0  0  0  0
   36.7390   30.8650   40.6570 H   0  0  0  0  0  0  0  0  0  0  0  0
   38.5430   28.0670   42.6890 C   0  0  0  0  0  0  0  0  0  0  0  0
   37.4400   27.2590   42.7810 C   0  0  0  0  0  0  0  0  0  0  0  0
   36.3890   27.9500   42.1720 C   0  0  0  0  0  0  0  0  0  0  0  0
   36.9410   29.1050   41.7680 N   0  0  0  0  0  0  0  0  0  0  0  0
   38.1990   29.2170   42.0490 N   0  0  0  0  0  0  0  0  0  0  0  0
   37.3980   26.2680   43.2430 H   0  0  0  0  0  0  0  0  0  0  0  0
   35.4000   27.5430   42.1030 H   0  0  0  0  0  0  0  0  0  0  0  0
   41.4640   26.2590   44.1420 C   0  0  0  0  0  0  0  0  0  0  0  0
   40.1700   26.4990   43.6660 C   0  0  0  0  0  0  0  0  0  0  0  0
   39.8730   27.7810   43.1840 C   0  0  0  0  0  0  0  0  0  0  0  0
   40.8310   28.7490   43.1870 N   0  0  0  0  0  0  0  0  0  0  0  0
   42.0790   28.4590   43.6630 C   0  0  0  0  0  0  0  0  0  0  0  0
   42.3840   27.2330   44.1320 N   0  0  0  0  0  0  0  0  0  0  0  0
   41.6860   25.2710   44.5120 H   0  0  0  0  0  0  0  0  0  0  0  0
   39.4540   25.7010   43.6860 H   0  0  0  0  0  0  0  0  0  0  0  0
   43.0730   29.5220   43.6500 C   0  0  0  0  0  0  0  0  0  0  0  0
   42.6770   30.8100   43.3650 C   0  0  0  0  0  0  0  0  0  0  0  0
   41.6710   31.1040   43.1480 H   0  0  0  0  0  0  0  0  0  0  0  0
   43.6670   31.7570   43.3710 C   0  0  0  0  0  3  0  0  0  0  0  0
   44.9640   31.4540   43.6380 C   0  0  0  0  0  0  0  0  0  0  0  0
   45.6760   32.2830   43.6170 H   0  0  0  0  0  0  0  0  0  0  0  0
   45.3820   30.1510   43.9280 C   0  0  0  0  0  0  0  0  0  0  0  0
   46.4110   29.9440   44.1340 H   0  0  0  0  0  0  0  0  0  0  0  0
   44.3890   29.2210   43.9200 C   0  0  0  0  0  3  0  0  0  0  0  0
   35.2300   29.5190   40.0300 C   0  0  0  0  0  0  0  0  0  0  0  0
   34.5380   30.4180   39.9090 H   0  0  0  0  0  0  0  0  0  0  0  0
   34.7370   28.6250   40.3850 H   0  0  0  0  0  0  0  0  0  0  0  0
   35.8600   29.4300   38.6930 C   0  0  0  0  0  0  0  0  0  0  0  0
   37.1810   29.5630   38.3770 C   0  0  0  0  0  0  0  0  0  0  0  0
   37.7120   29.5450   37.1230 C   0  0  0  0  0  0  0  0  0  0  0  0
   36.8740   29.3810   36.0380 C   0  0  0  0  0  0  0  0  0  0  0  0
   35.5150   29.2360   36.2880 C   0  0  0  0  0  0  0  0  0  0  0  0
   34.7400   29.0760   35.1700 C   0  0  0  0  0  0  0  0  0  0  0  0
   33.3900   28.9210   35.3020 C   0  0  0  0  0  0  0  0  0  0  0  0
   32.8350   28.9270   36.5750 C   0  0  0  0  0  0  0  0  0  0  0  0
   33.6670   29.0910   37.6360 C   0  0  0  0  0  0  0  0  0  0  0  0
   35.0140   29.2570   37.5820 C   0  0  0  0  0  0  0  0  0  0  0  0
   37.8500   29.6950   39.2260 H   0  0  0  0  0  0  0  0  0  0  0  0
   38.7810   29.6620   37.0140 H   0  0  0  0  0  0  0  0  0  0  0  0
   37.2820   29.3670   35.0440 H   0  0  0  0  0  0  0  0  0  0  0  0
   35.1580   29.0660   34.1610 H   0  0  0  0  0  0  0  0  0  0  0  0
   32.7790   28.7970   34.4160 H   0  0  0  0  0  0  0  0  0  0  0  0
   31.7840   28.8020   36.6550 H   0  0  0  0  0  0  0  0  0  0  0  0
   33.0500   29.0700   38.8780 O   0  0  0  0  0  0  0  0  0  0  0  0
   32.5230   28.2890   39.2470 H   0  0  0  0  0  0  0  0  0  0  0  0
  1  7  1  0  0  0  0
  1  2  1  0  0  0  0
  3  1  1  0  0  0  0
  4  5  1  0  0  0  0
  4 13  1  0  0  0  0
  5  9  1  0  0  0  0
  6  5  2  0  0  0  0
  7  8  1  0  0  0  0
  7  6  1  0  0  0  0
  8  4  2  0  0  0  0
 10  6  1  0  0  0  0
 11 17  1  0  0  0  0
 12 18  1  0  0  0  0
 12 11  2  0  0  0  0
 13 14  2  0  0  0  0
 13 12  1  0  0  0  0
 14 15  1  0  0  0  0
 15 16  2  0  0  0  0
 16 11  1  0  0  0  0
 19 15  1  0  0  0  0
 19 27  1  0  0  0  0
 20 22  1  0  0  0  0
 20 19  2  0  0  0  0
 21 20  1  0  0  0  0
 22 23  2  0  0  0  0
 23 25  1  0  0  0  0
 24 23  1  0  0  0  0
 25 26  1  0  0  0  0
 27 25  2  0  0  0  0
 28 30  1  0  0  0  0
 28  1  1  0  0  0  0
 29 28  1  0  0  0  0
 31 28  1  0  0  0  0
 32 31  1  0  0  0  0
 32 41  1  0  0  0  0
 33 32  2  0  0  0  0
 34 35  2  0  0  0  0
 34 33  1  0  0  0  0
 35 40  1  0  0  0  0
 36 37  2  0  0  0  0
 36 35  1  0  0  0  0
 37 38  1  0  0  0  0
 38 46  1  0  0  0  0
 38 39  2  0  0  0  0
 39 47  1  0  0  0  0
 40 39  1  0  0  0  0
 40 31  2  0  0  0  0
 42 33  1  0  0  0  0
 43 34  1  0  0  0  0
 44 36  1  0  0  0  0
 45 37  1  0  0  0  0
 47 48  1  0  0  0  0
M  END
>  <minimizedAffinity>
-6.17159033

>  <minimizedRMSD>
0.483972102

$$$$
