
 OpenBabel03242509283D

 48 52  0  0  0  0  0  0  0  0999 V2000
   36.0650   29.9730   40.9530 C   0  0  0  0  0  0  0  0  0  0  0  0
   35.4590   30.4820   41.7590 H   0  0  0  0  0  0  0  0  0  0  0  0
   36.7070   30.7620   40.5120 H   0  0  0  0  0  0  0  0  0  0  0  0
   38.4140   27.9180   42.5630 C   0  0  0  0  0  0  0  0  0  0  0  0
   37.2870   27.1430   42.6500 C   0  0  0  0  0  0  0  0  0  0  0  0
   36.2610   27.8620   42.0310 C   0  0  0  0  0  0  0  0  0  0  0  0
   36.8500   28.9990   41.6280 N   0  0  0  0  0  0  0  0  0  0  0  0
   38.1090   29.0750   41.9180 N   0  0  0  0  0  0  0  0  0  0  0  0
   37.2130   26.1550   43.1140 H   0  0  0  0  0  0  0  0  0  0  0  0
   35.2610   27.4840   41.9570 H   0  0  0  0  0  0  0  0  0  0  0  0
   41.3240   25.9890   43.8770 C   0  0  0  0  0  0  0  0  0  0  0  0
   40.0430   26.2650   43.3860 C   0  0  0  0  0  0  0  0  0  0  0  0
   39.7310   27.5940   43.0680 C   0  0  0  0  0  0  0  0  0  0  0  0
   40.6650   28.5720   43.2380 N   0  0  0  0  0  0  0  0  0  0  0  0
   41.9010   28.2460   43.7210 C   0  0  0  0  0  0  0  0  0  0  0  0
   42.2190   26.9740   44.0340 N   0  0  0  0  0  0  0  0  0  0  0  0
   41.5570   24.9660   44.1210 H   0  0  0  0  0  0  0  0  0  0  0  0
   39.3470   25.4580   43.2710 H   0  0  0  0  0  0  0  0  0  0  0  0
   42.8680   29.3200   43.8890 C   0  0  0  0  0  0  0  0  0  0  0  0
   42.6440   30.5290   43.2680 C   0  0  0  0  0  0  0  0  0  0  0  0
   41.7960   30.7520   42.6550 H   0  0  0  0  0  0  0  0  0  0  0  0
   43.5980   31.4930   43.4710 C   0  0  0  0  0  3  0  0  0  0  0  0
   44.6990   31.2790   44.2360 C   0  0  0  0  0  0  0  0  0  0  0  0
   45.3980   32.1130   44.3340 H   0  0  0  0  0  0  0  0  0  0  0  0
   44.9400   30.0560   44.8720 C   0  0  0  0  0  0  0  0  0  0  0  0
   45.8180   29.9190   45.4690 H   0  0  0  0  0  0  0  0  0  0  0  0
   43.9860   29.1090   44.6630 C   0  0  0  0  0  3  0  0  0  0  0  0
   35.1660   29.4580   39.8750 C   0  0  0  0  0  0  0  0  0  0  0  0
   34.4750   30.3610   39.7760 H   0  0  0  0  0  0  0  0  0  0  0  0
   34.6750   28.5570   40.2130 H   0  0  0  0  0  0  0  0  0  0  0  0
   35.7900   29.3970   38.5330 C   0  0  0  0  0  0  0  0  0  0  0  0
   37.1090   29.5360   38.2130 C   0  0  0  0  0  0  0  0  0  0  0  0
   37.6340   29.5440   36.9570 C   0  0  0  0  0  0  0  0  0  0  0  0
   36.7910   29.4050   35.8720 C   0  0  0  0  0  0  0  0  0  0  0  0
   35.4330   29.2570   36.1260 C   0  0  0  0  0  0  0  0  0  0  0  0
   34.6510   29.1230   35.0090 C   0  0  0  0  0  0  0  0  0  0  0  0
   33.3020   28.9680   35.1440 C   0  0  0  0  0  0  0  0  0  0  0  0
   32.7530   28.9470   36.4190 C   0  0  0  0  0  0  0  0  0  0  0  0
   33.5910   29.0860   37.4800 C   0  0  0  0  0  0  0  0  0  0  0  0
   34.9380   29.2510   37.4220 C   0  0  0  0  0  0  0  0  0  0  0  0
   37.7830   29.6470   39.0620 H   0  0  0  0  0  0  0  0  0  0  0  0
   38.7030   29.6610   36.8450 H   0  0  0  0  0  0  0  0  0  0  0  0
   37.1940   29.4130   34.8770 H   0  0  0  0  0  0  0  0  0  0  0  0
   35.0650   29.1350   33.9970 H   0  0  0  0  0  0  0  0  0  0  0  0
   32.6860   28.8650   34.2580 H   0  0  0  0  0  0  0  0  0  0  0  0
   31.7020   28.8230   36.5010 H   0  0  0  0  0  0  0  0  0  0  0  0
   32.9800   29.0390   38.7240 O   0  0  0  0  0  0  0  0  0  0  0  0
   32.4530   28.2500   39.0780 H   0  0  0  0  0  0  0  0  0  0  0  0
  1  7  1  0  0  0  0
  1  2  1  0  0  0  0
  3  1  1  0  0  0  0
  4  5  1  0  0  0  0
  4 13  1  0  0  0  0
  5  9  1  0  0  0  0
  6  5  2  0  0  0  0
  7  8  1  0  0  0  0
  7  6  1  0  0  0  0
  8  4  2  0  0  0  0
 10  6  1  0  0  0  0
 11 16  1  0  0  0  0
 11 17  1  0  0  0  0
 12 11  2  0  0  0  0
 13 14  2  0  0  0  0
 13 12  1  0  0  0  0
 14 15  1  0  0  0  0
 15 19  1  0  0  0  0
 15 16  2  0  0  0  0
 18 12  1  0  0  0  0
 19 27  1  0  0  0  0
 20 22  1  0  0  0  0
 20 19  2  0  0  0  0
 21 20  1  0  0  0  0
 22 23  2  0  0  0  0
 23 24  1  0  0  0  0
 23 25  1  0  0  0  0
 25 26  1  0  0  0  0
 27 25  2  0  0  0  0
 28 30  1  0  0  0  0
 28  1  1  0  0  0  0
 29 28  1  0  0  0  0
 31 28  1  0  0  0  0
 32 31  1  0  0  0  0
 32 41  1  0  0  0  0
 33 32  2  0  0  0  0
 34 35  2  0  0  0  0
 34 33  1  0  0  0  0
 35 40  1  0  0  0  0
 36 37  2  0  0  0  0
 36 35  1  0  0  0  0
 37 38  1  0  0  0  0
 38 46  1  0  0  0  0
 38 39  2  0  0  0  0
 39 47  1  0  0  0  0
 40 39  1  0  0  0  0
 40 31  2  0  0  0  0
 42 33  1  0  0  0  0
 43 34  1  0  0  0  0
 44 36  1  0  0  0  0
 45 37  1  0  0  0  0
 47 48  1  0  0  0  0
M  END
>  <minimizedAffinity>
-6.15224266

>  <minimizedRMSD>
0.753101289

$$$$
