
 OpenBabel03242509283D

 48 52  0  0  0  0  0  0  0  0999 V2000
   36.1270   30.0580   41.1000 C   0  0  0  0  0  0  0  0  0  0  0  0
   35.5120   30.5460   41.9120 H   0  0  0  0  0  0  0  0  0  0  0  0
   36.7360   30.8690   40.6510 H   0  0  0  0  0  0  0  0  0  0  0  0
   38.5650   28.0920   42.6900 C   0  0  0  0  0  0  0  0  0  0  0  0
   37.4680   27.2740   42.7840 C   0  0  0  0  0  0  0  0  0  0  0  0
   36.4120   27.9540   42.1730 C   0  0  0  0  0  0  0  0  0  0  0  0
   36.9540   29.1130   41.7680 N   0  0  0  0  0  0  0  0  0  0  0  0
   38.2100   29.2380   42.0490 N   0  0  0  0  0  0  0  0  0  0  0  0
   37.4360   26.2830   43.2460 H   0  0  0  0  0  0  0  0  0  0  0  0
   35.4260   27.5380   42.1050 H   0  0  0  0  0  0  0  0  0  0  0  0
   41.4930   26.3210   44.1760 C   0  0  0  0  0  0  0  0  0  0  0  0
   40.1960   26.5490   43.7000 C   0  0  0  0  0  0  0  0  0  0  0  0
   39.8960   27.8180   43.1860 C   0  0  0  0  0  0  0  0  0  0  0  0
   40.8550   28.7860   43.1580 N   0  0  0  0  0  0  0  0  0  0  0  0
   42.1050   28.5090   43.6360 C   0  0  0  0  0  0  0  0  0  0  0  0
   42.4130   27.2950   44.1350 N   0  0  0  0  0  0  0  0  0  0  0  0
   41.7160   25.3440   44.5700 H   0  0  0  0  0  0  0  0  0  0  0  0
   39.4800   25.7530   43.7450 H   0  0  0  0  0  0  0  0  0  0  0  0
   43.1000   29.5700   43.5890 C   0  0  0  0  0  0  0  0  0  0  0  0
   43.3800   30.1760   42.3830 C   0  0  0  0  0  0  0  0  0  0  0  0
   42.9160   29.9250   41.4530 H   0  0  0  0  0  0  0  0  0  0  0  0
   44.3270   31.1660   42.4170 C   0  0  0  0  0  3  0  0  0  0  0  0
   44.9550   31.5350   43.5630 C   0  0  0  0  0  0  0  0  0  0  0  0
   45.6940   32.3360   43.4800 H   0  0  0  0  0  0  0  0  0  0  0  0
   44.6810   30.9300   44.7930 C   0  0  0  0  0  0  0  0  0  0  0  0
   45.1940   31.2450   45.6780 H   0  0  0  0  0  0  0  0  0  0  0  0
   43.7400   29.9480   44.7460 C   0  0  0  0  0  3  0  0  0  0  0  0
   35.2360   29.5090   40.0320 C   0  0  0  0  0  0  0  0  0  0  0  0
   34.5360   30.4030   39.9100 H   0  0  0  0  0  0  0  0  0  0  0  0
   34.7510   28.6120   40.3900 H   0  0  0  0  0  0  0  0  0  0  0  0
   35.8630   29.4220   38.6930 C   0  0  0  0  0  0  0  0  0  0  0  0
   37.1830   29.5530   38.3750 C   0  0  0  0  0  0  0  0  0  0  0  0
   37.7120   29.5360   37.1210 C   0  0  0  0  0  0  0  0  0  0  0  0
   36.8720   29.3770   36.0370 C   0  0  0  0  0  0  0  0  0  0  0  0
   35.5130   29.2350   36.2890 C   0  0  0  0  0  0  0  0  0  0  0  0
   34.7350   29.0800   35.1720 C   0  0  0  0  0  0  0  0  0  0  0  0
   33.3850   28.9290   35.3060 C   0  0  0  0  0  0  0  0  0  0  0  0
   32.8330   28.9330   36.5800 C   0  0  0  0  0  0  0  0  0  0  0  0
   33.6670   29.0910   37.6400 C   0  0  0  0  0  0  0  0  0  0  0  0
   35.0140   29.2540   37.5830 C   0  0  0  0  0  0  0  0  0  0  0  0
   37.8550   29.6800   39.2240 H   0  0  0  0  0  0  0  0  0  0  0  0
   38.7820   29.6500   37.0100 H   0  0  0  0  0  0  0  0  0  0  0  0
   37.2780   29.3650   35.0420 H   0  0  0  0  0  0  0  0  0  0  0  0
   35.1510   29.0720   34.1620 H   0  0  0  0  0  0  0  0  0  0  0  0
   32.7720   28.8080   34.4210 H   0  0  0  0  0  0  0  0  0  0  0  0
   31.7810   28.8110   36.6610 H   0  0  0  0  0  0  0  0  0  0  0  0
   33.0530   29.0700   38.8830 O   0  0  0  0  0  0  0  0  0  0  0  0
   32.5240   28.2880   39.2510 H   0  0  0  0  0  0  0  0  0  0  0  0
  1  7  1  0  0  0  0
  1  2  1  0  0  0  0
  3  1  1  0  0  0  0
  4  5  1  0  0  0  0
  4 13  1  0  0  0  0
  5  9  1  0  0  0  0
  6  5  2  0  0  0  0
  7  8  1  0  0  0  0
  7  6  1  0  0  0  0
  8  4  2  0  0  0  0
 10  6  1  0  0  0  0
 11 17  1  0  0  0  0
 12 18  1  0  0  0  0
 12 11  2  0  0  0  0
 13 12  1  0  0  0  0
 14 13  2  0  0  0  0
 14 15  1  0  0  0  0
 15 16  2  0  0  0  0
 16 11  1  0  0  0  0
 19 15  1  0  0  0  0
 19 27  1  0  0  0  0
 20 22  1  0  0  0  0
 20 19  2  0  0  0  0
 21 20  1  0  0  0  0
 22 23  2  0  0  0  0
 23 25  1  0  0  0  0
 24 23  1  0  0  0  0
 25 26  1  0  0  0  0
 27 25  2  0  0  0  0
 28 30  1  0  0  0  0
 28  1  1  0  0  0  0
 29 28  1  0  0  0  0
 31 28  1  0  0  0  0
 32 31  1  0  0  0  0
 32 41  1  0  0  0  0
 33 32  2  0  0  0  0
 34 35  2  0  0  0  0
 34 33  1  0  0  0  0
 35 40  1  0  0  0  0
 36 37  2  0  0  0  0
 36 35  1  0  0  0  0
 37 38  1  0  0  0  0
 38 46  1  0  0  0  0
 38 39  2  0  0  0  0
 39 47  1  0  0  0  0
 40 39  1  0  0  0  0
 40 31  2  0  0  0  0
 42 33  1  0  0  0  0
 43 34  1  0  0  0  0
 44 36  1  0  0  0  0
 45 37  1  0  0  0  0
 47 48  1  0  0  0  0
M  END
>  <minimizedAffinity>
-6.1318121

>  <minimizedRMSD>
0.449524611

$$$$
