
 OpenBabel03242509193D

 35 38  0  0  1  0  0  0  0  0999 V2000
   37.2650   27.7070   41.5860 C   0  0  0  0  0  0  0  0  0  0  0  0
   37.4210   26.7410   42.5560 C   0  0  0  0  0  0  0  0  0  0  0  0
   37.2060   25.4150   42.2980 C   0  0  0  0  0  0  0  0  0  0  0  0
   36.8220   25.0440   41.0230 C   0  0  0  0  0  0  0  0  0  0  0  0
   36.6660   25.9930   40.0480 C   0  0  0  0  0  0  0  0  0  0  0  0
   36.8990   27.3500   40.3600 C   0  0  0  0  0  0  0  0  0  0  0  0
   37.7220   27.0370   43.5590 H   0  0  0  0  0  0  0  0  0  0  0  0
   37.3480   24.7140   43.1130 H   0  0  0  0  0  0  0  0  0  0  0  0
   36.6790   23.9640   40.9390 H   0  0  0  0  0  0  0  0  0  0  0  0
   36.3660   25.5020   39.1270 H   0  0  0  0  0  0  0  0  0  0  0  0
   36.7450   28.0410   39.0950 C   0  0  0  0  0  0  0  0  0  0  0  0
   35.3880   28.4070   38.9900 C   0  0  0  0  0  0  0  0  0  0  0  0
   34.5620   28.2470   39.6660 H   0  0  0  0  0  0  0  0  0  0  0  0
   34.9390   29.0940   37.8650 C   0  0  0  0  0  0  0  0  0  0  0  0
   35.8380   29.4120   36.8530 C   0  0  0  0  0  0  0  0  0  0  0  0
   35.6420   29.9330   35.9320 H   0  0  0  0  0  0  0  0  0  0  0  0
   37.1530   29.0480   36.9710 C   0  0  0  0  0  0  0  0  0  0  0  0
   37.9570   29.2340   36.2560 H   0  0  0  0  0  0  0  0  0  0  0  0
   37.6180   28.3690   38.0760 C   0  0  0  0  0  0  0  0  0  0  0  0
   38.6450   29.8620   41.4900 C   0  0  1  0  0  0  0  0  0  0  0  0
   38.3200   29.5820   42.9060 C   0  0  0  0  0  0  0  0  0  0  0  0
   37.3130   29.1400   41.9430 C   0  0  2  0  0  0  0  0  0  0  0  0
   39.4330   29.2860   41.0520 H   0  0  0  0  0  0  0  0  0  0  0  0
   38.8840   28.7920   43.4100 H   0  0  0  0  0  0  0  0  0  0  0  0
   38.1400   30.4950   43.5120 H   0  0  0  0  0  0  0  0  0  0  0  0
   36.4860   29.7220   41.4580 H   0  0  0  0  0  0  0  0  0  0  0  0
   38.4100   31.2430   40.9510 C   0  0  0  0  0  0  0  0  0  0  0  0
   37.3650   31.4050   40.0040 C   0  0  0  0  0  0  0  0  0  0  0  0
   37.1220   32.6720   39.4930 C   0  0  0  0  0  0  0  0  0  0  0  0
   37.9090   33.7130   39.9370 N   0  0  0  0  0  0  0  0  0  0  0  0
   38.9000   33.5100   40.8490 C   0  0  0  0  0  0  0  0  0  0  0  0
   39.1380   32.2620   41.3480 N   0  0  0  0  0  0  0  0  0  0  0  0
   36.6560   30.7480   39.5690 H   0  0  0  0  0  0  0  0  0  0  0  0
   36.3890   32.9740   38.7820 H   0  0  0  0  0  0  0  0  0  0  0  0
   39.4900   34.3600   41.1670 H   0  0  0  0  0  0  0  0  0  0  0  0
  1 22  1  0  0  0  0
  1  2  1  0  0  0  0
  2  7  1  0  0  0  0
  3  2  2  0  0  0  0
  3  8  1  0  0  0  0
  4  3  1  0  0  0  0
  5  6  1  0  0  0  0
  5  4  2  0  0  0  0
  6  1  2  0  0  0  0
  9  4  1  0  0  0  0
 10  5  1  0  0  0  0
 11  6  1  0  0  0  0
 12 11  1  0  0  0  0
 12 13  1  0  0  0  0
 14 12  2  0  0  0  0
 15 17  2  0  0  0  0
 15 14  1  0  0  0  0
 16 15  1  0  0  0  0
 17 19  1  0  0  0  0
 18 17  1  0  0  0  0
 19 11  2  0  0  0  0
 20 23  1  6  0  0  0
 20 22  1  0  0  0  0
 20 21  1  0  0  0  0
 21 24  1  0  0  0  0
 21 25  1  0  0  0  0
 22 26  1  6  0  0  0
 22 21  1  0  0  0  0
 27 32  1  0  0  0  0
 27 20  1  0  0  0  0
 28 27  2  0  0  0  0
 29 30  2  0  0  0  0
 29 28  1  0  0  0  0
 30 31  1  0  0  0  0
 31 35  1  0  0  0  0
 31 32  2  0  0  0  0
 33 28  1  0  0  0  0
 34 29  1  0  0  0  0
M  END
>  <minimizedAffinity>
-5.7159729

>  <minimizedRMSD>
0.156879678

$$$$
