
 OpenBabel03242505163D

 38 41  0  0  1  0  0  0  0  0999 V2000
   36.9250   30.7530   40.5350 C   0  0  1  0  0  0  0  0  0  0  0  0
   37.7460   31.9670   40.6790 C   0  0  0  0  0  0  0  0  0  0  0  0
   37.4940   32.6790   39.3540 C   0  0  0  0  0  0  0  0  0  0  0  0
   37.0390   31.6180   38.3800 C   0  0  0  0  0  0  0  0  0  0  0  0
   37.2210   30.3060   39.1090 C   0  0  2  0  0  0  0  0  0  0  0  0
   35.8480   30.9850   40.5460 H   0  0  0  0  0  0  0  0  0  0  0  0
   38.8290   31.7390   40.7490 H   0  0  0  0  0  0  0  0  0  0  0  0
   37.4250   32.6600   41.4800 H   0  0  0  0  0  0  0  0  0  0  0  0
   36.6710   33.4350   39.5020 H   0  0  0  0  0  0  0  0  0  0  0  0
   38.4160   33.1600   38.9800 H   0  0  0  0  0  0  0  0  0  0  0  0
   35.9690   31.7890   38.1070 H   0  0  0  0  0  0  0  0  0  0  0  0
   37.6520   31.6370   37.4510 H   0  0  0  0  0  0  0  0  0  0  0  0
   38.2660   30.0490   39.0760 H   0  0  0  0  0  0  0  0  0  0  0  0
   38.7670   28.8770   43.1300 C   0  0  0  0  0  0  0  0  0  0  0  0
   37.8120   27.8480   43.4760 C   0  0  0  0  0  0  0  0  0  0  0  0
   36.5650   27.8240   42.8000 C   0  0  0  0  0  0  0  0  0  0  0  0
   36.3000   28.7600   41.8510 N   0  0  0  0  0  0  0  0  0  0  0  0
   37.2370   29.7100   41.5620 C   0  0  0  0  0  0  0  0  0  0  0  0
   38.4460   29.7760   42.1800 N   0  0  0  0  0  0  0  0  0  0  0  0
   39.6980   28.8650   43.6600 H   0  0  0  0  0  0  0  0  0  0  0  0
   38.0840   27.1490   44.2270 H   0  0  0  0  0  0  0  0  0  0  0  0
   35.8670   27.0480   43.0740 H   0  0  0  0  0  0  0  0  0  0  0  0
   36.3400   29.2530   38.6400 C   0  0  0  0  0  0  0  0  0  0  0  0
   35.0470   29.1070   38.1660 C   0  0  0  0  0  0  0  0  0  0  0  0
   34.5920   27.8790   37.8300 C   0  0  0  0  0  0  0  0  0  0  0  0
   35.4280   26.7750   37.9640 C   0  0  0  0  0  0  0  0  0  0  0  0
   37.0050   27.5370   38.6280 S   0  0  0  0  0  0  0  0  0  0  0  0
   34.5160   30.0340   38.1110 H   0  0  0  0  0  0  0  0  0  0  0  0
   33.5890   27.7250   37.4550 H   0  0  0  0  0  0  0  0  0  0  0  0
   35.2140   25.4290   37.6960 C   0  0  0  0  0  0  0  0  0  0  0  0
   34.4780   25.0020   36.6100 C   0  0  0  0  0  0  0  0  0  0  0  0
   34.0790   25.7830   35.9850 H   0  0  0  0  0  0  0  0  0  0  0  0
   34.3150   23.6460   36.4190 C   0  0  0  0  0  0  0  0  0  0  0  0
   34.8600   22.7010   37.2730 C   0  0  0  0  0  0  0  0  0  0  0  0
   34.6890   21.6390   37.0580 H   0  0  0  0  0  0  0  0  0  0  0  0
   35.5940   23.1360   38.3550 C   0  0  0  0  0  0  0  0  0  0  0  0
   35.9970   22.3580   38.9880 H   0  0  0  0  0  0  0  0  0  0  0  0
   35.7730   24.4900   38.5700 C   0  0  0  0  0  0  0  0  0  0  0  0
  1  6  1  1  0  0  0
  1  2  1  0  0  0  0
  1 18  1  0  0  0  0
  2  7  1  0  0  0  0
  2  8  1  0  0  0  0
  3  9  1  0  0  0  0
  3  2  1  0  0  0  0
  4  5  1  0  0  0  0
  4  3  1  0  0  0  0
  5 13  1  6  0  0  0
  5  1  1  0  0  0  0
 10  3  1  0  0  0  0
 11  4  1  0  0  0  0
 12  4  1  0  0  0  0
 14 15  1  0  0  0  0
 14 20  1  0  0  0  0
 15 21  1  0  0  0  0
 16 22  1  0  0  0  0
 16 15  2  0  0  0  0
 17 16  1  0  0  0  0
 18 17  2  0  0  0  0
 18 19  1  0  0  0  0
 19 14  2  0  0  0  0
 23  5  1  0  0  0  0
 24 23  2  0  0  0  0
 25 26  2  0  0  0  0
 25 24  1  0  0  0  0
 26 27  1  0  0  0  0
 27 23  1  0  0  0  0
 28 24  1  0  0  0  0
 29 25  1  0  0  0  0
 30 26  1  0  0  0  0
 30 38  1  0  0  0  0
 31 30  2  0  0  0  0
 32 31  1  0  0  0  0
 33 31  1  0  0  0  0
 33 34  2  0  0  0  0
 34 36  1  0  0  0  0
 35 34  1  0  0  0  0
 36 38  2  0  0  0  0
 36 37  1  0  0  0  0
M  END
>  <minimizedAffinity>
-4.97088623

>  <minimizedRMSD>
0.975904942

$$$$
