
 OpenBabel03242509283D

 48 52  0  0  0  0  0  0  0  0999 V2000
   36.1140   30.0520   41.0960 C   0  0  0  0  0  0  0  0  0  0  0  0
   35.5000   30.5410   41.9080 H   0  0  0  0  0  0  0  0  0  0  0  0
   36.7300   30.8590   40.6520 H   0  0  0  0  0  0  0  0  0  0  0  0
   38.5330   28.0620   42.6850 C   0  0  0  0  0  0  0  0  0  0  0  0
   37.4290   27.2530   42.7770 C   0  0  0  0  0  0  0  0  0  0  0  0
   36.3790   27.9440   42.1660 C   0  0  0  0  0  0  0  0  0  0  0  0
   36.9320   29.0990   41.7630 N   0  0  0  0  0  0  0  0  0  0  0  0
   38.1890   29.2120   42.0460 N   0  0  0  0  0  0  0  0  0  0  0  0
   37.3880   26.2620   43.2370 H   0  0  0  0  0  0  0  0  0  0  0  0
   35.3900   27.5360   42.0960 H   0  0  0  0  0  0  0  0  0  0  0  0
   41.4510   26.2550   44.1470 C   0  0  0  0  0  0  0  0  0  0  0  0
   40.1570   26.4950   43.6700 C   0  0  0  0  0  0  0  0  0  0  0  0
   39.8620   27.7760   43.1820 C   0  0  0  0  0  0  0  0  0  0  0  0
   40.8210   28.7430   43.1810 N   0  0  0  0  0  0  0  0  0  0  0  0
   42.0690   28.4530   43.6590 C   0  0  0  0  0  0  0  0  0  0  0  0
   42.3730   27.2280   44.1330 N   0  0  0  0  0  0  0  0  0  0  0  0
   41.6710   25.2700   44.5210 H   0  0  0  0  0  0  0  0  0  0  0  0
   39.4400   25.6990   43.6930 H   0  0  0  0  0  0  0  0  0  0  0  0
   43.0650   29.5140   43.6410 C   0  0  0  0  0  0  0  0  0  0  0  0
   43.1130   30.3720   42.5630 C   0  0  0  0  0  0  0  0  0  0  0  0
   42.4630   30.3220   41.7150 H   0  0  0  0  0  0  0  0  0  0  0  0
   44.0760   31.3460   42.6160 C   0  0  0  0  0  3  0  0  0  0  0  0
   44.9350   31.4660   43.6610 C   0  0  0  0  0  0  0  0  0  0  0  0
   45.6660   32.2760   43.6040 H   0  0  0  0  0  0  0  0  0  0  0  0
   44.8970   30.6030   44.7610 C   0  0  0  0  0  0  0  0  0  0  0  0
   45.5890   30.7240   45.5700 H   0  0  0  0  0  0  0  0  0  0  0  0
   43.9370   29.6420   44.6970 C   0  0  0  0  0  3  0  0  0  0  0  0
   35.2230   29.5130   40.0230 C   0  0  0  0  0  0  0  0  0  0  0  0
   34.5300   30.4120   39.9020 H   0  0  0  0  0  0  0  0  0  0  0  0
   34.7300   28.6180   40.3770 H   0  0  0  0  0  0  0  0  0  0  0  0
   35.8540   29.4260   38.6860 C   0  0  0  0  0  0  0  0  0  0  0  0
   37.1740   29.5590   38.3720 C   0  0  0  0  0  0  0  0  0  0  0  0
   37.7070   29.5430   37.1190 C   0  0  0  0  0  0  0  0  0  0  0  0
   36.8700   29.3800   36.0320 C   0  0  0  0  0  0  0  0  0  0  0  0
   35.5110   29.2370   36.2810 C   0  0  0  0  0  0  0  0  0  0  0  0
   34.7360   29.0790   35.1620 C   0  0  0  0  0  0  0  0  0  0  0  0
   33.3860   28.9250   35.2920 C   0  0  0  0  0  0  0  0  0  0  0  0
   32.8300   28.9290   36.5650 C   0  0  0  0  0  0  0  0  0  0  0  0
   33.6610   29.0900   37.6270 C   0  0  0  0  0  0  0  0  0  0  0  0
   35.0080   29.2550   37.5740 C   0  0  0  0  0  0  0  0  0  0  0  0
   37.8430   29.6890   39.2220 H   0  0  0  0  0  0  0  0  0  0  0  0
   38.7770   29.6590   37.0110 H   0  0  0  0  0  0  0  0  0  0  0  0
   37.2790   29.3690   35.0390 H   0  0  0  0  0  0  0  0  0  0  0  0
   35.1550   29.0710   34.1530 H   0  0  0  0  0  0  0  0  0  0  0  0
   32.7760   28.8030   34.4060 H   0  0  0  0  0  0  0  0  0  0  0  0
   31.7790   28.8050   36.6430 H   0  0  0  0  0  0  0  0  0  0  0  0
   33.0430   29.0680   38.8680 O   0  0  0  0  0  0  0  0  0  0  0  0
   32.5150   28.2860   39.2350 H   0  0  0  0  0  0  0  0  0  0  0  0
  1  7  1  0  0  0  0
  1  2  1  0  0  0  0
  3  1  1  0  0  0  0
  4  5  1  0  0  0  0
  4 13  1  0  0  0  0
  5  9  1  0  0  0  0
  6  5  2  0  0  0  0
  7  8  1  0  0  0  0
  7  6  1  0  0  0  0
  8  4  2  0  0  0  0
 10  6  1  0  0  0  0
 11 17  1  0  0  0  0
 12 18  1  0  0  0  0
 12 11  2  0  0  0  0
 13 12  1  0  0  0  0
 14 13  2  0  0  0  0
 14 15  1  0  0  0  0
 15 16  2  0  0  0  0
 16 11  1  0  0  0  0
 19 15  1  0  0  0  0
 19 27  1  0  0  0  0
 20 22  1  0  0  0  0
 20 19  2  0  0  0  0
 21 20  1  0  0  0  0
 22 23  2  0  0  0  0
 23 25  1  0  0  0  0
 24 23  1  0  0  0  0
 25 26  1  0  0  0  0
 27 25  2  0  0  0  0
 28 30  1  0  0  0  0
 28  1  1  0  0  0  0
 29 28  1  0  0  0  0
 31 28  1  0  0  0  0
 32 31  1  0  0  0  0
 32 41  1  0  0  0  0
 33 32  2  0  0  0  0
 34 35  2  0  0  0  0
 34 33  1  0  0  0  0
 35 40  1  0  0  0  0
 36 37  2  0  0  0  0
 36 35  1  0  0  0  0
 37 38  1  0  0  0  0
 38 46  1  0  0  0  0
 38 39  2  0  0  0  0
 39 47  1  0  0  0  0
 40 39  1  0  0  0  0
 40 31  2  0  0  0  0
 42 33  1  0  0  0  0
 43 34  1  0  0  0  0
 44 36  1  0  0  0  0
 45 37  1  0  0  0  0
 47 48  1  0  0  0  0
M  END
>  <minimizedAffinity>
-6.08933926

>  <minimizedRMSD>
0.487013072

$$$$
