
 OpenBabel03242506483D

 33 36  0  0  0  0  0  0  0  0999 V2000
   44.5900   26.3950   44.3370 C   0  0  0  0  0  0  0  0  0  0  0  0
   43.4150   26.4320   43.5640 C   0  0  0  0  0  0  0  0  0  0  0  0
   42.2340   26.9340   44.1330 C   0  0  0  0  0  0  0  0  0  0  0  0
   42.2790   27.3730   45.4320 N   0  0  0  0  0  0  0  0  0  0  0  0
   43.4230   27.3190   46.1360 C   0  0  0  0  0  0  0  0  0  0  0  0
   44.5670   26.8420   45.6120 N   0  0  0  0  0  0  0  0  0  0  0  0
   45.5010   26.0020   43.8830 H   0  0  0  0  0  0  0  0  0  0  0  0
   43.3920   25.9580   42.1770 C   0  0  0  0  0  0  0  0  0  0  0  0
   44.5410   26.1700   41.4390 C   0  0  0  0  0  0  0  0  0  0  0  0
   45.4560   26.6450   41.7670 H   0  0  0  0  0  0  0  0  0  0  0  0
   44.6360   25.7620   40.1130 C   0  0  0  0  0  0  0  0  0  0  0  0
   43.5450   25.1310   39.5260 C   0  0  0  0  0  0  0  0  0  0  0  0
   43.6050   24.8050   38.4830 H   0  0  0  0  0  0  0  0  0  0  0  0
   42.3970   24.9220   40.2740 C   0  0  0  0  0  0  0  0  0  0  0  0
   41.5290   24.4330   39.8460 H   0  0  0  0  0  0  0  0  0  0  0  0
   42.3090   25.3340   41.6060 C   0  0  0  0  0  0  0  0  0  0  0  0
   43.4060   27.8130   47.5510 C   0  0  0  0  0  0  0  0  0  0  0  0
   43.3850   29.2070   47.5790 F   0  0  0  0  0  0  0  0  0  0  0  0
   42.2240   27.4430   48.1880 F   0  0  0  0  0  0  0  0  0  0  0  0
   44.5310   27.4180   48.2600 F   0  0  0  0  0  0  0  0  0  0  0  0
   41.1170   26.9560   43.3600 O   0  0  0  0  0  0  0  0  0  0  0  0
   37.1210   29.0920   43.3350 N   0  0  0  0  0  0  0  0  0  0  0  0
   37.0010   27.8260   43.7460 C   0  0  0  0  0  0  0  0  0  0  0  0
   38.2390   27.2720   43.7210 N   0  0  0  0  0  0  0  0  0  0  0  0
   39.1480   28.1820   43.2940 C   0  0  0  0  0  0  0  0  0  0  0  0
   40.5170   28.1640   43.0820 C   0  0  0  0  0  0  0  0  0  0  0  0
   41.1150   29.2970   42.6360 N   0  0  0  0  0  0  0  0  0  0  0  0
   40.3850   30.4040   42.4100 C   0  0  0  0  0  0  0  0  0  0  0  0
   39.0490   30.4580   42.6060 N   0  0  0  0  0  0  0  0  0  0  0  0
   38.4030   29.3410   43.0540 C   0  0  0  0  0  0  0  0  0  0  0  0
   36.3430   29.7830   43.2450 H   0  0  0  0  0  0  0  0  0  0  0  0
   36.1170   27.2680   44.0590 H   0  0  0  0  0  0  0  0  0  0  0  0
   40.9680   31.2360   42.0590 H   0  0  0  0  0  0  0  0  0  0  0  0
  1  6  1  0  0  0  0
  2  3  1  0  0  0  0
  2  1  2  0  0  0  0
  3  4  2  0  0  0  0
  4  5  1  0  0  0  0
  5 17  1  0  0  0  0
  6  5  2  0  0  0  0
  7  1  1  0  0  0  0
  8  2  1  0  0  0  0
  9 10  1  0  0  0  0
  9  8  2  0  0  0  0
 11  9  1  0  0  0  0
 12 11  2  0  0  0  0
 12 14  1  0  0  0  0
 13 12  1  0  0  0  0
 14 16  2  0  0  0  0
 15 14  1  0  0  0  0
 16  8  1  0  0  0  0
 17 18  1  0  0  0  0
 17 19  1  0  0  0  0
 17 20  1  0  0  0  0
 21  3  1  0  0  0  0
 22 23  1  0  0  0  0
 23 32  1  0  0  0  0
 24 23  2  0  0  0  0
 25 24  1  0  0  0  0
 26 25  1  0  0  0  0
 26 21  1  0  0  0  0
 27 26  2  0  0  0  0
 28 29  2  0  0  0  0
 28 27  1  0  0  0  0
 29 30  1  0  0  0  0
 30 25  2  0  0  0  0
 30 22  1  0  0  0  0
 31 22  1  0  0  0  0
 33 28  1  0  0  0  0
M  END
>  <minimizedAffinity>
-5.59989548

>  <minimizedRMSD>
0.261681437

$$$$
