
 OpenBabel03242509233D

 47 51  0  0  0  0  0  0  0  0999 V2000
   38.9170   30.1670   37.7650 C   0  0  0  0  0  0  0  0  0  0  0  0
   40.1240   30.8420   37.7830 C   0  0  0  0  0  0  0  0  0  0  0  0
   41.3450   30.3390   37.4300 C   0  0  0  0  0  0  0  0  0  0  0  0
   41.4290   29.0310   37.0090 C   0  0  0  0  0  0  0  0  0  0  0  0
   40.2530   28.2950   36.9690 C   0  0  0  0  0  0  0  0  0  0  0  0
   40.4160   27.0050   36.5490 C   0  0  0  0  0  0  0  0  0  0  0  0
   39.3370   26.1830   36.4760 C   0  0  0  0  0  0  0  0  0  0  0  0
   38.0950   26.6840   36.8360 C   0  0  0  0  0  0  0  0  0  0  0  0
   38.0070   27.9950   37.2500 C   0  0  0  0  0  0  0  0  0  0  0  0
   39.0560   28.8510   37.3360 C   0  0  0  0  0  0  0  0  0  0  0  0
   40.1120   31.8710   38.1110 H   0  0  0  0  0  0  0  0  0  0  0  0
   42.2390   30.9500   37.4780 H   0  0  0  0  0  0  0  0  0  0  0  0
   42.4010   28.6550   36.7360 H   0  0  0  0  0  0  0  0  0  0  0  0
   41.3780   26.6010   36.2660 H   0  0  0  0  0  0  0  0  0  0  0  0
   39.4850   25.1470   36.1350 H   0  0  0  0  0  0  0  0  0  0  0  0
   37.3020   25.9430   36.7410 H   0  0  0  0  0  0  0  0  0  0  0  0
   36.6200   28.2550   37.6020 C   0  0  0  0  0  0  0  0  0  0  0  0
   35.8130   28.2900   38.7280 C   0  0  0  0  0  0  0  0  0  0  0  0
   36.4730   27.9720   39.5510 H   0  0  0  0  0  0  0  0  0  0  0  0
   34.4950   28.6620   38.6990 C   0  0  0  0  0  0  0  0  0  0  0  0
   33.8850   29.0320   37.5230 C   0  0  0  0  0  0  0  0  0  0  0  0
   32.8460   29.3010   37.6410 H   0  0  0  0  0  0  0  0  0  0  0  0
   34.6270   29.0210   36.3640 C   0  0  0  0  0  0  0  0  0  0  0  0
   34.0760   29.3230   35.4880 H   0  0  0  0  0  0  0  0  0  0  0  0
   35.9740   28.6410   36.3910 C   0  0  0  0  0  0  0  0  0  0  0  0
   37.5880   30.7060   38.0720 C   0  0  0  0  0  0  0  0  0  0  0  0
   36.7590   30.0530   38.1690 H   0  0  0  0  0  0  0  0  0  0  0  0
   37.5190   31.6360   37.4510 H   0  0  0  0  0  0  0  0  0  0  0  0
   37.5020   31.3980   39.4160 C   0  0  0  0  0  0  0  0  0  0  0  0
   38.1730   32.2730   39.3980 H   0  0  0  0  0  0  0  0  0  0  0  0
   36.4800   31.8710   39.5870 H   0  0  0  0  0  0  0  0  0  0  0  0
   38.4100   29.2150   42.0360 C   0  0  0  0  0  0  0  0  0  0  0  0
   37.1320   29.5160   42.3910 C   0  0  0  0  0  0  0  0  0  0  0  0
   36.6480   30.3860   41.4150 C   0  0  0  0  0  0  0  0  0  0  0  0
   37.6730   30.5450   40.5390 N   0  0  0  0  0  0  0  0  0  0  0  0
   38.6960   29.8670   40.8980 N   0  0  0  0  0  0  0  0  0  0  0  0
   36.6450   29.1190   43.2780 H   0  0  0  0  0  0  0  0  0  0  0  0
   35.6380   30.7570   41.5000 H   0  0  0  0  0  0  0  0  0  0  0  0
   39.7720   26.4030   44.0700 C   0  0  0  0  0  0  0  0  0  0  0  0
   38.8410   27.1980   43.3890 C   0  0  0  0  0  0  0  0  0  0  0  0
   39.3310   28.3500   42.7470 C   0  0  0  0  0  0  0  0  0  0  0  0
   40.6600   28.6620   42.7980 N   0  0  0  0  0  0  0  0  0  0  0  0
   41.5070   27.8310   43.4870 C   0  0  0  0  0  0  0  0  0  0  0  0
   41.0640   26.7230   44.1090 N   0  0  0  0  0  0  0  0  0  0  0  0
   39.4930   25.5130   44.5840 H   0  0  0  0  0  0  0  0  0  0  0  0
   37.8000   26.9200   43.3710 H   0  0  0  0  0  0  0  0  0  0  0  0
   42.5510   28.1240   43.4960 H   0  0  0  0  0  0  0  0  0  0  0  0
  1  2  1  0  0  0  0
  1 26  1  0  0  0  0
  2 11  1  0  0  0  0
  3 12  1  0  0  0  0
  3  2  2  0  0  0  0
  4  3  1  0  0  0  0
  5  4  2  0  0  0  0
  5 10  1  0  0  0  0
  6  5  1  0  0  0  0
  7  6  2  0  0  0  0
  7  8  1  0  0  0  0
  8  9  2  0  0  0  0
  9 10  1  0  0  0  0
  9 17  1  0  0  0  0
 10  1  2  0  0  0  0
 13  4  1  0  0  0  0
 14  6  1  0  0  0  0
 15  7  1  0  0  0  0
 16  8  1  0  0  0  0
 17 18  1  0  0  0  0
 18 19  1  0  0  0  0
 20 18  2  0  0  0  0
 21 22  1  0  0  0  0
 21 20  1  0  0  0  0
 23 25  1  0  0  0  0
 23 21  2  0  0  0  0
 24 23  1  0  0  0  0
 25 17  2  0  0  0  0
 26 27  1  0  0  0  0
 26 29  1  0  0  0  0
 28 26  1  0  0  0  0
 29 31  1  0  0  0  0
 29 35  1  0  0  0  0
 30 29  1  0  0  0  0
 32 33  1  0  0  0  0
 32 41  1  0  0  0  0
 33 37  1  0  0  0  0
 34 38  1  0  0  0  0
 34 33  2  0  0  0  0
 35 36  1  0  0  0  0
 35 34  1  0  0  0  0
 36 32  2  0  0  0  0
 39 44  1  0  0  0  0
 39 45  1  0  0  0  0
 40 39  2  0  0  0  0
 41 42  2  0  0  0  0
 41 40  1  0  0  0  0
 42 43  1  0  0  0  0
 43 47  1  0  0  0  0
 43 44  2  0  0  0  0
 46 40  1  0  0  0  0
M  END
>  <minimizedAffinity>
-5.53936434

>  <minimizedRMSD>
3.60185432

$$$$
