
 OpenBabel03242507263D

 28 30  0  0  0  0  0  0  0  0999 V2000
   37.3670   25.9800   42.2850 C   0  0  0  0  0  0  0  0  0  0  0  0
   38.2600   25.0140   42.5830 C   0  0  0  0  0  0  0  0  0  0  0  0
   38.6790   24.0910   41.6980 C   0  0  0  0  0  0  0  0  0  0  0  0
   38.0480   24.2710   40.3920 C   0  0  0  0  0  0  0  0  0  0  0  0
   36.9930   25.6570   40.5730 S   0  0  0  0  0  0  0  0  0  0  0  0
   38.6150   25.0460   43.6070 H   0  0  0  0  0  0  0  0  0  0  0  0
   39.3750   23.3080   41.8620 H   0  0  0  0  0  0  0  0  0  0  0  0
   38.2690   23.4520   39.2010 C   0  0  0  0  0  0  0  0  0  0  0  0
   37.1110   23.0330   38.5850 C   0  0  0  0  0  0  0  0  0  0  0  0
   36.1210   23.2840   38.9430 H   0  0  0  0  0  0  0  0  0  0  0  0
   37.2800   22.2470   37.4390 C   0  0  0  0  0  0  0  0  0  0  0  0
   38.5750   21.9430   37.0060 C   0  0  0  0  0  0  0  0  0  0  0  0
   38.6460   21.3330   36.1170 H   0  0  0  0  0  0  0  0  0  0  0  0
   39.6970   22.4130   37.6970 C   0  0  0  0  0  0  0  0  0  0  0  0
   40.6620   22.1450   37.3130 H   0  0  0  0  0  0  0  0  0  0  0  0
   39.5590   23.2010   38.8440 C   0  0  0  0  0  0  0  0  0  0  0  0
   36.7350   27.0900   43.0070 C   0  0  0  0  0  0  0  0  0  0  0  0
   35.6570   27.1520   42.8590 H   0  0  0  0  0  0  0  0  0  0  0  0
   36.9810   26.9590   44.0780 H   0  0  0  0  0  0  0  0  0  0  0  0
   39.1340   30.0210   42.6750 C   0  0  0  0  0  0  0  0  0  0  0  0
   38.5970   28.7960   43.1060 C   0  0  0  0  0  0  0  0  0  0  0  0
   37.3700   28.3810   42.5960 C   0  0  0  0  0  0  0  0  0  0  0  0
   36.7540   29.1990   41.6980 N   0  0  0  0  0  0  0  0  0  0  0  0
   37.2880   30.3750   41.2960 C   0  0  0  0  0  0  0  0  0  0  0  0
   38.4560   30.7700   41.7810 N   0  0  0  0  0  0  0  0  0  0  0  0
   40.0770   30.3570   43.0560 H   0  0  0  0  0  0  0  0  0  0  0  0
   39.0950   28.1680   43.8130 H   0  0  0  0  0  0  0  0  0  0  0  0
   36.6660   30.8950   40.5800 H   0  0  0  0  0  0  0  0  0  0  0  0
  1  2  2  0  0  0  0
  1 17  1  0  0  0  0
  2  6  1  0  0  0  0
  3  7  1  0  0  0  0
  3  2  1  0  0  0  0
  4  5  1  0  0  0  0
  4  3  2  0  0  0  0
  5  1  1  0  0  0  0
  8  4  1  0  0  0  0
  9 10  1  0  0  0  0
  9  8  2  0  0  0  0
 11  9  1  0  0  0  0
 12 11  2  0  0  0  0
 12 14  1  0  0  0  0
 13 12  1  0  0  0  0
 14 16  2  0  0  0  0
 15 14  1  0  0  0  0
 16  8  1  0  0  0  0
 17 19  1  0  0  0  0
 18 17  1  0  0  0  0
 20 26  1  0  0  0  0
 20 21  1  0  0  0  0
 21 27  1  0  0  0  0
 22 17  1  0  0  0  0
 22 21  2  0  0  0  0
 23 22  1  0  0  0  0
 24 23  2  0  0  0  0
 24 25  1  0  0  0  0
 25 20  2  0  0  0  0
 28 24  1  0  0  0  0
M  END
>  <minimizedAffinity>
-3.94504237

>  <minimizedRMSD>
0.697259128

$$$$
