
 OpenBabel03242509283D

 48 52  0  0  0  0  0  0  0  0999 V2000
   36.2090   30.0800   41.1530 C   0  0  0  0  0  0  0  0  0  0  0  0
   35.6020   30.5700   41.9700 H   0  0  0  0  0  0  0  0  0  0  0  0
   36.8080   30.8900   40.6910 H   0  0  0  0  0  0  0  0  0  0  0  0
   38.6750   28.1300   42.7190 C   0  0  0  0  0  0  0  0  0  0  0  0
   37.5810   27.3120   42.8390 C   0  0  0  0  0  0  0  0  0  0  0  0
   36.5140   27.9860   42.2410 C   0  0  0  0  0  0  0  0  0  0  0  0
   37.0470   29.1420   41.8150 N   0  0  0  0  0  0  0  0  0  0  0  0
   38.3090   29.2700   42.0740 N   0  0  0  0  0  0  0  0  0  0  0  0
   37.5580   26.3260   43.3110 H   0  0  0  0  0  0  0  0  0  0  0  0
   35.5270   27.5690   42.1930 H   0  0  0  0  0  0  0  0  0  0  0  0
   41.6010   26.4190   44.2760 C   0  0  0  0  0  0  0  0  0  0  0  0
   40.2950   26.6420   43.8240 C   0  0  0  0  0  0  0  0  0  0  0  0
   40.0150   27.8620   43.1940 C   0  0  0  0  0  0  0  0  0  0  0  0
   41.0010   28.7900   43.0370 N   0  0  0  0  0  0  0  0  0  0  0  0
   42.2590   28.5190   43.4970 C   0  0  0  0  0  0  0  0  0  0  0  0
   42.5480   27.3510   44.1060 N   0  0  0  0  0  0  0  0  0  0  0  0
   41.8090   25.4790   44.7600 H   0  0  0  0  0  0  0  0  0  0  0  0
   39.5580   25.8790   43.9730 H   0  0  0  0  0  0  0  0  0  0  0  0
   43.2830   29.5360   43.3100 C   0  0  0  0  0  0  0  0  0  0  0  0
   43.2190   30.7000   44.0440 C   0  0  0  0  0  0  0  0  0  0  0  0
   42.4580   30.9250   44.7620 H   0  0  0  0  0  0  0  0  0  0  0  0
   44.2170   31.6100   43.8130 C   0  0  0  0  0  3  0  0  0  0  0  0
   45.2130   31.3880   42.9170 C   0  0  0  0  0  0  0  0  0  0  0  0
   45.9590   32.1790   42.8090 H   0  0  0  0  0  0  0  0  0  0  0  0
   45.2910   30.2120   42.1650 C   0  0  0  0  0  0  0  0  0  0  0  0
   46.0900   30.0670   41.4660 H   0  0  0  0  0  0  0  0  0  0  0  0
   44.2950   29.3170   42.4020 C   0  0  0  0  0  3  0  0  0  0  0  0
   35.3060   29.5210   40.1000 C   0  0  0  0  0  0  0  0  0  0  0  0
   34.6010   30.4110   39.9820 H   0  0  0  0  0  0  0  0  0  0  0  0
   34.8290   28.6240   40.4700 H   0  0  0  0  0  0  0  0  0  0  0  0
   35.9150   29.4280   38.7540 C   0  0  0  0  0  0  0  0  0  0  0  0
   37.2320   29.5570   38.4180 C   0  0  0  0  0  0  0  0  0  0  0  0
   37.7440   29.5360   37.1570 C   0  0  0  0  0  0  0  0  0  0  0  0
   36.8900   29.3720   36.0840 C   0  0  0  0  0  0  0  0  0  0  0  0
   35.5350   29.2320   36.3550 C   0  0  0  0  0  0  0  0  0  0  0  0
   34.7420   29.0730   35.2480 C   0  0  0  0  0  0  0  0  0  0  0  0
   33.3940   28.9230   35.4000 C   0  0  0  0  0  0  0  0  0  0  0  0
   32.8580   28.9320   36.6820 C   0  0  0  0  0  0  0  0  0  0  0  0
   33.7060   29.0950   37.7300 C   0  0  0  0  0  0  0  0  0  0  0  0
   35.0520   29.2560   37.6550 C   0  0  0  0  0  0  0  0  0  0  0  0
   37.9140   29.6880   39.2580 H   0  0  0  0  0  0  0  0  0  0  0  0
   38.8120   29.6490   37.0320 H   0  0  0  0  0  0  0  0  0  0  0  0
   37.2830   29.3560   35.0850 H   0  0  0  0  0  0  0  0  0  0  0  0
   35.1450   29.0600   34.2330 H   0  0  0  0  0  0  0  0  0  0  0  0
   32.7700   28.7990   34.5240 H   0  0  0  0  0  0  0  0  0  0  0  0
   31.8080   28.8110   36.7770 H   0  0  0  0  0  0  0  0  0  0  0  0
   33.1070   29.0780   38.9810 O   0  0  0  0  0  0  0  0  0  0  0  0
   32.5830   28.2980   39.3580 H   0  0  0  0  0  0  0  0  0  0  0  0
  1  7  1  0  0  0  0
  1  2  1  0  0  0  0
  3  1  1  0  0  0  0
  4  5  1  0  0  0  0
  4 13  1  0  0  0  0
  5  9  1  0  0  0  0
  6  5  2  0  0  0  0
  7  8  1  0  0  0  0
  7  6  1  0  0  0  0
  8  4  2  0  0  0  0
 10  6  1  0  0  0  0
 11 17  1  0  0  0  0
 12 18  1  0  0  0  0
 12 11  2  0  0  0  0
 13 12  1  0  0  0  0
 14 13  2  0  0  0  0
 14 15  1  0  0  0  0
 15 16  2  0  0  0  0
 16 11  1  0  0  0  0
 19 15  1  0  0  0  0
 19 20  1  0  0  0  0
 20 21  1  0  0  0  0
 22 20  2  0  0  0  0
 23 22  1  0  0  0  0
 24 23  1  0  0  0  0
 25 27  1  0  0  0  0
 25 23  2  0  0  0  0
 26 25  1  0  0  0  0
 27 19  2  0  0  0  0
 28 30  1  0  0  0  0
 28  1  1  0  0  0  0
 29 28  1  0  0  0  0
 31 28  1  0  0  0  0
 32 31  1  0  0  0  0
 32 41  1  0  0  0  0
 33 32  2  0  0  0  0
 34 35  2  0  0  0  0
 34 33  1  0  0  0  0
 35 40  1  0  0  0  0
 36 37  2  0  0  0  0
 36 35  1  0  0  0  0
 37 38  1  0  0  0  0
 38 46  1  0  0  0  0
 38 39  2  0  0  0  0
 39 47  1  0  0  0  0
 40 39  1  0  0  0  0
 40 31  2  0  0  0  0
 42 33  1  0  0  0  0
 43 34  1  0  0  0  0
 44 36  1  0  0  0  0
 45 37  1  0  0  0  0
 47 48  1  0  0  0  0
M  END
>  <minimizedAffinity>
-6.11297369

>  <minimizedRMSD>
0.259935826

$$$$
