
 OpenBabel03242509293D

 48 52  0  0  0  0  0  0  0  0999 V2000
   36.1360   30.0680   41.0940 C   0  0  0  0  0  0  0  0  0  0  0  0
   35.5210   30.5590   41.9040 H   0  0  0  0  0  0  0  0  0  0  0  0
   36.7410   30.8770   40.6380 H   0  0  0  0  0  0  0  0  0  0  0  0
   38.5820   28.1180   42.6900 C   0  0  0  0  0  0  0  0  0  0  0  0
   37.4880   27.2980   42.7920 C   0  0  0  0  0  0  0  0  0  0  0  0
   36.4280   27.9730   42.1800 C   0  0  0  0  0  0  0  0  0  0  0  0
   36.9660   29.1300   41.7650 N   0  0  0  0  0  0  0  0  0  0  0  0
   38.2230   29.2590   42.0420 N   0  0  0  0  0  0  0  0  0  0  0  0
   37.4590   26.3110   43.2620 H   0  0  0  0  0  0  0  0  0  0  0  0
   35.4430   27.5530   42.1180 H   0  0  0  0  0  0  0  0  0  0  0  0
   41.5060   26.3790   44.2200 C   0  0  0  0  0  0  0  0  0  0  0  0
   40.2080   26.6010   43.7470 C   0  0  0  0  0  0  0  0  0  0  0  0
   39.9160   27.8510   43.1840 C   0  0  0  0  0  0  0  0  0  0  0  0
   40.8840   28.8070   43.1070 N   0  0  0  0  0  0  0  0  0  0  0  0
   42.1360   28.5350   43.5830 C   0  0  0  0  0  0  0  0  0  0  0  0
   42.4360   27.3400   44.1300 N   0  0  0  0  0  0  0  0  0  0  0  0
   41.7230   25.4170   44.6520 H   0  0  0  0  0  0  0  0  0  0  0  0
   39.4840   25.8150   43.8320 H   0  0  0  0  0  0  0  0  0  0  0  0
   43.1410   29.5830   43.4830 C   0  0  0  0  0  0  0  0  0  0  0  0
   42.7390   30.9010   43.4530 C   0  0  0  0  0  0  0  0  0  0  0  0
   41.7220   31.2270   43.4990 H   0  0  0  0  0  0  0  0  0  0  0  0
   43.7410   31.8310   43.3570 C   0  0  0  0  0  3  0  0  0  0  0  0
   45.0520   31.4860   43.2940 C   0  0  0  0  0  0  0  0  0  0  0  0
   45.7710   32.3050   43.2190 H   0  0  0  0  0  0  0  0  0  0  0  0
   45.4760   30.1530   43.3230 C   0  0  0  0  0  0  0  0  0  0  0  0
   46.5180   29.9140   43.2720 H   0  0  0  0  0  0  0  0  0  0  0  0
   44.4720   29.2400   43.4190 C   0  0  0  0  0  3  0  0  0  0  0  0
   35.2430   29.5100   40.0320 C   0  0  0  0  0  0  0  0  0  0  0  0
   34.5380   30.3990   39.9090 H   0  0  0  0  0  0  0  0  0  0  0  0
   34.7650   28.6110   40.3950 H   0  0  0  0  0  0  0  0  0  0  0  0
   35.8660   29.4210   38.6910 C   0  0  0  0  0  0  0  0  0  0  0  0
   37.1850   29.5510   38.3680 C   0  0  0  0  0  0  0  0  0  0  0  0
   37.7100   29.5340   37.1110 C   0  0  0  0  0  0  0  0  0  0  0  0
   36.8660   29.3740   36.0300 C   0  0  0  0  0  0  0  0  0  0  0  0
   35.5080   29.2340   36.2880 C   0  0  0  0  0  0  0  0  0  0  0  0
   34.7260   29.0780   35.1730 C   0  0  0  0  0  0  0  0  0  0  0  0
   33.3760   28.9280   35.3120 C   0  0  0  0  0  0  0  0  0  0  0  0
   32.8280   28.9330   36.5880 C   0  0  0  0  0  0  0  0  0  0  0  0
   33.6660   29.0920   37.6450 C   0  0  0  0  0  0  0  0  0  0  0  0
   35.0130   29.2540   37.5830 C   0  0  0  0  0  0  0  0  0  0  0  0
   37.8600   29.6790   39.2140 H   0  0  0  0  0  0  0  0  0  0  0  0
   38.7790   29.6470   36.9970 H   0  0  0  0  0  0  0  0  0  0  0  0
   37.2680   29.3610   35.0350 H   0  0  0  0  0  0  0  0  0  0  0  0
   35.1390   29.0690   34.1620 H   0  0  0  0  0  0  0  0  0  0  0  0
   32.7600   28.8080   34.4290 H   0  0  0  0  0  0  0  0  0  0  0  0
   31.7770   28.8120   36.6730 H   0  0  0  0  0  0  0  0  0  0  0  0
   33.0560   29.0720   38.8900 O   0  0  0  0  0  0  0  0  0  0  0  0
   32.5280   28.2910   39.2600 H   0  0  0  0  0  0  0  0  0  0  0  0
  1  7  1  0  0  0  0
  1  2  1  0  0  0  0
  3  1  1  0  0  0  0
  4  5  1  0  0  0  0
  4 13  1  0  0  0  0
  5  9  1  0  0  0  0
  6  5  2  0  0  0  0
  7  8  1  0  0  0  0
  7  6  1  0  0  0  0
  8  4  2  0  0  0  0
 10  6  1  0  0  0  0
 11 17  1  0  0  0  0
 12 18  1  0  0  0  0
 12 11  2  0  0  0  0
 13 12  1  0  0  0  0
 14 13  2  0  0  0  0
 14 15  1  0  0  0  0
 15 16  2  0  0  0  0
 16 11  1  0  0  0  0
 19 15  1  0  0  0  0
 20 19  1  0  0  0  0
 20 21  1  0  0  0  0
 22 20  2  0  0  0  0
 23 25  2  0  0  0  0
 23 22  1  0  0  0  0
 24 23  1  0  0  0  0
 25 27  1  0  0  0  0
 26 25  1  0  0  0  0
 27 19  2  0  0  0  0
 28 30  1  0  0  0  0
 28  1  1  0  0  0  0
 29 28  1  0  0  0  0
 31 28  1  0  0  0  0
 32 31  1  0  0  0  0
 32 41  1  0  0  0  0
 33 32  2  0  0  0  0
 34 35  2  0  0  0  0
 34 33  1  0  0  0  0
 35 40  1  0  0  0  0
 36 37  2  0  0  0  0
 36 35  1  0  0  0  0
 37 38  1  0  0  0  0
 38 46  1  0  0  0  0
 38 39  2  0  0  0  0
 39 47  1  0  0  0  0
 40 39  1  0  0  0  0
 40 31  2  0  0  0  0
 42 33  1  0  0  0  0
 43 34  1  0  0  0  0
 44 36  1  0  0  0  0
 45 37  1  0  0  0  0
 47 48  1  0  0  0  0
M  END
>  <minimizedAffinity>
-6.14275885

>  <minimizedRMSD>
0.363131762

$$$$
