
 OpenBabel03242508043D

 30 32  0  0  0  0  0  0  0  0999 V2000
   41.1730   33.7200   38.9280 C   0  0  0  0  0  0  0  0  0  0  0  0
   40.2380   32.6840   38.8410 C   0  0  0  0  0  0  0  0  0  0  0  0
   40.4320   31.7290   37.8150 C   0  0  0  0  0  0  0  0  0  0  0  0
   41.4940   31.8580   36.9780 N   0  0  0  0  0  0  0  0  0  0  0  0
   42.3680   32.8680   37.0960 C   0  0  0  0  0  0  0  0  0  0  0  0
   42.1990   33.7980   38.0790 N   0  0  0  0  0  0  0  0  0  0  0  0
   39.7150   30.9260   37.7410 H   0  0  0  0  0  0  0  0  0  0  0  0
   43.1620   32.8410   36.3600 H   0  0  0  0  0  0  0  0  0  0  0  0
   39.1520   32.5250   39.6930 N   0  0  0  0  0  0  0  0  0  0  0  0
   39.0980   31.7770   40.9410 C   0  0  0  0  0  0  0  0  0  0  0  0
   37.6680   31.2900   41.0090 C   0  0  0  0  0  0  0  0  0  0  0  0
   36.9410   31.9610   39.8670 C   0  0  0  0  0  0  0  0  0  0  0  0
   37.8300   33.1000   39.5230 C   0  0  0  0  0  0  0  0  0  0  0  0
   39.8250   30.9520   40.9780 H   0  0  0  0  0  0  0  0  0  0  0  0
   39.3020   32.5220   41.7340 H   0  0  0  0  0  0  0  0  0  0  0  0
   37.1740   31.6230   41.9670 H   0  0  0  0  0  0  0  0  0  0  0  0
   37.6200   30.1810   40.9700 H   0  0  0  0  0  0  0  0  0  0  0  0
   35.9210   32.3070   40.2030 H   0  0  0  0  0  0  0  0  0  0  0  0
   36.7310   31.2260   39.0940 H   0  0  0  0  0  0  0  0  0  0  0  0
   37.7150   33.8660   40.3250 H   0  0  0  0  0  0  0  0  0  0  0  0
   37.6720   33.5190   38.5160 H   0  0  0  0  0  0  0  0  0  0  0  0
   41.1900   34.8130   39.8760 C   0  0  0  0  0  0  0  0  0  0  0  0
   42.1990   34.7860   40.8540 C   0  0  0  0  0  0  0  0  0  0  0  0
   42.8960   33.9430   40.8680 H   0  0  0  0  0  0  0  0  0  0  0  0
   42.4100   35.7550   41.8400 C   0  0  0  0  0  0  0  0  0  0  0  0
   41.5540   36.8190   41.8480 C   0  0  0  0  0  0  0  0  0  0  0  0
   41.6530   37.6090   42.5780 H   0  0  0  0  0  0  0  0  0  0  0  0
   40.5580   36.9010   40.9260 C   0  0  0  0  0  0  0  0  0  0  0  0
   39.8340   37.7180   40.8650 H   0  0  0  0  0  0  0  0  0  0  0  0
   40.3950   35.9290   39.9840 C   0  0  0  0  0  0  0  0  0  0  0  0
  1 22  1  0  0  0  0
  2  1  1  0  0  0  0
  2  9  1  0  0  0  0
  3  2  2  0  0  0  0
  4  5  2  0  0  0  0
  4  3  1  0  0  0  0
  5  6  1  0  0  0  0
  6  1  2  0  0  0  0
  7  3  1  0  0  0  0
  8  5  1  0  0  0  0
  9 10  1  0  0  0  0
 10 14  1  0  0  0  0
 10 11  1  0  0  0  0
 10 15  1  0  0  0  0
 11 16  1  0  0  0  0
 12 18  1  0  0  0  0
 12 11  1  0  0  0  0
 13  9  1  0  0  0  0
 13 12  1  0  0  0  0
 13 20  1  0  0  0  0
 17 11  1  0  0  0  0
 19 12  1  0  0  0  0
 21 13  1  0  0  0  0
 22 30  2  0  0  0  0
 22 23  1  0  0  0  0
 23 24  1  0  0  0  0
 23 25  2  0  0  0  0
 25 26  1  0  0  0  0
 26 27  1  0  0  0  0
 28 26  2  0  0  0  0
 29 28  1  0  0  0  0
 30 28  1  0  0  0  0
M  END
>  <minimizedAffinity>
-4.86615896

>  <minimizedRMSD>
6.20761013

$$$$
