
 OpenBabel03242509053D

 38 41  0  0  1  0  0  0  0  0999 V2000
   37.9250   29.9630   39.2290 N   0  0  1  0  0  0  0  0  0  0  0  0
   37.9500   29.7740   37.7520 C   0  0  0  0  0  0  0  0  0  0  0  0
   39.1950   29.0680   37.3170 C   0  0  0  0  0  0  0  0  0  0  0  0
   40.3140   29.5560   37.9920 O   0  0  0  0  0  0  0  0  0  0  0  0
   40.0190   30.8450   38.3750 C   0  0  0  0  0  0  0  0  0  0  0  0
   38.9820   30.8480   39.5330 C   0  0  2  0  0  0  0  0  0  0  0  0
   37.7500   30.7360   37.2870 H   0  0  0  0  0  0  0  0  0  0  0  0
   37.0810   29.1130   37.5090 H   0  0  0  0  0  0  0  0  0  0  0  0
   39.3090   29.2260   36.2300 H   0  0  0  0  0  0  0  0  0  0  0  0
   39.0320   27.9840   37.4590 H   0  0  0  0  0  0  0  0  0  0  0  0
   40.9570   31.3400   38.7020 H   0  0  0  0  0  0  0  0  0  0  0  0
   39.6320   31.4800   37.5510 H   0  0  0  0  0  0  0  0  0  0  0  0
   38.6240   31.8740   39.5930 H   0  0  0  0  0  0  0  0  0  0  0  0
   39.8600   30.5020   40.6730 C   0  0  0  0  0  0  0  0  0  0  0  0
   40.3280   29.2040   40.7730 C   0  0  0  0  0  0  0  0  0  0  0  0
   40.0620   28.4250   40.0400 H   0  0  0  0  0  0  0  0  0  0  0  0
   41.1700   28.7350   41.7890 C   0  0  0  0  0  0  0  0  0  0  0  0
   41.5350   29.6890   42.7460 C   0  0  0  0  0  0  0  0  0  0  0  0
   42.1840   29.3920   43.5570 H   0  0  0  0  0  0  0  0  0  0  0  0
   41.0800   30.9880   42.6630 C   0  0  0  0  0  0  0  0  0  0  0  0
   41.3410   31.7500   43.3840 H   0  0  0  0  0  0  0  0  0  0  0  0
   40.2490   31.4070   41.6410 C   0  0  0  0  0  0  0  0  0  0  0  0
   35.8920   29.6390   40.8050 C   0  0  1  0  0  0  0  0  0  0  0  0
   36.2440   31.0720   40.8380 C   0  0  0  0  0  0  0  0  0  0  0  0
   36.6160   30.3280   39.6280 C   0  0  1  0  0  0  0  0  0  0  0  0
   34.8680   29.3160   40.6350 H   0  0  0  0  0  0  0  0  0  0  0  0
   37.0930   31.4390   41.4850 H   0  0  0  0  0  0  0  0  0  0  0  0
   35.4260   31.8400   40.8240 H   0  0  0  0  0  0  0  0  0  0  0  0
   35.8880   30.5140   38.7810 H   0  0  0  0  0  0  0  0  0  0  0  0
   37.9980   28.4620   43.5590 C   0  0  0  0  0  0  0  0  0  0  0  0
   38.1710   27.0760   43.2720 C   0  0  0  0  0  0  0  0  0  0  0  0
   37.5460   26.5950   42.1060 C   0  0  0  0  0  0  0  0  0  0  0  0
   36.8140   27.4600   41.3120 N   0  0  0  0  0  0  0  0  0  0  0  0
   36.7020   28.7450   41.6540 C   0  0  0  0  0  0  0  0  0  0  0  0
   37.2800   29.2420   42.7560 N   0  0  0  0  0  0  0  0  0  0  0  0
   38.5020   28.7530   44.4620 H   0  0  0  0  0  0  0  0  0  0  0  0
   38.7180   26.3630   43.8380 H   0  0  0  0  0  0  0  0  0  0  0  0
   37.5710   25.5880   41.7400 H   0  0  0  0  0  0  0  0  0  0  0  0
  1  2  1  6  0  0  0
  1  6  1  0  0  0  0
  1 25  1  0  0  0  0
  3 10  1  0  0  0  0
  3  2  1  0  0  0  0
  3  4  1  0  0  0  0
  4  5  1  0  0  0  0
  5 11  1  0  0  0  0
  5  6  1  0  0  0  0
  6 13  1  1  0  0  0
  6 14  1  0  0  0  0
  7  2  1  0  0  0  0
  8  2  1  0  0  0  0
  9  3  1  0  0  0  0
 12  5  1  0  0  0  0
 14 15  2  0  0  0  0
 14 22  1  0  0  0  0
 15 17  1  0  0  0  0
 16 15  1  0  0  0  0
 17 18  2  0  0  0  0
 18 19  1  0  0  0  0
 20 18  1  0  0  0  0
 20 21  1  0  0  0  0
 22 20  2  0  0  0  0
 23 26  1  6  0  0  0
 23 24  1  0  0  0  0
 23 34  1  0  0  0  0
 24 27  1  0  0  0  0
 25 29  1  6  0  0  0
 25 23  1  0  0  0  0
 25 24  1  0  0  0  0
 28 24  1  0  0  0  0
 30 36  1  0  0  0  0
 31 30  1  0  0  0  0
 31 37  1  0  0  0  0
 32 31  2  0  0  0  0
 33 34  2  0  0  0  0
 33 32  1  0  0  0  0
 34 35  1  0  0  0  0
 35 30  2  0  0  0  0
 38 32  1  0  0  0  0
M  END
>  <minimizedAffinity>
-4.72026253

>  <minimizedRMSD>
1.03201771

$$$$
