
 OpenBabel03242509283D

 48 52  0  0  0  0  0  0  0  0999 V2000
   36.1270   30.0600   41.0950 C   0  0  0  0  0  0  0  0  0  0  0  0
   35.5100   30.5460   41.9070 H   0  0  0  0  0  0  0  0  0  0  0  0
   36.7300   30.8730   40.6430 H   0  0  0  0  0  0  0  0  0  0  0  0
   38.5790   28.1150   42.6900 C   0  0  0  0  0  0  0  0  0  0  0  0
   37.4900   27.2870   42.7810 C   0  0  0  0  0  0  0  0  0  0  0  0
   36.4280   27.9590   42.1680 C   0  0  0  0  0  0  0  0  0  0  0  0
   36.9610   29.1230   41.7640 N   0  0  0  0  0  0  0  0  0  0  0  0
   38.2160   29.2580   42.0490 N   0  0  0  0  0  0  0  0  0  0  0  0
   37.4650   26.2960   43.2420 H   0  0  0  0  0  0  0  0  0  0  0  0
   35.4460   27.5330   42.0970 H   0  0  0  0  0  0  0  0  0  0  0  0
   41.5120   26.3770   44.2030 C   0  0  0  0  0  0  0  0  0  0  0  0
   40.2150   26.5940   43.7250 C   0  0  0  0  0  0  0  0  0  0  0  0
   39.9120   27.8530   43.1880 C   0  0  0  0  0  0  0  0  0  0  0  0
   40.8690   28.8220   43.1410 N   0  0  0  0  0  0  0  0  0  0  0  0
   42.1200   28.5550   43.6220 C   0  0  0  0  0  0  0  0  0  0  0  0
   42.4310   27.3510   44.1430 N   0  0  0  0  0  0  0  0  0  0  0  0
   41.7380   25.4080   44.6150 H   0  0  0  0  0  0  0  0  0  0  0  0
   39.5000   25.7970   43.7860 H   0  0  0  0  0  0  0  0  0  0  0  0
   43.1130   29.6170   43.5540 C   0  0  0  0  0  0  0  0  0  0  0  0
   43.7030   30.0630   44.7160 C   0  0  0  0  0  0  0  0  0  0  0  0
   43.4870   29.6830   45.6920 H   0  0  0  0  0  0  0  0  0  0  0  0
   44.6260   31.0650   44.5730 C   0  0  0  0  0  3  0  0  0  0  0  0
   44.9480   31.5920   43.3640 C   0  0  0  0  0  0  0  0  0  0  0  0
   45.6980   32.3880   43.3600 H   0  0  0  0  0  0  0  0  0  0  0  0
   44.3580   31.1510   42.1760 C   0  0  0  0  0  0  0  0  0  0  0  0
   44.6340   31.5870   41.2380 H   0  0  0  0  0  0  0  0  0  0  0  0
   43.4430   30.1560   42.3310 C   0  0  0  0  0  3  0  0  0  0  0  0
   35.2380   29.5020   40.0310 C   0  0  0  0  0  0  0  0  0  0  0  0
   34.5320   30.3910   39.9070 H   0  0  0  0  0  0  0  0  0  0  0  0
   34.7600   28.6030   40.3920 H   0  0  0  0  0  0  0  0  0  0  0  0
   35.8630   29.4160   38.6910 C   0  0  0  0  0  0  0  0  0  0  0  0
   37.1830   29.5460   38.3710 C   0  0  0  0  0  0  0  0  0  0  0  0
   37.7110   29.5300   37.1160 C   0  0  0  0  0  0  0  0  0  0  0  0
   36.8690   29.3740   36.0330 C   0  0  0  0  0  0  0  0  0  0  0  0
   35.5110   29.2350   36.2870 C   0  0  0  0  0  0  0  0  0  0  0  0
   34.7310   29.0820   35.1700 C   0  0  0  0  0  0  0  0  0  0  0  0
   33.3800   28.9330   35.3050 C   0  0  0  0  0  0  0  0  0  0  0  0
   32.8300   28.9360   36.5800 C   0  0  0  0  0  0  0  0  0  0  0  0
   33.6650   29.0920   37.6400 C   0  0  0  0  0  0  0  0  0  0  0  0
   35.0130   29.2520   37.5810 C   0  0  0  0  0  0  0  0  0  0  0  0
   37.8560   29.6710   39.2200 H   0  0  0  0  0  0  0  0  0  0  0  0
   38.7800   29.6430   37.0040 H   0  0  0  0  0  0  0  0  0  0  0  0
   37.2740   29.3630   35.0380 H   0  0  0  0  0  0  0  0  0  0  0  0
   35.1460   29.0750   34.1590 H   0  0  0  0  0  0  0  0  0  0  0  0
   32.7670   28.8160   34.4210 H   0  0  0  0  0  0  0  0  0  0  0  0
   31.7780   28.8160   36.6620 H   0  0  0  0  0  0  0  0  0  0  0  0
   33.0520   29.0690   38.8830 O   0  0  0  0  0  0  0  0  0  0  0  0
   32.5230   28.2880   39.2500 H   0  0  0  0  0  0  0  0  0  0  0  0
  1  7  1  0  0  0  0
  1  2  1  0  0  0  0
  3  1  1  0  0  0  0
  4  5  1  0  0  0  0
  4 13  1  0  0  0  0
  5  9  1  0  0  0  0
  6  5  2  0  0  0  0
  7  8  1  0  0  0  0
  7  6  1  0  0  0  0
  8  4  2  0  0  0  0
 10  6  1  0  0  0  0
 11 17  1  0  0  0  0
 12 18  1  0  0  0  0
 12 11  2  0  0  0  0
 13 12  1  0  0  0  0
 14 13  2  0  0  0  0
 14 15  1  0  0  0  0
 15 16  2  0  0  0  0
 16 11  1  0  0  0  0
 19 15  1  0  0  0  0
 19 20  1  0  0  0  0
 20 21  1  0  0  0  0
 22 20  2  0  0  0  0
 23 22  1  0  0  0  0
 24 23  1  0  0  0  0
 25 27  1  0  0  0  0
 25 23  2  0  0  0  0
 26 25  1  0  0  0  0
 27 19  2  0  0  0  0
 28 30  1  0  0  0  0
 28  1  1  0  0  0  0
 29 28  1  0  0  0  0
 31 28  1  0  0  0  0
 32 31  1  0  0  0  0
 32 41  1  0  0  0  0
 33 32  2  0  0  0  0
 34 35  2  0  0  0  0
 34 33  1  0  0  0  0
 35 40  1  0  0  0  0
 36 37  2  0  0  0  0
 36 35  1  0  0  0  0
 37 38  1  0  0  0  0
 38 46  1  0  0  0  0
 38 39  2  0  0  0  0
 39 47  1  0  0  0  0
 40 39  1  0  0  0  0
 40 31  2  0  0  0  0
 42 33  1  0  0  0  0
 43 34  1  0  0  0  0
 44 36  1  0  0  0  0
 45 37  1  0  0  0  0
 47 48  1  0  0  0  0
M  END
>  <minimizedAffinity>
-6.11279583

>  <minimizedRMSD>
0.427300125

$$$$
