
 OpenBabel03242506213D

 35 39  0  0  0  0  0  0  0  0999 V2000
   37.7560   30.0630   41.4500 C   0  0  0  0  0  0  0  0  0  0  0  0
   39.1440   30.3190   41.1610 C   0  0  0  0  0  0  0  0  0  0  0  0
   39.5020   31.4410   40.4920 C   0  0  0  0  0  0  0  0  0  0  0  0
   38.4860   32.2880   40.1200 N   0  0  0  0  0  0  0  0  0  0  0  0
   37.1800   32.0330   40.3970 C   0  0  0  0  0  0  0  0  0  0  0  0
   36.8180   30.9270   41.0590 N   0  0  0  0  0  0  0  0  0  0  0  0
   37.4850   29.1630   41.9850 H   0  0  0  0  0  0  0  0  0  0  0  0
   36.4630   32.7680   40.0580 H   0  0  0  0  0  0  0  0  0  0  0  0
   40.8630   31.8160   40.1460 C   0  0  0  0  0  0  0  0  0  0  0  0
   41.8430   31.5710   39.3260 N   0  0  0  0  0  0  0  0  0  0  0  0
   42.8710   32.3000   39.5600 O   0  0  0  0  0  0  0  0  0  0  0  0
   42.6800   33.0930   40.5480 C   0  0  0  0  0  0  0  0  0  0  0  0
   41.4460   32.7900   40.9020 N   0  0  0  0  0  0  0  0  0  0  0  0
   43.4890   34.0740   41.1860 N   0  0  0  0  0  0  0  0  0  0  0  0
   44.7370   34.3930   40.8280 C   0  0  0  0  0  0  0  0  0  0  0  0
   45.1940   35.3630   41.6540 N   0  0  0  0  0  0  0  0  0  0  0  0
   44.2130   35.6410   42.5280 C   0  0  0  0  0  0  0  0  0  0  0  0
   43.1590   34.8310   42.2230 N   0  0  0  0  0  0  0  0  0  0  0  0
   45.3550   33.9940   40.0270 H   0  0  0  0  0  0  0  0  0  0  0  0
   44.0810   36.3220   43.3660 H   0  0  0  0  0  0  0  0  0  0  0  0
   40.0730   29.2940   41.6360 C   0  0  0  0  0  0  0  0  0  0  0  0
   40.1720   28.0780   40.8570 C   0  0  0  0  0  0  0  0  0  0  0  0
   41.4250   27.0800   41.7850 S   0  0  0  0  0  0  0  0  0  0  0  0
   41.5720   28.5170   43.0610 C   0  0  0  0  0  0  0  0  0  0  0  0
   40.8610   29.2810   42.6800 N   0  0  0  0  0  0  0  0  0  0  0  0
   39.6440   27.8170   39.9530 H   0  0  0  0  0  0  0  0  0  0  0  0
   42.5230   28.3430   44.2040 C   0  0  0  0  0  0  0  0  0  0  0  0
   42.3790   27.2460   45.0270 C   0  0  0  0  0  0  0  0  0  0  0  0
   41.5770   26.5940   44.7710 H   0  0  0  0  0  0  0  0  0  0  0  0
   43.2690   27.1140   46.0700 C   0  0  0  0  0  0  0  0  0  0  0  0
   44.2860   28.0050   46.3380 C   0  0  0  0  0  0  0  0  0  0  0  0
   44.9150   27.7850   47.1850 H   0  0  0  0  0  0  0  0  0  0  0  0
   44.3960   29.0870   45.4910 C   0  0  0  0  0  0  0  0  0  0  0  0
   45.1980   29.7940   45.6970 H   0  0  0  0  0  0  0  0  0  0  0  0
   43.5220   29.2510   44.4370 C   0  0  0  0  0  0  0  0  0  0  0  0
  1  7  1  0  0  0  0
  2  1  1  0  0  0  0
  2 21  1  0  0  0  0
  3  2  2  0  0  0  0
  4  5  2  0  0  0  0
  4  3  1  0  0  0  0
  5  6  1  0  0  0  0
  6  1  2  0  0  0  0
  8  5  1  0  0  0  0
  9  3  1  0  0  0  0
  9 13  1  0  0  0  0
 10 11  1  0  0  0  0
 10  9  2  0  0  0  0
 11 12  1  0  0  0  0
 12 13  2  0  0  0  0
 12 14  1  0  0  0  0
 14 18  1  0  0  0  0
 15 14  1  0  0  0  0
 15 16  2  0  0  0  0
 16 17  1  0  0  0  0
 17 20  1  0  0  0  0
 18 17  2  0  0  0  0
 19 15  1  0  0  0  0
 21 25  1  0  0  0  0
 22 21  2  0  0  0  0
 22 23  1  0  0  0  0
 23 24  1  0  0  0  0
 24 27  1  0  0  0  0
 25 24  2  0  0  0  0
 26 22  1  0  0  0  0
 27 35  2  0  0  0  0
 27 28  1  0  0  0  0
 28 30  2  0  0  0  0
 29 28  1  0  0  0  0
 30 31  1  0  0  0  0
 31 32  1  0  0  0  0
 33 34  1  0  0  0  0
 33 31  2  0  0  0  0
 35 33  1  0  0  0  0
M  END
>  <minimizedAffinity>
-5.52288055

>  <minimizedRMSD>
1.25778913

$$$$
