
 OpenBabel03242508273D

 24 26  0  0  0  0  0  0  0  0999 V2000
   36.8580   30.9140   39.9400 C   0  0  0  0  0  0  0  0  0  0  0  0
   36.2650   30.9500   41.1530 N   0  0  0  0  0  0  0  0  0  0  0  0
   36.1660   29.7430   41.6410 O   0  0  0  0  0  0  0  0  0  0  0  0
   36.6940   28.9260   40.7470 C   0  0  0  0  0  0  0  0  0  0  0  0
   37.1310   29.6130   39.6860 N   0  0  0  0  0  0  0  0  0  0  0  0
   36.7830   27.4770   40.9090 C   0  0  0  0  0  0  0  0  0  0  0  0
   37.0510   26.8480   42.1060 C   0  0  0  0  0  0  0  0  0  0  0  0
   37.2040   27.4620   42.9840 H   0  0  0  0  0  0  0  0  0  0  0  0
   37.1390   25.5000   42.2770 C   0  0  0  0  0  0  0  0  0  0  0  0
   36.9510   24.6760   41.1880 C   0  0  0  0  0  0  0  0  0  0  0  0
   37.0050   23.5890   41.2410 H   0  0  0  0  0  0  0  0  0  0  0  0
   36.6810   25.2510   39.9680 C   0  0  0  0  0  0  0  0  0  0  0  0
   36.5260   24.6550   39.0870 H   0  0  0  0  0  0  0  0  0  0  0  0
   36.6000   26.6260   39.8400 C   0  0  0  0  0  0  0  0  0  0  0  0
   37.1780   31.9200   39.0420 O   0  0  0  0  0  0  0  0  0  0  0  0
   40.4340   33.5050   39.3500 C   0  0  0  0  0  0  0  0  0  0  0  0
   40.0630   34.7060   39.9680 C   0  0  0  0  0  0  0  0  0  0  0  0
   38.6870   34.8840   40.2390 C   0  0  0  0  0  0  0  0  0  0  0  0
   37.8300   33.8860   39.8840 N   0  0  0  0  0  0  0  0  0  0  0  0
   38.2320   32.7630   39.2980 C   0  0  0  0  0  0  0  0  0  0  0  0
   39.5450   32.5570   39.0210 N   0  0  0  0  0  0  0  0  0  0  0  0
   41.4650   33.2860   39.1060 H   0  0  0  0  0  0  0  0  0  0  0  0
   40.7900   35.4400   40.2170 H   0  0  0  0  0  0  0  0  0  0  0  0
   38.3560   35.8040   40.7200 H   0  0  0  0  0  0  0  0  0  0  0  0
  1  2  2  0  0  0  0
  2  3  1  0  0  0  0
  4  6  1  0  0  0  0
  4  3  1  0  0  0  0
  5  1  1  0  0  0  0
  5  4  2  0  0  0  0
  6  7  1  0  0  0  0
  7  9  2  0  0  0  0
  7  8  1  0  0  0  0
 10 11  1  0  0  0  0
 10  9  1  0  0  0  0
 12 10  2  0  0  0  0
 13 12  1  0  0  0  0
 14 12  1  0  0  0  0
 14  6  2  0  0  0  0
 15 20  1  0  0  0  0
 15  1  1  0  0  0  0
 16 17  1  0  0  0  0
 17 23  1  0  0  0  0
 17 18  2  0  0  0  0
 18 24  1  0  0  0  0
 19 18  1  0  0  0  0
 20 19  2  0  0  0  0
 21 20  1  0  0  0  0
 21 16  2  0  0  0  0
 22 16  1  0  0  0  0
M  END
>  <minimizedAffinity>
-5.08607197

>  <minimizedRMSD>
7.05706644

$$$$
