
 OpenBabel03242507513D

 40 44  0  0  1  0  0  0  0  0999 V2000
   39.8030   26.2530   43.8220 C   0  0  2  0  0  0  0  0  0  0  0  0
   40.9000   25.7820   42.8550 C   0  0  0  0  0  0  0  0  0  0  0  0
   39.6630   24.9790   43.0400 C   0  0  2  0  0  0  0  0  0  0  0  0
   40.0190   26.1870   44.9010 H   0  0  0  0  0  0  0  0  0  0  0  0
   41.8180   25.4010   43.3700 H   0  0  0  0  0  0  0  0  0  0  0  0
   41.0120   26.3290   41.9070 H   0  0  0  0  0  0  0  0  0  0  0  0
   39.6370   24.0830   43.7020 H   0  0  0  0  0  0  0  0  0  0  0  0
   38.6280   24.8870   41.9700 C   0  0  0  0  0  0  0  0  0  0  0  0
   37.5070   24.1070   42.1940 C   0  0  0  0  0  0  0  0  0  0  0  0
   36.6400   24.0890   41.1300 C   0  0  0  0  0  0  0  0  0  0  0  0
   36.7790   24.7290   39.9540 N   0  0  0  0  0  0  0  0  0  0  0  0
   37.8950   25.4740   39.7990 C   0  0  0  0  0  0  0  0  0  0  0  0
   38.7940   25.5410   40.7990 N   0  0  0  0  0  0  0  0  0  0  0  0
   37.3200   23.5670   43.0980 H   0  0  0  0  0  0  0  0  0  0  0  0
   35.7170   23.4960   41.2080 H   0  0  0  0  0  0  0  0  0  0  0  0
   38.0810   26.1830   38.5350 C   0  0  0  0  0  0  0  0  0  0  0  0
   38.7560   25.6220   37.4810 C   0  0  0  0  0  0  0  0  0  0  0  0
   39.1760   24.6400   37.5390 H   0  0  0  0  0  0  0  0  0  0  0  0
   38.8840   26.3630   36.3270 C   0  0  0  0  0  0  0  0  0  0  0  0
   38.3620   27.6440   36.1890 C   0  0  0  0  0  0  0  0  0  0  0  0
   38.4390   28.2570   35.3080 H   0  0  0  0  0  0  0  0  0  0  0  0
   37.6750   28.2130   37.2660 C   0  0  0  0  0  0  0  0  0  0  0  0
   37.2460   29.2100   37.2160 H   0  0  0  0  0  0  0  0  0  0  0  0
   37.5520   27.4520   38.4290 C   0  0  0  0  0  0  0  0  0  0  0  0
   38.4690   29.3160   42.5220 C   0  0  0  0  0  0  0  0  0  0  0  0
   37.4130   28.8990   43.3490 C   0  0  0  0  0  0  0  0  0  0  0  0
   37.8260   27.7040   43.9110 C   0  0  0  0  0  0  0  0  0  0  0  0
   39.0560   27.4360   43.4390 N   0  0  0  0  0  0  0  0  0  0  0  0
   39.4440   28.3970   42.6080 N   0  0  0  0  0  0  0  0  0  0  0  0
   36.4490   29.3550   43.5590 H   0  0  0  0  0  0  0  0  0  0  0  0
   37.2290   27.1130   44.6110 H   0  0  0  0  0  0  0  0  0  0  0  0
   37.1330   31.9580   40.3660 C   0  0  0  0  0  0  0  0  0  0  0  0
   38.1820   32.8950   40.3240 C   0  0  0  0  0  0  0  0  0  0  0  0
   39.3540   32.6020   41.0500 C   0  0  0  0  0  0  0  0  0  0  0  0
   39.4190   31.4400   41.7480 N   0  0  0  0  0  0  0  0  0  0  0  0
   38.3770   30.5550   41.7640 C   0  0  0  0  0  0  0  0  0  0  0  0
   37.2250   30.8170   41.0660 N   0  0  0  0  0  0  0  0  0  0  0  0
   36.2730   32.2530   39.7870 H   0  0  0  0  0  0  0  0  0  0  0  0
   38.1390   33.8220   39.7690 H   0  0  0  0  0  0  0  0  0  0  0  0
   40.2150   33.2570   41.0810 H   0  0  0  0  0  0  0  0  0  0  0  0
  1  4  1  1  0  0  0
  2  3  1  0  0  0  0
  2  5  1  0  0  0  0
  2  1  1  0  0  0  0
  3  7  1  1  0  0  0
  3  1  1  0  0  0  0
  6  2  1  0  0  0  0
  8  9  1  0  0  0  0
  8  3  1  0  0  0  0
  9 14  1  0  0  0  0
 10 15  1  0  0  0  0
 10  9  2  0  0  0  0
 11 10  1  0  0  0  0
 12 11  2  0  0  0  0
 12 13  1  0  0  0  0
 13  8  2  0  0  0  0
 16 12  1  0  0  0  0
 17 18  1  0  0  0  0
 17 16  2  0  0  0  0
 19 17  1  0  0  0  0
 20 19  2  0  0  0  0
 20 22  1  0  0  0  0
 21 20  1  0  0  0  0
 22 24  2  0  0  0  0
 23 22  1  0  0  0  0
 24 16  1  0  0  0  0
 25 29  2  0  0  0  0
 25 26  1  0  0  0  0
 26 30  1  0  0  0  0
 26 27  2  0  0  0  0
 27 31  1  0  0  0  0
 28  1  1  0  0  0  0
 28 27  1  0  0  0  0
 29 28  1  0  0  0  0
 32 37  1  0  0  0  0
 33 32  2  0  0  0  0
 33 34  1  0  0  0  0
 34 40  1  0  0  0  0
 34 35  2  0  0  0  0
 35 36  1  0  0  0  0
 36 25  1  0  0  0  0
 37 36  2  0  0  0  0
 38 32  1  0  0  0  0
 39 33  1  0  0  0  0
M  END
>  <minimizedAffinity>
-5.66359854

>  <minimizedRMSD>
0.64656651

$$$$
