
 OpenBabel03242509113D

 40 44  0  0  1  0  0  0  0  0999 V2000
   36.2360   30.8880   41.0160 C   0  0  0  0  0  0  0  0  0  0  0  0
   36.6610   29.6940   41.6150 C   0  0  0  0  0  0  0  0  0  0  0  0
   38.0200   29.4010   41.6250 C   0  0  0  0  0  0  0  0  0  0  0  0
   38.8470   30.3060   41.0460 N   0  0  0  0  0  0  0  0  0  0  0  0
   38.4320   31.4440   40.4750 C   0  0  0  0  0  0  0  0  0  0  0  0
   37.1160   31.7480   40.4540 N   0  0  0  0  0  0  0  0  0  0  0  0
   35.1600   31.0810   41.0280 H   0  0  0  0  0  0  0  0  0  0  0  0
   35.9470   28.9990   42.0690 H   0  0  0  0  0  0  0  0  0  0  0  0
   38.4710   28.1620   42.2300 C   0  0  0  0  0  0  0  0  0  0  0  0
   39.3990   27.9930   43.2310 C   0  0  0  0  0  0  0  0  0  0  0  0
   39.5440   26.6840   43.5110 N   0  0  0  0  0  0  0  0  0  0  0  0
   38.7240   25.9600   42.7100 C   0  0  0  0  0  0  0  0  0  0  0  0
   38.4560   24.6000   42.5550 C   0  0  0  0  0  0  0  0  0  0  0  0
   37.5400   24.1410   41.6260 C   0  0  0  0  0  0  0  0  0  0  0  0
   36.8980   25.0750   40.8560 C   0  0  0  0  0  0  0  0  0  0  0  0
   37.1440   26.4120   40.9890 C   0  0  0  0  0  0  0  0  0  0  0  0
   38.0540   26.8800   41.9110 C   0  0  0  0  0  0  0  0  0  0  0  0
   39.9040   28.8350   43.6880 H   0  0  0  0  0  0  0  0  0  0  0  0
   40.1860   26.2710   44.2310 H   0  0  0  0  0  0  0  0  0  0  0  0
   39.0130   23.9300   43.2080 H   0  0  0  0  0  0  0  0  0  0  0  0
   37.4100   23.0760   41.5900 H   0  0  0  0  0  0  0  0  0  0  0  0
   36.1860   24.6980   40.1370 H   0  0  0  0  0  0  0  0  0  0  0  0
   36.6340   27.1420   40.3790 H   0  0  0  0  0  0  0  0  0  0  0  0
   39.4180   32.3920   39.8670 C   0  0  1  0  0  0  0  0  0  0  0  0
   39.3600   33.8480   40.3040 C   0  0  0  0  0  0  0  0  0  0  0  0
   40.4810   32.9670   40.7420 C   0  0  2  0  0  0  0  0  0  0  0  0
   39.5990   32.2020   38.7810 H   0  0  0  0  0  0  0  0  0  0  0  0
   38.5210   34.0720   40.9650 H   0  0  0  0  0  0  0  0  0  0  0  0
   39.5890   34.5740   39.5090 H   0  0  0  0  0  0  0  0  0  0  0  0
   40.3870   32.6710   41.8280 H   0  0  0  0  0  0  0  0  0  0  0  0
   44.4530   33.5400   39.3130 C   0  0  0  0  0  0  0  0  0  0  0  0
   43.3660   33.8690   38.5280 C   0  0  0  0  0  0  0  0  0  0  0  0
   42.0840   33.6710   39.0230 C   0  0  0  0  0  0  0  0  0  0  0  0
   41.8610   33.1450   40.2950 C   0  0  0  0  0  0  0  0  0  0  0  0
   42.9390   32.8120   41.0880 C   0  0  0  0  0  0  0  0  0  0  0  0
   44.2150   33.0140   40.5830 C   0  0  0  0  0  0  0  0  0  0  0  0
   47.0060   33.0350   39.1310 H   0  0  0  0  0  0  0  0  0  0  0  0
   46.0150   33.8130   38.6350 S   0  0  0  0  0  0  0  0  0  0  0  0
   45.8970   33.6190   37.1300 O   0  0  0  0  0  0  0  0  0  0  0  0
   46.3210   35.2940   38.7960 O   0  0  0  0  0  0  0  0  0  0  0  0
  1  7  1  0  0  0  0
  1  2  1  0  0  0  0
  2  3  2  0  0  0  0
  2  8  1  0  0  0  0
  3  9  1  0  0  0  0
  4  3  1  0  0  0  0
  5  4  2  0  0  0  0
  6  5  1  0  0  0  0
  6  1  2  0  0  0  0
  9 10  2  0  0  0  0
 10 11  1  0  0  0  0
 10 18  1  0  0  0  0
 11 19  1  0  0  0  0
 12 11  1  0  0  0  0
 13 12  1  0  0  0  0
 13 20  1  0  0  0  0
 14 13  2  0  0  0  0
 15 16  2  0  0  0  0
 15 14  1  0  0  0  0
 16 17  1  0  0  0  0
 17  9  1  0  0  0  0
 17 12  2  0  0  0  0
 21 14  1  0  0  0  0
 22 15  1  0  0  0  0
 23 16  1  0  0  0  0
 24 27  1  6  0  0  0
 24 25  1  0  0  0  0
 24  5  1  0  0  0  0
 24 26  1  0  0  0  0
 25 26  1  0  0  0  0
 25 28  1  0  0  0  0
 26 30  1  1  0  0  0
 29 25  1  0  0  0  0
 31 36  1  0  0  0  0
 32 33  1  0  0  0  0
 32 31  2  0  0  0  0
 33 34  2  0  0  0  0
 34 26  1  0  0  0  0
 34 35  1  0  0  0  0
 36 35  2  0  0  0  0
 38 40  2  0  0  0  0
 38 37  1  0  0  0  0
 38 31  1  0  0  0  0
 39 38  2  0  0  0  0
M  END
>  <minimizedAffinity>
-6.17122412

>  <minimizedRMSD>
0.727023304

$$$$
