
 OpenBabel03242509283D

 49 53  0  0  0  0  0  0  0  0999 V2000
   38.4690   28.0940   42.6160 C   0  0  0  0  0  0  0  0  0  0  0  0
   37.3990   27.2370   42.6770 C   0  0  0  0  0  0  0  0  0  0  0  0
   36.3410   27.8870   42.0330 C   0  0  0  0  0  0  0  0  0  0  0  0
   36.8500   29.0580   41.6460 N   0  0  0  0  0  0  0  0  0  0  0  0
   38.0910   29.2160   41.9680 N   0  0  0  0  0  0  0  0  0  0  0  0
   37.3700   26.2410   43.1350 H   0  0  0  0  0  0  0  0  0  0  0  0
   35.3660   27.4230   41.9390 H   0  0  0  0  0  0  0  0  0  0  0  0
   41.4220   26.4210   44.1490 C   0  0  0  0  0  0  0  0  0  0  0  0
   40.1270   26.5830   43.6480 C   0  0  0  0  0  0  0  0  0  0  0  0
   39.7930   27.8570   43.1500 C   0  0  0  0  0  0  0  0  0  0  0  0
   40.7090   28.8570   43.1720 N   0  0  0  0  0  0  0  0  0  0  0  0
   41.9660   28.6250   43.6810 C   0  0  0  0  0  0  0  0  0  0  0  0
   42.3080   27.4260   44.1590 N   0  0  0  0  0  0  0  0  0  0  0  0
   41.6440   25.4170   44.5270 H   0  0  0  0  0  0  0  0  0  0  0  0
   39.4220   25.7670   43.6460 H   0  0  0  0  0  0  0  0  0  0  0  0
   44.6970   31.8420   43.6690 C   0  0  0  0  0  0  0  0  0  0  0  0
   45.0400   30.6660   44.3010 C   0  0  0  0  0  3  0  0  0  0  0  0
   44.1450   29.6120   44.3040 C   0  0  0  0  0  3  0  0  0  0  0  0
   42.9180   29.7300   43.6840 C   0  0  0  0  0  0  0  0  0  0  0  0
   42.5830   30.9110   43.0540 C   0  0  0  0  0  3  0  0  0  0  0  0
   43.4620   31.9950   43.0310 C   0  0  0  0  0  3  0  0  0  0  0  0
   47.1520   32.5250   44.0080 H   0  0  0  0  0  0  0  0  0  0  0  0
   45.9290   33.0860   43.7470 S   0  0  0  0  0  0  0  0  0  0  0  0
   46.0750   33.7860   42.4170 O   0  0  0  0  0  0  0  0  0  0  0  0
   45.6460   34.1240   44.7780 O   0  0  0  0  0  0  0  0  0  0  0  0
   36.0200   29.9820   40.9520 C   0  0  0  0  0  0  0  0  0  0  0  0
   36.6210   30.8020   40.5070 H   0  0  0  0  0  0  0  0  0  0  0  0
   35.3860   30.4760   41.7470 H   0  0  0  0  0  0  0  0  0  0  0  0
   35.1620   29.4040   39.8730 C   0  0  0  0  0  0  0  0  0  0  0  0
   34.7160   28.4800   40.2200 H   0  0  0  0  0  0  0  0  0  0  0  0
   34.4180   30.2660   39.7620 H   0  0  0  0  0  0  0  0  0  0  0  0
   35.7890   29.3670   38.5370 C   0  0  0  0  0  0  0  0  0  0  0  0
   37.1170   29.5060   38.2330 C   0  0  0  0  0  0  0  0  0  0  0  0
   37.6570   29.5340   36.9800 C   0  0  0  0  0  0  0  0  0  0  0  0
   36.8250   29.4170   35.8870 C   0  0  0  0  0  0  0  0  0  0  0  0
   35.4740   29.2730   36.1240 C   0  0  0  0  0  0  0  0  0  0  0  0
   34.6920   29.1650   34.9960 C   0  0  0  0  0  0  0  0  0  0  0  0
   33.3470   29.0200   35.1290 C   0  0  0  0  0  0  0  0  0  0  0  0
   32.7750   28.9800   36.3760 C   0  0  0  0  0  0  0  0  0  0  0  0
   33.6060   29.0920   37.4590 C   0  0  0  0  0  0  0  0  0  0  0  0
   34.9530   29.2440   37.4180 C   0  0  0  0  0  0  0  0  0  0  0  0
   37.7790   29.5990   39.0990 H   0  0  0  0  0  0  0  0  0  0  0  0
   38.7240   29.6480   36.8930 H   0  0  0  0  0  0  0  0  0  0  0  0
   37.2600   29.4420   34.9060 H   0  0  0  0  0  0  0  0  0  0  0  0
   35.1110   29.1910   33.9960 H   0  0  0  0  0  0  0  0  0  0  0  0
   32.7270   28.9370   34.2270 H   0  0  0  0  0  0  0  0  0  0  0  0
   31.7050   28.8630   36.4760 H   0  0  0  0  0  0  0  0  0  0  0  0
   32.9790   29.0270   38.7000 O   0  0  0  0  0  0  0  0  0  0  0  0
   32.2590   29.6850   38.9710 H   0  0  0  0  0  0  0  0  0  0  0  0
  1  2  1  0  0  0  0
  1 10  1  0  0  0  0
  2  6  1  0  0  0  0
  3  2  2  0  0  0  0
  4  5  1  0  0  0  0
  4  3  1  0  0  0  0
  5  1  2  0  0  0  0
  7  3  1  0  0  0  0
  8 13  1  0  0  0  0
  8 14  1  0  0  0  0
  9  8  2  0  0  0  0
 10 11  2  0  0  0  0
 10  9  1  0  0  0  0
 11 12  1  0  0  0  0
 12 19  1  0  0  0  0
 12 13  2  0  0  0  0
 15  9  1  0  0  0  0
 16 23  1  0  0  0  0
 16 17  1  0  0  0  0
 17 18  2  0  0  0  0
 19 18  1  0  0  0  0
 20 19  2  0  0  0  0
 21 20  1  0  0  0  0
 21 16  2  0  0  0  0
 23 22  1  0  0  0  0
 23 25  2  0  0  0  0
 24 23  2  0  0  0  0
 26  4  1  0  0  0  0
 26 28  1  0  0  0  0
 27 26  1  0  0  0  0
 29 30  1  0  0  0  0
 29 26  1  0  0  0  0
 31 29  1  0  0  0  0
 32 29  1  0  0  0  0
 33 32  1  0  0  0  0
 33 42  1  0  0  0  0
 34 33  2  0  0  0  0
 35 36  2  0  0  0  0
 35 34  1  0  0  0  0
 36 41  1  0  0  0  0
 37 38  2  0  0  0  0
 37 36  1  0  0  0  0
 38 39  1  0  0  0  0
 39 47  1  0  0  0  0
 39 40  2  0  0  0  0
 40 48  1  0  0  0  0
 41 40  1  0  0  0  0
 41 32  2  0  0  0  0
 43 34  1  0  0  0  0
 44 35  1  0  0  0  0
 45 37  1  0  0  0  0
 46 38  1  0  0  0  0
 48 49  1  0  0  0  0
M  END
>  <minimizedAffinity>
-6.39247799

>  <minimizedRMSD>
1.04739153

$$$$
