
 OpenBabel03242509233D

 48 52  0  0  0  0  0  0  0  0999 V2000
   37.5390   28.9950   37.2060 C   0  0  0  0  0  0  0  0  0  0  0  0
   38.8970   29.2170   37.3830 C   0  0  0  0  0  0  0  0  0  0  0  0
   39.9090   28.3610   37.0740 C   0  0  0  0  0  0  0  0  0  0  0  0
   39.5920   27.1460   36.5310 C   0  0  0  0  0  0  0  0  0  0  0  0
   38.2520   26.8500   36.3230 C   0  0  0  0  0  0  0  0  0  0  0  0
   38.0080   25.6140   35.7750 C   0  0  0  0  0  0  0  0  0  0  0  0
   36.7320   25.2200   35.5340 C   0  0  0  0  0  0  0  0  0  0  0  0
   35.6970   26.0900   35.8520 C   0  0  0  0  0  0  0  0  0  0  0  0
   36.0080   27.3190   36.4000 C   0  0  0  0  0  0  0  0  0  0  0  0
   37.2750   27.7510   36.6540 C   0  0  0  0  0  0  0  0  0  0  0  0
   39.1610   30.1740   37.8150 H   0  0  0  0  0  0  0  0  0  0  0  0
   40.9330   28.6520   37.2610 H   0  0  0  0  0  0  0  0  0  0  0  0
   40.4110   26.4800   36.2910 H   0  0  0  0  0  0  0  0  0  0  0  0
   38.8190   24.9380   35.5280 H   0  0  0  0  0  0  0  0  0  0  0  0
   36.5800   24.2290   35.0960 H   0  0  0  0  0  0  0  0  0  0  0  0
   34.7260   25.6670   35.6180 H   0  0  0  0  0  0  0  0  0  0  0  0
   32.4200   29.6070   36.4010 C   0  0  0  0  0  0  0  0  0  0  0  0
   33.1810   29.3290   35.2870 C   0  0  0  0  0  0  0  0  0  0  0  0
   34.3310   28.5380   35.4070 C   0  0  0  0  0  0  0  0  0  0  0  0
   34.7510   28.0010   36.6590 C   0  0  0  0  0  0  0  0  0  0  0  0
   33.9330   28.3260   37.7270 C   0  0  0  0  0  0  0  0  0  0  0  0
   32.8070   29.1010   37.6070 C   0  0  0  0  0  0  0  0  0  0  0  0
   30.7920   31.1360   37.6430 H   0  0  0  0  0  0  0  0  0  0  0  0
   30.9630   30.5740   36.4170 S   0  0  0  0  0  0  0  0  0  0  0  0
   31.0770   31.6980   35.4090 O   0  0  0  0  0  0  0  0  0  0  0  0
   29.7550   29.7630   36.0550 O   0  0  0  0  0  0  0  0  0  0  0  0
   36.4290   29.9230   37.4740 C   0  0  0  0  0  0  0  0  0  0  0  0
   36.6310   30.7920   36.8000 H   0  0  0  0  0  0  0  0  0  0  0  0
   35.4430   29.5430   37.5860 H   0  0  0  0  0  0  0  0  0  0  0  0
   36.5470   30.6440   38.8010 C   0  0  0  0  0  0  0  0  0  0  0  0
   35.5620   31.1330   39.0840 H   0  0  0  0  0  0  0  0  0  0  0  0
   37.2260   31.5060   38.6750 H   0  0  0  0  0  0  0  0  0  0  0  0
   37.7140   28.6480   41.4760 C   0  0  0  0  0  0  0  0  0  0  0  0
   36.3650   28.4390   41.5570 C   0  0  0  0  0  0  0  0  0  0  0  0
   35.7890   29.1870   40.5310 C   0  0  0  0  0  0  0  0  0  0  0  0
   36.8390   29.7930   39.9060 N   0  0  0  0  0  0  0  0  0  0  0  0
   37.9510   29.4830   40.4490 N   0  0  0  0  0  0  0  0  0  0  0  0
   35.8950   27.7920   42.3110 H   0  0  0  0  0  0  0  0  0  0  0  0
   34.7070   29.1410   40.4410 H   0  0  0  0  0  0  0  0  0  0  0  0
   39.4270   26.5190   44.0210 C   0  0  0  0  0  0  0  0  0  0  0  0
   38.4090   27.0200   43.1980 C   0  0  0  0  0  0  0  0  0  0  0  0
   38.7310   28.0880   42.3390 C   0  0  0  0  0  0  0  0  0  0  0  0
   39.9870   28.5920   42.3310 N   0  0  0  0  0  0  0  0  0  0  0  0
   40.9400   28.0590   43.1600 C   0  0  0  0  0  0  0  0  0  0  0  0
   40.6640   27.0490   43.9820 N   0  0  0  0  0  0  0  0  0  0  0  0
   39.2210   25.6950   44.6980 H   0  0  0  0  0  0  0  0  0  0  0  0
   37.4200   26.6220   43.2050 H   0  0  0  0  0  0  0  0  0  0  0  0
   41.9080   28.4970   43.1070 H   0  0  0  0  0  0  0  0  0  0  0  0
  1  2  1  0  0  0  0
  1 27  1  0  0  0  0
  2 11  1  0  0  0  0
  3 12  1  0  0  0  0
  3  2  2  0  0  0  0
  4  3  1  0  0  0  0
  5  4  2  0  0  0  0
  5 10  1  0  0  0  0
  6  5  1  0  0  0  0
  7  6  2  0  0  0  0
  7  8  1  0  0  0  0
  8  9  2  0  0  0  0
  9 10  1  0  0  0  0
  9 20  1  0  0  0  0
 10  1  2  0  0  0  0
 13  4  1  0  0  0  0
 14  6  1  0  0  0  0
 15  7  1  0  0  0  0
 16  8  1  0  0  0  0
 17 24  1  0  0  0  0
 17 22  1  0  0  0  0
 18 19  1  0  0  0  0
 18 17  2  0  0  0  0
 19 20  2  0  0  0  0
 20 21  1  0  0  0  0
 22 21  2  0  0  0  0
 24 23  1  0  0  0  0
 25 24  2  0  0  0  0
 26 24  2  0  0  0  0
 27 29  1  0  0  0  0
 27 30  1  0  0  0  0
 28 27  1  0  0  0  0
 30 31  1  0  0  0  0
 30 36  1  0  0  0  0
 32 30  1  0  0  0  0
 33 34  1  0  0  0  0
 33 42  1  0  0  0  0
 34 38  1  0  0  0  0
 35 34  2  0  0  0  0
 36 37  1  0  0  0  0
 36 35  1  0  0  0  0
 37 33  2  0  0  0  0
 39 35  1  0  0  0  0
 40 46  1  0  0  0  0
 41 47  1  0  0  0  0
 41 40  2  0  0  0  0
 42 41  1  0  0  0  0
 43 42  2  0  0  0  0
 43 44  1  0  0  0  0
 44 45  2  0  0  0  0
 45 40  1  0  0  0  0
 48 44  1  0  0  0  0
M  END
>  <minimizedAffinity>
-5.54680967

>  <minimizedRMSD>
3.66450095

$$$$
