
 OpenBabel03242509283D

 49 53  0  0  0  0  0  0  0  0999 V2000
   38.6520   28.1530   42.7140 C   0  0  0  0  0  0  0  0  0  0  0  0
   37.5800   27.3030   42.8130 C   0  0  0  0  0  0  0  0  0  0  0  0
   36.5060   27.9560   42.2000 C   0  0  0  0  0  0  0  0  0  0  0  0
   37.0090   29.1230   41.7920 N   0  0  0  0  0  0  0  0  0  0  0  0
   38.2610   29.2750   42.0740 N   0  0  0  0  0  0  0  0  0  0  0  0
   37.5600   26.3080   43.2760 H   0  0  0  0  0  0  0  0  0  0  0  0
   35.5260   27.4980   42.1390 H   0  0  0  0  0  0  0  0  0  0  0  0
   41.6100   26.5080   44.2690 C   0  0  0  0  0  0  0  0  0  0  0  0
   40.2990   26.6780   43.8150 C   0  0  0  0  0  0  0  0  0  0  0  0
   39.9910   27.9110   43.2060 C   0  0  0  0  0  0  0  0  0  0  0  0
   40.9480   28.8640   43.0830 N   0  0  0  0  0  0  0  0  0  0  0  0
   42.2180   28.6270   43.5540 C   0  0  0  0  0  0  0  0  0  0  0  0
   42.5350   27.4680   44.1340 N   0  0  0  0  0  0  0  0  0  0  0  0
   41.8100   25.5380   44.7360 H   0  0  0  0  0  0  0  0  0  0  0  0
   39.5620   25.8990   43.9300 H   0  0  0  0  0  0  0  0  0  0  0  0
   45.0710   31.7060   43.1090 C   0  0  0  0  0  0  0  0  0  0  0  0
   45.4870   30.3910   43.1050 C   0  0  0  0  0  3  0  0  0  0  0  0
   44.5520   29.3830   43.2500 C   0  0  0  0  0  3  0  0  0  0  0  0
   43.2140   29.6820   43.3990 C   0  0  0  0  0  0  0  0  0  0  0  0
   42.8050   31.0000   43.4010 C   0  0  0  0  0  3  0  0  0  0  0  0
   43.7220   32.0440   43.2570 C   0  0  0  0  0  3  0  0  0  0  0  0
   47.5810   32.2610   43.0950 H   0  0  0  0  0  0  0  0  0  0  0  0
   46.3660   32.8700   42.9140 S   0  0  0  0  0  0  0  0  0  0  0  0
   46.3890   33.4230   41.5080 O   0  0  0  0  0  0  0  0  0  0  0  0
   46.2600   34.0220   43.8540 O   0  0  0  0  0  0  0  0  0  0  0  0
   36.1630   30.0490   41.1210 C   0  0  0  0  0  0  0  0  0  0  0  0
   36.7530   30.8690   40.6620 H   0  0  0  0  0  0  0  0  0  0  0  0
   35.5510   30.5430   41.9330 H   0  0  0  0  0  0  0  0  0  0  0  0
   35.2760   29.4740   40.0640 C   0  0  0  0  0  0  0  0  0  0  0  0
   34.8110   28.5690   40.4340 H   0  0  0  0  0  0  0  0  0  0  0  0
   34.5530   30.3530   39.9480 H   0  0  0  0  0  0  0  0  0  0  0  0
   35.8840   29.3970   38.7220 C   0  0  0  0  0  0  0  0  0  0  0  0
   37.2080   29.5220   38.3960 C   0  0  0  0  0  0  0  0  0  0  0  0
   37.7300   29.5120   37.1350 C   0  0  0  0  0  0  0  0  0  0  0  0
   36.8830   29.3670   36.0570 C   0  0  0  0  0  0  0  0  0  0  0  0
   35.5340   29.2330   36.3170 C   0  0  0  0  0  0  0  0  0  0  0  0
   34.7370   29.0960   35.2040 C   0  0  0  0  0  0  0  0  0  0  0  0
   33.3930   28.9590   35.3600 C   0  0  0  0  0  0  0  0  0  0  0  0
   32.8380   28.9570   36.6150 C   0  0  0  0  0  0  0  0  0  0  0  0
   33.6860   29.0980   37.6820 C   0  0  0  0  0  0  0  0  0  0  0  0
   35.0310   29.2440   37.6190 C   0  0  0  0  0  0  0  0  0  0  0  0
   37.8820   29.6390   39.2480 H   0  0  0  0  0  0  0  0  0  0  0  0
   38.7960   29.6210   37.0290 H   0  0  0  0  0  0  0  0  0  0  0  0
   37.3040   29.3620   35.0690 H   0  0  0  0  0  0  0  0  0  0  0  0
   35.1420   29.0910   34.1970 H   0  0  0  0  0  0  0  0  0  0  0  0
   32.7600   28.8510   34.4690 H   0  0  0  0  0  0  0  0  0  0  0  0
   31.7700   28.8460   36.7340 H   0  0  0  0  0  0  0  0  0  0  0  0
   33.0760   29.0700   38.9330 O   0  0  0  0  0  0  0  0  0  0  0  0
   32.3610   29.7380   39.1960 H   0  0  0  0  0  0  0  0  0  0  0  0
  1  2  1  0  0  0  0
  1 10  1  0  0  0  0
  2  6  1  0  0  0  0
  3  2  2  0  0  0  0
  4  5  1  0  0  0  0
  4  3  1  0  0  0  0
  5  1  2  0  0  0  0
  7  3  1  0  0  0  0
  8 14  1  0  0  0  0
  9 15  1  0  0  0  0
  9  8  2  0  0  0  0
 10  9  1  0  0  0  0
 11 10  2  0  0  0  0
 11 12  1  0  0  0  0
 12 13  2  0  0  0  0
 13  8  1  0  0  0  0
 16 21  1  0  0  0  0
 17 16  2  0  0  0  0
 17 18  1  0  0  0  0
 18 19  2  0  0  0  0
 19 20  1  0  0  0  0
 19 12  1  0  0  0  0
 21 20  2  0  0  0  0
 23 22  1  0  0  0  0
 23 16  1  0  0  0  0
 23 25  2  0  0  0  0
 24 23  2  0  0  0  0
 26  4  1  0  0  0  0
 26 28  1  0  0  0  0
 27 26  1  0  0  0  0
 29 30  1  0  0  0  0
 29 26  1  0  0  0  0
 31 29  1  0  0  0  0
 32 29  1  0  0  0  0
 33 32  1  0  0  0  0
 33 42  1  0  0  0  0
 34 33  2  0  0  0  0
 35 36  2  0  0  0  0
 35 34  1  0  0  0  0
 36 41  1  0  0  0  0
 37 38  2  0  0  0  0
 37 36  1  0  0  0  0
 38 39  1  0  0  0  0
 39 47  1  0  0  0  0
 39 40  2  0  0  0  0
 40 48  1  0  0  0  0
 41 40  1  0  0  0  0
 41 32  2  0  0  0  0
 43 34  1  0  0  0  0
 44 35  1  0  0  0  0
 45 37  1  0  0  0  0
 46 38  1  0  0  0  0
 48 49  1  0  0  0  0
M  END
>  <minimizedAffinity>
-6.28306437

>  <minimizedRMSD>
0.558083713

$$$$
