
 OpenBabel03242509293D

 49 53  0  0  0  0  0  0  0  0999 V2000
   38.6860   28.1550   42.7210 C   0  0  0  0  0  0  0  0  0  0  0  0
   37.6140   27.3050   42.8230 C   0  0  0  0  0  0  0  0  0  0  0  0
   36.5370   27.9590   42.2160 C   0  0  0  0  0  0  0  0  0  0  0  0
   37.0390   29.1260   41.8070 N   0  0  0  0  0  0  0  0  0  0  0  0
   38.2920   29.2780   42.0830 N   0  0  0  0  0  0  0  0  0  0  0  0
   37.5950   26.3100   43.2850 H   0  0  0  0  0  0  0  0  0  0  0  0
   35.5560   27.5020   42.1590 H   0  0  0  0  0  0  0  0  0  0  0  0
   41.6440   26.5160   44.2800 C   0  0  0  0  0  0  0  0  0  0  0  0
   40.3300   26.6870   43.8340 C   0  0  0  0  0  0  0  0  0  0  0  0
   40.0270   27.9120   43.2070 C   0  0  0  0  0  0  0  0  0  0  0  0
   40.9880   28.8570   43.0600 N   0  0  0  0  0  0  0  0  0  0  0  0
   42.2610   28.6180   43.5250 C   0  0  0  0  0  0  0  0  0  0  0  0
   42.5750   27.4670   44.1220 N   0  0  0  0  0  0  0  0  0  0  0  0
   41.8410   25.5520   44.7620 H   0  0  0  0  0  0  0  0  0  0  0  0
   39.5890   25.9150   43.9670 H   0  0  0  0  0  0  0  0  0  0  0  0
   45.1480   31.6570   43.0380 C   0  0  0  0  0  0  0  0  0  0  0  0
   44.9730   30.7240   42.0380 C   0  0  0  0  0  3  0  0  0  0  0  0
   44.0270   29.7290   42.1980 C   0  0  0  0  0  3  0  0  0  0  0  0
   43.2630   29.6640   43.3450 C   0  0  0  0  0  0  0  0  0  0  0  0
   43.4450   30.6010   44.3400 C   0  0  0  0  0  3  0  0  0  0  0  0
   44.3920   31.6200   44.2120 C   0  0  0  0  0  3  0  0  0  0  0  0
   47.5460   32.2410   42.3110 H   0  0  0  0  0  0  0  0  0  0  0  0
   46.3800   32.8550   42.6950 S   0  0  0  0  0  0  0  0  0  0  0  0
   45.9750   33.7270   41.5290 O   0  0  0  0  0  0  0  0  0  0  0  0
   46.6660   33.7480   43.8540 O   0  0  0  0  0  0  0  0  0  0  0  0
   36.1890   30.0530   41.1410 C   0  0  0  0  0  0  0  0  0  0  0  0
   36.7780   30.8740   40.6800 H   0  0  0  0  0  0  0  0  0  0  0  0
   35.5810   30.5470   41.9560 H   0  0  0  0  0  0  0  0  0  0  0  0
   35.2980   29.4800   40.0870 C   0  0  0  0  0  0  0  0  0  0  0  0
   34.8320   28.5760   40.4580 H   0  0  0  0  0  0  0  0  0  0  0  0
   34.5770   30.3600   39.9720 H   0  0  0  0  0  0  0  0  0  0  0  0
   35.9020   29.4010   38.7430 C   0  0  0  0  0  0  0  0  0  0  0  0
   37.2250   29.5270   38.4120 C   0  0  0  0  0  0  0  0  0  0  0  0
   37.7430   29.5160   37.1500 C   0  0  0  0  0  0  0  0  0  0  0  0
   36.8920   29.3680   36.0740 C   0  0  0  0  0  0  0  0  0  0  0  0
   35.5450   29.2340   36.3390 C   0  0  0  0  0  0  0  0  0  0  0  0
   34.7430   29.0940   35.2290 C   0  0  0  0  0  0  0  0  0  0  0  0
   33.4010   28.9560   35.3890 C   0  0  0  0  0  0  0  0  0  0  0  0
   32.8500   28.9550   36.6470 C   0  0  0  0  0  0  0  0  0  0  0  0
   33.7010   29.0980   37.7110 C   0  0  0  0  0  0  0  0  0  0  0  0
   35.0460   29.2460   37.6420 C   0  0  0  0  0  0  0  0  0  0  0  0
   37.9020   29.6450   39.2620 H   0  0  0  0  0  0  0  0  0  0  0  0
   38.8090   29.6250   37.0400 H   0  0  0  0  0  0  0  0  0  0  0  0
   37.3110   29.3620   35.0860 H   0  0  0  0  0  0  0  0  0  0  0  0
   35.1460   29.0870   34.2210 H   0  0  0  0  0  0  0  0  0  0  0  0
   32.7650   28.8460   34.5010 H   0  0  0  0  0  0  0  0  0  0  0  0
   31.7820   28.8440   36.7690 H   0  0  0  0  0  0  0  0  0  0  0  0
   33.0950   29.0720   38.9640 O   0  0  0  0  0  0  0  0  0  0  0  0
   32.3800   29.7400   39.2280 H   0  0  0  0  0  0  0  0  0  0  0  0
  1  2  1  0  0  0  0
  1 10  1  0  0  0  0
  2  6  1  0  0  0  0
  3  2  2  0  0  0  0
  4  5  1  0  0  0  0
  4  3  1  0  0  0  0
  5  1  2  0  0  0  0
  7  3  1  0  0  0  0
  8 14  1  0  0  0  0
  9 15  1  0  0  0  0
  9  8  2  0  0  0  0
 10  9  1  0  0  0  0
 11 10  2  0  0  0  0
 11 12  1  0  0  0  0
 12 13  2  0  0  0  0
 13  8  1  0  0  0  0
 16 21  1  0  0  0  0
 17 18  1  0  0  0  0
 17 16  2  0  0  0  0
 18 19  2  0  0  0  0
 19 12  1  0  0  0  0
 19 20  1  0  0  0  0
 21 20  2  0  0  0  0
 22 23  1  0  0  0  0
 23 16  1  0  0  0  0
 23 25  2  0  0  0  0
 24 23  2  0  0  0  0
 26  4  1  0  0  0  0
 26 28  1  0  0  0  0
 27 26  1  0  0  0  0
 29 30  1  0  0  0  0
 29 26  1  0  0  0  0
 31 29  1  0  0  0  0
 32 29  1  0  0  0  0
 33 32  1  0  0  0  0
 33 42  1  0  0  0  0
 34 33  2  0  0  0  0
 35 36  2  0  0  0  0
 35 34  1  0  0  0  0
 36 41  1  0  0  0  0
 37 38  2  0  0  0  0
 37 36  1  0  0  0  0
 38 39  1  0  0  0  0
 39 47  1  0  0  0  0
 39 40  2  0  0  0  0
 40 48  1  0  0  0  0
 41 40  1  0  0  0  0
 41 32  2  0  0  0  0
 43 34  1  0  0  0  0
 44 35  1  0  0  0  0
 45 37  1  0  0  0  0
 46 38  1  0  0  0  0
 48 49  1  0  0  0  0
M  END
>  <minimizedAffinity>
-6.26533651

>  <minimizedRMSD>
0.433101445

$$$$
