
 OpenBabel03242507353D

 26 27  0  0  0  0  0  0  0  0999 V2000
   38.5270   29.2170   42.5070 C   0  0  0  0  0  0  0  0  0  0  0  0
   37.7610   29.1170   41.2990 C   0  0  0  0  0  0  0  0  0  0  0  0
   37.2370   27.8640   41.0720 C   0  0  0  0  0  0  0  0  0  0  0  0
   37.4510   26.8370   41.9450 N   0  0  0  0  0  0  0  0  0  0  0  0
   38.1750   26.9960   43.0560 C   0  0  0  0  0  0  0  0  0  0  0  0
   38.7140   28.1790   43.3410 N   0  0  0  0  0  0  0  0  0  0  0  0
   38.9790   30.1830   42.7590 H   0  0  0  0  0  0  0  0  0  0  0  0
   38.3770   26.2180   43.7820 H   0  0  0  0  0  0  0  0  0  0  0  0
   37.6300   30.2720   40.5090 N   0  0  0  0  0  0  0  0  0  0  0  0
   36.7820   31.3700   40.8170 C   0  0  0  0  0  0  0  0  0  0  0  0
   35.6310   31.0800   41.3900 N   0  0  0  0  0  0  0  0  0  0  0  0
   37.2970   32.6670   40.4660 N   0  0  0  0  0  0  0  0  0  0  0  0
   34.9890   31.8280   41.6860 H   0  0  0  0  0  0  0  0  0  0  0  0
   38.1930   30.3770   39.6090 H   0  0  0  0  0  0  0  0  0  0  0  0
   36.7880   33.2960   39.7800 H   0  0  0  0  0  0  0  0  0  0  0  0
   38.1790   33.0790   40.8430 H   0  0  0  0  0  0  0  0  0  0  0  0
   35.1830   26.7520   37.5250 C   0  0  0  0  0  0  0  0  0  0  0  0
   36.1530   25.9880   38.1210 C   0  0  0  0  0  0  0  0  0  0  0  0
   36.7710   26.4320   39.2840 C   0  0  0  0  0  0  0  0  0  0  0  0
   36.4320   27.6550   39.8800 C   0  0  0  0  0  0  0  0  0  0  0  0
   35.4560   28.4040   39.2620 C   0  0  0  0  0  0  0  0  0  0  0  0
   34.8550   27.9520   38.1130 C   0  0  0  0  0  0  0  0  0  0  0  0
   33.2820   25.4930   36.4210 H   0  0  0  0  0  0  0  0  0  0  0  0
   34.2960   26.3770   36.0750 S   0  0  0  0  0  0  0  0  0  0  0  0
   35.2170   25.7320   35.0690 O   0  0  0  0  0  0  0  0  0  0  0  0
   33.6560   27.6120   35.5330 O   0  0  0  0  0  0  0  0  0  0  0  0
  1  7  1  0  0  0  0
  1  6  1  0  0  0  0
  2  1  2  0  0  0  0
  3  2  1  0  0  0  0
  3  4  2  0  0  0  0
  4  5  1  0  0  0  0
  5  6  2  0  0  0  0
  5  8  1  0  0  0  0
  9 10  1  0  0  0  0
  9  2  1  0  0  0  0
 10 11  2  0  0  0  0
 11 13  1  0  0  0  0
 12 10  1  0  0  0  0
 12 16  1  0  0  0  0
 14  9  1  0  0  0  0
 15 12  1  0  0  0  0
 17 22  2  0  0  0  0
 17 18  1  0  0  0  0
 18 19  2  0  0  0  0
 19 20  1  0  0  0  0
 20  3  1  0  0  0  0
 21 20  2  0  0  0  0
 22 21  1  0  0  0  0
 24 23  1  0  0  0  0
 24 17  1  0  0  0  0
 25 24  2  0  0  0  0
 26 24  2  0  0  0  0
M  END
>  <minimizedAffinity>
-4.99555492

>  <minimizedRMSD>
0.977591932

$$$$
