
 OpenBabel03242506533D

 42 46  0  0  0  0  0  0  0  0999 V2000
   40.8550   26.8350   43.1660 O   0  0  0  0  0  0  0  0  0  0  0  0
   36.9330   29.0370   43.7050 N   0  0  0  0  0  0  0  0  0  0  0  0
   36.9070   27.8150   44.2890 C   0  0  0  0  0  0  0  0  0  0  0  0
   38.1190   27.2530   44.0670 N   0  0  0  0  0  0  0  0  0  0  0  0
   38.9140   28.0880   43.3550 C   0  0  0  0  0  0  0  0  0  0  0  0
   40.2060   28.0240   42.8680 C   0  0  0  0  0  0  0  0  0  0  0  0
   40.7010   29.0770   42.1750 N   0  0  0  0  0  0  0  0  0  0  0  0
   39.9240   30.1650   41.9760 C   0  0  0  0  0  0  0  0  0  0  0  0
   38.6560   30.2590   42.4400 N   0  0  0  0  0  0  0  0  0  0  0  0
   38.1380   29.2230   43.1350 C   0  0  0  0  0  0  0  0  0  0  0  0
   36.1240   29.6960   43.7200 H   0  0  0  0  0  0  0  0  0  0  0  0
   36.0730   27.3740   44.8310 H   0  0  0  0  0  0  0  0  0  0  0  0
   41.6030   33.3490   39.8390 C   0  0  0  0  0  0  0  0  0  0  0  0
   40.4240   32.8070   39.3730 C   0  0  0  0  0  0  0  0  0  0  0  0
   39.8640   31.7440   40.0870 C   0  0  0  0  0  0  0  0  0  0  0  0
   40.5050   31.2830   41.2190 C   0  0  0  0  0  0  0  0  0  0  0  0
   41.6900   31.8280   41.6870 C   0  0  0  0  0  0  0  0  0  0  0  0
   42.2300   32.8880   40.9580 C   0  0  0  0  0  0  0  0  0  0  0  0
   43.4180   35.1110   39.2240 H   0  0  0  0  0  0  0  0  0  0  0  0
   42.1850   34.6740   38.8410 S   0  0  0  0  0  0  0  0  0  0  0  0
   41.2150   35.8250   39.0320 O   0  0  0  0  0  0  0  0  0  0  0  0
   42.2050   34.2620   37.3880 O   0  0  0  0  0  0  0  0  0  0  0  0
   44.4710   26.7110   43.6230 C   0  0  0  0  0  0  0  0  0  0  0  0
   43.2170   26.6620   43.0090 C   0  0  0  0  0  0  0  0  0  0  0  0
   42.0730   26.8850   43.7740 C   0  0  0  0  0  0  0  0  0  0  0  0
   42.2460   27.1480   45.1220 N   0  0  0  0  0  0  0  0  0  0  0  0
   43.4680   27.1860   45.6680 C   0  0  0  0  0  0  0  0  0  0  0  0
   44.5850   26.9690   44.9310 N   0  0  0  0  0  0  0  0  0  0  0  0
   45.2970   26.5260   42.9550 H   0  0  0  0  0  0  0  0  0  0  0  0
   43.0370   26.3840   41.5790 C   0  0  0  0  0  0  0  0  0  0  0  0
   43.2790   27.2990   40.5810 C   0  0  0  0  0  0  0  0  0  0  0  0
   43.1170   27.0620   39.2320 C   0  0  0  0  0  0  0  0  0  0  0  0
   42.6850   25.8250   38.8670 N   0  0  0  0  0  0  0  0  0  0  0  0
   42.4450   24.9200   39.8380 C   0  0  0  0  0  0  0  0  0  0  0  0
   42.6130   25.1840   41.1450 N   0  0  0  0  0  0  0  0  0  0  0  0
   43.6230   28.2880   40.8560 H   0  0  0  0  0  0  0  0  0  0  0  0
   43.3210   27.8130   38.5100 H   0  0  0  0  0  0  0  0  0  0  0  0
   42.0950   23.9140   39.5680 H   0  0  0  0  0  0  0  0  0  0  0  0
   43.5840   27.4740   47.1300 C   0  0  0  0  0  0  0  0  0  0  0  0
   44.2750   28.6520   47.3420 F   0  0  0  0  0  0  0  0  0  0  0  0
   42.3110   27.7050   47.6810 F   0  0  0  0  0  0  0  0  0  0  0  0
   44.2540   26.4790   47.8200 F   0  0  0  0  0  0  0  0  0  0  0  0
  1 25  1  0  0  0  0
  2 11  1  0  0  0  0
  2  3  1  0  0  0  0
  3 12  1  0  0  0  0
  4  3  2  0  0  0  0
  5  4  1  0  0  0  0
  6  1  1  0  0  0  0
  6  5  2  0  0  0  0
  7  6  1  0  0  0  0
  8  7  2  0  0  0  0
  8  9  1  0  0  0  0
  9 10  2  0  0  0  0
 10  5  1  0  0  0  0
 10  2  1  0  0  0  0
 13 18  1  0  0  0  0
 14 13  2  0  0  0  0
 14 15  1  0  0  0  0
 15 16  2  0  0  0  0
 16 17  1  0  0  0  0
 16  8  1  0  0  0  0
 18 17  2  0  0  0  0
 20 21  2  0  0  0  0
 20 19  1  0  0  0  0
 20 13  1  0  0  0  0
 22 20  2  0  0  0  0
 23 28  1  0  0  0  0
 24 23  2  0  0  0  0
 24 25  1  0  0  0  0
 25 26  2  0  0  0  0
 26 27  1  0  0  0  0
 27 39  1  0  0  0  0
 28 27  2  0  0  0  0
 29 23  1  0  0  0  0
 30 24  1  0  0  0  0
 31 36  1  0  0  0  0
 31 30  2  0  0  0  0
 32 31  1  0  0  0  0
 33 32  2  0  0  0  0
 33 34  1  0  0  0  0
 34 35  2  0  0  0  0
 35 30  1  0  0  0  0
 37 32  1  0  0  0  0
 38 34  1  0  0  0  0
 39 40  1  0  0  0  0
 39 41  1  0  0  0  0
 39 42  1  0  0  0  0
M  END
>  <minimizedAffinity>
-6.31824541

>  <minimizedRMSD>
1.09789908

$$$$
