
 OpenBabel03242508313D

 32 35  0  0  0  0  0  0  0  0999 V2000
   38.6590   28.4720   43.2350 C   0  0  0  0  0  0  0  0  0  0  0  0
   38.3270   27.2430   42.6080 C   0  0  0  0  0  0  0  0  0  0  0  0
   37.3540   27.2610   41.5950 C   0  0  0  0  0  0  0  0  0  0  0  0
   36.8010   28.4610   41.2910 N   0  0  0  0  0  0  0  0  0  0  0  0
   37.1380   29.5840   41.9000 C   0  0  0  0  0  0  0  0  0  0  0  0
   38.0600   29.6080   42.8680 N   0  0  0  0  0  0  0  0  0  0  0  0
   39.4160   28.4720   44.0260 H   0  0  0  0  0  0  0  0  0  0  0  0
   38.8210   26.3330   42.9140 H   0  0  0  0  0  0  0  0  0  0  0  0
   36.1910   23.8390   39.4630 C   0  0  0  0  0  0  0  0  0  0  0  0
   36.6040   23.6510   40.7620 C   0  0  0  0  0  0  0  0  0  0  0  0
   36.9830   24.7820   41.4540 C   0  0  0  0  0  0  0  0  0  0  0  0
   36.9630   26.0350   40.9060 C   0  0  0  0  0  0  0  0  0  0  0  0
   36.5390   26.1450   39.5980 C   0  0  0  0  0  0  0  0  0  0  0  0
   36.1390   25.0730   38.8260 C   0  0  0  0  0  0  0  0  0  0  0  0
   36.7370   21.6230   38.3210 H   0  0  0  0  0  0  0  0  0  0  0  0
   35.6820   22.4650   38.4750 S   0  0  0  0  0  0  0  0  0  0  0  0
   35.3070   22.9730   37.0950 O   0  0  0  0  0  0  0  0  0  0  0  0
   34.4730   21.7990   39.0870 O   0  0  0  0  0  0  0  0  0  0  0  0
   36.4140   30.6470   41.3860 O   0  0  0  0  0  0  0  0  0  0  0  0
   37.0290   31.5490   40.5230 C   0  0  0  0  0  0  0  0  0  0  0  0
   36.8620   31.7180   39.1790 N   0  0  0  0  0  0  0  0  0  0  0  0
   37.6490   32.6870   38.7790 O   0  0  0  0  0  0  0  0  0  0  0  0
   38.3040   33.1250   39.8420 C   0  0  0  0  0  0  0  0  0  0  0  0
   37.9500   32.4480   40.9430 N   0  0  0  0  0  0  0  0  0  0  0  0
   39.2810   34.2080   39.7950 C   0  0  0  0  0  0  0  0  0  0  0  0
   39.0680   35.5160   40.2000 C   0  0  0  0  0  0  0  0  0  0  0  0
   40.2220   36.2450   40.0030 C   0  0  0  0  0  0  0  0  0  0  0  0
   41.1160   35.3310   39.4720 C   0  0  0  0  0  0  0  0  0  0  0  0
   40.5170   34.1840   39.3790 O   0  0  0  0  0  0  0  0  0  0  0  0
   38.1130   35.8710   40.6080 H   0  0  0  0  0  0  0  0  0  0  0  0
   40.3640   37.2890   40.2220 H   0  0  0  0  0  0  0  0  0  0  0  0
   42.1480   35.5330   39.1820 H   0  0  0  0  0  0  0  0  0  0  0  0
  1  7  1  0  0  0  0
  2  8  1  0  0  0  0
  2  1  2  0  0  0  0
  3  2  1  0  0  0  0
  4  3  2  0  0  0  0
  4  5  1  0  0  0  0
  5  6  2  0  0  0  0
  6  1  1  0  0  0  0
  9 10  1  0  0  0  0
 10 11  2  0  0  0  0
 12 11  1  0  0  0  0
 12  3  1  0  0  0  0
 13 12  2  0  0  0  0
 14  9  2  0  0  0  0
 14 13  1  0  0  0  0
 15 16  1  0  0  0  0
 16 18  2  0  0  0  0
 16  9  1  0  0  0  0
 17 16  2  0  0  0  0
 19  5  1  0  0  0  0
 20 24  1  0  0  0  0
 20 19  1  0  0  0  0
 21 20  2  0  0  0  0
 22 21  1  0  0  0  0
 22 23  1  0  0  0  0
 23 24  2  0  0  0  0
 25 23  1  0  0  0  0
 25 26  2  0  0  0  0
 26 30  1  0  0  0  0
 27 26  1  0  0  0  0
 27 31  1  0  0  0  0
 28 27  2  0  0  0  0
 29 28  1  0  0  0  0
 29 25  1  0  0  0  0
 32 28  1  0  0  0  0
M  END
>  <minimizedAffinity>
-6.21560907

>  <minimizedRMSD>
1.08134866

$$$$
