
 OpenBabel03242509283D

 49 53  0  0  0  0  0  0  0  0999 V2000
   38.6390   28.2050   42.6570 C   0  0  0  0  0  0  0  0  0  0  0  0
   37.5910   27.3230   42.7290 C   0  0  0  0  0  0  0  0  0  0  0  0
   36.5070   27.9530   42.1070 C   0  0  0  0  0  0  0  0  0  0  0  0
   36.9820   29.1380   41.7200 N   0  0  0  0  0  0  0  0  0  0  0  0
   38.2240   29.3230   42.0230 N   0  0  0  0  0  0  0  0  0  0  0  0
   37.5920   26.3230   43.1800 H   0  0  0  0  0  0  0  0  0  0  0  0
   35.5420   27.4670   42.0260 H   0  0  0  0  0  0  0  0  0  0  0  0
   41.6650   26.5840   44.1010 C   0  0  0  0  0  0  0  0  0  0  0  0
   40.3590   26.7190   43.6200 C   0  0  0  0  0  0  0  0  0  0  0  0
   39.9770   27.9960   43.1670 C   0  0  0  0  0  0  0  0  0  0  0  0
   40.8600   29.0250   43.2100 N   0  0  0  0  0  0  0  0  0  0  0  0
   42.1300   28.8180   43.6960 C   0  0  0  0  0  0  0  0  0  0  0  0
   42.5170   27.6170   44.1310 N   0  0  0  0  0  0  0  0  0  0  0  0
   41.9240   25.5760   44.4440 H   0  0  0  0  0  0  0  0  0  0  0  0
   39.6810   25.8800   43.6010 H   0  0  0  0  0  0  0  0  0  0  0  0
   44.8020   32.0830   43.7960 C   0  0  0  0  0  0  0  0  0  0  0  0
   43.6300   32.1900   43.0780 C   0  0  0  0  0  3  0  0  0  0  0  0
   42.7560   31.1210   43.0460 C   0  0  0  0  0  3  0  0  0  0  0  0
   43.0460   29.9540   43.7230 C   0  0  0  0  0  0  0  0  0  0  0  0
   44.2210   29.8560   44.4400 C   0  0  0  0  0  3  0  0  0  0  0  0
   45.1270   30.9160   44.4940 C   0  0  0  0  0  3  0  0  0  0  0  0
   46.0640   33.8700   42.4450 H   0  0  0  0  0  0  0  0  0  0  0  0
   45.8090   33.5170   43.7440 S   0  0  0  0  0  0  0  0  0  0  0  0
   45.0950   34.7000   44.3580 O   0  0  0  0  0  0  0  0  0  0  0  0
   47.1050   33.3470   44.4610 O   0  0  0  0  0  0  0  0  0  0  0  0
   36.1190   30.0470   41.0470 C   0  0  0  0  0  0  0  0  0  0  0  0
   36.6950   30.8730   40.5810 H   0  0  0  0  0  0  0  0  0  0  0  0
   35.5030   30.5370   41.8580 H   0  0  0  0  0  0  0  0  0  0  0  0
   35.2380   29.4520   39.9960 C   0  0  0  0  0  0  0  0  0  0  0  0
   34.7930   28.5390   40.3710 H   0  0  0  0  0  0  0  0  0  0  0  0
   34.4970   30.3160   39.8820 H   0  0  0  0  0  0  0  0  0  0  0  0
   35.8390   29.3840   38.6500 C   0  0  0  0  0  0  0  0  0  0  0  0
   37.1620   29.5110   38.3190 C   0  0  0  0  0  0  0  0  0  0  0  0
   37.6780   29.5100   37.0560 C   0  0  0  0  0  0  0  0  0  0  0  0
   36.8260   29.3720   35.9810 C   0  0  0  0  0  0  0  0  0  0  0  0
   35.4780   29.2380   36.2460 C   0  0  0  0  0  0  0  0  0  0  0  0
   34.6750   29.1090   35.1360 C   0  0  0  0  0  0  0  0  0  0  0  0
   33.3330   28.9720   35.2970 C   0  0  0  0  0  0  0  0  0  0  0  0
   32.7840   28.9610   36.5560 C   0  0  0  0  0  0  0  0  0  0  0  0
   33.6360   29.0940   37.6200 C   0  0  0  0  0  0  0  0  0  0  0  0
   34.9820   29.2400   37.5500 C   0  0  0  0  0  0  0  0  0  0  0  0
   37.8410   29.6210   39.1690 H   0  0  0  0  0  0  0  0  0  0  0  0
   38.7440   29.6180   36.9460 H   0  0  0  0  0  0  0  0  0  0  0  0
   37.2420   29.3740   34.9910 H   0  0  0  0  0  0  0  0  0  0  0  0
   35.0760   29.1110   34.1280 H   0  0  0  0  0  0  0  0  0  0  0  0
   32.6950   28.8710   34.4090 H   0  0  0  0  0  0  0  0  0  0  0  0
   31.7150   28.8500   36.6790 H   0  0  0  0  0  0  0  0  0  0  0  0
   33.0320   29.0580   38.8730 O   0  0  0  0  0  0  0  0  0  0  0  0
   32.3190   29.7240   39.1440 H   0  0  0  0  0  0  0  0  0  0  0  0
  1  2  1  0  0  0  0
  1 10  1  0  0  0  0
  2  6  1  0  0  0  0
  3  2  2  0  0  0  0
  4  5  1  0  0  0  0
  4  3  1  0  0  0  0
  5  1  2  0  0  0  0
  7  3  1  0  0  0  0
  8 13  1  0  0  0  0
  8 14  1  0  0  0  0
  9  8  2  0  0  0  0
 10 11  2  0  0  0  0
 10  9  1  0  0  0  0
 11 12  1  0  0  0  0
 12 19  1  0  0  0  0
 12 13  2  0  0  0  0
 15  9  1  0  0  0  0
 16 21  1  0  0  0  0
 17 16  2  0  0  0  0
 18 17  1  0  0  0  0
 18 19  2  0  0  0  0
 19 20  1  0  0  0  0
 20 21  2  0  0  0  0
 22 23  1  0  0  0  0
 23 16  1  0  0  0  0
 23 24  2  0  0  0  0
 23 25  2  0  0  0  0
 26  4  1  0  0  0  0
 26 28  1  0  0  0  0
 27 26  1  0  0  0  0
 29 30  1  0  0  0  0
 29 26  1  0  0  0  0
 31 29  1  0  0  0  0
 32 29  1  0  0  0  0
 33 32  1  0  0  0  0
 33 42  1  0  0  0  0
 34 33  2  0  0  0  0
 35 36  2  0  0  0  0
 35 34  1  0  0  0  0
 36 41  1  0  0  0  0
 37 38  2  0  0  0  0
 37 36  1  0  0  0  0
 38 39  1  0  0  0  0
 39 47  1  0  0  0  0
 39 40  2  0  0  0  0
 40 48  1  0  0  0  0
 41 40  1  0  0  0  0
 41 32  2  0  0  0  0
 43 34  1  0  0  0  0
 44 35  1  0  0  0  0
 45 37  1  0  0  0  0
 46 38  1  0  0  0  0
 48 49  1  0  0  0  0
M  END
>  <minimizedAffinity>
-6.37274265

>  <minimizedRMSD>
0.953316987

$$$$
