
 OpenBabel03242509283D

 49 53  0  0  0  0  0  0  0  0999 V2000
   38.6590   28.1740   42.7170 C   0  0  0  0  0  0  0  0  0  0  0  0
   37.5970   27.3110   42.8120 C   0  0  0  0  0  0  0  0  0  0  0  0
   36.5160   27.9510   42.1960 C   0  0  0  0  0  0  0  0  0  0  0  0
   37.0070   29.1240   41.7900 N   0  0  0  0  0  0  0  0  0  0  0  0
   38.2550   29.2910   42.0750 N   0  0  0  0  0  0  0  0  0  0  0  0
   37.5870   26.3160   43.2740 H   0  0  0  0  0  0  0  0  0  0  0  0
   35.5420   27.4810   42.1320 H   0  0  0  0  0  0  0  0  0  0  0  0
   41.6220   26.5810   44.3130 C   0  0  0  0  0  0  0  0  0  0  0  0
   40.3090   26.7350   43.8580 C   0  0  0  0  0  0  0  0  0  0  0  0
   39.9990   27.9480   43.2130 C   0  0  0  0  0  0  0  0  0  0  0  0
   40.9540   28.8990   43.0580 N   0  0  0  0  0  0  0  0  0  0  0  0
   42.2260   28.6770   43.5320 C   0  0  0  0  0  0  0  0  0  0  0  0
   42.5460   27.5360   44.1470 N   0  0  0  0  0  0  0  0  0  0  0  0
   41.8240   25.6240   44.8090 H   0  0  0  0  0  0  0  0  0  0  0  0
   39.5740   25.9590   43.9980 H   0  0  0  0  0  0  0  0  0  0  0  0
   45.1270   31.6920   42.9780 C   0  0  0  0  0  0  0  0  0  0  0  0
   43.8440   32.0450   43.3390 C   0  0  0  0  0  3  0  0  0  0  0  0
   42.8950   31.0570   43.5210 C   0  0  0  0  0  3  0  0  0  0  0  0
   43.2200   29.7280   43.3440 C   0  0  0  0  0  0  0  0  0  0  0  0
   44.5060   29.3830   42.9820 C   0  0  0  0  0  3  0  0  0  0  0  0
   45.4910   30.3540   42.7900 C   0  0  0  0  0  3  0  0  0  0  0  0
   45.5950   34.0660   42.1080 H   0  0  0  0  0  0  0  0  0  0  0  0
   46.2180   33.0490   42.7840 S   0  0  0  0  0  0  0  0  0  0  0  0
   46.6050   33.6270   44.1260 O   0  0  0  0  0  0  0  0  0  0  0  0
   47.4740   32.6890   42.0640 O   0  0  0  0  0  0  0  0  0  0  0  0
   36.1500   30.0390   41.1170 C   0  0  0  0  0  0  0  0  0  0  0  0
   36.7320   30.8640   40.6560 H   0  0  0  0  0  0  0  0  0  0  0  0
   35.5340   30.5290   41.9270 H   0  0  0  0  0  0  0  0  0  0  0  0
   35.2700   29.4530   40.0610 C   0  0  0  0  0  0  0  0  0  0  0  0
   34.8150   28.5430   40.4320 H   0  0  0  0  0  0  0  0  0  0  0  0
   34.5370   30.3230   39.9430 H   0  0  0  0  0  0  0  0  0  0  0  0
   35.8780   29.3810   38.7180 C   0  0  0  0  0  0  0  0  0  0  0  0
   37.2030   29.5020   38.3930 C   0  0  0  0  0  0  0  0  0  0  0  0
   37.7260   29.4970   37.1330 C   0  0  0  0  0  0  0  0  0  0  0  0
   36.8780   29.3620   36.0540 C   0  0  0  0  0  0  0  0  0  0  0  0
   35.5290   29.2330   36.3120 C   0  0  0  0  0  0  0  0  0  0  0  0
   34.7310   29.1060   35.1980 C   0  0  0  0  0  0  0  0  0  0  0  0
   33.3870   28.9750   35.3530 C   0  0  0  0  0  0  0  0  0  0  0  0
   32.8310   28.9680   36.6080 C   0  0  0  0  0  0  0  0  0  0  0  0
   33.6790   29.0980   37.6760 C   0  0  0  0  0  0  0  0  0  0  0  0
   35.0250   29.2390   37.6140 C   0  0  0  0  0  0  0  0  0  0  0  0
   37.8770   29.6100   39.2470 H   0  0  0  0  0  0  0  0  0  0  0  0
   38.7920   29.6010   37.0280 H   0  0  0  0  0  0  0  0  0  0  0  0
   37.3000   29.3610   35.0660 H   0  0  0  0  0  0  0  0  0  0  0  0
   35.1370   29.1050   34.1920 H   0  0  0  0  0  0  0  0  0  0  0  0
   32.7540   28.8750   34.4610 H   0  0  0  0  0  0  0  0  0  0  0  0
   31.7620   28.8610   36.7250 H   0  0  0  0  0  0  0  0  0  0  0  0
   33.0680   29.0660   38.9270 O   0  0  0  0  0  0  0  0  0  0  0  0
   32.3570   29.7360   39.1930 H   0  0  0  0  0  0  0  0  0  0  0  0
  1  2  1  0  0  0  0
  1 10  1  0  0  0  0
  2  6  1  0  0  0  0
  3  2  2  0  0  0  0
  4  5  1  0  0  0  0
  4  3  1  0  0  0  0
  5  1  2  0  0  0  0
  7  3  1  0  0  0  0
  8 14  1  0  0  0  0
  9 15  1  0  0  0  0
  9  8  2  0  0  0  0
 10  9  1  0  0  0  0
 11 10  2  0  0  0  0
 11 12  1  0  0  0  0
 12 13  2  0  0  0  0
 13  8  1  0  0  0  0
 16 17  1  0  0  0  0
 17 18  2  0  0  0  0
 19 18  1  0  0  0  0
 19 12  1  0  0  0  0
 20 19  2  0  0  0  0
 21 16  2  0  0  0  0
 21 20  1  0  0  0  0
 22 23  1  0  0  0  0
 23 16  1  0  0  0  0
 23 24  2  0  0  0  0
 25 23  2  0  0  0  0
 26  4  1  0  0  0  0
 26 28  1  0  0  0  0
 27 26  1  0  0  0  0
 29 30  1  0  0  0  0
 29 26  1  0  0  0  0
 31 29  1  0  0  0  0
 32 29  1  0  0  0  0
 33 32  1  0  0  0  0
 33 42  1  0  0  0  0
 34 33  2  0  0  0  0
 35 36  2  0  0  0  0
 35 34  1  0  0  0  0
 36 41  1  0  0  0  0
 37 38  2  0  0  0  0
 37 36  1  0  0  0  0
 38 39  1  0  0  0  0
 39 47  1  0  0  0  0
 39 40  2  0  0  0  0
 40 48  1  0  0  0  0
 41 40  1  0  0  0  0
 41 32  2  0  0  0  0
 43 34  1  0  0  0  0
 44 35  1  0  0  0  0
 45 37  1  0  0  0  0
 46 38  1  0  0  0  0
 48 49  1  0  0  0  0
M  END
>  <minimizedAffinity>
-6.2811017

>  <minimizedRMSD>
0.446713477

$$$$
