
 OpenBabel03242504113D

 27 29  0  0  0  0  0  0  0  0999 V2000
   38.4290   29.8290   41.5160 C   0  0  0  0  0  0  0  0  0  0  0  0
   39.2430   29.7340   42.6250 C   0  0  0  0  0  0  0  0  0  0  0  0
   39.3960   28.4690   43.1520 C   0  0  0  0  0  0  0  0  0  0  0  0
   38.8140   27.3800   42.6550 N   0  0  0  0  0  0  0  0  0  0  0  0
   38.0290   27.5070   41.5780 C   0  0  0  0  0  0  0  0  0  0  0  0
   37.8410   28.7170   41.0180 N   0  0  0  0  0  0  0  0  0  0  0  0
   39.7340   30.5920   43.0580 H   0  0  0  0  0  0  0  0  0  0  0  0
   40.0390   28.3720   44.0320 H   0  0  0  0  0  0  0  0  0  0  0  0
   37.0390   32.4320   39.3190 C   0  0  0  0  0  0  0  0  0  0  0  0
   37.7840   33.5810   39.6950 C   0  0  0  0  0  0  0  0  0  0  0  0
   38.7500   33.4320   40.6980 C   0  0  0  0  0  0  0  0  0  0  0  0
   38.9360   32.1990   41.2710 N   0  0  0  0  0  0  0  0  0  0  0  0
   38.2000   31.1400   40.8760 C   0  0  0  0  0  0  0  0  0  0  0  0
   37.2610   31.2490   39.9120 N   0  0  0  0  0  0  0  0  0  0  0  0
   36.2820   32.4730   38.5570 H   0  0  0  0  0  0  0  0  0  0  0  0
   37.5790   34.5210   39.1950 H   0  0  0  0  0  0  0  0  0  0  0  0
   39.3250   34.2990   40.9940 H   0  0  0  0  0  0  0  0  0  0  0  0
   36.0560   24.1880   39.8600 C   0  0  0  0  0  0  0  0  0  0  0  0
   36.5320   24.1030   41.1360 C   0  0  0  0  0  0  0  0  0  0  0  0
   37.1810   25.2180   41.6760 C   0  0  0  0  0  0  0  0  0  0  0  0
   37.3390   26.3740   40.9480 C   0  0  0  0  0  0  0  0  0  0  0  0
   36.8430   26.4260   39.6560 C   0  0  0  0  0  0  0  0  0  0  0  0
   36.2000   25.3430   39.0960 C   0  0  0  0  0  0  0  0  0  0  0  0
   36.0160   21.7450   39.1070 H   0  0  0  0  0  0  0  0  0  0  0  0
   35.2250   22.8820   39.0470 S   0  0  0  0  0  0  0  0  0  0  0  0
   35.0580   23.2030   37.5920 O   0  0  0  0  0  0  0  0  0  0  0  0
   33.8870   22.6080   39.6210 O   0  0  0  0  0  0  0  0  0  0  0  0
  1  2  1  0  0  0  0
  2  7  1  0  0  0  0
  2  3  2  0  0  0  0
  3  8  1  0  0  0  0
  4  3  1  0  0  0  0
  5  4  2  0  0  0  0
  6  1  2  0  0  0  0
  6  5  1  0  0  0  0
  9 10  2  0  0  0  0
  9 14  1  0  0  0  0
 10 11  1  0  0  0  0
 11 17  1  0  0  0  0
 11 12  2  0  0  0  0
 13 12  1  0  0  0  0
 13  1  1  0  0  0  0
 14 13  2  0  0  0  0
 15  9  1  0  0  0  0
 16 10  1  0  0  0  0
 18 19  1  0  0  0  0
 19 20  2  0  0  0  0
 21  5  1  0  0  0  0
 21 20  1  0  0  0  0
 22 21  2  0  0  0  0
 23 22  1  0  0  0  0
 23 18  2  0  0  0  0
 25 24  1  0  0  0  0
 25 27  2  0  0  0  0
 25 18  1  0  0  0  0
 26 25  2  0  0  0  0
M  END
>  <minimizedAffinity>
-5.08195019

>  <minimizedRMSD>
7.94944763

$$$$
