
 OpenBabel03242508463D

 37 40  0  0  1  0  0  0  0  0999 V2000
   37.9850   27.3800   42.7620 C   0  0  2  0  0  0  0  0  0  0  0  0
   39.0730   27.6660   43.7030 C   0  0  0  0  0  0  0  0  0  0  0  0
   39.8170   26.3510   43.8560 C   0  0  0  0  0  0  0  0  0  0  0  0
   39.3280   25.4640   42.7600 C   0  0  0  0  0  0  0  0  0  0  0  0
   38.5740   26.3760   41.7910 C   0  0  1  0  0  0  0  0  0  0  0  0
   37.1740   26.7970   43.2900 H   0  0  0  0  0  0  0  0  0  0  0  0
   38.6240   27.8850   44.7130 H   0  0  0  0  0  0  0  0  0  0  0  0
   39.8220   28.4010   43.4090 H   0  0  0  0  0  0  0  0  0  0  0  0
   39.6780   25.8950   44.8550 H   0  0  0  0  0  0  0  0  0  0  0  0
   40.9150   26.4570   43.7280 H   0  0  0  0  0  0  0  0  0  0  0  0
   38.6640   24.7100   43.2240 H   0  0  0  0  0  0  0  0  0  0  0  0
   40.1190   24.8950   42.2460 H   0  0  0  0  0  0  0  0  0  0  0  0
   39.2290   26.8260   41.0530 H   0  0  0  0  0  0  0  0  0  0  0  0
   38.0470   29.7850   41.9310 C   0  0  0  0  0  0  0  0  0  0  0  0
   37.4020   28.5260   42.0810 C   0  0  0  0  0  0  0  0  0  0  0  0
   36.1310   28.3570   41.5430 C   0  0  0  0  0  0  0  0  0  0  0  0
   35.5600   29.4220   40.8870 N   0  0  0  0  0  0  0  0  0  0  0  0
   36.2040   30.6300   40.7530 C   0  0  0  0  0  0  0  0  0  0  0  0
   37.4620   30.7950   41.2880 N   0  0  0  0  0  0  0  0  0  0  0  0
   39.0330   29.8980   42.3540 H   0  0  0  0  0  0  0  0  0  0  0  0
   35.5500   27.4570   41.5940 H   0  0  0  0  0  0  0  0  0  0  0  0
   35.7080   31.4200   40.2340 H   0  0  0  0  0  0  0  0  0  0  0  0
   37.5650   25.4380   41.2160 C   0  0  0  0  0  0  0  0  0  0  0  0
   36.9360   24.5030   41.9630 N   0  0  0  0  0  0  0  0  0  0  0  0
   36.1220   23.8610   41.1550 O   0  0  0  0  0  0  0  0  0  0  0  0
   36.2380   24.3710   39.9440 C   0  0  0  0  0  0  0  0  0  0  0  0
   37.1260   25.3580   39.9320 N   0  0  0  0  0  0  0  0  0  0  0  0
   33.9550   22.8830   36.6830 C   0  0  0  0  0  0  0  0  0  0  0  0
   33.8760   22.3070   37.9340 C   0  0  0  0  0  0  0  0  0  0  0  0
   34.6130   22.7710   39.0290 C   0  0  0  0  0  0  0  0  0  0  0  0
   35.4490   23.8550   38.8210 C   0  0  0  0  0  0  0  0  0  0  0  0
   35.5290   24.4340   37.5640 C   0  0  0  0  0  0  0  0  0  0  0  0
   34.7990   23.9760   36.4730 C   0  0  0  0  0  0  0  0  0  0  0  0
   33.2950   22.7160   34.2060 H   0  0  0  0  0  0  0  0  0  0  0  0
   32.9740   22.1880   35.4200 S   0  0  0  0  0  0  0  0  0  0  0  0
   33.1160   20.6970   35.3660 O   0  0  0  0  0  0  0  0  0  0  0  0
   31.5250   22.4900   35.6850 O   0  0  0  0  0  0  0  0  0  0  0  0
  1  6  1  1  0  0  0
  1  2  1  0  0  0  0
  2  3  1  0  0  0  0
  2  7  1  0  0  0  0
  3  9  1  0  0  0  0
  4 11  1  0  0  0  0
  4  3  1  0  0  0  0
  5 13  1  6  0  0  0
  5  4  1  0  0  0  0
  5  1  1  0  0  0  0
  8  2  1  0  0  0  0
 10  3  1  0  0  0  0
 12  4  1  0  0  0  0
 14 15  1  0  0  0  0
 14 20  1  0  0  0  0
 15  1  1  0  0  0  0
 16 21  1  0  0  0  0
 16 15  2  0  0  0  0
 17 16  1  0  0  0  0
 18 17  2  0  0  0  0
 18 19  1  0  0  0  0
 19 14  2  0  0  0  0
 22 18  1  0  0  0  0
 23  5  1  0  0  0  0
 23 24  2  0  0  0  0
 25 24  1  0  0  0  0
 26 25  1  0  0  0  0
 27 26  2  0  0  0  0
 27 23  1  0  0  0  0
 28 29  1  0  0  0  0
 29 30  2  0  0  0  0
 31 30  1  0  0  0  0
 31 26  1  0  0  0  0
 32 31  2  0  0  0  0
 33 28  2  0  0  0  0
 33 32  1  0  0  0  0
 34 35  1  0  0  0  0
 35 37  2  0  0  0  0
 35 28  1  0  0  0  0
 36 35  2  0  0  0  0
M  END
>  <minimizedAffinity>
-4.93986368

>  <minimizedRMSD>
1.03483689

$$$$
