
 OpenBabel03242509283D

 49 53  0  0  0  0  0  0  0  0999 V2000
   38.7020   28.1630   42.7260 C   0  0  0  0  0  0  0  0  0  0  0  0
   37.6320   27.3110   42.8250 C   0  0  0  0  0  0  0  0  0  0  0  0
   36.5540   27.9640   42.2190 C   0  0  0  0  0  0  0  0  0  0  0  0
   37.0540   29.1340   41.8140 N   0  0  0  0  0  0  0  0  0  0  0  0
   38.3060   29.2870   42.0910 N   0  0  0  0  0  0  0  0  0  0  0  0
   37.6150   26.3150   43.2850 H   0  0  0  0  0  0  0  0  0  0  0  0
   35.5740   27.5050   42.1610 H   0  0  0  0  0  0  0  0  0  0  0  0
   41.6620   26.5300   44.2880 C   0  0  0  0  0  0  0  0  0  0  0  0
   40.3480   26.6990   43.8410 C   0  0  0  0  0  0  0  0  0  0  0  0
   40.0430   27.9220   43.2120 C   0  0  0  0  0  0  0  0  0  0  0  0
   41.0040   28.8670   43.0630 N   0  0  0  0  0  0  0  0  0  0  0  0
   42.2770   28.6300   43.5280 C   0  0  0  0  0  0  0  0  0  0  0  0
   42.5920   27.4800   44.1280 N   0  0  0  0  0  0  0  0  0  0  0  0
   41.8590   25.5670   44.7720 H   0  0  0  0  0  0  0  0  0  0  0  0
   39.6070   25.9270   43.9760 H   0  0  0  0  0  0  0  0  0  0  0  0
   45.1910   31.6330   42.9770 C   0  0  0  0  0  0  0  0  0  0  0  0
   44.1340   31.8640   43.8320 C   0  0  0  0  0  3  0  0  0  0  0  0
   43.1810   30.8810   44.0120 C   0  0  0  0  0  3  0  0  0  0  0  0
   43.2780   29.6760   43.3460 C   0  0  0  0  0  0  0  0  0  0  0  0
   44.3390   29.4530   42.4920 C   0  0  0  0  0  3  0  0  0  0  0  0
   45.3200   30.4250   42.2860 C   0  0  0  0  0  3  0  0  0  0  0  0
   45.6460   34.1320   42.5720 H   0  0  0  0  0  0  0  0  0  0  0  0
   46.3180   32.9690   42.8500 S   0  0  0  0  0  0  0  0  0  0  0  0
   47.0220   33.2090   44.1660 O   0  0  0  0  0  0  0  0  0  0  0  0
   47.3620   32.7550   41.8080 O   0  0  0  0  0  0  0  0  0  0  0  0
   36.2020   30.0600   41.1490 C   0  0  0  0  0  0  0  0  0  0  0  0
   36.7900   30.8810   40.6870 H   0  0  0  0  0  0  0  0  0  0  0  0
   35.5960   30.5540   41.9660 H   0  0  0  0  0  0  0  0  0  0  0  0
   35.3090   29.4860   40.0970 C   0  0  0  0  0  0  0  0  0  0  0  0
   34.8430   28.5830   40.4710 H   0  0  0  0  0  0  0  0  0  0  0  0
   34.5880   30.3670   39.9830 H   0  0  0  0  0  0  0  0  0  0  0  0
   35.9100   29.4050   38.7520 C   0  0  0  0  0  0  0  0  0  0  0  0
   37.2320   29.5320   38.4190 C   0  0  0  0  0  0  0  0  0  0  0  0
   37.7480   29.5180   37.1550 C   0  0  0  0  0  0  0  0  0  0  0  0
   36.8950   29.3670   36.0820 C   0  0  0  0  0  0  0  0  0  0  0  0
   35.5480   29.2330   36.3490 C   0  0  0  0  0  0  0  0  0  0  0  0
   34.7450   29.0900   35.2410 C   0  0  0  0  0  0  0  0  0  0  0  0
   33.4030   28.9520   35.4050 C   0  0  0  0  0  0  0  0  0  0  0  0
   32.8540   28.9530   36.6630 C   0  0  0  0  0  0  0  0  0  0  0  0
   33.7070   29.0990   37.7250 C   0  0  0  0  0  0  0  0  0  0  0  0
   35.0520   29.2480   37.6540 C   0  0  0  0  0  0  0  0  0  0  0  0
   37.9110   29.6520   39.2670 H   0  0  0  0  0  0  0  0  0  0  0  0
   38.8130   29.6280   37.0430 H   0  0  0  0  0  0  0  0  0  0  0  0
   37.3110   29.3600   35.0920 H   0  0  0  0  0  0  0  0  0  0  0  0
   35.1450   29.0820   34.2330 H   0  0  0  0  0  0  0  0  0  0  0  0
   32.7650   28.8400   34.5180 H   0  0  0  0  0  0  0  0  0  0  0  0
   31.7860   28.8410   36.7880 H   0  0  0  0  0  0  0  0  0  0  0  0
   33.1030   29.0750   38.9790 O   0  0  0  0  0  0  0  0  0  0  0  0
   32.3890   29.7430   39.2430 H   0  0  0  0  0  0  0  0  0  0  0  0
  1  2  1  0  0  0  0
  1 10  1  0  0  0  0
  2  6  1  0  0  0  0
  3  2  2  0  0  0  0
  4  5  1  0  0  0  0
  4  3  1  0  0  0  0
  5  1  2  0  0  0  0
  7  3  1  0  0  0  0
  8 14  1  0  0  0  0
  9 15  1  0  0  0  0
  9  8  2  0  0  0  0
 10  9  1  0  0  0  0
 11 10  2  0  0  0  0
 11 12  1  0  0  0  0
 12 13  2  0  0  0  0
 13  8  1  0  0  0  0
 16 17  1  0  0  0  0
 17 18  2  0  0  0  0
 19 12  1  0  0  0  0
 19 18  1  0  0  0  0
 20 19  2  0  0  0  0
 21 20  1  0  0  0  0
 21 16  2  0  0  0  0
 22 23  1  0  0  0  0
 23 16  1  0  0  0  0
 23 24  2  0  0  0  0
 25 23  2  0  0  0  0
 26  4  1  0  0  0  0
 26 28  1  0  0  0  0
 27 26  1  0  0  0  0
 29 30  1  0  0  0  0
 29 26  1  0  0  0  0
 31 29  1  0  0  0  0
 32 29  1  0  0  0  0
 33 32  1  0  0  0  0
 33 42  1  0  0  0  0
 34 33  2  0  0  0  0
 35 36  2  0  0  0  0
 35 34  1  0  0  0  0
 36 41  1  0  0  0  0
 37 38  2  0  0  0  0
 37 36  1  0  0  0  0
 38 39  1  0  0  0  0
 39 47  1  0  0  0  0
 39 40  2  0  0  0  0
 40 48  1  0  0  0  0
 41 40  1  0  0  0  0
 41 32  2  0  0  0  0
 43 34  1  0  0  0  0
 44 35  1  0  0  0  0
 45 37  1  0  0  0  0
 46 38  1  0  0  0  0
 48 49  1  0  0  0  0
M  END
>  <minimizedAffinity>
-6.25003195

>  <minimizedRMSD>
0.454293787

$$$$
