
 OpenBabel03242506083D

 44 47  0  0  1  0  0  0  0  0999 V2000
   37.0680   27.9470   41.5500 N   0  0  0  0  0  0  0  0  0  0  0  0
   36.9330   26.9700   42.6000 C   0  0  0  0  0  0  0  0  0  0  0  0
   37.6190   27.6070   43.8030 C   0  0  0  0  0  0  0  0  0  0  0  0
   38.2230   28.9030   43.3040 C   0  0  0  0  0  0  0  0  0  0  0  0
   38.3280   28.5850   41.8220 C   0  0  2  0  0  0  0  0  0  0  0  0
   37.4130   26.0220   42.3180 H   0  0  0  0  0  0  0  0  0  0  0  0
   35.8370   26.8480   42.8430 H   0  0  0  0  0  0  0  0  0  0  0  0
   38.4360   26.9100   44.1430 H   0  0  0  0  0  0  0  0  0  0  0  0
   36.9150   27.8510   44.6080 H   0  0  0  0  0  0  0  0  0  0  0  0
   39.2260   29.0330   43.7640 H   0  0  0  0  0  0  0  0  0  0  0  0
   37.5930   29.7860   43.5160 H   0  0  0  0  0  0  0  0  0  0  0  0
   39.0810   27.7770   41.8010 H   0  0  0  0  0  0  0  0  0  0  0  0
   38.6620   29.6860   41.0020 N   0  0  0  0  0  0  0  0  0  0  0  0
   38.2310   30.9480   41.0660 C   0  0  0  0  0  0  0  0  0  0  0  0
   38.6620   31.9150   40.1740 C   0  0  0  0  0  0  0  0  0  0  0  0
   39.5630   31.6130   39.1750 C   0  0  0  0  0  0  0  0  0  0  0  0
   39.9490   32.4850   38.3720 O   0  0  0  0  0  0  0  0  0  0  0  0
   39.9810   30.3260   39.1350 N   0  0  0  0  0  0  0  0  0  0  0  0
   39.5490   29.3970   40.0140 C   0  0  0  0  0  0  0  0  0  0  0  0
   40.0480   28.2220   39.8340 O   0  0  0  0  0  0  0  0  0  0  0  0
   37.5260   31.1520   41.8610 H   0  0  0  0  0  0  0  0  0  0  0  0
   40.6660   30.0910   38.3770 H   0  0  0  0  0  0  0  0  0  0  0  0
   38.1420   33.3010   40.3020 C   0  0  0  0  0  0  0  0  0  0  0  0
   37.9850   33.6710   39.2530 H   0  0  0  0  0  0  0  0  0  0  0  0
   38.8440   33.9750   40.8200 H   0  0  0  0  0  0  0  0  0  0  0  0
   37.1350   33.2890   40.7700 H   0  0  0  0  0  0  0  0  0  0  0  0
   35.0910   29.1020   40.6030 C   0  0  0  0  0  0  0  0  0  0  0  0
   36.1900   28.2330   40.4940 C   0  0  0  0  0  0  0  0  0  0  0  0
   36.4210   27.6150   39.2470 C   0  0  0  0  0  0  0  0  0  0  0  0
   35.5620   27.9010   38.2270 N   0  0  0  0  0  0  0  0  0  0  0  0
   34.5170   28.7450   38.3800 C   0  0  0  0  0  0  0  0  0  0  0  0
   34.2950   29.3310   39.5560 N   0  0  0  0  0  0  0  0  0  0  0  0
   34.9410   29.5620   41.5750 H   0  0  0  0  0  0  0  0  0  0  0  0
   37.2530   26.9580   39.1650 H   0  0  0  0  0  0  0  0  0  0  0  0
   31.9780   29.4930   35.0630 C   0  0  0  0  0  0  0  0  0  0  0  0
   31.5140   29.6520   36.3580 C   0  0  0  0  0  0  0  0  0  0  0  0
   32.3360   29.4110   37.4660 C   0  0  0  0  0  0  0  0  0  0  0  0
   33.6370   29.0040   37.2460 C   0  0  0  0  0  0  0  0  0  0  0  0
   34.0900   28.8470   35.9510 C   0  0  0  0  0  0  0  0  0  0  0  0
   33.2820   29.0850   34.8580 C   0  0  0  0  0  0  0  0  0  0  0  0
   31.1590   30.9660   33.1610 H   0  0  0  0  0  0  0  0  0  0  0  0
   30.7780   29.8500   33.8290 S   0  0  0  0  0  0  0  0  0  0  0  0
   30.5150   28.6740   32.9410 O   0  0  0  0  0  0  0  0  0  0  0  0
   29.4520   30.1820   34.4960 O   0  0  0  0  0  0  0  0  0  0  0  0
  1  5  1  0  0  0  0
  1  2  1  0  0  0  0
  2  7  1  0  0  0  0
  2  3  1  0  0  0  0
  3  8  1  0  0  0  0
  3  9  1  0  0  0  0
  4 11  1  0  0  0  0
  4 10  1  0  0  0  0
  4  3  1  0  0  0  0
  5 12  1  6  0  0  0
  5  4  1  0  0  0  0
  6  2  1  0  0  0  0
 13 14  1  0  0  0  0
 13  5  1  0  0  0  0
 14 21  1  0  0  0  0
 15 23  1  0  0  0  0
 15 14  2  0  0  0  0
 16 15  1  0  0  0  0
 17 16  2  0  0  0  0
 18 16  1  0  0  0  0
 18 19  1  0  0  0  0
 19 13  1  0  0  0  0
 20 19  2  0  0  0  0
 22 18  1  0  0  0  0
 23 26  1  0  0  0  0
 23 25  1  0  0  0  0
 24 23  1  0  0  0  0
 27 33  1  0  0  0  0
 28 27  1  0  0  0  0
 28  1  1  0  0  0  0
 29 28  2  0  0  0  0
 30 31  2  0  0  0  0
 30 29  1  0  0  0  0
 31 32  1  0  0  0  0
 32 27  2  0  0  0  0
 34 29  1  0  0  0  0
 35 36  1  0  0  0  0
 36 37  2  0  0  0  0
 38 37  1  0  0  0  0
 38 31  1  0  0  0  0
 39 38  2  0  0  0  0
 40 35  2  0  0  0  0
 40 39  1  0  0  0  0
 41 42  1  0  0  0  0
 42 44  2  0  0  0  0
 42 35  1  0  0  0  0
 43 42  2  0  0  0  0
M  END
>  <minimizedAffinity>
-5.95020056

>  <minimizedRMSD>
0.920081198

$$$$
