
 OpenBabel03242508423D

 34 37  0  0  1  0  0  0  0  0999 V2000
   37.9450   27.3890   42.7120 C   0  0  2  0  0  0  0  0  0  0  0  0
   39.0220   27.6990   43.6560 C   0  0  0  0  0  0  0  0  0  0  0  0
   39.7410   26.3900   43.8660 C   0  0  0  0  0  0  0  0  0  0  0  0
   39.2890   25.4820   42.7700 C   0  0  0  0  0  0  0  0  0  0  0  0
   38.5530   26.3850   41.7580 C   0  0  1  0  0  0  0  0  0  0  0  0
   37.1430   26.7980   43.2430 H   0  0  0  0  0  0  0  0  0  0  0  0
   38.6700   28.1150   44.6250 H   0  0  0  0  0  0  0  0  0  0  0  0
   39.7960   28.4010   43.2810 H   0  0  0  0  0  0  0  0  0  0  0  0
   39.4990   26.0100   44.8880 H   0  0  0  0  0  0  0  0  0  0  0  0
   40.8430   26.4880   43.8160 H   0  0  0  0  0  0  0  0  0  0  0  0
   40.0850   24.8960   42.3090 H   0  0  0  0  0  0  0  0  0  0  0  0
   38.5900   24.7540   43.2470 H   0  0  0  0  0  0  0  0  0  0  0  0
   39.2380   26.8200   41.0370 H   0  0  0  0  0  0  0  0  0  0  0  0
   37.5640   25.4270   41.1900 C   0  0  0  0  0  0  0  0  0  0  0  0
   36.8710   24.5460   41.9520 N   0  0  0  0  0  0  0  0  0  0  0  0
   36.1080   23.8560   41.1260 O   0  0  0  0  0  0  0  0  0  0  0  0
   36.3160   24.2860   39.8970 C   0  0  0  0  0  0  0  0  0  0  0  0
   37.2290   25.2790   39.8800 N   0  0  0  0  0  0  0  0  0  0  0  0
   35.7160   23.8300   38.6950 N   0  0  0  0  0  0  0  0  0  0  0  0
   34.4540   23.0920   38.8620 C   0  0  0  0  0  0  0  0  0  0  0  0
   34.6100   21.8580   37.9850 C   0  0  0  0  0  0  0  0  0  0  0  0
   34.6360   22.2480   36.5970 N   0  0  0  0  0  0  0  0  0  0  0  0
   33.7130   22.1100   36.1320 H   0  0  0  0  0  0  0  0  0  0  0  0
   35.0130   23.6340   36.4030 C   0  0  0  0  0  0  0  0  0  0  0  0
   36.1680   23.9810   37.3300 C   0  0  0  0  0  0  0  0  0  0  0  0
   37.9400   29.7900   41.8820 C   0  0  0  0  0  0  0  0  0  0  0  0
   37.3340   28.5150   42.0210 C   0  0  0  0  0  0  0  0  0  0  0  0
   36.0850   28.3260   41.4590 C   0  0  0  0  0  0  0  0  0  0  0  0
   35.5020   29.3730   40.8010 N   0  0  0  0  0  0  0  0  0  0  0  0
   36.1100   30.5940   40.6810 C   0  0  0  0  0  0  0  0  0  0  0  0
   37.3450   30.7800   41.2360 N   0  0  0  0  0  0  0  0  0  0  0  0
   38.9040   29.9340   42.3180 H   0  0  0  0  0  0  0  0  0  0  0  0
   35.5260   27.3900   41.5020 H   0  0  0  0  0  0  0  0  0  0  0  0
   35.7040   31.4490   40.1840 H   0  0  0  0  0  0  0  0  0  0  0  0
  1  6  1  1  0  0  0
  1  2  1  0  0  0  0
  2  3  1  0  0  0  0
  2  7  1  0  0  0  0
  3  9  1  0  0  0  0
  4 12  1  0  0  0  0
  4  3  1  0  0  0  0
  5 13  1  6  0  0  0
  5  1  1  0  0  0  0
  5  4  1  0  0  0  0
  8  2  1  0  0  0  0
 10  3  1  0  0  0  0
 11  4  1  0  0  0  0
 14  5  1  0  0  0  0
 14 15  2  0  0  0  0
 16 15  1  0  0  0  0
 17 16  1  0  0  0  0
 18 17  2  0  0  0  0
 18 14  1  0  0  0  0
 19 20  1  0  0  0  0
 19 17  1  0  0  0  0
 21 20  1  0  0  0  0
 22 21  1  0  0  0  0
 23 22  1  0  0  0  0
 24 22  1  0  0  0  0
 24 25  1  0  0  0  0
 25 19  1  0  0  0  0
 26 27  1  0  0  0  0
 26 32  1  0  0  0  0
 27  1  1  0  0  0  0
 28 33  1  0  0  0  0
 28 27  2  0  0  0  0
 29 28  1  0  0  0  0
 30 29  2  0  0  0  0
 30 31  1  0  0  0  0
 31 26  2  0  0  0  0
 34 30  1  0  0  0  0
M  END
>  <minimizedAffinity>
-5.10759592

>  <minimizedRMSD>
0.578113198

$$$$
