
 OpenBabel03242509203D

 29 31  0  0  0  0  0  0  0  0999 V2000
   38.7400   28.2670   42.7330 C   0  0  0  0  0  0  0  0  0  0  0  0
   37.6440   27.4780   42.8260 C   0  0  0  0  0  0  0  0  0  0  0  0
   36.5680   28.0990   42.2710 C   0  0  0  0  0  0  0  0  0  0  0  0
   37.0940   29.3100   41.8400 N   0  0  0  0  0  0  0  0  0  0  0  0
   38.3730   29.3800   42.1260 N   0  0  0  0  0  0  0  0  0  0  0  0
   37.4940   26.4790   43.2480 H   0  0  0  0  0  0  0  0  0  0  0  0
   35.5290   27.7610   42.1700 H   0  0  0  0  0  0  0  0  0  0  0  0
   41.6030   26.4870   44.3530 C   0  0  0  0  0  0  0  0  0  0  0  0
   40.3110   26.7680   43.9220 C   0  0  0  0  0  0  0  0  0  0  0  0
   40.0490   27.9230   43.2040 C   0  0  0  0  0  0  0  0  0  0  0  0
   41.0910   28.7720   42.9310 N   0  0  0  0  0  0  0  0  0  0  0  0
   42.3490   28.4600   43.3720 C   0  0  0  0  0  0  0  0  0  0  0  0
   42.6010   27.3350   44.0730 N   0  0  0  0  0  0  0  0  0  0  0  0
   41.6310   25.5600   44.8910 H   0  0  0  0  0  0  0  0  0  0  0  0
   39.4420   26.1460   44.0960 H   0  0  0  0  0  0  0  0  0  0  0  0
   43.1040   29.1730   43.1200 H   0  0  0  0  0  0  0  0  0  0  0  0
   36.2720   30.3250   41.1390 C   0  0  0  0  0  0  0  0  0  0  0  0
   35.4990   30.6230   41.8770 H   0  0  0  0  0  0  0  0  0  0  0  0
   36.8810   31.2040   40.8730 H   0  0  0  0  0  0  0  0  0  0  0  0
   35.5660   29.6840   39.9720 C   0  0  0  0  0  0  0  0  0  0  0  0
   35.6670   28.6010   39.9890 H   0  0  0  0  0  0  0  0  0  0  0  0
   34.5010   29.9630   40.0550 H   0  0  0  0  0  0  0  0  0  0  0  0
   36.1370   30.1960   38.7330 N   0  0  0  0  0  0  0  0  0  0  0  0
   36.9370   31.3840   38.9950 C   0  0  0  0  0  0  0  0  0  0  0  0
   37.6790   31.7500   37.7300 C   0  0  0  0  0  0  0  0  0  0  0  0
   38.6050   30.7040   37.3390 N   0  0  0  0  0  0  0  0  0  0  0  0
   38.5650   30.4700   36.3390 H   0  0  0  0  0  0  0  0  0  0  0  0
   38.4520   29.5720   38.2240 C   0  0  0  0  0  0  0  0  0  0  0  0
   37.0110   29.1390   38.2320 C   0  0  0  0  0  0  0  0  0  0  0  0
  1  2  1  0  0  0  0
  1 10  1  0  0  0  0
  2  6  1  0  0  0  0
  3  2  2  0  0  0  0
  4  5  1  0  0  0  0
  4  3  1  0  0  0  0
  5  1  2  0  0  0  0
  7  3  1  0  0  0  0
  8 14  1  0  0  0  0
  9 15  1  0  0  0  0
  9  8  2  0  0  0  0
 10  9  1  0  0  0  0
 11 10  2  0  0  0  0
 11 12  1  0  0  0  0
 12 13  2  0  0  0  0
 13  8  1  0  0  0  0
 16 12  1  0  0  0  0
 17  4  1  0  0  0  0
 17 18  1  0  0  0  0
 19 17  1  0  0  0  0
 20 21  1  0  0  0  0
 20 22  1  0  0  0  0
 20 17  1  0  0  0  0
 23 24  1  0  0  0  0
 23 20  1  0  0  0  0
 25 24  1  0  0  0  0
 26 25  1  0  0  0  0
 26 28  1  0  0  0  0
 27 26  1  0  0  0  0
 28 29  1  0  0  0  0
 29 23  1  0  0  0  0
M  END
>  <minimizedAffinity>
-4.48413324

>  <minimizedRMSD>
2.15732265

$$$$
