
 OpenBabel03242509303D

 19 20  0  0  0  0  0  0  0  0999 V2000
   37.6400   28.8000   43.5740 C   0  0  0  0  0  0  0  0  0  0  0  0
   37.4420   27.4220   43.2750 C   0  0  0  0  0  0  0  0  0  0  0  0
   37.3790   27.0740   41.9230 C   0  0  0  0  0  0  0  0  0  0  0  0
   37.5100   28.0700   40.9730 N   0  0  0  0  0  0  0  0  0  0  0  0
   37.6930   29.3490   41.3190 C   0  0  0  0  0  0  0  0  0  0  0  0
   37.7560   29.6990   42.6000 N   0  0  0  0  0  0  0  0  0  0  0  0
   37.6840   29.0360   44.6270 H   0  0  0  0  0  0  0  0  0  0  0  0
   37.3480   26.6960   44.0710 H   0  0  0  0  0  0  0  0  0  0  0  0
   37.8230   30.3470   40.3120 N   0  0  0  0  0  0  0  0  0  0  0  0
   38.0240   31.7430   40.5980 C   0  0  0  0  0  2  0  0  0  0  0  0
   37.2960   32.6430   39.6260 C   0  0  0  0  0  2  0  0  0  0  0  0
   37.5110   32.2580   38.2500 N   0  0  0  0  0  0  0  0  0  0  0  0
   36.5720   31.9510   37.8730 H   0  0  0  0  0  0  0  0  0  0  0  0
   38.3920   31.1180   38.1250 C   0  0  0  0  0  2  0  0  0  0  0  0
   37.7590   29.9970   38.9060 C   0  0  0  0  0  2  0  0  0  0  0  0
   37.1730   25.6410   41.5510 C   0  0  0  0  0  0  0  0  0  0  0  0
   38.4300   25.0980   41.4070 F   0  0  0  0  0  0  0  0  0  0  0  0
   36.5150   24.9440   42.5390 F   0  0  0  0  0  0  0  0  0  0  0  0
   36.4790   25.5150   40.3550 F   0  0  0  0  0  0  0  0  0  0  0  0
  1  7  1  0  0  0  0
  2  1  1  0  0  0  0
  2  8  1  0  0  0  0
  3  2  2  0  0  0  0
  4  5  2  0  0  0  0
  4  3  1  0  0  0  0
  5  6  1  0  0  0  0
  6  1  2  0  0  0  0
  9 10  1  0  0  0  0
  9  5  1  0  0  0  0
 11 10  1  0  0  0  0
 12 11  1  0  0  0  0
 13 12  1  0  0  0  0
 14 12  1  0  0  0  0
 14 15  1  0  0  0  0
 15  9  1  0  0  0  0
 16  3  1  0  0  0  0
 16 18  1  0  0  0  0
 17 16  1  0  0  0  0
 19 16  1  0  0  0  0
M  END
>  <minimizedAffinity>
-4.71777964

>  <minimizedRMSD>
2.07102752

$$$$
