
 OpenBabel03242505423D

 21 23  0  0  0  0  0  0  0  0999 V2000
   37.9660   31.0850   41.3600 C   0  0  0  0  0  0  0  0  0  0  0  0
   37.0510   31.7550   40.6020 N   0  0  0  0  0  0  0  0  0  0  0  0
   37.5560   32.8860   40.1890 O   0  0  0  0  0  0  0  0  0  0  0  0
   38.7850   32.9970   40.6460 C   0  0  0  0  0  0  0  0  0  0  0  0
   39.0640   31.8900   41.3790 N   0  0  0  0  0  0  0  0  0  0  0  0
   39.6640   34.0900   40.4130 N   0  0  0  0  0  0  0  0  0  0  0  0
   41.0390   33.8270   40.0550 C   0  0  0  0  0  0  0  0  0  0  0  0
   41.8680   34.8690   40.7740 C   0  0  0  0  0  0  0  0  0  0  0  0
   41.5050   36.1850   40.3620 N   0  0  0  0  0  0  0  0  0  0  0  0
   41.7500   36.9300   41.0500 H   0  0  0  0  0  0  0  0  0  0  0  0
   40.1920   36.3280   39.8150 C   0  0  0  0  0  0  0  0  0  0  0  0
   39.1720   35.4480   40.5380 C   0  0  0  0  0  0  0  0  0  0  0  0
   37.8070   28.1360   43.5780 C   0  0  0  0  0  0  0  0  0  0  0  0
   36.9460   27.3000   42.8400 C   0  0  0  0  0  0  0  0  0  0  0  0
   36.4490   27.7690   41.6110 C   0  0  0  0  0  0  0  0  0  0  0  0
   36.8370   29.0230   41.2070 N   0  0  0  0  0  0  0  0  0  0  0  0
   37.6670   29.7830   41.9550 C   0  0  0  0  0  0  0  0  0  0  0  0
   38.1460   29.3430   43.1290 N   0  0  0  0  0  0  0  0  0  0  0  0
   38.2110   27.8140   44.5250 H   0  0  0  0  0  0  0  0  0  0  0  0
   36.6700   26.3230   43.2010 H   0  0  0  0  0  0  0  0  0  0  0  0
   35.7800   27.1640   41.0020 H   0  0  0  0  0  0  0  0  0  0  0  0
  1  5  1  0  0  0  0
  1 17  1  0  0  0  0
  2  1  2  0  0  0  0
  3  2  1  0  0  0  0
  3  4  1  0  0  0  0
  4  5  2  0  0  0  0
  6 12  1  0  0  0  0
  6  4  1  0  0  0  0
  7  6  1  0  0  0  0
  7  8  1  0  0  0  0
  9  8  1  0  0  0  0
  9 10  1  0  0  0  0
 11  9  1  0  0  0  0
 11 12  1  0  0  0  0
 13 19  1  0  0  0  0
 14 20  1  0  0  0  0
 14 13  2  0  0  0  0
 15 14  1  0  0  0  0
 16 15  2  0  0  0  0
 16 17  1  0  0  0  0
 17 18  2  0  0  0  0
 18 13  1  0  0  0  0
 21 15  1  0  0  0  0
M  END
>  <minimizedAffinity>
-5.66304636

>  <minimizedRMSD>
1.48042393

$$$$
