
 OpenBabel03242509243D

 46 50  0  0  0  0  0  0  0  0999 V2000
   36.0700   30.0390   41.0630 C   0  0  0  0  0  0  0  0  0  0  0  0
   36.6470   30.8600   40.5760 H   0  0  0  0  0  0  0  0  0  0  0  0
   35.4710   30.5590   41.8500 H   0  0  0  0  0  0  0  0  0  0  0  0
   38.5890   28.1880   42.6720 C   0  0  0  0  0  0  0  0  0  0  0  0
   37.5190   27.3350   42.7990 C   0  0  0  0  0  0  0  0  0  0  0  0
   36.4390   27.9720   42.1840 C   0  0  0  0  0  0  0  0  0  0  0  0
   36.9390   29.1460   41.7400 N   0  0  0  0  0  0  0  0  0  0  0  0
   38.1900   29.2970   42.0110 N   0  0  0  0  0  0  0  0  0  0  0  0
   37.5500   26.3700   43.2860 H   0  0  0  0  0  0  0  0  0  0  0  0
   35.4810   27.5080   42.1490 H   0  0  0  0  0  0  0  0  0  0  0  0
   41.5480   26.6240   44.3150 C   0  0  0  0  0  0  0  0  0  0  0  0
   40.2490   26.7820   43.8510 C   0  0  0  0  0  0  0  0  0  0  0  0
   39.9310   27.9780   43.1560 C   0  0  0  0  0  0  0  0  0  0  0  0
   40.8890   28.9340   42.9580 N   0  0  0  0  0  0  0  0  0  0  0  0
   42.1570   28.6920   43.4560 C   0  0  0  0  0  0  0  0  0  0  0  0
   42.4570   27.5780   44.1040 N   0  0  0  0  0  0  0  0  0  0  0  0
   41.7570   25.7170   44.8330 H   0  0  0  0  0  0  0  0  0  0  0  0
   39.4630   26.0590   43.9830 H   0  0  0  0  0  0  0  0  0  0  0  0
   43.1340   29.7050   43.2370 N   0  0  0  0  0  0  0  0  0  0  0  0
   42.9110   31.0340   43.7700 C   0  0  0  0  0  2  0  0  0  0  0  0
   43.2460   32.0710   42.6910 C   0  0  0  0  0  2  0  0  0  0  0  0
   44.6560   31.9420   42.4730 N   0  0  0  0  0  0  0  0  0  0  0  0
   45.2570   32.2210   43.2620 H   0  0  0  0  0  0  0  0  0  0  0  0
   44.9390   30.6810   41.8790 C   0  0  0  0  0  2  0  0  0  0  0  0
   44.3440   29.4850   42.5100 C   0  0  0  0  0  2  0  0  0  0  0  0
   35.2050   29.4370   40.0020 C   0  0  0  0  0  0  0  0  0  0  0  0
   34.7650   28.5190   40.3620 H   0  0  0  0  0  0  0  0  0  0  0  0
   34.4640   30.2970   39.8760 H   0  0  0  0  0  0  0  0  0  0  0  0
   35.8280   29.3790   38.6590 C   0  0  0  0  0  0  0  0  0  0  0  0
   37.1500   29.5030   38.3500 C   0  0  0  0  0  0  0  0  0  0  0  0
   37.6840   29.5040   37.0940 C   0  0  0  0  0  0  0  0  0  0  0  0
   36.8380   29.3700   36.0030 C   0  0  0  0  0  0  0  0  0  0  0  0
   35.4780   29.2390   36.2540 C   0  0  0  0  0  0  0  0  0  0  0  0
   34.7100   29.1110   35.1350 C   0  0  0  0  0  0  0  0  0  0  0  0
   33.3510   28.9700   35.2730 C   0  0  0  0  0  0  0  0  0  0  0  0
   32.7970   28.9590   36.5300 C   0  0  0  0  0  0  0  0  0  0  0  0
   33.6320   29.0920   37.5970 C   0  0  0  0  0  0  0  0  0  0  0  0
   34.9860   29.2420   37.5420 C   0  0  0  0  0  0  0  0  0  0  0  0
   37.8260   29.6080   39.1970 H   0  0  0  0  0  0  0  0  0  0  0  0
   38.7470   29.6050   36.9270 H   0  0  0  0  0  0  0  0  0  0  0  0
   37.2760   29.3740   35.0140 H   0  0  0  0  0  0  0  0  0  0  0  0
   35.1100   29.1130   34.1230 H   0  0  0  0  0  0  0  0  0  0  0  0
   32.7270   28.8700   34.3920 H   0  0  0  0  0  0  0  0  0  0  0  0
   31.7400   28.8470   36.6120 H   0  0  0  0  0  0  0  0  0  0  0  0
   33.0150   29.0550   38.8460 O   0  0  0  0  0  0  0  0  0  0  0  0
   32.3380   28.3810   39.1220 H   0  0  0  0  0  0  0  0  0  0  0  0
  1  7  1  0  0  0  0
  1  3  1  0  0  0  0
  2  1  1  0  0  0  0
  4  5  1  0  0  0  0
  4 13  1  0  0  0  0
  5  9  1  0  0  0  0
  6  5  2  0  0  0  0
  7  8  1  0  0  0  0
  7  6  1  0  0  0  0
  8  4  2  0  0  0  0
 10  6  1  0  0  0  0
 11 17  1  0  0  0  0
 12 18  1  0  0  0  0
 12 11  2  0  0  0  0
 13 12  1  0  0  0  0
 14 13  2  0  0  0  0
 14 15  1  0  0  0  0
 15 16  2  0  0  0  0
 16 11  1  0  0  0  0
 19 15  1  0  0  0  0
 19 20  1  0  0  0  0
 21 20  1  0  0  0  0
 22 21  1  0  0  0  0
 22 23  1  0  0  0  0
 24 22  1  0  0  0  0
 24 25  1  0  0  0  0
 25 19  1  0  0  0  0
 26 27  1  0  0  0  0
 26  1  1  0  0  0  0
 28 26  1  0  0  0  0
 29 26  1  0  0  0  0
 30 29  1  0  0  0  0
 30 39  1  0  0  0  0
 31 30  2  0  0  0  0
 32 33  2  0  0  0  0
 32 31  1  0  0  0  0
 33 38  1  0  0  0  0
 34 35  2  0  0  0  0
 34 33  1  0  0  0  0
 35 36  1  0  0  0  0
 36 44  1  0  0  0  0
 36 37  2  0  0  0  0
 37 45  1  0  0  0  0
 38 37  1  0  0  0  0
 38 29  2  0  0  0  0
 40 31  1  0  0  0  0
 41 32  1  0  0  0  0
 42 34  1  0  0  0  0
 43 35  1  0  0  0  0
 45 46  1  0  0  0  0
M  END
>  <minimizedAffinity>
-6.32450819

>  <minimizedRMSD>
0.234047726

$$$$
