
 OpenBabel03242509243D

 46 50  0  0  0  0  0  0  0  0999 V2000
   36.0500   29.9830   41.1090 C   0  0  0  0  0  0  0  0  0  0  0  0
   36.6170   30.8270   40.6500 H   0  0  0  0  0  0  0  0  0  0  0  0
   35.4250   30.4720   41.8950 H   0  0  0  0  0  0  0  0  0  0  0  0
   38.5890   28.1430   42.6980 C   0  0  0  0  0  0  0  0  0  0  0  0
   37.5170   27.3010   42.8630 C   0  0  0  0  0  0  0  0  0  0  0  0
   36.4280   27.9340   42.2610 C   0  0  0  0  0  0  0  0  0  0  0  0
   36.9270   29.0960   41.7840 N   0  0  0  0  0  0  0  0  0  0  0  0
   38.1850   29.2420   42.0250 N   0  0  0  0  0  0  0  0  0  0  0  0
   37.5510   26.3440   43.3680 H   0  0  0  0  0  0  0  0  0  0  0  0
   35.4660   27.4770   42.2540 H   0  0  0  0  0  0  0  0  0  0  0  0
   41.5650   26.6010   44.3340 C   0  0  0  0  0  0  0  0  0  0  0  0
   40.2570   26.7610   43.8960 C   0  0  0  0  0  0  0  0  0  0  0  0
   39.9400   27.9320   43.1570 C   0  0  0  0  0  0  0  0  0  0  0  0
   40.9070   28.8620   42.8940 N   0  0  0  0  0  0  0  0  0  0  0  0
   42.1840   28.6200   43.3700 C   0  0  0  0  0  0  0  0  0  0  0  0
   42.4820   27.5300   44.0590 N   0  0  0  0  0  0  0  0  0  0  0  0
   41.7720   25.7140   44.8850 H   0  0  0  0  0  0  0  0  0  0  0  0
   39.4630   26.0580   44.0780 H   0  0  0  0  0  0  0  0  0  0  0  0
   43.1710   29.6060   43.0830 N   0  0  0  0  0  0  0  0  0  0  0  0
   43.1610   30.8550   43.8190 C   0  0  0  0  0  2  0  0  0  0  0  0
   43.3500   32.0180   42.8380 C   0  0  0  0  0  2  0  0  0  0  0  0
   44.6720   31.8530   42.3120 N   0  0  0  0  0  0  0  0  0  0  0  0
   45.4400   31.9890   42.9860 H   0  0  0  0  0  0  0  0  0  0  0  0
   44.7330   30.6780   41.5130 C   0  0  0  0  0  2  0  0  0  0  0  0
   44.1880   29.4350   42.0950 C   0  0  0  0  0  2  0  0  0  0  0  0
   35.2190   29.3840   40.0190 C   0  0  0  0  0  0  0  0  0  0  0  0
   34.7840   28.4550   40.3560 H   0  0  0  0  0  0  0  0  0  0  0  0
   34.4690   30.2350   39.8870 H   0  0  0  0  0  0  0  0  0  0  0  0
   35.8750   29.3540   38.6910 C   0  0  0  0  0  0  0  0  0  0  0  0
   37.2050   29.4750   38.4180 C   0  0  0  0  0  0  0  0  0  0  0  0
   37.7690   29.5030   37.1750 C   0  0  0  0  0  0  0  0  0  0  0  0
   36.9500   29.4010   36.0610 C   0  0  0  0  0  0  0  0  0  0  0  0
   35.5830   29.2740   36.2750 C   0  0  0  0  0  0  0  0  0  0  0  0
   34.8420   29.1780   35.1350 C   0  0  0  0  0  0  0  0  0  0  0  0
   33.4800   29.0440   35.2360 C   0  0  0  0  0  0  0  0  0  0  0  0
   32.8950   29.0070   36.4790 C   0  0  0  0  0  0  0  0  0  0  0  0
   33.7040   29.1080   37.5690 C   0  0  0  0  0  0  0  0  0  0  0  0
   35.0600   29.2490   37.5500 C   0  0  0  0  0  0  0  0  0  0  0  0
   37.8610   29.5550   39.2820 H   0  0  0  0  0  0  0  0  0  0  0  0
   38.8380   29.6010   37.0370 H   0  0  0  0  0  0  0  0  0  0  0  0
   37.4120   29.4260   35.0830 H   0  0  0  0  0  0  0  0  0  0  0  0
   35.2670   29.2020   34.1340 H   0  0  0  0  0  0  0  0  0  0  0  0
   32.8770   28.9690   34.3380 H   0  0  0  0  0  0  0  0  0  0  0  0
   31.8360   28.9000   36.5320 H   0  0  0  0  0  0  0  0  0  0  0  0
   33.0560   29.0460   38.8010 O   0  0  0  0  0  0  0  0  0  0  0  0
   32.3680   28.3690   39.0440 H   0  0  0  0  0  0  0  0  0  0  0  0
  1  7  1  0  0  0  0
  1  3  1  0  0  0  0
  2  1  1  0  0  0  0
  4  5  1  0  0  0  0
  4 13  1  0  0  0  0
  5  9  1  0  0  0  0
  6  5  2  0  0  0  0
  7  8  1  0  0  0  0
  7  6  1  0  0  0  0
  8  4  2  0  0  0  0
 10  6  1  0  0  0  0
 11 17  1  0  0  0  0
 12 18  1  0  0  0  0
 12 11  2  0  0  0  0
 13 12  1  0  0  0  0
 14 13  2  0  0  0  0
 14 15  1  0  0  0  0
 15 16  2  0  0  0  0
 16 11  1  0  0  0  0
 19 15  1  0  0  0  0
 19 20  1  0  0  0  0
 21 20  1  0  0  0  0
 22 21  1  0  0  0  0
 22 23  1  0  0  0  0
 24 25  1  0  0  0  0
 24 22  1  0  0  0  0
 25 19  1  0  0  0  0
 26 27  1  0  0  0  0
 26  1  1  0  0  0  0
 28 26  1  0  0  0  0
 29 26  1  0  0  0  0
 30 29  1  0  0  0  0
 30 39  1  0  0  0  0
 31 30  2  0  0  0  0
 32 33  2  0  0  0  0
 32 31  1  0  0  0  0
 33 38  1  0  0  0  0
 34 35  2  0  0  0  0
 34 33  1  0  0  0  0
 35 36  1  0  0  0  0
 36 44  1  0  0  0  0
 36 37  2  0  0  0  0
 37 45  1  0  0  0  0
 38 37  1  0  0  0  0
 38 29  2  0  0  0  0
 40 31  1  0  0  0  0
 41 32  1  0  0  0  0
 42 34  1  0  0  0  0
 43 35  1  0  0  0  0
 45 46  1  0  0  0  0
M  END
>  <minimizedAffinity>
-6.30855703

>  <minimizedRMSD>
0.155999675

$$$$
