
 OpenBabel03242509293D

 19 20  0  0  0  0  0  0  0  0999 V2000
   37.5600   28.7160   43.5660 C   0  0  0  0  0  0  0  0  0  0  0  0
   37.5550   27.3000   43.4190 C   0  0  0  0  0  0  0  0  0  0  0  0
   37.3950   26.8010   42.1230 C   0  0  0  0  0  0  0  0  0  0  0  0
   37.2540   27.6970   41.0790 N   0  0  0  0  0  0  0  0  0  0  0  0
   37.2670   29.0190   41.2830 C   0  0  0  0  0  0  0  0  0  0  0  0
   37.4170   29.5110   42.5090 N   0  0  0  0  0  0  0  0  0  0  0  0
   37.6840   29.0680   44.5790 H   0  0  0  0  0  0  0  0  0  0  0  0
   37.6710   26.6580   44.2810 H   0  0  0  0  0  0  0  0  0  0  0  0
   37.1180   29.9100   40.1830 N   0  0  0  0  0  0  0  0  0  0  0  0
   36.1340   29.7390   39.1480 C   0  0  0  0  0  2  0  0  0  0  0  0
   36.6490   30.1440   37.7860 C   0  0  0  0  0  2  0  0  0  0  0  0
   37.3080   31.4310   37.8050 N   0  0  0  0  0  0  0  0  0  0  0  0
   38.3240   31.2530   37.5680 H   0  0  0  0  0  0  0  0  0  0  0  0
   37.2970   32.0390   39.1170 C   0  0  0  0  0  2  0  0  0  0  0  0
   37.9770   31.0700   40.0460 C   0  0  0  0  0  2  0  0  0  0  0  0
   37.3830   25.3220   41.9100 C   0  0  0  0  0  0  0  0  0  0  0  0
   37.1410   25.1300   40.5670 F   0  0  0  0  0  0  0  0  0  0  0  0
   38.5970   24.7500   42.2130 F   0  0  0  0  0  0  0  0  0  0  0  0
   36.3830   24.7050   42.6490 F   0  0  0  0  0  0  0  0  0  0  0  0
  1  7  1  0  0  0  0
  2  1  1  0  0  0  0
  2  8  1  0  0  0  0
  3  2  2  0  0  0  0
  4  5  2  0  0  0  0
  4  3  1  0  0  0  0
  5  6  1  0  0  0  0
  6  1  2  0  0  0  0
  9  5  1  0  0  0  0
 10  9  1  0  0  0  0
 11 12  1  0  0  0  0
 11 10  1  0  0  0  0
 12 14  1  0  0  0  0
 13 12  1  0  0  0  0
 14 15  1  0  0  0  0
 15  9  1  0  0  0  0
 16  3  1  0  0  0  0
 16 18  1  0  0  0  0
 16 19  1  0  0  0  0
 17 16  1  0  0  0  0
M  END
>  <minimizedAffinity>
-4.66667891

>  <minimizedRMSD>
1.25864494

$$$$
