
 OpenBabel03242501293D

 34 36  0  0  1  0  0  0  0  0999 V2000
   38.2800   29.8310   42.6040 C   0  0  0  0  0  0  0  0  0  0  0  0
   38.8950   28.5770   42.7470 C   0  0  0  0  0  0  0  0  0  0  0  0
   38.4040   27.5040   42.0080 C   0  0  0  0  0  0  0  0  0  0  0  0
   37.3600   27.7160   41.1840 N   0  0  0  0  0  0  0  0  0  0  0  0
   36.7850   28.9320   41.0630 C   0  0  0  0  0  0  0  0  0  0  0  0
   37.2340   29.9850   41.7610 N   0  0  0  0  0  0  0  0  0  0  0  0
   38.9730   26.2110   42.1040 N   0  0  0  0  0  0  0  0  0  0  0  0
   39.5730   25.7170   43.3340 C   0  0  0  0  0  0  0  0  0  0  0  0
   40.7680   24.8580   42.9270 C   0  0  0  0  0  0  0  0  0  0  0  0
   41.3830   25.4290   41.6800 C   0  0  0  0  0  0  0  0  0  0  0  0
   40.4260   25.1700   40.5300 C   0  0  0  0  0  0  0  0  0  0  0  0
   39.0070   25.2810   41.0160 C   0  0  1  0  0  0  0  0  0  0  0  0
   38.5960   30.7170   43.1390 H   0  0  0  0  0  0  0  0  0  0  0  0
   39.7290   28.4870   43.4270 H   0  0  0  0  0  0  0  0  0  0  0  0
   38.8290   25.0930   43.8780 H   0  0  0  0  0  0  0  0  0  0  0  0
   39.9410   26.5600   43.9150 H   0  0  0  0  0  0  0  0  0  0  0  0
   41.5090   24.9480   43.7470 H   0  0  0  0  0  0  0  0  0  0  0  0
   40.4770   23.8000   42.8360 H   0  0  0  0  0  0  0  0  0  0  0  0
   42.4030   25.0870   41.4850 H   0  0  0  0  0  0  0  0  0  0  0  0
   41.4060   26.5350   41.8080 H   0  0  0  0  0  0  0  0  0  0  0  0
   40.6300   25.9070   39.7170 H   0  0  0  0  0  0  0  0  0  0  0  0
   40.7000   24.1870   40.1200 H   0  0  0  0  0  0  0  0  0  0  0  0
   38.4100   25.7120   40.1790 H   0  0  0  0  0  0  0  0  0  0  0  0
   38.4390   23.9950   41.3400 N   0  0  0  0  0  0  0  0  0  0  0  0
   38.7140   23.0990   40.2330 C   0  0  0  0  0  0  0  0  0  0  0  0
   37.6100   22.0760   40.0400 C   0  0  0  0  0  0  0  0  0  0  0  0
   36.4490   22.7880   39.5410 N   0  0  0  0  0  0  0  0  0  0  0  0
   36.6170   22.9920   38.5310 H   0  0  0  0  0  0  0  0  0  0  0  0
   36.2380   24.0360   40.2440 C   0  0  0  0  0  0  0  0  0  0  0  0
   37.0210   24.0890   41.5420 C   0  0  0  0  0  0  0  0  0  0  0  0
   35.6450   28.9180   40.0880 C   0  0  0  0  0  0  0  0  0  0  0  0
   35.7460   29.9850   39.2080 F   0  0  0  0  0  0  0  0  0  0  0  0
   34.4570   28.9700   40.7520 F   0  0  0  0  0  0  0  0  0  0  0  0
   35.6630   27.7360   39.3600 F   0  0  0  0  0  0  0  0  0  0  0  0
  1  2  1  0  0  0  0
  1 13  1  0  0  0  0
  2 14  1  0  0  0  0
  3  7  1  0  0  0  0
  3  2  2  0  0  0  0
  4  3  1  0  0  0  0
  5  4  2  0  0  0  0
  5  6  1  0  0  0  0
  6  1  2  0  0  0  0
  7  8  1  0  0  0  0
  8 15  1  0  0  0  0
  8 16  1  0  0  0  0
  9  8  1  0  0  0  0
  9 17  1  0  0  0  0
 10 20  1  0  0  0  0
 10  9  1  0  0  0  0
 11 12  1  0  0  0  0
 11 10  1  0  0  0  0
 12 23  1  6  0  0  0
 12 24  1  0  0  0  0
 12  7  1  0  0  0  0
 18  9  1  0  0  0  0
 19 10  1  0  0  0  0
 21 11  1  0  0  0  0
 22 11  1  0  0  0  0
 24 30  1  0  0  0  0
 25 24  1  0  0  0  0
 26 25  1  0  0  0  0
 27 26  1  0  0  0  0
 27 29  1  0  0  0  0
 28 27  1  0  0  0  0
 29 30  1  0  0  0  0
 31 33  1  0  0  0  0
 31  5  1  0  0  0  0
 32 31  1  0  0  0  0
 34 31  1  0  0  0  0
M  END
>  <minimizedAffinity>
-5.29026079

>  <minimizedRMSD>
3.1748786

$$$$
