
 OpenBabel03242509073D

 37 41  0  0  1  0  0  0  0  0999 V2000
   35.9980   30.6450   40.8800 C   0  0  0  0  0  0  0  0  0  0  0  0
   36.6220   29.5400   41.4950 C   0  0  0  0  0  0  0  0  0  0  0  0
   38.0130   29.5100   41.5570 C   0  0  0  0  0  0  0  0  0  0  0  0
   38.6700   30.5600   41.0140 N   0  0  0  0  0  0  0  0  0  0  0  0
   38.0640   31.6150   40.4260 C   0  0  0  0  0  0  0  0  0  0  0  0
   36.7150   31.6590   40.3580 N   0  0  0  0  0  0  0  0  0  0  0  0
   34.9250   30.7180   40.8060 H   0  0  0  0  0  0  0  0  0  0  0  0
   35.9790   28.7660   41.8900 H   0  0  0  0  0  0  0  0  0  0  0  0
   38.6640   28.3760   42.1750 C   0  0  0  0  0  0  0  0  0  0  0  0
   39.7760   28.3670   42.9850 C   0  0  0  0  0  0  0  0  0  0  0  0
   40.0490   27.0920   43.3440 N   0  0  0  0  0  0  0  0  0  0  0  0
   39.1460   26.2470   42.7950 C   0  0  0  0  0  0  0  0  0  0  0  0
   38.9550   24.8630   42.8280 C   0  0  0  0  0  0  0  0  0  0  0  0
   37.9170   24.2610   42.1470 C   0  0  0  0  0  0  0  0  0  0  0  0
   37.0810   25.0820   41.4360 C   0  0  0  0  0  0  0  0  0  0  0  0
   37.2530   26.4340   41.3920 C   0  0  0  0  0  0  0  0  0  0  0  0
   38.2930   27.0540   42.0720 C   0  0  0  0  0  0  0  0  0  0  0  0
   40.3240   29.2560   43.2700 H   0  0  0  0  0  0  0  0  0  0  0  0
   40.8520   26.7970   43.9660 H   0  0  0  0  0  0  0  0  0  0  0  0
   39.7030   24.3410   43.4390 H   0  0  0  0  0  0  0  0  0  0  0  0
   37.8590   23.1820   42.2410 H   0  0  0  0  0  0  0  0  0  0  0  0
   36.2740   24.5630   40.9120 H   0  0  0  0  0  0  0  0  0  0  0  0
   36.5370   27.0040   40.7990 H   0  0  0  0  0  0  0  0  0  0  0  0
   38.8680   32.7400   39.8570 C   0  0  1  0  0  0  0  0  0  0  0  0
   38.5780   34.1480   40.3660 C   0  0  0  0  0  0  0  0  0  0  0  0
   39.8360   33.4430   40.7470 C   0  0  2  0  0  0  0  0  0  0  0  0
   39.0100   32.6250   38.7670 H   0  0  0  0  0  0  0  0  0  0  0  0
   37.7800   34.2780   41.1140 H   0  0  0  0  0  0  0  0  0  0  0  0
   38.5650   34.9160   39.5730 H   0  0  0  0  0  0  0  0  0  0  0  0
   39.8240   33.0700   41.8150 H   0  0  0  0  0  0  0  0  0  0  0  0
   41.1070   33.6980   40.1670 N   0  0  0  0  0  0  0  0  0  0  0  0
   41.8550   34.7880   40.6800 C   0  0  0  0  0  0  0  0  0  0  0  0
   43.0740   34.2950   41.4630 C   0  0  0  0  0  0  0  0  0  0  0  0
   42.6460   33.2910   42.3840 N   0  0  0  0  0  0  0  0  0  0  0  0
   41.9930   33.6500   43.0970 H   0  0  0  0  0  0  0  0  0  0  0  0
   42.1790   32.1420   41.6690 C   0  0  0  0  0  0  0  0  0  0  0  0
   41.8640   32.4460   40.2190 C   0  0  0  0  0  0  0  0  0  0  0  0
  1  2  1  0  0  0  0
  2  3  2  0  0  0  0
  2  8  1  0  0  0  0
  3  9  1  0  0  0  0
  4  3  1  0  0  0  0
  5  4  2  0  0  0  0
  6  5  1  0  0  0  0
  6  1  2  0  0  0  0
  7  1  1  0  0  0  0
  9 10  2  0  0  0  0
 10 18  1  0  0  0  0
 10 11  1  0  0  0  0
 11 19  1  0  0  0  0
 12 13  1  0  0  0  0
 12 11  1  0  0  0  0
 13 20  1  0  0  0  0
 14 21  1  0  0  0  0
 14 13  2  0  0  0  0
 15 14  1  0  0  0  0
 16 15  2  0  0  0  0
 16 17  1  0  0  0  0
 17  9  1  0  0  0  0
 17 12  2  0  0  0  0
 22 15  1  0  0  0  0
 23 16  1  0  0  0  0
 24 27  1  6  0  0  0
 24 25  1  0  0  0  0
 24  5  1  0  0  0  0
 24 26  1  0  0  0  0
 25 26  1  0  0  0  0
 25 28  1  0  0  0  0
 26 30  1  1  0  0  0
 29 25  1  0  0  0  0
 31 37  1  0  0  0  0
 31 32  1  0  0  0  0
 31 26  1  0  0  0  0
 32 33  1  0  0  0  0
 33 34  1  0  0  0  0
 34 35  1  0  0  0  0
 36 34  1  0  0  0  0
 37 36  1  0  0  0  0
M  END
>  <minimizedAffinity>
-6.35548258

>  <minimizedRMSD>
1.00215185

$$$$
