
 OpenBabel03242508013D

 44 48  0  0  1  0  0  0  0  0999 V2000
   33.8000   26.7760   37.1920 N   0  0  0  0  0  0  0  0  0  0  0  0
   33.3880   28.1390   36.9490 C   0  0  0  0  0  0  0  0  0  0  0  0
   34.4150   28.9290   36.1770 C   0  0  0  0  0  0  0  0  0  0  0  0
   35.8180   28.4170   36.4180 C   0  0  2  0  0  0  0  0  0  0  0  0
   35.9650   27.7740   37.7790 C   0  0  0  0  0  0  0  0  0  0  0  0
   34.9740   26.6750   38.0100 C   0  0  2  0  0  0  0  0  0  0  0  0
   33.9440   26.2760   36.2850 H   0  0  0  0  0  0  0  0  0  0  0  0
   33.1130   28.6020   37.9260 H   0  0  0  0  0  0  0  0  0  0  0  0
   32.4670   28.0900   36.3330 H   0  0  0  0  0  0  0  0  0  0  0  0
   34.3610   30.0140   36.4040 H   0  0  0  0  0  0  0  0  0  0  0  0
   34.2280   28.8240   35.0850 H   0  0  0  0  0  0  0  0  0  0  0  0
   36.1570   27.7210   35.6280 H   0  0  0  0  0  0  0  0  0  0  0  0
   35.8740   28.5920   38.5200 H   0  0  0  0  0  0  0  0  0  0  0  0
   37.0160   27.4150   37.8370 H   0  0  0  0  0  0  0  0  0  0  0  0
   34.6090   26.8060   39.0700 H   0  0  0  0  0  0  0  0  0  0  0  0
   35.5780   25.3390   37.9160 C   0  0  0  0  0  0  0  0  0  0  0  0
   35.5810   24.5230   36.7950 C   0  0  0  0  0  0  0  0  0  0  0  0
   36.2270   23.3910   37.1030 N   0  0  0  0  0  0  0  0  0  0  0  0
   36.6620   23.4000   38.3740 C   0  0  0  0  0  0  0  0  0  0  0  0
   37.3560   22.5420   39.2010 C   0  0  0  0  0  0  0  0  0  0  0  0
   37.6420   22.8880   40.5060 C   0  0  0  0  0  0  0  0  0  0  0  0
   37.2490   24.1120   41.0590 C   0  0  0  0  0  0  0  0  0  0  0  0
   36.5500   24.9410   40.1790 C   0  0  0  0  0  0  0  0  0  0  0  0
   36.2510   24.6220   38.8730 C   0  0  0  0  0  0  0  0  0  0  0  0
   36.3980   22.5680   36.4640 H   0  0  0  0  0  0  0  0  0  0  0  0
   36.9400   29.8430   36.4110 S   0  0  0  0  0  0  0  0  0  0  0  0
   37.1950   30.3600   40.3890 C   0  0  0  0  0  0  0  0  0  0  0  0
   37.2850   31.7200   40.5640 C   0  0  0  0  0  0  0  0  0  0  0  0
   37.2680   32.5200   39.4280 C   0  0  0  0  0  0  0  0  0  0  0  0
   37.1620   31.9060   38.1810 C   0  0  0  0  0  0  0  0  0  0  0  0
   37.0730   30.5470   38.0320 C   0  0  0  0  0  0  0  0  0  0  0  0
   37.0910   29.7930   39.1560 N   0  0  0  0  0  0  0  0  0  0  0  0
   37.3670   32.1380   41.5660 H   0  0  0  0  0  0  0  0  0  0  0  0
   37.3370   33.5950   39.5190 H   0  0  0  0  0  0  0  0  0  0  0  0
   37.1520   32.5660   37.3220 H   0  0  0  0  0  0  0  0  0  0  0  0
   38.1710   28.9500   43.6190 C   0  0  0  0  0  0  0  0  0  0  0  0
   37.2990   27.8480   43.7680 C   0  0  0  0  0  0  0  0  0  0  0  0
   36.3670   27.6030   42.7300 C   0  0  0  0  0  0  0  0  0  0  0  0
   36.3770   28.4390   41.6710 N   0  0  0  0  0  0  0  0  0  0  0  0
   37.2080   29.4690   41.5530 C   0  0  0  0  0  0  0  0  0  0  0  0
   38.0840   29.6930   42.5360 N   0  0  0  0  0  0  0  0  0  0  0  0
   38.8580   29.0950   44.4320 H   0  0  0  0  0  0  0  0  0  0  0  0
   37.2610   27.1550   44.6040 H   0  0  0  0  0  0  0  0  0  0  0  0
   35.6810   26.7580   42.8180 H   0  0  0  0  0  0  0  0  0  0  0  0
  1  6  1  0  0  0  0
  2  1  1  0  0  0  0
  2  8  1  0  0  0  0
  3 10  1  0  0  0  0
  3  4  1  0  0  0  0
  3  2  1  0  0  0  0
  4 12  1  6  0  0  0
  4  5  1  0  0  0  0
  5 14  1  0  0  0  0
  5  6  1  0  0  0  0
  5 13  1  0  0  0  0
  6 15  1  1  0  0  0
  7  1  1  0  0  0  0
  9  2  1  0  0  0  0
 11  3  1  0  0  0  0
 16  6  1  0  0  0  0
 16 24  1  0  0  0  0
 17 18  1  0  0  0  0
 17 16  2  0  0  0  0
 18 19  1  0  0  0  0
 19 24  2  0  0  0  0
 19 20  1  0  0  0  0
 20 21  2  0  0  0  0
 21 22  1  0  0  0  0
 23 22  2  0  0  0  0
 24 23  1  0  0  0  0
 25 18  1  0  0  0  0
 26  4  1  0  0  0  0
 26 31  1  0  0  0  0
 27 28  1  0  0  0  0
 27 40  1  0  0  0  0
 28 33  1  0  0  0  0
 29 34  1  0  0  0  0
 29 28  2  0  0  0  0
 30 29  1  0  0  0  0
 31 30  2  0  0  0  0
 31 32  1  0  0  0  0
 32 27  2  0  0  0  0
 35 30  1  0  0  0  0
 36 37  1  0  0  0  0
 36 42  1  0  0  0  0
 37 43  1  0  0  0  0
 38 44  1  0  0  0  0
 38 37  2  0  0  0  0
 39 38  1  0  0  0  0
 40 39  2  0  0  0  0
 40 41  1  0  0  0  0
 41 36  2  0  0  0  0
M  END
>  <minimizedAffinity>
-5.85941935

>  <minimizedRMSD>
2.11956501

$$$$
