
 OpenBabel03242509103D

 40 45  0  0  1  0  0  0  0  0999 V2000
   36.9750   32.6260   39.8330 C   0  0  0  0  0  0  0  0  0  0  0  0
   37.0520   31.4330   40.5890 C   0  0  0  0  0  0  0  0  0  0  0  0
   38.2430   31.1370   41.2630 C   0  0  0  0  0  0  0  0  0  0  0  0
   39.2420   32.0390   41.1310 N   0  0  0  0  0  0  0  0  0  0  0  0
   39.1610   33.1710   40.4110 C   0  0  0  0  0  0  0  0  0  0  0  0
   38.0140   33.4630   39.7570 N   0  0  0  0  0  0  0  0  0  0  0  0
   36.0460   32.8580   39.3070 H   0  0  0  0  0  0  0  0  0  0  0  0
   36.1990   30.7810   40.6300 H   0  0  0  0  0  0  0  0  0  0  0  0
   38.3210   29.9200   42.0160 C   0  0  0  0  0  0  0  0  0  0  0  0
   37.2850   29.1490   42.4840 C   0  0  0  0  0  0  0  0  0  0  0  0
   37.7630   28.0870   43.1530 N   0  0  0  0  0  0  0  0  0  0  0  0
   39.1070   28.1160   43.1500 C   0  0  0  0  0  0  0  0  0  0  0  0
   40.1150   27.2970   43.6690 C   0  0  0  0  0  0  0  0  0  0  0  0
   41.4660   27.5970   43.4950 C   0  0  0  0  0  0  0  0  0  0  0  0
   41.7730   28.7410   42.7860 C   0  0  0  0  0  0  0  0  0  0  0  0
   40.7980   29.5550   42.2700 C   0  0  0  0  0  0  0  0  0  0  0  0
   39.4610   29.2580   42.4420 C   0  0  0  0  0  0  0  0  0  0  0  0
   36.2200   29.2810   42.3830 H   0  0  0  0  0  0  0  0  0  0  0  0
   37.2660   27.3110   43.6300 H   0  0  0  0  0  0  0  0  0  0  0  0
   39.7960   26.4170   44.2140 H   0  0  0  0  0  0  0  0  0  0  0  0
   42.2260   26.9470   43.9070 H   0  0  0  0  0  0  0  0  0  0  0  0
   42.8060   29.0030   42.6320 H   0  0  0  0  0  0  0  0  0  0  0  0
   41.0450   30.4440   41.7180 H   0  0  0  0  0  0  0  0  0  0  0  0
   40.3260   34.0990   40.3450 C   0  0  1  0  0  0  0  0  0  0  0  0
   41.7050   33.5340   40.6510 C   0  0  0  0  0  0  0  0  0  0  0  0
   41.3250   33.9500   39.2590 C   0  0  1  0  0  0  0  0  0  0  0  0
   40.0910   35.0780   40.8120 H   0  0  0  0  0  0  0  0  0  0  0  0
   42.3490   34.1890   41.2620 H   0  0  0  0  0  0  0  0  0  0  0  0
   41.8010   32.4660   40.8850 H   0  0  0  0  0  0  0  0  0  0  0  0
   41.7120   34.9320   38.8850 H   0  0  0  0  0  0  0  0  0  0  0  0
   41.3080   32.8620   38.2650 C   0  0  0  0  0  0  0  0  0  0  0  0
   40.3240   32.0950   37.6750 C   0  0  0  0  0  0  0  0  0  0  0  0
   40.9390   31.2290   36.8380 N   0  0  0  0  0  0  0  0  0  0  0  0
   42.2750   31.4170   36.8750 C   0  0  0  0  0  0  0  0  0  0  0  0
   43.2250   30.7010   36.1390 C   0  0  0  0  0  0  0  0  0  0  0  0
   44.5350   31.0750   36.3440 C   0  0  0  0  0  0  0  0  0  0  0  0
   44.8630   32.0890   37.2190 C   0  0  0  0  0  0  0  0  0  0  0  0
   43.8770   32.7570   37.9160 C   0  0  0  0  0  0  0  0  0  0  0  0
   42.5440   32.4370   37.7620 C   0  0  0  0  0  0  0  0  0  0  0  0
   40.3690   30.5380   36.2760 H   0  0  0  0  0  0  0  0  0  0  0  0
  1  2  1  0  0  0  0
  2  8  1  0  0  0  0
  2  3  2  0  0  0  0
  3  9  1  0  0  0  0
  4  3  1  0  0  0  0
  5  4  2  0  0  0  0
  6  1  2  0  0  0  0
  6  5  1  0  0  0  0
  7  1  1  0  0  0  0
  9 17  1  0  0  0  0
  9 10  2  0  0  0  0
 10 11  1  0  0  0  0
 11 19  1  0  0  0  0
 12 11  1  0  0  0  0
 12 13  1  0  0  0  0
 13 20  1  0  0  0  0
 14 13  2  0  0  0  0
 14 21  1  0  0  0  0
 15 14  1  0  0  0  0
 16 17  1  0  0  0  0
 16 15  2  0  0  0  0
 17 12  2  0  0  0  0
 18 10  1  0  0  0  0
 22 15  1  0  0  0  0
 23 16  1  0  0  0  0
 24  5  1  0  0  0  0
 24 25  1  0  0  0  0
 24 27  1  1  0  0  0
 25 29  1  0  0  0  0
 25 28  1  0  0  0  0
 26 30  1  6  0  0  0
 26 24  1  0  0  0  0
 26 25  1  0  0  0  0
 31 26  1  0  0  0  0
 32 31  2  0  0  0  0
 33 34  1  0  0  0  0
 33 32  1  0  0  0  0
 34 39  1  0  0  0  0
 35 36  1  0  0  0  0
 35 34  2  0  0  0  0
 36 37  2  0  0  0  0
 37 38  1  0  0  0  0
 39 38  2  0  0  0  0
 39 31  1  0  0  0  0
 40 33  1  0  0  0  0
M  END
>  <minimizedAffinity>
-6.66936779

>  <minimizedRMSD>
4.58613873

$$$$
