
 OpenBabel03242508043D

 31 34  0  0  0  0  0  0  0  0999 V2000
   37.2750   26.4920   40.5370 C   0  0  0  0  0  0  0  0  0  0  0  0
   38.3100   25.5880   40.8000 C   0  0  0  0  0  0  0  0  0  0  0  0
   38.3490   24.3930   40.0320 C   0  0  0  0  0  0  0  0  0  0  0  0
   37.3840   24.2010   39.0940 N   0  0  0  0  0  0  0  0  0  0  0  0
   36.4090   25.0950   38.8730 C   0  0  0  0  0  0  0  0  0  0  0  0
   36.3580   26.2270   39.5890 N   0  0  0  0  0  0  0  0  0  0  0  0
   39.1350   23.6940   40.2240 H   0  0  0  0  0  0  0  0  0  0  0  0
   35.6940   24.8480   38.1060 H   0  0  0  0  0  0  0  0  0  0  0  0
   39.3070   25.7840   41.7510 N   0  0  0  0  0  0  0  0  0  0  0  0
   39.4810   25.1000   43.0210 C   0  0  0  0  0  0  0  0  0  0  0  0
   40.1330   26.1300   43.9180 C   0  0  0  0  0  0  0  0  0  0  0  0
   40.3620   27.3460   43.0500 C   0  0  0  0  0  0  0  0  0  0  0  0
   40.4130   26.6920   41.6910 C   0  0  0  0  0  0  0  0  0  0  0  0
   38.4630   24.9240   43.4380 H   0  0  0  0  0  0  0  0  0  0  0  0
   40.0410   24.1730   42.9090 H   0  0  0  0  0  0  0  0  0  0  0  0
   41.1690   25.7380   44.1360 H   0  0  0  0  0  0  0  0  0  0  0  0
   39.6040   26.3270   44.8480 H   0  0  0  0  0  0  0  0  0  0  0  0
   41.3110   27.8530   43.3130 H   0  0  0  0  0  0  0  0  0  0  0  0
   39.5180   28.0140   43.1760 H   0  0  0  0  0  0  0  0  0  0  0  0
   40.4500   27.3520   40.8370 H   0  0  0  0  0  0  0  0  0  0  0  0
   41.3340   26.0350   41.7140 H   0  0  0  0  0  0  0  0  0  0  0  0
   37.0220   27.7370   41.2280 C   0  0  0  0  0  0  0  0  0  0  0  0
   36.7950   28.2230   42.4910 C   0  0  0  0  0  0  0  0  0  0  0  0
   36.6500   29.5560   42.5190 N   0  0  0  0  0  0  0  0  0  0  0  0
   36.7730   30.0340   41.2830 C   0  0  0  0  0  0  0  0  0  0  0  0
   36.7020   31.3270   40.8210 C   0  0  0  0  0  0  0  0  0  0  0  0
   36.8650   31.5600   39.4820 C   0  0  0  0  0  0  0  0  0  0  0  0
   37.0970   30.5080   38.6230 C   0  0  0  0  0  0  0  0  0  0  0  0
   37.1600   29.2290   39.1250 C   0  0  0  0  0  0  0  0  0  0  0  0
   37.0020   28.9290   40.4820 C   0  0  0  0  0  0  0  0  0  0  0  0
   36.4720   30.0880   43.3970 H   0  0  0  0  0  0  0  0  0  0  0  0
  1  2  1  0  0  0  0
  1 22  1  0  0  0  0
  2  9  1  0  0  0  0
  3  7  1  0  0  0  0
  3  2  2  0  0  0  0
  4  3  1  0  0  0  0
  5  4  2  0  0  0  0
  5  6  1  0  0  0  0
  6  1  2  0  0  0  0
  8  5  1  0  0  0  0
  9 10  1  0  0  0  0
 10 14  1  0  0  0  0
 10 11  1  0  0  0  0
 11 16  1  0  0  0  0
 11 17  1  0  0  0  0
 12 19  1  0  0  0  0
 12 18  1  0  0  0  0
 12 11  1  0  0  0  0
 13 21  1  0  0  0  0
 13  9  1  0  0  0  0
 13 12  1  0  0  0  0
 15 10  1  0  0  0  0
 20 13  1  0  0  0  0
 22 23  2  0  0  0  0
 23 24  1  0  0  0  0
 24 31  1  0  0  0  0
 25 24  1  0  0  0  0
 26 25  1  0  0  0  0
 27 26  2  0  0  0  0
 28 29  2  0  0  0  0
 28 27  1  0  0  0  0
 29 30  1  0  0  0  0
 30 22  1  0  0  0  0
 30 25  2  0  0  0  0
M  END
>  <minimizedAffinity>
-5.27243948

>  <minimizedRMSD>
3.84390903

$$$$
