
 OpenBabel03242507393D

 39 42  0  0  1  0  0  0  0  0999 V2000
   37.3530   26.9470   40.4020 C   0  0  2  0  0  0  0  0  0  0  0  0
   37.0640   25.6600   41.1330 C   0  0  0  0  0  0  0  0  0  0  0  0
   36.3760   24.8570   40.0510 C   0  0  0  0  0  0  0  0  0  0  0  0
   36.9200   25.3600   38.7640 C   0  0  0  0  0  0  0  0  0  0  0  0
   38.0050   26.4200   39.1540 C   0  0  1  0  0  0  0  0  0  0  0  0
   36.4660   27.4490   40.0030 H   0  0  0  0  0  0  0  0  0  0  0  0
   36.3980   25.8300   42.0070 H   0  0  0  0  0  0  0  0  0  0  0  0
   38.0030   25.1620   41.4330 H   0  0  0  0  0  0  0  0  0  0  0  0
   35.2630   24.9770   40.0940 H   0  0  0  0  0  0  0  0  0  0  0  0
   36.5480   23.7530   40.1960 H   0  0  0  0  0  0  0  0  0  0  0  0
   36.1710   25.7850   38.0970 H   0  0  0  0  0  0  0  0  0  0  0  0
   37.4550   24.5000   38.2690 H   0  0  0  0  0  0  0  0  0  0  0  0
   38.9570   25.9450   39.3600 H   0  0  0  0  0  0  0  0  0  0  0  0
   37.9860   27.2740   37.9530 C   0  0  0  0  0  0  0  0  0  0  0  0
   39.1360   27.6100   37.2230 C   0  0  0  0  0  0  0  0  0  0  0  0
   38.7670   28.4530   36.2120 N   0  0  0  0  0  0  0  0  0  0  0  0
   37.4390   28.6590   36.2780 C   0  0  0  0  0  0  0  0  0  0  0  0
   36.4990   29.3820   35.5690 C   0  0  0  0  0  0  0  0  0  0  0  0
   35.1540   29.3950   35.8950 C   0  0  0  0  0  0  0  0  0  0  0  0
   34.7200   28.6480   36.9810 C   0  0  0  0  0  0  0  0  0  0  0  0
   35.6070   27.9070   37.7260 C   0  0  0  0  0  0  0  0  0  0  0  0
   36.9430   27.9400   37.3450 C   0  0  0  0  0  0  0  0  0  0  0  0
   39.2910   28.9340   35.4500 H   0  0  0  0  0  0  0  0  0  0  0  0
   38.8700   29.8630   42.1970 C   0  0  0  0  0  0  0  0  0  0  0  0
   38.1180   29.1920   41.1540 C   0  0  0  0  0  0  0  0  0  0  0  0
   38.1220   27.8370   41.2200 C   0  0  0  0  0  0  0  0  0  0  0  0
   38.8230   27.2230   42.2480 N   0  0  0  0  0  0  0  0  0  0  0  0
   39.4970   27.8820   43.1800 C   0  0  0  0  0  0  0  0  0  0  0  0
   39.5190   29.2280   43.1520 N   0  0  0  0  0  0  0  0  0  0  0  0
   38.8880   30.9420   42.1740 H   0  0  0  0  0  0  0  0  0  0  0  0
   40.0310   27.3930   43.9630 H   0  0  0  0  0  0  0  0  0  0  0  0
   37.5170   29.9690   40.1680 N   0  0  0  0  0  0  0  0  0  0  0  0
   36.5590   31.0030   40.4210 C   0  0  0  0  0  0  0  0  0  0  0  0
   35.7480   30.8060   41.4110 N   0  0  0  0  0  0  0  0  0  0  0  0
   36.6280   32.1590   39.5410 N   0  0  0  0  0  0  0  0  0  0  0  0
   35.0430   31.5050   41.6840 H   0  0  0  0  0  0  0  0  0  0  0  0
   37.7760   29.8720   39.1610 H   0  0  0  0  0  0  0  0  0  0  0  0
   36.5320   33.0280   40.1100 H   0  0  0  0  0  0  0  0  0  0  0  0
   36.7530   32.0220   38.5290 H   0  0  0  0  0  0  0  0  0  0  0  0
  1  6  1  6  0  0  0
  1  2  1  0  0  0  0
  1 26  1  0  0  0  0
  2  8  1  0  0  0  0
  2  7  1  0  0  0  0
  3  9  1  0  0  0  0
  3 10  1  0  0  0  0
  3  2  1  0  0  0  0
  4  5  1  0  0  0  0
  4  3  1  0  0  0  0
  5 13  1  1  0  0  0
  5  1  1  0  0  0  0
 11  4  1  0  0  0  0
 12  4  1  0  0  0  0
 14  5  1  0  0  0  0
 15 14  2  0  0  0  0
 16 17  1  0  0  0  0
 16 15  1  0  0  0  0
 17 22  1  0  0  0  0
 18 19  1  0  0  0  0
 18 17  2  0  0  0  0
 19 20  2  0  0  0  0
 20 21  1  0  0  0  0
 22 21  2  0  0  0  0
 22 14  1  0  0  0  0
 23 16  1  0  0  0  0
 24 29  1  0  0  0  0
 25 26  1  0  0  0  0
 25 24  2  0  0  0  0
 26 27  2  0  0  0  0
 27 28  1  0  0  0  0
 28 31  1  0  0  0  0
 29 28  2  0  0  0  0
 30 24  1  0  0  0  0
 32 33  1  0  0  0  0
 32 25  1  0  0  0  0
 33 34  2  0  0  0  0
 34 36  1  0  0  0  0
 35 38  1  0  0  0  0
 35 33  1  0  0  0  0
 37 32  1  0  0  0  0
 39 35  1  0  0  0  0
M  END
>  <minimizedAffinity>
-5.58443737

>  <minimizedRMSD>
1.45548284

$$$$
