
 OpenBabel03242508573D

 46 51  0  0  0  0  0  0  0  0999 V2000
   36.3730   27.4370   39.8270 C   0  0  0  0  0  0  0  0  0  0  0  0
   36.3180   28.0290   41.0870 C   0  0  0  0  0  0  0  0  0  0  0  0
   36.6260   27.0810   41.9710 N   0  0  0  0  0  0  0  0  0  0  0  0
   36.8790   25.9000   41.3800 C   0  0  0  0  0  0  0  0  0  0  0  0
   37.2300   24.6870   41.9500 C   0  0  0  0  0  0  0  0  0  0  0  0
   37.4320   23.6320   41.0680 C   0  0  0  0  0  0  0  0  0  0  0  0
   37.2880   23.7880   39.6900 C   0  0  0  0  0  0  0  0  0  0  0  0
   36.9380   25.0080   39.1500 C   0  0  0  0  0  0  0  0  0  0  0  0
   36.7260   26.0930   40.0050 C   0  0  0  0  0  0  0  0  0  0  0  0
   36.0590   29.0760   41.1640 H   0  0  0  0  0  0  0  0  0  0  0  0
   37.3340   24.5980   43.0180 H   0  0  0  0  0  0  0  0  0  0  0  0
   37.7060   22.6920   41.5350 H   0  0  0  0  0  0  0  0  0  0  0  0
   37.4600   22.9270   39.0650 H   0  0  0  0  0  0  0  0  0  0  0  0
   36.8190   25.1580   38.0830 H   0  0  0  0  0  0  0  0  0  0  0  0
   34.6480   29.0490   37.0490 C   0  0  0  0  0  0  0  0  0  0  0  0
   35.6840   29.2430   36.0960 C   0  0  0  0  0  0  0  0  0  0  0  0
   36.9810   28.8090   36.4310 C   0  0  0  0  0  0  0  0  0  0  0  0
   37.1410   28.2390   37.6400 N   0  0  0  0  0  0  0  0  0  0  0  0
   36.1260   28.0670   38.5320 C   0  0  0  0  0  0  0  0  0  0  0  0
   34.8940   28.4680   38.2380 N   0  0  0  0  0  0  0  0  0  0  0  0
   33.6610   29.3950   36.7590 H   0  0  0  0  0  0  0  0  0  0  0  0
   35.4840   29.7040   35.1520 H   0  0  0  0  0  0  0  0  0  0  0  0
   37.7730   28.9460   35.7270 H   0  0  0  0  0  0  0  0  0  0  0  0
   36.6690   27.3840   43.3630 C   0  0  0  0  0  0  0  0  0  0  0  0
   35.6770   27.5880   43.8160 H   0  0  0  0  0  0  0  0  0  0  0  0
   37.0300   26.4600   43.8850 H   0  0  0  0  0  0  0  0  0  0  0  0
   37.5530   28.5760   43.7080 C   0  0  0  0  0  0  0  0  0  0  0  0
   37.4410   28.7680   44.8100 H   0  0  0  0  0  0  0  0  0  0  0  0
   37.4470   29.4540   43.1160 H   0  0  0  0  0  0  0  0  0  0  0  0
   38.9250   28.1040   43.4580 N   0  0  0  0  0  0  0  0  0  0  0  0
   39.4020   26.9360   43.9100 N   0  0  0  0  0  0  0  0  0  0  0  0
   40.6880   26.7910   43.5410 C   0  0  0  0  0  0  0  0  0  0  0  0
   41.0330   27.9490   42.8090 C   0  0  0  0  0  0  0  0  0  0  0  0
   39.8960   28.7280   42.7890 C   0  0  0  0  0  0  0  0  0  0  0  0
   41.0610   25.8420   43.9130 H   0  0  0  0  0  0  0  0  0  0  0  0
   42.0240   27.7850   42.5500 H   0  0  0  0  0  0  0  0  0  0  0  0
   39.9190   29.9930   42.1050 C   0  0  0  0  0  0  0  0  0  0  0  0
   39.9550   31.2480   42.6540 C   0  0  0  0  0  0  0  0  0  0  0  0
   40.0110   32.2380   41.7670 N   0  0  0  0  0  0  0  0  0  0  0  0
   40.0120   31.6760   40.5220 C   0  0  0  0  0  0  0  0  0  0  0  0
   40.0620   32.2130   39.2460 C   0  0  0  0  0  0  0  0  0  0  0  0
   40.0550   31.3710   38.1610 C   0  0  0  0  0  0  0  0  0  0  0  0
   40.0000   30.0050   38.3370 C   0  0  0  0  0  0  0  0  0  0  0  0
   39.9540   29.5570   39.6330 C   0  0  0  0  0  0  0  0  0  0  0  0
   39.9560   30.3050   40.7710 C   0  0  0  0  0  0  0  0  0  0  0  0
   40.0510   33.3000   41.8250 H   0  0  0  0  0  0  0  0  0  0  0  0
  1  9  1  0  0  0  0
  1  2  2  0  0  0  0
  2 10  1  0  0  0  0
  2  3  1  0  0  0  0
  3 24  1  0  0  0  0
  4  5  1  0  0  0  0
  4  3  1  0  0  0  0
  5 11  1  0  0  0  0
  6 12  1  0  0  0  0
  6  5  2  0  0  0  0
  7  6  1  0  0  0  0
  8  7  2  0  0  0  0
  8  9  1  0  0  0  0
  9  4  2  0  0  0  0
 13  7  1  0  0  0  0
 14  8  1  0  0  0  0
 15 20  1  0  0  0  0
 16 17  1  0  0  0  0
 16 15  2  0  0  0  0
 17 18  2  0  0  0  0
 18 19  1  0  0  0  0
 19  1  1  0  0  0  0
 20 19  2  0  0  0  0
 21 15  1  0  0  0  0
 22 16  1  0  0  0  0
 23 17  1  0  0  0  0
 24 27  1  0  0  0  0
 24 25  1  0  0  0  0
 24 26  1  0  0  0  0
 27 28  1  0  0  0  0
 29 27  1  0  0  0  0
 30 27  1  0  0  0  0
 30 31  1  0  0  0  0
 32 31  2  0  0  0  0
 32 35  1  0  0  0  0
 33 32  1  0  0  0  0
 34 33  2  0  0  0  0
 34 30  1  0  0  0  0
 36 33  1  0  0  0  0
 37 38  2  0  0  0  0
 37 34  1  0  0  0  0
 39 46  1  0  0  0  0
 39 38  1  0  0  0  0
 40 45  1  0  0  0  0
 40 39  1  0  0  0  0
 41 40  2  0  0  0  0
 42 43  2  0  0  0  0
 42 41  1  0  0  0  0
 43 44  1  0  0  0  0
 44 45  2  0  0  0  0
 45 37  1  0  0  0  0
M  END
>  <minimizedAffinity>
-6.26098728

>  <minimizedRMSD>
6.04121923

$$$$
