
 OpenBabel03242509283D

 49 54  0  0  0  0  0  0  0  0999 V2000
   38.6890   28.1690   42.7340 C   0  0  0  0  0  0  0  0  0  0  0  0
   37.6100   27.3350   42.8810 C   0  0  0  0  0  0  0  0  0  0  0  0
   36.5270   27.9830   42.2780 C   0  0  0  0  0  0  0  0  0  0  0  0
   37.0360   29.1360   41.8240 N   0  0  0  0  0  0  0  0  0  0  0  0
   38.2930   29.2780   42.0730 N   0  0  0  0  0  0  0  0  0  0  0  0
   37.6160   26.3660   43.3730 H   0  0  0  0  0  0  0  0  0  0  0  0
   35.5540   27.5270   42.2590 H   0  0  0  0  0  0  0  0  0  0  0  0
   41.6430   26.5870   44.3630 C   0  0  0  0  0  0  0  0  0  0  0  0
   40.3240   26.7670   43.9350 C   0  0  0  0  0  0  0  0  0  0  0  0
   40.0360   27.9280   43.2020 C   0  0  0  0  0  0  0  0  0  0  0  0
   41.0230   28.8220   42.9370 N   0  0  0  0  0  0  0  0  0  0  0  0
   42.2960   28.5850   43.3860 C   0  0  0  0  0  0  0  0  0  0  0  0
   42.5930   27.4830   44.0870 N   0  0  0  0  0  0  0  0  0  0  0  0
   41.8530   25.6800   44.9320 H   0  0  0  0  0  0  0  0  0  0  0  0
   39.5260   26.0570   44.1430 H   0  0  0  0  0  0  0  0  0  0  0  0
   43.3290   29.5670   43.0810 C   0  0  0  0  0  0  0  0  0  0  0  0
   43.8530   29.8210   41.8300 C   0  0  0  0  0  3  0  0  0  0  0  0
   44.7840   30.7880   41.9230 N   0  0  0  0  0  0  0  0  0  0  0  0
   44.8650   31.1560   43.2080 C   0  0  0  0  0  0  0  0  0  0  0  0
   45.6660   32.1030   43.8130 C   0  0  0  0  0  3  0  0  0  0  0  0
   45.6070   32.3460   45.1770 C   0  0  0  0  0  3  0  0  0  0  0  0
   44.7010   31.5840   45.8900 C   0  0  0  0  0  3  0  0  0  0  0  0
   43.8760   30.6200   45.3240 C   0  0  0  0  0  3  0  0  0  0  0  0
   43.9650   30.4090   43.9690 C   0  0  0  0  0  0  0  0  0  0  0  0
   45.3530   31.1880   41.1200 H   0  0  0  0  0  0  0  0  0  0  0  0
   36.1780   30.0480   41.1510 C   0  0  0  0  0  0  0  0  0  0  0  0
   36.7750   30.8580   40.6740 H   0  0  0  0  0  0  0  0  0  0  0  0
   35.5770   30.5580   41.9510 H   0  0  0  0  0  0  0  0  0  0  0  0
   35.2970   29.4550   40.0950 C   0  0  0  0  0  0  0  0  0  0  0  0
   34.5630   30.3250   39.9780 H   0  0  0  0  0  0  0  0  0  0  0  0
   34.8470   28.5450   40.4680 H   0  0  0  0  0  0  0  0  0  0  0  0
   35.9090   29.3830   38.7520 C   0  0  0  0  0  0  0  0  0  0  0  0
   37.2300   29.5050   38.4280 C   0  0  0  0  0  0  0  0  0  0  0  0
   37.7510   29.5020   37.1670 C   0  0  0  0  0  0  0  0  0  0  0  0
   36.9040   29.3670   36.0870 C   0  0  0  0  0  0  0  0  0  0  0  0
   35.5450   29.2370   36.3460 C   0  0  0  0  0  0  0  0  0  0  0  0
   34.7600   29.1100   35.2290 C   0  0  0  0  0  0  0  0  0  0  0  0
   33.4060   28.9750   35.3810 C   0  0  0  0  0  0  0  0  0  0  0  0
   32.8600   28.9660   36.6430 C   0  0  0  0  0  0  0  0  0  0  0  0
   33.7050   29.0970   37.7110 C   0  0  0  0  0  0  0  0  0  0  0  0
   35.0510   29.2410   37.6460 C   0  0  0  0  0  0  0  0  0  0  0  0
   37.9080   29.6130   39.2720 H   0  0  0  0  0  0  0  0  0  0  0  0
   38.8020   29.6030   37.0200 H   0  0  0  0  0  0  0  0  0  0  0  0
   37.3240   29.3670   35.0910 H   0  0  0  0  0  0  0  0  0  0  0  0
   35.1450   29.1100   34.2230 H   0  0  0  0  0  0  0  0  0  0  0  0
   32.7440   28.8730   34.5220 H   0  0  0  0  0  0  0  0  0  0  0  0
   31.8020   28.8570   36.7470 H   0  0  0  0  0  0  0  0  0  0  0  0
   33.0990   29.0630   38.9600 O   0  0  0  0  0  0  0  0  0  0  0  0
   32.3950   29.7460   39.2480 H   0  0  0  0  0  0  0  0  0  0  0  0
  1  2  1  0  0  0  0
  1 10  1  0  0  0  0
  2  6  1  0  0  0  0
  3  2  2  0  0  0  0
  4  5  1  0  0  0  0
  4  3  1  0  0  0  0
  5  1  2  0  0  0  0
  7  3  1  0  0  0  0
  8 14  1  0  0  0  0
  9 15  1  0  0  0  0
  9  8  2  0  0  0  0
 10  9  1  0  0  0  0
 11 10  2  0  0  0  0
 11 12  1  0  0  0  0
 12 13  2  0  0  0  0
 13  8  1  0  0  0  0
 16 12  1  0  0  0  0
 16 24  1  0  0  0  0
 17 18  1  0  0  0  0
 17 16  2  0  0  0  0
 18 19  1  0  0  0  0
 19 20  2  0  0  0  0
 19 24  1  0  0  0  0
 20 21  1  0  0  0  0
 21 22  2  0  0  0  0
 23 22  1  0  0  0  0
 24 23  2  0  0  0  0
 25 18  1  0  0  0  0
 26  4  1  0  0  0  0
 26 28  1  0  0  0  0
 27 26  1  0  0  0  0
 29 31  1  0  0  0  0
 29 26  1  0  0  0  0
 30 29  1  0  0  0  0
 32 29  1  0  0  0  0
 33 32  1  0  0  0  0
 33 42  1  0  0  0  0
 34 33  2  0  0  0  0
 35 36  2  0  0  0  0
 35 34  1  0  0  0  0
 36 41  1  0  0  0  0
 37 38  2  0  0  0  0
 37 36  1  0  0  0  0
 38 39  1  0  0  0  0
 39 47  1  0  0  0  0
 39 40  2  0  0  0  0
 40 48  1  0  0  0  0
 41 40  1  0  0  0  0
 41 32  2  0  0  0  0
 43 34  1  0  0  0  0
 44 35  1  0  0  0  0
 45 37  1  0  0  0  0
 46 38  1  0  0  0  0
 48 49  1  0  0  0  0
M  END
>  <minimizedAffinity>
-6.68034124

>  <minimizedRMSD>
0.136712164

$$$$
