
 OpenBabel03242509283D

 49 54  0  0  0  0  0  0  0  0999 V2000
   38.6950   28.1360   42.7430 C   0  0  0  0  0  0  0  0  0  0  0  0
   37.6140   27.2980   42.8260 C   0  0  0  0  0  0  0  0  0  0  0  0
   36.5470   27.9710   42.2220 C   0  0  0  0  0  0  0  0  0  0  0  0
   37.0670   29.1420   41.8320 N   0  0  0  0  0  0  0  0  0  0  0  0
   38.3170   29.2720   42.1190 N   0  0  0  0  0  0  0  0  0  0  0  0
   37.6070   26.3080   43.2770 H   0  0  0  0  0  0  0  0  0  0  0  0
   35.5750   27.5170   42.1590 H   0  0  0  0  0  0  0  0  0  0  0  0
   41.6510   26.4180   44.2240 C   0  0  0  0  0  0  0  0  0  0  0  0
   40.3460   26.6140   43.7610 C   0  0  0  0  0  0  0  0  0  0  0  0
   40.0300   27.8740   43.2350 C   0  0  0  0  0  0  0  0  0  0  0  0
   40.9780   28.8450   43.1920 N   0  0  0  0  0  0  0  0  0  0  0  0
   42.2400   28.5880   43.6630 C   0  0  0  0  0  0  0  0  0  0  0  0
   42.5630   27.3910   44.1690 N   0  0  0  0  0  0  0  0  0  0  0  0
   41.8830   25.4320   44.6310 H   0  0  0  0  0  0  0  0  0  0  0  0
   39.5790   25.8420   43.7920 H   0  0  0  0  0  0  0  0  0  0  0  0
   43.2310   29.6550   43.5990 C   0  0  0  0  0  0  0  0  0  0  0  0
   43.6390   30.3050   42.4540 C   0  0  0  0  0  3  0  0  0  0  0  0
   44.5650   31.2300   42.7700 N   0  0  0  0  0  0  0  0  0  0  0  0
   44.7530   31.1830   44.0940 C   0  0  0  0  0  0  0  0  0  0  0  0
   45.5920   31.9250   44.9010 C   0  0  0  0  0  3  0  0  0  0  0  0
   45.6510   31.7300   46.2720 C   0  0  0  0  0  3  0  0  0  0  0  0
   44.8190   30.7500   46.7800 C   0  0  0  0  0  3  0  0  0  0  0  0
   43.9590   29.9790   46.0090 C   0  0  0  0  0  3  0  0  0  0  0  0
   43.9320   30.2030   44.6530 C   0  0  0  0  0  0  0  0  0  0  0  0
   45.0560   31.8820   42.0900 H   0  0  0  0  0  0  0  0  0  0  0  0
   36.2270   30.0830   41.1750 C   0  0  0  0  0  0  0  0  0  0  0  0
   36.8400   30.8830   40.7020 H   0  0  0  0  0  0  0  0  0  0  0  0
   35.6450   30.5980   41.9850 H   0  0  0  0  0  0  0  0  0  0  0  0
   35.3230   29.5240   40.1200 C   0  0  0  0  0  0  0  0  0  0  0  0
   34.6210   30.4190   40.0050 H   0  0  0  0  0  0  0  0  0  0  0  0
   34.8400   28.6300   40.4920 H   0  0  0  0  0  0  0  0  0  0  0  0
   35.9300   29.4300   38.7760 C   0  0  0  0  0  0  0  0  0  0  0  0
   37.2480   29.5610   38.4430 C   0  0  0  0  0  0  0  0  0  0  0  0
   37.7640   29.5380   37.1810 C   0  0  0  0  0  0  0  0  0  0  0  0
   36.9140   29.3690   36.1080 C   0  0  0  0  0  0  0  0  0  0  0  0
   35.5580   29.2290   36.3750 C   0  0  0  0  0  0  0  0  0  0  0  0
   34.7700   29.0690   35.2650 C   0  0  0  0  0  0  0  0  0  0  0  0
   33.4180   28.9210   35.4250 C   0  0  0  0  0  0  0  0  0  0  0  0
   32.8780   28.9320   36.6900 C   0  0  0  0  0  0  0  0  0  0  0  0
   33.7260   29.0960   37.7510 C   0  0  0  0  0  0  0  0  0  0  0  0
   35.0690   29.2550   37.6770 C   0  0  0  0  0  0  0  0  0  0  0  0
   37.9290   29.6940   39.2820 H   0  0  0  0  0  0  0  0  0  0  0  0
   38.8130   29.6480   37.0270 H   0  0  0  0  0  0  0  0  0  0  0  0
   37.3300   29.3540   35.1100 H   0  0  0  0  0  0  0  0  0  0  0  0
   35.1500   29.0520   34.2570 H   0  0  0  0  0  0  0  0  0  0  0  0
   32.7540   28.7930   34.5720 H   0  0  0  0  0  0  0  0  0  0  0  0
   31.8210   28.8140   36.8010 H   0  0  0  0  0  0  0  0  0  0  0  0
   33.1250   29.0810   39.0030 O   0  0  0  0  0  0  0  0  0  0  0  0
   32.4150   29.7610   39.2800 H   0  0  0  0  0  0  0  0  0  0  0  0
  1  2  1  0  0  0  0
  1 10  1  0  0  0  0
  2  6  1  0  0  0  0
  3  2  2  0  0  0  0
  4  5  1  0  0  0  0
  4  3  1  0  0  0  0
  5  1  2  0  0  0  0
  7  3  1  0  0  0  0
  8 14  1  0  0  0  0
  9 15  1  0  0  0  0
  9  8  2  0  0  0  0
 10  9  1  0  0  0  0
 11 10  2  0  0  0  0
 11 12  1  0  0  0  0
 12 13  2  0  0  0  0
 13  8  1  0  0  0  0
 16 12  1  0  0  0  0
 16 24  1  0  0  0  0
 17 18  1  0  0  0  0
 17 16  2  0  0  0  0
 18 19  1  0  0  0  0
 19 24  2  0  0  0  0
 19 20  1  0  0  0  0
 20 21  2  0  0  0  0
 21 22  1  0  0  0  0
 23 22  2  0  0  0  0
 24 23  1  0  0  0  0
 25 18  1  0  0  0  0
 26  4  1  0  0  0  0
 26 28  1  0  0  0  0
 27 26  1  0  0  0  0
 29 31  1  0  0  0  0
 29 26  1  0  0  0  0
 30 29  1  0  0  0  0
 32 29  1  0  0  0  0
 33 32  1  0  0  0  0
 33 42  1  0  0  0  0
 34 33  2  0  0  0  0
 35 36  2  0  0  0  0
 35 34  1  0  0  0  0
 36 41  1  0  0  0  0
 37 38  2  0  0  0  0
 37 36  1  0  0  0  0
 38 39  1  0  0  0  0
 39 47  1  0  0  0  0
 39 40  2  0  0  0  0
 40 48  1  0  0  0  0
 41 40  1  0  0  0  0
 41 32  2  0  0  0  0
 43 34  1  0  0  0  0
 44 35  1  0  0  0  0
 45 37  1  0  0  0  0
 46 38  1  0  0  0  0
 48 49  1  0  0  0  0
M  END
>  <minimizedAffinity>
-6.73085308

>  <minimizedRMSD>
0.622049391

$$$$
