
 OpenBabel03242509293D

 49 54  0  0  0  0  0  0  0  0999 V2000
   39.0390   27.6380   43.0320 C   0  0  0  0  0  0  0  0  0  0  0  0
   37.8160   27.0280   43.1540 C   0  0  0  0  0  0  0  0  0  0  0  0
   36.8710   27.9450   42.6850 C   0  0  0  0  0  0  0  0  0  0  0  0
   37.5910   29.0160   42.3240 N   0  0  0  0  0  0  0  0  0  0  0  0
   38.8590   28.8710   42.5130 N   0  0  0  0  0  0  0  0  0  0  0  0
   37.6390   26.0280   43.5420 H   0  0  0  0  0  0  0  0  0  0  0  0
   35.8240   27.7010   42.6760 H   0  0  0  0  0  0  0  0  0  0  0  0
   41.8900   25.2700   43.4100 C   0  0  0  0  0  0  0  0  0  0  0  0
   40.6360   25.7590   43.0320 C   0  0  0  0  0  0  0  0  0  0  0  0
   40.3220   27.0770   43.3930 C   0  0  0  0  0  0  0  0  0  0  0  0
   41.2240   27.8220   44.0830 N   0  0  0  0  0  0  0  0  0  0  0  0
   42.4370   27.2810   44.4230 C   0  0  0  0  0  0  0  0  0  0  0  0
   42.7570   26.0250   44.0870 N   0  0  0  0  0  0  0  0  0  0  0  0
   42.1210   24.2430   43.1220 H   0  0  0  0  0  0  0  0  0  0  0  0
   39.9070   25.1700   42.4800 H   0  0  0  0  0  0  0  0  0  0  0  0
   43.3800   28.1120   45.1630 C   0  0  0  0  0  0  0  0  0  0  0  0
   44.3010   28.9730   44.6050 C   0  0  0  0  0  0  0  0  0  0  0  0
   45.0020   29.5740   45.5850 N   0  0  0  0  0  0  0  0  0  0  0  0
   44.5430   29.1140   46.7560 C   0  0  0  0  0  0  0  0  0  0  0  0
   44.9320   29.4190   48.0450 C   0  0  0  0  0  0  0  0  0  0  0  0
   44.3310   28.8310   49.1470 C   0  0  0  0  0  0  0  0  0  0  0  0
   43.3250   27.9240   48.8780 C   0  0  0  0  0  0  0  0  0  0  0  0
   42.9010   27.5850   47.5990 C   0  0  0  0  0  0  0  0  0  0  0  0
   43.5220   28.1900   46.5320 C   0  0  0  0  0  0  0  0  0  0  0  0
   45.7780   30.2860   45.4530 H   0  0  0  0  0  0  0  0  0  0  0  0
   36.9180   30.1530   41.7990 C   0  0  0  0  0  0  0  0  0  0  0  0
   37.6530   30.8710   41.3710 H   0  0  0  0  0  0  0  0  0  0  0  0
   36.4690   30.6820   42.6820 H   0  0  0  0  0  0  0  0  0  0  0  0
   35.8920   29.8730   40.7450 C   0  0  0  0  0  0  0  0  0  0  0  0
   35.4030   30.9060   40.7050 H   0  0  0  0  0  0  0  0  0  0  0  0
   35.2320   29.0850   41.0820 H   0  0  0  0  0  0  0  0  0  0  0  0
   36.4360   29.7340   39.3780 C   0  0  0  0  0  0  0  0  0  0  0  0
   37.7220   29.9400   38.9650 C   0  0  0  0  0  0  0  0  0  0  0  0
   38.1740   29.8700   37.6800 C   0  0  0  0  0  0  0  0  0  0  0  0
   37.2870   29.5650   36.6690 C   0  0  0  0  0  0  0  0  0  0  0  0
   35.9610   29.3410   37.0190 C   0  0  0  0  0  0  0  0  0  0  0  0
   35.1340   29.0470   35.9670 C   0  0  0  0  0  0  0  0  0  0  0  0
   33.8080   28.8090   36.2110 C   0  0  0  0  0  0  0  0  0  0  0  0
   33.3320   28.8650   37.5010 C   0  0  0  0  0  0  0  0  0  0  0  0
   34.2160   29.1650   38.5010 C   0  0  0  0  0  0  0  0  0  0  0  0
   35.5380   29.4190   38.3420 C   0  0  0  0  0  0  0  0  0  0  0  0
   38.4310   30.1820   39.7550 H   0  0  0  0  0  0  0  0  0  0  0  0
   39.2010   30.0480   37.4620 H   0  0  0  0  0  0  0  0  0  0  0  0
   37.6520   29.5130   35.6520 H   0  0  0  0  0  0  0  0  0  0  0  0
   35.4630   28.9890   34.9430 H   0  0  0  0  0  0  0  0  0  0  0  0
   33.1140   28.5720   35.4060 H   0  0  0  0  0  0  0  0  0  0  0  0
   32.2950   28.6750   37.6770 H   0  0  0  0  0  0  0  0  0  0  0  0
   33.6820   29.1900   39.7820 O   0  0  0  0  0  0  0  0  0  0  0  0
   32.9350   29.8320   40.0530 H   0  0  0  0  0  0  0  0  0  0  0  0
  1  2  1  0  0  0  0
  1 10  1  0  0  0  0
  2  6  1  0  0  0  0
  3  2  2  0  0  0  0
  4  5  1  0  0  0  0
  4  3  1  0  0  0  0
  5  1  2  0  0  0  0
  7  3  1  0  0  0  0
  8 13  1  0  0  0  0
  9 10  1  0  0  0  0
  9  8  2  0  0  0  0
 10 11  2  0  0  0  0
 11 12  1  0  0  0  0
 12 16  1  0  0  0  0
 13 12  2  0  0  0  0
 14  8  1  0  0  0  0
 15  9  1  0  0  0  0
 16 24  1  0  0  0  0
 17 16  2  0  0  0  0
 17 18  1  0  0  0  0
 18 19  1  0  0  0  0
 19 20  1  0  0  0  0
 20 21  2  0  0  0  0
 22 21  1  0  0  0  0
 23 22  2  0  0  0  0
 24 19  2  0  0  0  0
 24 23  1  0  0  0  0
 25 18  1  0  0  0  0
 26  4  1  0  0  0  0
 26 28  1  0  0  0  0
 27 26  1  0  0  0  0
 29 31  1  0  0  0  0
 29 26  1  0  0  0  0
 30 29  1  0  0  0  0
 32 29  1  0  0  0  0
 33 32  1  0  0  0  0
 33 42  1  0  0  0  0
 34 33  2  0  0  0  0
 35 36  2  0  0  0  0
 35 34  1  0  0  0  0
 36 41  1  0  0  0  0
 37 38  2  0  0  0  0
 37 36  1  0  0  0  0
 38 39  1  0  0  0  0
 39 47  1  0  0  0  0
 39 40  2  0  0  0  0
 40 48  1  0  0  0  0
 41 40  1  0  0  0  0
 41 32  2  0  0  0  0
 43 34  1  0  0  0  0
 44 35  1  0  0  0  0
 45 37  1  0  0  0  0
 46 38  1  0  0  0  0
 48 49  1  0  0  0  0
M  END
>  <minimizedAffinity>
-7.52319765

>  <minimizedRMSD>
2.53683543

$$$$
