
 OpenBabel03242509283D

 49 54  0  0  0  0  0  0  0  0999 V2000
   38.6590   28.1560   42.6970 C   0  0  0  0  0  0  0  0  0  0  0  0
   37.5980   27.2900   42.7680 C   0  0  0  0  0  0  0  0  0  0  0  0
   36.5200   27.9380   42.1570 C   0  0  0  0  0  0  0  0  0  0  0  0
   37.0140   29.1230   41.7750 N   0  0  0  0  0  0  0  0  0  0  0  0
   38.2580   29.2840   42.0740 N   0  0  0  0  0  0  0  0  0  0  0  0
   37.6130   26.2990   43.2150 H   0  0  0  0  0  0  0  0  0  0  0  0
   35.5610   27.4600   42.0830 H   0  0  0  0  0  0  0  0  0  0  0  0
   41.6200   26.5350   44.2750 C   0  0  0  0  0  0  0  0  0  0  0  0
   40.3140   26.7000   43.8040 C   0  0  0  0  0  0  0  0  0  0  0  0
   39.9950   27.9260   43.2010 C   0  0  0  0  0  0  0  0  0  0  0  0
   40.9430   28.8930   43.0950 N   0  0  0  0  0  0  0  0  0  0  0  0
   42.2060   28.6660   43.5770 C   0  0  0  0  0  0  0  0  0  0  0  0
   42.5310   27.5030   44.1560 N   0  0  0  0  0  0  0  0  0  0  0  0
   41.8540   25.5760   44.7410 H   0  0  0  0  0  0  0  0  0  0  0  0
   39.5480   25.9320   43.8850 H   0  0  0  0  0  0  0  0  0  0  0  0
   43.1960   29.7280   43.4440 C   0  0  0  0  0  0  0  0  0  0  0  0
   43.0350   31.0320   43.8620 C   0  0  0  0  0  3  0  0  0  0  0  0
   44.1500   31.7320   43.5800 N   0  0  0  0  0  0  0  0  0  0  0  0
   45.0180   30.8990   42.9910 C   0  0  0  0  0  0  0  0  0  0  0  0
   46.2930   31.1330   42.5150 C   0  0  0  0  0  3  0  0  0  0  0  0
   47.0480   30.1300   41.9270 C   0  0  0  0  0  3  0  0  0  0  0  0
   46.4500   28.8880   41.8470 C   0  0  0  0  0  3  0  0  0  0  0  0
   45.1700   28.6060   42.3100 C   0  0  0  0  0  3  0  0  0  0  0  0
   44.4530   29.6270   42.8870 C   0  0  0  0  0  0  0  0  0  0  0  0
   44.3130   32.7610   43.7870 H   0  0  0  0  0  0  0  0  0  0  0  0
   36.1560   30.0440   41.1130 C   0  0  0  0  0  0  0  0  0  0  0  0
   36.7540   30.8570   40.6420 H   0  0  0  0  0  0  0  0  0  0  0  0
   35.5600   30.5480   41.9210 H   0  0  0  0  0  0  0  0  0  0  0  0
   35.2700   29.4640   40.0560 C   0  0  0  0  0  0  0  0  0  0  0  0
   34.5460   30.3420   39.9400 H   0  0  0  0  0  0  0  0  0  0  0  0
   34.8090   28.5590   40.4250 H   0  0  0  0  0  0  0  0  0  0  0  0
   35.8820   29.3890   38.7120 C   0  0  0  0  0  0  0  0  0  0  0  0
   37.2030   29.5110   38.3880 C   0  0  0  0  0  0  0  0  0  0  0  0
   37.7250   29.5050   37.1280 C   0  0  0  0  0  0  0  0  0  0  0  0
   36.8780   29.3650   36.0480 C   0  0  0  0  0  0  0  0  0  0  0  0
   35.5200   29.2340   36.3070 C   0  0  0  0  0  0  0  0  0  0  0  0
   34.7350   29.1020   35.1900 C   0  0  0  0  0  0  0  0  0  0  0  0
   33.3810   28.9650   35.3420 C   0  0  0  0  0  0  0  0  0  0  0  0
   32.8350   28.9590   36.6040 C   0  0  0  0  0  0  0  0  0  0  0  0
   33.6790   29.0960   37.6720 C   0  0  0  0  0  0  0  0  0  0  0  0
   35.0250   29.2420   37.6060 C   0  0  0  0  0  0  0  0  0  0  0  0
   37.8810   29.6230   39.2330 H   0  0  0  0  0  0  0  0  0  0  0  0
   38.7750   29.6070   36.9810 H   0  0  0  0  0  0  0  0  0  0  0  0
   37.2990   29.3620   35.0520 H   0  0  0  0  0  0  0  0  0  0  0  0
   35.1200   29.0990   34.1840 H   0  0  0  0  0  0  0  0  0  0  0  0
   32.7200   28.8590   34.4840 H   0  0  0  0  0  0  0  0  0  0  0  0
   31.7770   28.8500   36.7080 H   0  0  0  0  0  0  0  0  0  0  0  0
   33.0720   29.0650   38.9210 O   0  0  0  0  0  0  0  0  0  0  0  0
   32.3680   29.7470   39.2060 H   0  0  0  0  0  0  0  0  0  0  0  0
  1  2  1  0  0  0  0
  1 10  1  0  0  0  0
  2  6  1  0  0  0  0
  3  2  2  0  0  0  0
  4  5  1  0  0  0  0
  4  3  1  0  0  0  0
  5  1  2  0  0  0  0
  7  3  1  0  0  0  0
  8 14  1  0  0  0  0
  9 15  1  0  0  0  0
  9  8  2  0  0  0  0
 10  9  1  0  0  0  0
 11 10  2  0  0  0  0
 11 12  1  0  0  0  0
 12 13  2  0  0  0  0
 13  8  1  0  0  0  0
 16 12  1  0  0  0  0
 16 17  2  0  0  0  0
 18 25  1  0  0  0  0
 18 17  1  0  0  0  0
 19 18  1  0  0  0  0
 20 19  2  0  0  0  0
 21 20  1  0  0  0  0
 22 21  2  0  0  0  0
 22 23  1  0  0  0  0
 23 24  2  0  0  0  0
 24 19  1  0  0  0  0
 24 16  1  0  0  0  0
 26  4  1  0  0  0  0
 26 28  1  0  0  0  0
 27 26  1  0  0  0  0
 29 31  1  0  0  0  0
 29 26  1  0  0  0  0
 30 29  1  0  0  0  0
 32 29  1  0  0  0  0
 33 32  1  0  0  0  0
 33 42  1  0  0  0  0
 34 33  2  0  0  0  0
 35 36  2  0  0  0  0
 35 34  1  0  0  0  0
 36 41  1  0  0  0  0
 37 38  2  0  0  0  0
 37 36  1  0  0  0  0
 38 39  1  0  0  0  0
 39 47  1  0  0  0  0
 39 40  2  0  0  0  0
 40 48  1  0  0  0  0
 41 40  1  0  0  0  0
 41 32  2  0  0  0  0
 43 34  1  0  0  0  0
 44 35  1  0  0  0  0
 45 37  1  0  0  0  0
 46 38  1  0  0  0  0
 48 49  1  0  0  0  0
M  END
>  <minimizedAffinity>
-6.10686445

>  <minimizedRMSD>
0.436989993

$$$$
