
 OpenBabel03242504393D

 41 44  0  0  1  0  0  0  0  0999 V2000
   37.1100   25.9000   41.7970 C   0  0  2  0  0  0  0  0  0  0  0  0
   37.1560   24.4240   42.1750 C   0  0  0  0  0  0  0  0  0  0  0  0
   37.4020   23.6630   40.8880 C   0  0  0  0  0  0  0  0  0  0  0  0
   37.4660   24.7240   39.8160 C   0  0  0  0  0  0  0  0  0  0  0  0
   37.9430   25.9480   40.5920 C   0  0  1  0  0  0  0  0  0  0  0  0
   36.0780   26.2020   41.7650 H   0  0  0  0  0  0  0  0  0  0  0  0
   38.0530   24.3360   42.8330 H   0  0  0  0  0  0  0  0  0  0  0  0
   36.2750   24.0760   42.7120 H   0  0  0  0  0  0  0  0  0  0  0  0
   36.5070   23.0410   40.6970 H   0  0  0  0  0  0  0  0  0  0  0  0
   38.3510   23.0970   40.9110 H   0  0  0  0  0  0  0  0  0  0  0  0
   36.4800   24.8760   39.3520 H   0  0  0  0  0  0  0  0  0  0  0  0
   38.2510   24.5230   39.0600 H   0  0  0  0  0  0  0  0  0  0  0  0
   38.9690   25.5970   40.9490 H   0  0  0  0  0  0  0  0  0  0  0  0
   38.0770   27.0640   39.7110 C   0  0  0  0  0  0  0  0  0  0  0  0
   39.3230   27.6200   39.3560 C   0  0  0  0  0  0  0  0  0  0  0  0
   39.1290   28.6420   38.5250 N   0  0  0  0  0  0  0  0  0  0  0  0
   37.8350   28.8660   38.2520 C   0  0  0  0  0  0  0  0  0  0  0  0
   37.0880   29.7260   37.5030 C   0  0  0  0  0  0  0  0  0  0  0  0
   35.7110   29.6270   37.4730 C   0  0  0  0  0  0  0  0  0  0  0  0
   35.0420   28.6480   38.2060 C   0  0  0  0  0  0  0  0  0  0  0  0
   35.8240   27.8030   38.9470 C   0  0  0  0  0  0  0  0  0  0  0  0
   37.2230   27.8800   38.9970 C   0  0  0  0  0  0  0  0  0  0  0  0
   39.9250   29.2210   38.1190 H   0  0  0  0  0  0  0  0  0  0  0  0
   37.7960   26.7430   42.8720 C   0  0  0  0  0  0  0  0  0  0  0  0
   37.9290   26.0830   43.7530 H   0  0  0  0  0  0  0  0  0  0  0  0
   38.7440   27.0910   42.4680 H   0  0  0  0  0  0  0  0  0  0  0  0
   36.8210   27.8730   43.2160 C   0  0  2  0  0  0  0  0  0  0  0  0
   35.8040   27.6730   42.8950 H   0  0  0  0  0  0  0  0  0  0  0  0
   39.0390   30.6070   41.7950 C   0  0  0  0  0  0  0  0  0  0  0  0
   38.6720   29.4520   42.5220 C   0  0  0  0  0  0  0  0  0  0  0  0
   37.2930   29.0660   42.5010 C   0  0  0  0  0  0  0  0  0  0  0  0
   36.4350   29.8680   41.7640 N   0  0  0  0  0  0  0  0  0  0  0  0
   36.8090   30.9420   41.0950 C   0  0  0  0  0  0  0  0  0  0  0  0
   38.1180   31.3210   41.1050 N   0  0  0  0  0  0  0  0  0  0  0  0
   40.0910   30.8470   41.8490 H   0  0  0  0  0  0  0  0  0  0  0  0
   39.3350   28.8430   43.0840 H   0  0  0  0  0  0  0  0  0  0  0  0
   36.1050   31.5320   40.5360 H   0  0  0  0  0  0  0  0  0  0  0  0
   36.8010   28.1020   44.7160 C   0  0  0  0  0  0  0  0  0  0  0  0
   37.7030   28.5960   45.0900 H   0  0  0  0  0  0  0  0  0  0  0  0
   36.5900   27.1230   45.1680 H   0  0  0  0  0  0  0  0  0  0  0  0
   35.9070   28.7440   44.9150 H   0  0  0  0  0  0  0  0  0  0  0  0
  1  6  1  6  0  0  0
  1  2  1  0  0  0  0
  1 24  1  0  0  0  0
  2  8  1  0  0  0  0
  2  7  1  0  0  0  0
  3 10  1  0  0  0  0
  3  2  1  0  0  0  0
  4  5  1  0  0  0  0
  4  3  1  0  0  0  0
  5 13  1  1  0  0  0
  5  1  1  0  0  0  0
  9  3  1  0  0  0  0
 11  4  1  0  0  0  0
 12  4  1  0  0  0  0
 14  5  1  0  0  0  0
 15 14  2  0  0  0  0
 16 15  1  0  0  0  0
 17 16  1  0  0  0  0
 17 22  1  0  0  0  0
 18 17  2  0  0  0  0
 19 18  1  0  0  0  0
 19 20  2  0  0  0  0
 20 21  1  0  0  0  0
 21 22  2  0  0  0  0
 22 14  1  0  0  0  0
 23 16  1  0  0  0  0
 24 27  1  0  0  0  0
 24 25  1  0  0  0  0
 26 24  1  0  0  0  0
 27 28  1  6  0  0  0
 27 38  1  0  0  0  0
 29 35  1  0  0  0  0
 29 30  1  0  0  0  0
 30 36  1  0  0  0  0
 31 30  2  0  0  0  0
 31 27  1  0  0  0  0
 32 31  1  0  0  0  0
 33 34  1  0  0  0  0
 33 32  2  0  0  0  0
 34 29  2  0  0  0  0
 37 33  1  0  0  0  0
 38 41  1  0  0  0  0
 38 39  1  0  0  0  0
 38 40  1  0  0  0  0
M  END
>  <minimizedAffinity>
-5.80093193

>  <minimizedRMSD>
1.85915995

$$$$
