
 OpenBabel03242509283D

 49 54  0  0  0  0  0  0  0  0999 V2000
   38.5770   28.1700   42.6780 C   0  0  0  0  0  0  0  0  0  0  0  0
   37.5000   27.3260   42.7750 C   0  0  0  0  0  0  0  0  0  0  0  0
   36.4320   27.9780   42.1520 C   0  0  0  0  0  0  0  0  0  0  0  0
   36.9450   29.1440   41.7370 N   0  0  0  0  0  0  0  0  0  0  0  0
   38.1940   29.2880   42.0270 N   0  0  0  0  0  0  0  0  0  0  0  0
   37.4990   26.3470   43.2480 H   0  0  0  0  0  0  0  0  0  0  0  0
   35.4630   27.5160   42.0960 H   0  0  0  0  0  0  0  0  0  0  0  0
   41.5060   26.5500   44.3150 C   0  0  0  0  0  0  0  0  0  0  0  0
   40.2000   26.7290   43.8480 C   0  0  0  0  0  0  0  0  0  0  0  0
   39.9110   27.9280   43.1810 C   0  0  0  0  0  0  0  0  0  0  0  0
   40.8850   28.8590   43.0130 N   0  0  0  0  0  0  0  0  0  0  0  0
   42.1460   28.6210   43.4960 C   0  0  0  0  0  0  0  0  0  0  0  0
   42.4430   27.4820   44.1350 N   0  0  0  0  0  0  0  0  0  0  0  0
   41.7160   25.6120   44.8320 H   0  0  0  0  0  0  0  0  0  0  0  0
   39.4130   25.9890   43.9790 H   0  0  0  0  0  0  0  0  0  0  0  0
   43.1660   29.6440   43.2950 C   0  0  0  0  0  0  0  0  0  0  0  0
   43.1950   30.8790   43.9070 C   0  0  0  0  0  3  0  0  0  0  0  0
   44.2780   31.5600   43.4880 N   0  0  0  0  0  0  0  0  0  0  0  0
   44.9380   30.7830   42.6200 C   0  0  0  0  0  0  0  0  0  0  0  0
   46.1020   31.0240   41.9180 C   0  0  0  0  0  3  0  0  0  0  0  0
   46.6420   30.0850   41.0530 C   0  0  0  0  0  3  0  0  0  0  0  0
   45.9450   28.8970   40.9380 C   0  0  0  0  0  3  0  0  0  0  0  0
   44.7720   28.6090   41.6250 C   0  0  0  0  0  3  0  0  0  0  0  0
   44.2700   29.5670   42.4720 C   0  0  0  0  0  0  0  0  0  0  0  0
   44.5580   32.5390   43.7900 H   0  0  0  0  0  0  0  0  0  0  0  0
   36.1020   30.0630   41.0560 C   0  0  0  0  0  0  0  0  0  0  0  0
   36.7110   30.8640   40.5790 H   0  0  0  0  0  0  0  0  0  0  0  0
   35.5030   30.5830   41.8510 H   0  0  0  0  0  0  0  0  0  0  0  0
   35.2190   29.4770   39.9990 C   0  0  0  0  0  0  0  0  0  0  0  0
   34.4920   30.3520   39.8790 H   0  0  0  0  0  0  0  0  0  0  0  0
   34.7610   28.5710   40.3700 H   0  0  0  0  0  0  0  0  0  0  0  0
   35.8330   29.3990   38.6570 C   0  0  0  0  0  0  0  0  0  0  0  0
   37.1550   29.5270   38.3340 C   0  0  0  0  0  0  0  0  0  0  0  0
   37.6780   29.5190   37.0750 C   0  0  0  0  0  0  0  0  0  0  0  0
   36.8340   29.3710   35.9940 C   0  0  0  0  0  0  0  0  0  0  0  0
   35.4760   29.2340   36.2510 C   0  0  0  0  0  0  0  0  0  0  0  0
   34.6930   29.0940   35.1340 C   0  0  0  0  0  0  0  0  0  0  0  0
   33.3400   28.9510   35.2840 C   0  0  0  0  0  0  0  0  0  0  0  0
   32.7920   28.9470   36.5460 C   0  0  0  0  0  0  0  0  0  0  0  0
   33.6340   29.0920   37.6140 C   0  0  0  0  0  0  0  0  0  0  0  0
   34.9790   29.2440   37.5500 C   0  0  0  0  0  0  0  0  0  0  0  0
   37.8300   29.6460   39.1790 H   0  0  0  0  0  0  0  0  0  0  0  0
   38.7280   29.6260   36.9290 H   0  0  0  0  0  0  0  0  0  0  0  0
   37.2560   29.3670   34.9990 H   0  0  0  0  0  0  0  0  0  0  0  0
   35.0800   29.0890   34.1280 H   0  0  0  0  0  0  0  0  0  0  0  0
   32.6810   28.8380   34.4250 H   0  0  0  0  0  0  0  0  0  0  0  0
   31.7340   28.8330   36.6480 H   0  0  0  0  0  0  0  0  0  0  0  0
   33.0250   29.0620   38.8620 O   0  0  0  0  0  0  0  0  0  0  0  0
   32.3170   29.7420   39.1440 H   0  0  0  0  0  0  0  0  0  0  0  0
  1  2  1  0  0  0  0
  1 10  1  0  0  0  0
  2  6  1  0  0  0  0
  3  2  2  0  0  0  0
  4  5  1  0  0  0  0
  4  3  1  0  0  0  0
  5  1  2  0  0  0  0
  7  3  1  0  0  0  0
  8 14  1  0  0  0  0
  9 15  1  0  0  0  0
  9  8  2  0  0  0  0
 10  9  1  0  0  0  0
 11 10  2  0  0  0  0
 11 12  1  0  0  0  0
 12 13  2  0  0  0  0
 13  8  1  0  0  0  0
 16 12  1  0  0  0  0
 16 17  2  0  0  0  0
 18 25  1  0  0  0  0
 18 17  1  0  0  0  0
 19 18  1  0  0  0  0
 20 19  2  0  0  0  0
 21 20  1  0  0  0  0
 22 21  2  0  0  0  0
 22 23  1  0  0  0  0
 23 24  2  0  0  0  0
 24 19  1  0  0  0  0
 24 16  1  0  0  0  0
 26  4  1  0  0  0  0
 26 28  1  0  0  0  0
 27 26  1  0  0  0  0
 29 31  1  0  0  0  0
 29 26  1  0  0  0  0
 30 29  1  0  0  0  0
 32 29  1  0  0  0  0
 33 32  1  0  0  0  0
 33 42  1  0  0  0  0
 34 33  2  0  0  0  0
 35 36  2  0  0  0  0
 35 34  1  0  0  0  0
 36 41  1  0  0  0  0
 37 38  2  0  0  0  0
 37 36  1  0  0  0  0
 38 39  1  0  0  0  0
 39 47  1  0  0  0  0
 39 40  2  0  0  0  0
 40 48  1  0  0  0  0
 41 40  1  0  0  0  0
 41 32  2  0  0  0  0
 43 34  1  0  0  0  0
 44 35  1  0  0  0  0
 45 37  1  0  0  0  0
 46 38  1  0  0  0  0
 48 49  1  0  0  0  0
M  END
>  <minimizedAffinity>
-6.09282446

>  <minimizedRMSD>
0.348004162

$$$$
