
 OpenBabel03242506173D

 30 34  0  0  0  0  0  0  0  0999 V2000
   37.2970   29.0730   41.6380 C   0  0  0  0  0  0  0  0  0  0  0  0
   38.5490   29.6650   41.2560 C   0  0  0  0  0  0  0  0  0  0  0  0
   38.5640   30.8460   40.5740 C   0  0  0  0  0  0  0  0  0  0  0  0
   37.3400   31.4170   40.2810 N   0  0  0  0  0  0  0  0  0  0  0  0
   36.1610   30.8390   40.6510 C   0  0  0  0  0  0  0  0  0  0  0  0
   36.1340   29.6710   41.3280 N   0  0  0  0  0  0  0  0  0  0  0  0
   37.3010   28.1450   42.1750 H   0  0  0  0  0  0  0  0  0  0  0  0
   35.2730   31.3810   40.3640 H   0  0  0  0  0  0  0  0  0  0  0  0
   39.7360   28.9100   41.6150 C   0  0  0  0  0  0  0  0  0  0  0  0
   40.2080   27.9000   40.7100 C   0  0  0  0  0  0  0  0  0  0  0  0
   41.7020   27.2040   41.5500 S   0  0  0  0  0  0  0  0  0  0  0  0
   41.4010   28.4430   43.0080 C   0  0  0  0  0  0  0  0  0  0  0  0
   40.4850   29.0070   42.6980 N   0  0  0  0  0  0  0  0  0  0  0  0
   39.7900   27.6150   39.7630 H   0  0  0  0  0  0  0  0  0  0  0  0
   41.9610   28.6560   44.0250 H   0  0  0  0  0  0  0  0  0  0  0  0
   39.7430   31.5780   40.1590 C   0  0  0  0  0  0  0  0  0  0  0  0
   40.7040   31.5900   39.2670 N   0  0  0  0  0  0  0  0  0  0  0  0
   41.5140   32.5670   39.4390 O   0  0  0  0  0  0  0  0  0  0  0  0
   41.1790   33.2910   40.4460 C   0  0  0  0  0  0  0  0  0  0  0  0
   40.0970   32.6680   40.8670 N   0  0  0  0  0  0  0  0  0  0  0  0
   41.7540   34.4930   41.0520 C   0  0  0  0  0  0  0  0  0  0  0  0
   41.3170   35.7970   40.9090 C   0  0  0  0  0  0  0  0  0  0  0  0
   42.1430   36.5700   41.6430 N   0  0  0  0  0  0  0  0  0  0  0  0
   43.0700   35.7880   42.2280 C   0  0  0  0  0  0  0  0  0  0  0  0
   44.1220   36.1600   43.0730 C   0  0  0  0  0  0  0  0  0  0  0  0
   44.9770   35.1940   43.5760 C   0  0  0  0  0  0  0  0  0  0  0  0
   44.7560   33.8680   43.2200 C   0  0  0  0  0  0  0  0  0  0  0  0
   43.7040   33.4940   42.3750 C   0  0  0  0  0  0  0  0  0  0  0  0
   42.8760   34.4610   41.8910 C   0  0  0  0  0  0  0  0  0  0  0  0
   42.0840   37.6250   41.7500 H   0  0  0  0  0  0  0  0  0  0  0  0
  1  7  1  0  0  0  0
  2  9  1  0  0  0  0
  2  1  2  0  0  0  0
  3  2  1  0  0  0  0
  4  3  2  0  0  0  0
  4  5  1  0  0  0  0
  5  6  2  0  0  0  0
  6  1  1  0  0  0  0
  8  5  1  0  0  0  0
  9 13  1  0  0  0  0
 10 11  1  0  0  0  0
 10  9  2  0  0  0  0
 11 12  1  0  0  0  0
 12 15  1  0  0  0  0
 13 12  2  0  0  0  0
 14 10  1  0  0  0  0
 16  3  1  0  0  0  0
 16 20  1  0  0  0  0
 17 18  1  0  0  0  0
 17 16  2  0  0  0  0
 18 19  1  0  0  0  0
 19 20  2  0  0  0  0
 19 21  1  0  0  0  0
 21 29  1  0  0  0  0
 22 21  2  0  0  0  0
 22 23  1  0  0  0  0
 23 30  1  0  0  0  0
 23 24  1  0  0  0  0
 24 25  1  0  0  0  0
 25 26  2  0  0  0  0
 27 26  1  0  0  0  0
 28 27  2  0  0  0  0
 29 24  2  0  0  0  0
 29 28  1  0  0  0  0
M  END
>  <minimizedAffinity>
-5.62269878

>  <minimizedRMSD>
3.4385221

$$$$
