
 OpenBabel03242509293D

 49 54  0  0  0  0  0  0  0  0999 V2000
   38.4350   28.1200   42.6100 C   0  0  0  0  0  0  0  0  0  0  0  0
   37.3560   27.2790   42.7110 C   0  0  0  0  0  0  0  0  0  0  0  0
   36.2950   27.9230   42.0670 C   0  0  0  0  0  0  0  0  0  0  0  0
   36.8140   29.0810   41.6390 N   0  0  0  0  0  0  0  0  0  0  0  0
   38.0600   29.2280   41.9390 N   0  0  0  0  0  0  0  0  0  0  0  0
   37.3480   26.3070   43.1990 H   0  0  0  0  0  0  0  0  0  0  0  0
   35.3260   27.4610   42.0080 H   0  0  0  0  0  0  0  0  0  0  0  0
   41.3560   26.5030   44.2650 C   0  0  0  0  0  0  0  0  0  0  0  0
   40.0560   26.6760   43.7800 C   0  0  0  0  0  0  0  0  0  0  0  0
   39.7640   27.8840   43.1310 C   0  0  0  0  0  0  0  0  0  0  0  0
   40.7290   28.8290   42.9950 N   0  0  0  0  0  0  0  0  0  0  0  0
   41.9850   28.5970   43.4940 C   0  0  0  0  0  0  0  0  0  0  0  0
   42.2860   27.4500   44.1160 N   0  0  0  0  0  0  0  0  0  0  0  0
   41.5700   25.5580   44.7670 H   0  0  0  0  0  0  0  0  0  0  0  0
   39.2760   25.9240   43.8840 H   0  0  0  0  0  0  0  0  0  0  0  0
   42.9960   29.6350   43.3280 C   0  0  0  0  0  0  0  0  0  0  0  0
   43.6910   30.2480   44.3500 C   0  0  0  0  0  3  0  0  0  0  0  0
   44.5400   31.1540   43.8320 N   0  0  0  0  0  0  0  0  0  0  0  0
   44.4000   31.1300   42.5000 C   0  0  0  0  0  0  0  0  0  0  0  0
   45.0420   31.8670   41.5240 C   0  0  0  0  0  3  0  0  0  0  0  0
   44.7590   31.7000   40.1770 C   0  0  0  0  0  3  0  0  0  0  0  0
   43.7980   30.7540   39.8730 C   0  0  0  0  0  3  0  0  0  0  0  0
   43.1260   29.9900   40.8200 C   0  0  0  0  0  3  0  0  0  0  0  0
   43.4360   30.1850   42.1440 C   0  0  0  0  0  0  0  0  0  0  0  0
   45.2030   31.7760   44.3790 H   0  0  0  0  0  0  0  0  0  0  0  0
   35.9790   29.9910   40.9350 C   0  0  0  0  0  0  0  0  0  0  0  0
   36.5920   30.7970   40.4720 H   0  0  0  0  0  0  0  0  0  0  0  0
   35.3560   30.5070   41.7140 H   0  0  0  0  0  0  0  0  0  0  0  0
   35.1280   29.3940   39.8580 C   0  0  0  0  0  0  0  0  0  0  0  0
   34.3740   30.2470   39.7440 H   0  0  0  0  0  0  0  0  0  0  0  0
   34.6960   28.4670   40.2090 H   0  0  0  0  0  0  0  0  0  0  0  0
   35.7600   29.3590   38.5220 C   0  0  0  0  0  0  0  0  0  0  0  0
   37.0860   29.4950   38.2220 C   0  0  0  0  0  0  0  0  0  0  0  0
   37.6260   29.5270   36.9700 C   0  0  0  0  0  0  0  0  0  0  0  0
   36.7960   29.4160   35.8740 C   0  0  0  0  0  0  0  0  0  0  0  0
   35.4340   29.2730   36.1080 C   0  0  0  0  0  0  0  0  0  0  0  0
   34.6670   29.1710   34.9770 C   0  0  0  0  0  0  0  0  0  0  0  0
   33.3110   29.0270   35.1040 C   0  0  0  0  0  0  0  0  0  0  0  0
   32.7470   28.9820   36.3570 C   0  0  0  0  0  0  0  0  0  0  0  0
   33.5740   29.0900   37.4410 C   0  0  0  0  0  0  0  0  0  0  0  0
   34.9200   29.2420   37.4000 C   0  0  0  0  0  0  0  0  0  0  0  0
   37.7510   29.5840   39.0790 H   0  0  0  0  0  0  0  0  0  0  0  0
   38.6780   29.6370   36.8410 H   0  0  0  0  0  0  0  0  0  0  0  0
   37.2310   29.4440   34.8840 H   0  0  0  0  0  0  0  0  0  0  0  0
   35.0670   29.1990   33.9760 H   0  0  0  0  0  0  0  0  0  0  0  0
   32.6630   28.9440   34.2330 H   0  0  0  0  0  0  0  0  0  0  0  0
   31.6870   28.8670   36.4420 H   0  0  0  0  0  0  0  0  0  0  0  0
   32.9490   29.0210   38.6790 O   0  0  0  0  0  0  0  0  0  0  0  0
   32.2380   29.6930   38.9740 H   0  0  0  0  0  0  0  0  0  0  0  0
  1  2  1  0  0  0  0
  1 10  1  0  0  0  0
  2  6  1  0  0  0  0
  3  2  2  0  0  0  0
  4  5  1  0  0  0  0
  4  3  1  0  0  0  0
  5  1  2  0  0  0  0
  7  3  1  0  0  0  0
  8 14  1  0  0  0  0
  9 15  1  0  0  0  0
  9  8  2  0  0  0  0
 10  9  1  0  0  0  0
 11 10  2  0  0  0  0
 11 12  1  0  0  0  0
 12 13  2  0  0  0  0
 13  8  1  0  0  0  0
 16 12  1  0  0  0  0
 16 17  2  0  0  0  0
 18 17  1  0  0  0  0
 18 25  1  0  0  0  0
 19 18  1  0  0  0  0
 20 19  2  0  0  0  0
 21 20  1  0  0  0  0
 22 21  2  0  0  0  0
 22 23  1  0  0  0  0
 23 24  2  0  0  0  0
 24 19  1  0  0  0  0
 24 16  1  0  0  0  0
 26  4  1  0  0  0  0
 26 28  1  0  0  0  0
 27 26  1  0  0  0  0
 29 31  1  0  0  0  0
 29 26  1  0  0  0  0
 30 29  1  0  0  0  0
 32 29  1  0  0  0  0
 33 32  1  0  0  0  0
 33 42  1  0  0  0  0
 34 33  2  0  0  0  0
 35 36  2  0  0  0  0
 35 34  1  0  0  0  0
 36 41  1  0  0  0  0
 37 38  2  0  0  0  0
 37 36  1  0  0  0  0
 38 39  1  0  0  0  0
 39 47  1  0  0  0  0
 39 40  2  0  0  0  0
 40 48  1  0  0  0  0
 41 40  1  0  0  0  0
 41 32  2  0  0  0  0
 43 34  1  0  0  0  0
 44 35  1  0  0  0  0
 45 37  1  0  0  0  0
 46 38  1  0  0  0  0
 48 49  1  0  0  0  0
M  END
>  <minimizedAffinity>
-6.20420408

>  <minimizedRMSD>
0.407715023

$$$$
