
 OpenBabel03242507303D

 36 40  0  0  0  0  0  0  0  0999 V2000
   37.8840   29.1210   43.3070 C   0  0  0  0  0  0  0  0  0  0  0  0
   38.7490   29.4560   43.9230 H   0  0  0  0  0  0  0  0  0  0  0  0
   36.9650   29.0960   43.9370 H   0  0  0  0  0  0  0  0  0  0  0  0
   36.2480   30.8930   40.3760 C   0  0  0  0  0  0  0  0  0  0  0  0
   36.4210   30.0530   41.5080 C   0  0  0  0  0  0  0  0  0  0  0  0
   37.6540   29.9830   42.1230 C   0  0  0  0  0  0  0  0  0  0  0  0
   38.6720   30.7350   41.6080 N   0  0  0  0  0  0  0  0  0  0  0  0
   38.4880   31.5350   40.5210 C   0  0  0  0  0  0  0  0  0  0  0  0
   37.2970   31.6000   39.9310 N   0  0  0  0  0  0  0  0  0  0  0  0
   35.2910   30.9570   39.8870 H   0  0  0  0  0  0  0  0  0  0  0  0
   35.5790   29.4830   41.8690 H   0  0  0  0  0  0  0  0  0  0  0  0
   39.6580   32.3040   40.0490 C   0  0  0  0  0  0  0  0  0  0  0  0
   40.8570   31.8130   39.5700 C   0  0  0  0  0  0  0  0  0  0  0  0
   41.6100   32.8810   39.2630 N   0  0  0  0  0  0  0  0  0  0  0  0
   40.9330   34.0110   39.5310 C   0  0  0  0  0  0  0  0  0  0  0  0
   41.3680   35.3090   39.3520 C   0  0  0  0  0  0  0  0  0  0  0  0
   40.4690   36.3180   39.7090 C   0  0  0  0  0  0  0  0  0  0  0  0
   39.2080   36.0580   40.2160 C   0  0  0  0  0  0  0  0  0  0  0  0
   38.8620   34.7310   40.3590 C   0  0  0  0  0  0  0  0  0  0  0  0
   39.6810   33.6860   40.0340 C   0  0  0  0  0  0  0  0  0  0  0  0
   42.5810   32.7060   38.8740 H   0  0  0  0  0  0  0  0  0  0  0  0
   38.1750   27.7410   42.8860 C   0  0  0  0  0  0  0  0  0  0  0  0
   39.1490   26.8480   43.1230 C   0  0  0  0  0  0  0  0  0  0  0  0
   39.1460   25.6170   42.5780 C   0  0  0  0  0  0  0  0  0  0  0  0
   37.9970   25.3900   41.7360 C   0  0  0  0  0  0  0  0  0  0  0  0
   37.0700   26.8720   41.7890 S   0  0  0  0  0  0  0  0  0  0  0  0
   39.9300   27.2070   43.7850 H   0  0  0  0  0  0  0  0  0  0  0  0
   39.8960   24.8540   42.7270 H   0  0  0  0  0  0  0  0  0  0  0  0
   37.6820   24.1730   40.9950 C   0  0  0  0  0  0  0  0  0  0  0  0
   38.5160   23.1320   40.8170 C   0  0  0  0  0  0  0  0  0  0  0  0
   37.7620   22.2390   40.0600 C   0  0  0  0  0  0  0  0  0  0  0  0
   36.5230   22.7600   39.8100 N   0  0  0  0  0  0  0  0  0  0  0  0
   36.5060   23.9460   40.3970 N   0  0  0  0  0  0  0  0  0  0  0  0
   39.5300   22.9440   41.1410 H   0  0  0  0  0  0  0  0  0  0  0  0
   38.0100   21.2570   39.6700 H   0  0  0  0  0  0  0  0  0  0  0  0
   35.7450   22.3230   39.2710 H   0  0  0  0  0  0  0  0  0  0  0  0
  1  2  1  0  0  0  0
  1  3  1  0  0  0  0
  4  5  1  0  0  0  0
  5 11  1  0  0  0  0
  5  6  2  0  0  0  0
  6  1  1  0  0  0  0
  7  6  1  0  0  0  0
  8  7  2  0  0  0  0
  9  4  2  0  0  0  0
  9  8  1  0  0  0  0
 10  4  1  0  0  0  0
 12  8  1  0  0  0  0
 13 12  2  0  0  0  0
 14 15  1  0  0  0  0
 14 13  1  0  0  0  0
 15 20  1  0  0  0  0
 16 15  2  0  0  0  0
 16 17  1  0  0  0  0
 17 18  2  0  0  0  0
 18 19  1  0  0  0  0
 20 12  1  0  0  0  0
 20 19  2  0  0  0  0
 21 14  1  0  0  0  0
 22 23  2  0  0  0  0
 22  1  1  0  0  0  0
 23 27  1  0  0  0  0
 24 28  1  0  0  0  0
 24 23  1  0  0  0  0
 25 26  1  0  0  0  0
 25 24  2  0  0  0  0
 26 22  1  0  0  0  0
 29 25  1  0  0  0  0
 30 29  1  0  0  0  0
 30 34  1  0  0  0  0
 31 30  2  0  0  0  0
 32 31  1  0  0  0  0
 32 33  1  0  0  0  0
 33 29  2  0  0  0  0
 35 31  1  0  0  0  0
 36 32  1  0  0  0  0
M  END
>  <minimizedAffinity>
-6.52253819

>  <minimizedRMSD>
3.16186094

$$$$
