
 OpenBabel03242509283D

 49 54  0  0  0  0  0  0  0  0999 V2000
   38.9850   27.5590   42.8780 C   0  0  0  0  0  0  0  0  0  0  0  0
   37.7830   26.9390   43.1240 C   0  0  0  0  0  0  0  0  0  0  0  0
   36.8000   27.7990   42.6180 C   0  0  0  0  0  0  0  0  0  0  0  0
   37.4790   28.8540   42.1160 N   0  0  0  0  0  0  0  0  0  0  0  0
   38.7610   28.7490   42.2500 N   0  0  0  0  0  0  0  0  0  0  0  0
   37.7070   25.9770   43.6160 H   0  0  0  0  0  0  0  0  0  0  0  0
   35.7620   27.5590   42.6780 H   0  0  0  0  0  0  0  0  0  0  0  0
   41.9120   25.3160   43.3110 C   0  0  0  0  0  0  0  0  0  0  0  0
   40.6480   25.7500   42.9080 C   0  0  0  0  0  0  0  0  0  0  0  0
   40.2950   27.0600   43.2290 C   0  0  0  0  0  0  0  0  0  0  0  0
   41.1590   27.8370   43.8950 N   0  0  0  0  0  0  0  0  0  0  0  0
   42.4020   27.3740   44.2780 C   0  0  0  0  0  0  0  0  0  0  0  0
   42.7500   26.1070   43.9720 N   0  0  0  0  0  0  0  0  0  0  0  0
   42.2390   24.3160   43.0900 H   0  0  0  0  0  0  0  0  0  0  0  0
   39.9900   25.0800   42.3710 H   0  0  0  0  0  0  0  0  0  0  0  0
   43.1420   28.4140   44.9830 C   0  0  0  0  0  0  0  0  0  0  0  0
   43.7460   29.4640   44.3390 C   0  0  0  0  0  3  0  0  0  0  0  0
   44.4450   30.4600   44.9420 C   0  0  0  0  0  3  0  0  0  0  0  0
   44.5950   30.4710   46.3090 C   0  0  0  0  0  3  0  0  0  0  0  0
   44.0170   29.4500   47.0280 C   0  0  0  0  0  0  0  0  0  0  0  0
   44.1590   29.4500   48.3990 C   0  0  0  0  0  3  0  0  0  0  0  0
   43.6000   28.4510   49.1700 C   0  0  0  0  0  3  0  0  0  0  0  0
   42.8910   27.4520   48.4930 C   0  0  0  0  0  3  0  0  0  0  0  0
   42.7810   27.5000   47.1360 C   0  0  0  0  0  3  0  0  0  0  0  0
   43.3250   28.4800   46.3430 C   0  0  0  0  0  0  0  0  0  0  0  0
   36.7470   29.9190   41.5230 C   0  0  0  0  0  0  0  0  0  0  0  0
   36.2280   30.4370   42.3630 H   0  0  0  0  0  0  0  0  0  0  0  0
   37.4410   30.6710   41.0870 H   0  0  0  0  0  0  0  0  0  0  0  0
   35.7660   29.5220   40.4680 C   0  0  0  0  0  0  0  0  0  0  0  0
   35.1590   30.4870   40.4170 H   0  0  0  0  0  0  0  0  0  0  0  0
   35.2060   28.6590   40.7970 H   0  0  0  0  0  0  0  0  0  0  0  0
   36.3160   29.4500   39.0890 C   0  0  0  0  0  0  0  0  0  0  0  0
   37.6180   29.6110   38.7110 C   0  0  0  0  0  0  0  0  0  0  0  0
   38.0790   29.6130   37.4260 C   0  0  0  0  0  0  0  0  0  0  0  0
   37.1850   29.4430   36.3900 C   0  0  0  0  0  0  0  0  0  0  0  0
   35.8450   29.2730   36.7140 C   0  0  0  0  0  0  0  0  0  0  0  0
   35.0100   29.1090   35.6330 C   0  0  0  0  0  0  0  0  0  0  0  0
   33.6730   28.9300   35.8500 C   0  0  0  0  0  0  0  0  0  0  0  0
   33.1880   28.9140   37.1370 C   0  0  0  0  0  0  0  0  0  0  0  0
   34.0790   29.0830   38.1670 C   0  0  0  0  0  0  0  0  0  0  0  0
   35.4130   29.2720   38.0280 C   0  0  0  0  0  0  0  0  0  0  0  0
   38.3300   29.7470   39.5180 H   0  0  0  0  0  0  0  0  0  0  0  0
   39.1230   29.7470   37.2270 H   0  0  0  0  0  0  0  0  0  0  0  0
   37.5490   29.4470   35.3720 H   0  0  0  0  0  0  0  0  0  0  0  0
   35.3670   29.1160   34.6120 H   0  0  0  0  0  0  0  0  0  0  0  0
   33.0110   28.8020   34.9970 H   0  0  0  0  0  0  0  0  0  0  0  0
   32.1300   28.7700   37.3040 H   0  0  0  0  0  0  0  0  0  0  0  0
   33.5320   29.0380   39.4390 O   0  0  0  0  0  0  0  0  0  0  0  0
   32.6800   29.5660   39.6320 H   0  0  0  0  0  0  0  0  0  0  0  0
  1  2  1  0  0  0  0
  1 10  1  0  0  0  0
  2  6  1  0  0  0  0
  3  7  1  0  0  0  0
  3  2  2  0  0  0  0
  4  5  1  0  0  0  0
  4  3  1  0  0  0  0
  5  1  2  0  0  0  0
  8 13  1  0  0  0  0
  9 10  1  0  0  0  0
  9  8  2  0  0  0  0
 10 11  2  0  0  0  0
 11 12  1  0  0  0  0
 12 16  1  0  0  0  0
 13 12  2  0  0  0  0
 14  8  1  0  0  0  0
 15  9  1  0  0  0  0
 16 25  1  0  0  0  0
 17 18  1  0  0  0  0
 17 16  2  0  0  0  0
 18 19  2  0  0  0  0
 19 20  1  0  0  0  0
 20 21  1  0  0  0  0
 21 22  2  0  0  0  0
 23 22  1  0  0  0  0
 24 23  2  0  0  0  0
 25 20  2  0  0  0  0
 25 24  1  0  0  0  0
 26  4  1  0  0  0  0
 26 27  1  0  0  0  0
 28 26  1  0  0  0  0
 29 31  1  0  0  0  0
 29 26  1  0  0  0  0
 30 29  1  0  0  0  0
 32 29  1  0  0  0  0
 33 32  1  0  0  0  0
 33 42  1  0  0  0  0
 34 33  2  0  0  0  0
 35 36  2  0  0  0  0
 35 34  1  0  0  0  0
 36 41  1  0  0  0  0
 37 38  2  0  0  0  0
 37 36  1  0  0  0  0
 38 39  1  0  0  0  0
 39 47  1  0  0  0  0
 39 40  2  0  0  0  0
 40 48  1  0  0  0  0
 41 40  1  0  0  0  0
 41 32  2  0  0  0  0
 43 34  1  0  0  0  0
 44 35  1  0  0  0  0
 45 37  1  0  0  0  0
 46 38  1  0  0  0  0
 48 49  1  0  0  0  0
M  END
>  <minimizedAffinity>
-7.77769327

>  <minimizedRMSD>
2.58724499

$$$$
