
 OpenBabel03242509283D

 49 54  0  0  0  0  0  0  0  0999 V2000
   38.6020   28.1060   42.7100 C   0  0  0  0  0  0  0  0  0  0  0  0
   37.5040   27.2970   42.8810 C   0  0  0  0  0  0  0  0  0  0  0  0
   36.4360   27.9730   42.2790 C   0  0  0  0  0  0  0  0  0  0  0  0
   36.9690   29.1190   41.8000 N   0  0  0  0  0  0  0  0  0  0  0  0
   38.2350   29.2330   42.0330 N   0  0  0  0  0  0  0  0  0  0  0  0
   37.5500   26.3440   43.3930 H   0  0  0  0  0  0  0  0  0  0  0  0
   35.4500   27.5650   42.2660 H   0  0  0  0  0  0  0  0  0  0  0  0
   41.5550   26.4190   44.2000 C   0  0  0  0  0  0  0  0  0  0  0  0
   40.2510   26.6000   43.7360 C   0  0  0  0  0  0  0  0  0  0  0  0
   39.9450   27.8380   43.1730 C   0  0  0  0  0  0  0  0  0  0  0  0
   40.8880   28.7870   43.0990 N   0  0  0  0  0  0  0  0  0  0  0  0
   42.1680   28.5720   43.5700 C   0  0  0  0  0  0  0  0  0  0  0  0
   42.4720   27.3770   44.1160 N   0  0  0  0  0  0  0  0  0  0  0  0
   41.8490   25.4840   44.6430 H   0  0  0  0  0  0  0  0  0  0  0  0
   39.5300   25.7990   43.8190 H   0  0  0  0  0  0  0  0  0  0  0  0
   42.9930   29.7580   43.3690 C   0  0  0  0  0  0  0  0  0  0  0  0
   43.4820   30.5080   44.4080 C   0  0  0  0  0  3  0  0  0  0  0  0
   44.2520   31.6190   44.2820 C   0  0  0  0  0  3  0  0  0  0  0  0
   44.6070   32.0790   43.0350 C   0  0  0  0  0  3  0  0  0  0  0  0
   44.1540   31.3780   41.9400 C   0  0  0  0  0  0  0  0  0  0  0  0
   44.5020   31.8280   40.6840 C   0  0  0  0  0  3  0  0  0  0  0  0
   44.0770   31.1660   39.5520 C   0  0  0  0  0  3  0  0  0  0  0  0
   43.2860   30.0270   39.7430 C   0  0  0  0  0  3  0  0  0  0  0  0
   42.9710   29.6260   41.0060 C   0  0  0  0  0  3  0  0  0  0  0  0
   43.3780   30.2650   42.1510 C   0  0  0  0  0  0  0  0  0  0  0  0
   36.1190   30.0380   41.1230 C   0  0  0  0  0  0  0  0  0  0  0  0
   35.4980   30.5180   41.9150 H   0  0  0  0  0  0  0  0  0  0  0  0
   36.7190   30.8590   40.6710 H   0  0  0  0  0  0  0  0  0  0  0  0
   35.2500   29.4530   40.0590 C   0  0  0  0  0  0  0  0  0  0  0  0
   34.5230   30.3230   39.9240 H   0  0  0  0  0  0  0  0  0  0  0  0
   34.7930   28.5430   40.4210 H   0  0  0  0  0  0  0  0  0  0  0  0
   35.8670   29.3750   38.7090 C   0  0  0  0  0  0  0  0  0  0  0  0
   37.1920   29.4940   38.4020 C   0  0  0  0  0  0  0  0  0  0  0  0
   37.7190   29.4930   37.1420 C   0  0  0  0  0  0  0  0  0  0  0  0
   36.8750   29.3650   36.0590 C   0  0  0  0  0  0  0  0  0  0  0  0
   35.5150   29.2380   36.3110 C   0  0  0  0  0  0  0  0  0  0  0  0
   34.7310   29.1140   35.1870 C   0  0  0  0  0  0  0  0  0  0  0  0
   33.3790   28.9800   35.3330 C   0  0  0  0  0  0  0  0  0  0  0  0
   32.8290   28.9690   36.5930 C   0  0  0  0  0  0  0  0  0  0  0  0
   33.6700   29.0960   37.6690 C   0  0  0  0  0  0  0  0  0  0  0  0
   35.0150   29.2390   37.6010 C   0  0  0  0  0  0  0  0  0  0  0  0
   37.8660   29.5970   39.2450 H   0  0  0  0  0  0  0  0  0  0  0  0
   38.7750   29.5920   36.9990 H   0  0  0  0  0  0  0  0  0  0  0  0
   37.2910   29.3660   35.0610 H   0  0  0  0  0  0  0  0  0  0  0  0
   35.1410   29.1190   34.1860 H   0  0  0  0  0  0  0  0  0  0  0  0
   32.7590   28.8850   34.4450 H   0  0  0  0  0  0  0  0  0  0  0  0
   31.7580   28.8610   36.7030 H   0  0  0  0  0  0  0  0  0  0  0  0
   33.0570   29.0580   38.9110 O   0  0  0  0  0  0  0  0  0  0  0  0
   32.2140   29.6130   39.0660 H   0  0  0  0  0  0  0  0  0  0  0  0
  1  2  1  0  0  0  0
  1 10  1  0  0  0  0
  2  6  1  0  0  0  0
  3  2  2  0  0  0  0
  4  5  1  0  0  0  0
  4  3  1  0  0  0  0
  5  1  2  0  0  0  0
  7  3  1  0  0  0  0
  8 14  1  0  0  0  0
  9 15  1  0  0  0  0
  9  8  2  0  0  0  0
 10  9  1  0  0  0  0
 11 10  2  0  0  0  0
 11 12  1  0  0  0  0
 12 13  2  0  0  0  0
 13  8  1  0  0  0  0
 16 12  1  0  0  0  0
 16 17  1  0  0  0  0
 18 17  2  0  0  0  0
 19 18  1  0  0  0  0
 20 25  1  0  0  0  0
 20 19  2  0  0  0  0
 21 20  1  0  0  0  0
 22 23  1  0  0  0  0
 22 21  2  0  0  0  0
 23 24  2  0  0  0  0
 24 25  1  0  0  0  0
 25 16  2  0  0  0  0
 26  4  1  0  0  0  0
 26 27  1  0  0  0  0
 28 26  1  0  0  0  0
 29 31  1  0  0  0  0
 29 26  1  0  0  0  0
 30 29  1  0  0  0  0
 32 29  1  0  0  0  0
 33 32  1  0  0  0  0
 33 42  1  0  0  0  0
 34 33  2  0  0  0  0
 35 36  2  0  0  0  0
 35 34  1  0  0  0  0
 36 41  1  0  0  0  0
 37 38  2  0  0  0  0
 37 36  1  0  0  0  0
 38 39  1  0  0  0  0
 39 47  1  0  0  0  0
 39 40  2  0  0  0  0
 40 48  1  0  0  0  0
 41 40  1  0  0  0  0
 41 32  2  0  0  0  0
 43 34  1  0  0  0  0
 44 35  1  0  0  0  0
 45 37  1  0  0  0  0
 46 38  1  0  0  0  0
 48 49  1  0  0  0  0
M  END
>  <minimizedAffinity>
-6.44330359

>  <minimizedRMSD>
0.519050419

$$$$
