
 OpenBabel03242509283D

 49 54  0  0  0  0  0  0  0  0999 V2000
   38.4710   28.1100   42.6020 C   0  0  0  0  0  0  0  0  0  0  0  0
   37.3970   27.2600   42.7170 C   0  0  0  0  0  0  0  0  0  0  0  0
   36.3280   27.9110   42.0910 C   0  0  0  0  0  0  0  0  0  0  0  0
   36.8360   29.0850   41.6550 N   0  0  0  0  0  0  0  0  0  0  0  0
   38.0890   29.2370   41.9350 N   0  0  0  0  0  0  0  0  0  0  0  0
   37.4580   26.2980   43.2110 H   0  0  0  0  0  0  0  0  0  0  0  0
   35.3580   27.4690   42.0340 H   0  0  0  0  0  0  0  0  0  0  0  0
   41.4460   26.4730   44.1050 C   0  0  0  0  0  0  0  0  0  0  0  0
   40.1550   26.6200   43.5940 C   0  0  0  0  0  0  0  0  0  0  0  0
   39.8060   27.8780   43.1080 C   0  0  0  0  0  0  0  0  0  0  0  0
   40.6970   28.8770   43.1460 N   0  0  0  0  0  0  0  0  0  0  0  0
   41.9660   28.6950   43.6600 C   0  0  0  0  0  0  0  0  0  0  0  0
   42.3110   27.4800   44.1330 N   0  0  0  0  0  0  0  0  0  0  0  0
   41.7720   25.5250   44.4940 H   0  0  0  0  0  0  0  0  0  0  0  0
   39.4760   25.7780   43.5870 H   0  0  0  0  0  0  0  0  0  0  0  0
   42.7320   29.9340   43.5830 C   0  0  0  0  0  0  0  0  0  0  0  0
   43.8050   30.1970   44.3950 C   0  0  0  0  0  3  0  0  0  0  0  0
   44.5540   31.3290   44.3690 C   0  0  0  0  0  3  0  0  0  0  0  0
   44.2610   32.3320   43.4760 C   0  0  0  0  0  3  0  0  0  0  0  0
   43.1960   32.1440   42.6250 C   0  0  0  0  0  0  0  0  0  0  0  0
   42.8910   33.1410   41.7240 C   0  0  0  0  0  3  0  0  0  0  0  0
   41.8360   33.0060   40.8470 C   0  0  0  0  0  3  0  0  0  0  0  0
   41.0990   31.8180   40.9200 C   0  0  0  0  0  3  0  0  0  0  0  0
   41.4440   30.8650   41.8290 C   0  0  0  0  0  3  0  0  0  0  0  0
   42.4870   30.9700   42.7140 C   0  0  0  0  0  0  0  0  0  0  0  0
   35.9790   29.9880   40.9670 C   0  0  0  0  0  0  0  0  0  0  0  0
   35.3280   30.4460   41.7480 H   0  0  0  0  0  0  0  0  0  0  0  0
   36.5680   30.8280   40.5350 H   0  0  0  0  0  0  0  0  0  0  0  0
   35.1490   29.3910   39.8780 C   0  0  0  0  0  0  0  0  0  0  0  0
   34.3950   30.2390   39.7430 H   0  0  0  0  0  0  0  0  0  0  0  0
   34.7170   28.4610   40.2170 H   0  0  0  0  0  0  0  0  0  0  0  0
   35.7920   29.3560   38.5390 C   0  0  0  0  0  0  0  0  0  0  0  0
   37.1210   29.4940   38.2590 C   0  0  0  0  0  0  0  0  0  0  0  0
   37.6720   29.5330   37.0100 C   0  0  0  0  0  0  0  0  0  0  0  0
   36.8490   29.4280   35.9090 C   0  0  0  0  0  0  0  0  0  0  0  0
   35.4860   29.2830   36.1310 C   0  0  0  0  0  0  0  0  0  0  0  0
   34.7240   29.1840   34.9900 C   0  0  0  0  0  0  0  0  0  0  0  0
   33.3710   29.0350   35.1060 C   0  0  0  0  0  0  0  0  0  0  0  0
   32.7970   28.9840   36.3550 C   0  0  0  0  0  0  0  0  0  0  0  0
   33.6170   29.0880   37.4490 C   0  0  0  0  0  0  0  0  0  0  0  0
   34.9620   29.2440   37.4110 C   0  0  0  0  0  0  0  0  0  0  0  0
   37.7780   29.5800   39.1180 H   0  0  0  0  0  0  0  0  0  0  0  0
   38.7300   29.6440   36.8900 H   0  0  0  0  0  0  0  0  0  0  0  0
   37.2840   29.4610   34.9190 H   0  0  0  0  0  0  0  0  0  0  0  0
   35.1530   29.2200   33.9970 H   0  0  0  0  0  0  0  0  0  0  0  0
   32.7690   28.9590   34.2040 H   0  0  0  0  0  0  0  0  0  0  0  0
   31.7260   28.8640   36.4410 H   0  0  0  0  0  0  0  0  0  0  0  0
   32.9810   29.0100   38.6780 O   0  0  0  0  0  0  0  0  0  0  0  0
   32.1310   29.5540   38.8320 H   0  0  0  0  0  0  0  0  0  0  0  0
  1  2  1  0  0  0  0
  1 10  1  0  0  0  0
  2  6  1  0  0  0  0
  3  2  2  0  0  0  0
  4  5  1  0  0  0  0
  4  3  1  0  0  0  0
  5  1  2  0  0  0  0
  7  3  1  0  0  0  0
  8 13  1  0  0  0  0
  8 14  1  0  0  0  0
  9  8  2  0  0  0  0
 10 11  2  0  0  0  0
 10  9  1  0  0  0  0
 11 12  1  0  0  0  0
 12 13  2  0  0  0  0
 15  9  1  0  0  0  0
 16 12  1  0  0  0  0
 16 17  1  0  0  0  0
 18 17  2  0  0  0  0
 19 18  1  0  0  0  0
 20 25  1  0  0  0  0
 20 19  2  0  0  0  0
 21 20  1  0  0  0  0
 22 23  1  0  0  0  0
 22 21  2  0  0  0  0
 23 24  2  0  0  0  0
 24 25  1  0  0  0  0
 25 16  2  0  0  0  0
 26  4  1  0  0  0  0
 26 27  1  0  0  0  0
 28 26  1  0  0  0  0
 29 31  1  0  0  0  0
 29 26  1  0  0  0  0
 30 29  1  0  0  0  0
 32 29  1  0  0  0  0
 33 32  1  0  0  0  0
 33 42  1  0  0  0  0
 34 33  2  0  0  0  0
 35 36  2  0  0  0  0
 35 34  1  0  0  0  0
 36 41  1  0  0  0  0
 37 38  2  0  0  0  0
 37 36  1  0  0  0  0
 38 39  1  0  0  0  0
 39 47  1  0  0  0  0
 39 40  2  0  0  0  0
 40 48  1  0  0  0  0
 41 40  1  0  0  0  0
 41 32  2  0  0  0  0
 43 34  1  0  0  0  0
 44 35  1  0  0  0  0
 45 37  1  0  0  0  0
 46 38  1  0  0  0  0
 48 49  1  0  0  0  0
M  END
>  <minimizedAffinity>
-6.83386707

>  <minimizedRMSD>
0.690400004

$$$$
