
 OpenBabel03242505203D

 42 46  0  0  1  0  0  0  0  0999 V2000
   36.9820   30.7310   40.1580 C   0  0  1  0  0  0  0  0  0  0  0  0
   37.2190   32.1420   40.4490 C   0  0  0  0  0  0  0  0  0  0  0  0
   37.1510   32.7620   39.0520 C   0  0  0  0  0  0  0  0  0  0  0  0
   37.5210   31.6380   38.1010 C   0  0  0  0  0  0  0  0  0  0  0  0
   37.9510   30.4920   38.9840 C   0  0  2  0  0  0  0  0  0  0  0  0
   35.9700   30.5520   39.7680 H   0  0  0  0  0  0  0  0  0  0  0  0
   36.5070   32.6290   41.1380 H   0  0  0  0  0  0  0  0  0  0  0  0
   38.2730   32.2830   40.7800 H   0  0  0  0  0  0  0  0  0  0  0  0
   36.1050   33.0930   38.9210 H   0  0  0  0  0  0  0  0  0  0  0  0
   37.8470   33.6040   38.9600 H   0  0  0  0  0  0  0  0  0  0  0  0
   36.5820   31.3600   37.5430 H   0  0  0  0  0  0  0  0  0  0  0  0
   38.2800   31.9170   37.3600 H   0  0  0  0  0  0  0  0  0  0  0  0
   38.9660   30.6750   39.3130 H   0  0  0  0  0  0  0  0  0  0  0  0
   38.6580   29.3560   43.1580 C   0  0  0  0  0  0  0  0  0  0  0  0
   37.7700   28.2590   43.5030 C   0  0  0  0  0  0  0  0  0  0  0  0
   36.6270   28.0200   42.6830 C   0  0  0  0  0  0  0  0  0  0  0  0
   36.3810   28.8170   41.5960 N   0  0  0  0  0  0  0  0  0  0  0  0
   37.2520   29.8260   41.3290 C   0  0  0  0  0  0  0  0  0  0  0  0
   38.3660   30.1050   42.0770 N   0  0  0  0  0  0  0  0  0  0  0  0
   39.5150   29.5150   43.7910 H   0  0  0  0  0  0  0  0  0  0  0  0
   37.9770   27.6460   44.3560 H   0  0  0  0  0  0  0  0  0  0  0  0
   35.9890   27.1990   42.9670 H   0  0  0  0  0  0  0  0  0  0  0  0
   37.7820   29.1910   38.3540 C   0  0  0  0  0  0  0  0  0  0  0  0
   36.7720   28.2920   38.0860 C   0  0  0  0  0  0  0  0  0  0  0  0
   37.0180   27.1320   37.4540 C   0  0  0  0  0  0  0  0  0  0  0  0
   38.3190   26.8680   37.0820 C   0  0  0  0  0  0  0  0  0  0  0  0
   39.2520   28.3600   37.6640 S   0  0  0  0  0  0  0  0  0  0  0  0
   35.8250   28.6660   38.4500 H   0  0  0  0  0  0  0  0  0  0  0  0
   35.9720   26.1640   37.1580 C   0  0  0  0  0  0  0  0  0  0  0  0
   35.2140   26.1550   36.0130 C   0  0  0  0  0  0  0  0  0  0  0  0
   34.2360   25.2080   35.7940 C   0  0  0  0  0  0  0  0  0  0  0  0
   33.9930   24.2270   36.7380 C   0  0  0  0  0  0  0  0  0  0  0  0
   34.7360   24.2010   37.9080 C   0  0  0  0  0  0  0  0  0  0  0  0
   34.5140   23.2340   38.8660 C   0  0  0  0  0  0  0  0  0  0  0  0
   35.2470   23.1980   40.0340 C   0  0  0  0  0  0  0  0  0  0  0  0
   36.2230   24.1530   40.2430 C   0  0  0  0  0  0  0  0  0  0  0  0
   36.4300   25.1110   39.2730 C   0  0  0  0  0  0  0  0  0  0  0  0
   35.7080   25.1700   38.0910 C   0  0  0  0  0  0  0  0  0  0  0  0
   38.8940   25.7330   36.3980 C   0  0  0  0  0  0  0  0  0  0  0  0
   40.2240   25.8810   36.0210 F   0  0  0  0  0  0  0  0  0  0  0  0
   38.8020   24.6740   37.2410 F   0  0  0  0  0  0  0  0  0  0  0  0
   38.1230   25.4730   35.2680 F   0  0  0  0  0  0  0  0  0  0  0  0
  1  6  1  6  0  0  0
  1  2  1  0  0  0  0
  1 18  1  0  0  0  0
  2  8  1  0  0  0  0
  2  7  1  0  0  0  0
  3  2  1  0  0  0  0
  4  5  1  0  0  0  0
  4  3  1  0  0  0  0
  5 13  1  1  0  0  0
  5  1  1  0  0  0  0
  9  3  1  0  0  0  0
 10  3  1  0  0  0  0
 11  4  1  0  0  0  0
 12  4  1  0  0  0  0
 14 15  1  0  0  0  0
 14 20  1  0  0  0  0
 15 21  1  0  0  0  0
 16 22  1  0  0  0  0
 16 15  2  0  0  0  0
 17 16  1  0  0  0  0
 18 17  2  0  0  0  0
 18 19  1  0  0  0  0
 19 14  2  0  0  0  0
 23  5  1  0  0  0  0
 24 23  2  0  0  0  0
 24 28  1  0  0  0  0
 25 24  1  0  0  0  0
 26 25  2  0  0  0  0
 26 27  1  0  0  0  0
 27 23  1  0  0  0  0
 29 25  1  0  0  0  0
 29 38  1  0  0  0  0
 30 29  2  0  0  0  0
 31 30  1  0  0  0  0
 31 32  2  0  0  0  0
 32 33  1  0  0  0  0
 33 38  2  0  0  0  0
 33 34  1  0  0  0  0
 34 35  2  0  0  0  0
 35 36  1  0  0  0  0
 37 36  2  0  0  0  0
 38 37  1  0  0  0  0
 39 26  1  0  0  0  0
 39 41  1  0  0  0  0
 40 39  1  0  0  0  0
 42 39  1  0  0  0  0
M  END
>  <minimizedAffinity>
-5.70480633

>  <minimizedRMSD>
3.09961915

$$$$
