
 OpenBabel03242509233D

 48 53  0  0  0  0  0  0  0  0999 V2000
   39.5940   30.1100   37.7750 C   0  0  0  0  0  0  0  0  0  0  0  0
   40.7280   30.9040   37.7330 C   0  0  0  0  0  0  0  0  0  0  0  0
   41.9790   30.5250   37.3270 C   0  0  0  0  0  0  0  0  0  0  0  0
   42.1730   29.2280   36.9090 C   0  0  0  0  0  0  0  0  0  0  0  0
   41.0820   28.3690   36.9250 C   0  0  0  0  0  0  0  0  0  0  0  0
   41.3490   27.0990   36.5030 C   0  0  0  0  0  0  0  0  0  0  0  0
   40.3430   26.1820   36.4900 C   0  0  0  0  0  0  0  0  0  0  0  0
   39.0750   26.5540   36.9030 C   0  0  0  0  0  0  0  0  0  0  0  0
   38.8850   27.8570   37.3140 C   0  0  0  0  0  0  0  0  0  0  0  0
   39.8480   28.8140   37.3470 C   0  0  0  0  0  0  0  0  0  0  0  0
   40.6410   31.9310   38.0530 H   0  0  0  0  0  0  0  0  0  0  0  0
   42.8120   31.2140   37.3260 H   0  0  0  0  0  0  0  0  0  0  0  0
   43.1590   28.9320   36.5890 H   0  0  0  0  0  0  0  0  0  0  0  0
   42.3420   26.7930   36.1770 H   0  0  0  0  0  0  0  0  0  0  0  0
   40.5910   25.1640   36.1440 H   0  0  0  0  0  0  0  0  0  0  0  0
   38.3690   25.7380   36.8460 H   0  0  0  0  0  0  0  0  0  0  0  0
   37.5080   27.9740   37.7670 C   0  0  0  0  0  0  0  0  0  0  0  0
   36.8470   27.8290   38.9820 C   0  0  0  0  0  0  0  0  0  0  0  0
   35.5100   28.0710   39.1600 C   0  0  0  0  0  0  0  0  0  0  0  0
   34.7360   28.4840   38.1010 C   0  0  0  0  0  0  0  0  0  0  0  0
   35.3410   28.6430   36.8800 C   0  0  0  0  0  0  0  0  0  0  0  0
   34.4900   29.0590   35.8780 C   0  0  0  0  0  0  0  0  0  0  0  0
   34.9980   29.2470   34.6130 C   0  0  0  0  0  0  0  0  0  0  0  0
   36.3310   29.0260   34.3520 C   0  0  0  0  0  0  0  0  0  0  0  0
   37.1410   28.6120   35.3830 C   0  0  0  0  0  0  0  0  0  0  0  0
   36.7020   28.4020   36.6740 C   0  0  0  0  0  0  0  0  0  0  0  0
   38.2380   30.5260   38.1370 C   0  0  0  0  0  0  0  0  0  0  0  0
   38.0660   31.4410   37.5050 H   0  0  0  0  0  0  0  0  0  0  0  0
   37.4740   29.8100   38.2680 H   0  0  0  0  0  0  0  0  0  0  0  0
   38.1430   31.2540   39.4630 C   0  0  0  0  0  0  0  0  0  0  0  0
   38.8460   32.0990   39.3990 H   0  0  0  0  0  0  0  0  0  0  0  0
   37.1400   31.7750   39.5930 H   0  0  0  0  0  0  0  0  0  0  0  0
   38.8850   29.0730   42.1320 C   0  0  0  0  0  0  0  0  0  0  0  0
   37.6570   29.5220   42.5080 C   0  0  0  0  0  0  0  0  0  0  0  0
   37.2430   30.4020   41.5170 C   0  0  0  0  0  0  0  0  0  0  0  0
   38.2430   30.4280   40.6110 N   0  0  0  0  0  0  0  0  0  0  0  0
   39.2030   29.6550   40.9630 N   0  0  0  0  0  0  0  0  0  0  0  0
   37.1490   29.2120   43.4230 H   0  0  0  0  0  0  0  0  0  0  0  0
   36.2910   30.8990   41.5790 H   0  0  0  0  0  0  0  0  0  0  0  0
   40.0430   26.0700   44.0160 C   0  0  0  0  0  0  0  0  0  0  0  0
   39.1930   26.9360   43.3150 C   0  0  0  0  0  0  0  0  0  0  0  0
   39.7240   28.1400   42.8530 C   0  0  0  0  0  0  0  0  0  0  0  0
   41.0410   28.4550   43.0840 N   0  0  0  0  0  0  0  0  0  0  0  0
   41.8190   27.5630   43.7750 C   0  0  0  0  0  0  0  0  0  0  0  0
   41.3230   26.3920   44.2310 N   0  0  0  0  0  0  0  0  0  0  0  0
   39.6820   25.1260   44.3950 H   0  0  0  0  0  0  0  0  0  0  0  0
   38.1600   26.6620   43.1490 H   0  0  0  0  0  0  0  0  0  0  0  0
   42.8320   27.8970   43.9040 H   0  0  0  0  0  0  0  0  0  0  0  0
  1 27  1  0  0  0  0
  2  1  1  0  0  0  0
  2 11  1  0  0  0  0
  3  2  2  0  0  0  0
  4  5  2  0  0  0  0
  4  3  1  0  0  0  0
  5 10  1  0  0  0  0
  6  5  1  0  0  0  0
  7  6  2  0  0  0  0
  7  8  1  0  0  0  0
  8  9  2  0  0  0  0
  9 10  1  0  0  0  0
  9 17  1  0  0  0  0
 10  1  2  0  0  0  0
 12  3  1  0  0  0  0
 13  4  1  0  0  0  0
 14  6  1  0  0  0  0
 15  7  1  0  0  0  0
 16  8  1  0  0  0  0
 17 18  1  0  0  0  0
 18 19  2  0  0  0  0
 20 19  1  0  0  0  0
 21 20  2  0  0  0  0
 22 21  1  0  0  0  0
 23 22  2  0  0  0  0
 24 23  1  0  0  0  0
 24 25  2  0  0  0  0
 25 26  1  0  0  0  0
 26 21  1  0  0  0  0
 26 17  2  0  0  0  0
 27 29  1  0  0  0  0
 27 30  1  0  0  0  0
 28 27  1  0  0  0  0
 30 32  1  0  0  0  0
 30 36  1  0  0  0  0
 31 30  1  0  0  0  0
 33 34  1  0  0  0  0
 33 42  1  0  0  0  0
 34 38  1  0  0  0  0
 35 39  1  0  0  0  0
 35 34  2  0  0  0  0
 36 37  1  0  0  0  0
 36 35  1  0  0  0  0
 37 33  2  0  0  0  0
 40 45  1  0  0  0  0
 40 46  1  0  0  0  0
 41 40  2  0  0  0  0
 42 43  2  0  0  0  0
 42 41  1  0  0  0  0
 43 44  1  0  0  0  0
 44 48  1  0  0  0  0
 44 45  2  0  0  0  0
 47 41  1  0  0  0  0
M  END
>  <minimizedAffinity>
-5.94007301

>  <minimizedRMSD>
4.50047207

$$$$
