
 OpenBabel03242509283D

 49 54  0  0  0  0  0  0  0  0999 V2000
   39.3970   27.7710   43.0450 C   0  0  0  0  0  0  0  0  0  0  0  0
   38.1740   27.1590   43.1750 C   0  0  0  0  0  0  0  0  0  0  0  0
   37.2320   28.0910   42.7200 C   0  0  0  0  0  0  0  0  0  0  0  0
   37.9540   29.1750   42.3590 N   0  0  0  0  0  0  0  0  0  0  0  0
   39.2260   29.0250   42.5340 N   0  0  0  0  0  0  0  0  0  0  0  0
   38.0560   26.1540   43.5600 H   0  0  0  0  0  0  0  0  0  0  0  0
   36.1880   27.8730   42.7110 H   0  0  0  0  0  0  0  0  0  0  0  0
   42.2220   25.3940   43.4390 C   0  0  0  0  0  0  0  0  0  0  0  0
   40.9830   25.8940   43.0350 C   0  0  0  0  0  0  0  0  0  0  0  0
   40.6810   27.2060   43.3960 C   0  0  0  0  0  0  0  0  0  0  0  0
   41.5660   27.9230   44.1000 N   0  0  0  0  0  0  0  0  0  0  0  0
   42.7830   27.3950   44.4840 C   0  0  0  0  0  0  0  0  0  0  0  0
   43.0820   26.1260   44.1390 N   0  0  0  0  0  0  0  0  0  0  0  0
   42.5110   24.3890   43.1900 H   0  0  0  0  0  0  0  0  0  0  0  0
   40.3070   25.2710   42.4670 H   0  0  0  0  0  0  0  0  0  0  0  0
   43.5540   28.3790   45.2350 C   0  0  0  0  0  0  0  0  0  0  0  0
   44.3320   29.3340   44.6300 C   0  0  0  0  0  3  0  0  0  0  0  0
   45.0700   30.2730   45.2750 C   0  0  0  0  0  3  0  0  0  0  0  0
   45.0770   30.3230   46.6500 C   0  0  0  0  0  3  0  0  0  0  0  0
   44.3200   29.3980   47.3310 C   0  0  0  0  0  0  0  0  0  0  0  0
   44.3190   29.4360   48.7090 C   0  0  0  0  0  3  0  0  0  0  0  0
   43.5770   28.5330   49.4420 C   0  0  0  0  0  3  0  0  0  0  0  0
   42.8370   27.5880   48.7230 C   0  0  0  0  0  3  0  0  0  0  0  0
   42.8740   27.5940   47.3620 C   0  0  0  0  0  3  0  0  0  0  0  0
   43.6010   28.4790   46.6040 C   0  0  0  0  0  0  0  0  0  0  0  0
   37.2700   30.3130   41.8490 C   0  0  0  0  0  0  0  0  0  0  0  0
   36.8660   30.8490   42.7390 H   0  0  0  0  0  0  0  0  0  0  0  0
   37.9900   31.0170   41.3750 H   0  0  0  0  0  0  0  0  0  0  0  0
   36.1800   30.0290   40.8690 C   0  0  0  0  0  0  0  0  0  0  0  0
   35.6850   31.0580   40.8500 H   0  0  0  0  0  0  0  0  0  0  0  0
   35.5480   29.2380   41.2460 H   0  0  0  0  0  0  0  0  0  0  0  0
   36.6200   29.8900   39.4560 C   0  0  0  0  0  0  0  0  0  0  0  0
   37.8570   30.1620   38.9480 C   0  0  0  0  0  0  0  0  0  0  0  0
   38.2080   30.0960   37.6300 C   0  0  0  0  0  0  0  0  0  0  0  0
   37.2600   29.7270   36.6990 C   0  0  0  0  0  0  0  0  0  0  0  0
   35.9820   29.4350   37.1580 C   0  0  0  0  0  0  0  0  0  0  0  0
   35.0880   29.0750   36.1770 C   0  0  0  0  0  0  0  0  0  0  0  0
   33.8050   28.7650   36.5300 C   0  0  0  0  0  0  0  0  0  0  0  0
   33.4330   28.8160   37.8540 C   0  0  0  0  0  0  0  0  0  0  0  0
   34.3770   29.1830   38.7780 C   0  0  0  0  0  0  0  0  0  0  0  0
   35.6620   29.5090   38.5020 C   0  0  0  0  0  0  0  0  0  0  0  0
   38.6110   30.4550   39.6710 H   0  0  0  0  0  0  0  0  0  0  0  0
   39.2080   30.3280   37.3250 H   0  0  0  0  0  0  0  0  0  0  0  0
   37.5370   29.6760   35.6550 H   0  0  0  0  0  0  0  0  0  0  0  0
   35.3580   29.0250   35.1300 H   0  0  0  0  0  0  0  0  0  0  0  0
   33.0970   28.4820   35.7560 H   0  0  0  0  0  0  0  0  0  0  0  0
   32.4170   28.5680   38.1290 H   0  0  0  0  0  0  0  0  0  0  0  0
   33.9460   29.1960   40.0950 O   0  0  0  0  0  0  0  0  0  0  0  0
   33.0530   29.6390   40.3210 H   0  0  0  0  0  0  0  0  0  0  0  0
  1  2  1  0  0  0  0
  1 10  1  0  0  0  0
  2  6  1  0  0  0  0
  3  2  2  0  0  0  0
  4  5  1  0  0  0  0
  4  3  1  0  0  0  0
  5  1  2  0  0  0  0
  7  3  1  0  0  0  0
  8 13  1  0  0  0  0
  9 10  1  0  0  0  0
  9  8  2  0  0  0  0
 10 11  2  0  0  0  0
 11 12  1  0  0  0  0
 12 16  1  0  0  0  0
 13 12  2  0  0  0  0
 14  8  1  0  0  0  0
 15  9  1  0  0  0  0
 16 25  1  0  0  0  0
 17 16  2  0  0  0  0
 17 18  1  0  0  0  0
 18 19  2  0  0  0  0
 19 20  1  0  0  0  0
 20 21  1  0  0  0  0
 21 22  2  0  0  0  0
 23 22  1  0  0  0  0
 24 23  2  0  0  0  0
 25 20  2  0  0  0  0
 25 24  1  0  0  0  0
 26  4  1  0  0  0  0
 26 27  1  0  0  0  0
 28 26  1  0  0  0  0
 29 31  1  0  0  0  0
 29 26  1  0  0  0  0
 30 29  1  0  0  0  0
 32 29  1  0  0  0  0
 33 32  1  0  0  0  0
 33 42  1  0  0  0  0
 34 33  2  0  0  0  0
 35 36  2  0  0  0  0
 35 34  1  0  0  0  0
 36 41  1  0  0  0  0
 37 38  2  0  0  0  0
 37 36  1  0  0  0  0
 38 39  1  0  0  0  0
 39 47  1  0  0  0  0
 39 40  2  0  0  0  0
 40 48  1  0  0  0  0
 41 40  1  0  0  0  0
 41 32  2  0  0  0  0
 43 34  1  0  0  0  0
 44 35  1  0  0  0  0
 45 37  1  0  0  0  0
 46 38  1  0  0  0  0
 48 49  1  0  0  0  0
M  END
>  <minimizedAffinity>
-8.14598465

>  <minimizedRMSD>
2.5641923

$$$$
