
 OpenBabel03242509183D

 36 40  0  0  1  0  0  0  0  0999 V2000
   38.3720   28.5600   42.3980 C   0  0  0  0  0  0  0  0  0  0  0  0
   39.0900   27.7520   43.2510 C   0  0  0  0  0  0  0  0  0  0  0  0
   38.9670   26.4030   43.3120 C   0  0  0  0  0  0  0  0  0  0  0  0
   38.0640   25.8040   42.4630 C   0  0  0  0  0  0  0  0  0  0  0  0
   37.3340   26.5780   41.5990 C   0  0  0  0  0  0  0  0  0  0  0  0
   37.5020   27.9860   41.5770 C   0  0  0  0  0  0  0  0  0  0  0  0
   39.8020   28.2470   43.9170 H   0  0  0  0  0  0  0  0  0  0  0  0
   39.5820   25.8540   44.0260 H   0  0  0  0  0  0  0  0  0  0  0  0
   38.0250   24.7220   42.5750 H   0  0  0  0  0  0  0  0  0  0  0  0
   36.6760   25.9240   41.0050 H   0  0  0  0  0  0  0  0  0  0  0  0
   36.5860   28.4440   40.5490 C   0  0  0  0  0  0  0  0  0  0  0  0
   35.2900   28.8770   40.7570 C   0  0  0  0  0  0  0  0  0  0  0  0
   34.5720   29.2660   39.6430 C   0  0  0  0  0  0  0  0  0  0  0  0
   35.1320   29.2230   38.3730 C   0  0  0  0  0  0  0  0  0  0  0  0
   36.4410   28.7850   38.1700 C   0  0  0  0  0  0  0  0  0  0  0  0
   36.8960   28.7820   36.8680 C   0  0  0  0  0  0  0  0  0  0  0  0
   38.1910   28.3500   36.6620 C   0  0  0  0  0  0  0  0  0  0  0  0
   38.9480   27.9520   37.7310 C   0  0  0  0  0  0  0  0  0  0  0  0
   38.4750   27.9620   39.0270 C   0  0  0  0  0  0  0  0  0  0  0  0
   37.1880   28.3850   39.2800 C   0  0  0  0  0  0  0  0  0  0  0  0
   39.3380   30.6800   41.3330 C   0  0  1  0  0  0  0  0  0  0  0  0
   39.7010   30.6630   42.7680 C   0  0  0  0  0  0  0  0  0  0  0  0
   38.4180   30.0270   42.4530 C   0  0  2  0  0  0  0  0  0  0  0  0
   39.8700   30.0110   40.6770 H   0  0  0  0  0  0  0  0  0  0  0  0
   40.5610   30.0550   43.0630 H   0  0  0  0  0  0  0  0  0  0  0  0
   39.6540   31.6710   43.2790 H   0  0  0  0  0  0  0  0  0  0  0  0
   37.4190   30.4900   42.2990 H   0  0  0  0  0  0  0  0  0  0  0  0
   38.7600   31.9310   40.7440 C   0  0  0  0  0  0  0  0  0  0  0  0
   37.7630   31.7700   39.7910 C   0  0  0  0  0  0  0  0  0  0  0  0
   37.1750   32.9070   39.2250 C   0  0  0  0  0  0  0  0  0  0  0  0
   37.6280   34.1350   39.6540 N   0  0  0  0  0  0  0  0  0  0  0  0
   38.5920   34.2410   40.5760 C   0  0  0  0  0  0  0  0  0  0  0  0
   39.1390   33.1320   41.1030 N   0  0  0  0  0  0  0  0  0  0  0  0
   37.2720   30.9510   39.3350 H   0  0  0  0  0  0  0  0  0  0  0  0
   36.4030   32.9940   38.4860 H   0  0  0  0  0  0  0  0  0  0  0  0
   38.9510   35.2030   40.9160 H   0  0  0  0  0  0  0  0  0  0  0  0
  1 23  1  0  0  0  0
  1  2  1  0  0  0  0
  2  3  2  0  0  0  0
  2  7  1  0  0  0  0
  3  8  1  0  0  0  0
  4  9  1  0  0  0  0
  4  3  1  0  0  0  0
  5  4  2  0  0  0  0
  6  5  1  0  0  0  0
  6  1  2  0  0  0  0
 10  5  1  0  0  0  0
 11 12  1  0  0  0  0
 11  6  1  0  0  0  0
 13 12  2  0  0  0  0
 14 13  1  0  0  0  0
 15 14  2  0  0  0  0
 15 20  1  0  0  0  0
 16 15  1  0  0  0  0
 17 16  2  0  0  0  0
 17 18  1  0  0  0  0
 18 19  2  0  0  0  0
 19 20  1  0  0  0  0
 20 11  2  0  0  0  0
 21 24  1  6  0  0  0
 21 23  1  0  0  0  0
 21 22  1  0  0  0  0
 22 25  1  0  0  0  0
 22 26  1  0  0  0  0
 23 27  1  1  0  0  0
 23 22  1  0  0  0  0
 28 33  1  0  0  0  0
 28 21  1  0  0  0  0
 29 28  2  0  0  0  0
 30 31  2  0  0  0  0
 30 29  1  0  0  0  0
 31 32  1  0  0  0  0
 32 36  1  0  0  0  0
 32 33  2  0  0  0  0
 34 29  1  0  0  0  0
 35 30  1  0  0  0  0
M  END
>  <minimizedAffinity>
-6.4566083

>  <minimizedRMSD>
1.69966066

$$$$
