
 OpenBabel03242508043D

 31 34  0  0  0  0  0  0  0  0999 V2000
   37.9680   29.3210   39.7760 C   0  0  0  0  0  0  0  0  0  0  0  0
   37.3960   29.6960   40.9970 C   0  0  0  0  0  0  0  0  0  0  0  0
   36.7250   30.9420   41.0550 C   0  0  0  0  0  0  0  0  0  0  0  0
   36.6800   31.6900   39.9200 N   0  0  0  0  0  0  0  0  0  0  0  0
   37.2470   31.2880   38.7570 C   0  0  0  0  0  0  0  0  0  0  0  0
   37.8930   30.0960   38.6890 N   0  0  0  0  0  0  0  0  0  0  0  0
   36.2910   31.2270   41.9920 H   0  0  0  0  0  0  0  0  0  0  0  0
   37.0820   32.0450   37.9950 H   0  0  0  0  0  0  0  0  0  0  0  0
   37.4210   28.9050   42.1610 N   0  0  0  0  0  0  0  0  0  0  0  0
   38.4160   28.8920   43.2000 C   0  0  0  0  0  0  0  0  0  0  0  0
   38.4050   27.4550   43.6740 C   0  0  0  0  0  0  0  0  0  0  0  0
   37.2430   26.7860   43.0080 C   0  0  0  0  0  0  0  0  0  0  0  0
   36.4140   27.9340   42.5550 C   0  0  0  0  0  0  0  0  0  0  0  0
   39.3890   29.2490   42.8450 H   0  0  0  0  0  0  0  0  0  0  0  0
   38.0370   29.5080   44.0710 H   0  0  0  0  0  0  0  0  0  0  0  0
   39.3430   26.9950   43.2770 H   0  0  0  0  0  0  0  0  0  0  0  0
   38.3870   27.3590   44.7730 H   0  0  0  0  0  0  0  0  0  0  0  0
   37.4820   26.0250   42.2630 H   0  0  0  0  0  0  0  0  0  0  0  0
   36.6370   26.2730   43.8160 H   0  0  0  0  0  0  0  0  0  0  0  0
   35.8560   27.6130   41.6390 H   0  0  0  0  0  0  0  0  0  0  0  0
   35.6900   28.3110   43.2840 H   0  0  0  0  0  0  0  0  0  0  0  0
   38.6670   28.0550   39.6340 C   0  0  0  0  0  0  0  0  0  0  0  0
   40.0500   28.1990   39.8070 C   0  0  0  0  0  0  0  0  0  0  0  0
   40.9080   27.1190   39.6700 C   0  0  0  0  0  0  0  0  0  0  0  0
   40.3830   25.8650   39.3550 C   0  0  0  0  0  0  0  0  0  0  0  0
   39.0170   25.7320   39.1860 C   0  0  0  0  0  0  0  0  0  0  0  0
   38.4070   24.5430   38.8860 C   0  0  0  0  0  0  0  0  0  0  0  0
   37.0270   24.3970   38.7260 C   0  0  0  0  0  0  0  0  0  0  0  0
   36.2480   25.5430   38.8840 C   0  0  0  0  0  0  0  0  0  0  0  0
   36.7990   26.7710   39.1860 C   0  0  0  0  0  0  0  0  0  0  0  0
   38.1780   26.8130   39.3250 C   0  0  0  0  0  0  0  0  0  0  0  0
  1  2  1  0  0  0  0
  2  3  2  0  0  0  0
  2  9  1  0  0  0  0
  3  7  1  0  0  0  0
  4  3  1  0  0  0  0
  5  4  2  0  0  0  0
  6  5  1  0  0  0  0
  6  1  2  0  0  0  0
  8  5  1  0  0  0  0
  9 13  1  0  0  0  0
  9 10  1  0  0  0  0
 10 11  1  0  0  0  0
 10 15  1  0  0  0  0
 11 17  1  0  0  0  0
 12 11  1  0  0  0  0
 12 19  1  0  0  0  0
 13 12  1  0  0  0  0
 13 21  1  0  0  0  0
 14 10  1  0  0  0  0
 16 11  1  0  0  0  0
 18 12  1  0  0  0  0
 20 13  1  0  0  0  0
 22  1  1  0  0  0  0
 22 23  1  0  0  0  0
 24 23  2  0  0  0  0
 25 24  1  0  0  0  0
 26 31  1  0  0  0  0
 26 25  2  0  0  0  0
 27 26  1  0  0  0  0
 28 29  1  0  0  0  0
 28 27  2  0  0  0  0
 29 30  2  0  0  0  0
 30 31  1  0  0  0  0
 31 22  2  0  0  0  0
M  END
>  <minimizedAffinity>
-4.55036783

>  <minimizedRMSD>
5.4041276

$$$$
