
 OpenBabel03242507023D

 20 22  0  0  0  0  0  0  0  0999 V2000
   39.2850   27.2980   42.8060 C   0  0  0  0  0  0  0  0  0  0  0  0
   38.2970   27.3560   43.7880 C   0  0  0  0  0  0  0  0  0  0  0  0
   37.4910   28.4750   43.8130 C   0  0  0  0  0  0  0  0  0  0  0  0
   37.7390   29.4110   42.8800 N   0  0  0  0  0  0  0  0  0  0  0  0
   38.6740   29.3820   41.9330 C   0  0  0  0  0  0  0  0  0  0  0  0
   39.4260   28.2990   41.9360 N   0  0  0  0  0  0  0  0  0  0  0  0
   39.9420   26.4530   42.7370 H   0  0  0  0  0  0  0  0  0  0  0  0
   38.2040   26.5360   44.4760 H   0  0  0  0  0  0  0  0  0  0  0  0
   38.6510   30.5710   41.0960 C   0  0  0  0  0  0  0  0  0  0  0  0
   39.1560   31.7770   41.5230 C   0  0  0  0  0  0  0  0  0  0  0  0
   39.1530   32.9230   40.7600 C   0  0  0  0  0  0  0  0  0  0  0  0
   38.6250   32.9140   39.4890 C   0  0  0  0  0  0  0  0  0  0  0  0
   38.1060   31.7290   39.0140 C   0  0  0  0  0  0  0  0  0  0  0  0
   37.5830   31.7430   37.7390 C   0  0  0  0  0  0  0  0  0  0  0  0
   37.0470   30.5920   37.2020 C   0  0  0  0  0  0  0  0  0  0  0  0
   37.0620   29.4410   37.9950 C   0  0  0  0  0  0  0  0  0  0  0  0
   37.6010   29.5010   39.2580 C   0  0  0  0  0  0  0  0  0  0  0  0
   38.1390   30.6190   39.8240 C   0  0  0  0  0  0  0  0  0  0  0  0
   36.4890   28.5860   44.7720 O   0  0  0  0  0  0  0  0  0  0  0  0
   35.7990   27.8410   44.8000 H   0  0  0  0  0  0  0  0  0  0  0  0
  1  2  1  0  0  0  0
  2  3  2  0  0  0  0
  2  8  1  0  0  0  0
  3 19  1  0  0  0  0
  4  3  1  0  0  0  0
  5  6  1  0  0  0  0
  5  4  2  0  0  0  0
  6  1  2  0  0  0  0
  7  1  1  0  0  0  0
  9 10  1  0  0  0  0
  9  5  1  0  0  0  0
 11 10  2  0  0  0  0
 12 11  1  0  0  0  0
 13 12  2  0  0  0  0
 13 18  1  0  0  0  0
 14 13  1  0  0  0  0
 15 14  2  0  0  0  0
 15 16  1  0  0  0  0
 16 17  2  0  0  0  0
 17 18  1  0  0  0  0
 18  9  2  0  0  0  0
 19 20  1  0  0  0  0
M  END
>  <minimizedAffinity>
-5.29235315

>  <minimizedRMSD>
2.96732163

$$$$
