
 OpenBabel03242509293D

 47 51  0  0  0  0  0  0  0  0999 V2000
   36.1390   30.0710   41.0960 C   0  0  0  0  0  0  0  0  0  0  0  0
   35.5750   30.6190   41.8820 H   0  0  0  0  0  0  0  0  0  0  0  0
   36.7790   30.8490   40.6200 H   0  0  0  0  0  0  0  0  0  0  0  0
   38.5430   28.0690   42.6930 C   0  0  0  0  0  0  0  0  0  0  0  0
   37.4320   27.2620   42.7850 C   0  0  0  0  0  0  0  0  0  0  0  0
   36.3880   27.9550   42.1730 C   0  0  0  0  0  0  0  0  0  0  0  0
   36.9420   29.1090   41.7680 N   0  0  0  0  0  0  0  0  0  0  0  0
   38.1990   29.2090   42.0540 N   0  0  0  0  0  0  0  0  0  0  0  0
   37.4240   26.2910   43.2490 H   0  0  0  0  0  0  0  0  0  0  0  0
   35.3820   27.5690   42.0910 H   0  0  0  0  0  0  0  0  0  0  0  0
   41.4570   26.2570   44.1440 C   0  0  0  0  0  0  0  0  0  0  0  0
   40.1600   26.4870   43.6740 C   0  0  0  0  0  0  0  0  0  0  0  0
   39.8710   27.7720   43.1900 C   0  0  0  0  0  0  0  0  0  0  0  0
   40.8320   28.7410   43.1880 N   0  0  0  0  0  0  0  0  0  0  0  0
   42.0770   28.4370   43.6640 C   0  0  0  0  0  0  0  0  0  0  0  0
   42.3850   27.2160   44.1340 N   0  0  0  0  0  0  0  0  0  0  0  0
   41.6970   25.2680   44.5210 H   0  0  0  0  0  0  0  0  0  0  0  0
   39.3990   25.7160   43.6760 H   0  0  0  0  0  0  0  0  0  0  0  0
   43.0790   29.5150   43.6420 C   0  0  0  0  0  0  0  0  0  0  0  0
   44.3920   29.1970   43.9200 C   0  0  0  0  0  3  0  0  0  0  0  0
   45.3750   30.1890   43.9080 C   0  0  0  0  0  0  0  0  0  0  0  0
   46.4090   30.0030   44.1170 H   0  0  0  0  0  0  0  0  0  0  0  0
   44.9110   31.4520   43.6050 C   0  0  0  0  0  3  0  0  0  0  0  0
   43.6140   31.8220   43.3200 C   0  0  0  0  0  0  0  0  0  0  0  0
   43.3800   32.8520   43.0980 H   0  0  0  0  0  0  0  0  0  0  0  0
   42.6670   30.7910   43.3450 C   0  0  0  0  0  3  0  0  0  0  0  0
   35.2400   29.5260   40.0280 C   0  0  0  0  0  0  0  0  0  0  0  0
   34.7450   28.6390   40.3880 H   0  0  0  0  0  0  0  0  0  0  0  0
   34.5580   30.4330   39.9000 H   0  0  0  0  0  0  0  0  0  0  0  0
   35.8660   29.4270   38.6850 C   0  0  0  0  0  0  0  0  0  0  0  0
   37.1850   29.5590   38.3680 C   0  0  0  0  0  0  0  0  0  0  0  0
   37.7170   29.5420   37.1180 C   0  0  0  0  0  0  0  0  0  0  0  0
   36.8760   29.3780   36.0350 C   0  0  0  0  0  0  0  0  0  0  0  0
   35.5200   29.2370   36.2870 C   0  0  0  0  0  0  0  0  0  0  0  0
   34.7450   29.0810   35.1630 C   0  0  0  0  0  0  0  0  0  0  0  0
   33.3900   28.9290   35.3020 C   0  0  0  0  0  0  0  0  0  0  0  0
   32.8400   28.9350   36.5860 C   0  0  0  0  0  0  0  0  0  0  0  0
   33.6780   29.0950   37.6440 C   0  0  0  0  0  0  0  0  0  0  0  0
   35.0210   29.2570   37.5770 C   0  0  0  0  0  0  0  0  0  0  0  0
   37.8590   29.6900   39.2220 H   0  0  0  0  0  0  0  0  0  0  0  0
   38.7870   29.6560   37.0080 H   0  0  0  0  0  0  0  0  0  0  0  0
   37.3020   29.3680   35.0600 H   0  0  0  0  0  0  0  0  0  0  0  0
   35.1540   29.0710   34.1600 H   0  0  0  0  0  0  0  0  0  0  0  0
   32.7590   28.8070   34.4320 H   0  0  0  0  0  0  0  0  0  0  0  0
   31.7760   28.8100   36.6730 H   0  0  0  0  0  0  0  0  0  0  0  0
   33.0570   29.0730   38.8820 O   0  0  0  0  0  0  0  0  0  0  0  0
   32.4340   28.2800   39.0990 H   0  0  0  0  0  0  0  0  0  0  0  0
  1  7  1  0  0  0  0
  1  2  1  0  0  0  0
  3  1  1  0  0  0  0
  4  5  1  0  0  0  0
  4 13  1  0  0  0  0
  5  9  1  0  0  0  0
  6  5  2  0  0  0  0
  7  8  1  0  0  0  0
  7  6  1  0  0  0  0
  8  4  2  0  0  0  0
 10  6  1  0  0  0  0
 11 17  1  0  0  0  0
 12 18  1  0  0  0  0
 12 11  2  0  0  0  0
 13 12  1  0  0  0  0
 14 13  2  0  0  0  0
 14 15  1  0  0  0  0
 15 16  2  0  0  0  0
 16 11  1  0  0  0  0
 19 15  1  0  0  0  0
 19 20  1  0  0  0  0
 21 20  2  0  0  0  0
 21 22  1  0  0  0  0
 23 21  1  0  0  0  0
 24 26  1  0  0  0  0
 24 23  2  0  0  0  0
 25 24  1  0  0  0  0
 26 19  2  0  0  0  0
 27 28  1  0  0  0  0
 27  1  1  0  0  0  0
 29 27  1  0  0  0  0
 30 27  1  0  0  0  0
 31 30  1  0  0  0  0
 31 40  1  0  0  0  0
 32 31  2  0  0  0  0
 33 34  2  0  0  0  0
 33 32  1  0  0  0  0
 34 39  1  0  0  0  0
 35 36  2  0  0  0  0
 35 34  1  0  0  0  0
 36 37  1  0  0  0  0
 37 45  1  0  0  0  0
 37 38  2  0  0  0  0
 38 46  1  0  0  0  0
 39 38  1  0  0  0  0
 39 30  2  0  0  0  0
 41 32  1  0  0  0  0
 42 33  1  0  0  0  0
 43 35  1  0  0  0  0
 44 36  1  0  0  0  0
 46 47  1  0  0  0  0
M  END
>  <minimizedAffinity>
-6.17091274

>  <minimizedRMSD>
0.47528556

$$$$
