
 OpenBabel03242509293D

 47 51  0  0  0  0  0  0  0  0999 V2000
   36.1300   30.0680   41.0850 C   0  0  0  0  0  0  0  0  0  0  0  0
   35.5580   30.6090   41.8700 H   0  0  0  0  0  0  0  0  0  0  0  0
   36.7510   30.8570   40.6020 H   0  0  0  0  0  0  0  0  0  0  0  0
   38.5800   28.1270   42.6860 C   0  0  0  0  0  0  0  0  0  0  0  0
   37.4890   27.2930   42.7760 C   0  0  0  0  0  0  0  0  0  0  0  0
   36.4290   27.9590   42.1630 C   0  0  0  0  0  0  0  0  0  0  0  0
   36.9550   29.1260   41.7580 N   0  0  0  0  0  0  0  0  0  0  0  0
   38.2090   29.2570   42.0470 N   0  0  0  0  0  0  0  0  0  0  0  0
   37.5040   26.3210   43.2410 H   0  0  0  0  0  0  0  0  0  0  0  0
   35.4330   27.5480   42.0790 H   0  0  0  0  0  0  0  0  0  0  0  0
   41.5160   26.4070   44.2030 C   0  0  0  0  0  0  0  0  0  0  0  0
   40.2140   26.6060   43.7340 C   0  0  0  0  0  0  0  0  0  0  0  0
   39.9140   27.8630   43.1860 C   0  0  0  0  0  0  0  0  0  0  0  0
   40.8690   28.8350   43.1250 N   0  0  0  0  0  0  0  0  0  0  0  0
   42.1200   28.5630   43.6040 C   0  0  0  0  0  0  0  0  0  0  0  0
   42.4390   27.3690   44.1350 N   0  0  0  0  0  0  0  0  0  0  0  0
   41.7650   25.4410   44.6290 H   0  0  0  0  0  0  0  0  0  0  0  0
   39.4570   25.8330   43.7840 H   0  0  0  0  0  0  0  0  0  0  0  0
   43.1170   29.6420   43.5160 C   0  0  0  0  0  0  0  0  0  0  0  0
   43.4400   30.1370   42.2700 C   0  0  0  0  0  3  0  0  0  0  0  0
   44.3800   31.1610   42.1430 C   0  0  0  0  0  0  0  0  0  0  0  0
   44.6710   31.5850   41.2020 H   0  0  0  0  0  0  0  0  0  0  0  0
   44.9190   31.5980   43.3340 C   0  0  0  0  0  3  0  0  0  0  0  0
   44.6310   31.1390   44.6010 C   0  0  0  0  0  0  0  0  0  0  0  0
   45.1260   31.5680   45.4590 H   0  0  0  0  0  0  0  0  0  0  0  0
   43.6830   30.1120   44.6750 C   0  0  0  0  0  3  0  0  0  0  0  0
   35.2380   29.4990   40.0230 C   0  0  0  0  0  0  0  0  0  0  0  0
   34.7630   28.6040   40.3890 H   0  0  0  0  0  0  0  0  0  0  0  0
   34.5370   30.3910   39.8930 H   0  0  0  0  0  0  0  0  0  0  0  0
   35.8610   29.4060   38.6780 C   0  0  0  0  0  0  0  0  0  0  0  0
   37.1810   29.5330   38.3600 C   0  0  0  0  0  0  0  0  0  0  0  0
   37.7100   29.5220   37.1080 C   0  0  0  0  0  0  0  0  0  0  0  0
   36.8660   29.3710   36.0260 C   0  0  0  0  0  0  0  0  0  0  0  0
   35.5100   29.2350   36.2790 C   0  0  0  0  0  0  0  0  0  0  0  0
   34.7310   29.0920   35.1560 C   0  0  0  0  0  0  0  0  0  0  0  0
   33.3750   28.9470   35.2970 C   0  0  0  0  0  0  0  0  0  0  0  0
   32.8280   28.9460   36.5820 C   0  0  0  0  0  0  0  0  0  0  0  0
   33.6690   29.0940   37.6390 C   0  0  0  0  0  0  0  0  0  0  0  0
   35.0130   29.2490   37.5710 C   0  0  0  0  0  0  0  0  0  0  0  0
   37.8570   29.6530   39.2130 H   0  0  0  0  0  0  0  0  0  0  0  0
   38.7800   29.6300   36.9970 H   0  0  0  0  0  0  0  0  0  0  0  0
   37.2900   29.3650   35.0500 H   0  0  0  0  0  0  0  0  0  0  0  0
   35.1380   29.0870   34.1520 H   0  0  0  0  0  0  0  0  0  0  0  0
   32.7420   28.8350   34.4270 H   0  0  0  0  0  0  0  0  0  0  0  0
   31.7640   28.8280   36.6690 H   0  0  0  0  0  0  0  0  0  0  0  0
   33.0500   29.0670   38.8790 O   0  0  0  0  0  0  0  0  0  0  0  0
   32.4240   28.2760   39.0900 H   0  0  0  0  0  0  0  0  0  0  0  0
  1  7  1  0  0  0  0
  1  2  1  0  0  0  0
  3  1  1  0  0  0  0
  4  5  1  0  0  0  0
  4 13  1  0  0  0  0
  5  9  1  0  0  0  0
  6  5  2  0  0  0  0
  7  8  1  0  0  0  0
  7  6  1  0  0  0  0
  8  4  2  0  0  0  0
 10  6  1  0  0  0  0
 11 17  1  0  0  0  0
 12 18  1  0  0  0  0
 12 11  2  0  0  0  0
 13 12  1  0  0  0  0
 14 13  2  0  0  0  0
 14 15  1  0  0  0  0
 15 16  2  0  0  0  0
 16 11  1  0  0  0  0
 19 15  1  0  0  0  0
 19 26  1  0  0  0  0
 20 19  2  0  0  0  0
 21 20  1  0  0  0  0
 21 23  2  0  0  0  0
 22 21  1  0  0  0  0
 23 24  1  0  0  0  0
 24 26  2  0  0  0  0
 24 25  1  0  0  0  0
 27 28  1  0  0  0  0
 27  1  1  0  0  0  0
 29 27  1  0  0  0  0
 30 27  1  0  0  0  0
 31 30  1  0  0  0  0
 31 40  1  0  0  0  0
 32 31  2  0  0  0  0
 33 34  2  0  0  0  0
 33 32  1  0  0  0  0
 34 39  1  0  0  0  0
 35 36  2  0  0  0  0
 35 34  1  0  0  0  0
 36 37  1  0  0  0  0
 37 45  1  0  0  0  0
 37 38  2  0  0  0  0
 38 46  1  0  0  0  0
 39 38  1  0  0  0  0
 39 30  2  0  0  0  0
 41 32  1  0  0  0  0
 42 33  1  0  0  0  0
 43 35  1  0  0  0  0
 44 36  1  0  0  0  0
 46 47  1  0  0  0  0
M  END
>  <minimizedAffinity>
-6.11813736

>  <minimizedRMSD>
0.402302772

$$$$
