
 OpenBabel03242509293D

 47 51  0  0  0  0  0  0  0  0999 V2000
   36.0130   29.9900   40.9580 C   0  0  0  0  0  0  0  0  0  0  0  0
   35.4140   30.5200   41.7300 H   0  0  0  0  0  0  0  0  0  0  0  0
   36.6290   30.7900   40.4880 H   0  0  0  0  0  0  0  0  0  0  0  0
   38.4660   28.0970   42.6120 C   0  0  0  0  0  0  0  0  0  0  0  0
   37.3880   27.2440   42.6840 C   0  0  0  0  0  0  0  0  0  0  0  0
   36.3280   27.8890   42.0490 C   0  0  0  0  0  0  0  0  0  0  0  0
   36.8410   29.0650   41.6500 N   0  0  0  0  0  0  0  0  0  0  0  0
   38.0870   29.2190   41.9630 N   0  0  0  0  0  0  0  0  0  0  0  0
   37.4110   26.2740   43.1520 H   0  0  0  0  0  0  0  0  0  0  0  0
   35.3420   27.4610   41.9460 H   0  0  0  0  0  0  0  0  0  0  0  0
   41.4080   26.4290   44.1740 C   0  0  0  0  0  0  0  0  0  0  0  0
   40.1110   26.6020   43.6790 C   0  0  0  0  0  0  0  0  0  0  0  0
   39.7940   27.8580   43.1390 C   0  0  0  0  0  0  0  0  0  0  0  0
   40.7280   28.8530   43.1100 N   0  0  0  0  0  0  0  0  0  0  0  0
   41.9740   28.6040   43.6140 C   0  0  0  0  0  0  0  0  0  0  0  0
   42.3090   27.4120   44.1370 N   0  0  0  0  0  0  0  0  0  0  0  0
   41.6700   25.4630   44.5940 H   0  0  0  0  0  0  0  0  0  0  0  0
   39.3720   25.8110   43.7030 H   0  0  0  0  0  0  0  0  0  0  0  0
   42.9460   29.7080   43.5600 C   0  0  0  0  0  0  0  0  0  0  0  0
   43.0390   30.4450   42.3970 C   0  0  0  0  0  3  0  0  0  0  0  0
   43.9490   31.5000   42.3050 C   0  0  0  0  0  0  0  0  0  0  0  0
   44.0660   32.1060   41.4290 H   0  0  0  0  0  0  0  0  0  0  0  0
   44.7000   31.7110   43.4410 C   0  0  0  0  0  3  0  0  0  0  0  0
   44.6460   31.0060   44.6250 C   0  0  0  0  0  0  0  0  0  0  0  0
   45.2940   31.2750   45.4460 H   0  0  0  0  0  0  0  0  0  0  0  0
   43.7200   29.9590   44.6660 C   0  0  0  0  0  3  0  0  0  0  0  0
   35.1550   29.4030   39.8780 C   0  0  0  0  0  0  0  0  0  0  0  0
   34.7130   28.4840   40.2250 H   0  0  0  0  0  0  0  0  0  0  0  0
   34.4210   30.2680   39.7550 H   0  0  0  0  0  0  0  0  0  0  0  0
   35.7940   29.3560   38.5390 C   0  0  0  0  0  0  0  0  0  0  0  0
   37.1180   29.4890   38.2410 C   0  0  0  0  0  0  0  0  0  0  0  0
   37.6630   29.5210   36.9970 C   0  0  0  0  0  0  0  0  0  0  0  0
   36.8320   29.4120   35.9000 C   0  0  0  0  0  0  0  0  0  0  0  0
   35.4730   29.2720   36.1310 C   0  0  0  0  0  0  0  0  0  0  0  0
   34.7080   29.1720   34.9940 C   0  0  0  0  0  0  0  0  0  0  0  0
   33.3500   29.0270   35.1120 C   0  0  0  0  0  0  0  0  0  0  0  0
   32.7870   28.9820   36.3900 C   0  0  0  0  0  0  0  0  0  0  0  0
   33.6150   29.0890   37.4620 C   0  0  0  0  0  0  0  0  0  0  0  0
   34.9600   29.2410   37.4160 C   0  0  0  0  0  0  0  0  0  0  0  0
   37.7840   29.5770   39.1070 H   0  0  0  0  0  0  0  0  0  0  0  0
   38.7350   29.6300   36.9030 H   0  0  0  0  0  0  0  0  0  0  0  0
   37.2690   29.4400   34.9300 H   0  0  0  0  0  0  0  0  0  0  0  0
   35.1270   29.2020   33.9950 H   0  0  0  0  0  0  0  0  0  0  0  0
   32.7270   28.9480   34.2320 H   0  0  0  0  0  0  0  0  0  0  0  0
   31.7210   28.8640   36.4600 H   0  0  0  0  0  0  0  0  0  0  0  0
   32.9800   29.0200   38.6920 O   0  0  0  0  0  0  0  0  0  0  0  0
   32.3490   28.2230   38.8670 H   0  0  0  0  0  0  0  0  0  0  0  0
  1  7  1  0  0  0  0
  1  2  1  0  0  0  0
  3  1  1  0  0  0  0
  4  5  1  0  0  0  0
  4 13  1  0  0  0  0
  5  9  1  0  0  0  0
  6  5  2  0  0  0  0
  7  8  1  0  0  0  0
  7  6  1  0  0  0  0
  8  4  2  0  0  0  0
 10  6  1  0  0  0  0
 11 17  1  0  0  0  0
 12 18  1  0  0  0  0
 12 11  2  0  0  0  0
 13 12  1  0  0  0  0
 14 13  2  0  0  0  0
 14 15  1  0  0  0  0
 15 16  2  0  0  0  0
 16 11  1  0  0  0  0
 19 15  1  0  0  0  0
 19 26  1  0  0  0  0
 20 19  2  0  0  0  0
 21 20  1  0  0  0  0
 21 23  2  0  0  0  0
 22 21  1  0  0  0  0
 23 24  1  0  0  0  0
 24 26  2  0  0  0  0
 24 25  1  0  0  0  0
 27 28  1  0  0  0  0
 27  1  1  0  0  0  0
 29 27  1  0  0  0  0
 30 27  1  0  0  0  0
 31 30  1  0  0  0  0
 31 40  1  0  0  0  0
 32 31  2  0  0  0  0
 33 34  2  0  0  0  0
 33 32  1  0  0  0  0
 34 39  1  0  0  0  0
 35 36  2  0  0  0  0
 35 34  1  0  0  0  0
 36 37  1  0  0  0  0
 37 45  1  0  0  0  0
 37 38  2  0  0  0  0
 38 46  1  0  0  0  0
 39 38  1  0  0  0  0
 39 30  2  0  0  0  0
 41 32  1  0  0  0  0
 42 33  1  0  0  0  0
 43 35  1  0  0  0  0
 44 36  1  0  0  0  0
 46 47  1  0  0  0  0
M  END
>  <minimizedAffinity>
-6.13176346

>  <minimizedRMSD>
0.514469147

$$$$
