
 OpenBabel03242505273D

 36 38  0  0  1  0  0  0  0  0999 V2000
   36.8970   31.7050   40.5210 N   0  0  0  0  0  0  0  0  0  0  0  0
   37.2100   32.9200   39.8470 C   0  0  0  0  0  0  0  0  0  0  0  0
   38.5440   32.8540   39.0860 C   0  0  0  0  0  0  0  0  0  0  0  0
   39.5500   32.4570   40.1730 C   0  0  1  0  0  0  0  0  0  0  0  0
   39.2310   31.0190   40.5280 C   0  0  0  0  0  0  0  0  0  0  0  0
   37.9260   31.1020   41.3120 C   0  0  2  0  0  0  0  0  0  0  0  0
   36.5940   31.0090   39.7990 H   0  0  0  0  0  0  0  0  0  0  0  0
   36.4460   33.0810   39.0660 H   0  0  0  0  0  0  0  0  0  0  0  0
   37.2960   33.7980   40.5230 H   0  0  0  0  0  0  0  0  0  0  0  0
   38.5230   32.1480   38.2560 H   0  0  0  0  0  0  0  0  0  0  0  0
   38.7790   33.9010   38.8190 H   0  0  0  0  0  0  0  0  0  0  0  0
   39.0410   32.9830   40.9840 H   0  0  0  0  0  0  0  0  0  0  0  0
   40.0180   30.5330   41.1020 H   0  0  0  0  0  0  0  0  0  0  0  0
   38.9630   30.4660   39.5880 H   0  0  0  0  0  0  0  0  0  0  0  0
   38.1360   31.8050   42.1590 H   0  0  0  0  0  0  0  0  0  0  0  0
   37.4990   29.8150   41.8380 C   0  0  0  0  0  0  0  0  0  0  0  0
   38.2040   29.4270   42.9760 C   0  0  0  0  0  0  0  0  0  0  0  0
   37.9490   28.2320   43.6320 C   0  0  0  0  0  0  0  0  0  0  0  0
   38.4770   27.9060   44.5120 H   0  0  0  0  0  0  0  0  0  0  0  0
   36.9540   27.4040   43.1240 C   0  0  0  0  0  0  0  0  0  0  0  0
   36.2350   27.7720   41.9830 C   0  0  0  0  0  0  0  0  0  0  0  0
   35.4580   27.1400   41.5750 H   0  0  0  0  0  0  0  0  0  0  0  0
   36.5210   28.9650   41.3680 C   0  0  0  0  0  0  0  0  0  0  0  0
   40.8120   32.6340   39.7350 O   0  0  0  0  0  0  0  0  0  0  0  0
   41.4630   33.7850   39.3510 C   0  0  0  0  0  0  0  0  0  0  0  0
   41.7090   33.9590   38.1580 O   0  0  0  0  0  0  0  0  0  0  0  0
   41.8440   34.7720   40.3750 C   0  0  0  0  0  0  0  0  0  0  0  0
   40.9940   35.8300   40.5410 C   0  0  0  0  0  0  0  0  0  0  0  0
   41.2820   36.7410   41.5810 C   0  0  0  0  0  0  0  0  0  0  0  0
   42.3970   36.5010   42.3550 N   0  0  0  0  0  0  0  0  0  0  0  0
   43.1840   35.4340   42.1300 C   0  0  0  0  0  0  0  0  0  0  0  0
   42.9170   34.5370   41.1210 N   0  0  0  0  0  0  0  0  0  0  0  0
   40.1220   36.0260   39.9430 H   0  0  0  0  0  0  0  0  0  0  0  0
   40.6830   37.6000   41.7930 H   0  0  0  0  0  0  0  0  0  0  0  0
   44.6120   35.1790   43.1680 S   0  0  0  0  0  0  0  0  0  0  0  0
   44.6720   33.7910   43.4360 H   0  0  0  0  0  0  0  0  0  0  0  0
  1  6  1  0  0  0  0
  2  1  1  0  0  0  0
  2  9  1  0  0  0  0
  3  2  1  0  0  0  0
  3  4  1  0  0  0  0
  4  5  1  0  0  0  0
  4 12  1  1  0  0  0
  5 13  1  0  0  0  0
  5  6  1  0  0  0  0
  6 16  1  0  0  0  0
  6 15  1  1  0  0  0
  7  1  1  0  0  0  0
  8  2  1  0  0  0  0
 10  3  1  0  0  0  0
 11  3  1  0  0  0  0
 14  5  1  0  0  0  0
 16 17  1  0  0  0  0
 17 18  2  0  0  0  0
 18 19  1  0  0  0  0
 20 18  1  0  0  0  0
 21 20  2  0  0  0  0
 22 21  1  0  0  0  0
 23 16  2  0  0  0  0
 23 21  1  0  0  0  0
 24  4  1  0  0  0  0
 25 24  1  0  0  0  0
 25 27  1  0  0  0  0
 26 25  2  0  0  0  0
 27 28  2  0  0  0  0
 27 32  1  0  0  0  0
 28 29  1  0  0  0  0
 29 34  1  0  0  0  0
 29 30  2  0  0  0  0
 31 30  1  0  0  0  0
 31 35  1  0  0  0  0
 32 31  2  0  0  0  0
 33 28  1  0  0  0  0
 35 36  1  0  0  0  0
M  END
>  <minimizedAffinity>
-6.02982092

>  <minimizedRMSD>
7.18618011

$$$$
