
 OpenBabel03242506583D

 42 46  0  0  0  0  0  0  0  0999 V2000
   40.3650   32.7980   40.8110 C   0  0  0  0  0  0  0  0  0  0  0  0
   41.4310   32.2040   41.5190 C   0  0  0  0  0  0  0  0  0  0  0  0
   41.3150   31.0220   42.2340 C   0  0  0  0  0  0  0  0  0  0  0  0
   40.0840   30.3830   42.2600 C   0  0  0  0  0  0  0  0  0  0  0  0
   39.0300   30.9210   41.5920 C   0  0  0  0  0  0  0  0  0  0  0  0
   37.8480   30.2580   41.6400 C   0  0  0  0  0  0  0  0  0  0  0  0
   36.7090   30.7560   40.9580 C   0  0  0  0  0  0  0  0  0  0  0  0
   36.9070   31.9560   40.2550 C   0  0  0  0  0  0  0  0  0  0  0  0
   38.1260   32.5670   40.2520 C   0  0  0  0  0  0  0  0  0  0  0  0
   39.2300   32.0780   40.9170 C   0  0  0  0  0  0  0  0  0  0  0  0
   42.4280   32.6690   41.5320 H   0  0  0  0  0  0  0  0  0  0  0  0
   42.1680   30.6200   42.7550 H   0  0  0  0  0  0  0  0  0  0  0  0
   39.9450   29.4420   42.8160 H   0  0  0  0  0  0  0  0  0  0  0  0
   35.7410   30.3300   40.9220 H   0  0  0  0  0  0  0  0  0  0  0  0
   36.0820   32.4150   39.6970 H   0  0  0  0  0  0  0  0  0  0  0  0
   38.2290   33.5070   39.6850 H   0  0  0  0  0  0  0  0  0  0  0  0
   40.6770   34.0170   40.1490 C   0  0  0  0  0  0  0  0  0  0  0  0
   40.2770   35.3430   40.4430 C   0  0  0  0  0  0  0  0  0  0  0  0
   40.6970   36.4290   39.6900 C   0  0  0  0  0  0  0  0  0  0  0  0
   41.5180   36.1540   38.6480 N   0  0  0  0  0  0  0  0  0  0  0  0
   41.9100   34.9180   38.3490 C   0  0  0  0  0  0  0  0  0  0  0  0
   41.4930   33.8860   39.0880 N   0  0  0  0  0  0  0  0  0  0  0  0
   39.6170   35.3780   41.3130 H   0  0  0  0  0  0  0  0  0  0  0  0
   40.3330   37.3990   40.0000 H   0  0  0  0  0  0  0  0  0  0  0  0
   42.5700   34.8150   37.4920 H   0  0  0  0  0  0  0  0  0  0  0  0
   37.5010   29.0320   42.3250 C   0  0  0  0  0  0  0  0  0  0  0  0
   37.1810   28.8470   43.6540 C   0  0  0  0  0  0  0  0  0  0  0  0
   36.8300   27.6520   44.2240 C   0  0  0  0  0  0  0  0  0  0  0  0
   36.7770   26.5150   43.4540 C   0  0  0  0  0  0  0  0  0  0  0  0
   37.0950   26.7080   42.1410 C   0  0  0  0  0  0  0  0  0  0  0  0
   37.4390   27.8980   41.6010 N   0  0  0  0  0  0  0  0  0  0  0  0
   37.2280   29.7670   44.2600 H   0  0  0  0  0  0  0  0  0  0  0  0
   36.6090   27.6680   45.2730 H   0  0  0  0  0  0  0  0  0  0  0  0
   36.5050   25.5900   43.8920 H   0  0  0  0  0  0  0  0  0  0  0  0
   37.0780   25.5800   41.2100 C   0  0  0  0  0  0  0  0  0  0  0  0
   37.5370   24.3330   41.6110 C   0  0  0  0  0  0  0  0  0  0  0  0
   37.5670   23.2020   40.8220 C   0  0  0  0  0  0  0  0  0  0  0  0
   37.9390   22.2580   41.1980 H   0  0  0  0  0  0  0  0  0  0  0  0
   37.1060   23.3090   39.5280 C   0  0  0  0  0  0  0  0  0  0  0  0
   36.6400   24.5240   39.0800 C   0  0  0  0  0  0  0  0  0  0  0  0
   36.2700   24.6330   38.0590 H   0  0  0  0  0  0  0  0  0  0  0  0
   36.6310   25.6210   39.9080 C   0  0  0  0  0  0  0  0  0  0  0  0
  1 10  2  0  0  0  0
  1  2  1  0  0  0  0
  2 11  1  0  0  0  0
  2  3  2  0  0  0  0
  3  4  1  0  0  0  0
  3 12  1  0  0  0  0
  4 13  1  0  0  0  0
  5  6  1  0  0  0  0
  5  4  2  0  0  0  0
  6 26  1  0  0  0  0
  7  6  2  0  0  0  0
  8  7  1  0  0  0  0
  9  8  2  0  0  0  0
  9 10  1  0  0  0  0
 10  5  1  0  0  0  0
 14  7  1  0  0  0  0
 15  8  1  0  0  0  0
 16  9  1  0  0  0  0
 17 18  1  0  0  0  0
 17  1  1  0  0  0  0
 18 23  1  0  0  0  0
 19 24  1  0  0  0  0
 19 18  2  0  0  0  0
 20 19  1  0  0  0  0
 21 20  2  0  0  0  0
 21 22  1  0  0  0  0
 22 17  2  0  0  0  0
 25 21  1  0  0  0  0
 26 27  1  0  0  0  0
 27 28  2  0  0  0  0
 27 32  1  0  0  0  0
 28 33  1  0  0  0  0
 29 34  1  0  0  0  0
 29 28  1  0  0  0  0
 30 29  2  0  0  0  0
 31 30  1  0  0  0  0
 31 26  2  0  0  0  0
 35 36  1  0  0  0  0
 35 30  1  0  0  0  0
 37 38  1  0  0  0  0
 37 36  2  0  0  0  0
 39 37  1  0  0  0  0
 40 39  2  0  0  0  0
 40 42  1  0  0  0  0
 41 40  1  0  0  0  0
 42 35  2  0  0  0  0
M  END
>  <minimizedAffinity>
-7.03684092

>  <minimizedRMSD>
2.57571459

$$$$
