
 OpenBabel03242509003D

 24 26  0  0  1  0  0  0  0  0999 V2000
   36.3120   31.0320   40.8240 C   0  0  1  0  0  0  0  0  0  0  0  0
   37.2820   32.0860   40.3950 C   0  0  0  0  0  0  0  0  0  0  0  0
   36.8100   31.1710   39.3630 C   0  0  1  0  0  0  0  0  0  0  0  0
   35.2330   31.2570   40.9470 H   0  0  0  0  0  0  0  0  0  0  0  0
   38.3410   32.0250   40.7050 H   0  0  0  0  0  0  0  0  0  0  0  0
   36.9280   33.1430   40.2850 H   0  0  0  0  0  0  0  0  0  0  0  0
   35.9930   31.5010   38.6500 H   0  0  0  0  0  0  0  0  0  0  0  0
   38.5910   29.0780   42.9740 C   0  0  0  0  0  0  0  0  0  0  0  0
   37.9440   27.8180   43.0100 C   0  0  0  0  0  0  0  0  0  0  0  0
   36.7350   27.6570   42.2880 C   0  0  0  0  0  0  0  0  0  0  0  0
   36.2500   28.7130   41.5960 N   0  0  0  0  0  0  0  0  0  0  0  0
   36.8980   29.9060   41.5830 C   0  0  0  0  0  0  0  0  0  0  0  0
   38.0320   30.0770   42.2530 N   0  0  0  0  0  0  0  0  0  0  0  0
   39.5150   29.2550   43.5060 H   0  0  0  0  0  0  0  0  0  0  0  0
   38.3790   27.0130   43.5810 H   0  0  0  0  0  0  0  0  0  0  0  0
   36.2320   26.6960   42.3090 H   0  0  0  0  0  0  0  0  0  0  0  0
   37.5420   30.0040   38.8590 C   0  0  0  0  0  0  0  0  0  0  0  0
   38.8950   29.7590   38.9560 C   0  0  0  0  0  0  0  0  0  0  0  0
   39.5440   28.6550   38.4890 C   0  0  0  0  0  0  0  0  0  0  0  0
   40.6140   28.5300   38.6020 H   0  0  0  0  0  0  0  0  0  0  0  0
   38.8130   27.6730   37.8580 C   0  0  0  0  0  0  0  0  0  0  0  0
   37.4550   27.8490   37.7230 C   0  0  0  0  0  0  0  0  0  0  0  0
   36.8480   27.0800   37.2230 H   0  0  0  0  0  0  0  0  0  0  0  0
   36.8390   28.9820   38.2110 C   0  0  0  0  0  0  0  0  0  0  0  0
  1  4  1  1  0  0  0
  1 12  1  0  0  0  0
  2  5  1  0  0  0  0
  2  1  1  0  0  0  0
  3  7  1  6  0  0  0
  3  2  1  0  0  0  0
  3  1  1  0  0  0  0
  6  2  1  0  0  0  0
  8  9  1  0  0  0  0
  8 14  1  0  0  0  0
  9 15  1  0  0  0  0
 10 16  1  0  0  0  0
 10  9  2  0  0  0  0
 11 10  1  0  0  0  0
 12 11  2  0  0  0  0
 12 13  1  0  0  0  0
 13  8  2  0  0  0  0
 17 18  1  0  0  0  0
 17  3  1  0  0  0  0
 19 20  1  0  0  0  0
 19 18  2  0  0  0  0
 21 19  1  0  0  0  0
 22 21  2  0  0  0  0
 22 24  1  0  0  0  0
 23 22  1  0  0  0  0
 24 17  2  0  0  0  0
M  END
>  <minimizedAffinity>
-3.96956778

>  <minimizedRMSD>
0.96269387

$$$$
