
 OpenBabel03242500073D

 30 32  0  0  1  0  0  0  0  0999 V2000
   41.7080   31.4070   42.0890 C   0  0  0  0  0  0  0  0  0  0  0  0
   41.9970   30.1430   42.6010 C   0  0  0  0  0  0  0  0  0  0  0  0
   41.0090   29.1700   42.7340 C   0  0  0  0  0  0  0  0  0  0  0  0
   39.7710   29.5290   42.3390 N   0  0  0  0  0  0  0  0  0  0  0  0
   39.4740   30.7510   41.8400 C   0  0  0  0  0  0  0  0  0  0  0  0
   40.4540   31.6750   41.7220 N   0  0  0  0  0  0  0  0  0  0  0  0
   41.2950   27.8770   43.2580 N   0  0  0  0  0  0  0  0  0  0  0  0
   42.3220   27.6970   44.2430 C   0  0  0  0  0  0  0  0  0  0  0  0
   42.8320   26.2830   44.3040 C   0  0  0  0  0  0  0  0  0  0  0  0
   42.2140   25.4020   43.4600 O   0  0  0  0  0  0  0  0  0  0  0  0
   40.8540   25.5350   43.4350 C   0  0  0  0  0  0  0  0  0  0  0  0
   40.4890   26.7920   42.7360 C   0  0  1  0  0  0  0  0  0  0  0  0
   42.4500   32.1770   41.9740 H   0  0  0  0  0  0  0  0  0  0  0  0
   43.0130   29.9810   42.8760 H   0  0  0  0  0  0  0  0  0  0  0  0
   38.4250   30.8800   41.5680 H   0  0  0  0  0  0  0  0  0  0  0  0
   43.1990   28.3230   43.9860 H   0  0  0  0  0  0  0  0  0  0  0  0
   41.9980   28.0680   45.2570 H   0  0  0  0  0  0  0  0  0  0  0  0
   42.6490   25.9090   45.3390 H   0  0  0  0  0  0  0  0  0  0  0  0
   43.9410   26.2010   44.1740 H   0  0  0  0  0  0  0  0  0  0  0  0
   40.3060   24.6490   43.0830 H   0  0  0  0  0  0  0  0  0  0  0  0
   40.5360   25.6710   44.5100 H   0  0  0  0  0  0  0  0  0  0  0  0
   40.7460   26.7070   41.6590 H   0  0  0  0  0  0  0  0  0  0  0  0
   39.0410   27.1090   42.8100 C   0  0  0  0  0  0  0  0  0  0  0  0
   38.2410   27.0500   41.6690 C   0  0  0  0  0  0  0  0  0  0  0  0
   36.9000   27.3190   41.6140 C   0  0  0  0  0  0  0  0  0  0  0  0
   36.3730   27.2410   40.6650 H   0  0  0  0  0  0  0  0  0  0  0  0
   36.2980   27.6740   42.7910 C   0  0  0  0  0  0  0  0  0  0  0  0
   37.0180   27.7570   43.9730 C   0  0  0  0  0  0  0  0  0  0  0  0
   36.5300   28.0420   44.9000 H   0  0  0  0  0  0  0  0  0  0  0  0
   38.3710   27.4780   43.9770 C   0  0  0  0  0  0  0  0  0  0  0  0
  1  2  1  0  0  0  0
  2  3  2  0  0  0  0
  2 14  1  0  0  0  0
  3  7  1  0  0  0  0
  4  3  1  0  0  0  0
  5  4  2  0  0  0  0
  6  5  1  0  0  0  0
  6  1  2  0  0  0  0
  7  8  1  0  0  0  0
  8  9  1  0  0  0  0
  8 17  1  0  0  0  0
  9 18  1  0  0  0  0
 10  9  1  0  0  0  0
 11 10  1  0  0  0  0
 11 21  1  0  0  0  0
 12 22  1  6  0  0  0
 12 23  1  0  0  0  0
 12  7  1  0  0  0  0
 12 11  1  0  0  0  0
 13  1  1  0  0  0  0
 15  5  1  0  0  0  0
 16  8  1  0  0  0  0
 19  9  1  0  0  0  0
 20 11  1  0  0  0  0
 23 30  1  0  0  0  0
 24 23  2  0  0  0  0
 25 24  1  0  0  0  0
 25 27  2  0  0  0  0
 26 25  1  0  0  0  0
 27 28  1  0  0  0  0
 28 30  2  0  0  0  0
 28 29  1  0  0  0  0
M  END
>  <minimizedAffinity>
-4.79748249

>  <minimizedRMSD>
5.14196157

$$$$
