
 OpenBabel03242509283D

 47 51  0  0  0  0  0  0  0  0999 V2000
   36.0140   29.9950   40.9540 C   0  0  0  0  0  0  0  0  0  0  0  0
   35.4180   30.5280   41.7260 H   0  0  0  0  0  0  0  0  0  0  0  0
   36.6350   30.7920   40.4840 H   0  0  0  0  0  0  0  0  0  0  0  0
   38.4560   28.0890   42.6100 C   0  0  0  0  0  0  0  0  0  0  0  0
   37.3750   27.2400   42.6770 C   0  0  0  0  0  0  0  0  0  0  0  0
   36.3190   27.8910   42.0410 C   0  0  0  0  0  0  0  0  0  0  0  0
   36.8370   29.0650   41.6460 N   0  0  0  0  0  0  0  0  0  0  0  0
   38.0830   29.2130   41.9620 N   0  0  0  0  0  0  0  0  0  0  0  0
   37.3930   26.2690   43.1430 H   0  0  0  0  0  0  0  0  0  0  0  0
   35.3310   27.4660   41.9360 H   0  0  0  0  0  0  0  0  0  0  0  0
   41.3890   26.4030   44.1700 C   0  0  0  0  0  0  0  0  0  0  0  0
   40.0950   26.5830   43.6720 C   0  0  0  0  0  0  0  0  0  0  0  0
   39.7820   27.8440   43.1390 C   0  0  0  0  0  0  0  0  0  0  0  0
   40.7180   28.8360   43.1190 N   0  0  0  0  0  0  0  0  0  0  0  0
   41.9620   28.5810   43.6250 C   0  0  0  0  0  0  0  0  0  0  0  0
   42.2920   27.3850   44.1420 N   0  0  0  0  0  0  0  0  0  0  0  0
   41.6480   25.4350   44.5840 H   0  0  0  0  0  0  0  0  0  0  0  0
   39.3540   25.7930   43.6880 H   0  0  0  0  0  0  0  0  0  0  0  0
   42.9370   29.6830   43.5820 C   0  0  0  0  0  0  0  0  0  0  0  0
   43.7200   29.9120   44.6930 C   0  0  0  0  0  3  0  0  0  0  0  0
   44.6570   30.9470   44.6920 C   0  0  0  0  0  0  0  0  0  0  0  0
   45.2920   31.1720   45.5270 H   0  0  0  0  0  0  0  0  0  0  0  0
   44.7090   31.6740   43.5230 C   0  0  0  0  0  3  0  0  0  0  0  0
   43.9510   31.4880   42.3860 C   0  0  0  0  0  0  0  0  0  0  0  0
   44.0880   32.1290   41.5300 H   0  0  0  0  0  0  0  0  0  0  0  0
   43.0270   30.4380   42.4370 C   0  0  0  0  0  3  0  0  0  0  0  0
   35.1530   29.4130   39.8740 C   0  0  0  0  0  0  0  0  0  0  0  0
   34.7050   28.4960   40.2210 H   0  0  0  0  0  0  0  0  0  0  0  0
   34.4230   30.2830   39.7510 H   0  0  0  0  0  0  0  0  0  0  0  0
   35.7920   29.3630   38.5340 C   0  0  0  0  0  0  0  0  0  0  0  0
   37.1160   29.4980   38.2360 C   0  0  0  0  0  0  0  0  0  0  0  0
   37.6600   29.5260   36.9920 C   0  0  0  0  0  0  0  0  0  0  0  0
   36.8290   29.4120   35.8950 C   0  0  0  0  0  0  0  0  0  0  0  0
   35.4700   29.2710   36.1270 C   0  0  0  0  0  0  0  0  0  0  0  0
   34.7050   29.1650   34.9910 C   0  0  0  0  0  0  0  0  0  0  0  0
   33.3470   29.0180   35.1100 C   0  0  0  0  0  0  0  0  0  0  0  0
   32.7840   28.9770   36.3880 C   0  0  0  0  0  0  0  0  0  0  0  0
   33.6130   29.0890   37.4600 C   0  0  0  0  0  0  0  0  0  0  0  0
   34.9570   29.2430   37.4130 C   0  0  0  0  0  0  0  0  0  0  0  0
   37.7810   29.5890   39.1010 H   0  0  0  0  0  0  0  0  0  0  0  0
   38.7310   29.6360   36.8970 H   0  0  0  0  0  0  0  0  0  0  0  0
   37.2650   29.4380   34.9250 H   0  0  0  0  0  0  0  0  0  0  0  0
   35.1230   29.1930   33.9920 H   0  0  0  0  0  0  0  0  0  0  0  0
   32.7240   28.9360   34.2300 H   0  0  0  0  0  0  0  0  0  0  0  0
   31.7180   28.8570   36.4590 H   0  0  0  0  0  0  0  0  0  0  0  0
   32.9790   29.0220   38.6900 O   0  0  0  0  0  0  0  0  0  0  0  0
   32.3480   28.2250   38.8680 H   0  0  0  0  0  0  0  0  0  0  0  0
  1  7  1  0  0  0  0
  1  2  1  0  0  0  0
  3  1  1  0  0  0  0
  4  5  1  0  0  0  0
  4 13  1  0  0  0  0
  5  9  1  0  0  0  0
  6  5  2  0  0  0  0
  7  8  1  0  0  0  0
  7  6  1  0  0  0  0
  8  4  2  0  0  0  0
 10  6  1  0  0  0  0
 11 17  1  0  0  0  0
 12 18  1  0  0  0  0
 12 11  2  0  0  0  0
 13 12  1  0  0  0  0
 14 13  2  0  0  0  0
 14 15  1  0  0  0  0
 15 16  2  0  0  0  0
 16 11  1  0  0  0  0
 19 15  1  0  0  0  0
 19 20  1  0  0  0  0
 21 20  2  0  0  0  0
 21 22  1  0  0  0  0
 23 21  1  0  0  0  0
 24 26  1  0  0  0  0
 24 23  2  0  0  0  0
 25 24  1  0  0  0  0
 26 19  2  0  0  0  0
 27 28  1  0  0  0  0
 27  1  1  0  0  0  0
 29 27  1  0  0  0  0
 30 27  1  0  0  0  0
 31 30  1  0  0  0  0
 31 40  1  0  0  0  0
 32 31  2  0  0  0  0
 33 34  2  0  0  0  0
 33 32  1  0  0  0  0
 34 39  1  0  0  0  0
 35 36  2  0  0  0  0
 35 34  1  0  0  0  0
 36 37  1  0  0  0  0
 37 45  1  0  0  0  0
 37 38  2  0  0  0  0
 38 46  1  0  0  0  0
 39 38  1  0  0  0  0
 39 30  2  0  0  0  0
 41 32  1  0  0  0  0
 42 33  1  0  0  0  0
 43 35  1  0  0  0  0
 44 36  1  0  0  0  0
 46 47  1  0  0  0  0
M  END
>  <minimizedAffinity>
-6.13975191

>  <minimizedRMSD>
0.526171446

$$$$
