
 OpenBabel03242509283D

 47 51  0  0  0  0  0  0  0  0999 V2000
   36.1450   30.0810   41.0900 C   0  0  0  0  0  0  0  0  0  0  0  0
   35.5800   30.6300   41.8740 H   0  0  0  0  0  0  0  0  0  0  0  0
   36.7750   30.8620   40.6050 H   0  0  0  0  0  0  0  0  0  0  0  0
   38.5770   28.1170   42.6910 C   0  0  0  0  0  0  0  0  0  0  0  0
   37.4750   27.2980   42.7920 C   0  0  0  0  0  0  0  0  0  0  0  0
   36.4210   27.9750   42.1800 C   0  0  0  0  0  0  0  0  0  0  0  0
   36.9610   29.1320   41.7650 N   0  0  0  0  0  0  0  0  0  0  0  0
   38.2180   29.2480   42.0470 N   0  0  0  0  0  0  0  0  0  0  0  0
   37.4790   26.3290   43.2630 H   0  0  0  0  0  0  0  0  0  0  0  0
   35.4200   27.5770   42.1030 H   0  0  0  0  0  0  0  0  0  0  0  0
   41.4920   26.3740   44.2210 C   0  0  0  0  0  0  0  0  0  0  0  0
   40.1900   26.5870   43.7590 C   0  0  0  0  0  0  0  0  0  0  0  0
   39.9100   27.8380   43.1860 C   0  0  0  0  0  0  0  0  0  0  0  0
   40.8830   28.7890   43.0960 N   0  0  0  0  0  0  0  0  0  0  0  0
   42.1330   28.5030   43.5710 C   0  0  0  0  0  0  0  0  0  0  0  0
   42.4330   27.3150   44.1250 N   0  0  0  0  0  0  0  0  0  0  0  0
   41.7260   25.4120   44.6660 H   0  0  0  0  0  0  0  0  0  0  0  0
   39.4190   25.8300   43.8310 H   0  0  0  0  0  0  0  0  0  0  0  0
   43.1490   29.5610   43.4520 C   0  0  0  0  0  0  0  0  0  0  0  0
   44.4760   29.1920   43.3740 C   0  0  0  0  0  3  0  0  0  0  0  0
   45.4710   30.1650   43.2590 C   0  0  0  0  0  0  0  0  0  0  0  0
   46.5170   29.9380   43.1950 H   0  0  0  0  0  0  0  0  0  0  0  0
   45.0050   31.4610   43.2340 C   0  0  0  0  0  3  0  0  0  0  0  0
   43.6950   31.8830   43.3070 C   0  0  0  0  0  0  0  0  0  0  0  0
   43.4610   32.9360   43.2770 H   0  0  0  0  0  0  0  0  0  0  0  0
   42.7360   30.8700   43.4210 C   0  0  0  0  0  3  0  0  0  0  0  0
   35.2470   29.5190   40.0300 C   0  0  0  0  0  0  0  0  0  0  0  0
   34.7650   28.6280   40.3980 H   0  0  0  0  0  0  0  0  0  0  0  0
   34.5530   30.4170   39.9010 H   0  0  0  0  0  0  0  0  0  0  0  0
   35.8660   29.4200   38.6840 C   0  0  0  0  0  0  0  0  0  0  0  0
   37.1850   29.5480   38.3610 C   0  0  0  0  0  0  0  0  0  0  0  0
   37.7100   29.5310   37.1080 C   0  0  0  0  0  0  0  0  0  0  0  0
   36.8640   29.3720   36.0290 C   0  0  0  0  0  0  0  0  0  0  0  0
   35.5080   29.2340   36.2870 C   0  0  0  0  0  0  0  0  0  0  0  0
   34.7270   29.0810   35.1670 C   0  0  0  0  0  0  0  0  0  0  0  0
   33.3720   28.9340   35.3120 C   0  0  0  0  0  0  0  0  0  0  0  0
   32.8290   28.9390   36.5990 C   0  0  0  0  0  0  0  0  0  0  0  0
   33.6730   29.0960   37.6530 C   0  0  0  0  0  0  0  0  0  0  0  0
   35.0150   29.2530   37.5800 C   0  0  0  0  0  0  0  0  0  0  0  0
   37.8630   29.6760   39.2110 H   0  0  0  0  0  0  0  0  0  0  0  0
   38.7790   29.6420   36.9930 H   0  0  0  0  0  0  0  0  0  0  0  0
   37.2850   29.3610   35.0520 H   0  0  0  0  0  0  0  0  0  0  0  0
   35.1310   29.0720   34.1620 H   0  0  0  0  0  0  0  0  0  0  0  0
   32.7360   28.8150   34.4450 H   0  0  0  0  0  0  0  0  0  0  0  0
   31.7650   28.8180   36.6900 H   0  0  0  0  0  0  0  0  0  0  0  0
   33.0570   29.0740   38.8950 O   0  0  0  0  0  0  0  0  0  0  0  0
   32.4330   28.2820   39.1130 H   0  0  0  0  0  0  0  0  0  0  0  0
  1  7  1  0  0  0  0
  1  2  1  0  0  0  0
  3  1  1  0  0  0  0
  4  5  1  0  0  0  0
  4 13  1  0  0  0  0
  5  9  1  0  0  0  0
  6  5  2  0  0  0  0
  7  8  1  0  0  0  0
  7  6  1  0  0  0  0
  8  4  2  0  0  0  0
 10  6  1  0  0  0  0
 11 17  1  0  0  0  0
 12 18  1  0  0  0  0
 12 11  2  0  0  0  0
 13 12  1  0  0  0  0
 14 13  2  0  0  0  0
 14 15  1  0  0  0  0
 15 16  2  0  0  0  0
 16 11  1  0  0  0  0
 19 15  1  0  0  0  0
 20 19  2  0  0  0  0
 21 20  1  0  0  0  0
 22 21  1  0  0  0  0
 23 21  2  0  0  0  0
 23 24  1  0  0  0  0
 24 26  2  0  0  0  0
 25 24  1  0  0  0  0
 26 19  1  0  0  0  0
 27 28  1  0  0  0  0
 27  1  1  0  0  0  0
 29 27  1  0  0  0  0
 30 27  1  0  0  0  0
 31 30  1  0  0  0  0
 31 40  1  0  0  0  0
 32 31  2  0  0  0  0
 33 34  2  0  0  0  0
 33 32  1  0  0  0  0
 34 39  1  0  0  0  0
 35 36  2  0  0  0  0
 35 34  1  0  0  0  0
 36 37  1  0  0  0  0
 37 45  1  0  0  0  0
 37 38  2  0  0  0  0
 38 46  1  0  0  0  0
 39 38  1  0  0  0  0
 39 30  2  0  0  0  0
 41 32  1  0  0  0  0
 42 33  1  0  0  0  0
 43 35  1  0  0  0  0
 44 36  1  0  0  0  0
 46 47  1  0  0  0  0
M  END
>  <minimizedAffinity>
-6.15440941

>  <minimizedRMSD>
0.337275505

$$$$
