
 OpenBabel03242509233D

 46 50  0  0  0  0  0  0  0  0999 V2000
   38.9280   30.3580   37.7600 C   0  0  0  0  0  0  0  0  0  0  0  0
   40.1360   31.0240   37.7770 C   0  0  0  0  0  0  0  0  0  0  0  0
   41.3610   30.5070   37.4500 C   0  0  0  0  0  0  0  0  0  0  0  0
   41.4440   29.1850   37.0550 C   0  0  0  0  0  0  0  0  0  0  0  0
   40.2670   28.4490   37.0140 C   0  0  0  0  0  0  0  0  0  0  0  0
   40.4280   27.1460   36.6140 C   0  0  0  0  0  0  0  0  0  0  0  0
   39.3300   26.3490   36.5450 C   0  0  0  0  0  0  0  0  0  0  0  0
   38.0960   26.8680   36.8730 C   0  0  0  0  0  0  0  0  0  0  0  0
   38.0070   28.1850   37.2660 C   0  0  0  0  0  0  0  0  0  0  0  0
   39.0670   29.0300   37.3550 C   0  0  0  0  0  0  0  0  0  0  0  0
   40.1240   32.0590   38.0850 H   0  0  0  0  0  0  0  0  0  0  0  0
   42.2570   31.1090   37.4930 H   0  0  0  0  0  0  0  0  0  0  0  0
   42.4220   28.8120   36.8040 H   0  0  0  0  0  0  0  0  0  0  0  0
   41.3970   26.7420   36.3580 H   0  0  0  0  0  0  0  0  0  0  0  0
   39.4940   25.3050   36.2220 H   0  0  0  0  0  0  0  0  0  0  0  0
   37.3060   26.1190   36.7730 H   0  0  0  0  0  0  0  0  0  0  0  0
   36.6090   28.4460   37.5590 C   0  0  0  0  0  0  0  0  0  0  0  0
   35.7650   28.4320   38.6550 C   0  0  0  0  0  0  0  0  0  0  0  0
   34.4210   28.6920   38.5930 C   0  0  0  0  0  0  0  0  0  0  0  0
   34.0000   28.6150   39.5870 H   0  0  0  0  0  0  0  0  0  0  0  0
   33.8010   28.9930   37.4030 C   0  0  0  0  0  0  0  0  0  0  0  0
   34.5720   29.0270   36.2630 C   0  0  0  0  0  0  0  0  0  0  0  0
   34.0440   29.2660   35.3580 H   0  0  0  0  0  0  0  0  0  0  0  0
   35.9240   28.7630   36.3460 C   0  0  0  0  0  0  0  0  0  0  0  0
   37.6050   30.8860   38.0990 C   0  0  0  0  0  0  0  0  0  0  0  0
   37.3750   31.7280   37.4950 H   0  0  0  0  0  0  0  0  0  0  0  0
   36.8720   30.0890   38.3150 H   0  0  0  0  0  0  0  0  0  0  0  0
   37.5500   31.5570   39.4590 C   0  0  0  0  0  0  0  0  0  0  0  0
   38.2530   32.4010   39.4540 H   0  0  0  0  0  0  0  0  0  0  0  0
   36.5490   32.0480   39.6610 H   0  0  0  0  0  0  0  0  0  0  0  0
   38.4180   29.2570   42.0080 C   0  0  0  0  0  0  0  0  0  0  0  0
   37.1070   29.5220   42.3370 C   0  0  0  0  0  0  0  0  0  0  0  0
   36.6530   30.4260   41.3830 C   0  0  0  0  0  0  0  0  0  0  0  0
   37.7040   30.6480   40.5480 N   0  0  0  0  0  0  0  0  0  0  0  0
   38.7180   29.9670   40.9190 N   0  0  0  0  0  0  0  0  0  0  0  0
   36.5830   29.0780   43.1930 H   0  0  0  0  0  0  0  0  0  0  0  0
   35.6310   30.7640   41.4690 H   0  0  0  0  0  0  0  0  0  0  0  0
   39.7310   26.4260   44.0400 C   0  0  0  0  0  0  0  0  0  0  0  0
   38.8130   27.2280   43.3590 C   0  0  0  0  0  0  0  0  0  0  0  0
   39.3140   28.3840   42.7180 C   0  0  0  0  0  0  0  0  0  0  0  0
   40.6330   28.6760   42.7810 N   0  0  0  0  0  0  0  0  0  0  0  0
   41.4760   27.8390   43.4690 C   0  0  0  0  0  0  0  0  0  0  0  0
   41.0350   26.7430   44.0830 N   0  0  0  0  0  0  0  0  0  0  0  0
   39.2940   25.5500   44.5140 H   0  0  0  0  0  0  0  0  0  0  0  0
   37.7700   27.0050   43.3050 H   0  0  0  0  0  0  0  0  0  0  0  0
   42.5280   28.1020   43.5000 H   0  0  0  0  0  0  0  0  0  0  0  0
  1  2  1  0  0  0  0
  1 25  1  0  0  0  0
  2 11  1  0  0  0  0
  3 12  1  0  0  0  0
  3  2  2  0  0  0  0
  4  3  1  0  0  0  0
  5  4  2  0  0  0  0
  5 10  1  0  0  0  0
  6  5  1  0  0  0  0
  7  6  2  0  0  0  0
  7  8  1  0  0  0  0
  8  9  2  0  0  0  0
  9 10  1  0  0  0  0
  9 17  1  0  0  0  0
 10  1  2  0  0  0  0
 13  4  1  0  0  0  0
 14  6  1  0  0  0  0
 15  7  1  0  0  0  0
 16  8  1  0  0  0  0
 17 18  1  0  0  0  0
 19 18  2  0  0  0  0
 19 20  1  0  0  0  0
 21 19  1  0  0  0  0
 22 24  1  0  0  0  0
 22 21  2  0  0  0  0
 23 22  1  0  0  0  0
 24 17  2  0  0  0  0
 25 27  1  0  0  0  0
 25 28  1  0  0  0  0
 26 25  1  0  0  0  0
 28 30  1  0  0  0  0
 28 34  1  0  0  0  0
 29 28  1  0  0  0  0
 31 32  1  0  0  0  0
 31 40  1  0  0  0  0
 32 36  1  0  0  0  0
 33 37  1  0  0  0  0
 33 32  2  0  0  0  0
 34 35  1  0  0  0  0
 34 33  1  0  0  0  0
 35 31  2  0  0  0  0
 38 43  1  0  0  0  0
 38 44  1  0  0  0  0
 39 38  2  0  0  0  0
 40 41  2  0  0  0  0
 40 39  1  0  0  0  0
 41 42  1  0  0  0  0
 42 46  1  0  0  0  0
 42 43  2  0  0  0  0
 45 39  1  0  0  0  0
M  END
>  <minimizedAffinity>
-5.60380507

>  <minimizedRMSD>
3.61633849

$$$$
