
 OpenBabel03242508413D

 30 32  0  0  1  0  0  0  0  0999 V2000
   38.2900   26.8430   42.8960 C   0  0  2  0  0  0  0  0  0  0  0  0
   39.5250   27.0600   43.7140 C   0  0  0  0  0  0  0  0  0  0  0  0
   40.1010   25.6540   43.8370 C   0  0  0  0  0  0  0  0  0  0  0  0
   39.3690   24.8210   42.8280 C   0  0  0  0  0  0  0  0  0  0  0  0
   38.7870   25.8730   41.8550 C   0  0  1  0  0  0  0  0  0  0  0  0
   37.4970   26.3850   43.5220 H   0  0  0  0  0  0  0  0  0  0  0  0
   39.3650   27.5410   44.6920 H   0  0  0  0  0  0  0  0  0  0  0  0
   40.2470   27.6690   43.1010 H   0  0  0  0  0  0  0  0  0  0  0  0
   41.1710   25.6380   43.5600 H   0  0  0  0  0  0  0  0  0  0  0  0
   39.9410   25.3290   44.8800 H   0  0  0  0  0  0  0  0  0  0  0  0
   38.5530   24.3080   43.3730 H   0  0  0  0  0  0  0  0  0  0  0  0
   40.0030   24.1040   42.2730 H   0  0  0  0  0  0  0  0  0  0  0  0
   39.6570   26.3300   41.3350 H   0  0  0  0  0  0  0  0  0  0  0  0
   38.4440   29.2870   42.0600 C   0  0  0  0  0  0  0  0  0  0  0  0
   37.7500   28.0690   42.2990 C   0  0  0  0  0  0  0  0  0  0  0  0
   36.4090   27.9920   41.9200 C   0  0  0  0  0  0  0  0  0  0  0  0
   35.8330   29.0700   41.3470 N   0  0  0  0  0  0  0  0  0  0  0  0
   36.5170   30.2380   41.1240 C   0  0  0  0  0  0  0  0  0  0  0  0
   37.8340   30.3230   41.4930 N   0  0  0  0  0  0  0  0  0  0  0  0
   39.4730   29.2360   42.3910 H   0  0  0  0  0  0  0  0  0  0  0  0
   35.6470   27.2520   41.9820 H   0  0  0  0  0  0  0  0  0  0  0  0
   36.0950   31.1240   40.6690 H   0  0  0  0  0  0  0  0  0  0  0  0
   37.8330   25.2640   40.9540 C   0  0  0  0  0  0  0  0  0  0  0  0
   37.9440   25.5900   39.5950 C   0  0  0  0  0  0  0  0  0  0  0  0
   37.0710   24.9940   38.6950 C   0  0  0  0  0  0  0  0  0  0  0  0
   37.1750   25.2610   37.6480 H   0  0  0  0  0  0  0  0  0  0  0  0
   36.1110   24.0970   39.1160 C   0  0  0  0  0  0  0  0  0  0  0  0
   36.0430   23.8080   40.4720 C   0  0  0  0  0  0  0  0  0  0  0  0
   35.2640   23.0950   40.7360 H   0  0  0  0  0  0  0  0  0  0  0  0
   36.8760   24.3590   41.4340 C   0  0  0  0  0  0  0  0  0  0  0  0
  1  6  1  1  0  0  0
  1  2  1  0  0  0  0
  2  3  1  0  0  0  0
  2  7  1  0  0  0  0
  3 10  1  0  0  0  0
  4 11  1  0  0  0  0
  4  3  1  0  0  0  0
  5 13  1  6  0  0  0
  5  4  1  0  0  0  0
  5  1  1  0  0  0  0
  8  2  1  0  0  0  0
  9  3  1  0  0  0  0
 12  4  1  0  0  0  0
 14 15  1  0  0  0  0
 14 20  1  0  0  0  0
 15  1  1  0  0  0  0
 16 21  1  0  0  0  0
 16 15  2  0  0  0  0
 17 16  1  0  0  0  0
 18 17  2  0  0  0  0
 18 19  1  0  0  0  0
 19 14  2  0  0  0  0
 22 18  1  0  0  0  0
 23 30  1  0  0  0  0
 23  5  1  0  0  0  0
 24 23  2  0  0  0  0
 25 27  2  0  0  0  0
 25 24  1  0  0  0  0
 26 25  1  0  0  0  0
 27 28  1  0  0  0  0
 28 29  1  0  0  0  0
 28 30  2  0  0  0  0
M  END
>  <minimizedAffinity>
-4.88307142

>  <minimizedRMSD>
1.20749438

$$$$
