
 OpenBabel03242508223D

 12 12  0  0  0  0  0  0  0  0999 V2000
   38.6740   28.7790   43.1860 C   0  0  0  0  0  0  0  0  0  0  0  0
   38.1250   27.4820   43.4000 C   0  0  0  0  0  0  0  0  0  0  0  0
   36.9020   27.2190   42.7650 C   0  0  0  0  0  0  0  0  0  0  0  0
   36.3170   28.1750   42.0020 N   0  0  0  0  0  0  0  0  0  0  0  0
   36.8880   29.3930   41.8350 C   0  0  0  0  0  0  0  0  0  0  0  0
   38.0580   29.6930   42.4220 N   0  0  0  0  0  0  0  0  0  0  0  0
   39.6170   29.0280   43.6570 H   0  0  0  0  0  0  0  0  0  0  0  0
   38.6280   26.7500   44.0180 H   0  0  0  0  0  0  0  0  0  0  0  0
   36.4810   26.2370   42.9240 H   0  0  0  0  0  0  0  0  0  0  0  0
   36.0910   30.1730   41.0180 O   0  0  0  0  0  0  0  0  0  0  0  0
   36.6500   31.3350   40.4500 C   0  0  0  0  0  0  0  0  0  0  0  0
   36.3270   31.3820   39.3910 H   0  0  0  0  0  0  0  0  0  0  0  0
  1  2  1  0  0  0  0
  1  7  1  0  0  0  0
  2  8  1  0  0  0  0
  3  9  1  0  0  0  0
  3  2  2  0  0  0  0
  4  3  1  0  0  0  0
  5  4  2  0  0  0  0
  5  6  1  0  0  0  0
  6  1  2  0  0  0  0
 10  5  1  0  0  0  0
 11 10  1  0  0  0  0
 12 11  1  0  0  0  0
M  END
>  <minimizedAffinity>
-2.77136612

>  <minimizedRMSD>
0.505364776

$$$$
