
 OpenBabel03242508253D

 22 24  0  0  0  0  0  0  0  0999 V2000
   37.0770   31.5820   40.5000 C   0  0  0  0  0  0  0  0  0  0  0  0
   36.9190   31.5800   39.1470 N   0  0  0  0  0  0  0  0  0  0  0  0
   37.7290   32.4760   38.6330 O   0  0  0  0  0  0  0  0  0  0  0  0
   38.3790   33.0270   39.6210 C   0  0  0  0  0  0  0  0  0  0  0  0
   38.0110   32.5080   40.7980 N   0  0  0  0  0  0  0  0  0  0  0  0
   39.3640   34.0520   39.5420 N   0  0  0  0  0  0  0  0  0  0  0  0
   40.7310   33.8540   39.0950 C   0  0  0  0  0  0  0  0  0  0  0  0
   41.6620   34.9100   39.5780 C   0  0  0  0  0  0  0  0  0  0  0  0
   41.3530   35.4840   40.9180 C   0  0  0  0  0  0  0  0  0  0  0  0
   41.7510   36.5390   41.0030 H   0  0  0  0  0  0  0  0  0  0  0  0
   39.8800   35.6120   41.2240 C   0  0  0  0  0  0  0  0  0  0  0  0
   39.1360   35.4410   39.9020 C   0  0  0  0  0  0  0  0  0  0  0  0
   36.4410   30.8120   41.4640 O   0  0  0  0  0  0  0  0  0  0  0  0
   38.6480   28.4880   43.1880 C   0  0  0  0  0  0  0  0  0  0  0  0
   38.0120   27.2770   42.8450 C   0  0  0  0  0  0  0  0  0  0  0  0
   36.8540   27.3580   42.0330 C   0  0  0  0  0  0  0  0  0  0  0  0
   36.4320   28.5920   41.6390 N   0  0  0  0  0  0  0  0  0  0  0  0
   37.0680   29.7100   41.9900 C   0  0  0  0  0  0  0  0  0  0  0  0
   38.1790   29.6660   42.7660 N   0  0  0  0  0  0  0  0  0  0  0  0
   39.5360   28.4380   43.8100 H   0  0  0  0  0  0  0  0  0  0  0  0
   38.3610   26.3060   43.1670 H   0  0  0  0  0  0  0  0  0  0  0  0
   36.3450   26.4310   41.7550 H   0  0  0  0  0  0  0  0  0  0  0  0
  1  5  1  0  0  0  0
  1 13  1  0  0  0  0
  2  1  2  0  0  0  0
  3  2  1  0  0  0  0
  3  4  1  0  0  0  0
  4  5  2  0  0  0  0
  6  4  1  0  0  0  0
  6 12  1  0  0  0  0
  7  6  1  0  0  0  0
  7  8  1  0  0  0  0
  8  9  1  0  0  0  0
  9 10  1  0  0  0  0
  9 11  1  0  0  0  0
 12 11  1  0  0  0  0
 13 18  1  0  0  0  0
 14 20  1  0  0  0  0
 15 21  1  0  0  0  0
 15 14  1  0  0  0  0
 16 15  2  0  0  0  0
 17 18  2  0  0  0  0
 17 16  1  0  0  0  0
 18 19  1  0  0  0  0
 19 14  2  0  0  0  0
 22 16  1  0  0  0  0
M  END
>  <minimizedAffinity>
-4.97812557

>  <minimizedRMSD>
1.37507296

$$$$
