
 OpenBabel03242509073D

 37 41  0  0  1  0  0  0  0  0999 V2000
   36.2100   30.7590   41.0930 C   0  0  0  0  0  0  0  0  0  0  0  0
   36.6940   29.5750   41.6880 C   0  0  0  0  0  0  0  0  0  0  0  0
   38.0670   29.3420   41.6830 C   0  0  0  0  0  0  0  0  0  0  0  0
   38.8510   30.2800   41.1020 N   0  0  0  0  0  0  0  0  0  0  0  0
   38.3720   31.4110   40.5360 C   0  0  0  0  0  0  0  0  0  0  0  0
   37.0390   31.6490   40.5330 N   0  0  0  0  0  0  0  0  0  0  0  0
   35.1410   30.9690   41.0820 H   0  0  0  0  0  0  0  0  0  0  0  0
   35.9810   28.8870   42.1280 H   0  0  0  0  0  0  0  0  0  0  0  0
   38.5740   28.1240   42.2820 C   0  0  0  0  0  0  0  0  0  0  0  0
   39.5590   27.9890   43.2340 C   0  0  0  0  0  0  0  0  0  0  0  0
   39.7240   26.6750   43.5120 N   0  0  0  0  0  0  0  0  0  0  0  0
   38.8700   25.9260   42.7700 C   0  0  0  0  0  0  0  0  0  0  0  0
   38.6190   24.5610   42.6540 C   0  0  0  0  0  0  0  0  0  0  0  0
   37.6630   24.0740   41.7860 C   0  0  0  0  0  0  0  0  0  0  0  0
   36.9710   24.9930   41.0420 C   0  0  0  0  0  0  0  0  0  0  0  0
   37.1990   26.3370   41.1370 C   0  0  0  0  0  0  0  0  0  0  0  0
   38.1580   26.8300   42.0070 C   0  0  0  0  0  0  0  0  0  0  0  0
   40.0980   28.8260   43.6710 H   0  0  0  0  0  0  0  0  0  0  0  0
   40.4050   26.2700   44.1990 H   0  0  0  0  0  0  0  0  0  0  0  0
   39.2050   23.8950   43.2740 H   0  0  0  0  0  0  0  0  0  0  0  0
   37.4780   23.0120   41.7080 H   0  0  0  0  0  0  0  0  0  0  0  0
   36.2250   24.5930   40.3680 H   0  0  0  0  0  0  0  0  0  0  0  0
   36.6310   27.0310   40.5320 H   0  0  0  0  0  0  0  0  0  0  0  0
   39.3100   32.4030   39.9210 C   0  0  1  0  0  0  0  0  0  0  0  0
   39.2950   33.8180   40.4990 C   0  0  0  0  0  0  0  0  0  0  0  0
   40.4580   32.8980   40.7260 C   0  0  2  0  0  0  0  0  0  0  0  0
   39.4810   32.3300   38.8180 H   0  0  0  0  0  0  0  0  0  0  0  0
   39.3310   34.6180   39.7330 H   0  0  0  0  0  0  0  0  0  0  0  0
   38.5530   33.9670   41.2950 H   0  0  0  0  0  0  0  0  0  0  0  0
   40.5460   32.5180   41.7830 H   0  0  0  0  0  0  0  0  0  0  0  0
   41.6830   33.3280   40.0730 N   0  0  0  0  0  0  0  0  0  0  0  0
   41.3910   34.4990   39.3270 C   0  0  0  0  0  0  0  0  0  0  0  0
   42.2030   34.7450   38.1030 C   0  0  0  0  0  0  0  0  0  0  0  0
   42.2620   33.4490   37.3130 C   0  0  0  0  0  0  0  0  0  0  0  0
   42.6990   33.5650   36.3090 H   0  0  0  0  0  0  0  0  0  0  0  0
   43.0620   32.4970   38.2010 C   0  0  0  0  0  0  0  0  0  0  0  0
   42.1820   32.1990   39.3780 C   0  0  0  0  0  0  0  0  0  0  0  0
  1  2  1  0  0  0  0
  2  8  1  0  0  0  0
  3  2  2  0  0  0  0
  3  9  1  0  0  0  0
  4  3  1  0  0  0  0
  5  4  2  0  0  0  0
  6  5  1  0  0  0  0
  6  1  2  0  0  0  0
  7  1  1  0  0  0  0
  9 10  2  0  0  0  0
 10 11  1  0  0  0  0
 10 18  1  0  0  0  0
 11 19  1  0  0  0  0
 12 11  1  0  0  0  0
 13 12  1  0  0  0  0
 13 20  1  0  0  0  0
 14 13  2  0  0  0  0
 15 16  2  0  0  0  0
 15 14  1  0  0  0  0
 16 17  1  0  0  0  0
 17  9  1  0  0  0  0
 17 12  2  0  0  0  0
 21 14  1  0  0  0  0
 22 15  1  0  0  0  0
 23 16  1  0  0  0  0
 24 27  1  6  0  0  0
 24 25  1  0  0  0  0
 24  5  1  0  0  0  0
 24 26  1  0  0  0  0
 25 26  1  0  0  0  0
 25 29  1  0  0  0  0
 26 30  1  1  0  0  0
 28 25  1  0  0  0  0
 31 26  1  0  0  0  0
 32 31  1  0  0  0  0
 33 32  1  0  0  0  0
 34 33  1  0  0  0  0
 34 36  1  0  0  0  0
 35 34  1  0  0  0  0
 36 37  1  0  0  0  0
 37 31  1  0  0  0  0
M  END
>  <minimizedAffinity>
-6.1112566

>  <minimizedRMSD>
0.344052464

$$$$
