
 OpenBabel03242507283D

 33 36  0  0  0  0  0  0  0  0999 V2000
   37.3910   27.3850   43.4090 C   0  0  0  0  0  0  0  0  0  0  0  0
   37.7920   26.9080   44.3260 H   0  0  0  0  0  0  0  0  0  0  0  0
   36.4310   27.8800   43.6590 H   0  0  0  0  0  0  0  0  0  0  0  0
   40.5800   29.1210   42.2850 C   0  0  0  0  0  0  0  0  0  0  0  0
   39.7040   28.1580   42.8480 C   0  0  0  0  0  0  0  0  0  0  0  0
   38.3400   28.3680   42.8320 C   0  0  0  0  0  0  0  0  0  0  0  0
   37.8830   29.5220   42.2650 N   0  0  0  0  0  0  0  0  0  0  0  0
   38.7420   30.4370   41.7290 C   0  0  0  0  0  0  0  0  0  0  0  0
   40.0460   30.2330   41.7450 N   0  0  0  0  0  0  0  0  0  0  0  0
   41.6360   28.9340   42.3100 H   0  0  0  0  0  0  0  0  0  0  0  0
   40.1150   27.2510   43.2900 H   0  0  0  0  0  0  0  0  0  0  0  0
   38.1260   31.5840   41.1760 N   0  0  0  0  0  0  0  0  0  0  0  0
   38.8090   32.8560   41.1690 C   0  0  0  0  0  0  0  0  0  0  0  0
   38.7330   33.5970   39.8750 C   0  0  0  0  0  0  0  0  0  0  0  0
   37.4380   33.4420   39.1500 C   0  0  0  0  0  0  0  0  0  0  0  0
   37.6110   33.7150   38.0890 H   0  0  0  0  0  0  0  0  0  0  0  0
   37.0220   31.9860   39.1310 C   0  0  0  0  0  0  0  0  0  0  0  0
   36.7990   31.5790   40.5890 C   0  0  0  0  0  0  0  0  0  0  0  0
   37.1380   26.2990   42.4490 C   0  0  0  0  0  0  0  0  0  0  0  0
   36.9780   24.9680   42.5140 C   0  0  0  0  0  0  0  0  0  0  0  0
   36.7520   24.2130   41.4220 C   0  0  0  0  0  0  0  0  0  0  0  0
   36.7060   24.9940   40.2100 C   0  0  0  0  0  0  0  0  0  0  0  0
   36.9730   26.6440   40.7050 S   0  0  0  0  0  0  0  0  0  0  0  0
   37.0480   24.5660   43.5200 H   0  0  0  0  0  0  0  0  0  0  0  0
   36.6160   23.1430   41.4100 H   0  0  0  0  0  0  0  0  0  0  0  0
   36.4810   24.5000   38.8560 C   0  0  0  0  0  0  0  0  0  0  0  0
   36.2800   23.2000   38.5380 C   0  0  0  0  0  0  0  0  0  0  0  0
   36.1190   23.2410   37.1480 C   0  0  0  0  0  0  0  0  0  0  0  0
   36.2250   24.5160   36.6980 N   0  0  0  0  0  0  0  0  0  0  0  0
   36.4470   25.2670   37.7700 N   0  0  0  0  0  0  0  0  0  0  0  0
   36.2370   22.2930   39.1310 H   0  0  0  0  0  0  0  0  0  0  0  0
   35.9320   22.3920   36.4740 H   0  0  0  0  0  0  0  0  0  0  0  0
   36.1440   24.8240   35.6970 H   0  0  0  0  0  0  0  0  0  0  0  0
  1  3  1  0  0  0  0
  1  2  1  0  0  0  0
  4 10  1  0  0  0  0
  4  5  1  0  0  0  0
  5 11  1  0  0  0  0
  6  5  2  0  0  0  0
  6  1  1  0  0  0  0
  7  6  1  0  0  0  0
  8  9  1  0  0  0  0
  8  7  2  0  0  0  0
  9  4  2  0  0  0  0
 12  8  1  0  0  0  0
 13 12  1  0  0  0  0
 14 13  1  0  0  0  0
 15 14  1  0  0  0  0
 16 15  1  0  0  0  0
 17 15  1  0  0  0  0
 17 18  1  0  0  0  0
 18 12  1  0  0  0  0
 19 20  2  0  0  0  0
 19  1  1  0  0  0  0
 20 24  1  0  0  0  0
 21 20  1  0  0  0  0
 22 23  1  0  0  0  0
 22 21  2  0  0  0  0
 23 19  1  0  0  0  0
 25 21  1  0  0  0  0
 26 22  1  0  0  0  0
 27 26  1  0  0  0  0
 27 31  1  0  0  0  0
 28 27  2  0  0  0  0
 29 28  1  0  0  0  0
 29 30  1  0  0  0  0
 30 26  2  0  0  0  0
 32 28  1  0  0  0  0
 33 29  1  0  0  0  0
M  END
>  <minimizedAffinity>
-5.41939545

>  <minimizedRMSD>
1.55999529

$$$$
