
 OpenBabel03242508533D

 36 39  0  0  0  0  0  0  0  0999 V2000
   37.6210   28.2190   41.4570 C   0  0  0  0  0  0  0  0  0  0  0  0
   36.3660   27.9790   40.9190 C   0  0  0  0  0  0  0  0  0  0  0  0
   35.9080   29.1340   40.4090 N   0  0  0  0  0  0  0  0  0  0  0  0
   36.8040   30.1310   40.5830 C   0  0  0  0  0  0  0  0  0  0  0  0
   36.7290   31.4530   40.2130 C   0  0  0  0  0  0  0  0  0  0  0  0
   37.8150   32.2660   40.5250 C   0  0  0  0  0  0  0  0  0  0  0  0
   38.9180   31.7390   41.1840 C   0  0  0  0  0  0  0  0  0  0  0  0
   38.9860   30.4110   41.5520 C   0  0  0  0  0  0  0  0  0  0  0  0
   37.9130   29.5840   41.2510 C   0  0  0  0  0  0  0  0  0  0  0  0
   35.9030   27.0050   40.9460 H   0  0  0  0  0  0  0  0  0  0  0  0
   35.8950   31.8850   39.7060 H   0  0  0  0  0  0  0  0  0  0  0  0
   37.8550   33.3210   40.2770 H   0  0  0  0  0  0  0  0  0  0  0  0
   39.8050   32.3000   41.4650 H   0  0  0  0  0  0  0  0  0  0  0  0
   39.8310   29.9710   42.0670 H   0  0  0  0  0  0  0  0  0  0  0  0
   39.6260   26.6250   44.0590 C   0  0  0  0  0  0  0  0  0  0  0  0
   40.1640   25.4900   43.3950 C   0  0  0  0  0  0  0  0  0  0  0  0
   39.8200   25.2910   42.0360 C   0  0  0  0  0  0  0  0  0  0  0  0
   38.9980   26.2030   41.4690 N   0  0  0  0  0  0  0  0  0  0  0  0
   38.5020   27.2690   42.1170 C   0  0  0  0  0  0  0  0  0  0  0  0
   38.8120   27.4890   43.4200 N   0  0  0  0  0  0  0  0  0  0  0  0
   39.8920   26.7710   45.0930 H   0  0  0  0  0  0  0  0  0  0  0  0
   40.8120   24.7920   43.8820 H   0  0  0  0  0  0  0  0  0  0  0  0
   40.2190   24.4360   41.5190 H   0  0  0  0  0  0  0  0  0  0  0  0
   34.6150   29.2010   39.7760 C   0  0  0  0  0  0  0  0  0  0  0  0
   34.4090   30.3010   39.6200 H   0  0  0  0  0  0  0  0  0  0  0  0
   33.8460   28.8630   40.4830 H   0  0  0  0  0  0  0  0  0  0  0  0
   34.5760   28.5090   38.4480 C   0  0  0  0  0  0  0  0  0  0  0  0
   34.1930   27.4780   38.6630 H   0  0  0  0  0  0  0  0  0  0  0  0
   35.6240   28.3670   38.1110 H   0  0  0  0  0  0  0  0  0  0  0  0
   33.8700   29.1160   37.4000 N   0  0  0  0  0  0  0  0  0  0  0  0
   34.1440   28.3490   36.1760 C   0  0  0  0  0  0  0  0  0  0  0  0
   33.8240   29.2850   35.0380 C   0  0  0  0  0  0  0  0  0  0  0  0
   32.4110   29.7790   35.0640 C   0  0  0  0  0  0  0  0  0  0  0  0
   32.3740   30.7210   34.4760 H   0  0  0  0  0  0  0  0  0  0  0  0
   31.8090   29.9220   36.4180 C   0  0  0  0  0  0  0  0  0  0  0  0
   32.4480   29.1840   37.5260 C   0  0  0  0  0  0  0  0  0  0  0  0
  1 19  1  0  0  0  0
  2 10  1  0  0  0  0
  2  1  2  0  0  0  0
  3  4  1  0  0  0  0
  3  2  1  0  0  0  0
  4  9  1  0  0  0  0
  5  6  1  0  0  0  0
  5  4  2  0  0  0  0
  6  7  2  0  0  0  0
  7 13  1  0  0  0  0
  7  8  1  0  0  0  0
  8 14  1  0  0  0  0
  9  1  1  0  0  0  0
  9  8  2  0  0  0  0
 11  5  1  0  0  0  0
 12  6  1  0  0  0  0
 15 21  1  0  0  0  0
 16 22  1  0  0  0  0
 16 15  2  0  0  0  0
 17 16  1  0  0  0  0
 18 17  2  0  0  0  0
 18 19  1  0  0  0  0
 19 20  2  0  0  0  0
 20 15  1  0  0  0  0
 23 17  1  0  0  0  0
 24  3  1  0  0  0  0
 24 26  1  0  0  0  0
 25 24  1  0  0  0  0
 27 28  1  0  0  0  0
 27 24  1  0  0  0  0
 29 27  1  0  0  0  0
 30 36  1  0  0  0  0
 30 27  1  0  0  0  0
 31 30  1  0  0  0  0
 32 33  1  0  0  0  0
 32 31  1  0  0  0  0
 33 35  1  0  0  0  0
 34 33  1  0  0  0  0
 35 36  1  0  0  0  0
M  END
>  <minimizedAffinity>
-5.06300783

>  <minimizedRMSD>
0.876665592

$$$$
