
 OpenBabel03242504413D

 45 47  0  0  1  0  0  0  0  0999 V2000
   37.7310   28.3780   41.3250 C   0  0  1  0  0  0  0  0  0  0  0  0
   36.6810   28.0810   41.6200 H   0  0  0  0  0  0  0  0  0  0  0  0
   38.2930   30.9680   38.6410 C   0  0  0  0  0  0  0  0  0  0  0  0
   38.3750   29.7550   39.3370 C   0  0  0  0  0  0  0  0  0  0  0  0
   37.6230   29.6110   40.5020 C   0  0  0  0  0  0  0  0  0  0  0  0
   36.8530   30.6710   40.8850 N   0  0  0  0  0  0  0  0  0  0  0  0
   36.7980   31.8120   40.2010 C   0  0  0  0  0  0  0  0  0  0  0  0
   37.5180   31.9610   39.0770 N   0  0  0  0  0  0  0  0  0  0  0  0
   38.8500   31.1420   37.7330 H   0  0  0  0  0  0  0  0  0  0  0  0
   39.0300   29.0280   38.8930 H   0  0  0  0  0  0  0  0  0  0  0  0
   36.1350   32.5300   40.6590 H   0  0  0  0  0  0  0  0  0  0  0  0
   38.2790   27.2690   40.5210 C   0  0  0  0  0  0  0  0  0  0  0  0
   37.5770   27.1330   39.6530 H   0  0  0  0  0  0  0  0  0  0  0  0
   39.2550   27.4510   40.0430 H   0  0  0  0  0  0  0  0  0  0  0  0
   38.3070   26.0030   41.2580 C   0  0  2  0  0  0  0  0  0  0  0  0
   39.3380   25.0450   40.7290 C   0  0  0  0  0  0  0  0  0  0  0  0
   38.7430   23.6630   40.9770 C   0  0  0  0  0  0  0  0  0  0  0  0
   37.3370   23.9050   41.5450 C   0  0  0  0  0  0  0  0  0  0  0  0
   37.0170   25.2840   41.0320 C   0  0  2  0  0  0  0  0  0  0  0  0
   38.4070   25.9260   42.3300 H   0  0  0  0  0  0  0  0  0  0  0  0
   40.3260   25.1360   41.1850 H   0  0  0  0  0  0  0  0  0  0  0  0
   39.3560   25.1790   39.6320 H   0  0  0  0  0  0  0  0  0  0  0  0
   38.6890   23.0610   40.0560 H   0  0  0  0  0  0  0  0  0  0  0  0
   39.3770   23.1390   41.7160 H   0  0  0  0  0  0  0  0  0  0  0  0
   36.6290   23.1400   41.1650 H   0  0  0  0  0  0  0  0  0  0  0  0
   37.3920   23.8940   42.6490 H   0  0  0  0  0  0  0  0  0  0  0  0
   36.1350   25.6520   41.5260 H   0  0  0  0  0  0  0  0  0  0  0  0
   36.6380   25.1510   39.5980 C   0  0  0  0  0  0  0  0  0  0  0  0
   35.7730   24.5480   38.9560 O   0  0  0  0  0  0  0  0  0  0  0  0
   36.8530   25.4360   38.5650 H   0  0  0  0  0  0  0  0  0  0  0  0
   38.4290   28.5870   42.6510 C   0  0  1  0  0  0  0  0  0  0  0  0
   38.7110   27.4570   42.9360 H   0  0  0  0  0  0  0  0  0  0  0  0
   39.6070   29.1940   42.6760 N   0  0  0  0  0  0  0  0  0  0  0  0
   40.8020   28.4190   42.3740 C   0  0  0  0  0  0  0  0  0  0  0  0
   41.6020   29.1690   41.3300 C   0  0  0  0  0  0  0  0  0  0  0  0
   42.2960   30.2870   42.1030 C   0  0  0  0  0  0  0  0  0  0  0  0
   42.8660   30.9620   41.4560 H   0  0  0  0  0  0  0  0  0  0  0  0
   41.2660   30.9790   42.9640 C   0  0  0  0  0  0  0  0  0  0  0  0
   39.8500   30.5780   42.5790 C   0  0  0  0  0  0  0  0  0  0  0  0
   37.4950   28.9170   43.6520 O   0  0  0  0  0  0  0  0  0  0  0  0
   36.6850   28.1160   44.3040 C   0  0  0  0  0  0  0  0  0  0  0  0
   36.3650   28.4560   45.6330 N   0  0  0  0  0  0  0  0  0  0  0  0
   36.2350   27.1070   43.7200 O   0  0  0  0  0  0  0  0  0  0  0  0
   35.7480   29.2800   45.7850 H   0  0  0  0  0  0  0  0  0  0  0  0
   36.8860   27.7150   46.1530 H   0  0  0  0  0  0  0  0  0  0  0  0
  1  2  1  1  0  0  0
  1 31  1  0  0  0  0
  3  8  2  0  0  0  0
  3  4  1  0  0  0  0
  4  5  2  0  0  0  0
  5  6  1  0  0  0  0
  5  1  1  0  0  0  0
  7 11  1  0  0  0  0
  7  6  2  0  0  0  0
  8  7  1  0  0  0  0
  9  3  1  0  0  0  0
 10  4  1  0  0  0  0
 12 15  1  0  0  0  0
 12  1  1  0  0  0  0
 13 12  1  0  0  0  0
 14 12  1  0  0  0  0
 15 20  1  1  0  0  0
 16 17  1  0  0  0  0
 16 21  1  0  0  0  0
 16 15  1  0  0  0  0
 17 18  1  0  0  0  0
 17 24  1  0  0  0  0
 18 26  1  0  0  0  0
 19 15  1  0  0  0  0
 19 27  1  1  0  0  0
 19 18  1  0  0  0  0
 22 16  1  0  0  0  0
 23 17  1  0  0  0  0
 25 18  1  0  0  0  0
 28 19  1  0  0  0  0
 29 28  2  0  0  0  0
 30 28  1  0  0  0  0
 31 33  1  0  0  0  0
 31 32  1  1  0  0  0
 31 40  1  0  0  0  0
 34 33  1  0  0  0  0
 35 36  1  0  0  0  0
 35 34  1  0  0  0  0
 36 38  1  0  0  0  0
 37 36  1  0  0  0  0
 39 33  1  0  0  0  0
 39 38  1  0  0  0  0
 40 41  1  0  0  0  0
 41 42  1  0  0  0  0
 42 44  1  0  0  0  0
 42 45  1  0  0  0  0
 43 41  2  0  0  0  0
M  END
>  <minimizedAffinity>
-4.94965076

>  <minimizedRMSD>
0.896088481

$$$$
