
 OpenBabel03242509293D

 19 20  0  0  0  0  0  0  0  0999 V2000
   37.8150   28.7670   43.5910 C   0  0  0  0  0  0  0  0  0  0  0  0
   37.8880   27.3580   43.4790 C   0  0  0  0  0  0  0  0  0  0  0  0
   37.4680   26.7640   42.2910 C   0  0  0  0  0  0  0  0  0  0  0  0
   37.0030   27.5830   41.2830 N   0  0  0  0  0  0  0  0  0  0  0  0
   36.9490   28.9210   41.4280 C   0  0  0  0  0  0  0  0  0  0  0  0
   37.3510   29.5000   42.5660 N   0  0  0  0  0  0  0  0  0  0  0  0
   38.1360   29.2520   44.5030 H   0  0  0  0  0  0  0  0  0  0  0  0
   38.2630   26.7630   44.3060 H   0  0  0  0  0  0  0  0  0  0  0  0
   36.4730   29.7330   40.3930 N   0  0  0  0  0  0  0  0  0  0  0  0
   35.2860   29.4650   39.6200 C   0  0  0  0  0  2  0  0  0  0  0  0
   35.7560   29.1910   38.2140 C   0  0  0  0  0  2  0  0  0  0  0  0
   36.6740   30.2360   37.6710 C   0  0  0  0  0  3  0  0  0  0  0  0
   36.1870   30.6740   36.7720 H   0  0  0  0  0  0  0  0  0  0  0  0
   37.0110   31.3510   38.5990 C   0  0  0  0  0  2  0  0  0  0  0  0
   37.1980   30.9540   40.0290 C   0  0  0  0  0  2  0  0  0  0  0  0
   37.5270   25.2860   42.1340 C   0  0  0  0  0  0  0  0  0  0  0  0
   37.6230   25.0350   40.7900 F   0  0  0  0  0  0  0  0  0  0  0  0
   38.6150   24.7470   42.7610 F   0  0  0  0  0  0  0  0  0  0  0  0
   36.3720   24.6750   42.6380 F   0  0  0  0  0  0  0  0  0  0  0  0
  1  7  1  0  0  0  0
  2  1  1  0  0  0  0
  2  8  1  0  0  0  0
  3  2  2  0  0  0  0
  4  5  2  0  0  0  0
  4  3  1  0  0  0  0
  5  6  1  0  0  0  0
  6  1  2  0  0  0  0
  9  5  1  0  0  0  0
 10  9  1  0  0  0  0
 11 10  1  0  0  0  0
 12 11  1  0  0  0  0
 12 14  1  0  0  0  0
 13 12  1  0  0  0  0
 14 15  1  0  0  0  0
 15  9  1  0  0  0  0
 16  3  1  0  0  0  0
 16 19  1  0  0  0  0
 16 18  1  0  0  0  0
 17 16  1  0  0  0  0
M  END
>  <minimizedAffinity>
-4.95210791

>  <minimizedRMSD>
0.578487277

$$$$
