
 OpenBabel03242508023D

 28 30  0  0  0  0  0  0  0  0999 V2000
   39.0370   27.2620   40.3550 C   0  0  0  0  0  0  0  0  0  0  0  0
   38.5900   28.4400   40.9480 C   0  0  0  0  0  0  0  0  0  0  0  0
   39.0160   29.6600   40.3630 C   0  0  0  0  0  0  0  0  0  0  0  0
   39.8240   29.5770   39.2680 N   0  0  0  0  0  0  0  0  0  0  0  0
   40.2290   28.4240   38.7300 C   0  0  0  0  0  0  0  0  0  0  0  0
   39.8290   27.2420   39.2820 N   0  0  0  0  0  0  0  0  0  0  0  0
   38.6770   30.5590   40.8150 H   0  0  0  0  0  0  0  0  0  0  0  0
   40.8720   28.5470   37.8570 H   0  0  0  0  0  0  0  0  0  0  0  0
   38.7630   25.9230   40.7380 N   0  0  0  0  0  0  0  0  0  0  0  0
   38.7750   25.0770   41.9140 C   0  0  0  0  0  0  0  0  0  0  0  0
   37.5340   24.1830   41.8140 C   0  0  0  0  0  0  0  0  0  0  0  0
   37.9310   23.0830   40.8290 C   0  0  0  0  0  0  0  0  0  0  0  0
   37.0620   22.6930   40.2670 H   0  0  0  0  0  0  0  0  0  0  0  0
   38.8450   23.7370   39.7850 C   0  0  0  0  0  0  0  0  0  0  0  0
   38.3250   25.1400   39.5710 C   0  0  0  0  0  0  0  0  0  0  0  0
   37.7450   28.4870   42.0530 N   0  0  0  0  0  0  0  0  0  0  0  0
   38.0650   28.9600   43.3900 C   0  0  0  0  0  0  0  0  0  0  0  0
   37.2010   28.1260   44.3050 C   0  0  0  0  0  0  0  0  0  0  0  0
   36.3140   27.3110   43.3930 C   0  0  0  0  0  0  0  0  0  0  0  0
   36.3710   28.1120   42.1250 C   0  0  0  0  0  0  0  0  0  0  0  0
   37.8820   30.0440   43.4510 H   0  0  0  0  0  0  0  0  0  0  0  0
   39.1350   28.8060   43.6310 H   0  0  0  0  0  0  0  0  0  0  0  0
   36.6410   28.7720   45.0020 H   0  0  0  0  0  0  0  0  0  0  0  0
   37.8670   27.4350   44.8990 H   0  0  0  0  0  0  0  0  0  0  0  0
   35.2960   27.3460   43.8290 H   0  0  0  0  0  0  0  0  0  0  0  0
   36.6740   26.2940   43.3430 H   0  0  0  0  0  0  0  0  0  0  0  0
   36.0700   27.4920   41.2720 H   0  0  0  0  0  0  0  0  0  0  0  0
   35.7020   29.0100   42.2310 H   0  0  0  0  0  0  0  0  0  0  0  0
  1  9  1  0  0  0  0
  1  2  1  0  0  0  0
  2 16  1  0  0  0  0
  3  7  1  0  0  0  0
  3  2  2  0  0  0  0
  4  3  1  0  0  0  0
  5  4  2  0  0  0  0
  5  6  1  0  0  0  0
  6  1  2  0  0  0  0
  8  5  1  0  0  0  0
  9 10  1  0  0  0  0
 11 10  1  0  0  0  0
 12 11  1  0  0  0  0
 13 12  1  0  0  0  0
 14 12  1  0  0  0  0
 15 14  1  0  0  0  0
 15  9  1  0  0  0  0
 16 20  1  0  0  0  0
 16 17  1  0  0  0  0
 17 21  1  0  0  0  0
 17 22  1  0  0  0  0
 17 18  1  0  0  0  0
 18 24  1  0  0  0  0
 18 23  1  0  0  0  0
 19 25  1  0  0  0  0
 19 18  1  0  0  0  0
 20 28  1  0  0  0  0
 20 19  1  0  0  0  0
 26 19  1  0  0  0  0
 27 20  1  0  0  0  0
M  END
>  <minimizedAffinity>
-4.50231457

>  <minimizedRMSD>
5.54721928

$$$$
