
 OpenBabel03242509303D

 19 20  0  0  0  0  0  0  0  0999 V2000
   37.8590   28.5590   43.5280 C   0  0  0  0  0  0  0  0  0  0  0  0
   38.0130   27.1550   43.4350 C   0  0  0  0  0  0  0  0  0  0  0  0
   37.5680   26.5140   42.2810 C   0  0  0  0  0  0  0  0  0  0  0  0
   36.9970   27.2830   41.2890 N   0  0  0  0  0  0  0  0  0  0  0  0
   36.8680   28.6170   41.4150 C   0  0  0  0  0  0  0  0  0  0  0  0
   37.2940   29.2430   42.5190 N   0  0  0  0  0  0  0  0  0  0  0  0
   38.1970   29.0810   44.4130 H   0  0  0  0  0  0  0  0  0  0  0  0
   38.4700   26.6000   44.2490 H   0  0  0  0  0  0  0  0  0  0  0  0
   36.2860   29.3790   40.3950 N   0  0  0  0  0  0  0  0  0  0  0  0
   34.8730   29.4250   40.1100 C   0  0  0  0  0  2  0  0  0  0  0  0
   34.7020   28.7970   38.7500 C   0  0  0  0  0  2  0  0  0  0  0  0
   35.6030   29.3660   37.7050 C   0  0  0  0  0  3  0  0  0  0  0  0
   34.9600   29.8060   36.9110 H   0  0  0  0  0  0  0  0  0  0  0  0
   36.5470   30.4220   38.1670 C   0  0  0  0  0  2  0  0  0  0  0  0
   37.1310   30.2050   39.5260 C   0  0  0  0  0  2  0  0  0  0  0  0
   37.7110   25.0400   42.1450 C   0  0  0  0  0  0  0  0  0  0  0  0
   38.0430   24.7940   40.8380 F   0  0  0  0  0  0  0  0  0  0  0  0
   38.6980   24.5430   42.9500 F   0  0  0  0  0  0  0  0  0  0  0  0
   36.5120   24.3820   42.4500 F   0  0  0  0  0  0  0  0  0  0  0  0
  1  7  1  0  0  0  0
  2  1  1  0  0  0  0
  2  8  1  0  0  0  0
  3  2  2  0  0  0  0
  4  5  2  0  0  0  0
  4  3  1  0  0  0  0
  5  6  1  0  0  0  0
  6  1  2  0  0  0  0
  9  5  1  0  0  0  0
 10  9  1  0  0  0  0
 11 10  1  0  0  0  0
 12 14  1  0  0  0  0
 12 11  1  0  0  0  0
 13 12  1  0  0  0  0
 14 15  1  0  0  0  0
 15  9  1  0  0  0  0
 16  3  1  0  0  0  0
 16 19  1  0  0  0  0
 16 18  1  0  0  0  0
 17 16  1  0  0  0  0
M  END
>  <minimizedAffinity>
-4.93669128

>  <minimizedRMSD>
0.511165023

$$$$
