
 OpenBabel03242506443D

 31 34  0  0  0  0  0  0  0  0999 V2000
   44.5320   26.3790   44.4110 C   0  0  0  0  0  0  0  0  0  0  0  0
   43.3450   26.3880   43.6580 C   0  0  0  0  0  0  0  0  0  0  0  0
   42.1760   26.9080   44.2250 C   0  0  0  0  0  0  0  0  0  0  0  0
   42.2520   27.3900   45.5080 N   0  0  0  0  0  0  0  0  0  0  0  0
   43.4050   27.3650   46.1960 C   0  0  0  0  0  0  0  0  0  0  0  0
   44.5370   26.8690   45.6650 N   0  0  0  0  0  0  0  0  0  0  0  0
   45.4560   25.9850   44.0040 H   0  0  0  0  0  0  0  0  0  0  0  0
   43.4290   25.8500   42.3360 N   0  0  0  0  0  0  0  0  0  0  0  0
   44.6840   25.8400   41.6180 C   0  0  0  0  0  0  0  0  0  0  0  0
   44.5490   26.7010   40.3820 C   0  0  0  0  0  0  0  0  0  0  0  0
   43.3930   26.1480   39.5610 C   0  0  0  0  0  0  0  0  0  0  0  0
   43.6470   25.0900   39.3320 H   0  0  0  0  0  0  0  0  0  0  0  0
   42.1120   26.1490   40.3570 C   0  0  0  0  0  0  0  0  0  0  0  0
   42.3350   25.2730   41.5730 C   0  0  0  0  0  0  0  0  0  0  0  0
   43.4100   27.9090   47.5890 C   0  0  0  0  0  0  0  0  0  0  0  0
   43.4480   29.3050   47.5570 F   0  0  0  0  0  0  0  0  0  0  0  0
   42.2190   27.6140   48.2350 F   0  0  0  0  0  0  0  0  0  0  0  0
   44.5130   27.5170   48.3110 F   0  0  0  0  0  0  0  0  0  0  0  0
   41.0550   26.8970   43.4650 O   0  0  0  0  0  0  0  0  0  0  0  0
   37.0950   29.0980   43.3200 N   0  0  0  0  0  0  0  0  0  0  0  0
   36.9430   27.8650   43.7990 C   0  0  0  0  0  0  0  0  0  0  0  0
   38.1760   27.2910   43.8030 N   0  0  0  0  0  0  0  0  0  0  0  0
   39.0980   28.1570   43.3300 C   0  0  0  0  0  0  0  0  0  0  0  0
   40.4730   28.0950   43.1230 C   0  0  0  0  0  0  0  0  0  0  0  0
   41.0980   29.1920   42.6150 N   0  0  0  0  0  0  0  0  0  0  0  0
   40.3780   30.3030   42.3280 C   0  0  0  0  0  0  0  0  0  0  0  0
   39.0370   30.3950   42.5170 N   0  0  0  0  0  0  0  0  0  0  0  0
   38.3730   29.3160   43.0260 C   0  0  0  0  0  0  0  0  0  0  0  0
   36.2790   29.7430   43.2200 H   0  0  0  0  0  0  0  0  0  0  0  0
   36.0990   27.2690   44.1590 H   0  0  0  0  0  0  0  0  0  0  0  0
   40.9080   31.1580   41.9240 H   0  0  0  0  0  0  0  0  0  0  0  0
  1  6  1  0  0  0  0
  2  3  1  0  0  0  0
  2  1  2  0  0  0  0
  3  4  2  0  0  0  0
  4  5  1  0  0  0  0
  5 15  1  0  0  0  0
  6  5  2  0  0  0  0
  7  1  1  0  0  0  0
  8  2  1  0  0  0  0
  9  8  1  0  0  0  0
 10  9  1  0  0  0  0
 11 13  1  0  0  0  0
 11 10  1  0  0  0  0
 12 11  1  0  0  0  0
 13 14  1  0  0  0  0
 14  8  1  0  0  0  0
 15 17  1  0  0  0  0
 15 18  1  0  0  0  0
 16 15  1  0  0  0  0
 19  3  1  0  0  0  0
 20 21  1  0  0  0  0
 21 22  2  0  0  0  0
 21 30  1  0  0  0  0
 23 22  1  0  0  0  0
 24 23  1  0  0  0  0
 24 19  1  0  0  0  0
 25 24  2  0  0  0  0
 26 27  2  0  0  0  0
 26 25  1  0  0  0  0
 27 28  1  0  0  0  0
 28 20  1  0  0  0  0
 28 23  2  0  0  0  0
 29 20  1  0  0  0  0
 31 26  1  0  0  0  0
M  END
>  <minimizedAffinity>
-5.486238

>  <minimizedRMSD>
0.801147282

$$$$
