
 OpenBabel03242509243D

 46 50  0  0  0  0  0  0  0  0999 V2000
   36.1310   30.0810   41.0890 C   0  0  0  0  0  0  0  0  0  0  0  0
   36.7570   30.8460   40.5830 H   0  0  0  0  0  0  0  0  0  0  0  0
   35.5720   30.6340   41.8660 H   0  0  0  0  0  0  0  0  0  0  0  0
   38.5840   28.1290   42.6900 C   0  0  0  0  0  0  0  0  0  0  0  0
   37.4930   27.3040   42.7900 C   0  0  0  0  0  0  0  0  0  0  0  0
   36.4310   27.9700   42.1830 C   0  0  0  0  0  0  0  0  0  0  0  0
   36.9610   29.1370   41.7650 N   0  0  0  0  0  0  0  0  0  0  0  0
   38.2230   29.2710   42.0440 N   0  0  0  0  0  0  0  0  0  0  0  0
   37.4830   26.3210   43.2600 H   0  0  0  0  0  0  0  0  0  0  0  0
   35.4520   27.5670   42.1110 H   0  0  0  0  0  0  0  0  0  0  0  0
   41.5170   26.4210   44.2120 C   0  0  0  0  0  0  0  0  0  0  0  0
   40.2120   26.6100   43.7570 C   0  0  0  0  0  0  0  0  0  0  0  0
   39.9200   27.8710   43.1780 C   0  0  0  0  0  0  0  0  0  0  0  0
   40.8770   28.8050   43.0920 N   0  0  0  0  0  0  0  0  0  0  0  0
   42.1350   28.5540   43.5570 C   0  0  0  0  0  0  0  0  0  0  0  0
   42.4550   27.3670   44.1150 N   0  0  0  0  0  0  0  0  0  0  0  0
   41.7050   25.4370   44.6510 H   0  0  0  0  0  0  0  0  0  0  0  0
   39.4630   25.8380   43.8410 H   0  0  0  0  0  0  0  0  0  0  0  0
   43.1230   29.5670   43.4490 N   0  0  0  0  0  0  0  0  0  0  0  0
   44.5210   29.2140   43.2990 C   0  0  0  0  0  2  0  0  0  0  0  0
   45.0750   29.8200   42.0380 C   0  0  0  0  0  2  0  0  0  0  0  0
   44.1470   30.8700   41.4610 C   0  0  0  0  0  3  0  0  0  0  0  0
   44.6760   31.5080   40.7410 H   0  0  0  0  0  0  0  0  0  0  0  0
   43.6580   31.7570   42.5720 C   0  0  0  0  0  2  0  0  0  0  0  0
   42.7550   30.9680   43.4860 C   0  0  0  0  0  2  0  0  0  0  0  0
   35.2440   29.5030   40.0280 C   0  0  0  0  0  0  0  0  0  0  0  0
   34.5390   30.3900   39.8960 H   0  0  0  0  0  0  0  0  0  0  0  0
   34.7720   28.6060   40.3940 H   0  0  0  0  0  0  0  0  0  0  0  0
   35.8670   29.4060   38.6790 C   0  0  0  0  0  0  0  0  0  0  0  0
   37.1870   29.5290   38.3630 C   0  0  0  0  0  0  0  0  0  0  0  0
   37.7120   29.5170   37.1100 C   0  0  0  0  0  0  0  0  0  0  0  0
   36.8710   29.3710   36.0290 C   0  0  0  0  0  0  0  0  0  0  0  0
   35.5130   29.2390   36.2810 C   0  0  0  0  0  0  0  0  0  0  0  0
   34.7260   29.0940   35.1540 C   0  0  0  0  0  0  0  0  0  0  0  0
   33.3820   28.9480   35.3080 C   0  0  0  0  0  0  0  0  0  0  0  0
   32.8290   28.9440   36.5720 C   0  0  0  0  0  0  0  0  0  0  0  0
   33.6740   29.0950   37.6450 C   0  0  0  0  0  0  0  0  0  0  0  0
   35.0180   29.2520   37.5750 C   0  0  0  0  0  0  0  0  0  0  0  0
   37.8630   29.6460   39.2090 H   0  0  0  0  0  0  0  0  0  0  0  0
   38.7820   29.6230   36.9920 H   0  0  0  0  0  0  0  0  0  0  0  0
   37.2910   29.3640   35.0320 H   0  0  0  0  0  0  0  0  0  0  0  0
   35.1430   29.0910   34.1540 H   0  0  0  0  0  0  0  0  0  0  0  0
   32.7460   28.8340   34.4410 H   0  0  0  0  0  0  0  0  0  0  0  0
   31.7590   28.8250   36.6850 H   0  0  0  0  0  0  0  0  0  0  0  0
   33.0560   29.0650   38.8880 O   0  0  0  0  0  0  0  0  0  0  0  0
   32.1040   29.3270   39.0550 H   0  0  0  0  0  0  0  0  0  0  0  0
  1  7  1  0  0  0  0
  1  3  1  0  0  0  0
  2  1  1  0  0  0  0
  4  5  1  0  0  0  0
  4 13  1  0  0  0  0
  5  9  1  0  0  0  0
  6  5  2  0  0  0  0
  7  8  1  0  0  0  0
  7  6  1  0  0  0  0
  8  4  2  0  0  0  0
 10  6  1  0  0  0  0
 11 17  1  0  0  0  0
 12 18  1  0  0  0  0
 12 11  2  0  0  0  0
 13 12  1  0  0  0  0
 14 13  2  0  0  0  0
 14 15  1  0  0  0  0
 15 16  2  0  0  0  0
 16 11  1  0  0  0  0
 19 25  1  0  0  0  0
 19 15  1  0  0  0  0
 20 19  1  0  0  0  0
 21 20  1  0  0  0  0
 22 21  1  0  0  0  0
 22 24  1  0  0  0  0
 23 22  1  0  0  0  0
 24 25  1  0  0  0  0
 26 28  1  0  0  0  0
 26  1  1  0  0  0  0
 27 26  1  0  0  0  0
 29 26  1  0  0  0  0
 30 29  1  0  0  0  0
 30 39  1  0  0  0  0
 31 30  2  0  0  0  0
 32 33  2  0  0  0  0
 32 31  1  0  0  0  0
 33 38  1  0  0  0  0
 34 35  2  0  0  0  0
 34 33  1  0  0  0  0
 35 36  1  0  0  0  0
 36 44  1  0  0  0  0
 36 37  2  0  0  0  0
 37 45  1  0  0  0  0
 38 37  1  0  0  0  0
 38 29  2  0  0  0  0
 40 31  1  0  0  0  0
 41 32  1  0  0  0  0
 42 34  1  0  0  0  0
 43 35  1  0  0  0  0
 45 46  1  0  0  0  0
M  END
>  <minimizedAffinity>
-6.20171261

>  <minimizedRMSD>
0.331719488

$$$$
