
 OpenBabel03242509153D

 33 36  0  0  1  0  0  0  0  0999 V2000
   37.8240   28.4070   41.9230 C   0  0  0  0  0  0  0  0  0  0  0  0
   38.3510   27.4690   42.7880 C   0  0  0  0  0  0  0  0  0  0  0  0
   38.0870   26.1350   42.6900 C   0  0  0  0  0  0  0  0  0  0  0  0
   37.2580   25.7120   41.6780 C   0  0  0  0  0  0  0  0  0  0  0  0
   36.7280   26.6260   40.8120 C   0  0  0  0  0  0  0  0  0  0  0  0
   37.0210   27.9970   40.9420 C   0  0  0  0  0  0  0  0  0  0  0  0
   39.0030   27.8340   43.5750 H   0  0  0  0  0  0  0  0  0  0  0  0
   38.5480   25.4700   43.4180 H   0  0  0  0  0  0  0  0  0  0  0  0
   37.1070   24.6340   41.6830 H   0  0  0  0  0  0  0  0  0  0  0  0
   36.0980   26.1000   40.0780 H   0  0  0  0  0  0  0  0  0  0  0  0
   39.1010   30.5170   41.2340 C   0  0  1  0  0  0  0  0  0  0  0  0
   39.2870   30.3220   42.6840 C   0  0  0  0  0  0  0  0  0  0  0  0
   37.9970   29.8560   42.1840 C   0  0  2  0  0  0  0  0  0  0  0  0
   39.6260   29.8690   40.5610 H   0  0  0  0  0  0  0  0  0  0  0  0
   40.0360   29.5820   43.0110 H   0  0  0  0  0  0  0  0  0  0  0  0
   39.3620   31.2810   43.2620 H   0  0  0  0  0  0  0  0  0  0  0  0
   37.0890   30.4960   42.0280 H   0  0  0  0  0  0  0  0  0  0  0  0
   38.6810   31.8830   40.7360 C   0  0  0  0  0  0  0  0  0  0  0  0
   37.5890   31.9470   39.8240 C   0  0  0  0  0  0  0  0  0  0  0  0
   37.2110   33.1940   39.3820 C   0  0  0  0  0  0  0  0  0  0  0  0
   37.8820   34.3020   39.8260 N   0  0  0  0  0  0  0  0  0  0  0  0
   38.9190   34.1930   40.6990 C   0  0  0  0  0  0  0  0  0  0  0  0
   39.3110   32.9600   41.1500 N   0  0  0  0  0  0  0  0  0  0  0  0
   36.9960   31.1530   39.4410 H   0  0  0  0  0  0  0  0  0  0  0  0
   36.3960   33.3450   38.6890 H   0  0  0  0  0  0  0  0  0  0  0  0
   39.4030   35.1140   41.0070 H   0  0  0  0  0  0  0  0  0  0  0  0
   36.3690   28.6200   39.8530 N   0  0  0  0  0  0  0  0  0  0  0  0
   36.9950   28.6200   38.5210 C   0  0  0  0  0  0  0  0  0  0  0  0
   36.1770   29.3500   37.5180 C   0  0  0  0  0  0  0  0  0  0  0  0
   34.7090   29.1250   37.5660 C   0  0  0  0  0  0  0  0  0  0  0  0
   34.4490   28.2720   36.8700 H   0  0  0  0  0  0  0  0  0  0  0  0
   34.1190   28.9080   38.9180 C   0  0  0  0  0  0  0  0  0  0  0  0
   35.0670   29.2560   40.0120 C   0  0  0  0  0  0  0  0  0  0  0  0
  1 13  1  0  0  0  0
  1  2  1  0  0  0  0
  2  7  1  0  0  0  0
  3  2  2  0  0  0  0
  3  8  1  0  0  0  0
  4  9  1  0  0  0  0
  4  3  1  0  0  0  0
  5  6  1  0  0  0  0
  5  4  2  0  0  0  0
  6  1  2  0  0  0  0
 10  5  1  0  0  0  0
 11 14  1  6  0  0  0
 11 13  1  0  0  0  0
 11 12  1  0  0  0  0
 12 15  1  0  0  0  0
 12 16  1  0  0  0  0
 13 17  1  1  0  0  0
 13 12  1  0  0  0  0
 18 23  1  0  0  0  0
 18 11  1  0  0  0  0
 19 18  2  0  0  0  0
 20 19  1  0  0  0  0
 20 21  2  0  0  0  0
 21 22  1  0  0  0  0
 22 26  1  0  0  0  0
 22 23  2  0  0  0  0
 24 19  1  0  0  0  0
 25 20  1  0  0  0  0
 27 33  1  0  0  0  0
 27  6  1  0  0  0  0
 28 27  1  0  0  0  0
 29 30  1  0  0  0  0
 29 28  1  0  0  0  0
 30 32  1  0  0  0  0
 31 30  1  0  0  0  0
 32 33  1  0  0  0  0
M  END
>  <minimizedAffinity>
-5.60696268

>  <minimizedRMSD>
0.973852456

$$$$
