
 OpenBabel03242509243D

 46 50  0  0  0  0  0  0  0  0999 V2000
   36.0710   30.0260   41.0850 C   0  0  0  0  0  0  0  0  0  0  0  0
   36.6730   30.8180   40.5930 H   0  0  0  0  0  0  0  0  0  0  0  0
   35.4760   30.5510   41.8550 H   0  0  0  0  0  0  0  0  0  0  0  0
   38.5820   28.1600   42.6970 C   0  0  0  0  0  0  0  0  0  0  0  0
   37.5110   27.3130   42.8250 C   0  0  0  0  0  0  0  0  0  0  0  0
   36.4290   27.9440   42.2160 C   0  0  0  0  0  0  0  0  0  0  0  0
   36.9280   29.1140   41.7700 N   0  0  0  0  0  0  0  0  0  0  0  0
   38.1890   29.2810   42.0330 N   0  0  0  0  0  0  0  0  0  0  0  0
   37.5280   26.3400   43.3140 H   0  0  0  0  0  0  0  0  0  0  0  0
   35.4580   27.5180   42.1630 H   0  0  0  0  0  0  0  0  0  0  0  0
   41.5470   26.5810   44.2980 C   0  0  0  0  0  0  0  0  0  0  0  0
   40.2310   26.7350   43.8570 C   0  0  0  0  0  0  0  0  0  0  0  0
   39.9290   27.9410   43.1760 C   0  0  0  0  0  0  0  0  0  0  0  0
   40.8850   28.8600   42.9870 N   0  0  0  0  0  0  0  0  0  0  0  0
   42.1530   28.6470   43.4440 C   0  0  0  0  0  0  0  0  0  0  0  0
   42.4840   27.5120   44.0970 N   0  0  0  0  0  0  0  0  0  0  0  0
   41.7420   25.6390   44.8170 H   0  0  0  0  0  0  0  0  0  0  0  0
   39.4830   25.9760   44.0250 H   0  0  0  0  0  0  0  0  0  0  0  0
   43.1400   29.6420   43.2250 N   0  0  0  0  0  0  0  0  0  0  0  0
   44.3350   29.3360   42.4630 C   0  0  0  0  0  2  0  0  0  0  0  0
   44.4500   30.2660   41.2860 C   0  0  0  0  0  2  0  0  0  0  0  0
   43.5000   31.4410   41.4000 C   0  0  0  0  0  3  0  0  0  0  0  0
   43.7950   32.2520   40.7200 H   0  0  0  0  0  0  0  0  0  0  0  0
   43.5590   31.9860   42.8000 C   0  0  0  0  0  2  0  0  0  0  0  0
   42.9730   30.9810   43.7580 C   0  0  0  0  0  2  0  0  0  0  0  0
   35.2260   29.4170   40.0070 C   0  0  0  0  0  0  0  0  0  0  0  0
   34.4860   30.2740   39.8690 H   0  0  0  0  0  0  0  0  0  0  0  0
   34.7860   28.4980   40.3610 H   0  0  0  0  0  0  0  0  0  0  0  0
   35.8730   29.3540   38.6680 C   0  0  0  0  0  0  0  0  0  0  0  0
   37.2010   29.4670   38.3810 C   0  0  0  0  0  0  0  0  0  0  0  0
   37.7500   29.4880   37.1390 C   0  0  0  0  0  0  0  0  0  0  0  0
   36.9290   29.3900   36.0370 C   0  0  0  0  0  0  0  0  0  0  0  0
   35.5650   29.2700   36.2590 C   0  0  0  0  0  0  0  0  0  0  0  0
   34.7970   29.1720   35.1130 C   0  0  0  0  0  0  0  0  0  0  0  0
   33.4490   29.0410   35.2370 C   0  0  0  0  0  0  0  0  0  0  0  0
   32.8710   29.0050   36.4900 C   0  0  0  0  0  0  0  0  0  0  0  0
   33.6970   29.1090   37.5830 C   0  0  0  0  0  0  0  0  0  0  0  0
   35.0440   29.2480   37.5430 C   0  0  0  0  0  0  0  0  0  0  0  0
   37.8620   29.5470   39.2430 H   0  0  0  0  0  0  0  0  0  0  0  0
   38.8240   29.5820   37.0450 H   0  0  0  0  0  0  0  0  0  0  0  0
   37.3680   29.4090   35.0490 H   0  0  0  0  0  0  0  0  0  0  0  0
   35.2340   29.1950   34.1220 H   0  0  0  0  0  0  0  0  0  0  0  0
   32.8280   28.9650   34.3540 H   0  0  0  0  0  0  0  0  0  0  0  0
   31.7980   28.8990   36.5780 H   0  0  0  0  0  0  0  0  0  0  0  0
   33.0540   29.0490   38.8130 O   0  0  0  0  0  0  0  0  0  0  0  0
   32.1030   29.3190   38.9690 H   0  0  0  0  0  0  0  0  0  0  0  0
  1  7  1  0  0  0  0
  1  3  1  0  0  0  0
  2  1  1  0  0  0  0
  4  5  1  0  0  0  0
  4 13  1  0  0  0  0
  5  9  1  0  0  0  0
  6  5  2  0  0  0  0
  7  8  1  0  0  0  0
  7  6  1  0  0  0  0
  8  4  2  0  0  0  0
 10  6  1  0  0  0  0
 11 17  1  0  0  0  0
 12 18  1  0  0  0  0
 12 11  2  0  0  0  0
 13 12  1  0  0  0  0
 14 13  2  0  0  0  0
 14 15  1  0  0  0  0
 15 16  2  0  0  0  0
 16 11  1  0  0  0  0
 19 15  1  0  0  0  0
 19 25  1  0  0  0  0
 20 19  1  0  0  0  0
 21 22  1  0  0  0  0
 21 20  1  0  0  0  0
 22 24  1  0  0  0  0
 23 22  1  0  0  0  0
 24 25  1  0  0  0  0
 26 28  1  0  0  0  0
 26  1  1  0  0  0  0
 27 26  1  0  0  0  0
 29 26  1  0  0  0  0
 30 29  1  0  0  0  0
 30 39  1  0  0  0  0
 31 30  2  0  0  0  0
 32 33  2  0  0  0  0
 32 31  1  0  0  0  0
 33 38  1  0  0  0  0
 34 35  2  0  0  0  0
 34 33  1  0  0  0  0
 35 36  1  0  0  0  0
 36 44  1  0  0  0  0
 36 37  2  0  0  0  0
 37 45  1  0  0  0  0
 38 37  1  0  0  0  0
 38 29  2  0  0  0  0
 40 31  1  0  0  0  0
 41 32  1  0  0  0  0
 42 34  1  0  0  0  0
 43 35  1  0  0  0  0
 45 46  1  0  0  0  0
M  END
>  <minimizedAffinity>
-6.28045177

>  <minimizedRMSD>
0.232381508

$$$$
