
 OpenBabel03242502573D

 13 13  0  0  0  0  0  0  0  0999 V2000
   38.3940   29.6210   40.2320 C   0  0  0  0  0  0  0  0  0  0  0  0
   37.1340   29.0680   40.5640 C   0  0  0  0  0  0  0  0  0  0  0  0
   36.0950   29.9510   40.8790 C   0  0  0  0  0  0  0  0  0  0  0  0
   36.3390   31.3040   40.8530 N   0  0  0  0  0  0  0  0  0  0  0  0
   37.5560   31.7730   40.5320 C   0  0  0  0  0  0  0  0  0  0  0  0
   38.5670   30.9580   40.2260 N   0  0  0  0  0  0  0  0  0  0  0  0
   39.1960   28.9380   39.9880 H   0  0  0  0  0  0  0  0  0  0  0  0
   35.1390   29.5020   41.1300 H   0  0  0  0  0  0  0  0  0  0  0  0
   37.5710   32.8580   40.5610 H   0  0  0  0  0  0  0  0  0  0  0  0
   36.8460   27.2940   40.5870 S   0  0  0  0  0  0  0  0  0  0  0  0
   37.2800   26.5850   42.1900 C   0  0  0  0  0  0  0  0  0  0  0  0
   36.5890   27.2400   43.3450 C   0  0  0  0  0  0  0  0  0  0  0  0
   37.0000   25.1030   42.2510 C   0  0  0  0  0  0  0  0  0  0  0  0
  1  2  1  0  0  0  0
  2 10  1  0  0  0  0
  2  3  2  0  0  0  0
  3  8  1  0  0  0  0
  4  3  1  0  0  0  0
  5  9  1  0  0  0  0
  5  4  2  0  0  0  0
  6  1  2  0  0  0  0
  6  5  1  0  0  0  0
  7  1  1  0  0  0  0
 10 11  1  0  0  0  0
 11 13  1  0  0  0  0
 11 12  1  0  0  0  0
M  END
>  <minimizedAffinity>
-3.02609563

>  <minimizedRMSD>
2.62882566

$$$$
