
 OpenBabel03242509303D

 18 19  0  0  0  0  0  0  0  0999 V2000
   37.6010   28.5420   43.5820 C   0  0  0  0  0  0  0  0  0  0  0  0
   38.3180   27.3330   43.7710 C   0  0  0  0  0  0  0  0  0  0  0  0
   38.4440   26.4800   42.6720 C   0  0  0  0  0  0  0  0  0  0  0  0
   37.8690   26.8630   41.4870 N   0  0  0  0  0  0  0  0  0  0  0  0
   37.2000   28.0130   41.3550 C   0  0  0  0  0  0  0  0  0  0  0  0
   37.0720   28.8370   42.3900 N   0  0  0  0  0  0  0  0  0  0  0  0
   37.4980   29.2100   44.4240 H   0  0  0  0  0  0  0  0  0  0  0  0
   38.7490   27.1040   44.7560 H   0  0  0  0  0  0  0  0  0  0  0  0
   36.6230   28.3650   40.1070 N   0  0  0  0  0  0  0  0  0  0  0  0
   36.7220   27.5160   38.9330 C   0  0  0  0  0  2  0  0  0  0  0  0
   35.6930   28.0860   37.9520 C   0  0  0  0  0  2  0  0  0  0  0  0
   34.4640   28.2580   38.5700 O   0  0  0  0  0  0  0  0  0  0  0  0
   34.4740   29.2250   39.5540 C   0  0  0  0  0  2  0  0  0  0  0  0
   35.8930   29.6070   39.9420 C   0  0  0  0  0  2  0  0  0  0  0  0
   39.1930   25.1960   42.8340 C   0  0  0  0  0  0  0  0  0  0  0  0
   40.0820   25.1430   41.7710 F   0  0  0  0  0  0  0  0  0  0  0  0
   39.9090   25.1570   44.0000 F   0  0  0  0  0  0  0  0  0  0  0  0
   38.3440   24.1040   42.7500 F   0  0  0  0  0  0  0  0  0  0  0  0
  1  2  1  0  0  0  0
  1  7  1  0  0  0  0
  2  8  1  0  0  0  0
  3 15  1  0  0  0  0
  3  2  2  0  0  0  0
  4  3  1  0  0  0  0
  5  4  2  0  0  0  0
  5  6  1  0  0  0  0
  6  1  2  0  0  0  0
  9  5  1  0  0  0  0
 10  9  1  0  0  0  0
 11 12  1  0  0  0  0
 11 10  1  0  0  0  0
 12 13  1  0  0  0  0
 13 14  1  0  0  0  0
 14  9  1  0  0  0  0
 15 17  1  0  0  0  0
 16 15  1  0  0  0  0
 18 15  1  0  0  0  0
M  END
>  <minimizedAffinity>
-4.18758965

>  <minimizedRMSD>
1.83942258

$$$$
