
 OpenBabel03242509303D

 18 19  0  0  0  0  0  0  0  0999 V2000
   37.5290   28.5700   43.6540 C   0  0  0  0  0  0  0  0  0  0  0  0
   37.4120   27.1880   43.3580 C   0  0  0  0  0  0  0  0  0  0  0  0
   37.2880   26.8260   42.0140 C   0  0  0  0  0  0  0  0  0  0  0  0
   37.2880   27.8240   41.0730 N   0  0  0  0  0  0  0  0  0  0  0  0
   37.4000   29.1150   41.3990 C   0  0  0  0  0  0  0  0  0  0  0  0
   37.5190   29.4770   42.6720 N   0  0  0  0  0  0  0  0  0  0  0  0
   37.6250   28.8620   44.6890 H   0  0  0  0  0  0  0  0  0  0  0  0
   37.4210   26.4530   44.1750 H   0  0  0  0  0  0  0  0  0  0  0  0
   37.3950   30.1110   40.3870 N   0  0  0  0  0  0  0  0  0  0  0  0
   36.6170   31.3310   40.4960 C   0  0  0  0  0  2  0  0  0  0  0  0
   37.1670   32.2440   39.3940 C   0  0  0  0  0  2  0  0  0  0  0  0
   38.5500   32.3060   39.4490 O   0  0  0  0  0  0  0  0  0  0  0  0
   39.1670   31.1080   39.1510 C   0  0  0  0  0  2  0  0  0  0  0  0
   38.1790   29.9540   39.1770 C   0  0  0  0  0  2  0  0  0  0  0  0
   37.1630   25.3780   41.6630 C   0  0  0  0  0  0  0  0  0  0  0  0
   36.4810   25.3410   40.4570 F   0  0  0  0  0  0  0  0  0  0  0  0
   38.3810   24.7780   41.4920 F   0  0  0  0  0  0  0  0  0  0  0  0
   36.4160   24.6940   42.6100 F   0  0  0  0  0  0  0  0  0  0  0  0
  1  7  1  0  0  0  0
  2  1  1  0  0  0  0
  2  8  1  0  0  0  0
  3  2  2  0  0  0  0
  4  5  2  0  0  0  0
  4  3  1  0  0  0  0
  5  6  1  0  0  0  0
  6  1  2  0  0  0  0
  9 10  1  0  0  0  0
  9  5  1  0  0  0  0
 11 12  1  0  0  0  0
 11 10  1  0  0  0  0
 13 14  1  0  0  0  0
 13 12  1  0  0  0  0
 14  9  1  0  0  0  0
 15  3  1  0  0  0  0
 15 18  1  0  0  0  0
 16 15  1  0  0  0  0
 17 15  1  0  0  0  0
M  END
>  <minimizedAffinity>
-4.76005459

>  <minimizedRMSD>
1.53820074

$$$$
