
 OpenBabel03242508073D

 27 29  0  0  0  0  0  0  0  0999 V2000
   38.8180   30.8230   41.6670 C   0  0  0  0  0  0  0  0  0  0  0  0
   37.9260   31.5220   40.9600 N   0  0  0  0  0  0  0  0  0  0  0  0
   36.6810   31.1480   40.7110 C   0  0  0  0  0  0  0  0  0  0  0  0
   36.2160   30.0060   41.1630 N   0  0  0  0  0  0  0  0  0  0  0  0
   37.0100   29.1980   41.8930 C   0  0  0  0  0  0  0  0  0  0  0  0
   36.5290   27.9940   42.3750 C   0  0  0  0  0  0  0  0  0  0  0  0
   37.3240   27.1630   43.1180 C   0  0  0  0  0  0  0  0  0  0  0  0
   38.6330   27.5670   43.3750 C   0  0  0  0  0  0  0  0  0  0  0  0
   39.0490   28.7810   42.8650 C   0  0  0  0  0  0  0  0  0  0  0  0
   38.2990   29.6340   42.1260 C   0  0  0  0  0  0  0  0  0  0  0  0
   36.0220   31.7910   40.1190 H   0  0  0  0  0  0  0  0  0  0  0  0
   35.5020   27.7540   42.1320 H   0  0  0  0  0  0  0  0  0  0  0  0
   36.9010   26.2330   43.4720 H   0  0  0  0  0  0  0  0  0  0  0  0
   39.2670   26.9240   43.9570 H   0  0  0  0  0  0  0  0  0  0  0  0
   40.0910   29.0610   43.0920 H   0  0  0  0  0  0  0  0  0  0  0  0
   41.8480   32.6500   41.0150 C   0  0  0  0  0  0  0  0  0  0  0  0
   42.7550   32.3690   42.0250 C   0  0  0  0  0  0  0  0  0  0  0  0
   42.3150   31.4950   43.0060 C   0  0  0  0  0  0  0  0  0  0  0  0
   41.0650   31.0080   42.8860 N   0  0  0  0  0  0  0  0  0  0  0  0
   40.1780   31.2670   41.9220 C   0  0  0  0  0  0  0  0  0  0  0  0
   40.6390   32.1000   41.0150 N   0  0  0  0  0  0  0  0  0  0  0  0
   42.2190   33.3380   40.2590 H   0  0  0  0  0  0  0  0  0  0  0  0
   43.7500   32.7360   42.1500 H   0  0  0  0  0  0  0  0  0  0  0  0
   43.0040   31.0510   44.1060 O   0  0  0  0  0  0  0  0  0  0  0  0
   43.5700   29.8020   44.3210 C   0  0  0  0  0  0  0  0  0  0  0  0
   44.0280   29.5670   45.7480 C   0  0  0  0  0  0  0  0  0  0  0  0
   44.8250   30.2650   46.0060 H   0  0  0  0  0  0  0  0  0  0  0  0
  1 20  1  0  0  0  0
  1 10  1  0  0  0  0
  2  1  2  0  0  0  0
  3  2  1  0  0  0  0
  3  4  2  0  0  0  0
  4  5  1  0  0  0  0
  5 10  2  0  0  0  0
  5  6  1  0  0  0  0
  6  7  2  0  0  0  0
  7  8  1  0  0  0  0
  7 13  1  0  0  0  0
  8 14  1  0  0  0  0
  9 15  1  0  0  0  0
  9  8  2  0  0  0  0
 10  9  1  0  0  0  0
 11  3  1  0  0  0  0
 12  6  1  0  0  0  0
 16 17  1  0  0  0  0
 17 23  1  0  0  0  0
 17 18  2  0  0  0  0
 18 24  1  0  0  0  0
 19 18  1  0  0  0  0
 20 19  2  0  0  0  0
 21 16  2  0  0  0  0
 21 20  1  0  0  0  0
 22 16  1  0  0  0  0
 24 25  1  0  0  0  0
 25 26  1  0  0  0  0
 26 27  1  0  0  0  0
M  END
>  <minimizedAffinity>
-4.98485279

>  <minimizedRMSD>
5.60366392

$$$$
