
 OpenBabel03242509293D

 18 19  0  0  0  0  0  0  0  0999 V2000
   37.6250   28.6480   43.5690 C   0  0  0  0  0  0  0  0  0  0  0  0
   37.5600   27.2590   43.2900 C   0  0  0  0  0  0  0  0  0  0  0  0
   37.2280   26.8790   41.9870 C   0  0  0  0  0  0  0  0  0  0  0  0
   36.9890   27.8670   41.0660 N   0  0  0  0  0  0  0  0  0  0  0  0
   37.0610   29.1660   41.3760 C   0  0  0  0  0  0  0  0  0  0  0  0
   37.3760   29.5450   42.6100 N   0  0  0  0  0  0  0  0  0  0  0  0
   37.8810   28.9540   44.5730 H   0  0  0  0  0  0  0  0  0  0  0  0
   37.7680   26.5320   44.0880 H   0  0  0  0  0  0  0  0  0  0  0  0
   36.8040   30.1510   40.3860 N   0  0  0  0  0  0  0  0  0  0  0  0
   37.1680   31.5460   40.5580 C   0  0  0  0  0  2  0  0  0  0  0  0
   37.0390   32.1590   39.1610 C   0  0  0  0  0  2  0  0  0  0  0  0
   37.7050   31.3880   38.2210 O   0  0  0  0  0  0  0  0  0  0  0  0
   37.1420   30.1420   38.0300 C   0  0  0  0  0  2  0  0  0  0  0  0
   36.1540   29.8060   39.1370 C   0  0  0  0  0  2  0  0  0  0  0  0
   37.1500   25.4230   41.6550 C   0  0  0  0  0  0  0  0  0  0  0  0
   36.4770   25.3490   40.4460 F   0  0  0  0  0  0  0  0  0  0  0  0
   38.3870   24.8590   41.4990 F   0  0  0  0  0  0  0  0  0  0  0  0
   36.4190   24.7300   42.6070 F   0  0  0  0  0  0  0  0  0  0  0  0
  1  7  1  0  0  0  0
  2  1  1  0  0  0  0
  2  8  1  0  0  0  0
  3  2  2  0  0  0  0
  4  5  2  0  0  0  0
  4  3  1  0  0  0  0
  5  6  1  0  0  0  0
  6  1  2  0  0  0  0
  9 10  1  0  0  0  0
  9  5  1  0  0  0  0
 11 10  1  0  0  0  0
 12 11  1  0  0  0  0
 13 12  1  0  0  0  0
 13 14  1  0  0  0  0
 14  9  1  0  0  0  0
 15  3  1  0  0  0  0
 15 18  1  0  0  0  0
 16 15  1  0  0  0  0
 17 15  1  0  0  0  0
M  END
>  <minimizedAffinity>
-4.74584103

>  <minimizedRMSD>
1.13336527

$$$$
