
 OpenBabel03242508133D

 45 49  0  0  1  0  0  0  0  0999 V2000
   38.8920   35.6160   40.1340 C   0  0  0  0  0  0  0  0  0  0  0  0
   40.2250   36.0260   40.3110 C   0  0  0  0  0  0  0  0  0  0  0  0
   41.1570   35.0070   40.6030 C   0  0  0  0  0  0  0  0  0  0  0  0
   40.6780   33.7800   40.6770 N   0  0  0  0  0  0  0  0  0  0  0  0
   39.4470   33.3540   40.5190 C   0  0  0  0  0  0  0  0  0  0  0  0
   38.5800   34.3270   40.2460 N   0  0  0  0  0  0  0  0  0  0  0  0
   38.1910   36.4070   39.9120 H   0  0  0  0  0  0  0  0  0  0  0  0
   40.5080   37.0630   40.2270 H   0  0  0  0  0  0  0  0  0  0  0  0
   38.8150   32.0480   40.5810 C   0  0  0  0  0  0  0  0  0  0  0  0
   38.7420   31.3060   41.7070 N   0  0  0  0  0  0  0  0  0  0  0  0
   38.1760   30.1170   41.8010 C   0  0  0  0  0  0  0  0  0  0  0  0
   37.6180   29.5440   40.7500 N   0  0  0  0  0  0  0  0  0  0  0  0
   37.6240   30.1840   39.5540 C   0  0  0  0  0  0  0  0  0  0  0  0
   37.0430   29.5940   38.4480 C   0  0  0  0  0  0  0  0  0  0  0  0
   37.0350   30.2150   37.2420 C   0  0  0  0  0  0  0  0  0  0  0  0
   37.6420   31.4930   37.1380 C   0  0  0  0  0  0  0  0  0  0  0  0
   38.2000   32.0160   38.2820 C   0  0  0  0  0  0  0  0  0  0  0  0
   38.2250   31.4230   39.5030 C   0  0  0  0  0  0  0  0  0  0  0  0
   38.2180   29.6790   42.7900 H   0  0  0  0  0  0  0  0  0  0  0  0
   36.5780   28.6180   38.5240 H   0  0  0  0  0  0  0  0  0  0  0  0
   36.5910   29.7870   36.3510 H   0  0  0  0  0  0  0  0  0  0  0  0
   37.6590   32.0160   36.2130 H   0  0  0  0  0  0  0  0  0  0  0  0
   38.6610   33.0030   38.1730 H   0  0  0  0  0  0  0  0  0  0  0  0
   42.4310   35.2890   40.7900 O   0  0  0  0  0  0  0  0  0  0  0  0
   43.1370   35.1310   42.0070 C   0  0  2  0  0  0  0  0  0  0  0  0
   42.7000   34.3740   42.6850 H   0  0  0  0  0  0  0  0  0  0  0  0
   42.8450   36.4660   42.7960 C   0  0  0  0  0  0  0  0  0  0  0  0
   42.9240   37.3230   42.0980 H   0  0  0  0  0  0  0  0  0  0  0  0
   43.6090   36.5090   43.5980 H   0  0  0  0  0  0  0  0  0  0  0  0
   41.8130   36.4460   43.1710 H   0  0  0  0  0  0  0  0  0  0  0  0
   44.6020   35.0130   41.8000 C   0  0  0  0  0  0  0  0  0  0  0  0
   45.0940   35.9780   41.6630 H   0  0  0  0  0  0  0  0  0  0  0  0
   44.7580   34.3260   40.9300 H   0  0  0  0  0  0  0  0  0  0  0  0
   45.1540   34.3460   42.9720 N   0  0  0  0  0  0  0  0  0  0  0  0
   46.3470   34.6470   43.5480 C   0  0  0  0  0  0  0  0  0  0  0  0
   46.5610   33.8450   44.6150 N   0  0  0  0  0  0  0  0  0  0  0  0
   45.4680   33.0350   44.6890 C   0  0  0  0  0  0  0  0  0  0  0  0
   44.6280   33.3580   43.6820 N   0  0  0  0  0  0  0  0  0  0  0  0
   47.0230   35.4090   43.2090 H   0  0  0  0  0  0  0  0  0  0  0  0
   45.0650   31.9740   45.5770 N   0  0  0  0  0  0  0  0  0  0  0  0
   45.6260   31.6510   46.8740 C   0  0  0  0  0  0  0  0  0  0  0  0
   44.5880   30.8110   47.5800 C   0  0  0  0  0  0  0  0  0  0  0  0
   44.5980   29.5800   46.9080 O   0  0  0  0  0  0  0  0  0  0  0  0
   44.1390   29.6980   45.6020 C   0  0  0  0  0  0  0  0  0  0  0  0
   43.9970   31.1300   45.1570 C   0  0  0  0  0  0  0  0  0  0  0  0
  1  6  2  0  0  0  0
  1  2  1  0  0  0  0
  2  3  2  0  0  0  0
  3  4  1  0  0  0  0
  3 24  1  0  0  0  0
  5  9  1  0  0  0  0
  5  4  2  0  0  0  0
  6  5  1  0  0  0  0
  7  1  1  0  0  0  0
  8  2  1  0  0  0  0
  9 10  1  0  0  0  0
 10 11  2  0  0  0  0
 11 19  1  0  0  0  0
 12 11  1  0  0  0  0
 13 12  2  0  0  0  0
 14 20  1  0  0  0  0
 14 13  1  0  0  0  0
 15 14  2  0  0  0  0
 16 15  1  0  0  0  0
 16 17  2  0  0  0  0
 17 18  1  0  0  0  0
 18 13  1  0  0  0  0
 18  9  2  0  0  0  0
 21 15  1  0  0  0  0
 22 16  1  0  0  0  0
 23 17  1  0  0  0  0
 24 25  1  0  0  0  0
 25 26  1  1  0  0  0
 25 27  1  0  0  0  0
 27 30  1  0  0  0  0
 27 29  1  0  0  0  0
 28 27  1  0  0  0  0
 31 25  1  0  0  0  0
 31 34  1  0  0  0  0
 32 31  1  0  0  0  0
 33 31  1  0  0  0  0
 34 35  1  0  0  0  0
 34 38  1  0  0  0  0
 35 36  2  0  0  0  0
 36 37  1  0  0  0  0
 37 40  1  0  0  0  0
 38 37  2  0  0  0  0
 39 35  1  0  0  0  0
 40 41  1  0  0  0  0
 41 42  1  0  0  0  0
 43 42  1  0  0  0  0
 44 43  1  0  0  0  0
 45 40  1  0  0  0  0
 45 44  1  0  0  0  0
M  END
>  <minimizedAffinity>
-7.03743029

>  <minimizedRMSD>
0.268577456

$$$$
