
 OpenBabel03242509293D

 18 19  0  0  0  0  0  0  0  0999 V2000
   37.6510   28.7700   43.6130 C   0  0  0  0  0  0  0  0  0  0  0  0
   37.7240   27.3570   43.5190 C   0  0  0  0  0  0  0  0  0  0  0  0
   37.4680   26.7810   42.2720 C   0  0  0  0  0  0  0  0  0  0  0  0
   37.1630   27.6130   41.2260 N   0  0  0  0  0  0  0  0  0  0  0  0
   37.1050   28.9420   41.3620 C   0  0  0  0  0  0  0  0  0  0  0  0
   37.3470   29.5070   42.5400 N   0  0  0  0  0  0  0  0  0  0  0  0
   37.8470   29.2270   44.5720 H   0  0  0  0  0  0  0  0  0  0  0  0
   37.9760   26.7640   44.4100 H   0  0  0  0  0  0  0  0  0  0  0  0
   36.7860   29.7600   40.2470 N   0  0  0  0  0  0  0  0  0  0  0  0
   37.7830   30.5470   39.5430 C   0  0  0  0  0  2  0  0  0  0  0  0
   37.0950   30.9750   38.2420 C   0  0  0  0  0  2  0  0  0  0  0  0
   36.5110   29.8870   37.6120 O   0  0  0  0  0  0  0  0  0  0  0  0
   35.4560   29.3430   38.3170 C   0  0  0  0  0  2  0  0  0  0  0  0
   35.4270   29.8520   39.7500 C   0  0  0  0  0  2  0  0  0  0  0  0
   37.5360   25.2930   42.1350 C   0  0  0  0  0  0  0  0  0  0  0  0
   37.6250   25.0450   40.7740 F   0  0  0  0  0  0  0  0  0  0  0  0
   38.6400   24.7660   42.7460 F   0  0  0  0  0  0  0  0  0  0  0  0
   36.3830   24.6910   42.6150 F   0  0  0  0  0  0  0  0  0  0  0  0
  1  7  1  0  0  0  0
  2  1  1  0  0  0  0
  2  8  1  0  0  0  0
  3  2  2  0  0  0  0
  4  5  2  0  0  0  0
  4  3  1  0  0  0  0
  5  6  1  0  0  0  0
  6  1  2  0  0  0  0
  9  5  1  0  0  0  0
 10  9  1  0  0  0  0
 11 10  1  0  0  0  0
 12 11  1  0  0  0  0
 12 13  1  0  0  0  0
 13 14  1  0  0  0  0
 14  9  1  0  0  0  0
 15  3  1  0  0  0  0
 15 18  1  0  0  0  0
 15 17  1  0  0  0  0
 16 15  1  0  0  0  0
M  END
>  <minimizedAffinity>
-4.55089283

>  <minimizedRMSD>
0.929048836

$$$$
