
 OpenBabel03242509293D

 18 19  0  0  0  0  0  0  0  0999 V2000
   37.5640   28.7300   43.5640 C   0  0  0  0  0  0  0  0  0  0  0  0
   38.0940   27.4280   43.7460 C   0  0  0  0  0  0  0  0  0  0  0  0
   38.5570   26.7570   42.6110 C   0  0  0  0  0  0  0  0  0  0  0  0
   38.4680   27.3960   41.4010 N   0  0  0  0  0  0  0  0  0  0  0  0
   37.9580   28.6260   41.2770 C   0  0  0  0  0  0  0  0  0  0  0  0
   37.5150   29.2790   42.3460 N   0  0  0  0  0  0  0  0  0  0  0  0
   37.2030   29.2590   44.4350 H   0  0  0  0  0  0  0  0  0  0  0  0
   38.1290   26.9890   44.7530 H   0  0  0  0  0  0  0  0  0  0  0  0
   37.8890   29.2450   40.0020 N   0  0  0  0  0  0  0  0  0  0  0  0
   37.4190   28.5480   38.8190 C   0  0  0  0  0  2  0  0  0  0  0  0
   37.1770   29.6510   37.7830 C   0  0  0  0  0  2  0  0  0  0  0  0
   36.4130   30.6740   38.3240 O   0  0  0  0  0  0  0  0  0  0  0  0
   37.0550   31.3710   39.3270 C   0  0  0  0  0  2  0  0  0  0  0  0
   38.2880   30.6270   39.8160 C   0  0  0  0  0  2  0  0  0  0  0  0
   39.1230   25.3810   42.7630 C   0  0  0  0  0  0  0  0  0  0  0  0
   40.0140   25.2230   41.7130 F   0  0  0  0  0  0  0  0  0  0  0  0
   39.8080   25.2300   43.9390 F   0  0  0  0  0  0  0  0  0  0  0  0
   38.1360   24.4160   42.6510 F   0  0  0  0  0  0  0  0  0  0  0  0
  1  2  1  0  0  0  0
  1  7  1  0  0  0  0
  2  8  1  0  0  0  0
  3 15  1  0  0  0  0
  3  2  2  0  0  0  0
  4  3  1  0  0  0  0
  5  4  2  0  0  0  0
  5  6  1  0  0  0  0
  6  1  2  0  0  0  0
  9  5  1  0  0  0  0
 10  9  1  0  0  0  0
 11 12  1  0  0  0  0
 11 10  1  0  0  0  0
 12 13  1  0  0  0  0
 13 14  1  0  0  0  0
 14  9  1  0  0  0  0
 15 17  1  0  0  0  0
 16 15  1  0  0  0  0
 18 15  1  0  0  0  0
M  END
>  <minimizedAffinity>
-4.33861208

>  <minimizedRMSD>
2.0186305

$$$$
