
 OpenBabel03242509293D

 18 19  0  0  0  0  0  0  0  0999 V2000
   37.6170   28.7420   43.5960 C   0  0  0  0  0  0  0  0  0  0  0  0
   38.1010   27.4180   43.7500 C   0  0  0  0  0  0  0  0  0  0  0  0
   38.5050   26.7430   42.5960 C   0  0  0  0  0  0  0  0  0  0  0  0
   38.4090   27.3990   41.3950 N   0  0  0  0  0  0  0  0  0  0  0  0
   37.9450   28.6490   41.2980 C   0  0  0  0  0  0  0  0  0  0  0  0
   37.5570   29.3070   42.3860 N   0  0  0  0  0  0  0  0  0  0  0  0
   37.3010   29.2750   44.4820 H   0  0  0  0  0  0  0  0  0  0  0  0
   38.1450   26.9670   44.7510 H   0  0  0  0  0  0  0  0  0  0  0  0
   37.8660   29.2850   40.0320 N   0  0  0  0  0  0  0  0  0  0  0  0
   37.0640   28.7590   38.9430 C   0  0  0  0  0  2  0  0  0  0  0  0
   36.9840   29.9040   37.9270 C   0  0  0  0  0  2  0  0  0  0  0  0
   36.6080   31.0860   38.5460 O   0  0  0  0  0  0  0  0  0  0  0  0
   37.5480   31.5680   39.4340 C   0  0  0  0  0  2  0  0  0  0  0  0
   38.5920   30.5110   39.7610 C   0  0  0  0  0  2  0  0  0  0  0  0
   39.0210   25.3450   42.7190 C   0  0  0  0  0  0  0  0  0  0  0  0
   39.8680   25.1600   41.6370 F   0  0  0  0  0  0  0  0  0  0  0  0
   39.7390   25.1560   43.8680 F   0  0  0  0  0  0  0  0  0  0  0  0
   37.9920   24.4200   42.6330 F   0  0  0  0  0  0  0  0  0  0  0  0
  1  2  1  0  0  0  0
  1  7  1  0  0  0  0
  2  8  1  0  0  0  0
  3 15  1  0  0  0  0
  3  2  2  0  0  0  0
  4  3  1  0  0  0  0
  5  4  2  0  0  0  0
  5  6  1  0  0  0  0
  6  1  2  0  0  0  0
  9  5  1  0  0  0  0
 10  9  1  0  0  0  0
 11 12  1  0  0  0  0
 11 10  1  0  0  0  0
 12 13  1  0  0  0  0
 13 14  1  0  0  0  0
 14  9  1  0  0  0  0
 15 17  1  0  0  0  0
 16 15  1  0  0  0  0
 18 15  1  0  0  0  0
M  END
>  <minimizedAffinity>
-4.28829622

>  <minimizedRMSD>
1.91515076

$$$$
