
 OpenBabel03242509293D

 18 19  0  0  0  0  0  0  0  0999 V2000
   40.0100   25.4150   39.8190 C   0  0  0  0  0  0  0  0  0  0  0  0
   39.3280   24.2040   39.5370 C   0  0  0  0  0  0  0  0  0  0  0  0
   38.0750   24.0180   40.1270 C   0  0  0  0  0  0  0  0  0  0  0  0
   37.5890   25.0110   40.9380 N   0  0  0  0  0  0  0  0  0  0  0  0
   38.2690   26.1370   41.1770 C   0  0  0  0  0  0  0  0  0  0  0  0
   39.4620   26.3310   40.6220 N   0  0  0  0  0  0  0  0  0  0  0  0
   40.9800   25.5700   39.3680 H   0  0  0  0  0  0  0  0  0  0  0  0
   39.7910   23.4590   38.8740 H   0  0  0  0  0  0  0  0  0  0  0  0
   37.7220   27.1370   42.0230 N   0  0  0  0  0  0  0  0  0  0  0  0
   37.9550   27.1600   43.4560 C   0  0  0  0  0  2  0  0  0  0  0  0
   37.4980   28.5520   43.9040 C   0  0  0  0  0  2  0  0  0  0  0  0
   38.0570   29.5350   43.1030 O   0  0  0  0  0  0  0  0  0  0  0  0
   37.6090   29.5030   41.7980 C   0  0  0  0  0  2  0  0  0  0  0  0
   36.8920   28.1990   41.4900 C   0  0  0  0  0  2  0  0  0  0  0  0
   37.3260   22.7530   39.8520 C   0  0  0  0  0  0  0  0  0  0  0  0
   36.0080   23.0160   40.1920 F   0  0  0  0  0  0  0  0  0  0  0  0
   37.3710   22.4000   38.5310 F   0  0  0  0  0  0  0  0  0  0  0  0
   37.7850   21.7140   40.6470 F   0  0  0  0  0  0  0  0  0  0  0  0
  1  6  1  0  0  0  0
  2  1  2  0  0  0  0
  2  3  1  0  0  0  0
  3  4  2  0  0  0  0
  4  5  1  0  0  0  0
  5  9  1  0  0  0  0
  6  5  2  0  0  0  0
  7  1  1  0  0  0  0
  8  2  1  0  0  0  0
  9 10  1  0  0  0  0
 10 11  1  0  0  0  0
 12 11  1  0  0  0  0
 13 12  1  0  0  0  0
 14 13  1  0  0  0  0
 14  9  1  0  0  0  0
 15  3  1  0  0  0  0
 15 16  1  0  0  0  0
 15 18  1  0  0  0  0
 17 15  1  0  0  0  0
M  END
>  <minimizedAffinity>
-3.62444687

>  <minimizedRMSD>
4.23197842

$$$$
