
 OpenBabel03242509293D

 18 19  0  0  0  0  0  0  0  0999 V2000
   38.1230   28.4760   43.6130 C   0  0  0  0  0  0  0  0  0  0  0  0
   38.5440   27.1260   43.6330 C   0  0  0  0  0  0  0  0  0  0  0  0
   38.2510   26.3340   42.5070 C   0  0  0  0  0  0  0  0  0  0  0  0
   37.5780   26.9170   41.4630 N   0  0  0  0  0  0  0  0  0  0  0  0
   37.2050   28.2040   41.4990 C   0  0  0  0  0  0  0  0  0  0  0  0
   37.4690   28.9730   42.5510 N   0  0  0  0  0  0  0  0  0  0  0  0
   38.3680   29.0410   44.4910 H   0  0  0  0  0  0  0  0  0  0  0  0
   39.0650   26.7100   44.4680 H   0  0  0  0  0  0  0  0  0  0  0  0
   36.5100   28.7530   40.3850 N   0  0  0  0  0  0  0  0  0  0  0  0
   36.5910   28.4030   38.9800 C   0  0  0  0  0  2  0  0  0  0  0  0
   35.1550   28.5050   38.4590 C   0  0  0  0  0  2  0  0  0  0  0  0
   34.3950   29.1290   39.6240 C   0  0  0  0  0  2  0  0  0  0  0  0
   35.5260   29.8200   40.3620 C   0  0  0  0  0  3  0  0  0  0  0  0
   35.2570   30.1050   41.3970 H   0  0  0  0  0  0  0  0  0  0  0  0
   38.6760   24.9110   42.4920 C   0  0  0  0  0  0  0  0  0  0  0  0
   39.3490   24.7330   41.3110 F   0  0  0  0  0  0  0  0  0  0  0  0
   39.5290   24.6190   43.5320 F   0  0  0  0  0  0  0  0  0  0  0  0
   37.5930   24.0500   42.5450 F   0  0  0  0  0  0  0  0  0  0  0  0
  1  2  1  0  0  0  0
  1  7  1  0  0  0  0
  2  8  1  0  0  0  0
  3  2  2  0  0  0  0
  4  5  2  0  0  0  0
  4  3  1  0  0  0  0
  5  6  1  0  0  0  0
  6  1  2  0  0  0  0
  9  5  1  0  0  0  0
 10  9  1  0  0  0  0
 11 10  1  0  0  0  0
 11 12  1  0  0  0  0
 12 13  1  0  0  0  0
 13  9  1  0  0  0  0
 13 14  1  0  0  0  0
 15  3  1  0  0  0  0
 15 18  1  0  0  0  0
 15 17  1  0  0  0  0
 16 15  1  0  0  0  0
M  END
>  <minimizedAffinity>
-4.43519258

>  <minimizedRMSD>
1.19805026

$$$$
