
 OpenBabel03242509293D

 18 19  0  0  0  0  0  0  0  0999 V2000
   37.8480   28.5580   43.5990 C   0  0  0  0  0  0  0  0  0  0  0  0
   37.7750   27.1740   43.3210 C   0  0  0  0  0  0  0  0  0  0  0  0
   37.2750   26.7870   42.0620 C   0  0  0  0  0  0  0  0  0  0  0  0
   36.8910   27.7710   41.1880 N   0  0  0  0  0  0  0  0  0  0  0  0
   36.9840   29.0700   41.5080 C   0  0  0  0  0  0  0  0  0  0  0  0
   37.4520   29.4620   42.6890 N   0  0  0  0  0  0  0  0  0  0  0  0
   38.2350   28.8060   44.5690 H   0  0  0  0  0  0  0  0  0  0  0  0
   38.0850   26.4380   44.0310 H   0  0  0  0  0  0  0  0  0  0  0  0
   36.5700   30.0460   40.5580 N   0  0  0  0  0  0  0  0  0  0  0  0
   36.8280   31.4730   40.5250 C   0  0  0  0  0  2  0  0  0  0  0  0
   37.0510   31.8060   39.0490 C   0  0  0  0  0  2  0  0  0  0  0  0
   36.6800   30.5110   38.3290 C   0  0  0  0  0  2  0  0  0  0  0  0
   35.7710   29.8680   39.3590 C   0  0  0  0  0  3  0  0  0  0  0  0
   35.6040   28.7890   39.1750 H   0  0  0  0  0  0  0  0  0  0  0  0
   37.1830   25.3410   41.7330 C   0  0  0  0  0  0  0  0  0  0  0  0
   36.5980   25.2750   40.4950 F   0  0  0  0  0  0  0  0  0  0  0  0
   38.4230   24.7500   41.6640 F   0  0  0  0  0  0  0  0  0  0  0  0
   36.4080   24.6530   42.6510 F   0  0  0  0  0  0  0  0  0  0  0  0
  1  7  1  0  0  0  0
  2  1  1  0  0  0  0
  2  8  1  0  0  0  0
  3  2  2  0  0  0  0
  4  5  2  0  0  0  0
  4  3  1  0  0  0  0
  5  6  1  0  0  0  0
  6  1  2  0  0  0  0
  9  5  1  0  0  0  0
 10  9  1  0  0  0  0
 11 10  1  0  0  0  0
 12 11  1  0  0  0  0
 12 13  1  0  0  0  0
 13  9  1  0  0  0  0
 14 13  1  0  0  0  0
 15  3  1  0  0  0  0
 15 18  1  0  0  0  0
 16 15  1  0  0  0  0
 17 15  1  0  0  0  0
M  END
>  <minimizedAffinity>
-4.79588747

>  <minimizedRMSD>
0.835869789

$$$$
