
 OpenBabel03242509073D

 36 40  0  0  1  0  0  0  0  0999 V2000
   35.9420   30.5780   40.8640 C   0  0  0  0  0  0  0  0  0  0  0  0
   36.5770   29.4850   41.4850 C   0  0  0  0  0  0  0  0  0  0  0  0
   37.9680   29.4650   41.5260 C   0  0  0  0  0  0  0  0  0  0  0  0
   38.6180   30.5130   40.9580 N   0  0  0  0  0  0  0  0  0  0  0  0
   37.9980   31.5470   40.3700 C   0  0  0  0  0  0  0  0  0  0  0  0
   36.6460   31.5770   40.3250 N   0  0  0  0  0  0  0  0  0  0  0  0
   34.8570   30.5550   40.8550 H   0  0  0  0  0  0  0  0  0  0  0  0
   36.0250   28.6640   41.9290 H   0  0  0  0  0  0  0  0  0  0  0  0
   38.6390   28.3410   42.1530 C   0  0  0  0  0  0  0  0  0  0  0  0
   39.7550   28.3520   42.9570 C   0  0  0  0  0  0  0  0  0  0  0  0
   40.0520   27.0840   43.3290 N   0  0  0  0  0  0  0  0  0  0  0  0
   39.1590   26.2250   42.7900 C   0  0  0  0  0  0  0  0  0  0  0  0
   38.9890   24.8510   42.8380 C   0  0  0  0  0  0  0  0  0  0  0  0
   37.9570   24.2210   42.1710 C   0  0  0  0  0  0  0  0  0  0  0  0
   37.1000   25.0170   41.4540 C   0  0  0  0  0  0  0  0  0  0  0  0
   37.2530   26.3810   41.3980 C   0  0  0  0  0  0  0  0  0  0  0  0
   38.2890   27.0130   42.0650 C   0  0  0  0  0  0  0  0  0  0  0  0
   40.3130   29.2210   43.2510 H   0  0  0  0  0  0  0  0  0  0  0  0
   40.8520   26.7770   43.9430 H   0  0  0  0  0  0  0  0  0  0  0  0
   39.6670   24.2550   43.4010 H   0  0  0  0  0  0  0  0  0  0  0  0
   37.8120   23.1430   42.2000 H   0  0  0  0  0  0  0  0  0  0  0  0
   36.2550   24.6250   40.8940 H   0  0  0  0  0  0  0  0  0  0  0  0
   36.5780   27.0120   40.8310 H   0  0  0  0  0  0  0  0  0  0  0  0
   38.7950   32.6670   39.7740 C   0  0  1  0  0  0  0  0  0  0  0  0
   38.5730   34.0620   40.3510 C   0  0  0  0  0  0  0  0  0  0  0  0
   39.8480   33.3180   40.6090 C   0  0  2  0  0  0  0  0  0  0  0  0
   38.9900   32.5810   38.6980 H   0  0  0  0  0  0  0  0  0  0  0  0
   38.4560   34.8100   39.5650 H   0  0  0  0  0  0  0  0  0  0  0  0
   37.7670   34.1070   41.1060 H   0  0  0  0  0  0  0  0  0  0  0  0
   39.8760   32.9290   41.6730 H   0  0  0  0  0  0  0  0  0  0  0  0
   41.0900   33.7520   40.0600 N   0  0  2  0  0  0  0  0  0  0  0  0
   42.1950   33.4320   40.9160 C   0  0  0  0  0  0  0  0  0  0  0  0
   42.7520   34.7210   41.4790 C   0  0  0  0  0  0  0  0  0  0  0  0
   41.7050   35.7560   41.0500 C   0  0  0  0  0  0  0  0  0  0  0  0
   41.2310   35.1280   39.7690 C   0  0  0  0  0  0  0  0  0  0  0  0
   42.0830   35.2330   39.0480 H   0  0  0  0  0  0  0  0  0  0  0  0
  1  2  1  0  0  0  0
  2  3  2  0  0  0  0
  2  8  1  0  0  0  0
  3  9  1  0  0  0  0
  4  3  1  0  0  0  0
  5  4  2  0  0  0  0
  6  5  1  0  0  0  0
  6  1  2  0  0  0  0
  7  1  1  0  0  0  0
  9 10  2  0  0  0  0
 10 18  1  0  0  0  0
 10 11  1  0  0  0  0
 11 19  1  0  0  0  0
 12 13  1  0  0  0  0
 12 11  1  0  0  0  0
 13 20  1  0  0  0  0
 14 21  1  0  0  0  0
 14 13  2  0  0  0  0
 15 14  1  0  0  0  0
 16 15  2  0  0  0  0
 16 17  1  0  0  0  0
 17  9  1  0  0  0  0
 17 12  2  0  0  0  0
 22 15  1  0  0  0  0
 23 16  1  0  0  0  0
 24 27  1  6  0  0  0
 24 25  1  0  0  0  0
 24  5  1  0  0  0  0
 24 26  1  0  0  0  0
 25 26  1  0  0  0  0
 25 29  1  0  0  0  0
 26 30  1  1  0  0  0
 28 25  1  0  0  0  0
 31 26  1  0  0  0  0
 31 32  1  1  0  0  0
 32 33  1  0  0  0  0
 34 33  1  0  0  0  0
 35 31  1  0  0  0  0
 35 34  1  0  0  0  0
 36 35  1  0  0  0  0
M  END
>  <minimizedAffinity>
-6.04676723

>  <minimizedRMSD>
0.880955696

$$$$
