
 OpenBabel03242508183D

 28 31  0  0  0  0  0  0  0  0999 V2000
   38.4250   27.5750   43.9280 C   0  0  0  0  0  0  0  0  0  0  0  0
   38.9800   26.5870   43.1020 C   0  0  0  0  0  0  0  0  0  0  0  0
   39.0600   26.8630   41.7340 C   0  0  0  0  0  0  0  0  0  0  0  0
   38.5990   28.0620   41.2860 N   0  0  0  0  0  0  0  0  0  0  0  0
   38.0690   28.9920   42.1080 C   0  0  0  0  0  0  0  0  0  0  0  0
   37.9850   28.7380   43.4420 N   0  0  0  0  0  0  0  0  0  0  0  0
   37.6600   30.1560   41.4020 N   0  0  0  0  0  0  0  0  0  0  0  0
   36.3930   30.2860   40.9440 C   0  0  0  0  0  0  0  0  0  0  0  0
   36.2530   31.4660   40.3130 N   0  0  0  0  0  0  0  0  0  0  0  0
   37.4360   32.0980   40.3670 C   0  0  0  0  0  0  0  0  0  0  0  0
   37.9180   33.3150   39.9120 C   0  0  0  0  0  0  0  0  0  0  0  0
   39.2000   33.6450   40.1460 N   0  0  0  0  0  0  0  0  0  0  0  0
   40.0360   32.8170   40.8180 C   0  0  0  0  0  0  0  0  0  0  0  0
   39.5910   31.6200   41.2750 N   0  0  0  0  0  0  0  0  0  0  0  0
   38.2990   31.2670   41.0480 C   0  0  0  0  0  0  0  0  0  0  0  0
   36.9800   34.1050   39.2240 N   0  0  0  0  0  0  0  0  0  0  0  0
   38.3290   27.4360   44.9980 H   0  0  0  0  0  0  0  0  0  0  0  0
   39.3250   25.6590   43.5380 H   0  0  0  0  0  0  0  0  0  0  0  0
   39.4850   26.1200   41.0660 H   0  0  0  0  0  0  0  0  0  0  0  0
   35.5200   29.6580   40.9850 H   0  0  0  0  0  0  0  0  0  0  0  0
   36.9160   33.7190   38.2540 H   0  0  0  0  0  0  0  0  0  0  0  0
   36.4540   34.9240   39.6260 H   0  0  0  0  0  0  0  0  0  0  0  0
   41.3820   33.2240   41.0330 N   0  0  0  0  0  0  0  0  0  0  0  0
   42.3840   32.4630   41.7230 C   0  0  0  0  0  0  0  0  0  0  0  0
   43.5280   33.4220   41.9690 C   0  0  0  0  0  0  0  0  0  0  0  0
   42.9930   34.8040   41.6350 C   0  0  0  0  0  0  0  0  0  0  0  0
   41.9550   34.4860   40.5840 C   0  0  0  0  0  0  0  0  0  0  0  0
   42.4280   34.2890   39.5940 H   0  0  0  0  0  0  0  0  0  0  0  0
  1 17  1  0  0  0  0
  2 18  1  0  0  0  0
  2  1  2  0  0  0  0
  3  2  1  0  0  0  0
  4  3  2  0  0  0  0
  4  5  1  0  0  0  0
  5  6  2  0  0  0  0
  6  1  1  0  0  0  0
  7  5  1  0  0  0  0
  8 20  1  0  0  0  0
  8  7  1  0  0  0  0
  9 10  1  0  0  0  0
  9  8  2  0  0  0  0
 10 15  1  0  0  0  0
 11 12  1  0  0  0  0
 11 10  2  0  0  0  0
 12 13  2  0  0  0  0
 13 23  1  0  0  0  0
 13 14  1  0  0  0  0
 15 14  2  0  0  0  0
 15  7  1  0  0  0  0
 16 22  1  0  0  0  0
 16 11  1  0  0  0  0
 19  3  1  0  0  0  0
 21 16  1  0  0  0  0
 23 24  1  0  0  0  0
 24 25  1  0  0  0  0
 26 25  1  0  0  0  0
 27 23  1  0  0  0  0
 27 26  1  0  0  0  0
 28 27  1  0  0  0  0
M  END
>  <minimizedAffinity>
-6.36849689

>  <minimizedRMSD>
1.47798252

$$$$
