
 OpenBabel03242508283D

 28 31  0  0  0  0  0  0  0  0999 V2000
   36.3380   30.5670   41.3510 O   0  0  0  0  0  0  0  0  0  0  0  0
   38.4960   28.3840   43.2830 C   0  0  0  0  0  0  0  0  0  0  0  0
   38.1810   27.1460   42.6490 C   0  0  0  0  0  0  0  0  0  0  0  0
   37.2440   27.1780   41.6030 C   0  0  0  0  0  0  0  0  0  0  0  0
   36.6930   28.3650   41.2530 N   0  0  0  0  0  0  0  0  0  0  0  0
   37.0190   29.5050   41.8760 C   0  0  0  0  0  0  0  0  0  0  0  0
   37.9140   29.5200   42.8850 N   0  0  0  0  0  0  0  0  0  0  0  0
   39.2120   28.4180   44.0940 H   0  0  0  0  0  0  0  0  0  0  0  0
   38.6730   26.2730   43.0040 H   0  0  0  0  0  0  0  0  0  0  0  0
   36.9370   25.9380   40.9780 N   0  0  0  0  0  0  0  0  0  0  0  0
   36.5490   25.8240   39.6080 C   0  0  0  0  0  0  0  0  0  0  0  0
   36.1030   24.3870   39.4660 C   0  0  0  0  0  0  0  0  0  0  0  0
   36.8360   23.6220   40.5460 C   0  0  0  0  0  0  0  0  0  0  0  0
   36.9800   24.6370   41.6530 C   0  0  0  0  0  0  0  0  0  0  0  0
   37.9260   24.5000   42.2210 H   0  0  0  0  0  0  0  0  0  0  0  0
   36.9690   31.4430   40.4750 C   0  0  0  0  0  0  0  0  0  0  0  0
   36.8670   31.6050   39.1340 N   0  0  0  0  0  0  0  0  0  0  0  0
   37.6650   32.5650   38.7530 O   0  0  0  0  0  0  0  0  0  0  0  0
   38.2760   33.0180   39.8370 C   0  0  0  0  0  0  0  0  0  0  0  0
   37.8630   32.3440   40.9050 N   0  0  0  0  0  0  0  0  0  0  0  0
   39.2510   34.1010   39.8160 C   0  0  0  0  0  0  0  0  0  0  0  0
   39.0290   35.4120   40.2190 C   0  0  0  0  0  0  0  0  0  0  0  0
   40.1890   36.1380   40.0510 C   0  0  0  0  0  0  0  0  0  0  0  0
   41.0950   35.2200   39.5410 C   0  0  0  0  0  0  0  0  0  0  0  0
   40.4990   34.0730   39.4300 O   0  0  0  0  0  0  0  0  0  0  0  0
   38.1190   35.8590   40.6090 H   0  0  0  0  0  0  0  0  0  0  0  0
   40.4720   37.1480   40.2230 H   0  0  0  0  0  0  0  0  0  0  0  0
   42.1460   35.3380   39.2510 H   0  0  0  0  0  0  0  0  0  0  0  0
  1  6  1  0  0  0  0
  2  8  1  0  0  0  0
  3  9  1  0  0  0  0
  3  2  2  0  0  0  0
  4  3  1  0  0  0  0
  5  4  2  0  0  0  0
  5  6  1  0  0  0  0
  6  7  2  0  0  0  0
  7  2  1  0  0  0  0
 10  4  1  0  0  0  0
 10 14  1  0  0  0  0
 11 10  1  0  0  0  0
 12 11  1  0  0  0  0
 12 13  1  0  0  0  0
 13 14  1  0  0  0  0
 14 15  1  0  0  0  0
 16 20  1  0  0  0  0
 16  1  1  0  0  0  0
 17 16  2  0  0  0  0
 18 17  1  0  0  0  0
 18 19  1  0  0  0  0
 19 20  2  0  0  0  0
 21 19  1  0  0  0  0
 21 22  2  0  0  0  0
 22 26  1  0  0  0  0
 23 22  1  0  0  0  0
 23 27  1  0  0  0  0
 24 23  2  0  0  0  0
 25 24  1  0  0  0  0
 25 21  1  0  0  0  0
 28 24  1  0  0  0  0
M  END
>  <minimizedAffinity>
-6.19320869

>  <minimizedRMSD>
0.714485943

$$$$
