
 OpenBabel03242507183D

 47 51  0  0  0  0  0  0  0  0999 V2000
   35.1080   28.8840   40.3290 C   0  0  0  0  0  0  0  0  0  0  0  0
   36.3130   28.3350   40.7430 C   0  0  0  0  0  0  0  0  0  0  0  0
   37.0760   27.6860   39.7470 C   0  0  0  0  0  0  0  0  0  0  0  0
   36.6340   27.6160   38.4730 N   0  0  0  0  0  0  0  0  0  0  0  0
   35.4210   28.1860   38.1250 C   0  0  0  0  0  0  0  0  0  0  0  0
   34.6510   28.8250   39.0620 N   0  0  0  0  0  0  0  0  0  0  0  0
   34.5670   29.3640   41.1170 H   0  0  0  0  0  0  0  0  0  0  0  0
   38.0330   27.2200   39.9480 H   0  0  0  0  0  0  0  0  0  0  0  0
   36.7940   28.3930   42.0430 N   0  0  0  0  0  0  0  0  0  0  0  0
   36.4340   27.5910   43.0600 C   0  0  0  0  0  0  0  0  0  0  0  0
   37.1690   28.0240   44.1340 C   0  0  0  0  0  0  0  0  0  0  0  0
   37.9650   29.0800   43.7650 N   0  0  0  0  0  0  0  0  0  0  0  0
   37.7100   29.2780   42.4780 C   0  0  0  0  0  0  0  0  0  0  0  0
   38.4420   30.3490   41.8780 N   0  0  0  0  0  0  0  0  0  0  0  0
   39.7420   30.6370   42.2190 C   0  0  0  0  0  0  0  0  0  0  0  0
   40.2070   31.7050   41.5000 N   0  0  0  0  0  0  0  0  0  0  0  0
   39.2080   32.1070   40.6950 C   0  0  0  0  0  0  0  0  0  0  0  0
   39.1140   33.1220   39.7680 C   0  0  0  0  0  0  0  0  0  0  0  0
   37.9260   33.2190   39.1420 N   0  0  0  0  0  0  0  0  0  0  0  0
   36.8870   32.4180   39.3660 C   0  0  0  0  0  0  0  0  0  0  0  0
   36.9700   31.4090   40.2830 N   0  0  0  0  0  0  0  0  0  0  0  0
   38.1260   31.2770   40.9260 C   0  0  0  0  0  0  0  0  0  0  0  0
   40.1940   33.9960   39.4990 N   0  0  0  0  0  0  0  0  0  0  0  0
   35.7070   26.7920   42.9640 H   0  0  0  0  0  0  0  0  0  0  0  0
   37.1150   27.5810   45.1330 H   0  0  0  0  0  0  0  0  0  0  0  0
   40.4240   30.1710   42.9360 H   0  0  0  0  0  0  0  0  0  0  0  0
   35.9500   32.5400   38.8310 H   0  0  0  0  0  0  0  0  0  0  0  0
   39.9690   34.8860   39.9910 H   0  0  0  0  0  0  0  0  0  0  0  0
   40.9680   33.6290   38.9030 H   0  0  0  0  0  0  0  0  0  0  0  0
   34.8350   28.1860   36.7650 C   0  0  0  0  0  0  0  0  0  0  0  0
   33.7260   29.1680   36.6020 C   0  0  0  0  0  0  0  0  0  0  0  0
   32.7810   28.6670   36.9460 H   0  0  0  0  0  0  0  0  0  0  0  0
   33.5380   29.4210   35.5490 H   0  0  0  0  0  0  0  0  0  0  0  0
   33.8380   30.0340   37.2850 H   0  0  0  0  0  0  0  0  0  0  0  0
   34.2330   26.7980   36.5090 C   0  0  0  0  0  0  0  0  0  0  0  0
   34.9620   26.0280   36.8090 H   0  0  0  0  0  0  0  0  0  0  0  0
   33.2730   26.6690   37.0110 H   0  0  0  0  0  0  0  0  0  0  0  0
   34.0660   26.6880   35.4020 H   0  0  0  0  0  0  0  0  0  0  0  0
   35.9260   28.3440   35.7330 C   0  0  0  0  0  0  0  0  0  0  0  0
   35.9430   27.3510   35.1890 H   0  0  0  0  0  0  0  0  0  0  0  0
   36.9200   28.3920   36.2180 H   0  0  0  0  0  0  0  0  0  0  0  0
   35.7150   29.3380   34.7390 N   0  0  0  0  0  0  0  0  0  0  0  0
   36.6230   30.4470   35.1090 C   0  0  0  0  0  0  0  0  0  0  0  0
   36.3470   31.3660   33.9080 C   0  0  0  0  0  0  0  0  0  0  0  0
   36.5980   30.3470   32.7880 C   0  0  0  0  0  0  0  0  0  0  0  0
   36.2290   29.0050   33.4270 C   0  0  0  0  0  0  0  0  0  0  0  0
   37.1600   28.3900   33.5440 H   0  0  0  0  0  0  0  0  0  0  0  0
  1  2  1  0  0  0  0
  1  7  1  0  0  0  0
  2  9  1  0  0  0  0
  3  8  1  0  0  0  0
  3  2  2  0  0  0  0
  4  3  1  0  0  0  0
  5  4  2  0  0  0  0
  5  6  1  0  0  0  0
  6  1  2  0  0  0  0
  9 13  1  0  0  0  0
  9 10  1  0  0  0  0
 10 11  2  0  0  0  0
 11 25  1  0  0  0  0
 12 11  1  0  0  0  0
 13 12  2  0  0  0  0
 14 15  1  0  0  0  0
 14 13  1  0  0  0  0
 15 26  1  0  0  0  0
 16 15  2  0  0  0  0
 17 22  1  0  0  0  0
 17 16  1  0  0  0  0
 18 17  2  0  0  0  0
 19 20  2  0  0  0  0
 19 18  1  0  0  0  0
 20 21  1  0  0  0  0
 21 22  2  0  0  0  0
 22 14  1  0  0  0  0
 23 18  1  0  0  0  0
 23 28  1  0  0  0  0
 24 10  1  0  0  0  0
 27 20  1  0  0  0  0
 29 23  1  0  0  0  0
 30  5  1  0  0  0  0
 31 30  1  0  0  0  0
 31 32  1  0  0  0  0
 31 34  1  0  0  0  0
 33 31  1  0  0  0  0
 35 30  1  0  0  0  0
 35 36  1  0  0  0  0
 35 37  1  0  0  0  0
 38 35  1  0  0  0  0
 39 41  1  0  0  0  0
 39 30  1  0  0  0  0
 40 39  1  0  0  0  0
 42 43  1  0  0  0  0
 42 39  1  0  0  0  0
 44 43  1  0  0  0  0
 45 46  1  0  0  0  0
 45 44  1  0  0  0  0
 46 47  1  0  0  0  0
 46 42  1  0  0  0  0
M  END
>  <minimizedAffinity>
-6.1230793

>  <minimizedRMSD>
1.32497799

$$$$
