
 OpenBabel03242509243D

 45 49  0  0  0  0  0  0  0  0999 V2000
   36.0950   30.0540   41.0550 C   0  0  0  0  0  0  0  0  0  0  0  0
   35.4780   30.5520   41.8550 H   0  0  0  0  0  0  0  0  0  0  0  0
   36.6880   30.8860   40.6020 H   0  0  0  0  0  0  0  0  0  0  0  0
   38.5720   28.1650   42.6770 C   0  0  0  0  0  0  0  0  0  0  0  0
   37.4910   27.3200   42.7850 C   0  0  0  0  0  0  0  0  0  0  0  0
   36.4240   27.9740   42.1620 C   0  0  0  0  0  0  0  0  0  0  0  0
   36.9390   29.1370   41.7380 N   0  0  0  0  0  0  0  0  0  0  0  0
   38.1950   29.2890   42.0200 N   0  0  0  0  0  0  0  0  0  0  0  0
   37.4660   26.3320   43.2630 H   0  0  0  0  0  0  0  0  0  0  0  0
   35.4650   27.5160   42.1150 H   0  0  0  0  0  0  0  0  0  0  0  0
   41.5000   26.5410   44.3120 C   0  0  0  0  0  0  0  0  0  0  0  0
   40.1930   26.7180   43.8530 C   0  0  0  0  0  0  0  0  0  0  0  0
   39.9090   27.9270   43.1740 C   0  0  0  0  0  0  0  0  0  0  0  0
   40.8870   28.8540   42.9920 N   0  0  0  0  0  0  0  0  0  0  0  0
   42.1500   28.6020   43.4750 C   0  0  0  0  0  0  0  0  0  0  0  0
   42.4370   27.4740   44.1160 N   0  0  0  0  0  0  0  0  0  0  0  0
   41.6140   25.5970   44.8130 H   0  0  0  0  0  0  0  0  0  0  0  0
   39.3870   26.0310   43.9650 H   0  0  0  0  0  0  0  0  0  0  0  0
   43.1150   29.6220   43.2430 N   0  0  0  0  0  0  0  0  0  0  0  0
   43.7480   29.8950   41.9700 C   0  0  0  0  0  2  0  0  0  0  0  0
   44.5370   31.1580   42.2110 C   0  0  0  0  0  2  0  0  0  0  0  0
   44.7310   31.2850   43.6860 C   0  0  0  0  0  2  0  0  0  0  0  0
   43.5880   30.5310   44.2780 C   0  0  0  0  0  3  0  0  0  0  0  0
   42.8030   31.2620   44.5960 H   0  0  0  0  0  0  0  0  0  0  0  0
   35.2160   29.4740   39.9980 C   0  0  0  0  0  0  0  0  0  0  0  0
   34.4900   30.3470   39.8730 H   0  0  0  0  0  0  0  0  0  0  0  0
   34.7570   28.5630   40.3610 H   0  0  0  0  0  0  0  0  0  0  0  0
   35.8300   29.4000   38.6510 C   0  0  0  0  0  0  0  0  0  0  0  0
   37.1510   29.5300   38.3230 C   0  0  0  0  0  0  0  0  0  0  0  0
   37.6660   29.5210   37.0620 C   0  0  0  0  0  0  0  0  0  0  0  0
   36.8290   29.3700   35.9960 C   0  0  0  0  0  0  0  0  0  0  0  0
   35.4700   29.2300   36.2440 C   0  0  0  0  0  0  0  0  0  0  0  0
   34.6700   29.0910   35.1390 C   0  0  0  0  0  0  0  0  0  0  0  0
   33.3290   28.9520   35.2750 C   0  0  0  0  0  0  0  0  0  0  0  0
   32.7840   28.9500   36.5490 C   0  0  0  0  0  0  0  0  0  0  0  0
   33.6250   29.0910   37.6140 C   0  0  0  0  0  0  0  0  0  0  0  0
   34.9700   29.2400   37.5450 C   0  0  0  0  0  0  0  0  0  0  0  0
   37.8260   29.6520   39.1670 H   0  0  0  0  0  0  0  0  0  0  0  0
   38.7220   29.6310   36.9250 H   0  0  0  0  0  0  0  0  0  0  0  0
   37.2370   29.3630   34.9940 H   0  0  0  0  0  0  0  0  0  0  0  0
   35.0820   29.0880   34.1310 H   0  0  0  0  0  0  0  0  0  0  0  0
   32.7080   28.8460   34.3960 H   0  0  0  0  0  0  0  0  0  0  0  0
   31.7230   28.8370   36.6510 H   0  0  0  0  0  0  0  0  0  0  0  0
   33.0210   29.0620   38.8570 O   0  0  0  0  0  0  0  0  0  0  0  0
   32.4160   28.2670   39.0800 H   0  0  0  0  0  0  0  0  0  0  0  0
  1  7  1  0  0  0  0
  1  2  1  0  0  0  0
  3  1  1  0  0  0  0
  4  5  1  0  0  0  0
  4 13  1  0  0  0  0
  5  9  1  0  0  0  0
  6  5  2  0  0  0  0
  7  8  1  0  0  0  0
  7  6  1  0  0  0  0
  8  4  2  0  0  0  0
 10  6  1  0  0  0  0
 11 17  1  0  0  0  0
 12 18  1  0  0  0  0
 12 11  2  0  0  0  0
 13 12  1  0  0  0  0
 14 13  2  0  0  0  0
 14 15  1  0  0  0  0
 15 16  2  0  0  0  0
 16 11  1  0  0  0  0
 19 15  1  0  0  0  0
 19 23  1  0  0  0  0
 20 21  1  0  0  0  0
 20 19  1  0  0  0  0
 21 22  1  0  0  0  0
 22 23  1  0  0  0  0
 23 24  1  0  0  0  0
 25 27  1  0  0  0  0
 25  1  1  0  0  0  0
 26 25  1  0  0  0  0
 28 25  1  0  0  0  0
 29 28  1  0  0  0  0
 29 38  1  0  0  0  0
 30 29  2  0  0  0  0
 31 32  2  0  0  0  0
 31 30  1  0  0  0  0
 32 37  1  0  0  0  0
 33 34  2  0  0  0  0
 33 32  1  0  0  0  0
 34 35  1  0  0  0  0
 35 43  1  0  0  0  0
 35 36  2  0  0  0  0
 36 44  1  0  0  0  0
 37 36  1  0  0  0  0
 37 28  2  0  0  0  0
 39 30  1  0  0  0  0
 40 31  1  0  0  0  0
 41 33  1  0  0  0  0
 42 34  1  0  0  0  0
 44 45  1  0  0  0  0
M  END
>  <minimizedAffinity>
-6.17833805

>  <minimizedRMSD>
0.21426326

$$$$
