
 OpenBabel03242508023D

 27 29  0  0  0  0  0  0  0  0999 V2000
   37.9760   30.2260   40.7440 C   0  0  0  0  0  0  0  0  0  0  0  0
   38.5420   29.8110   41.9510 C   0  0  0  0  0  0  0  0  0  0  0  0
   39.5230   30.6470   42.5300 C   0  0  0  0  0  0  0  0  0  0  0  0
   39.8710   31.7950   41.9040 N   0  0  0  0  0  0  0  0  0  0  0  0
   39.2930   32.1610   40.7260 C   0  0  0  0  0  0  0  0  0  0  0  0
   38.3520   31.3790   40.1510 N   0  0  0  0  0  0  0  0  0  0  0  0
   39.9530   30.3150   43.4640 H   0  0  0  0  0  0  0  0  0  0  0  0
   39.6740   33.1060   40.3480 H   0  0  0  0  0  0  0  0  0  0  0  0
   36.9600   29.5950   39.9840 N   0  0  0  0  0  0  0  0  0  0  0  0
   36.1170   28.4150   40.0090 C   0  0  0  0  0  0  0  0  0  0  0  0
   34.9270   28.7640   39.1280 C   0  0  0  0  0  0  0  0  0  0  0  0
   35.5840   29.5800   38.0300 C   0  0  0  0  0  0  0  0  0  0  0  0
   36.6230   30.3490   38.7700 C   0  0  0  0  0  0  0  0  0  0  0  0
   36.1830   31.3170   39.1420 H   0  0  0  0  0  0  0  0  0  0  0  0
   38.1860   28.6360   42.6020 N   0  0  0  0  0  0  0  0  0  0  0  0
   38.5760   27.2760   42.2640 C   0  0  0  0  0  0  0  0  0  0  0  0
   37.4260   26.4240   42.7300 C   0  0  0  0  0  0  0  0  0  0  0  0
   36.4620   27.3640   43.4100 C   0  0  0  0  0  0  0  0  0  0  0  0
   37.3660   28.5040   43.7750 C   0  0  0  0  0  0  0  0  0  0  0  0
   38.6930   27.2360   41.1520 H   0  0  0  0  0  0  0  0  0  0  0  0
   39.5410   27.0170   42.6950 H   0  0  0  0  0  0  0  0  0  0  0  0
   36.9190   25.9020   41.8970 H   0  0  0  0  0  0  0  0  0  0  0  0
   37.7970   25.7170   43.5200 H   0  0  0  0  0  0  0  0  0  0  0  0
   35.6820   27.7240   42.7180 H   0  0  0  0  0  0  0  0  0  0  0  0
   36.0130   26.9320   44.3280 H   0  0  0  0  0  0  0  0  0  0  0  0
   38.0260   28.1180   44.6220 H   0  0  0  0  0  0  0  0  0  0  0  0
   36.8600   29.4240   44.0990 H   0  0  0  0  0  0  0  0  0  0  0  0
  1  2  1  0  0  0  0
  2  3  2  0  0  0  0
  2 15  1  0  0  0  0
  3  7  1  0  0  0  0
  4  3  1  0  0  0  0
  5  4  2  0  0  0  0
  6  5  1  0  0  0  0
  6  1  2  0  0  0  0
  8  5  1  0  0  0  0
  9 10  1  0  0  0  0
  9  1  1  0  0  0  0
 11 10  1  0  0  0  0
 12 13  1  0  0  0  0
 12 11  1  0  0  0  0
 13 14  1  0  0  0  0
 13  9  1  0  0  0  0
 15 19  1  0  0  0  0
 16 15  1  0  0  0  0
 16 21  1  0  0  0  0
 16 17  1  0  0  0  0
 17 18  1  0  0  0  0
 17 23  1  0  0  0  0
 18 19  1  0  0  0  0
 18 25  1  0  0  0  0
 19 27  1  0  0  0  0
 19 26  1  0  0  0  0
 20 16  1  0  0  0  0
 22 17  1  0  0  0  0
 24 18  1  0  0  0  0
M  END
>  <minimizedAffinity>
-4.63580084

>  <minimizedRMSD>
4.17943192

$$$$
