
 OpenBabel03242508383D

 28 30  0  0  1  0  0  0  0  0999 V2000
   38.4470   26.9180   43.0210 C   0  0  2  0  0  0  0  0  0  0  0  0
   39.7050   27.1950   43.7640 C   0  0  0  0  0  0  0  0  0  0  0  0
   40.3680   25.8260   43.8700 C   0  0  0  0  0  0  0  0  0  0  0  0
   39.5260   24.9100   43.0260 C   0  0  0  0  0  0  0  0  0  0  0  0
   38.9410   25.9200   41.9910 C   0  0  1  0  0  0  0  0  0  0  0  0
   37.7190   26.4110   43.6980 H   0  0  0  0  0  0  0  0  0  0  0  0
   39.5630   27.6560   44.7590 H   0  0  0  0  0  0  0  0  0  0  0  0
   40.3540   27.8060   43.1020 H   0  0  0  0  0  0  0  0  0  0  0  0
   40.4570   25.4950   44.9230 H   0  0  0  0  0  0  0  0  0  0  0  0
   41.3950   25.8220   43.4190 H   0  0  0  0  0  0  0  0  0  0  0  0
   40.0670   24.1030   42.5390 H   0  0  0  0  0  0  0  0  0  0  0  0
   38.7010   24.5670   43.7180 H   0  0  0  0  0  0  0  0  0  0  0  0
   39.7990   26.2940   41.4370 H   0  0  0  0  0  0  0  0  0  0  0  0
   38.4720   29.3230   42.1350 C   0  0  0  0  0  0  0  0  0  0  0  0
   37.8360   28.0910   42.3810 C   0  0  0  0  0  0  0  0  0  0  0  0
   36.5080   27.9670   41.9710 C   0  0  0  0  0  0  0  0  0  0  0  0
   35.8970   29.0070   41.3700 N   0  0  0  0  0  0  0  0  0  0  0  0
   36.5410   30.1920   41.1440 C   0  0  0  0  0  0  0  0  0  0  0  0
   37.8430   30.3320   41.5390 N   0  0  0  0  0  0  0  0  0  0  0  0
   39.4960   29.3750   42.4660 H   0  0  0  0  0  0  0  0  0  0  0  0
   35.7950   27.1770   42.0300 H   0  0  0  0  0  0  0  0  0  0  0  0
   36.0940   31.0530   40.6670 H   0  0  0  0  0  0  0  0  0  0  0  0
   37.9730   25.2950   41.1870 N   0  0  2  0  0  0  0  0  0  0  0  0
   37.0260   24.4240   41.8270 C   0  0  0  0  0  0  0  0  0  0  0  0
   36.4210   23.7490   40.5790 C   0  0  0  0  0  0  0  0  0  0  0  0
   37.7270   23.3160   39.8980 C   0  0  0  0  0  0  0  0  0  0  0  0
   38.5760   24.5750   40.1130 C   0  0  0  0  0  0  0  0  0  0  0  0
   38.5580   25.2110   39.2030 H   0  0  0  0  0  0  0  0  0  0  0  0
  1  6  1  1  0  0  0
  1  2  1  0  0  0  0
  2  3  1  0  0  0  0
  2  7  1  0  0  0  0
  3  9  1  0  0  0  0
  4 12  1  0  0  0  0
  4  3  1  0  0  0  0
  5 13  1  6  0  0  0
  5  1  1  0  0  0  0
  5  4  1  0  0  0  0
  8  2  1  0  0  0  0
 10  3  1  0  0  0  0
 11  4  1  0  0  0  0
 14 15  1  0  0  0  0
 14 20  1  0  0  0  0
 15  1  1  0  0  0  0
 16 21  1  0  0  0  0
 16 15  2  0  0  0  0
 17 16  1  0  0  0  0
 18 17  2  0  0  0  0
 18 19  1  0  0  0  0
 19 14  2  0  0  0  0
 22 18  1  0  0  0  0
 23 24  1  1  0  0  0
 23  5  1  0  0  0  0
 25 24  1  0  0  0  0
 26 27  1  0  0  0  0
 26 25  1  0  0  0  0
 27 23  1  0  0  0  0
 28 27  1  0  0  0  0
M  END
>  <minimizedAffinity>
-4.55741835

>  <minimizedRMSD>
0.945074379

$$$$
