
 OpenBabel03242509293D

 18 19  0  0  0  0  0  0  0  0999 V2000
   37.8320   28.7460   43.6190 C   0  0  0  0  0  0  0  0  0  0  0  0
   37.8850   27.3390   43.4930 C   0  0  0  0  0  0  0  0  0  0  0  0
   37.4450   26.7740   42.2800 C   0  0  0  0  0  0  0  0  0  0  0  0
   36.9950   27.6210   41.2990 N   0  0  0  0  0  0  0  0  0  0  0  0
   36.9680   28.9490   41.4750 C   0  0  0  0  0  0  0  0  0  0  0  0
   37.3770   29.5070   42.6100 N   0  0  0  0  0  0  0  0  0  0  0  0
   38.1770   29.1310   44.5590 H   0  0  0  0  0  0  0  0  0  0  0  0
   38.2430   26.7140   44.2830 H   0  0  0  0  0  0  0  0  0  0  0  0
   36.4900   29.7770   40.4190 N   0  0  0  0  0  0  0  0  0  0  0  0
   36.8560   31.1360   40.0720 C   0  0  0  0  0  2  0  0  0  0  0  0
   36.8690   31.1670   38.5420 C   0  0  0  0  0  2  0  0  0  0  0  0
   36.2840   29.8130   38.1500 C   0  0  0  0  0  2  0  0  0  0  0  0
   35.4990   29.4720   39.4030 C   0  0  0  0  0  3  0  0  0  0  0  0
   35.2180   28.4040   39.4600 H   0  0  0  0  0  0  0  0  0  0  0  0
   37.4850   25.2990   42.1110 C   0  0  0  0  0  0  0  0  0  0  0  0
   37.5570   25.0790   40.7600 F   0  0  0  0  0  0  0  0  0  0  0  0
   38.5950   24.7440   42.7050 F   0  0  0  0  0  0  0  0  0  0  0  0
   36.3510   24.6920   42.6220 F   0  0  0  0  0  0  0  0  0  0  0  0
  1  7  1  0  0  0  0
  2  1  1  0  0  0  0
  2  8  1  0  0  0  0
  3  2  2  0  0  0  0
  4  5  2  0  0  0  0
  4  3  1  0  0  0  0
  5  6  1  0  0  0  0
  6  1  2  0  0  0  0
  9  5  1  0  0  0  0
 10  9  1  0  0  0  0
 11 10  1  0  0  0  0
 12 11  1  0  0  0  0
 12 13  1  0  0  0  0
 13 14  1  0  0  0  0
 13  9  1  0  0  0  0
 15  3  1  0  0  0  0
 15 18  1  0  0  0  0
 15 17  1  0  0  0  0
 16 15  1  0  0  0  0
M  END
>  <minimizedAffinity>
-4.66790104

>  <minimizedRMSD>
0.546547353

$$$$
