
 OpenBabel03242509293D

 18 19  0  0  0  0  0  0  0  0999 V2000
   37.9890   28.6060   43.4870 C   0  0  0  0  0  0  0  0  0  0  0  0
   37.8450   27.2240   43.2240 C   0  0  0  0  0  0  0  0  0  0  0  0
   37.3230   26.8480   41.9710 C   0  0  0  0  0  0  0  0  0  0  0  0
   36.9870   27.8410   41.0870 N   0  0  0  0  0  0  0  0  0  0  0  0
   37.1460   29.1370   41.3910 C   0  0  0  0  0  0  0  0  0  0  0  0
   37.6370   29.5180   42.5670 N   0  0  0  0  0  0  0  0  0  0  0  0
   38.3910   28.8450   44.4530 H   0  0  0  0  0  0  0  0  0  0  0  0
   38.1190   26.4810   43.9420 H   0  0  0  0  0  0  0  0  0  0  0  0
   36.7800   30.1220   40.4310 N   0  0  0  0  0  0  0  0  0  0  0  0
   36.5750   31.5480   40.6020 C   0  0  0  0  0  2  0  0  0  0  0  0
   37.1500   32.1880   39.3360 C   0  0  0  0  0  2  0  0  0  0  0  0
   37.4570   30.9930   38.4370 C   0  0  0  0  0  2  0  0  0  0  0  0
   36.5120   29.9560   39.0140 C   0  0  0  0  0  3  0  0  0  0  0  0
   36.7610   28.9240   38.7030 H   0  0  0  0  0  0  0  0  0  0  0  0
   37.1570   25.4060   41.6590 C   0  0  0  0  0  0  0  0  0  0  0  0
   36.4870   25.3560   40.4640 F   0  0  0  0  0  0  0  0  0  0  0  0
   38.3680   24.7700   41.5100 F   0  0  0  0  0  0  0  0  0  0  0  0
   36.4220   24.7500   42.6320 F   0  0  0  0  0  0  0  0  0  0  0  0
  1  7  1  0  0  0  0
  2  1  1  0  0  0  0
  2  8  1  0  0  0  0
  3  2  2  0  0  0  0
  4  5  2  0  0  0  0
  4  3  1  0  0  0  0
  5  6  1  0  0  0  0
  6  1  2  0  0  0  0
  9 10  1  0  0  0  0
  9  5  1  0  0  0  0
 11 10  1  0  0  0  0
 12 13  1  0  0  0  0
 12 11  1  0  0  0  0
 13  9  1  0  0  0  0
 14 13  1  0  0  0  0
 15  3  1  0  0  0  0
 15 18  1  0  0  0  0
 16 15  1  0  0  0  0
 17 15  1  0  0  0  0
M  END
>  <minimizedAffinity>
-4.70930481

>  <minimizedRMSD>
0.975561976

$$$$
