
 OpenBabel03242508433D

 33 36  0  0  1  0  0  0  0  0999 V2000
   37.9200   27.3550   42.7160 C   0  0  2  0  0  0  0  0  0  0  0  0
   38.9960   27.6980   43.6620 C   0  0  0  0  0  0  0  0  0  0  0  0
   39.7510   26.4040   43.8790 C   0  0  0  0  0  0  0  0  0  0  0  0
   39.3280   25.4850   42.7780 C   0  0  0  0  0  0  0  0  0  0  0  0
   38.5650   26.3580   41.7740 C   0  0  1  0  0  0  0  0  0  0  0  0
   37.1270   26.7670   43.2490 H   0  0  0  0  0  0  0  0  0  0  0  0
   39.7550   28.4010   43.2450 H   0  0  0  0  0  0  0  0  0  0  0  0
   38.5670   28.0840   44.6000 H   0  0  0  0  0  0  0  0  0  0  0  0
   39.4080   26.0010   44.8660 H   0  0  0  0  0  0  0  0  0  0  0  0
   40.8410   26.5630   43.9240 H   0  0  0  0  0  0  0  0  0  0  0  0
   38.6810   24.6860   43.1940 H   0  0  0  0  0  0  0  0  0  0  0  0
   40.2000   25.0490   42.2810 H   0  0  0  0  0  0  0  0  0  0  0  0
   39.2240   26.8270   41.0480 H   0  0  0  0  0  0  0  0  0  0  0  0
   37.6040   25.3900   41.1750 C   0  0  0  0  0  0  0  0  0  0  0  0
   36.8330   24.5930   41.9480 N   0  0  0  0  0  0  0  0  0  0  0  0
   36.1100   23.8600   41.1000 O   0  0  0  0  0  0  0  0  0  0  0  0
   36.4380   24.2090   39.8590 C   0  0  0  0  0  0  0  0  0  0  0  0
   37.3690   25.1630   39.8610 N   0  0  0  0  0  0  0  0  0  0  0  0
   35.6410   23.4010   39.0080 N   0  0  0  0  0  0  0  0  0  0  0  0
   34.6920   23.9430   38.0240 C   0  0  0  0  0  0  0  0  0  0  0  0
   33.4310   23.2400   38.5070 C   0  0  0  0  0  0  0  0  0  0  0  0
   33.9310   21.9130   39.0920 C   0  0  0  0  0  0  0  0  0  0  0  0
   35.4240   21.9990   38.7500 C   0  0  0  0  0  0  0  0  0  0  0  0
   35.5410   21.8560   37.6390 H   0  0  0  0  0  0  0  0  0  0  0  0
   37.8950   29.7570   41.8760 C   0  0  0  0  0  0  0  0  0  0  0  0
   37.3230   28.4840   42.0240 C   0  0  0  0  0  0  0  0  0  0  0  0
   36.0660   28.2590   41.4480 C   0  0  0  0  0  0  0  0  0  0  0  0
   35.4610   29.2960   40.7690 N   0  0  0  0  0  0  0  0  0  0  0  0
   36.0600   30.5270   40.6510 C   0  0  0  0  0  0  0  0  0  0  0  0
   37.2930   30.7490   41.2150 N   0  0  0  0  0  0  0  0  0  0  0  0
   38.8490   29.9320   42.3060 H   0  0  0  0  0  0  0  0  0  0  0  0
   35.5080   27.3330   41.4810 H   0  0  0  0  0  0  0  0  0  0  0  0
   35.4320   31.2140   40.0860 H   0  0  0  0  0  0  0  0  0  0  0  0
  1  6  1  1  0  0  0
  1  2  1  0  0  0  0
  2  3  1  0  0  0  0
  2  8  1  0  0  0  0
  3 10  1  0  0  0  0
  3  9  1  0  0  0  0
  4 11  1  0  0  0  0
  4  3  1  0  0  0  0
  5 13  1  6  0  0  0
  5  1  1  0  0  0  0
  5  4  1  0  0  0  0
  7  2  1  0  0  0  0
 12  4  1  0  0  0  0
 14  5  1  0  0  0  0
 14 15  2  0  0  0  0
 16 15  1  0  0  0  0
 17 18  2  0  0  0  0
 17 16  1  0  0  0  0
 18 14  1  0  0  0  0
 19 17  1  0  0  0  0
 20 21  1  0  0  0  0
 20 19  1  0  0  0  0
 21 22  1  0  0  0  0
 23 19  1  0  0  0  0
 23 22  1  0  0  0  0
 24 23  1  0  0  0  0
 25 26  1  0  0  0  0
 25 31  1  0  0  0  0
 26  1  1  0  0  0  0
 27 32  1  0  0  0  0
 27 26  2  0  0  0  0
 28 27  1  0  0  0  0
 29 28  2  0  0  0  0
 29 30  1  0  0  0  0
 30 25  2  0  0  0  0
 33 29  1  0  0  0  0
M  END
>  <minimizedAffinity>
-5.31800032

>  <minimizedRMSD>
0.59276104

$$$$
