
 OpenBabel03242508513D

 29 32  0  0  1  0  0  0  0  0999 V2000
   39.4620   28.8960   40.2190 C   0  0  0  0  0  0  0  0  0  0  0  0
   40.3900   28.7110   39.2080 C   0  0  0  0  0  0  0  0  0  0  0  0
   40.1330   29.6010   38.2450 N   0  0  0  0  0  0  0  0  0  0  0  0
   39.0800   30.3650   38.5750 C   0  0  0  0  0  0  0  0  0  0  0  0
   38.4710   31.4020   37.8830 C   0  0  0  0  0  0  0  0  0  0  0  0
   37.3800   32.0250   38.4720 C   0  0  0  0  0  0  0  0  0  0  0  0
   36.9310   31.6140   39.7030 C   0  0  0  0  0  0  0  0  0  0  0  0
   37.5190   30.5880   40.4080 C   0  0  0  0  0  0  0  0  0  0  0  0
   38.6140   29.9470   39.8380 C   0  0  0  0  0  0  0  0  0  0  0  0
   41.1740   27.9650   39.2250 H   0  0  0  0  0  0  0  0  0  0  0  0
   38.7740   31.7610   36.9320 H   0  0  0  0  0  0  0  0  0  0  0  0
   36.8220   32.8490   38.0260 H   0  0  0  0  0  0  0  0  0  0  0  0
   36.0830   32.0580   40.2200 H   0  0  0  0  0  0  0  0  0  0  0  0
   37.2120   30.2310   41.3610 H   0  0  0  0  0  0  0  0  0  0  0  0
   38.0730   26.7810   42.8730 C   0  0  0  0  0  0  0  0  0  0  0  0
   39.1180   26.7610   43.8390 C   0  0  0  0  0  0  0  0  0  0  0  0
   40.2880   27.4870   43.5440 C   0  0  0  0  0  0  0  0  0  0  0  0
   40.3440   28.1530   42.3690 N   0  0  0  0  0  0  0  0  0  0  0  0
   39.3450   28.1550   41.4770 C   0  0  0  0  0  0  0  0  0  0  0  0
   38.2120   27.4710   41.7300 N   0  0  0  0  0  0  0  0  0  0  0  0
   37.1790   26.2270   43.0980 H   0  0  0  0  0  0  0  0  0  0  0  0
   38.9990   26.2000   44.7650 H   0  0  0  0  0  0  0  0  0  0  0  0
   41.0950   27.4880   44.2570 H   0  0  0  0  0  0  0  0  0  0  0  0
   42.0070   31.2700   37.9050 H   0  0  0  0  0  0  0  0  0  0  0  0
   41.7630   30.8800   36.9940 N   0  0  0  0  0  0  0  0  0  0  0  0
   42.8380   30.5860   36.0980 C   0  0  0  0  0  0  0  0  0  0  0  0
   42.9140   29.0800   35.9690 C   0  0  0  0  0  0  0  0  0  0  0  0
   41.7030   28.5170   36.6810 C   0  0  0  0  0  0  0  0  0  0  0  0
   40.8860   29.7320   37.0100 C   0  0  1  0  0  0  0  0  0  0  0  0
  1 19  1  0  0  0  0
  2 10  1  0  0  0  0
  2  1  2  0  0  0  0
  3  4  1  0  0  0  0
  3  2  1  0  0  0  0
  4  9  1  0  0  0  0
  5  6  1  0  0  0  0
  5  4  2  0  0  0  0
  6  7  2  0  0  0  0
  7 13  1  0  0  0  0
  7  8  1  0  0  0  0
  8 14  1  0  0  0  0
  9  1  1  0  0  0  0
  9  8  2  0  0  0  0
 11  5  1  0  0  0  0
 12  6  1  0  0  0  0
 15 21  1  0  0  0  0
 15 16  1  0  0  0  0
 16 22  1  0  0  0  0
 17 16  2  0  0  0  0
 17 23  1  0  0  0  0
 18 17  1  0  0  0  0
 19 20  1  0  0  0  0
 19 18  2  0  0  0  0
 20 15  2  0  0  0  0
 25 29  1  0  0  0  0
 25 24  1  0  0  0  0
 26 25  1  0  0  0  0
 27 26  1  0  0  0  0
 27 28  1  0  0  0  0
 29 28  1  1  0  0  0
 29  3  1  0  0  0  0
M  END
>  <minimizedAffinity>
-4.4161911

>  <minimizedRMSD>
5.44394016

$$$$
