
 OpenBabel03242509303D

 18 19  0  0  0  0  0  0  0  0999 V2000
   37.9050   28.6370   43.5060 C   0  0  0  0  0  0  0  0  0  0  0  0
   38.2090   27.2570   43.4680 C   0  0  0  0  0  0  0  0  0  0  0  0
   37.8200   26.5330   42.3230 C   0  0  0  0  0  0  0  0  0  0  0  0
   37.1730   27.2090   41.3210 N   0  0  0  0  0  0  0  0  0  0  0  0
   36.9110   28.5210   41.4120 C   0  0  0  0  0  0  0  0  0  0  0  0
   37.2670   29.2260   42.4810 N   0  0  0  0  0  0  0  0  0  0  0  0
   38.2200   29.1470   44.3960 H   0  0  0  0  0  0  0  0  0  0  0  0
   38.7160   26.7670   44.2720 H   0  0  0  0  0  0  0  0  0  0  0  0
   36.2360   29.1670   40.3380 N   0  0  0  0  0  0  0  0  0  0  0  0
   36.7810   29.8170   39.1610 C   0  0  0  0  0  2  0  0  0  0  0  0
   35.8190   29.4560   38.0260 C   0  0  0  0  0  2  0  0  0  0  0  0
   34.6580   28.7730   38.7420 C   0  0  0  0  0  2  0  0  0  0  0  0
   34.8100   29.3470   40.1380 C   0  0  0  0  0  3  0  0  0  0  0  0
   34.2480   28.7790   40.9030 H   0  0  0  0  0  0  0  0  0  0  0  0
   38.1220   25.0810   42.2470 C   0  0  0  0  0  0  0  0  0  0  0  0
   38.6080   24.8650   40.9840 F   0  0  0  0  0  0  0  0  0  0  0  0
   39.0840   24.7080   43.1570 F   0  0  0  0  0  0  0  0  0  0  0  0
   36.9910   24.3090   42.4480 F   0  0  0  0  0  0  0  0  0  0  0  0
  1  7  1  0  0  0  0
  2  1  1  0  0  0  0
  2  8  1  0  0  0  0
  3  2  2  0  0  0  0
  4  5  2  0  0  0  0
  4  3  1  0  0  0  0
  5  6  1  0  0  0  0
  6  1  2  0  0  0  0
  9  5  1  0  0  0  0
 10  9  1  0  0  0  0
 11 12  1  0  0  0  0
 11 10  1  0  0  0  0
 12 13  1  0  0  0  0
 13  9  1  0  0  0  0
 13 14  1  0  0  0  0
 15  3  1  0  0  0  0
 15 18  1  0  0  0  0
 15 17  1  0  0  0  0
 16 15  1  0  0  0  0
M  END
>  <minimizedAffinity>
-4.5270009

>  <minimizedRMSD>
0.659981132

$$$$
