
 OpenBabel03242509113D

 43 47  0  0  1  0  0  0  0  0999 V2000
   36.0750   30.5480   41.0200 C   0  0  0  0  0  0  0  0  0  0  0  0
   36.9140   29.5940   41.6270 C   0  0  0  0  0  0  0  0  0  0  0  0
   38.2760   29.8140   41.6490 C   0  0  0  0  0  0  0  0  0  0  0  0
   38.7040   30.9670   41.0720 N   0  0  0  0  0  0  0  0  0  0  0  0
   37.9000   31.8790   40.4940 C   0  0  0  0  0  0  0  0  0  0  0  0
   36.5760   31.6590   40.4730 N   0  0  0  0  0  0  0  0  0  0  0  0
   35.0090   30.4760   40.9460 H   0  0  0  0  0  0  0  0  0  0  0  0
   36.3160   28.7980   42.0280 H   0  0  0  0  0  0  0  0  0  0  0  0
   39.1340   28.8350   42.2490 C   0  0  0  0  0  0  0  0  0  0  0  0
   40.3630   29.0510   42.8650 C   0  0  0  0  0  0  0  0  0  0  0  0
   40.8430   27.8580   43.3080 N   0  0  0  0  0  0  0  0  0  0  0  0
   39.9770   26.8640   43.0080 C   0  0  0  0  0  0  0  0  0  0  0  0
   39.9830   25.5060   43.2270 C   0  0  0  0  0  0  0  0  0  0  0  0
   38.9180   24.6980   42.7900 C   0  0  0  0  0  0  0  0  0  0  0  0
   37.8770   25.3320   42.1360 C   0  0  0  0  0  0  0  0  0  0  0  0
   37.8940   26.6850   41.9300 C   0  0  0  0  0  0  0  0  0  0  0  0
   38.9270   27.4750   42.3550 C   0  0  0  0  0  0  0  0  0  0  0  0
   40.8290   30.0240   42.9570 H   0  0  0  0  0  0  0  0  0  0  0  0
   41.7520   27.7310   43.8100 H   0  0  0  0  0  0  0  0  0  0  0  0
   40.8540   25.1310   43.7490 H   0  0  0  0  0  0  0  0  0  0  0  0
   39.0280   23.6380   43.0170 H   0  0  0  0  0  0  0  0  0  0  0  0
   37.1130   24.6210   41.8420 H   0  0  0  0  0  0  0  0  0  0  0  0
   37.0150   26.9760   41.3900 H   0  0  0  0  0  0  0  0  0  0  0  0
   38.4800   33.1410   39.9150 C   0  0  1  0  0  0  0  0  0  0  0  0
   38.6550   34.3230   40.8900 C   0  0  0  0  0  0  0  0  0  0  0  0
   39.8210   33.5690   40.3750 C   0  0  2  0  0  0  0  0  0  0  0  0
   38.1340   33.4520   38.9250 H   0  0  0  0  0  0  0  0  0  0  0  0
   38.3030   34.1490   41.9390 H   0  0  0  0  0  0  0  0  0  0  0  0
   38.5020   35.3230   40.4820 H   0  0  0  0  0  0  0  0  0  0  0  0
   40.3480   32.8820   41.1050 H   0  0  0  0  0  0  0  0  0  0  0  0
   40.7850   34.1820   39.4390 C   0  0  0  0  0  0  0  0  0  0  0  0
   41.0280   35.4930   39.2670 N   0  0  0  0  0  0  0  0  0  0  0  0
   41.9450   35.6350   38.3410 O   0  0  0  0  0  0  0  0  0  0  0  0
   42.3180   34.4620   37.8900 C   0  0  0  0  0  0  0  0  0  0  0  0
   41.5890   33.5450   38.5820 N   0  0  0  0  0  0  0  0  0  0  0  0
   43.2840   34.1890   36.8890 N   0  0  0  0  0  0  0  0  0  0  0  0
   44.4160   33.4010   37.2370 C   0  0  0  0  0  0  0  0  0  0  0  0
   44.3030   32.5520   38.2100 N   0  0  0  0  0  0  0  0  0  0  0  0
   45.6360   33.5750   36.5050 N   0  0  0  0  0  0  0  0  0  0  0  0
   43.1520   34.5640   35.9290 H   0  0  0  0  0  0  0  0  0  0  0  0
   45.1530   31.9890   38.4410 H   0  0  0  0  0  0  0  0  0  0  0  0
   45.5100   33.6640   35.4540 H   0  0  0  0  0  0  0  0  0  0  0  0
   46.4910   33.5870   37.1280 H   0  0  0  0  0  0  0  0  0  0  0  0
  1  2  1  0  0  0  0
  2  3  2  0  0  0  0
  2  8  1  0  0  0  0
  3  9  1  0  0  0  0
  4  3  1  0  0  0  0
  5  4  2  0  0  0  0
  6  5  1  0  0  0  0
  6  1  2  0  0  0  0
  7  1  1  0  0  0  0
  9 17  1  0  0  0  0
  9 10  2  0  0  0  0
 10 18  1  0  0  0  0
 10 11  1  0  0  0  0
 11 19  1  0  0  0  0
 12 13  1  0  0  0  0
 12 11  1  0  0  0  0
 13 20  1  0  0  0  0
 14 21  1  0  0  0  0
 14 13  2  0  0  0  0
 15 14  1  0  0  0  0
 16 15  2  0  0  0  0
 16 17  1  0  0  0  0
 17 12  2  0  0  0  0
 22 15  1  0  0  0  0
 23 16  1  0  0  0  0
 24 27  1  6  0  0  0
 24 26  1  0  0  0  0
 24  5  1  0  0  0  0
 24 25  1  0  0  0  0
 25 28  1  0  0  0  0
 26 25  1  0  0  0  0
 26 30  1  1  0  0  0
 29 25  1  0  0  0  0
 31 26  1  0  0  0  0
 32 31  2  0  0  0  0
 33 32  1  0  0  0  0
 34 33  1  0  0  0  0
 34 35  2  0  0  0  0
 35 31  1  0  0  0  0
 36 37  1  0  0  0  0
 36 34  1  0  0  0  0
 37 38  2  0  0  0  0
 38 41  1  0  0  0  0
 39 43  1  0  0  0  0
 39 37  1  0  0  0  0
 40 36  1  0  0  0  0
 42 39  1  0  0  0  0
M  END
>  <minimizedAffinity>
-7.39827776

>  <minimizedRMSD>
0.71471715

$$$$
