
 OpenBabel03242509293D

 20 20  0  0  0  0  0  0  0  0999 V2000
   38.2670   28.5110   43.4930 C   0  0  0  0  0  0  0  0  0  0  0  0
   38.0350   27.1450   43.2020 C   0  0  0  0  0  0  0  0  0  0  0  0
   37.4340   26.8370   41.9800 C   0  0  0  0  0  0  0  0  0  0  0  0
   37.1020   27.8580   41.1330 N   0  0  0  0  0  0  0  0  0  0  0  0
   37.3400   29.1440   41.4490 C   0  0  0  0  0  0  0  0  0  0  0  0
   37.9180   29.4490   42.6240 N   0  0  0  0  0  0  0  0  0  0  0  0
   38.7380   28.7100   44.4570 H   0  0  0  0  0  0  0  0  0  0  0  0
   38.3160   26.3950   43.9010 H   0  0  0  0  0  0  0  0  0  0  0  0
   36.9800   30.2000   40.5380 N   0  0  0  0  0  0  0  0  0  0  0  0
   37.5150   31.5100   40.7270 C   0  0  0  0  0  0  0  0  0  0  0  0
   38.6590   31.6440   41.3100 N   0  0  0  0  0  0  0  0  0  0  0  0
   36.7570   32.6160   40.2610 N   0  0  0  0  0  0  0  0  0  0  0  0
   36.3280   29.9760   39.7530 H   0  0  0  0  0  0  0  0  0  0  0  0
   39.0170   32.6170   41.4300 H   0  0  0  0  0  0  0  0  0  0  0  0
   36.3860   32.9960   39.3610 H   0  0  0  0  0  0  0  0  0  0  0  0
   36.5390   33.1790   41.1360 H   0  0  0  0  0  0  0  0  0  0  0  0
   37.1780   25.4080   41.6460 C   0  0  0  0  0  0  0  0  0  0  0  0
   36.4750   25.4090   40.4700 F   0  0  0  0  0  0  0  0  0  0  0  0
   38.3300   24.7050   41.4470 F   0  0  0  0  0  0  0  0  0  0  0  0
   36.4060   24.7770   42.6190 F   0  0  0  0  0  0  0  0  0  0  0  0
  1  7  1  0  0  0  0
  2  1  1  0  0  0  0
  2  8  1  0  0  0  0
  3  2  2  0  0  0  0
  4  5  2  0  0  0  0
  4  3  1  0  0  0  0
  5  6  1  0  0  0  0
  6  1  2  0  0  0  0
  9 10  1  0  0  0  0
  9  5  1  0  0  0  0
 10 11  2  0  0  0  0
 11 14  1  0  0  0  0
 12 10  1  0  0  0  0
 12 16  1  0  0  0  0
 13  9  1  0  0  0  0
 15 12  1  0  0  0  0
 17  3  1  0  0  0  0
 17 20  1  0  0  0  0
 18 17  1  0  0  0  0
 19 17  1  0  0  0  0
M  END
>  <minimizedAffinity>
-4.62474537

>  <minimizedRMSD>
1.05033123

$$$$
