
 OpenBabel03242509303D

 20 20  0  0  0  0  0  0  0  0999 V2000
   37.9170   28.8270   43.4390 C   0  0  0  0  0  0  0  0  0  0  0  0
   38.0340   27.4170   43.3920 C   0  0  0  0  0  0  0  0  0  0  0  0
   37.4680   26.7580   42.3000 C   0  0  0  0  0  0  0  0  0  0  0  0
   36.8340   27.4960   41.3390 N   0  0  0  0  0  0  0  0  0  0  0  0
   36.7460   28.8360   41.4230 C   0  0  0  0  0  0  0  0  0  0  0  0
   37.2890   29.4790   42.4720 N   0  0  0  0  0  0  0  0  0  0  0  0
   38.3720   29.3060   44.3080 H   0  0  0  0  0  0  0  0  0  0  0  0
   38.5390   26.8970   44.1700 H   0  0  0  0  0  0  0  0  0  0  0  0
   36.0730   29.5900   40.3960 N   0  0  0  0  0  0  0  0  0  0  0  0
   36.0630   29.1050   39.0540 C   0  0  0  0  0  0  0  0  0  0  0  0
   36.1500   27.8340   38.8430 N   0  0  0  0  0  0  0  0  0  0  0  0
   35.9570   30.0520   38.0010 N   0  0  0  0  0  0  0  0  0  0  0  0
   35.6040   30.4840   40.6650 H   0  0  0  0  0  0  0  0  0  0  0  0
   36.1400   27.5190   37.8480 H   0  0  0  0  0  0  0  0  0  0  0  0
   35.2850   30.7700   37.6510 H   0  0  0  0  0  0  0  0  0  0  0  0
   36.8600   29.9420   37.4490 H   0  0  0  0  0  0  0  0  0  0  0  0
   37.5750   25.2730   42.2240 C   0  0  0  0  0  0  0  0  0  0  0  0
   37.7550   24.9690   40.9000 F   0  0  0  0  0  0  0  0  0  0  0  0
   38.6490   24.7920   42.9150 F   0  0  0  0  0  0  0  0  0  0  0  0
   36.4140   24.6440   42.6660 F   0  0  0  0  0  0  0  0  0  0  0  0
  1  7  1  0  0  0  0
  2  1  1  0  0  0  0
  2  8  1  0  0  0  0
  3  2  2  0  0  0  0
  4  5  2  0  0  0  0
  4  3  1  0  0  0  0
  5  6  1  0  0  0  0
  6  1  2  0  0  0  0
  9 13  1  0  0  0  0
  9  5  1  0  0  0  0
 10  9  1  0  0  0  0
 11 10  2  0  0  0  0
 12 10  1  0  0  0  0
 14 11  1  0  0  0  0
 15 12  1  0  0  0  0
 16 12  1  0  0  0  0
 17  3  1  0  0  0  0
 17 20  1  0  0  0  0
 17 19  1  0  0  0  0
 18 17  1  0  0  0  0
M  END
>  <minimizedAffinity>
-4.11687565

>  <minimizedRMSD>
0.191003829

$$$$
