
 OpenBabel03242504493D

 32 34  0  0  0  0  0  0  0  0999 V2000
   38.6370   30.5160   41.1830 C   0  0  0  0  0  0  0  0  0  0  0  0
   37.6080   29.6570   41.1600 N   0  0  0  0  0  0  0  0  0  0  0  0
   38.0290   28.4860   41.5600 O   0  0  0  0  0  0  0  0  0  0  0  0
   39.3020   28.5340   41.8490 C   0  0  0  0  0  0  0  0  0  0  0  0
   39.7050   29.8070   41.6170 N   0  0  0  0  0  0  0  0  0  0  0  0
   40.2450   27.5780   42.3170 N   0  0  0  0  0  0  0  0  0  0  0  0
   41.5270   27.8360   42.0370 C   0  0  0  0  0  0  0  0  0  0  0  0
   42.5210   26.9630   42.4520 C   0  0  0  0  0  0  0  0  0  0  0  0
   42.0690   25.8450   43.1560 C   0  0  0  0  0  0  0  0  0  0  0  0
   42.9340   25.0200   43.5550 O   0  0  0  0  0  0  0  0  0  0  0  0
   40.7690   25.6160   43.4200 N   0  0  0  0  0  0  0  0  0  0  0  0
   39.8510   26.4900   42.9960 C   0  0  0  0  0  0  0  0  0  0  0  0
   38.6300   26.2930   43.2330 O   0  0  0  0  0  0  0  0  0  0  0  0
   41.9030   28.6930   41.4950 H   0  0  0  0  0  0  0  0  0  0  0  0
   43.5690   27.1380   42.2460 H   0  0  0  0  0  0  0  0  0  0  0  0
   40.5380   24.7490   43.9520 H   0  0  0  0  0  0  0  0  0  0  0  0
   39.7940   32.7860   41.0270 C   0  0  0  0  0  0  0  0  0  0  0  0
   38.7040   31.9370   40.8340 C   0  0  0  0  0  0  0  0  0  0  0  0
   37.5260   32.4500   40.2480 C   0  0  0  0  0  0  0  0  0  0  0  0
   37.5470   33.7910   39.9010 N   0  0  0  0  0  0  0  0  0  0  0  0
   38.6270   34.5640   40.1100 C   0  0  0  0  0  0  0  0  0  0  0  0
   39.7430   34.0720   40.6670 N   0  0  0  0  0  0  0  0  0  0  0  0
   40.6610   32.3050   41.4870 H   0  0  0  0  0  0  0  0  0  0  0  0
   36.6430   31.8510   40.0670 H   0  0  0  0  0  0  0  0  0  0  0  0
   38.5800   35.9360   39.7300 N   0  0  0  0  0  0  0  0  0  0  0  0
   39.7010   36.7890   39.9340 C   0  0  0  0  0  0  0  0  0  0  0  0
   40.8860   36.2730   39.8920 N   0  0  0  0  0  0  0  0  0  0  0  0
   39.4850   38.1930   40.1790 N   0  0  0  0  0  0  0  0  0  0  0  0
   37.7180   36.3380   39.2940 H   0  0  0  0  0  0  0  0  0  0  0  0
   41.6900   36.9190   40.0450 H   0  0  0  0  0  0  0  0  0  0  0  0
   39.6640   38.4020   41.2020 H   0  0  0  0  0  0  0  0  0  0  0  0
   39.2190   39.0990   39.7450 H   0  0  0  0  0  0  0  0  0  0  0  0
  1  5  1  0  0  0  0
  2  1  2  0  0  0  0
  2  3  1  0  0  0  0
  3  4  1  0  0  0  0
  4  6  1  0  0  0  0
  5  4  2  0  0  0  0
  6 12  1  0  0  0  0
  7  6  1  0  0  0  0
  7  8  2  0  0  0  0
  8  9  1  0  0  0  0
  9 11  1  0  0  0  0
  9 10  2  0  0  0  0
 11 16  1  0  0  0  0
 12 13  2  0  0  0  0
 12 11  1  0  0  0  0
 14  7  1  0  0  0  0
 15  8  1  0  0  0  0
 17 23  1  0  0  0  0
 18 17  1  0  0  0  0
 18  1  1  0  0  0  0
 19 18  2  0  0  0  0
 20 21  2  0  0  0  0
 20 19  1  0  0  0  0
 21 22  1  0  0  0  0
 22 17  2  0  0  0  0
 24 19  1  0  0  0  0
 25 26  1  0  0  0  0
 25 21  1  0  0  0  0
 26 28  1  0  0  0  0
 27 26  2  0  0  0  0
 27 30  1  0  0  0  0
 28 31  1  0  0  0  0
 29 25  1  0  0  0  0
 32 28  1  0  0  0  0
M  END
>  <minimizedAffinity>
-5.9720726

>  <minimizedRMSD>
1.46450603

$$$$
