
 OpenBabel03242509303D

 20 20  0  0  0  0  0  0  0  0999 V2000
   37.9170   28.9990   43.4120 C   0  0  0  0  0  0  0  0  0  0  0  0
   37.8180   27.5870   43.3920 C   0  0  0  0  0  0  0  0  0  0  0  0
   37.8480   26.9540   42.1480 C   0  0  0  0  0  0  0  0  0  0  0  0
   37.9690   27.7200   41.0210 N   0  0  0  0  0  0  0  0  0  0  0  0
   38.0600   29.0600   41.0850 C   0  0  0  0  0  0  0  0  0  0  0  0
   38.0320   29.6770   42.2800 N   0  0  0  0  0  0  0  0  0  0  0  0
   37.8900   29.4560   44.4030 H   0  0  0  0  0  0  0  0  0  0  0  0
   37.7260   27.0450   44.3020 H   0  0  0  0  0  0  0  0  0  0  0  0
   38.1870   29.8430   39.8830 N   0  0  0  0  0  0  0  0  0  0  0  0
   38.2170   29.1910   38.6140 C   0  0  0  0  0  0  0  0  0  0  0  0
   37.6200   28.0540   38.4760 N   0  0  0  0  0  0  0  0  0  0  0  0
   38.9080   29.8280   37.5490 N   0  0  0  0  0  0  0  0  0  0  0  0
   38.2550   30.8810   39.9730 H   0  0  0  0  0  0  0  0  0  0  0  0
   37.6640   27.6080   37.5350 H   0  0  0  0  0  0  0  0  0  0  0  0
   38.8600   30.7100   36.9940 H   0  0  0  0  0  0  0  0  0  0  0  0
   39.6900   29.1520   37.2960 H   0  0  0  0  0  0  0  0  0  0  0  0
   37.7460   25.4680   42.0960 C   0  0  0  0  0  0  0  0  0  0  0  0
   37.8520   25.1230   40.7740 F   0  0  0  0  0  0  0  0  0  0  0  0
   38.7570   24.8520   42.7740 F   0  0  0  0  0  0  0  0  0  0  0  0
   36.5180   25.0140   42.5720 F   0  0  0  0  0  0  0  0  0  0  0  0
  1  7  1  0  0  0  0
  2  1  1  0  0  0  0
  2  8  1  0  0  0  0
  3  2  2  0  0  0  0
  4  5  2  0  0  0  0
  4  3  1  0  0  0  0
  5  6  1  0  0  0  0
  6  1  2  0  0  0  0
  9 13  1  0  0  0  0
  9  5  1  0  0  0  0
 10  9  1  0  0  0  0
 11 10  2  0  0  0  0
 12 10  1  0  0  0  0
 14 11  1  0  0  0  0
 15 12  1  0  0  0  0
 16 12  1  0  0  0  0
 17  3  1  0  0  0  0
 17 20  1  0  0  0  0
 17 19  1  0  0  0  0
 18 17  1  0  0  0  0
M  END
>  <minimizedAffinity>
-3.83686924

>  <minimizedRMSD>
1.78116906

$$$$
