
 OpenBabel03242509293D

 20 20  0  0  0  0  0  0  0  0999 V2000
   37.6070   28.7170   43.5450 C   0  0  0  0  0  0  0  0  0  0  0  0
   37.6320   27.3110   43.3840 C   0  0  0  0  0  0  0  0  0  0  0  0
   37.3500   26.8010   42.1150 C   0  0  0  0  0  0  0  0  0  0  0  0
   37.0670   27.6740   41.1010 N   0  0  0  0  0  0  0  0  0  0  0  0
   37.0550   29.0050   41.2980 C   0  0  0  0  0  0  0  0  0  0  0  0
   37.3240   29.5040   42.5170 N   0  0  0  0  0  0  0  0  0  0  0  0
   37.8310   29.0760   44.5510 H   0  0  0  0  0  0  0  0  0  0  0  0
   37.8580   26.6820   44.2100 H   0  0  0  0  0  0  0  0  0  0  0  0
   36.7540   29.9030   40.2120 N   0  0  0  0  0  0  0  0  0  0  0  0
   36.1600   29.3940   39.0180 C   0  0  0  0  0  0  0  0  0  0  0  0
   35.4270   28.3340   39.0820 N   0  0  0  0  0  0  0  0  0  0  0  0
   36.4060   30.0850   37.8020 N   0  0  0  0  0  0  0  0  0  0  0  0
   36.9810   30.9150   40.3290 H   0  0  0  0  0  0  0  0  0  0  0  0
   35.0110   27.9930   38.1880 H   0  0  0  0  0  0  0  0  0  0  0  0
   36.2350   31.0240   37.3800 H   0  0  0  0  0  0  0  0  0  0  0  0
   36.9160   29.3790   37.1910 H   0  0  0  0  0  0  0  0  0  0  0  0
   37.3690   25.3250   41.9140 C   0  0  0  0  0  0  0  0  0  0  0  0
   37.1160   25.1150   40.5840 F   0  0  0  0  0  0  0  0  0  0  0  0
   38.5840   24.7750   42.2030 F   0  0  0  0  0  0  0  0  0  0  0  0
   36.3780   24.6860   42.6560 F   0  0  0  0  0  0  0  0  0  0  0  0
  1  7  1  0  0  0  0
  2  1  1  0  0  0  0
  2  8  1  0  0  0  0
  3  2  2  0  0  0  0
  4  5  2  0  0  0  0
  4  3  1  0  0  0  0
  5  6  1  0  0  0  0
  6  1  2  0  0  0  0
  9 13  1  0  0  0  0
  9  5  1  0  0  0  0
 10 11  2  0  0  0  0
 10  9  1  0  0  0  0
 12 10  1  0  0  0  0
 14 11  1  0  0  0  0
 15 12  1  0  0  0  0
 16 12  1  0  0  0  0
 17  3  1  0  0  0  0
 17 19  1  0  0  0  0
 17 20  1  0  0  0  0
 18 17  1  0  0  0  0
M  END
>  <minimizedAffinity>
-4.09654284

>  <minimizedRMSD>
0.832354605

$$$$
