
 OpenBabel03242509073D

 38 41  0  0  1  0  0  0  0  0999 V2000
   36.2020   30.7780   41.1200 C   0  0  0  0  0  0  0  0  0  0  0  0
   36.6980   29.6110   41.7280 C   0  0  0  0  0  0  0  0  0  0  0  0
   38.0730   29.3150   41.6060 C   0  0  0  0  0  0  0  0  0  0  0  0
   38.8190   30.1980   40.8990 N   0  0  0  0  0  0  0  0  0  0  0  0
   38.3230   31.3080   40.3260 C   0  0  0  0  0  0  0  0  0  0  0  0
   37.0070   31.6090   40.4310 N   0  0  0  0  0  0  0  0  0  0  0  0
   35.1400   30.9980   41.2190 H   0  0  0  0  0  0  0  0  0  0  0  0
   36.0560   28.9590   42.2710 H   0  0  0  0  0  0  0  0  0  0  0  0
   38.5770   28.1160   42.2200 C   0  0  0  0  0  0  0  0  0  0  0  0
   39.5630   28.0080   43.1720 C   0  0  0  0  0  0  0  0  0  0  0  0
   39.7490   26.7070   43.4890 N   0  0  0  0  0  0  0  0  0  0  0  0
   38.9070   25.9450   42.7670 C   0  0  0  0  0  0  0  0  0  0  0  0
   38.6600   24.5760   42.6770 C   0  0  0  0  0  0  0  0  0  0  0  0
   37.6990   24.0600   41.8180 C   0  0  0  0  0  0  0  0  0  0  0  0
   36.9910   24.9550   41.0460 C   0  0  0  0  0  0  0  0  0  0  0  0
   37.2220   26.3050   41.1220 C   0  0  0  0  0  0  0  0  0  0  0  0
   38.1750   26.8170   41.9770 C   0  0  0  0  0  0  0  0  0  0  0  0
   40.1520   28.7720   43.6530 H   0  0  0  0  0  0  0  0  0  0  0  0
   40.4180   26.2670   44.1730 H   0  0  0  0  0  0  0  0  0  0  0  0
   39.2320   23.8810   43.2970 H   0  0  0  0  0  0  0  0  0  0  0  0
   37.5090   23.0080   41.7490 H   0  0  0  0  0  0  0  0  0  0  0  0
   36.2450   24.5400   40.3800 H   0  0  0  0  0  0  0  0  0  0  0  0
   36.6160   26.9430   40.4780 H   0  0  0  0  0  0  0  0  0  0  0  0
   39.2360   32.2230   39.5730 C   0  0  1  0  0  0  0  0  0  0  0  0
   39.2050   33.7060   39.9140 C   0  0  0  0  0  0  0  0  0  0  0  0
   40.3680   32.8720   40.2780 C   0  0  1  0  0  0  0  0  0  0  0  0
   39.2530   31.9800   38.4800 H   0  0  0  0  0  0  0  0  0  0  0  0
   39.3050   34.3740   39.0280 H   0  0  0  0  0  0  0  0  0  0  0  0
   38.3610   33.9700   40.5300 H   0  0  0  0  0  0  0  0  0  0  0  0
   41.2690   33.0090   39.6020 H   0  0  0  0  0  0  0  0  0  0  0  0
   40.7070   32.5260   41.5900 N   0  0  0  0  0  0  0  0  0  0  0  0
   41.9570   32.0980   42.0660 C   0  0  0  0  0  0  0  0  0  0  0  0
   42.9850   32.1260   41.3310 N   0  0  0  0  0  0  0  0  0  0  0  0
   42.2030   31.5900   43.3690 N   0  0  0  0  0  0  0  0  0  0  0  0
   39.9820   32.5720   42.3680 H   0  0  0  0  0  0  0  0  0  0  0  0
   43.9470   31.8500   41.5370 H   0  0  0  0  0  0  0  0  0  0  0  0
   42.8200   30.7370   43.5200 H   0  0  0  0  0  0  0  0  0  0  0  0
   42.0460   31.6640   44.3850 H   0  0  0  0  0  0  0  0  0  0  0  0
  1  7  1  0  0  0  0
  1  2  1  0  0  0  0
  2  8  1  0  0  0  0
  3  2  2  0  0  0  0
  3  9  1  0  0  0  0
  4  3  1  0  0  0  0
  5  6  1  0  0  0  0
  5  4  2  0  0  0  0
  6  1  2  0  0  0  0
  9 10  2  0  0  0  0
 10 11  1  0  0  0  0
 10 18  1  0  0  0  0
 11 19  1  0  0  0  0
 12 11  1  0  0  0  0
 13 12  1  0  0  0  0
 13 20  1  0  0  0  0
 14 13  2  0  0  0  0
 15 16  2  0  0  0  0
 15 14  1  0  0  0  0
 16 17  1  0  0  0  0
 17  9  1  0  0  0  0
 17 12  2  0  0  0  0
 21 14  1  0  0  0  0
 22 15  1  0  0  0  0
 23 16  1  0  0  0  0
 24 27  1  6  0  0  0
 24 25  1  0  0  0  0
 24 26  1  0  0  0  0
 24  5  1  0  0  0  0
 25 26  1  0  0  0  0
 25 29  1  0  0  0  0
 26 30  1  6  0  0  0
 26 31  1  0  0  0  0
 28 25  1  0  0  0  0
 31 32  1  0  0  0  0
 31 35  1  0  0  0  0
 32 34  1  0  0  0  0
 33 36  1  0  0  0  0
 33 32  2  0  0  0  0
 34 37  1  0  0  0  0
 34 38  1  0  0  0  0
M  END
>  <minimizedAffinity>
-5.79155827

>  <minimizedRMSD>
0.48940897

$$$$
