
 OpenBabel03242509293D

 20 20  0  0  0  0  0  0  0  0999 V2000
   37.4660   28.7090   43.2290 C   0  0  0  0  0  0  0  0  0  0  0  0
   37.2230   27.3230   43.0720 C   0  0  0  0  0  0  0  0  0  0  0  0
   37.3660   26.7830   41.7930 C   0  0  0  0  0  0  0  0  0  0  0  0
   37.7290   27.6090   40.7640 N   0  0  0  0  0  0  0  0  0  0  0  0
   37.9500   28.9210   40.9580 C   0  0  0  0  0  0  0  0  0  0  0  0
   37.8140   29.4500   42.1870 N   0  0  0  0  0  0  0  0  0  0  0  0
   37.3430   29.0930   44.2430 H   0  0  0  0  0  0  0  0  0  0  0  0
   36.9430   26.7310   43.9100 H   0  0  0  0  0  0  0  0  0  0  0  0
   38.3310   29.7700   39.8570 N   0  0  0  0  0  0  0  0  0  0  0  0
   37.8850   29.4590   38.5380 C   0  0  0  0  0  0  0  0  0  0  0  0
   36.7770   28.8130   38.3840 N   0  0  0  0  0  0  0  0  0  0  0  0
   38.6850   29.8810   37.4440 N   0  0  0  0  0  0  0  0  0  0  0  0
   38.9330   30.5990   40.0570 H   0  0  0  0  0  0  0  0  0  0  0  0
   36.4840   28.6050   37.4050 H   0  0  0  0  0  0  0  0  0  0  0  0
   39.0370   30.7660   37.0190 H   0  0  0  0  0  0  0  0  0  0  0  0
   38.9770   28.9780   36.9620 H   0  0  0  0  0  0  0  0  0  0  0  0
   37.1170   25.3270   41.5960 C   0  0  0  0  0  0  0  0  0  0  0  0
   38.3500   24.7340   41.5180 F   0  0  0  0  0  0  0  0  0  0  0  0
   36.4470   24.7670   42.6450 F   0  0  0  0  0  0  0  0  0  0  0  0
   36.4310   25.0720   40.4110 F   0  0  0  0  0  0  0  0  0  0  0  0
  1  7  1  0  0  0  0
  2  1  1  0  0  0  0
  2  8  1  0  0  0  0
  3  2  2  0  0  0  0
  4  5  2  0  0  0  0
  4  3  1  0  0  0  0
  5  6  1  0  0  0  0
  6  1  2  0  0  0  0
  9 13  1  0  0  0  0
  9  5  1  0  0  0  0
 10  9  1  0  0  0  0
 11 10  2  0  0  0  0
 12 10  1  0  0  0  0
 14 11  1  0  0  0  0
 15 12  1  0  0  0  0
 16 12  1  0  0  0  0
 17  3  1  0  0  0  0
 17 19  1  0  0  0  0
 18 17  1  0  0  0  0
 20 17  1  0  0  0  0
M  END
>  <minimizedAffinity>
-3.92980576

>  <minimizedRMSD>
2.16156673

$$$$
