
 OpenBabel03242509253D

 47 50  0  0  0  0  0  0  0  0999 V2000
   35.9780   30.0340   40.9390 C   0  0  0  0  0  0  0  0  0  0  0  0
   35.3630   30.5500   41.7040 H   0  0  0  0  0  0  0  0  0  0  0  0
   36.5630   30.8470   40.4510 H   0  0  0  0  0  0  0  0  0  0  0  0
   38.5090   28.2440   42.5920 C   0  0  0  0  0  0  0  0  0  0  0  0
   37.4640   27.3640   42.6920 C   0  0  0  0  0  0  0  0  0  0  0  0
   36.3740   27.9660   42.0600 C   0  0  0  0  0  0  0  0  0  0  0  0
   36.8490   29.1490   41.6350 N   0  0  0  0  0  0  0  0  0  0  0  0
   38.0970   29.3520   41.9260 N   0  0  0  0  0  0  0  0  0  0  0  0
   37.5060   26.3930   43.1760 H   0  0  0  0  0  0  0  0  0  0  0  0
   35.4210   27.4930   41.9930 H   0  0  0  0  0  0  0  0  0  0  0  0
   41.4790   26.7560   44.2860 C   0  0  0  0  0  0  0  0  0  0  0  0
   40.1690   26.8890   43.8110 C   0  0  0  0  0  0  0  0  0  0  0  0
   39.8510   28.0560   43.1040 C   0  0  0  0  0  0  0  0  0  0  0  0
   40.7970   28.9900   42.9100 N   0  0  0  0  0  0  0  0  0  0  0  0
   42.0640   28.8130   43.3950 C   0  0  0  0  0  0  0  0  0  0  0  0
   42.3910   27.7090   44.0720 N   0  0  0  0  0  0  0  0  0  0  0  0
   41.6610   25.8310   44.8240 H   0  0  0  0  0  0  0  0  0  0  0  0
   39.4200   26.1060   43.9860 H   0  0  0  0  0  0  0  0  0  0  0  0
   43.0270   29.8320   43.1610 N   0  0  0  0  0  0  0  0  0  0  0  0
   42.6680   31.1940   43.3630 C   0  0  0  0  0  0  0  0  0  0  0  0
   41.4110   31.5190   43.2130 N   0  0  0  0  0  0  0  0  0  0  0  0
   43.6740   32.1400   43.7160 N   0  0  0  0  0  0  0  0  0  0  0  0
   43.9910   29.5980   42.8430 H   0  0  0  0  0  0  0  0  0  0  0  0
   41.1830   32.5250   43.3690 H   0  0  0  0  0  0  0  0  0  0  0  0
   43.9660   32.1440   44.7310 H   0  0  0  0  0  0  0  0  0  0  0  0
   44.3170   32.9020   43.4180 H   0  0  0  0  0  0  0  0  0  0  0  0
   35.1420   29.4040   39.8680 C   0  0  0  0  0  0  0  0  0  0  0  0
   34.3770   30.2380   39.7290 H   0  0  0  0  0  0  0  0  0  0  0  0
   34.7310   28.4720   40.2260 H   0  0  0  0  0  0  0  0  0  0  0  0
   35.7820   29.3510   38.5240 C   0  0  0  0  0  0  0  0  0  0  0  0
   37.1090   29.4850   38.2310 C   0  0  0  0  0  0  0  0  0  0  0  0
   37.6490   29.5190   36.9820 C   0  0  0  0  0  0  0  0  0  0  0  0
   36.8230   29.4150   35.8900 C   0  0  0  0  0  0  0  0  0  0  0  0
   35.4700   29.2750   36.1160 C   0  0  0  0  0  0  0  0  0  0  0  0
   34.6860   29.1830   34.9880 C   0  0  0  0  0  0  0  0  0  0  0  0
   33.3360   29.0450   35.1070 C   0  0  0  0  0  0  0  0  0  0  0  0
   32.7670   28.9950   36.3650 C   0  0  0  0  0  0  0  0  0  0  0  0
   33.5970   29.0910   37.4540 C   0  0  0  0  0  0  0  0  0  0  0  0
   34.9420   29.2380   37.4040 C   0  0  0  0  0  0  0  0  0  0  0  0
   37.7600   29.5680   39.1050 H   0  0  0  0  0  0  0  0  0  0  0  0
   38.7220   29.6290   36.9070 H   0  0  0  0  0  0  0  0  0  0  0  0
   37.2520   29.4440   34.8980 H   0  0  0  0  0  0  0  0  0  0  0  0
   35.1050   29.2160   33.9870 H   0  0  0  0  0  0  0  0  0  0  0  0
   32.7250   28.9750   34.2100 H   0  0  0  0  0  0  0  0  0  0  0  0
   31.6950   28.8820   36.4600 H   0  0  0  0  0  0  0  0  0  0  0  0
   32.9730   29.0130   38.6860 O   0  0  0  0  0  0  0  0  0  0  0  0
   32.5110   28.1380   38.9630 H   0  0  0  0  0  0  0  0  0  0  0  0
  1  7  1  0  0  0  0
  1  2  1  0  0  0  0
  3  1  1  0  0  0  0
  4  5  1  0  0  0  0
  4 13  1  0  0  0  0
  5  9  1  0  0  0  0
  6  5  2  0  0  0  0
  7  8  1  0  0  0  0
  7  6  1  0  0  0  0
  8  4  2  0  0  0  0
 10  6  1  0  0  0  0
 11 17  1  0  0  0  0
 12 18  1  0  0  0  0
 12 11  2  0  0  0  0
 13 12  1  0  0  0  0
 14 13  2  0  0  0  0
 14 15  1  0  0  0  0
 15 16  2  0  0  0  0
 16 11  1  0  0  0  0
 19 20  1  0  0  0  0
 19 15  1  0  0  0  0
 20 22  1  0  0  0  0
 21 20  2  0  0  0  0
 21 24  1  0  0  0  0
 22 25  1  0  0  0  0
 23 19  1  0  0  0  0
 26 22  1  0  0  0  0
 27 29  1  0  0  0  0
 27  1  1  0  0  0  0
 28 27  1  0  0  0  0
 30 27  1  0  0  0  0
 31 30  1  0  0  0  0
 31 40  1  0  0  0  0
 32 31  2  0  0  0  0
 33 34  2  0  0  0  0
 33 32  1  0  0  0  0
 34 39  1  0  0  0  0
 35 36  2  0  0  0  0
 35 34  1  0  0  0  0
 36 37  1  0  0  0  0
 37 45  1  0  0  0  0
 37 38  2  0  0  0  0
 38 46  1  0  0  0  0
 39 38  1  0  0  0  0
 39 30  2  0  0  0  0
 41 32  1  0  0  0  0
 42 33  1  0  0  0  0
 43 35  1  0  0  0  0
 44 36  1  0  0  0  0
 46 47  1  0  0  0  0
M  END
>  <minimizedAffinity>
-6.71953297

>  <minimizedRMSD>
0.321968645

$$$$
