
 OpenBabel03242509203D

 30 31  0  0  0  0  0  0  0  0999 V2000
   38.5810   28.4560   42.5150 C   0  0  0  0  0  0  0  0  0  0  0  0
   37.4320   27.7470   42.4610 C   0  0  0  0  0  0  0  0  0  0  0  0
   36.4660   28.5190   41.8750 C   0  0  0  0  0  0  0  0  0  0  0  0
   37.1150   29.7060   41.5950 N   0  0  0  0  0  0  0  0  0  0  0  0
   38.3450   29.6510   41.9750 N   0  0  0  0  0  0  0  0  0  0  0  0
   37.3000   26.7300   42.8240 H   0  0  0  0  0  0  0  0  0  0  0  0
   35.4650   28.1970   41.7110 H   0  0  0  0  0  0  0  0  0  0  0  0
   41.1690   26.3940   44.2690 C   0  0  0  0  0  0  0  0  0  0  0  0
   39.9240   26.7850   43.7620 C   0  0  0  0  0  0  0  0  0  0  0  0
   39.8250   27.9810   43.0670 C   0  0  0  0  0  0  0  0  0  0  0  0
   40.9550   28.7390   42.9030 N   0  0  0  0  0  0  0  0  0  0  0  0
   42.1440   28.3180   43.4140 C   0  0  0  0  0  0  0  0  0  0  0  0
   42.2440   27.1600   44.0880 N   0  0  0  0  0  0  0  0  0  0  0  0
   41.2350   25.4630   44.8070 H   0  0  0  0  0  0  0  0  0  0  0  0
   39.0080   26.1910   43.8840 H   0  0  0  0  0  0  0  0  0  0  0  0
   42.9820   28.9800   43.2360 H   0  0  0  0  0  0  0  0  0  0  0  0
   36.4060   30.8180   40.9500 C   0  0  0  0  0  0  0  0  0  0  0  0
   37.0540   31.7000   41.1280 H   0  0  0  0  0  0  0  0  0  0  0  0
   35.4370   30.9090   41.4780 H   0  0  0  0  0  0  0  0  0  0  0  0
   36.2280   30.5800   39.4820 C   0  0  0  0  0  0  0  0  0  0  0  0
   36.7290   29.6210   39.2140 H   0  0  0  0  0  0  0  0  0  0  0  0
   35.1790   30.5540   39.1760 H   0  0  0  0  0  0  0  0  0  0  0  0
   36.9780   31.6050   38.7760 N   0  0  0  0  0  0  0  0  0  0  0  0
   37.9820   31.2350   37.8520 C   0  0  0  0  0  0  0  0  0  0  0  0
   38.6260   30.1280   38.0010 N   0  0  0  0  0  0  0  0  0  0  0  0
   38.2840   32.0840   36.7510 N   0  0  0  0  0  0  0  0  0  0  0  0
   36.8110   32.6350   38.9190 H   0  0  0  0  0  0  0  0  0  0  0  0
   39.3700   29.8250   37.3400 H   0  0  0  0  0  0  0  0  0  0  0  0
   38.4750   32.6450   35.9000 H   0  0  0  0  0  0  0  0  0  0  0  0
   37.9950   31.5840   35.8770 H   0  0  0  0  0  0  0  0  0  0  0  0
  1 10  1  0  0  0  0
  2  1  1  0  0  0  0
  2  6  1  0  0  0  0
  3  2  2  0  0  0  0
  4  3  1  0  0  0  0
  4  5  1  0  0  0  0
  5  1  2  0  0  0  0
  7  3  1  0  0  0  0
  8 14  1  0  0  0  0
  9 15  1  0  0  0  0
  9  8  2  0  0  0  0
 10  9  1  0  0  0  0
 11 10  2  0  0  0  0
 11 12  1  0  0  0  0
 12 13  2  0  0  0  0
 13  8  1  0  0  0  0
 16 12  1  0  0  0  0
 17 18  1  0  0  0  0
 17 19  1  0  0  0  0
 17  4  1  0  0  0  0
 20 17  1  0  0  0  0
 21 20  1  0  0  0  0
 22 20  1  0  0  0  0
 23 27  1  0  0  0  0
 23 20  1  0  0  0  0
 24 25  2  0  0  0  0
 24 23  1  0  0  0  0
 26 24  1  0  0  0  0
 28 25  1  0  0  0  0
 29 26  1  0  0  0  0
 30 26  1  0  0  0  0
M  END
>  <minimizedAffinity>
-4.30634117

>  <minimizedRMSD>
1.80566192

$$$$
