
 OpenBabel03242509303D

 20 20  0  0  0  0  0  0  0  0999 V2000
   38.9980   26.2040   42.6130 C   0  0  0  0  0  0  0  0  0  0  0  0
   38.4340   25.0050   42.1130 C   0  0  0  0  0  0  0  0  0  0  0  0
   37.4370   25.1160   41.1430 C   0  0  0  0  0  0  0  0  0  0  0  0
   37.0570   26.3620   40.7260 N   0  0  0  0  0  0  0  0  0  0  0  0
   37.6200   27.4760   41.2280 C   0  0  0  0  0  0  0  0  0  0  0  0
   38.5810   27.3780   42.1630 N   0  0  0  0  0  0  0  0  0  0  0  0
   39.7730   26.0750   43.3710 H   0  0  0  0  0  0  0  0  0  0  0  0
   38.7690   24.0640   42.4760 H   0  0  0  0  0  0  0  0  0  0  0  0
   37.2030   28.7770   40.7710 N   0  0  0  0  0  0  0  0  0  0  0  0
   36.6570   29.7110   41.7010 C   0  0  0  0  0  0  0  0  0  0  0  0
   37.0120   29.6450   42.9410 N   0  0  0  0  0  0  0  0  0  0  0  0
   35.7410   30.6820   41.2160 N   0  0  0  0  0  0  0  0  0  0  0  0
   37.3110   29.0040   39.7570 H   0  0  0  0  0  0  0  0  0  0  0  0
   36.5920   30.3450   43.5910 H   0  0  0  0  0  0  0  0  0  0  0  0
   35.7180   31.4780   40.5430 H   0  0  0  0  0  0  0  0  0  0  0  0
   34.8350   30.4780   41.7360 H   0  0  0  0  0  0  0  0  0  0  0  0
   36.8240   23.8720   40.5970 C   0  0  0  0  0  0  0  0  0  0  0  0
   35.5710   23.7890   41.1460 F   0  0  0  0  0  0  0  0  0  0  0  0
   36.6870   23.9100   39.2400 F   0  0  0  0  0  0  0  0  0  0  0  0
   37.5410   22.7350   40.9640 F   0  0  0  0  0  0  0  0  0  0  0  0
  1  7  1  0  0  0  0
  2  8  1  0  0  0  0
  2  1  2  0  0  0  0
  3  2  1  0  0  0  0
  4  3  2  0  0  0  0
  4  5  1  0  0  0  0
  5  6  2  0  0  0  0
  6  1  1  0  0  0  0
  9  5  1  0  0  0  0
  9 10  1  0  0  0  0
 10 11  2  0  0  0  0
 11 14  1  0  0  0  0
 12 10  1  0  0  0  0
 12 16  1  0  0  0  0
 13  9  1  0  0  0  0
 15 12  1  0  0  0  0
 17 20  1  0  0  0  0
 17  3  1  0  0  0  0
 17 18  1  0  0  0  0
 19 17  1  0  0  0  0
M  END
>  <minimizedAffinity>
-4.54196262

>  <minimizedRMSD>
2.51228046

$$$$
