
 OpenBabel03242509013D

 37 39  0  0  1  0  0  0  0  0999 V2000
   38.4200   30.6740   39.5620 N   0  0  1  0  0  0  0  0  0  0  0  0
   38.7550   29.9740   38.2960 C   0  0  0  0  0  0  0  0  0  0  0  0
   40.1750   29.4990   38.2840 C   0  0  0  0  0  0  0  0  0  0  0  0
   41.0370   30.4590   38.7930 O   0  0  0  0  0  0  0  0  0  0  0  0
   40.4390   31.6980   38.6440 C   0  0  0  0  0  0  0  0  0  0  0  0
   39.2230   31.8460   39.5840 C   0  0  1  0  0  0  0  0  0  0  0  0
   38.4890   30.6000   37.4260 H   0  0  0  0  0  0  0  0  0  0  0  0
   38.1130   29.0540   38.2440 H   0  0  0  0  0  0  0  0  0  0  0  0
   40.2870   28.5140   38.7890 H   0  0  0  0  0  0  0  0  0  0  0  0
   40.4720   29.3400   37.2220 H   0  0  0  0  0  0  0  0  0  0  0  0
   40.1010   31.8500   37.5850 H   0  0  0  0  0  0  0  0  0  0  0  0
   41.2010   32.4590   38.9090 H   0  0  0  0  0  0  0  0  0  0  0  0
   39.6530   31.9600   40.6010 H   0  0  0  0  0  0  0  0  0  0  0  0
   38.5180   33.0510   39.2050 N   0  0  0  0  0  0  0  0  0  0  0  0
   38.6300   34.1570   40.1280 C   0  0  0  0  0  0  0  0  0  0  0  0
   38.8330   34.0160   41.4130 N   0  0  0  0  0  0  0  0  0  0  0  0
   38.5260   35.5350   39.7120 N   0  0  0  0  0  0  0  0  0  0  0  0
   37.9140   33.3600   38.4000 H   0  0  0  0  0  0  0  0  0  0  0  0
   38.9340   33.1210   41.9010 H   0  0  0  0  0  0  0  0  0  0  0  0
   39.1280   36.2670   40.1490 H   0  0  0  0  0  0  0  0  0  0  0  0
   37.8460   35.8500   38.9610 H   0  0  0  0  0  0  0  0  0  0  0  0
   36.1750   29.8640   40.5570 C   0  0  1  0  0  0  0  0  0  0  0  0
   36.2960   31.3060   40.8630 C   0  0  0  0  0  0  0  0  0  0  0  0
   37.0320   30.8160   39.6940 C   0  0  1  0  0  0  0  0  0  0  0  0
   35.3270   29.3880   40.0620 H   0  0  0  0  0  0  0  0  0  0  0  0
   35.3440   31.9020   40.7420 H   0  0  0  0  0  0  0  0  0  0  0  0
   36.7600   31.5680   41.8370 H   0  0  0  0  0  0  0  0  0  0  0  0
   36.4940   31.0570   38.7260 H   0  0  0  0  0  0  0  0  0  0  0  0
   38.0180   28.5800   43.4700 C   0  0  0  0  0  0  0  0  0  0  0  0
   38.2070   27.2130   43.1460 C   0  0  0  0  0  0  0  0  0  0  0  0
   37.6910   26.7640   41.8960 C   0  0  0  0  0  0  0  0  0  0  0  0
   37.0400   27.6690   41.0690 N   0  0  0  0  0  0  0  0  0  0  0  0
   36.9070   28.9390   41.4550 C   0  0  0  0  0  0  0  0  0  0  0  0
   37.3800   29.4100   42.6300 N   0  0  0  0  0  0  0  0  0  0  0  0
   38.4100   28.9190   44.4180 H   0  0  0  0  0  0  0  0  0  0  0  0
   38.7080   26.5050   43.7750 H   0  0  0  0  0  0  0  0  0  0  0  0
   37.7900   25.7370   41.5680 H   0  0  0  0  0  0  0  0  0  0  0  0
  1  2  1  6  0  0  0
  1  6  1  0  0  0  0
  1 24  1  0  0  0  0
  3  2  1  0  0  0  0
  3  9  1  0  0  0  0
  3  4  1  0  0  0  0
  5  4  1  0  0  0  0
  5 12  1  0  0  0  0
  5  6  1  0  0  0  0
  6 13  1  1  0  0  0
  7  2  1  0  0  0  0
  8  2  1  0  0  0  0
 10  3  1  0  0  0  0
 11  5  1  0  0  0  0
 14  6  1  0  0  0  0
 14 15  1  0  0  0  0
 15 16  2  0  0  0  0
 16 19  1  0  0  0  0
 17 15  1  0  0  0  0
 17 20  1  0  0  0  0
 18 14  1  0  0  0  0
 21 17  1  0  0  0  0
 22 25  1  6  0  0  0
 22 23  1  0  0  0  0
 22 33  1  0  0  0  0
 23 27  1  0  0  0  0
 24 28  1  6  0  0  0
 24 22  1  0  0  0  0
 24 23  1  0  0  0  0
 26 23  1  0  0  0  0
 29 35  1  0  0  0  0
 30 29  1  0  0  0  0
 30 36  1  0  0  0  0
 31 30  2  0  0  0  0
 32 33  2  0  0  0  0
 32 31  1  0  0  0  0
 33 34  1  0  0  0  0
 34 29  2  0  0  0  0
 37 31  1  0  0  0  0
M  END
>  <minimizedAffinity>
-5.40763903

>  <minimizedRMSD>
1.9572866

$$$$
