
 OpenBabel03242508533D

 37 39  0  0  0  0  0  0  0  0999 V2000
   37.6500   28.2120   41.5480 C   0  0  0  0  0  0  0  0  0  0  0  0
   36.3660   27.9820   41.0920 C   0  0  0  0  0  0  0  0  0  0  0  0
   35.9000   29.1450   40.5970 N   0  0  0  0  0  0  0  0  0  0  0  0
   36.8190   30.1260   40.7080 C   0  0  0  0  0  0  0  0  0  0  0  0
   36.7290   31.4350   40.3270 C   0  0  0  0  0  0  0  0  0  0  0  0
   37.8320   32.2460   40.5590 C   0  0  0  0  0  0  0  0  0  0  0  0
   38.9760   31.7190   41.1590 C   0  0  0  0  0  0  0  0  0  0  0  0
   39.0550   30.3970   41.5390 C   0  0  0  0  0  0  0  0  0  0  0  0
   37.9450   29.5750   41.3060 C   0  0  0  0  0  0  0  0  0  0  0  0
   35.8960   27.0100   41.1570 H   0  0  0  0  0  0  0  0  0  0  0  0
   35.8540   31.8730   39.8600 H   0  0  0  0  0  0  0  0  0  0  0  0
   37.8620   33.2910   40.2930 H   0  0  0  0  0  0  0  0  0  0  0  0
   39.8770   32.2910   41.3700 H   0  0  0  0  0  0  0  0  0  0  0  0
   39.8810   29.9100   42.0040 H   0  0  0  0  0  0  0  0  0  0  0  0
   39.7310   26.5870   44.0810 C   0  0  0  0  0  0  0  0  0  0  0  0
   40.2730   25.4760   43.3690 C   0  0  0  0  0  0  0  0  0  0  0  0
   39.9100   25.3140   42.0270 C   0  0  0  0  0  0  0  0  0  0  0  0
   39.0670   26.2160   41.4810 N   0  0  0  0  0  0  0  0  0  0  0  0
   38.5640   27.2580   42.1670 C   0  0  0  0  0  0  0  0  0  0  0  0
   38.8980   27.4390   43.4640 N   0  0  0  0  0  0  0  0  0  0  0  0
   40.0290   26.6880   45.1170 H   0  0  0  0  0  0  0  0  0  0  0  0
   40.9380   24.7520   43.7840 H   0  0  0  0  0  0  0  0  0  0  0  0
   40.2560   24.5210   41.3960 H   0  0  0  0  0  0  0  0  0  0  0  0
   34.5780   29.2190   40.0410 C   0  0  0  0  0  0  0  0  0  0  0  0
   33.8440   28.5760   40.5820 H   0  0  0  0  0  0  0  0  0  0  0  0
   34.1800   30.2630   40.1310 H   0  0  0  0  0  0  0  0  0  0  0  0
   34.5290   28.8380   38.5790 C   0  0  0  0  0  0  0  0  0  0  0  0
   34.9960   27.8430   38.4540 H   0  0  0  0  0  0  0  0  0  0  0  0
   35.1450   29.5700   38.0260 H   0  0  0  0  0  0  0  0  0  0  0  0
   33.1760   28.8180   38.0660 N   0  0  0  0  0  0  0  0  0  0  0  0
   33.0590   28.1900   36.7760 C   0  0  0  0  0  0  0  0  0  0  0  0
   34.0550   28.0770   35.9910 N   0  0  0  0  0  0  0  0  0  0  0  0
   31.8030   27.6620   36.3320 N   0  0  0  0  0  0  0  0  0  0  0  0
   32.3210   29.1970   38.5280 H   0  0  0  0  0  0  0  0  0  0  0  0
   33.9760   27.6310   35.0690 H   0  0  0  0  0  0  0  0  0  0  0  0
   30.8920   27.2400   36.5390 H   0  0  0  0  0  0  0  0  0  0  0  0
   31.5730   27.6340   35.3090 H   0  0  0  0  0  0  0  0  0  0  0  0
  1 19  1  0  0  0  0
  2 10  1  0  0  0  0
  2  1  2  0  0  0  0
  3  4  1  0  0  0  0
  3  2  1  0  0  0  0
  4  9  1  0  0  0  0
  5  6  1  0  0  0  0
  5  4  2  0  0  0  0
  6  7  2  0  0  0  0
  7 13  1  0  0  0  0
  7  8  1  0  0  0  0
  8 14  1  0  0  0  0
  9  8  2  0  0  0  0
  9  1  1  0  0  0  0
 11  5  1  0  0  0  0
 12  6  1  0  0  0  0
 15 21  1  0  0  0  0
 16 22  1  0  0  0  0
 16 15  2  0  0  0  0
 17 16  1  0  0  0  0
 18 17  2  0  0  0  0
 18 19  1  0  0  0  0
 19 20  2  0  0  0  0
 20 15  1  0  0  0  0
 23 17  1  0  0  0  0
 24 26  1  0  0  0  0
 24 25  1  0  0  0  0
 24  3  1  0  0  0  0
 27 24  1  0  0  0  0
 28 27  1  0  0  0  0
 29 27  1  0  0  0  0
 30 34  1  0  0  0  0
 30 27  1  0  0  0  0
 31 30  1  0  0  0  0
 32 31  2  0  0  0  0
 33 36  1  0  0  0  0
 33 31  1  0  0  0  0
 35 32  1  0  0  0  0
 37 33  1  0  0  0  0
M  END
>  <minimizedAffinity>
-4.85064697

>  <minimizedRMSD>
0.440173149

$$$$
