
 OpenBabel03242509153D

 34 36  0  0  1  0  0  0  0  0999 V2000
   37.6700   28.1040   41.7710 C   0  0  0  0  0  0  0  0  0  0  0  0
   38.1900   27.1590   42.6490 C   0  0  0  0  0  0  0  0  0  0  0  0
   37.9680   25.8290   42.4970 C   0  0  0  0  0  0  0  0  0  0  0  0
   37.2010   25.4160   41.4320 C   0  0  0  0  0  0  0  0  0  0  0  0
   36.6770   26.3430   40.5450 C   0  0  0  0  0  0  0  0  0  0  0  0
   36.9250   27.6990   40.7290 C   0  0  0  0  0  0  0  0  0  0  0  0
   38.7820   27.5470   43.4620 H   0  0  0  0  0  0  0  0  0  0  0  0
   38.4180   25.1760   43.2390 H   0  0  0  0  0  0  0  0  0  0  0  0
   37.0880   24.3240   41.4110 H   0  0  0  0  0  0  0  0  0  0  0  0
   36.1230   25.7940   39.7970 H   0  0  0  0  0  0  0  0  0  0  0  0
   36.4000   28.3430   39.6140 N   0  0  0  0  0  0  0  0  0  0  0  0
   35.1660   28.9190   39.2500 C   0  0  0  0  0  0  0  0  0  0  0  0
   34.5870   29.3660   40.3320 N   0  0  0  0  0  0  0  0  0  0  0  0
   34.7310   28.9500   37.8720 N   0  0  0  0  0  0  0  0  0  0  0  0
   37.1490   28.2700   38.9220 H   0  0  0  0  0  0  0  0  0  0  0  0
   33.6630   29.8110   40.1570 H   0  0  0  0  0  0  0  0  0  0  0  0
   34.7750   28.0500   37.3460 H   0  0  0  0  0  0  0  0  0  0  0  0
   34.3900   29.7960   37.4000 H   0  0  0  0  0  0  0  0  0  0  0  0
   38.9480   30.2730   41.2910 C   0  0  1  0  0  0  0  0  0  0  0  0
   38.9920   30.0350   42.7490 C   0  0  0  0  0  0  0  0  0  0  0  0
   37.7840   29.5540   42.0930 C   0  0  2  0  0  0  0  0  0  0  0  0
   39.6390   29.6760   40.7260 H   0  0  0  0  0  0  0  0  0  0  0  0
   39.7260   29.3400   43.1660 H   0  0  0  0  0  0  0  0  0  0  0  0
   38.8760   30.9680   43.3740 H   0  0  0  0  0  0  0  0  0  0  0  0
   36.8590   30.1020   41.8360 H   0  0  0  0  0  0  0  0  0  0  0  0
   38.5580   31.6340   40.7830 C   0  0  0  0  0  0  0  0  0  0  0  0
   37.5380   31.7110   39.7900 C   0  0  0  0  0  0  0  0  0  0  0  0
   37.1820   32.9510   39.3120 C   0  0  0  0  0  0  0  0  0  0  0  0
   37.8280   34.0620   39.8200 N   0  0  0  0  0  0  0  0  0  0  0  0
   38.7960   33.9410   40.7700 C   0  0  0  0  0  0  0  0  0  0  0  0
   39.1540   32.7020   41.2480 N   0  0  0  0  0  0  0  0  0  0  0  0
   36.9110   31.0110   39.2970 H   0  0  0  0  0  0  0  0  0  0  0  0
   36.4610   33.2260   38.5840 H   0  0  0  0  0  0  0  0  0  0  0  0
   39.2750   34.8500   41.1390 H   0  0  0  0  0  0  0  0  0  0  0  0
  1 21  1  0  0  0  0
  1  2  1  0  0  0  0
  2  7  1  0  0  0  0
  3  2  2  0  0  0  0
  3  8  1  0  0  0  0
  4  3  1  0  0  0  0
  5  6  1  0  0  0  0
  5  4  2  0  0  0  0
  6  1  2  0  0  0  0
  9  4  1  0  0  0  0
 10  5  1  0  0  0  0
 11  6  1  0  0  0  0
 12 11  1  0  0  0  0
 12 13  2  0  0  0  0
 14 12  1  0  0  0  0
 15 11  1  0  0  0  0
 16 13  1  0  0  0  0
 17 14  1  0  0  0  0
 18 14  1  0  0  0  0
 19 22  1  6  0  0  0
 19 21  1  0  0  0  0
 19 20  1  0  0  0  0
 20 23  1  0  0  0  0
 20 24  1  0  0  0  0
 21 25  1  1  0  0  0
 21 20  1  0  0  0  0
 26 31  1  0  0  0  0
 26 19  1  0  0  0  0
 27 26  2  0  0  0  0
 28 27  1  0  0  0  0
 28 29  2  0  0  0  0
 29 30  1  0  0  0  0
 30 34  1  0  0  0  0
 30 31  2  0  0  0  0
 32 27  1  0  0  0  0
 33 28  1  0  0  0  0
M  END
>  <minimizedAffinity>
-5.22086811

>  <minimizedRMSD>
0.648000836

$$$$
