
 OpenBabel03242509293D

 20 20  0  0  0  0  0  0  0  0999 V2000
   37.8870   28.7920   43.5430 C   0  0  0  0  0  0  0  0  0  0  0  0
   37.9380   27.3810   43.4370 C   0  0  0  0  0  0  0  0  0  0  0  0
   37.4470   26.8030   42.2650 C   0  0  0  0  0  0  0  0  0  0  0  0
   36.9450   27.6180   41.2870 N   0  0  0  0  0  0  0  0  0  0  0  0
   36.9150   28.9550   41.4300 C   0  0  0  0  0  0  0  0  0  0  0  0
   37.3860   29.5200   42.5560 N   0  0  0  0  0  0  0  0  0  0  0  0
   38.2790   29.2050   44.4740 H   0  0  0  0  0  0  0  0  0  0  0  0
   38.3400   26.8000   44.2310 H   0  0  0  0  0  0  0  0  0  0  0  0
   36.3810   29.7900   40.3840 N   0  0  0  0  0  0  0  0  0  0  0  0
   37.2460   30.2790   39.3600 C   0  0  0  0  0  0  0  0  0  0  0  0
   38.2980   29.6010   39.0460 N   0  0  0  0  0  0  0  0  0  0  0  0
   36.9060   31.5050   38.7260 N   0  0  0  0  0  0  0  0  0  0  0  0
   35.3630   30.0180   40.4040 H   0  0  0  0  0  0  0  0  0  0  0  0
   38.9050   29.9920   38.2930 H   0  0  0  0  0  0  0  0  0  0  0  0
   36.1370   31.9050   38.1440 H   0  0  0  0  0  0  0  0  0  0  0  0
   37.7140   32.1580   38.9540 H   0  0  0  0  0  0  0  0  0  0  0  0
   37.4890   25.3200   42.1240 C   0  0  0  0  0  0  0  0  0  0  0  0
   37.5560   25.0640   40.7800 F   0  0  0  0  0  0  0  0  0  0  0  0
   38.5910   24.7720   42.7120 F   0  0  0  0  0  0  0  0  0  0  0  0
   36.3390   24.7180   42.6300 F   0  0  0  0  0  0  0  0  0  0  0  0
  1  7  1  0  0  0  0
  2  1  1  0  0  0  0
  2  8  1  0  0  0  0
  3  2  2  0  0  0  0
  4  5  2  0  0  0  0
  4  3  1  0  0  0  0
  5  6  1  0  0  0  0
  6  1  2  0  0  0  0
  9 13  1  0  0  0  0
  9  5  1  0  0  0  0
 10  9  1  0  0  0  0
 11 10  2  0  0  0  0
 12 16  1  0  0  0  0
 12 10  1  0  0  0  0
 14 11  1  0  0  0  0
 15 12  1  0  0  0  0
 17  3  1  0  0  0  0
 17 20  1  0  0  0  0
 17 19  1  0  0  0  0
 18 17  1  0  0  0  0
M  END
>  <minimizedAffinity>
-4.17747116

>  <minimizedRMSD>
0.408454925

$$$$
