
 OpenBabel03242509203D

 24 25  0  0  0  0  0  0  0  0999 V2000
   39.3890   26.3260   42.8470 C   0  0  0  0  0  0  0  0  0  0  0  0
   38.6010   25.3020   42.4450 C   0  0  0  0  0  0  0  0  0  0  0  0
   37.3760   25.8150   42.0530 C   0  0  0  0  0  0  0  0  0  0  0  0
   37.5000   27.1610   42.2460 N   0  0  0  0  0  0  0  0  0  0  0  0
   38.6790   27.4560   42.7100 N   0  0  0  0  0  0  0  0  0  0  0  0
   38.9100   24.2500   42.4430 H   0  0  0  0  0  0  0  0  0  0  0  0
   36.5650   25.2180   41.6910 H   0  0  0  0  0  0  0  0  0  0  0  0
   42.9480   25.2820   43.2480 C   0  0  0  0  0  0  0  0  0  0  0  0
   41.6500   25.3370   42.7350 C   0  0  0  0  0  0  0  0  0  0  0  0
   40.7450   26.2250   43.3330 C   0  0  0  0  0  0  0  0  0  0  0  0
   41.1490   26.9910   44.3700 N   0  0  0  0  0  0  0  0  0  0  0  0
   42.4310   26.9000   44.8360 C   0  0  0  0  0  0  0  0  0  0  0  0
   43.3160   26.0510   44.2730 N   0  0  0  0  0  0  0  0  0  0  0  0
   43.6960   24.6050   42.8180 H   0  0  0  0  0  0  0  0  0  0  0  0
   41.3620   24.7080   41.9030 H   0  0  0  0  0  0  0  0  0  0  0  0
   42.6210   27.5580   45.6580 H   0  0  0  0  0  0  0  0  0  0  0  0
   36.3820   28.0330   41.9320 C   0  0  0  0  0  0  0  0  0  0  0  0
   36.4450   29.0280   42.4040 H   0  0  0  0  0  0  0  0  0  0  0  0
   35.4930   27.5470   42.4190 H   0  0  0  0  0  0  0  0  0  0  0  0
   36.1340   28.1370   40.4550 C   0  0  0  0  0  0  0  0  0  0  0  0
   36.3690   27.1540   39.9990 H   0  0  0  0  0  0  0  0  0  0  0  0
   35.1200   28.4440   40.1980 H   0  0  0  0  0  0  0  0  0  0  0  0
   37.3190   29.3340   39.7880 S   0  0  0  0  0  0  0  0  0  0  0  0
   38.6220   29.0280   40.2360 H   0  0  0  0  0  0  0  0  0  0  0  0
  1 10  1  0  0  0  0
  2  1  1  0  0  0  0
  3  4  1  0  0  0  0
  3  2  2  0  0  0  0
  4  5  1  0  0  0  0
  5  1  2  0  0  0  0
  6  2  1  0  0  0  0
  7  3  1  0  0  0  0
  8 13  1  0  0  0  0
  9  8  2  0  0  0  0
  9 10  1  0  0  0  0
 10 11  2  0  0  0  0
 11 12  1  0  0  0  0
 12 16  1  0  0  0  0
 13 12  2  0  0  0  0
 14  8  1  0  0  0  0
 15  9  1  0  0  0  0
 17  4  1  0  0  0  0
 17 18  1  0  0  0  0
 17 19  1  0  0  0  0
 20 17  1  0  0  0  0
 21 20  1  0  0  0  0
 22 20  1  0  0  0  0
 23 24  1  0  0  0  0
 23 20  1  0  0  0  0
M  END
>  <minimizedAffinity>
-3.1983223

>  <minimizedRMSD>
2.20909739

$$$$
