
 OpenBabel03242509293D

 16 16  0  0  0  0  0  0  0  0999 V2000
   38.3060   28.5980   43.5490 C   0  0  0  0  0  0  0  0  0  0  0  0
   38.2950   27.1910   43.4260 C   0  0  0  0  0  0  0  0  0  0  0  0
   37.6220   26.6480   42.3130 C   0  0  0  0  0  0  0  0  0  0  0  0
   37.0150   27.5060   41.4090 N   0  0  0  0  0  0  0  0  0  0  0  0
   37.0670   28.8370   41.5900 C   0  0  0  0  0  0  0  0  0  0  0  0
   37.6960   29.3760   42.6330 N   0  0  0  0  0  0  0  0  0  0  0  0
   38.8320   28.9410   44.4140 H   0  0  0  0  0  0  0  0  0  0  0  0
   38.7760   26.5400   44.1470 H   0  0  0  0  0  0  0  0  0  0  0  0
   37.5810   25.1750   42.1370 C   0  0  0  0  0  0  0  0  0  0  0  0
   37.7210   24.9400   40.7980 F   0  0  0  0  0  0  0  0  0  0  0  0
   38.6170   24.5480   42.7840 F   0  0  0  0  0  0  0  0  0  0  0  0
   36.3710   24.6430   42.5890 F   0  0  0  0  0  0  0  0  0  0  0  0
   36.4310   29.7490   40.6420 C   0  0  0  0  0  0  0  0  0  0  0  0
   36.9750   30.1280   39.5920 O   0  0  0  0  0  0  0  0  0  0  0  0
   35.1600   30.2770   40.8230 O   0  0  0  0  0  0  0  0  0  0  0  0
   34.9710   31.2870   40.7240 H   0  0  0  0  0  0  0  0  0  0  0  0
  1  7  1  0  0  0  0
  2  1  1  0  0  0  0
  2  8  1  0  0  0  0
  3  2  2  0  0  0  0
  4  5  2  0  0  0  0
  4  3  1  0  0  0  0
  5  6  1  0  0  0  0
  6  1  2  0  0  0  0
  9  3  1  0  0  0  0
  9 12  1  0  0  0  0
  9 11  1  0  0  0  0
 10  9  1  0  0  0  0
 13 15  1  0  0  0  0
 13  5  1  0  0  0  0
 14 13  2  0  0  0  0
 16 15  1  0  0  0  0
M  END
>  <minimizedAffinity>
-4.06539011

>  <minimizedRMSD>
0.406768948

$$$$
