
 OpenBabel03242508423D

 31 33  0  0  1  0  0  0  0  0999 V2000
   37.9080   27.3510   42.7230 C   0  0  2  0  0  0  0  0  0  0  0  0
   38.9710   27.6490   43.6900 C   0  0  0  0  0  0  0  0  0  0  0  0
   39.7160   26.3370   43.8690 C   0  0  0  0  0  0  0  0  0  0  0  0
   39.2830   25.4580   42.7430 C   0  0  0  0  0  0  0  0  0  0  0  0
   38.5400   26.3690   41.7600 C   0  0  1  0  0  0  0  0  0  0  0  0
   37.0970   26.7510   43.2290 H   0  0  0  0  0  0  0  0  0  0  0  0
   39.7230   28.3790   43.3900 H   0  0  0  0  0  0  0  0  0  0  0  0
   38.5480   27.9350   44.6810 H   0  0  0  0  0  0  0  0  0  0  0  0
   39.5030   25.8930   44.8580 H   0  0  0  0  0  0  0  0  0  0  0  0
   40.8190   26.4500   43.7790 H   0  0  0  0  0  0  0  0  0  0  0  0
   38.6090   24.6920   43.1760 H   0  0  0  0  0  0  0  0  0  0  0  0
   40.1320   24.9630   42.2300 H   0  0  0  0  0  0  0  0  0  0  0  0
   39.1960   26.8370   41.0330 H   0  0  0  0  0  0  0  0  0  0  0  0
   37.9410   29.7610   41.9150 C   0  0  0  0  0  0  0  0  0  0  0  0
   37.3180   28.4880   42.0370 C   0  0  0  0  0  0  0  0  0  0  0  0
   36.0730   28.3070   41.4640 C   0  0  0  0  0  0  0  0  0  0  0  0
   35.4970   29.3700   40.8020 N   0  0  0  0  0  0  0  0  0  0  0  0
   36.1240   30.5890   40.7010 C   0  0  0  0  0  0  0  0  0  0  0  0
   37.3690   30.7750   41.2720 N   0  0  0  0  0  0  0  0  0  0  0  0
   38.9120   29.8930   42.3640 H   0  0  0  0  0  0  0  0  0  0  0  0
   35.4800   27.4120   41.4700 H   0  0  0  0  0  0  0  0  0  0  0  0
   35.5510   31.3300   40.1520 H   0  0  0  0  0  0  0  0  0  0  0  0
   37.5700   25.4230   41.1450 C   0  0  0  0  0  0  0  0  0  0  0  0
   36.8520   24.5440   41.8680 N   0  0  0  0  0  0  0  0  0  0  0  0
   36.1060   23.8640   41.0240 O   0  0  0  0  0  0  0  0  0  0  0  0
   36.3440   24.2990   39.8030 C   0  0  0  0  0  0  0  0  0  0  0  0
   37.2600   25.2800   39.8350 N   0  0  0  0  0  0  0  0  0  0  0  0
   35.6790   23.7560   38.6210 C   0  0  0  0  0  0  0  0  0  0  0  0
   34.8400   24.4650   38.0060 O   0  0  0  0  0  0  0  0  0  0  0  0
   35.9560   22.4750   38.1640 O   0  0  0  0  0  0  0  0  0  0  0  0
   35.2420   21.9270   37.6660 H   0  0  0  0  0  0  0  0  0  0  0  0
  1  6  1  1  0  0  0
  1  2  1  0  0  0  0
  2  3  1  0  0  0  0
  2  8  1  0  0  0  0
  3  9  1  0  0  0  0
  4 11  1  0  0  0  0
  4  3  1  0  0  0  0
  5 13  1  6  0  0  0
  5  1  1  0  0  0  0
  5  4  1  0  0  0  0
  7  2  1  0  0  0  0
 10  3  1  0  0  0  0
 12  4  1  0  0  0  0
 14 15  1  0  0  0  0
 14 20  1  0  0  0  0
 15  1  1  0  0  0  0
 16 21  1  0  0  0  0
 16 15  2  0  0  0  0
 17 16  1  0  0  0  0
 18 17  2  0  0  0  0
 18 19  1  0  0  0  0
 19 14  2  0  0  0  0
 22 18  1  0  0  0  0
 23  5  1  0  0  0  0
 23 24  2  0  0  0  0
 25 24  1  0  0  0  0
 26 27  2  0  0  0  0
 26 25  1  0  0  0  0
 27 23  1  0  0  0  0
 28 26  1  0  0  0  0
 29 28  2  0  0  0  0
 30 28  1  0  0  0  0
 31 30  1  0  0  0  0
M  END
>  <minimizedAffinity>
-4.65613604

>  <minimizedRMSD>
0.565381348

$$$$
