
 OpenBabel03242509293D

 16 16  0  0  0  0  0  0  0  0999 V2000
   38.2430   28.5900   43.3940 C   0  0  0  0  0  0  0  0  0  0  0  0
   38.2390   27.1940   43.1860 C   0  0  0  0  0  0  0  0  0  0  0  0
   37.4190   26.7000   42.1500 C   0  0  0  0  0  0  0  0  0  0  0  0
   36.6720   27.5940   41.4000 N   0  0  0  0  0  0  0  0  0  0  0  0
   36.7270   28.9130   41.6550 C   0  0  0  0  0  0  0  0  0  0  0  0
   37.4920   29.4050   42.6270 N   0  0  0  0  0  0  0  0  0  0  0  0
   38.8850   28.8950   44.1930 H   0  0  0  0  0  0  0  0  0  0  0  0
   38.8320   26.5130   43.7870 H   0  0  0  0  0  0  0  0  0  0  0  0
   37.3790   25.2400   41.8900 C   0  0  0  0  0  0  0  0  0  0  0  0
   37.1300   25.0900   40.5550 F   0  0  0  0  0  0  0  0  0  0  0  0
   38.5780   24.6320   42.1650 F   0  0  0  0  0  0  0  0  0  0  0  0
   36.3720   24.6190   42.6330 F   0  0  0  0  0  0  0  0  0  0  0  0
   35.9430   29.8630   40.8690 C   0  0  0  0  0  0  0  0  0  0  0  0
   35.5250   29.6190   39.7250 O   0  0  0  0  0  0  0  0  0  0  0  0
   35.5890   31.1250   41.3240 O   0  0  0  0  0  0  0  0  0  0  0  0
   35.7390   31.9720   40.7520 H   0  0  0  0  0  0  0  0  0  0  0  0
  1  7  1  0  0  0  0
  2  1  1  0  0  0  0
  2  8  1  0  0  0  0
  3  2  2  0  0  0  0
  4  5  2  0  0  0  0
  4  3  1  0  0  0  0
  5  6  1  0  0  0  0
  6  1  2  0  0  0  0
  9  3  1  0  0  0  0
  9 11  1  0  0  0  0
  9 12  1  0  0  0  0
 10  9  1  0  0  0  0
 13 15  1  0  0  0  0
 13  5  1  0  0  0  0
 14 13  2  0  0  0  0
 16 15  1  0  0  0  0
M  END
>  <minimizedAffinity>
-4.56899405

>  <minimizedRMSD>
0.447488725

$$$$
