
 OpenBabel03242505423D

 18 19  0  0  0  0  0  0  0  0999 V2000
   40.0180   27.7170   42.9870 C   0  0  0  0  0  0  0  0  0  0  0  0
   39.0660   27.0430   43.7950 C   0  0  0  0  0  0  0  0  0  0  0  0
   37.7660   27.5320   43.8300 C   0  0  0  0  0  0  0  0  0  0  0  0
   37.4730   28.6470   43.0730 N   0  0  0  0  0  0  0  0  0  0  0  0
   38.4160   29.2520   42.3190 C   0  0  0  0  0  0  0  0  0  0  0  0
   39.6740   28.7960   42.2740 N   0  0  0  0  0  0  0  0  0  0  0  0
   41.0190   27.3110   42.9820 H   0  0  0  0  0  0  0  0  0  0  0  0
   39.2840   26.1690   44.3920 H   0  0  0  0  0  0  0  0  0  0  0  0
   36.9760   27.0830   44.4160 H   0  0  0  0  0  0  0  0  0  0  0  0
   37.9480   30.4220   41.5770 C   0  0  0  0  0  0  0  0  0  0  0  0
   36.6300   30.5320   41.2210 N   0  0  0  0  0  0  0  0  0  0  0  0
   36.4530   31.6510   40.5720 O   0  0  0  0  0  0  0  0  0  0  0  0
   37.5950   32.2940   40.4780 C   0  0  0  0  0  0  0  0  0  0  0  0
   38.5400   31.5470   41.0970 N   0  0  0  0  0  0  0  0  0  0  0  0
   37.8050   33.5700   39.8290 C   0  0  0  0  0  0  0  0  0  0  0  0
   38.9510   34.0800   39.9380 O   0  0  0  0  0  0  0  0  0  0  0  0
   36.8390   34.2220   39.1240 O   0  0  0  0  0  0  0  0  0  0  0  0
   36.8670   35.2290   38.9200 H   0  0  0  0  0  0  0  0  0  0  0  0
  1  2  1  0  0  0  0
  2  3  2  0  0  0  0
  2  8  1  0  0  0  0
  3  9  1  0  0  0  0
  4  3  1  0  0  0  0
  5  4  2  0  0  0  0
  6  5  1  0  0  0  0
  6  1  2  0  0  0  0
  7  1  1  0  0  0  0
 10  5  1  0  0  0  0
 11 10  2  0  0  0  0
 12 11  1  0  0  0  0
 13 12  1  0  0  0  0
 13 14  2  0  0  0  0
 14 10  1  0  0  0  0
 15 16  2  0  0  0  0
 15 13  1  0  0  0  0
 17 15  1  0  0  0  0
 18 17  1  0  0  0  0
M  END
>  <minimizedAffinity>
-4.42673683

>  <minimizedRMSD>
0.787901998

$$$$
