
 OpenBabel03242508563D

 40 43  0  0  0  0  0  0  0  0999 V2000
   36.7520   29.9380   39.7730 C   0  0  0  0  0  0  0  0  0  0  0  0
   37.5830   31.0590   39.7980 C   0  0  0  0  0  0  0  0  0  0  0  0
   38.2270   31.0430   40.9580 N   0  0  0  0  0  0  0  0  0  0  0  0
   37.8770   29.9860   41.6990 C   0  0  0  0  0  0  0  0  0  0  0  0
   38.3150   29.6060   42.9600 C   0  0  0  0  0  0  0  0  0  0  0  0
   37.7700   28.4450   43.4890 C   0  0  0  0  0  0  0  0  0  0  0  0
   36.8270   27.6990   42.7830 C   0  0  0  0  0  0  0  0  0  0  0  0
   36.4070   28.0960   41.5330 C   0  0  0  0  0  0  0  0  0  0  0  0
   36.9350   29.2480   40.9850 C   0  0  0  0  0  0  0  0  0  0  0  0
   37.5660   31.7160   38.9190 H   0  0  0  0  0  0  0  0  0  0  0  0
   39.0480   30.2170   43.4690 H   0  0  0  0  0  0  0  0  0  0  0  0
   38.1190   28.1590   44.4720 H   0  0  0  0  0  0  0  0  0  0  0  0
   36.4460   26.8030   43.2610 H   0  0  0  0  0  0  0  0  0  0  0  0
   35.6860   27.5400   40.9750 H   0  0  0  0  0  0  0  0  0  0  0  0
   33.7360   28.8010   38.0540 C   0  0  0  0  0  0  0  0  0  0  0  0
   34.1290   28.7590   36.6970 C   0  0  0  0  0  0  0  0  0  0  0  0
   35.4370   29.1250   36.3960 C   0  0  0  0  0  0  0  0  0  0  0  0
   36.2400   29.4960   37.4150 N   0  0  0  0  0  0  0  0  0  0  0  0
   35.8400   29.5270   38.6990 C   0  0  0  0  0  0  0  0  0  0  0  0
   34.5950   29.1810   39.0060 N   0  0  0  0  0  0  0  0  0  0  0  0
   32.7030   28.5100   38.2760 H   0  0  0  0  0  0  0  0  0  0  0  0
   33.4550   28.4590   35.9210 H   0  0  0  0  0  0  0  0  0  0  0  0
   35.7900   29.1130   35.3820 H   0  0  0  0  0  0  0  0  0  0  0  0
   39.1590   32.0840   41.2710 C   0  0  0  0  0  0  0  0  0  0  0  0
   40.1530   31.7370   40.8670 H   0  0  0  0  0  0  0  0  0  0  0  0
   39.3430   32.1730   42.3770 H   0  0  0  0  0  0  0  0  0  0  0  0
   38.7920   33.4380   40.7420 C   0  0  0  0  0  0  0  0  0  0  0  0
   37.8920   33.5030   40.1440 H   0  0  0  0  0  0  0  0  0  0  0  0
   38.7470   34.1400   41.6220 H   0  0  0  0  0  0  0  0  0  0  0  0
   39.9540   33.8320   39.9080 N   0  0  0  0  0  0  0  0  0  0  0  0
   40.6550   32.9990   39.1560 N   0  0  0  0  0  0  0  0  0  0  0  0
   41.6370   33.6490   38.5250 C   0  0  0  0  0  0  0  0  0  0  0  0
   41.5600   34.9950   38.9010 C   0  0  0  0  0  0  0  0  0  0  0  0
   40.4860   35.0470   39.7690 C   0  0  0  0  0  0  0  0  0  0  0  0
   42.3820   33.2420   37.8380 H   0  0  0  0  0  0  0  0  0  0  0  0
   42.1960   35.7840   38.5790 H   0  0  0  0  0  0  0  0  0  0  0  0
   40.0570   36.2730   40.3950 C   0  0  0  0  0  0  0  0  0  0  0  0
   39.1500   37.0290   39.9840 O   0  0  0  0  0  0  0  0  0  0  0  0
   40.5650   36.8320   41.5530 O   0  0  0  0  0  0  0  0  0  0  0  0
   40.8370   37.7850   41.6250 H   0  0  0  0  0  0  0  0  0  0  0  0
  1  2  2  0  0  0  0
  1  9  1  0  0  0  0
  2  3  1  0  0  0  0
  3 24  1  0  0  0  0
  3  4  1  0  0  0  0
  4  5  1  0  0  0  0
  5 11  1  0  0  0  0
  5  6  2  0  0  0  0
  6 12  1  0  0  0  0
  7 13  1  0  0  0  0
  7  6  1  0  0  0  0
  8  7  2  0  0  0  0
  9  8  1  0  0  0  0
  9  4  2  0  0  0  0
 10  2  1  0  0  0  0
 14  8  1  0  0  0  0
 15 21  1  0  0  0  0
 15 20  1  0  0  0  0
 16 15  2  0  0  0  0
 17 16  1  0  0  0  0
 17 18  2  0  0  0  0
 18 19  1  0  0  0  0
 19 20  2  0  0  0  0
 19  1  1  0  0  0  0
 22 16  1  0  0  0  0
 23 17  1  0  0  0  0
 24 26  1  0  0  0  0
 25 24  1  0  0  0  0
 27 24  1  0  0  0  0
 27 29  1  0  0  0  0
 28 27  1  0  0  0  0
 30 27  1  0  0  0  0
 31 30  1  0  0  0  0
 32 33  1  0  0  0  0
 32 31  2  0  0  0  0
 33 34  2  0  0  0  0
 34 30  1  0  0  0  0
 34 37  1  0  0  0  0
 35 32  1  0  0  0  0
 36 33  1  0  0  0  0
 37 39  1  0  0  0  0
 38 37  2  0  0  0  0
 39 40  1  0  0  0  0
M  END
>  <minimizedAffinity>
-6.32221127

>  <minimizedRMSD>
1.16964984

$$$$
