
 OpenBabel03242507133D

 33 36  0  0  0  0  0  0  0  0999 V2000
   37.2660   28.0530   40.8930 N   0  0  0  0  0  0  0  0  0  0  0  0
   36.8830   26.9270   41.5170 C   0  0  0  0  0  0  0  0  0  0  0  0
   37.2950   27.1080   42.8210 C   0  0  0  0  0  0  0  0  0  0  0  0
   37.9100   28.3190   42.9630 N   0  0  0  0  0  0  0  0  0  0  0  0
   37.8750   28.8750   41.7520 C   0  0  0  0  0  0  0  0  0  0  0  0
   38.4710   30.1700   41.6530 N   0  0  0  0  0  0  0  0  0  0  0  0
   39.5850   30.4960   42.3700 C   0  0  0  0  0  0  0  0  0  0  0  0
   39.9740   31.7840   42.1140 N   0  0  0  0  0  0  0  0  0  0  0  0
   39.1000   32.2750   41.2320 C   0  0  0  0  0  0  0  0  0  0  0  0
   38.9860   33.5070   40.6150 C   0  0  0  0  0  0  0  0  0  0  0  0
   37.9510   33.6430   39.7600 N   0  0  0  0  0  0  0  0  0  0  0  0
   37.0640   32.6710   39.4950 C   0  0  0  0  0  0  0  0  0  0  0  0
   37.1630   31.4590   40.0930 N   0  0  0  0  0  0  0  0  0  0  0  0
   38.1780   31.2940   40.9450 C   0  0  0  0  0  0  0  0  0  0  0  0
   36.3690   26.0820   41.0840 H   0  0  0  0  0  0  0  0  0  0  0  0
   37.1390   26.3690   43.6140 H   0  0  0  0  0  0  0  0  0  0  0  0
   40.2020   29.9410   43.0820 H   0  0  0  0  0  0  0  0  0  0  0  0
   36.2910   32.9430   38.7850 H   0  0  0  0  0  0  0  0  0  0  0  0
   35.8240   28.6050   38.9690 C   0  0  0  0  0  0  0  0  0  0  0  0
   37.0610   28.3330   39.5310 C   0  0  0  0  0  0  0  0  0  0  0  0
   38.1680   28.3480   38.6520 C   0  0  0  0  0  0  0  0  0  0  0  0
   37.9820   28.6180   37.3370 N   0  0  0  0  0  0  0  0  0  0  0  0
   36.7210   28.8800   36.8440 C   0  0  0  0  0  0  0  0  0  0  0  0
   35.6410   28.8720   37.6680 N   0  0  0  0  0  0  0  0  0  0  0  0
   34.9520   28.6020   39.6150 H   0  0  0  0  0  0  0  0  0  0  0  0
   39.1790   28.1500   38.9830 H   0  0  0  0  0  0  0  0  0  0  0  0
   36.4770   29.1750   35.4370 C   0  0  0  0  0  0  0  0  0  0  0  0
   35.4160   29.7130   35.0270 O   0  0  0  0  0  0  0  0  0  0  0  0
   37.3820   28.8910   34.4390 O   0  0  0  0  0  0  0  0  0  0  0  0
   37.1260   28.6910   33.4740 H   0  0  0  0  0  0  0  0  0  0  0  0
   39.8980   34.5630   40.8620 N   0  0  0  0  0  0  0  0  0  0  0  0
   40.8890   34.2480   41.0750 H   0  0  0  0  0  0  0  0  0  0  0  0
   39.6490   35.5580   40.8430 H   0  0  0  0  0  0  0  0  0  0  0  0
  1  2  1  0  0  0  0
  1  5  1  0  0  0  0
  2  3  2  0  0  0  0
  3  4  1  0  0  0  0
  3 16  1  0  0  0  0
  5  4  2  0  0  0  0
  6  5  1  0  0  0  0
  6  7  1  0  0  0  0
  7 17  1  0  0  0  0
  8  7  2  0  0  0  0
  9  8  1  0  0  0  0
 10 31  1  0  0  0  0
 10  9  2  0  0  0  0
 11 10  1  0  0  0  0
 12 11  2  0  0  0  0
 12 13  1  0  0  0  0
 13 14  2  0  0  0  0
 14  9  1  0  0  0  0
 14  6  1  0  0  0  0
 15  2  1  0  0  0  0
 18 12  1  0  0  0  0
 19 20  1  0  0  0  0
 19 25  1  0  0  0  0
 20  1  1  0  0  0  0
 21 26  1  0  0  0  0
 21 20  2  0  0  0  0
 22 21  1  0  0  0  0
 23 22  2  0  0  0  0
 23 24  1  0  0  0  0
 24 19  2  0  0  0  0
 27 23  1  0  0  0  0
 28 27  2  0  0  0  0
 29 27  1  0  0  0  0
 30 29  1  0  0  0  0
 31 32  1  0  0  0  0
 33 31  1  0  0  0  0
M  END
>  <minimizedAffinity>
-5.81608343

>  <minimizedRMSD>
0.461252987

$$$$
