
 OpenBabel03242508053D

 37 39  0  0  1  0  0  0  0  0999 V2000
   38.4400   28.8690   39.5120 C   0  0  0  0  0  0  0  0  0  0  0  0
   39.1750   28.2500   40.5130 C   0  0  0  0  0  0  0  0  0  0  0  0
   40.5640   28.4910   40.5410 C   0  0  0  0  0  0  0  0  0  0  0  0
   41.1200   29.2970   39.6150 N   0  0  0  0  0  0  0  0  0  0  0  0
   40.3620   29.8860   38.6480 C   0  0  0  0  0  0  0  0  0  0  0  0
   39.0280   29.6750   38.5930 N   0  0  0  0  0  0  0  0  0  0  0  0
   37.0500   28.7990   39.2600 N   0  0  0  0  0  0  0  0  0  0  0  0
   35.8490   28.1630   39.7670 C   0  0  0  0  0  0  0  0  0  0  0  0
   34.6950   28.9350   39.1730 C   0  0  0  0  0  0  0  0  0  0  0  0
   35.2130   29.3780   37.8460 C   0  0  0  0  0  0  0  0  0  0  0  0
   36.6440   29.6280   38.1180 C   0  0  0  0  0  0  0  0  0  0  0  0
   41.1260   28.0030   41.3280 H   0  0  0  0  0  0  0  0  0  0  0  0
   40.9080   30.5120   37.9590 H   0  0  0  0  0  0  0  0  0  0  0  0
   35.7660   27.1040   39.4330 H   0  0  0  0  0  0  0  0  0  0  0  0
   35.6920   28.3300   40.8150 H   0  0  0  0  0  0  0  0  0  0  0  0
   34.3380   29.7780   39.7740 H   0  0  0  0  0  0  0  0  0  0  0  0
   33.8430   28.2090   39.0200 H   0  0  0  0  0  0  0  0  0  0  0  0
   34.7150   30.3290   37.5500 H   0  0  0  0  0  0  0  0  0  0  0  0
   35.0070   28.5880   37.0980 H   0  0  0  0  0  0  0  0  0  0  0  0
   36.7920   30.6880   38.4190 H   0  0  0  0  0  0  0  0  0  0  0  0
   37.2230   29.3750   37.2050 H   0  0  0  0  0  0  0  0  0  0  0  0
   38.6020   27.4160   41.4690 N   0  0  0  0  0  0  0  0  0  0  0  0
   38.3310   25.9830   41.3540 C   0  0  0  0  0  0  0  0  0  0  0  0
   37.1050   25.7710   42.1970 C   0  0  0  0  0  0  0  0  0  0  0  0
   36.8880   27.0390   42.9140 C   0  0  0  0  0  0  0  0  0  0  0  0
   38.1560   27.7920   42.7720 C   0  0  2  0  0  0  0  0  0  0  0  0
   39.1690   25.4570   41.8850 H   0  0  0  0  0  0  0  0  0  0  0  0
   38.2140   25.6420   40.3160 H   0  0  0  0  0  0  0  0  0  0  0  0
   37.1700   24.8560   42.7920 H   0  0  0  0  0  0  0  0  0  0  0  0
   36.2520   25.5950   41.4810 H   0  0  0  0  0  0  0  0  0  0  0  0
   35.9470   27.5680   42.8350 H   0  0  0  0  0  0  0  0  0  0  0  0
   36.8880   26.7450   44.0000 H   0  0  0  0  0  0  0  0  0  0  0  0
   38.9500   27.5050   43.4940 H   0  0  0  0  0  0  0  0  0  0  0  0
   37.9970   29.2630   42.9070 C   0  0  0  0  0  0  0  0  0  0  0  0
   38.9140   30.0810   43.2090 O   0  0  0  0  0  0  0  0  0  0  0  0
   36.7180   29.7790   42.6810 O   0  0  0  0  0  0  0  0  0  0  0  0
   36.5320   30.7480   42.4980 H   0  0  0  0  0  0  0  0  0  0  0  0
  1  2  1  0  0  0  0
  2  3  2  0  0  0  0
  2 22  1  0  0  0  0
  3 12  1  0  0  0  0
  4  3  1  0  0  0  0
  5  4  2  0  0  0  0
  6  5  1  0  0  0  0
  6  1  2  0  0  0  0
  7  1  1  0  0  0  0
  7  8  1  0  0  0  0
  8 15  1  0  0  0  0
  9  8  1  0  0  0  0
  9 16  1  0  0  0  0
 10 11  1  0  0  0  0
 10  9  1  0  0  0  0
 11 20  1  0  0  0  0
 11  7  1  0  0  0  0
 13  5  1  0  0  0  0
 14  8  1  0  0  0  0
 17  9  1  0  0  0  0
 18 10  1  0  0  0  0
 19 10  1  0  0  0  0
 21 11  1  0  0  0  0
 22 26  1  0  0  0  0
 23 22  1  0  0  0  0
 23 27  1  0  0  0  0
 23 24  1  0  0  0  0
 24 29  1  0  0  0  0
 24 25  1  0  0  0  0
 25 32  1  0  0  0  0
 26 34  1  0  0  0  0
 26 25  1  0  0  0  0
 26 33  1  1  0  0  0
 28 23  1  0  0  0  0
 30 24  1  0  0  0  0
 31 25  1  0  0  0  0
 34 35  2  0  0  0  0
 36 34  1  0  0  0  0
 37 36  1  0  0  0  0
M  END
>  <minimizedAffinity>
-4.82345152

>  <minimizedRMSD>
2.01519179

$$$$
