
 OpenBabel03242509023D

 33 35  0  0  1  0  0  0  0  0999 V2000
   37.9770   30.5160   39.5910 N   0  0  1  0  0  0  0  0  0  0  0  0
   38.2750   29.9510   38.2510 C   0  0  0  0  0  0  0  0  0  0  0  0
   39.7320   29.6480   38.0900 C   0  0  0  0  0  0  0  0  0  0  0  0
   40.5230   30.6700   38.5960 O   0  0  0  0  0  0  0  0  0  0  0  0
   39.7720   31.8430   38.5950 C   0  0  0  0  0  0  0  0  0  0  0  0
   38.6340   31.7800   39.6290 C   0  0  1  0  0  0  0  0  0  0  0  0
   37.8920   30.6400   37.4590 H   0  0  0  0  0  0  0  0  0  0  0  0
   37.6900   28.9890   38.1860 H   0  0  0  0  0  0  0  0  0  0  0  0
   39.9440   29.5340   37.0210 H   0  0  0  0  0  0  0  0  0  0  0  0
   39.9550   28.6710   38.5700 H   0  0  0  0  0  0  0  0  0  0  0  0
   39.3710   32.0430   37.5830 H   0  0  0  0  0  0  0  0  0  0  0  0
   40.4640   32.6710   38.8520 H   0  0  0  0  0  0  0  0  0  0  0  0
   39.1310   31.8810   40.6170 H   0  0  0  0  0  0  0  0  0  0  0  0
   35.9420   29.4080   40.7390 C   0  0  1  0  0  0  0  0  0  0  0  0
   35.9200   30.8440   41.0930 C   0  0  0  0  0  0  0  0  0  0  0  0
   36.5990   30.4840   39.8440 C   0  0  1  0  0  0  0  0  0  0  0  0
   35.1240   28.8380   40.2930 H   0  0  0  0  0  0  0  0  0  0  0  0
   36.4850   31.1600   42.0040 H   0  0  0  0  0  0  0  0  0  0  0  0
   34.9090   31.3180   41.0950 H   0  0  0  0  0  0  0  0  0  0  0  0
   35.9510   30.6860   38.9380 H   0  0  0  0  0  0  0  0  0  0  0  0
   38.1260   28.2400   43.4620 C   0  0  0  0  0  0  0  0  0  0  0  0
   38.5010   26.9450   43.0280 C   0  0  0  0  0  0  0  0  0  0  0  0
   37.9910   26.5050   41.7770 C   0  0  0  0  0  0  0  0  0  0  0  0
   37.1610   27.3510   41.0500 N   0  0  0  0  0  0  0  0  0  0  0  0
   36.8590   28.5580   41.5350 C   0  0  0  0  0  0  0  0  0  0  0  0
   37.3220   29.0160   42.7180 N   0  0  0  0  0  0  0  0  0  0  0  0
   38.5160   28.5680   44.4080 H   0  0  0  0  0  0  0  0  0  0  0  0
   39.1380   26.2810   43.5760 H   0  0  0  0  0  0  0  0  0  0  0  0
   38.2370   25.5360   41.3930 H   0  0  0  0  0  0  0  0  0  0  0  0
   37.7620   32.9320   39.4030 C   0  0  0  0  0  0  0  0  0  0  0  0
   38.0770   33.8910   40.1880 O   0  0  0  0  0  0  0  0  0  0  0  0
   36.9470   34.0370   39.2060 O   0  0  0  0  0  0  0  0  0  0  0  0
   36.4190   34.1140   38.3230 H   0  0  0  0  0  0  0  0  0  0  0  0
  1  2  1  6  0  0  0
  1  6  1  0  0  0  0
  1 16  1  0  0  0  0
  3  2  1  0  0  0  0
  3 10  1  0  0  0  0
  3  4  1  0  0  0  0
  5  4  1  0  0  0  0
  5 12  1  0  0  0  0
  5  6  1  0  0  0  0
  6 13  1  1  0  0  0
  7  2  1  0  0  0  0
  8  2  1  0  0  0  0
  9  3  1  0  0  0  0
 11  5  1  0  0  0  0
 14 17  1  6  0  0  0
 14 15  1  0  0  0  0
 14 25  1  0  0  0  0
 15 19  1  0  0  0  0
 15 18  1  0  0  0  0
 16 20  1  6  0  0  0
 16 14  1  0  0  0  0
 16 15  1  0  0  0  0
 21 27  1  0  0  0  0
 22 21  1  0  0  0  0
 22 28  1  0  0  0  0
 23 22  2  0  0  0  0
 24 25  2  0  0  0  0
 24 23  1  0  0  0  0
 25 26  1  0  0  0  0
 26 21  2  0  0  0  0
 29 23  1  0  0  0  0
 30  6  1  0  0  0  0
 30 31  2  0  0  0  0
 32 30  1  0  0  0  0
 33 32  1  0  0  0  0
M  END
>  <minimizedAffinity>
-4.60898781

>  <minimizedRMSD>
1.60330653

$$$$
