
 OpenBabel03242509303D

 16 16  0  0  0  0  0  0  0  0999 V2000
   38.3030   28.5900   43.4080 C   0  0  0  0  0  0  0  0  0  0  0  0
   38.3780   27.1890   43.2470 C   0  0  0  0  0  0  0  0  0  0  0  0
   37.5340   26.6070   42.2800 C   0  0  0  0  0  0  0  0  0  0  0  0
   36.6870   27.4230   41.5470 N   0  0  0  0  0  0  0  0  0  0  0  0
   36.6700   28.7520   41.7540 C   0  0  0  0  0  0  0  0  0  0  0  0
   37.4570   29.3270   42.6620 N   0  0  0  0  0  0  0  0  0  0  0  0
   38.9690   28.9640   44.1570 H   0  0  0  0  0  0  0  0  0  0  0  0
   39.0490   26.5700   43.8330 H   0  0  0  0  0  0  0  0  0  0  0  0
   37.5740   25.1390   42.0710 C   0  0  0  0  0  0  0  0  0  0  0  0
   37.8240   24.9420   40.7420 F   0  0  0  0  0  0  0  0  0  0  0  0
   38.5860   24.5420   42.7810 F   0  0  0  0  0  0  0  0  0  0  0  0
   36.3590   24.5420   42.4190 F   0  0  0  0  0  0  0  0  0  0  0  0
   35.7820   29.6200   40.9860 C   0  0  0  0  0  0  0  0  0  0  0  0
   35.1370   29.2320   39.9970 O   0  0  0  0  0  0  0  0  0  0  0  0
   35.5730   30.9600   41.2840 O   0  0  0  0  0  0  0  0  0  0  0  0
   35.6380   31.6950   40.5640 H   0  0  0  0  0  0  0  0  0  0  0  0
  1  7  1  0  0  0  0
  2  1  1  0  0  0  0
  2  8  1  0  0  0  0
  3  2  2  0  0  0  0
  4  5  2  0  0  0  0
  4  3  1  0  0  0  0
  5  6  1  0  0  0  0
  6  1  2  0  0  0  0
  9  3  1  0  0  0  0
  9 12  1  0  0  0  0
  9 11  1  0  0  0  0
 10  9  1  0  0  0  0
 13 15  1  0  0  0  0
 13  5  1  0  0  0  0
 14 13  2  0  0  0  0
 16 15  1  0  0  0  0
M  END
>  <minimizedAffinity>
-4.5963726

>  <minimizedRMSD>
0.694369435

$$$$
