
 OpenBabel03242509293D

 16 16  0  0  0  0  0  0  0  0999 V2000
   38.3030   28.5910   43.4090 C   0  0  0  0  0  0  0  0  0  0  0  0
   38.3780   27.1900   43.2480 C   0  0  0  0  0  0  0  0  0  0  0  0
   37.5340   26.6070   42.2800 C   0  0  0  0  0  0  0  0  0  0  0  0
   36.6880   27.4230   41.5470 N   0  0  0  0  0  0  0  0  0  0  0  0
   36.6700   28.7520   41.7540 C   0  0  0  0  0  0  0  0  0  0  0  0
   37.4560   29.3270   42.6620 N   0  0  0  0  0  0  0  0  0  0  0  0
   38.9680   28.9650   44.1580 H   0  0  0  0  0  0  0  0  0  0  0  0
   39.0490   26.5710   43.8340 H   0  0  0  0  0  0  0  0  0  0  0  0
   37.5750   25.1390   42.0720 C   0  0  0  0  0  0  0  0  0  0  0  0
   37.8240   24.9420   40.7420 F   0  0  0  0  0  0  0  0  0  0  0  0
   38.5880   24.5430   42.7810 F   0  0  0  0  0  0  0  0  0  0  0  0
   36.3610   24.5420   42.4210 F   0  0  0  0  0  0  0  0  0  0  0  0
   35.7810   29.6200   40.9860 C   0  0  0  0  0  0  0  0  0  0  0  0
   35.1350   29.2310   39.9980 O   0  0  0  0  0  0  0  0  0  0  0  0
   35.5730   30.9600   41.2840 O   0  0  0  0  0  0  0  0  0  0  0  0
   35.6390   31.6950   40.5620 H   0  0  0  0  0  0  0  0  0  0  0  0
  1  7  1  0  0  0  0
  2  1  1  0  0  0  0
  2  8  1  0  0  0  0
  3  2  2  0  0  0  0
  4  5  2  0  0  0  0
  4  3  1  0  0  0  0
  5  6  1  0  0  0  0
  6  1  2  0  0  0  0
  9  3  1  0  0  0  0
  9 12  1  0  0  0  0
  9 11  1  0  0  0  0
 10  9  1  0  0  0  0
 13 15  1  0  0  0  0
 13  5  1  0  0  0  0
 14 13  2  0  0  0  0
 16 15  1  0  0  0  0
M  END
>  <minimizedAffinity>
-4.59675694

>  <minimizedRMSD>
0.821847022

$$$$
