
 OpenBabel03242509303D

 16 16  0  0  0  0  0  0  0  0999 V2000
   37.9710   28.8780   43.3790 C   0  0  0  0  0  0  0  0  0  0  0  0
   38.0920   27.4730   43.3060 C   0  0  0  0  0  0  0  0  0  0  0  0
   37.4140   26.8240   42.2540 C   0  0  0  0  0  0  0  0  0  0  0  0
   36.6760   27.5820   41.3590 N   0  0  0  0  0  0  0  0  0  0  0  0
   36.6070   28.9190   41.4910 C   0  0  0  0  0  0  0  0  0  0  0  0
   37.2360   29.5560   42.4760 N   0  0  0  0  0  0  0  0  0  0  0  0
   38.5090   29.3040   44.2000 H   0  0  0  0  0  0  0  0  0  0  0  0
   38.6750   26.9000   44.0180 H   0  0  0  0  0  0  0  0  0  0  0  0
   37.5090   25.3480   42.1310 C   0  0  0  0  0  0  0  0  0  0  0  0
   37.6150   25.0750   40.7960 F   0  0  0  0  0  0  0  0  0  0  0  0
   38.6270   24.8480   42.7510 F   0  0  0  0  0  0  0  0  0  0  0  0
   36.3770   24.7210   42.6560 F   0  0  0  0  0  0  0  0  0  0  0  0
   35.8310   29.7260   40.5530 C   0  0  0  0  0  0  0  0  0  0  0  0
   36.1200   30.9000   40.2630 O   0  0  0  0  0  0  0  0  0  0  0  0
   34.7000   29.2610   39.8960 O   0  0  0  0  0  0  0  0  0  0  0  0
   33.8200   29.8020   39.8780 H   0  0  0  0  0  0  0  0  0  0  0  0
  1  7  1  0  0  0  0
  2  1  1  0  0  0  0
  2  8  1  0  0  0  0
  3  2  2  0  0  0  0
  4  5  2  0  0  0  0
  4  3  1  0  0  0  0
  5  6  1  0  0  0  0
  6  1  2  0  0  0  0
  9  3  1  0  0  0  0
  9 12  1  0  0  0  0
  9 11  1  0  0  0  0
 10  9  1  0  0  0  0
 13  5  1  0  0  0  0
 14 13  2  0  0  0  0
 15 13  1  0  0  0  0
 16 15  1  0  0  0  0
M  END
>  <minimizedAffinity>
-4.06053066

>  <minimizedRMSD>
0.0644774362

$$$$
