
 OpenBabel03242509293D

 16 16  0  0  0  0  0  0  0  0999 V2000
   38.2880   28.6160   43.3980 C   0  0  0  0  0  0  0  0  0  0  0  0
   38.2640   27.2220   43.1700 C   0  0  0  0  0  0  0  0  0  0  0  0
   37.4160   26.7530   42.1470 C   0  0  0  0  0  0  0  0  0  0  0  0
   36.6600   27.6640   41.4280 N   0  0  0  0  0  0  0  0  0  0  0  0
   36.7340   28.9790   41.7000 C   0  0  0  0  0  0  0  0  0  0  0  0
   37.5270   29.4490   42.6620 N   0  0  0  0  0  0  0  0  0  0  0  0
   38.9510   28.9020   44.1870 H   0  0  0  0  0  0  0  0  0  0  0  0
   38.8640   26.5280   43.7470 H   0  0  0  0  0  0  0  0  0  0  0  0
   37.3540   25.2970   41.8670 C   0  0  0  0  0  0  0  0  0  0  0  0
   37.0430   25.1690   40.5420 F   0  0  0  0  0  0  0  0  0  0  0  0
   38.5620   24.6780   42.0750 F   0  0  0  0  0  0  0  0  0  0  0  0
   36.3800   24.6700   42.6470 F   0  0  0  0  0  0  0  0  0  0  0  0
   35.9420   29.9480   40.9470 C   0  0  0  0  0  0  0  0  0  0  0  0
   36.2800   31.1340   40.7940 O   0  0  0  0  0  0  0  0  0  0  0  0
   34.7370   29.6380   40.3310 O   0  0  0  0  0  0  0  0  0  0  0  0
   33.8940   30.2190   40.4590 H   0  0  0  0  0  0  0  0  0  0  0  0
  1  7  1  0  0  0  0
  2  1  1  0  0  0  0
  2  8  1  0  0  0  0
  3  2  2  0  0  0  0
  4  5  2  0  0  0  0
  4  3  1  0  0  0  0
  5  6  1  0  0  0  0
  6  1  2  0  0  0  0
  9 11  1  0  0  0  0
  9  3  1  0  0  0  0
  9 12  1  0  0  0  0
 10  9  1  0  0  0  0
 13  5  1  0  0  0  0
 14 13  2  0  0  0  0
 15 16  1  0  0  0  0
 15 13  1  0  0  0  0
M  END
>  <minimizedAffinity>
-4.31436682

>  <minimizedRMSD>
0.707019746

$$$$
