
 OpenBabel03242509293D

 16 16  0  0  0  0  0  0  0  0999 V2000
   38.2280   28.6710   43.3590 C   0  0  0  0  0  0  0  0  0  0  0  0
   38.2410   27.2720   43.1650 C   0  0  0  0  0  0  0  0  0  0  0  0
   37.4120   26.7560   42.1500 C   0  0  0  0  0  0  0  0  0  0  0  0
   36.6370   27.6300   41.4040 N   0  0  0  0  0  0  0  0  0  0  0  0
   36.6760   28.9530   41.6450 C   0  0  0  0  0  0  0  0  0  0  0  0
   37.4500   29.4660   42.5990 N   0  0  0  0  0  0  0  0  0  0  0  0
   38.8790   28.9940   44.1440 H   0  0  0  0  0  0  0  0  0  0  0  0
   38.8560   26.6080   43.7620 H   0  0  0  0  0  0  0  0  0  0  0  0
   37.3890   25.2930   41.9050 C   0  0  0  0  0  0  0  0  0  0  0  0
   37.1570   25.1260   40.5680 F   0  0  0  0  0  0  0  0  0  0  0  0
   38.5920   24.7000   42.1990 F   0  0  0  0  0  0  0  0  0  0  0  0
   36.3810   24.6690   42.6430 F   0  0  0  0  0  0  0  0  0  0  0  0
   35.8630   29.8820   40.8640 C   0  0  0  0  0  0  0  0  0  0  0  0
   36.1940   31.0590   40.6430 O   0  0  0  0  0  0  0  0  0  0  0  0
   34.6430   29.5410   40.2950 O   0  0  0  0  0  0  0  0  0  0  0  0
   33.8020   30.1270   40.4150 H   0  0  0  0  0  0  0  0  0  0  0  0
  1  7  1  0  0  0  0
  2  1  1  0  0  0  0
  2  8  1  0  0  0  0
  3  2  2  0  0  0  0
  4  5  2  0  0  0  0
  4  3  1  0  0  0  0
  5  6  1  0  0  0  0
  6  1  2  0  0  0  0
  9  3  1  0  0  0  0
  9 11  1  0  0  0  0
  9 12  1  0  0  0  0
 10  9  1  0  0  0  0
 13  5  1  0  0  0  0
 14 13  2  0  0  0  0
 15 16  1  0  0  0  0
 15 13  1  0  0  0  0
M  END
>  <minimizedAffinity>
-4.30046415

>  <minimizedRMSD>
0.594280183

$$$$
