
 OpenBabel03242509303D

 16 16  0  0  0  0  0  0  0  0999 V2000
   38.2830   28.6070   43.3980 C   0  0  0  0  0  0  0  0  0  0  0  0
   38.2560   27.2140   43.1650 C   0  0  0  0  0  0  0  0  0  0  0  0
   37.4090   26.7510   42.1380 C   0  0  0  0  0  0  0  0  0  0  0  0
   36.6570   27.6670   41.4200 N   0  0  0  0  0  0  0  0  0  0  0  0
   36.7340   28.9810   41.6980 C   0  0  0  0  0  0  0  0  0  0  0  0
   37.5250   29.4450   42.6630 N   0  0  0  0  0  0  0  0  0  0  0  0
   38.9450   28.8880   44.1900 H   0  0  0  0  0  0  0  0  0  0  0  0
   38.8530   26.5160   43.7400 H   0  0  0  0  0  0  0  0  0  0  0  0
   37.3450   25.2960   41.8520 C   0  0  0  0  0  0  0  0  0  0  0  0
   37.0080   25.1740   40.5330 F   0  0  0  0  0  0  0  0  0  0  0  0
   38.5570   24.6780   42.0340 F   0  0  0  0  0  0  0  0  0  0  0  0
   36.3860   24.6630   42.6480 F   0  0  0  0  0  0  0  0  0  0  0  0
   35.9450   29.9540   40.9470 C   0  0  0  0  0  0  0  0  0  0  0  0
   36.2870   31.1390   40.7970 O   0  0  0  0  0  0  0  0  0  0  0  0
   34.7400   29.6500   40.3280 O   0  0  0  0  0  0  0  0  0  0  0  0
   33.8980   30.2330   40.4580 H   0  0  0  0  0  0  0  0  0  0  0  0
  1  7  1  0  0  0  0
  2  1  1  0  0  0  0
  2  8  1  0  0  0  0
  3  2  2  0  0  0  0
  4  5  2  0  0  0  0
  4  3  1  0  0  0  0
  5  6  1  0  0  0  0
  6  1  2  0  0  0  0
  9 11  1  0  0  0  0
  9  3  1  0  0  0  0
  9 12  1  0  0  0  0
 10  9  1  0  0  0  0
 13  5  1  0  0  0  0
 14 13  2  0  0  0  0
 15 16  1  0  0  0  0
 15 13  1  0  0  0  0
M  END
>  <minimizedAffinity>
-4.30793762

>  <minimizedRMSD>
0.585677862

$$$$
