
 OpenBabel03242508373D

 26 27  0  0  1  0  0  0  0  0999 V2000
   38.6750   26.9960   43.2700 C   0  0  2  0  0  0  0  0  0  0  0  0
   40.0620   27.3010   43.6340 C   0  0  0  0  0  0  0  0  0  0  0  0
   40.6970   25.9170   43.8460 C   0  0  0  0  0  0  0  0  0  0  0  0
   39.7230   24.9170   43.2890 C   0  0  0  0  0  0  0  0  0  0  0  0
   38.8220   25.7550   42.3880 C   0  0  2  0  0  0  0  0  0  0  0  0
   38.1160   26.6130   44.1600 H   0  0  0  0  0  0  0  0  0  0  0  0
   40.6310   27.9170   42.9450 H   0  0  0  0  0  0  0  0  0  0  0  0
   40.0720   27.8500   44.6150 H   0  0  0  0  0  0  0  0  0  0  0  0
   41.6890   25.8820   43.3400 H   0  0  0  0  0  0  0  0  0  0  0  0
   40.8670   25.7670   44.9470 H   0  0  0  0  0  0  0  0  0  0  0  0
   40.2160   24.1660   42.6330 H   0  0  0  0  0  0  0  0  0  0  0  0
   39.1640   24.3570   44.0370 H   0  0  0  0  0  0  0  0  0  0  0  0
   37.8460   25.2710   42.3470 H   0  0  0  0  0  0  0  0  0  0  0  0
   38.4450   29.3410   42.3090 C   0  0  0  0  0  0  0  0  0  0  0  0
   37.9330   28.0370   42.5570 C   0  0  0  0  0  0  0  0  0  0  0  0
   36.6500   27.7250   42.0900 C   0  0  0  0  0  0  0  0  0  0  0  0
   35.9660   28.6860   41.4240 N   0  0  0  0  0  0  0  0  0  0  0  0
   36.4680   29.9370   41.1900 C   0  0  0  0  0  0  0  0  0  0  0  0
   37.7240   30.2440   41.6470 N   0  0  0  0  0  0  0  0  0  0  0  0
   39.4420   29.4780   42.7100 H   0  0  0  0  0  0  0  0  0  0  0  0
   36.1870   26.7600   42.2370 H   0  0  0  0  0  0  0  0  0  0  0  0
   35.8820   30.6730   40.6520 H   0  0  0  0  0  0  0  0  0  0  0  0
   39.4390   26.0540   41.0900 C   0  0  0  0  0  0  0  0  0  0  0  0
   39.1200   26.8990   40.1990 O   0  0  0  0  0  0  0  0  0  0  0  0
   40.5580   25.2890   40.7850 O   0  0  0  0  0  0  0  0  0  0  0  0
   40.9180   25.1930   39.8240 H   0  0  0  0  0  0  0  0  0  0  0  0
  1  2  1  0  0  0  0
  1  6  1  1  0  0  0
  2  3  1  0  0  0  0
  2  8  1  0  0  0  0
  3 10  1  0  0  0  0
  4  3  1  0  0  0  0
  4 12  1  0  0  0  0
  5 13  1  6  0  0  0
  5  1  1  0  0  0  0
  5  4  1  0  0  0  0
  7  2  1  0  0  0  0
  9  3  1  0  0  0  0
 11  4  1  0  0  0  0
 14 15  1  0  0  0  0
 14 20  1  0  0  0  0
 15  1  1  0  0  0  0
 16 21  1  0  0  0  0
 16 15  2  0  0  0  0
 17 16  1  0  0  0  0
 18 17  2  0  0  0  0
 18 19  1  0  0  0  0
 19 14  2  0  0  0  0
 22 18  1  0  0  0  0
 23  5  1  0  0  0  0
 24 23  2  0  0  0  0
 25 23  1  0  0  0  0
 26 25  1  0  0  0  0
M  END
>  <minimizedAffinity>
-3.96512127

>  <minimizedRMSD>
0.335620731

$$$$
