
 OpenBabel03242509303D

 16 16  0  0  0  0  0  0  0  0999 V2000
   38.0960   28.8530   43.3630 C   0  0  0  0  0  0  0  0  0  0  0  0
   38.2010   27.4480   43.2730 C   0  0  0  0  0  0  0  0  0  0  0  0
   37.4450   26.8100   42.2680 C   0  0  0  0  0  0  0  0  0  0  0  0
   36.6510   27.5790   41.4330 N   0  0  0  0  0  0  0  0  0  0  0  0
   36.6010   28.9150   41.5770 C   0  0  0  0  0  0  0  0  0  0  0  0
   37.3050   29.5420   42.5190 N   0  0  0  0  0  0  0  0  0  0  0  0
   38.6950   29.2700   44.1460 H   0  0  0  0  0  0  0  0  0  0  0  0
   38.8290   26.8660   43.9390 H   0  0  0  0  0  0  0  0  0  0  0  0
   37.5200   25.3340   42.1310 C   0  0  0  0  0  0  0  0  0  0  0  0
   37.6410   25.0740   40.7940 F   0  0  0  0  0  0  0  0  0  0  0  0
   38.6220   24.8110   42.7610 F   0  0  0  0  0  0  0  0  0  0  0  0
   36.3710   24.7180   42.6330 F   0  0  0  0  0  0  0  0  0  0  0  0
   35.7680   29.7340   40.7010 C   0  0  0  0  0  0  0  0  0  0  0  0
   36.1380   30.8220   40.2280 O   0  0  0  0  0  0  0  0  0  0  0  0
   34.4820   29.3770   40.3140 O   0  0  0  0  0  0  0  0  0  0  0  0
   33.6900   30.0340   40.3880 H   0  0  0  0  0  0  0  0  0  0  0  0
  1  7  1  0  0  0  0
  2  1  1  0  0  0  0
  2  8  1  0  0  0  0
  3  2  2  0  0  0  0
  4  5  2  0  0  0  0
  4  3  1  0  0  0  0
  5  6  1  0  0  0  0
  6  1  2  0  0  0  0
  9  3  1  0  0  0  0
  9 12  1  0  0  0  0
  9 11  1  0  0  0  0
 10  9  1  0  0  0  0
 13  5  1  0  0  0  0
 14 13  2  0  0  0  0
 15 16  1  0  0  0  0
 15 13  1  0  0  0  0
M  END
>  <minimizedAffinity>
-4.31229115

>  <minimizedRMSD>
0.161944509

$$$$
