
 OpenBabel03242508423D

 30 32  0  0  1  0  0  0  0  0999 V2000
   37.9030   27.3430   42.7250 C   0  0  2  0  0  0  0  0  0  0  0  0
   38.9580   27.6410   43.6990 C   0  0  0  0  0  0  0  0  0  0  0  0
   39.7100   26.3360   43.8740 C   0  0  0  0  0  0  0  0  0  0  0  0
   39.2960   25.4580   42.7390 C   0  0  0  0  0  0  0  0  0  0  0  0
   38.5500   26.3670   41.7580 C   0  0  1  0  0  0  0  0  0  0  0  0
   37.0920   26.7350   43.2280 H   0  0  0  0  0  0  0  0  0  0  0  0
   39.7060   28.3700   43.3660 H   0  0  0  0  0  0  0  0  0  0  0  0
   38.5150   27.9300   44.6790 H   0  0  0  0  0  0  0  0  0  0  0  0
   40.8120   26.4630   43.8330 H   0  0  0  0  0  0  0  0  0  0  0  0
   39.5170   25.8740   44.8720 H   0  0  0  0  0  0  0  0  0  0  0  0
   38.6470   24.6770   43.1550 H   0  0  0  0  0  0  0  0  0  0  0  0
   40.1600   24.9820   42.2320 H   0  0  0  0  0  0  0  0  0  0  0  0
   39.2030   26.8590   41.0470 H   0  0  0  0  0  0  0  0  0  0  0  0
   37.9440   29.7570   41.9250 C   0  0  0  0  0  0  0  0  0  0  0  0
   37.3160   28.4850   42.0400 C   0  0  0  0  0  0  0  0  0  0  0  0
   36.0670   28.2920   41.4610 C   0  0  0  0  0  0  0  0  0  0  0  0
   35.4960   29.3610   40.7980 N   0  0  0  0  0  0  0  0  0  0  0  0
   36.1230   30.5760   40.7010 C   0  0  0  0  0  0  0  0  0  0  0  0
   37.3530   30.7580   41.2750 N   0  0  0  0  0  0  0  0  0  0  0  0
   38.9150   29.9010   42.3760 H   0  0  0  0  0  0  0  0  0  0  0  0
   35.5210   27.3660   41.4990 H   0  0  0  0  0  0  0  0  0  0  0  0
   35.5350   31.2930   40.1520 H   0  0  0  0  0  0  0  0  0  0  0  0
   37.5840   25.4140   41.1370 C   0  0  0  0  0  0  0  0  0  0  0  0
   36.8490   24.5500   41.8560 N   0  0  0  0  0  0  0  0  0  0  0  0
   36.1140   23.8660   41.0040 O   0  0  0  0  0  0  0  0  0  0  0  0
   36.3810   24.2890   39.7840 C   0  0  0  0  0  0  0  0  0  0  0  0
   37.2930   25.2550   39.8260 N   0  0  0  0  0  0  0  0  0  0  0  0
   35.7060   23.7040   38.6310 C   0  0  0  0  0  0  0  0  0  0  0  0
   35.8930   22.7310   38.2360 H   0  0  0  0  0  0  0  0  0  0  0  0
   34.8260   24.3730   38.0300 O   0  0  0  0  0  0  0  0  0  0  0  0
  1  6  1  1  0  0  0
  1  2  1  0  0  0  0
  2  3  1  0  0  0  0
  2  8  1  0  0  0  0
  3 10  1  0  0  0  0
  4 11  1  0  0  0  0
  4  3  1  0  0  0  0
  5 13  1  6  0  0  0
  5  1  1  0  0  0  0
  5  4  1  0  0  0  0
  7  2  1  0  0  0  0
  9  3  1  0  0  0  0
 12  4  1  0  0  0  0
 14 15  1  0  0  0  0
 14 20  1  0  0  0  0
 15  1  1  0  0  0  0
 16 21  1  0  0  0  0
 16 15  2  0  0  0  0
 17 16  1  0  0  0  0
 18 17  2  0  0  0  0
 18 19  1  0  0  0  0
 19 14  2  0  0  0  0
 22 18  1  0  0  0  0
 23  5  1  0  0  0  0
 23 24  2  0  0  0  0
 25 24  1  0  0  0  0
 26 27  2  0  0  0  0
 26 25  1  0  0  0  0
 27 23  1  0  0  0  0
 28 26  1  0  0  0  0
 29 28  1  0  0  0  0
 30 28  2  0  0  0  0
M  END
>  <minimizedAffinity>
-4.5549984

>  <minimizedRMSD>
0.571471393

$$$$
