
 OpenBabel03242509193D

 23 25  0  0  0  0  0  0  0  0999 V2000
   42.4010   27.5040   44.4700 C   0  0  0  0  0  0  0  0  0  0  0  0
   43.1560   28.6520   44.3910 C   0  0  0  0  0  0  0  0  0  0  0  0
   44.2560   28.4620   45.2120 C   0  0  0  0  0  0  0  0  0  0  0  0
   44.1100   27.2060   45.7450 N   0  0  0  0  0  0  0  0  0  0  0  0
   43.0230   26.6490   45.3100 N   0  0  0  0  0  0  0  0  0  0  0  0
   42.8900   29.5000   43.7910 H   0  0  0  0  0  0  0  0  0  0  0  0
   44.9940   29.2480   45.3020 H   0  0  0  0  0  0  0  0  0  0  0  0
   39.3430   27.9290   42.3900 C   0  0  0  0  0  0  0  0  0  0  0  0
   40.5510   28.2250   43.0400 C   0  0  0  0  0  0  0  0  0  0  0  0
   41.1600   27.2340   43.7900 C   0  0  0  0  0  0  0  0  0  0  0  0
   40.5710   26.0210   43.8680 N   0  0  0  0  0  0  0  0  0  0  0  0
   39.4010   25.7550   43.2300 C   0  0  0  0  0  0  0  0  0  0  0  0
   38.7890   26.7010   42.4950 N   0  0  0  0  0  0  0  0  0  0  0  0
   38.9540   28.7730   41.8320 H   0  0  0  0  0  0  0  0  0  0  0  0
   41.0240   29.1960   42.9800 H   0  0  0  0  0  0  0  0  0  0  0  0
   38.9190   24.7880   43.2830 H   0  0  0  0  0  0  0  0  0  0  0  0
   45.1390   26.7870   46.6320 C   0  0  0  0  0  0  0  0  0  0  0  0
   45.0530   27.0610   48.0010 C   0  0  0  0  0  0  0  0  0  0  0  0
   46.0710   26.6450   48.8630 C   0  0  0  0  0  0  0  0  0  0  0  0
   47.1520   25.9680   48.3570 C   0  0  0  0  0  0  0  0  0  0  0  0
   47.9650   25.6290   49.0040 H   0  0  0  0  0  0  0  0  0  0  0  0
   47.1770   25.7300   46.9960 C   0  0  0  0  0  0  0  0  0  0  0  0
   46.2070   26.1210   46.1400 N   0  0  0  0  0  0  0  0  0  0  0  0
  1  5  2  0  0  0  0
  2  1  1  0  0  0  0
  2  3  2  0  0  0  0
  3  7  1  0  0  0  0
  3  4  1  0  0  0  0
  4 17  1  0  0  0  0
  5  4  1  0  0  0  0
  6  2  1  0  0  0  0
  8 13  2  0  0  0  0
  8  9  1  0  0  0  0
  9 10  2  0  0  0  0
 10 11  1  0  0  0  0
 10  1  1  0  0  0  0
 12 16  1  0  0  0  0
 12 11  2  0  0  0  0
 13 12  1  0  0  0  0
 14  8  1  0  0  0  0
 15  9  1  0  0  0  0
 17 18  1  0  0  0  0
 18 19  2  0  0  0  0
 20 19  1  0  0  0  0
 20 21  1  0  0  0  0
 22 20  2  0  0  0  0
 23 17  2  0  0  0  0
 23 22  1  0  0  0  0
M  END
>  <minimizedAffinity>
-3.95736551

>  <minimizedRMSD>
4.34468651

$$$$
