
 OpenBabel03242507483D

 34 37  0  0  1  0  0  0  0  0999 V2000
   39.8650   26.1900   43.9030 C   0  0  2  0  0  0  0  0  0  0  0  0
   41.0150   25.7740   42.9760 C   0  0  0  0  0  0  0  0  0  0  0  0
   39.8080   24.9160   43.1120 C   0  0  2  0  0  0  0  0  0  0  0  0
   40.0210   26.0820   44.9880 H   0  0  0  0  0  0  0  0  0  0  0  0
   41.9540   25.4480   43.5030 H   0  0  0  0  0  0  0  0  0  0  0  0
   41.2050   26.3510   42.0570 H   0  0  0  0  0  0  0  0  0  0  0  0
   39.8530   23.9890   43.7280 H   0  0  0  0  0  0  0  0  0  0  0  0
   38.8170   24.7850   42.0110 C   0  0  0  0  0  0  0  0  0  0  0  0
   37.5700   24.2470   42.2810 C   0  0  0  0  0  0  0  0  0  0  0  0
   36.7600   24.1660   41.1760 C   0  0  0  0  0  0  0  0  0  0  0  0
   37.0460   24.5380   39.9200 N   0  0  0  0  0  0  0  0  0  0  0  0
   38.2870   25.0590   39.7190 C   0  0  0  0  0  0  0  0  0  0  0  0
   39.1390   25.1730   40.7520 N   0  0  0  0  0  0  0  0  0  0  0  0
   37.2540   23.9230   43.2490 H   0  0  0  0  0  0  0  0  0  0  0  0
   35.7510   23.7490   41.3060 H   0  0  0  0  0  0  0  0  0  0  0  0
   38.7880   25.5220   38.4320 C   0  0  0  0  0  0  0  0  0  0  0  0
   39.7630   25.3070   38.0210 H   0  0  0  0  0  0  0  0  0  0  0  0
   38.1400   26.2370   37.6290 O   0  0  0  0  0  0  0  0  0  0  0  0
   38.4390   29.1950   42.5660 C   0  0  0  0  0  0  0  0  0  0  0  0
   37.3840   28.7400   43.3700 C   0  0  0  0  0  0  0  0  0  0  0  0
   37.8310   27.5610   43.9460 C   0  0  0  0  0  0  0  0  0  0  0  0
   39.0790   27.3420   43.5010 N   0  0  0  0  0  0  0  0  0  0  0  0
   39.4490   28.3180   42.6730 N   0  0  0  0  0  0  0  0  0  0  0  0
   36.3910   29.1240   43.5840 H   0  0  0  0  0  0  0  0  0  0  0  0
   37.2680   26.9240   44.6380 H   0  0  0  0  0  0  0  0  0  0  0  0
   37.0180   31.8130   40.4320 C   0  0  0  0  0  0  0  0  0  0  0  0
   38.0520   32.7480   40.3490 C   0  0  0  0  0  0  0  0  0  0  0  0
   39.2520   32.4750   41.0360 C   0  0  0  0  0  0  0  0  0  0  0  0
   39.3490   31.3200   41.7450 N   0  0  0  0  0  0  0  0  0  0  0  0
   38.3150   30.4290   41.8010 C   0  0  0  0  0  0  0  0  0  0  0  0
   37.1380   30.6780   41.1390 N   0  0  0  0  0  0  0  0  0  0  0  0
   36.0950   31.9910   39.9220 H   0  0  0  0  0  0  0  0  0  0  0  0
   37.9600   33.6690   39.7780 H   0  0  0  0  0  0  0  0  0  0  0  0
   40.0730   33.1810   40.9920 H   0  0  0  0  0  0  0  0  0  0  0  0
  1  4  1  1  0  0  0
  2  3  1  0  0  0  0
  2  5  1  0  0  0  0
  2  1  1  0  0  0  0
  3  7  1  1  0  0  0
  3  1  1  0  0  0  0
  6  2  1  0  0  0  0
  8  9  1  0  0  0  0
  8  3  1  0  0  0  0
  9 14  1  0  0  0  0
 10 15  1  0  0  0  0
 10  9  2  0  0  0  0
 11 10  1  0  0  0  0
 12 11  2  0  0  0  0
 12 13  1  0  0  0  0
 13  8  2  0  0  0  0
 16 12  1  0  0  0  0
 17 16  1  0  0  0  0
 18 16  2  0  0  0  0
 19 23  2  0  0  0  0
 19 20  1  0  0  0  0
 20 24  1  0  0  0  0
 20 21  2  0  0  0  0
 21 25  1  0  0  0  0
 22  1  1  0  0  0  0
 22 21  1  0  0  0  0
 23 22  1  0  0  0  0
 26 31  1  0  0  0  0
 27 26  2  0  0  0  0
 27 28  1  0  0  0  0
 28 29  2  0  0  0  0
 29 30  1  0  0  0  0
 30 19  1  0  0  0  0
 31 30  2  0  0  0  0
 32 26  1  0  0  0  0
 33 27  1  0  0  0  0
 34 28  1  0  0  0  0
M  END
>  <minimizedAffinity>
-5.11190414

>  <minimizedRMSD>
0.0253447723

$$$$
