
 OpenBabel03242509303D

 15 15  0  0  0  0  0  0  0  0999 V2000
   38.1390   28.7830   43.4270 C   0  0  0  0  0  0  0  0  0  0  0  0
   38.2130   27.3770   43.3150 C   0  0  0  0  0  0  0  0  0  0  0  0
   37.4670   26.7710   42.2990 C   0  0  0  0  0  0  0  0  0  0  0  0
   36.7160   27.5680   41.4780 N   0  0  0  0  0  0  0  0  0  0  0  0
   36.6700   28.9070   41.6150 C   0  0  0  0  0  0  0  0  0  0  0  0
   37.3750   29.4980   42.5810 N   0  0  0  0  0  0  0  0  0  0  0  0
   38.7360   29.1550   44.2260 H   0  0  0  0  0  0  0  0  0  0  0  0
   38.8180   26.7670   43.9810 H   0  0  0  0  0  0  0  0  0  0  0  0
   37.5150   25.2860   42.1420 C   0  0  0  0  0  0  0  0  0  0  0  0
   37.6100   25.0550   40.7860 F   0  0  0  0  0  0  0  0  0  0  0  0
   38.6130   24.7420   42.7500 F   0  0  0  0  0  0  0  0  0  0  0  0
   36.3610   24.6830   42.6320 F   0  0  0  0  0  0  0  0  0  0  0  0
   35.8310   29.6470   40.6770 C   0  0  0  0  0  0  0  0  0  0  0  0
   35.0980   29.1730   40.0400 H   0  0  0  0  0  0  0  0  0  0  0  0
   35.9740   30.8950   40.6130 O   0  0  0  0  0  0  0  0  0  0  0  0
  1  7  1  0  0  0  0
  2  1  1  0  0  0  0
  2  8  1  0  0  0  0
  3  2  2  0  0  0  0
  4  5  2  0  0  0  0
  4  3  1  0  0  0  0
  5  6  1  0  0  0  0
  6  1  2  0  0  0  0
  9  3  1  0  0  0  0
  9 12  1  0  0  0  0
  9 11  1  0  0  0  0
 10  9  1  0  0  0  0
 13  5  1  0  0  0  0
 14 13  1  0  0  0  0
 15 13  2  0  0  0  0
M  END
>  <minimizedAffinity>
-3.78804111

>  <minimizedRMSD>
0.284299016

$$$$
