
 OpenBabel03242507433D

 46 50  0  0  0  0  0  0  0  0999 V2000
   40.0420   27.8020   43.3260 C   0  0  0  0  0  0  0  0  0  0  0  0
   39.3180   26.5820   43.4080 C   0  0  0  0  0  0  0  0  0  0  0  0
   38.2340   26.4370   42.5400 C   0  0  0  0  0  0  0  0  0  0  0  0
   37.9410   27.4360   41.6930 N   0  0  0  0  0  0  0  0  0  0  0  0
   38.6390   28.5800   41.6340 C   0  0  0  0  0  0  0  0  0  0  0  0
   39.6840   28.7650   42.4430 N   0  0  0  0  0  0  0  0  0  0  0  0
   37.4470   25.2930   42.5220 N   0  0  0  0  0  0  0  0  0  0  0  0
   38.3400   29.6450   40.7390 N   0  0  0  0  0  0  0  0  0  0  0  0
   37.3830   29.4040   39.8210 C   0  0  0  0  0  0  0  0  0  0  0  0
   36.9510   30.3130   38.8560 C   0  0  0  0  0  0  0  0  0  0  0  0
   37.5670   31.5350   38.8690 C   0  0  0  0  0  0  0  0  0  0  0  0
   37.2430   32.4150   38.0370 O   0  0  0  0  0  0  0  0  0  0  0  0
   38.5210   31.7600   39.7910 N   0  0  0  0  0  0  0  0  0  0  0  0
   38.9130   30.8600   40.7080 C   0  0  0  0  0  0  0  0  0  0  0  0
   39.7930   31.0500   41.5680 O   0  0  0  0  0  0  0  0  0  0  0  0
   40.8900   27.9470   43.9860 H   0  0  0  0  0  0  0  0  0  0  0  0
   39.5860   25.8010   44.1050 H   0  0  0  0  0  0  0  0  0  0  0  0
   37.5150   24.6620   41.6730 H   0  0  0  0  0  0  0  0  0  0  0  0
   36.8540   25.1830   43.3870 H   0  0  0  0  0  0  0  0  0  0  0  0
   36.8790   28.4330   39.7950 H   0  0  0  0  0  0  0  0  0  0  0  0
   39.1970   33.0090   39.8550 C   0  0  0  0  0  0  0  0  0  0  0  0
   38.6310   34.0270   40.6170 C   0  0  0  0  0  0  0  0  0  0  0  0
   39.2750   35.2410   40.6870 C   0  0  0  0  0  0  0  0  0  0  0  0
   40.4590   35.3910   39.9960 C   0  0  0  0  0  0  0  0  0  0  0  0
   41.0170   34.3990   39.2500 C   0  0  0  0  0  0  0  0  0  0  0  0
   40.3840   33.1610   39.1620 C   0  0  0  0  0  0  0  0  0  0  0  0
   37.6940   33.8180   41.1280 H   0  0  0  0  0  0  0  0  0  0  0  0
   38.7660   35.9740   41.2990 H   0  0  0  0  0  0  0  0  0  0  0  0
   40.9050   36.3810   40.1030 H   0  0  0  0  0  0  0  0  0  0  0  0
   41.9420   34.6080   38.7480 H   0  0  0  0  0  0  0  0  0  0  0  0
   40.8200   32.3640   38.5720 H   0  0  0  0  0  0  0  0  0  0  0  0
   35.8950   29.9470   37.8920 C   0  0  0  0  0  0  0  0  0  0  0  0
   35.5820   30.8880   37.3530 H   0  0  0  0  0  0  0  0  0  0  0  0
   34.9860   29.6820   38.4860 H   0  0  0  0  0  0  0  0  0  0  0  0
   36.2730   28.9080   36.9770 N   0  0  0  0  0  0  0  0  0  0  0  0
   37.2110   29.0460   36.0230 C   0  0  0  0  0  0  0  0  0  0  0  0
   37.3270   27.8930   35.3370 N   0  0  0  0  0  0  0  0  0  0  0  0
   36.4740   26.9760   35.8220 C   0  0  0  0  0  0  0  0  0  0  0  0
   36.1800   25.6620   35.5040 C   0  0  0  0  0  0  0  0  0  0  0  0
   35.2370   25.0240   36.2220 N   0  0  0  0  0  0  0  0  0  0  0  0
   34.6110   25.6760   37.2200 C   0  0  0  0  0  0  0  0  0  0  0  0
   34.8870   26.9700   37.5470 N   0  0  0  0  0  0  0  0  0  0  0  0
   35.8210   27.6470   36.8570 C   0  0  0  0  0  0  0  0  0  0  0  0
   36.9420   25.1290   34.4160 N   0  0  0  0  0  0  0  0  0  0  0  0
   37.7340   24.5060   34.6450 H   0  0  0  0  0  0  0  0  0  0  0  0
   36.8920   25.2200   33.3670 H   0  0  0  0  0  0  0  0  0  0  0  0
  1  2  1  0  0  0  0
  1 16  1  0  0  0  0
  2 17  1  0  0  0  0
  3  2  2  0  0  0  0
  4  3  1  0  0  0  0
  5  4  2  0  0  0  0
  5  6  1  0  0  0  0
  6  1  2  0  0  0  0
  7  3  1  0  0  0  0
  7 19  1  0  0  0  0
  8  5  1  0  0  0  0
  9  8  1  0  0  0  0
 10 11  1  0  0  0  0
 10  9  2  0  0  0  0
 11 13  1  0  0  0  0
 12 11  2  0  0  0  0
 13 21  1  0  0  0  0
 13 14  1  0  0  0  0
 14  8  1  0  0  0  0
 14 15  2  0  0  0  0
 18  7  1  0  0  0  0
 20  9  1  0  0  0  0
 21 22  1  0  0  0  0
 22 23  2  0  0  0  0
 22 27  1  0  0  0  0
 23 28  1  0  0  0  0
 24 29  1  0  0  0  0
 24 23  1  0  0  0  0
 25 24  2  0  0  0  0
 26 25  1  0  0  0  0
 26 21  2  0  0  0  0
 30 25  1  0  0  0  0
 31 26  1  0  0  0  0
 32 34  1  0  0  0  0
 32 10  1  0  0  0  0
 33 32  1  0  0  0  0
 35 32  1  0  0  0  0
 36 35  1  0  0  0  0
 37 38  1  0  0  0  0
 37 36  2  0  0  0  0
 38 43  1  0  0  0  0
 39 38  2  0  0  0  0
 39 40  1  0  0  0  0
 40 41  2  0  0  0  0
 41 42  1  0  0  0  0
 43 35  1  0  0  0  0
 43 42  2  0  0  0  0
 44 45  1  0  0  0  0
 44 39  1  0  0  0  0
 46 44  1  0  0  0  0
M  END
>  <minimizedAffinity>
-6.5964756

>  <minimizedRMSD>
3.37448573

$$$$
