
 OpenBabel03242509293D

 15 15  0  0  0  0  0  0  0  0999 V2000
   38.1410   28.7830   43.4260 C   0  0  0  0  0  0  0  0  0  0  0  0
   38.2140   27.3770   43.3140 C   0  0  0  0  0  0  0  0  0  0  0  0
   37.4680   26.7710   42.2990 C   0  0  0  0  0  0  0  0  0  0  0  0
   36.7160   27.5680   41.4780 N   0  0  0  0  0  0  0  0  0  0  0  0
   36.6700   28.9070   41.6150 C   0  0  0  0  0  0  0  0  0  0  0  0
   37.3770   29.4980   42.5810 N   0  0  0  0  0  0  0  0  0  0  0  0
   38.7390   29.1550   44.2250 H   0  0  0  0  0  0  0  0  0  0  0  0
   38.8200   26.7660   43.9790 H   0  0  0  0  0  0  0  0  0  0  0  0
   37.5150   25.2860   42.1410 C   0  0  0  0  0  0  0  0  0  0  0  0
   37.6090   25.0550   40.7860 F   0  0  0  0  0  0  0  0  0  0  0  0
   38.6130   24.7420   42.7490 F   0  0  0  0  0  0  0  0  0  0  0  0
   36.3610   24.6830   42.6320 F   0  0  0  0  0  0  0  0  0  0  0  0
   35.8310   29.6470   40.6790 C   0  0  0  0  0  0  0  0  0  0  0  0
   35.0960   29.1730   40.0440 H   0  0  0  0  0  0  0  0  0  0  0  0
   35.9740   30.8950   40.6130 O   0  0  0  0  0  0  0  0  0  0  0  0
  1  7  1  0  0  0  0
  2  1  1  0  0  0  0
  2  8  1  0  0  0  0
  3  2  2  0  0  0  0
  4  5  2  0  0  0  0
  4  3  1  0  0  0  0
  5  6  1  0  0  0  0
  6  1  2  0  0  0  0
  9  3  1  0  0  0  0
  9 12  1  0  0  0  0
  9 11  1  0  0  0  0
 10  9  1  0  0  0  0
 13  5  1  0  0  0  0
 14 13  1  0  0  0  0
 15 13  2  0  0  0  0
M  END
>  <minimizedAffinity>
-3.78807831

>  <minimizedRMSD>
0.354660064

$$$$
