
 OpenBabel03242508233D

 16 17  0  0  1  0  0  0  0  0999 V2000
   38.3330   29.2100   43.1350 C   0  0  0  0  0  0  0  0  0  0  0  0
   37.9510   27.8790   43.3840 C   0  0  0  0  0  0  0  0  0  0  0  0
   36.8620   27.3740   42.6600 C   0  0  0  0  0  0  0  0  0  0  0  0
   36.2390   28.1890   41.7650 N   0  0  0  0  0  0  0  0  0  0  0  0
   36.6460   29.4560   41.5640 C   0  0  0  0  0  0  0  0  0  0  0  0
   37.6830   29.9740   42.2390 N   0  0  0  0  0  0  0  0  0  0  0  0
   39.1640   29.7020   43.6420 H   0  0  0  0  0  0  0  0  0  0  0  0
   38.5300   27.3650   44.1120 H   0  0  0  0  0  0  0  0  0  0  0  0
   36.5850   26.3630   42.8610 H   0  0  0  0  0  0  0  0  0  0  0  0
   35.8360   30.0520   40.6020 O   0  0  0  0  0  0  0  0  0  0  0  0
   37.5140   31.9870   41.2840 H   0  0  0  0  0  0  0  0  0  0  0  0
   36.8080   32.2250   40.5770 N   0  0  0  0  0  0  0  0  0  0  0  0
   37.4220   33.0140   39.5110 C   0  0  0  0  0  0  0  0  0  0  0  0
   38.3250   31.9810   38.8510 C   0  0  0  0  0  0  0  0  0  0  0  0
   37.5570   30.6890   39.0220 C   0  0  0  0  0  0  0  0  0  0  0  0
   36.3370   31.0880   39.7960 C   0  0  1  0  0  0  0  0  0  0  0  0
  1  2  1  0  0  0  0
  1  7  1  0  0  0  0
  2  8  1  0  0  0  0
  3  9  1  0  0  0  0
  3  2  2  0  0  0  0
  4  3  1  0  0  0  0
  5  4  2  0  0  0  0
  5  6  1  0  0  0  0
  6  1  2  0  0  0  0
 10  5  1  0  0  0  0
 12 11  1  0  0  0  0
 13 12  1  0  0  0  0
 14 15  1  0  0  0  0
 14 13  1  0  0  0  0
 15 16  1  0  0  0  0
 16 12  1  0  0  0  0
 16 10  1  1  0  0  0
M  END
>  <minimizedAffinity>
-4.00513172

>  <minimizedRMSD>
0.650604308

$$$$
