
 OpenBabel03242508133D

 42 45  0  0  1  0  0  0  0  0999 V2000
   38.7850   35.5170   40.1360 C   0  0  0  0  0  0  0  0  0  0  0  0
   40.1350   35.8850   40.2750 C   0  0  0  0  0  0  0  0  0  0  0  0
   41.0500   34.8330   40.5080 C   0  0  0  0  0  0  0  0  0  0  0  0
   40.5350   33.6200   40.5700 N   0  0  0  0  0  0  0  0  0  0  0  0
   39.2920   33.2290   40.4470 C   0  0  0  0  0  0  0  0  0  0  0  0
   38.4410   34.2350   40.2270 N   0  0  0  0  0  0  0  0  0  0  0  0
   38.0920   36.3280   39.9580 H   0  0  0  0  0  0  0  0  0  0  0  0
   40.4350   36.9040   40.2060 H   0  0  0  0  0  0  0  0  0  0  0  0
   38.6280   31.9400   40.5010 C   0  0  0  0  0  0  0  0  0  0  0  0
   38.4960   31.2150   41.6320 N   0  0  0  0  0  0  0  0  0  0  0  0
   37.8960   30.0370   41.7190 C   0  0  0  0  0  0  0  0  0  0  0  0
   37.3630   29.4690   40.6550 N   0  0  0  0  0  0  0  0  0  0  0  0
   37.4260   30.0930   39.4570 C   0  0  0  0  0  0  0  0  0  0  0  0
   36.8690   29.5060   38.3340 C   0  0  0  0  0  0  0  0  0  0  0  0
   36.9200   30.1120   37.1220 C   0  0  0  0  0  0  0  0  0  0  0  0
   37.5590   31.3680   37.0270 C   0  0  0  0  0  0  0  0  0  0  0  0
   38.0910   31.8940   38.1830 C   0  0  0  0  0  0  0  0  0  0  0  0
   38.0590   31.3160   39.4090 C   0  0  0  0  0  0  0  0  0  0  0  0
   37.7960   29.4670   42.6330 H   0  0  0  0  0  0  0  0  0  0  0  0
   36.3870   28.5380   38.4530 H   0  0  0  0  0  0  0  0  0  0  0  0
   36.4930   29.6840   36.2170 H   0  0  0  0  0  0  0  0  0  0  0  0
   37.6210   31.8840   36.0820 H   0  0  0  0  0  0  0  0  0  0  0  0
   38.5800   32.8690   38.0790 H   0  0  0  0  0  0  0  0  0  0  0  0
   42.3360   35.0730   40.6570 O   0  0  0  0  0  0  0  0  0  0  0  0
   43.0730   34.9020   41.8500 C   0  0  2  0  0  0  0  0  0  0  0  0
   42.5860   34.1400   42.4860 H   0  0  0  0  0  0  0  0  0  0  0  0
   42.8890   36.2770   42.6090 C   0  0  0  0  0  0  0  0  0  0  0  0
   42.9060   36.0310   43.6810 H   0  0  0  0  0  0  0  0  0  0  0  0
   41.9110   36.6960   42.3620 H   0  0  0  0  0  0  0  0  0  0  0  0
   43.7580   36.9260   42.3720 H   0  0  0  0  0  0  0  0  0  0  0  0
   44.5200   34.6910   41.6030 C   0  0  0  0  0  0  0  0  0  0  0  0
   44.7010   34.0020   40.7640 H   0  0  0  0  0  0  0  0  0  0  0  0
   44.9550   35.6950   41.3740 H   0  0  0  0  0  0  0  0  0  0  0  0
   45.1050   34.2000   42.8460 N   0  0  0  0  0  0  0  0  0  0  0  0
   46.2460   34.6860   43.4050 C   0  0  0  0  0  0  0  0  0  0  0  0
   46.5150   34.0230   44.5450 N   0  0  0  0  0  0  0  0  0  0  0  0
   45.5130   33.1050   44.6910 C   0  0  0  0  0  0  0  0  0  0  0  0
   44.6700   33.2390   43.6400 N   0  0  0  0  0  0  0  0  0  0  0  0
   46.8380   35.4920   42.9750 H   0  0  0  0  0  0  0  0  0  0  0  0
   45.3030   32.1110   45.7630 C   0  0  0  0  0  0  0  0  0  0  0  0
   45.9400   31.2350   45.6950 H   0  0  0  0  0  0  0  0  0  0  0  0
   44.4610   32.2480   46.6860 O   0  0  0  0  0  0  0  0  0  0  0  0
  1  6  2  0  0  0  0
  1  2  1  0  0  0  0
  2  3  2  0  0  0  0
  3  4  1  0  0  0  0
  3 24  1  0  0  0  0
  5  9  1  0  0  0  0
  5  4  2  0  0  0  0
  6  5  1  0  0  0  0
  7  1  1  0  0  0  0
  8  2  1  0  0  0  0
  9 10  1  0  0  0  0
 10 11  2  0  0  0  0
 11 19  1  0  0  0  0
 12 11  1  0  0  0  0
 13 12  2  0  0  0  0
 14 20  1  0  0  0  0
 14 13  1  0  0  0  0
 15 14  2  0  0  0  0
 16 15  1  0  0  0  0
 16 17  2  0  0  0  0
 17 18  1  0  0  0  0
 18 13  1  0  0  0  0
 18  9  2  0  0  0  0
 21 15  1  0  0  0  0
 22 16  1  0  0  0  0
 23 17  1  0  0  0  0
 24 25  1  0  0  0  0
 25 26  1  1  0  0  0
 25 27  1  0  0  0  0
 27 28  1  0  0  0  0
 29 27  1  0  0  0  0
 30 27  1  0  0  0  0
 31 25  1  0  0  0  0
 31 34  1  0  0  0  0
 32 31  1  0  0  0  0
 33 31  1  0  0  0  0
 34 35  1  0  0  0  0
 34 38  1  0  0  0  0
 35 36  2  0  0  0  0
 36 37  1  0  0  0  0
 37 40  1  0  0  0  0
 38 37  2  0  0  0  0
 39 35  1  0  0  0  0
 40 42  2  0  0  0  0
 41 40  1  0  0  0  0
M  END
>  <minimizedAffinity>
-5.99565458

>  <minimizedRMSD>
0.0124536548

$$$$
