
 OpenBabel03242508353D

 32 34  0  0  0  0  0  0  0  0999 V2000
   37.7940   28.1100   43.1620 C   0  0  0  0  0  0  0  0  0  0  0  0
   37.6730   26.8940   42.4240 C   0  0  0  0  0  0  0  0  0  0  0  0
   36.9760   26.9180   41.2340 C   0  0  0  0  0  0  0  0  0  0  0  0
   36.4490   28.0930   40.8370 N   0  0  0  0  0  0  0  0  0  0  0  0
   36.5600   29.2200   41.5180 C   0  0  0  0  0  0  0  0  0  0  0  0
   37.2330   29.2450   42.6900 N   0  0  0  0  0  0  0  0  0  0  0  0
   38.2950   28.2770   44.0980 H   0  0  0  0  0  0  0  0  0  0  0  0
   38.2090   26.1620   43.0130 H   0  0  0  0  0  0  0  0  0  0  0  0
   36.9260   25.6210   40.5980 C   0  0  0  0  0  0  0  0  0  0  0  0
   35.9510   25.5760   40.0280 H   0  0  0  0  0  0  0  0  0  0  0  0
   37.6900   25.4900   39.7790 H   0  0  0  0  0  0  0  0  0  0  0  0
   37.0000   24.4480   41.4800 C   0  0  0  0  0  0  0  0  0  0  0  0
   37.4330   24.5550   42.4730 H   0  0  0  0  0  0  0  0  0  0  0  0
   35.9610   24.0270   41.6740 H   0  0  0  0  0  0  0  0  0  0  0  0
   37.8870   23.0580   40.6870 S   0  0  0  0  0  0  0  0  0  0  0  0
   38.9210   22.5640   41.5000 H   0  0  0  0  0  0  0  0  0  0  0  0
   35.9310   30.2550   40.8820 O   0  0  0  0  0  0  0  0  0  0  0  0
   36.7040   31.2200   40.2150 C   0  0  0  0  0  0  0  0  0  0  0  0
   36.8180   31.4960   38.8680 N   0  0  0  0  0  0  0  0  0  0  0  0
   37.6610   32.4890   38.7240 O   0  0  0  0  0  0  0  0  0  0  0  0
   38.0720   32.8370   39.9120 C   0  0  0  0  0  0  0  0  0  0  0  0
   37.5030   32.0780   40.8490 N   0  0  0  0  0  0  0  0  0  0  0  0
   39.0230   33.9110   40.1630 C   0  0  0  0  0  0  0  0  0  0  0  0
   38.8080   35.2710   40.0960 C   0  0  0  0  0  0  0  0  0  0  0  0
   39.9540   35.9580   40.4020 C   0  0  0  0  0  0  0  0  0  0  0  0
   40.8740   34.9520   40.6570 C   0  0  0  0  0  0  0  0  0  0  0  0
   40.2940   33.8190   40.5070 O   0  0  0  0  0  0  0  0  0  0  0  0
   37.8590   35.7590   39.8360 H   0  0  0  0  0  0  0  0  0  0  0  0
   40.0600   37.0390   40.4250 H   0  0  0  0  0  0  0  0  0  0  0  0
   42.2670   35.2000   41.0340 C   0  0  0  0  0  0  0  0  0  0  0  0
   43.0640   34.7300   40.4390 H   0  0  0  0  0  0  0  0  0  0  0  0
   42.5630   35.9280   42.0060 O   0  0  0  0  0  0  0  0  0  0  0  0
  1  7  1  0  0  0  0
  2  8  1  0  0  0  0
  2  1  2  0  0  0  0
  3  2  1  0  0  0  0
  4  3  2  0  0  0  0
  4  5  1  0  0  0  0
  5  6  2  0  0  0  0
  6  1  1  0  0  0  0
  9  3  1  0  0  0  0
  9 12  1  0  0  0  0
 10  9  1  0  0  0  0
 11  9  1  0  0  0  0
 12 14  1  0  0  0  0
 12 13  1  0  0  0  0
 15 12  1  0  0  0  0
 15 16  1  0  0  0  0
 17  5  1  0  0  0  0
 18 22  1  0  0  0  0
 18 17  1  0  0  0  0
 19 18  2  0  0  0  0
 20 19  1  0  0  0  0
 20 21  1  0  0  0  0
 21 23  1  0  0  0  0
 21 22  2  0  0  0  0
 23 27  1  0  0  0  0
 24 23  2  0  0  0  0
 24 25  1  0  0  0  0
 25 29  1  0  0  0  0
 25 26  2  0  0  0  0
 26 30  1  0  0  0  0
 27 26  1  0  0  0  0
 28 24  1  0  0  0  0
 30 32  2  0  0  0  0
 31 30  1  0  0  0  0
M  END
>  <minimizedAffinity>
-5.40303516

>  <minimizedRMSD>
0.71322304

$$$$
