
 OpenBabel03242509303D

 15 15  0  0  0  0  0  0  0  0999 V2000
   38.0030   28.8900   43.3360 C   0  0  0  0  0  0  0  0  0  0  0  0
   38.1280   27.4860   43.2690 C   0  0  0  0  0  0  0  0  0  0  0  0
   37.4260   26.8230   42.2580 C   0  0  0  0  0  0  0  0  0  0  0  0
   36.6640   27.5660   41.3970 N   0  0  0  0  0  0  0  0  0  0  0  0
   36.5680   28.9060   41.4910 C   0  0  0  0  0  0  0  0  0  0  0  0
   37.2330   29.5520   42.4520 N   0  0  0  0  0  0  0  0  0  0  0  0
   38.5690   29.3080   44.1340 H   0  0  0  0  0  0  0  0  0  0  0  0
   38.7410   26.9180   43.9650 H   0  0  0  0  0  0  0  0  0  0  0  0
   37.5290   25.3360   42.1480 C   0  0  0  0  0  0  0  0  0  0  0  0
   37.6590   25.0670   40.8030 F   0  0  0  0  0  0  0  0  0  0  0  0
   38.6330   24.8500   42.7940 F   0  0  0  0  0  0  0  0  0  0  0  0
   36.3870   24.7070   42.6350 F   0  0  0  0  0  0  0  0  0  0  0  0
   35.7240   29.5870   40.5150 C   0  0  0  0  0  0  0  0  0  0  0  0
   35.0250   30.3660   40.7810 H   0  0  0  0  0  0  0  0  0  0  0  0
   35.8200   29.2450   39.3080 O   0  0  0  0  0  0  0  0  0  0  0  0
  1  7  1  0  0  0  0
  2  1  1  0  0  0  0
  2  8  1  0  0  0  0
  3  2  2  0  0  0  0
  4  5  2  0  0  0  0
  4  3  1  0  0  0  0
  5  6  1  0  0  0  0
  6  1  2  0  0  0  0
  9  3  1  0  0  0  0
  9 12  1  0  0  0  0
  9 11  1  0  0  0  0
 10  9  1  0  0  0  0
 13 14  1  0  0  0  0
 13  5  1  0  0  0  0
 15 13  2  0  0  0  0
M  END
>  <minimizedAffinity>
-3.61863708

>  <minimizedRMSD>
0.105086803

$$$$
