
 OpenBabel03242508053D

 36 38  0  0  1  0  0  0  0  0999 V2000
   37.8250   30.1500   40.5440 C   0  0  0  0  0  0  0  0  0  0  0  0
   38.3680   29.7050   41.7470 C   0  0  0  0  0  0  0  0  0  0  0  0
   39.2970   30.5550   42.3990 C   0  0  0  0  0  0  0  0  0  0  0  0
   39.6130   31.7450   41.8320 N   0  0  0  0  0  0  0  0  0  0  0  0
   39.0570   32.1380   40.6530 C   0  0  0  0  0  0  0  0  0  0  0  0
   38.1620   31.3420   40.0080 N   0  0  0  0  0  0  0  0  0  0  0  0
   36.8780   29.5130   39.7200 N   0  0  0  0  0  0  0  0  0  0  0  0
   36.0150   28.3510   39.7310 C   0  0  0  0  0  0  0  0  0  0  0  0
   35.0410   28.5140   38.6260 C   0  0  0  0  0  0  0  0  0  0  0  0
   35.6640   29.4670   37.6610 C   0  0  0  0  0  0  0  0  0  0  0  0
   36.6480   30.2270   38.4550 C   0  0  0  0  0  0  0  0  0  0  0  0
   39.7120   30.1980   43.3330 H   0  0  0  0  0  0  0  0  0  0  0  0
   39.3830   33.1120   40.2910 H   0  0  0  0  0  0  0  0  0  0  0  0
   36.5430   27.4030   39.7450 H   0  0  0  0  0  0  0  0  0  0  0  0
   35.3910   28.5540   40.6560 H   0  0  0  0  0  0  0  0  0  0  0  0
   34.9350   27.5310   38.0830 H   0  0  0  0  0  0  0  0  0  0  0  0
   34.0230   28.8130   38.8960 H   0  0  0  0  0  0  0  0  0  0  0  0
   34.8730   30.1580   37.2930 H   0  0  0  0  0  0  0  0  0  0  0  0
   36.0710   28.9790   36.7560 H   0  0  0  0  0  0  0  0  0  0  0  0
   36.3050   31.2750   38.6560 H   0  0  0  0  0  0  0  0  0  0  0  0
   37.6190   30.2400   37.8820 H   0  0  0  0  0  0  0  0  0  0  0  0
   38.0470   28.4940   42.3240 N   0  0  0  0  0  0  0  0  0  0  0  0
   38.8170   27.2540   42.2770 C   0  0  0  0  0  0  0  0  0  0  0  0
   37.7980   26.1640   42.3540 C   0  0  0  0  0  0  0  0  0  0  0  0
   36.4970   26.8410   42.5920 C   0  0  0  0  0  0  0  0  0  0  0  0
   36.8740   28.1830   43.1070 C   0  0  1  0  0  0  0  0  0  0  0  0
   39.4360   27.2800   43.2030 H   0  0  0  0  0  0  0  0  0  0  0  0
   39.4600   27.1930   41.3960 H   0  0  0  0  0  0  0  0  0  0  0  0
   37.7840   25.5160   41.4290 H   0  0  0  0  0  0  0  0  0  0  0  0
   38.1130   25.4520   43.1530 H   0  0  0  0  0  0  0  0  0  0  0  0
   35.7230   26.7570   41.8500 H   0  0  0  0  0  0  0  0  0  0  0  0
   36.0580   26.3110   43.4890 H   0  0  0  0  0  0  0  0  0  0  0  0
   36.0650   28.9400   43.0080 H   0  0  0  0  0  0  0  0  0  0  0  0
   37.3320   28.0610   44.5190 C   0  0  0  0  0  0  0  0  0  0  0  0
   38.3800   27.8970   44.8160 H   0  0  0  0  0  0  0  0  0  0  0  0
   36.4990   28.1480   45.4010 O   0  0  0  0  0  0  0  0  0  0  0  0
  1  2  1  0  0  0  0
  2 22  1  0  0  0  0
  2  3  2  0  0  0  0
  3 12  1  0  0  0  0
  4  3  1  0  0  0  0
  5  4  2  0  0  0  0
  6  1  2  0  0  0  0
  6  5  1  0  0  0  0
  7  8  1  0  0  0  0
  7  1  1  0  0  0  0
  8 14  1  0  0  0  0
  8 15  1  0  0  0  0
  9 17  1  0  0  0  0
  9  8  1  0  0  0  0
 10 11  1  0  0  0  0
 10  9  1  0  0  0  0
 11 20  1  0  0  0  0
 11  7  1  0  0  0  0
 13  5  1  0  0  0  0
 16  9  1  0  0  0  0
 18 10  1  0  0  0  0
 19 10  1  0  0  0  0
 21 11  1  0  0  0  0
 22 26  1  0  0  0  0
 23 22  1  0  0  0  0
 23 24  1  0  0  0  0
 23 27  1  0  0  0  0
 24 25  1  0  0  0  0
 24 30  1  0  0  0  0
 25 26  1  0  0  0  0
 25 32  1  0  0  0  0
 26 33  1  6  0  0  0
 26 34  1  0  0  0  0
 28 23  1  0  0  0  0
 29 24  1  0  0  0  0
 31 25  1  0  0  0  0
 34 35  1  0  0  0  0
 34 36  2  0  0  0  0
M  END
>  <minimizedAffinity>
-4.65630674

>  <minimizedRMSD>
0.638535082

$$$$
