
 OpenBabel03242509293D

 15 15  0  0  0  0  0  0  0  0999 V2000
   38.0100   28.8830   43.3570 C   0  0  0  0  0  0  0  0  0  0  0  0
   38.1230   27.4780   43.2830 C   0  0  0  0  0  0  0  0  0  0  0  0
   37.4270   26.8280   42.2590 C   0  0  0  0  0  0  0  0  0  0  0  0
   36.6830   27.5850   41.3940 N   0  0  0  0  0  0  0  0  0  0  0  0
   36.5990   28.9250   41.4960 C   0  0  0  0  0  0  0  0  0  0  0  0
   37.2580   29.5580   42.4690 N   0  0  0  0  0  0  0  0  0  0  0  0
   38.5710   29.2900   44.1650 H   0  0  0  0  0  0  0  0  0  0  0  0
   38.7210   26.8990   43.9830 H   0  0  0  0  0  0  0  0  0  0  0  0
   37.5160   25.3410   42.1400 C   0  0  0  0  0  0  0  0  0  0  0  0
   37.6340   25.0780   40.7930 F   0  0  0  0  0  0  0  0  0  0  0  0
   38.6210   24.8430   42.7750 F   0  0  0  0  0  0  0  0  0  0  0  0
   36.3740   24.7190   42.6330 F   0  0  0  0  0  0  0  0  0  0  0  0
   35.7740   29.6200   40.5130 C   0  0  0  0  0  0  0  0  0  0  0  0
   36.0750   30.5410   40.0350 H   0  0  0  0  0  0  0  0  0  0  0  0
   34.6590   29.1170   40.2130 O   0  0  0  0  0  0  0  0  0  0  0  0
  1  7  1  0  0  0  0
  2  1  1  0  0  0  0
  2  8  1  0  0  0  0
  3  2  2  0  0  0  0
  4  5  2  0  0  0  0
  4  3  1  0  0  0  0
  5  6  1  0  0  0  0
  6  1  2  0  0  0  0
  9  3  1  0  0  0  0
  9 12  1  0  0  0  0
  9 11  1  0  0  0  0
 10  9  1  0  0  0  0
 13  5  1  0  0  0  0
 14 13  1  0  0  0  0
 15 13  2  0  0  0  0
M  END
>  <minimizedAffinity>
-3.79294229

>  <minimizedRMSD>
0.0751982331

$$$$
