
 OpenBabel03242508283D

 25 27  0  0  0  0  0  0  0  0999 V2000
   37.0080   31.2680   40.6220 C   0  0  0  0  0  0  0  0  0  0  0  0
   36.7800   31.4720   39.3040 N   0  0  0  0  0  0  0  0  0  0  0  0
   37.5220   32.4690   38.8980 O   0  0  0  0  0  0  0  0  0  0  0  0
   38.2120   32.8970   39.9290 C   0  0  0  0  0  0  0  0  0  0  0  0
   37.9180   32.1770   41.0060 N   0  0  0  0  0  0  0  0  0  0  0  0
   39.1590   34.0030   39.8750 C   0  0  0  0  0  0  0  0  0  0  0  0
   38.9130   35.3210   40.2500 C   0  0  0  0  0  0  0  0  0  0  0  0
   40.0600   36.0630   40.0500 C   0  0  0  0  0  0  0  0  0  0  0  0
   40.9820   35.1500   39.5510 C   0  0  0  0  0  0  0  0  0  0  0  0
   40.3990   33.9990   39.4780 O   0  0  0  0  0  0  0  0  0  0  0  0
   37.9930   35.7470   40.6390 H   0  0  0  0  0  0  0  0  0  0  0  0
   40.2920   37.1100   40.2120 H   0  0  0  0  0  0  0  0  0  0  0  0
   42.0230   35.2700   39.2460 H   0  0  0  0  0  0  0  0  0  0  0  0
   36.4600   30.3300   41.4960 O   0  0  0  0  0  0  0  0  0  0  0  0
   38.9540   28.3550   43.2560 C   0  0  0  0  0  0  0  0  0  0  0  0
   38.5810   27.0770   42.7900 C   0  0  0  0  0  0  0  0  0  0  0  0
   37.4790   26.9830   41.8900 C   0  0  0  0  0  0  0  0  0  0  0  0
   36.8700   28.1650   41.5490 N   0  0  0  0  0  0  0  0  0  0  0  0
   37.2640   29.3370   42.0180 C   0  0  0  0  0  0  0  0  0  0  0  0
   38.2910   29.4340   42.8580 N   0  0  0  0  0  0  0  0  0  0  0  0
   39.7860   28.4610   43.9390 H   0  0  0  0  0  0  0  0  0  0  0  0
   39.1070   26.1850   43.1020 H   0  0  0  0  0  0  0  0  0  0  0  0
   37.0570   25.6700   41.3800 C   0  0  0  0  0  0  0  0  0  0  0  0
   37.0050   25.6110   40.3020 H   0  0  0  0  0  0  0  0  0  0  0  0
   36.8050   24.7710   42.2210 O   0  0  0  0  0  0  0  0  0  0  0  0
  1  5  1  0  0  0  0
  1 14  1  0  0  0  0
  2  1  2  0  0  0  0
  3  2  1  0  0  0  0
  3  4  1  0  0  0  0
  4  5  2  0  0  0  0
  6  4  1  0  0  0  0
  6  7  2  0  0  0  0
  7 11  1  0  0  0  0
  8 12  1  0  0  0  0
  8  7  1  0  0  0  0
  9  8  2  0  0  0  0
 10  9  1  0  0  0  0
 10  6  1  0  0  0  0
 13  9  1  0  0  0  0
 14 19  1  0  0  0  0
 15 21  1  0  0  0  0
 16 22  1  0  0  0  0
 16 15  2  0  0  0  0
 17 16  1  0  0  0  0
 18 17  2  0  0  0  0
 18 19  1  0  0  0  0
 19 20  2  0  0  0  0
 20 15  1  0  0  0  0
 23 17  1  0  0  0  0
 23 25  2  0  0  0  0
 24 23  1  0  0  0  0
M  END
>  <minimizedAffinity>
-5.17487431

>  <minimizedRMSD>
0.521070242

$$$$
