
     RDKit          3D

 50 55  0  0  0  0  0  0  0  0999 V2000
   38.8270   23.5650   36.0990 C   0  0  0  0  0  0  0  0  0  0  0  0
   40.2430   23.6760   36.0350 C   0  0  0  0  0  0  0  0  0  0  0  0
   40.7560   24.7110   35.2980 C   0  0  0  0  0  0  0  0  0  0  0  0
   39.8580   25.5170   34.7090 N   0  0  0  0  0  0  0  0  0  0  0  0
   38.5620   25.4370   34.7530 C   0  0  0  0  0  0  0  0  0  0  0  0
   38.0380   24.4300   35.4700 N   0  0  0  0  0  0  0  0  0  0  0  0
   37.8590   26.4240   34.0450 N   0  0  0  0  0  0  0  0  0  0  0  0
   37.1210   27.3230   34.7530 C   0  0  0  0  0  0  0  0  0  0  0  0
   36.5200   28.1950   33.8720 C   0  0  0  0  0  0  0  0  0  0  0  0
   36.8940   27.8210   32.6580 N   0  0  0  0  0  0  0  0  0  0  0  0
   37.7270   26.7190   32.7500 C   0  0  0  0  0  0  0  0  0  0  0  0
   38.2890   26.0410   31.6310 C   0  0  0  0  0  0  0  0  0  0  0  0
   38.7780   26.7320   30.5030 C   0  0  0  0  0  0  0  0  0  0  0  0
   39.2330   25.8220   29.5790 N   0  0  0  0  0  0  0  0  0  0  0  0
   39.0190   24.5630   30.1490 C   0  0  0  0  0  0  0  0  0  0  0  0
   38.4750   24.7760   31.3340 N   0  0  0  0  0  0  0  0  0  0  0  0
   38.3590   23.4870   31.8630 C   0  0  0  0  0  0  0  0  0  0  0  0
   39.4810   23.0910   32.4720 N   0  0  0  0  0  0  0  0  0  0  0  0
   39.5590   21.8370   32.9870 C   0  0  0  0  0  0  0  0  0  0  0  0
   38.5680   20.9470   32.9270 N   0  0  0  0  0  0  0  0  0  0  0  0
   37.4170   21.3040   32.3230 C   0  0  0  0  0  0  0  0  0  0  0  0
   36.3250   20.4900   32.1910 C   0  0  0  0  0  0  0  0  0  0  0  0
   35.1860   20.9040   31.5660 C   0  0  0  0  0  0  0  0  0  0  0  0
   35.1250   22.1940   31.0430 C   0  0  0  0  0  0  0  0  0  0  0  0
   36.1890   23.0540   31.1460 C   0  0  0  0  0  0  0  0  0  0  0  0
   37.3080   22.5900   31.7830 C   0  0  0  0  0  0  0  0  0  0  0  0
   35.6550   29.2930   34.2040 N   0  0  0  0  0  0  0  0  0  0  0  0
   35.9980   30.1840   35.1530 C   0  0  0  0  0  0  0  0  0  0  0  0
   35.1210   31.2210   35.4270 C   0  0  0  0  0  0  0  0  0  0  0  0
   33.9140   31.3480   34.7440 C   0  0  0  0  0  0  0  0  0  0  0  0
   33.1000   32.2990   34.9870 O   0  0  0  0  0  0  0  0  0  0  0  0
   33.6120   30.4400   33.8050 N   0  0  0  0  0  0  0  0  0  0  0  0
   34.4870   29.4220   33.5480 C   0  0  0  0  0  0  0  0  0  0  0  0
   34.0980   28.6280   32.6450 O   0  0  0  0  0  0  0  0  0  0  0  0
   38.2500   22.4970   36.8790 N   0  0  0  0  0  0  0  0  0  0  0  0
   40.8985   22.9617   36.5548 H   0  0  0  0  0  0  0  0  0  0  0  0
   41.8393   24.8720   35.1950 H   0  0  0  0  0  0  0  0  0  0  0  0
   37.0211   27.3487   35.8482 H   0  0  0  0  0  0  0  0  0  0  0  0
   38.7929   27.8252   30.3820 H   0  0  0  0  0  0  0  0  0  0  0  0
   39.2567   23.5876   29.6994 H   0  0  0  0  0  0  0  0  0  0  0  0
   40.4944   21.5379   33.4826 H   0  0  0  0  0  0  0  0  0  0  0  0
   36.3673   19.4704   32.6017 H   0  0  0  0  0  0  0  0  0  0  0  0
   34.3241   20.2265   31.4756 H   0  0  0  0  0  0  0  0  0  0  0  0
   34.2069   22.5291   30.5382 H   0  0  0  0  0  0  0  0  0  0  0  0
   36.1446   24.0730   30.7342 H   0  0  0  0  0  0  0  0  0  0  0  0
   36.9497   30.0912   35.6967 H   0  0  0  0  0  0  0  0  0  0  0  0
   35.3833   31.9588   36.1995 H   0  0  0  0  0  0  0  0  0  0  0  0
   32.7277   30.5090   33.2815 H   0  0  0  0  0  0  0  0  0  0  0  0
   37.2265   22.3980   36.9391 H   0  0  0  0  0  0  0  0  0  0  0  0
   38.8616   21.8336   37.3757 H   0  0  0  0  0  0  0  0  0  0  0  0
  1 35  1  0
  2  1  2  0
  3  2  1  0
  4  5  1  0
  4  3  2  0
  5  6  2  0
  6  1  1  0
  7  8  1  0
  7  5  1  0
  9 27  1  0
  9  8  2  0
 10 11  2  0
 10  9  1  0
 11  7  1  0
 12 11  1  0
 13 12  2  0
 14 15  2  0
 14 13  1  0
 15 16  1  0
 16 12  1  0
 16 17  1  0
 17 18  2  0
 18 19  1  0
 20 19  2  0
 21 20  1  0
 22 21  2  0
 23 22  1  0
 24 25  1  0
 24 23  2  0
 25 26  2  0
 26 17  1  0
 26 21  1  0
 27 28  1  0
 28 29  2  0
 30 31  2  0
 30 29  1  0
 32 30  1  0
 33 32  1  0
 33 27  1  0
 34 33  2  0
  2 36  1  0
  3 37  1  0
  8 38  1  0
 13 39  1  0
 15 40  1  0
 19 41  1  0
 22 42  1  0
 23 43  1  0
 24 44  1  0
 25 45  1  0
 28 46  1  0
 29 47  1  0
 32 48  1  0
 35 49  1  0
 35 50  1  0
M  END
>  <Score>  (1) 
-7.07378

$$$$
