
     RDKit          3D

 40 44  0  0  0  0  0  0  0  0999 V2000
   39.9620   23.0330   37.3300 C   0  0  0  0  0  0  0  0  0  0  0  0
   39.1400   23.1690   38.4850 C   0  0  0  0  0  0  0  0  0  0  0  0
   37.8840   23.7570   38.2870 C   0  0  0  0  0  0  0  0  0  0  0  0
   37.5010   24.1640   37.0470 N   0  0  0  0  0  0  0  0  0  0  0  0
   38.3280   24.0110   35.9680 C   0  0  0  0  0  0  0  0  0  0  0  0
   39.5390   23.4510   36.1210 N   0  0  0  0  0  0  0  0  0  0  0  0
   37.9550   24.4240   34.6760 N   0  0  0  0  0  0  0  0  0  0  0  0
   38.0740   23.5770   33.6190 C   0  0  0  0  0  0  0  0  0  0  0  0
   37.6400   24.2450   32.5080 N   0  0  0  0  0  0  0  0  0  0  0  0
   37.2590   25.4770   32.8490 C   0  0  0  0  0  0  0  0  0  0  0  0
   36.7410   26.6200   32.2370 C   0  0  0  0  0  0  0  0  0  0  0  0
   36.5570   26.5280   30.9920 O   0  0  0  0  0  0  0  0  0  0  0  0
   36.4720   27.7290   32.9660 N   0  0  0  0  0  0  0  0  0  0  0  0
   36.6820   27.7800   34.2780 C   0  0  0  0  0  0  0  0  0  0  0  0
   36.3390   29.0300   34.8770 N   0  0  0  0  0  0  0  0  0  0  0  0
   37.1830   26.6890   34.9060 N   0  0  0  0  0  0  0  0  0  0  0  0
   37.4560   25.5900   34.2130 C   0  0  0  0  0  0  0  0  0  0  0  0
   35.9310   28.9090   32.2920 C   0  0  0  0  0  0  0  0  0  0  0  0
   36.7380   29.7560   31.5160 C   0  0  0  0  0  0  0  0  0  0  0  0
   35.5550   31.0400   30.9280 S   0  0  0  0  0  0  0  0  0  0  0  0
   34.1430   30.2000   31.8480 C   0  0  0  0  0  0  0  0  0  0  0  0
   34.6650   29.3050   32.3320 N   0  0  0  0  0  0  0  0  0  0  0  0
   32.7230   30.5530   31.9550 N   0  0  0  0  0  0  0  0  0  0  0  0
   32.3600   31.5970   31.2030 C   0  0  0  0  0  0  0  0  0  0  0  0
   31.0140   31.9210   31.3120 C   0  0  0  0  0  0  0  0  0  0  0  0
   30.1630   31.1960   32.1410 C   0  0  0  0  0  0  0  0  0  0  0  0
   28.9430   31.4210   32.2960 O   0  0  0  0  0  0  0  0  0  0  0  0
   30.6400   30.1510   32.8630 N   0  0  0  0  0  0  0  0  0  0  0  0
   31.9520   29.8350   32.7560 C   0  0  0  0  0  0  0  0  0  0  0  0
   32.4690   28.8710   33.3990 O   0  0  0  0  0  0  0  0  0  0  0  0
   40.9593   22.5790   37.4266 H   0  0  0  0  0  0  0  0  0  0  0  0
   39.4729   22.8311   39.4775 H   0  0  0  0  0  0  0  0  0  0  0  0
   37.2028   23.8905   39.1403 H   0  0  0  0  0  0  0  0  0  0  0  0
   38.4504   22.5439   33.6518 H   0  0  0  0  0  0  0  0  0  0  0  0
   36.4659   29.1678   35.8898 H   0  0  0  0  0  0  0  0  0  0  0  0
   35.9647   29.7939   34.2963 H   0  0  0  0  0  0  0  0  0  0  0  0
   37.8152   29.6731   31.3092 H   0  0  0  0  0  0  0  0  0  0  0  0
   33.0613   32.1475   30.5587 H   0  0  0  0  0  0  0  0  0  0  0  0
   30.6132   32.7659   30.7327 H   0  0  0  0  0  0  0  0  0  0  0  0
   30.0172   29.6097   33.4794 H   0  0  0  0  0  0  0  0  0  0  0  0
  1  2  2  0
  3  2  1  0
  4  3  2  0
  5  6  2  0
  5  4  1  0
  6  1  1  0
  7  5  1  0
  8  7  1  0
  9 10  1  0
  9  8  2  0
 10 17  2  0
 11 10  1  0
 11 13  1  0
 12 11  2  0
 13 14  1  0
 14 15  1  0
 14 16  2  0
 17  7  1  0
 17 16  1  0
 18 22  1  0
 18 13  1  0
 19 18  2  0
 20 19  1  0
 20 21  1  0
 21 23  1  0
 21 22  2  0
 23 29  1  0
 24 25  2  0
 24 23  1  0
 25 26  1  0
 26 27  2  0
 26 28  1  0
 29 28  1  0
 29 30  2  0
  1 31  1  0
  2 32  1  0
  3 33  1  0
  8 34  1  0
 15 35  1  0
 15 36  1  0
 19 37  1  0
 24 38  1  0
 25 39  1  0
 28 40  1  0
M  END
>  <Score>  (1) 
-7.07826

$$$$
