
     RDKit          3D

 48 53  0  0  0  0  0  0  0  0999 V2000
   37.1620   24.6020   31.6820 C   0  0  0  0  0  0  0  0  0  0  0  0
   36.5860   25.8580   31.8160 C   0  0  0  0  0  0  0  0  0  0  0  0
   36.9550   26.5540   32.9560 C   0  0  0  0  0  0  0  0  0  0  0  0
   37.8080   25.9830   33.8090 N   0  0  0  0  0  0  0  0  0  0  0  0
   38.3610   24.8000   33.6990 C   0  0  0  0  0  0  0  0  0  0  0  0
   38.0020   24.1440   32.6080 N   0  0  0  0  0  0  0  0  0  0  0  0
   39.2900   24.0610   34.5330 C   0  0  0  0  0  0  0  0  0  0  0  0
   40.4530   23.5180   34.0240 C   0  0  0  0  0  0  0  0  0  0  0  0
   41.3660   22.8070   34.7760 C   0  0  0  0  0  0  0  0  0  0  0  0
   41.1410   22.6060   36.1190 C   0  0  0  0  0  0  0  0  0  0  0  0
   40.0040   23.1220   36.6720 C   0  0  0  0  0  0  0  0  0  0  0  0
   39.7810   22.9180   38.0220 C   0  0  0  0  0  0  0  0  0  0  0  0
   38.6810   23.3970   38.6400 C   0  0  0  0  0  0  0  0  0  0  0  0
   37.7760   24.1100   37.8620 C   0  0  0  0  0  0  0  0  0  0  0  0
   38.0310   24.2920   36.5260 C   0  0  0  0  0  0  0  0  0  0  0  0
   39.1190   23.8280   35.8780 C   0  0  0  0  0  0  0  0  0  0  0  0
   36.4540   27.8450   33.2330 N   0  0  0  0  0  0  0  0  0  0  0  0
   36.2690   28.8350   32.3590 C   0  0  0  0  0  0  0  0  0  0  0  0
   35.7810   29.9140   32.9770 N   0  0  0  0  0  0  0  0  0  0  0  0
   35.6510   29.6090   34.2780 C   0  0  0  0  0  0  0  0  0  0  0  0
   36.0700   28.3500   34.3830 N   0  0  0  0  0  0  0  0  0  0  0  0
   35.1350   30.6280   35.1660 C   0  0  0  0  0  0  0  0  0  0  0  0
   35.9220   31.6600   35.6280 C   0  0  0  0  0  0  0  0  0  0  0  0
   35.4680   32.6530   36.4770 C   0  0  0  0  0  0  0  0  0  0  0  0
   34.1630   32.6530   36.9120 C   0  0  0  0  0  0  0  0  0  0  0  0
   33.3420   31.6540   36.4830 C   0  0  0  0  0  0  0  0  0  0  0  0
   32.0440   31.6620   36.9200 C   0  0  0  0  0  0  0  0  0  0  0  0
   31.1600   30.6960   36.5350 C   0  0  0  0  0  0  0  0  0  0  0  0
   31.6400   29.7100   35.6820 C   0  0  0  0  0  0  0  0  0  0  0  0
   32.9370   29.7310   35.2660 C   0  0  0  0  0  0  0  0  0  0  0  0
   33.8500   30.6920   35.6380 C   0  0  0  0  0  0  0  0  0  0  0  0
   36.9230   23.9815   30.8057 H   0  0  0  0  0  0  0  0  0  0  0  0
   35.8883   26.2702   31.0722 H   0  0  0  0  0  0  0  0  0  0  0  0
   40.6647   23.6608   32.9540 H   0  0  0  0  0  0  0  0  0  0  0  0
   42.2724   22.4014   34.3027 H   0  0  0  0  0  0  0  0  0  0  0  0
   41.8600   22.0431   36.7323 H   0  0  0  0  0  0  0  0  0  0  0  0
   40.5197   22.3505   38.6071 H   0  0  0  0  0  0  0  0  0  0  0  0
   38.5079   23.2304   39.7134 H   0  0  0  0  0  0  0  0  0  0  0  0
   36.8629   24.5249   38.3137 H   0  0  0  0  0  0  0  0  0  0  0  0
   37.2928   24.8588   35.9397 H   0  0  0  0  0  0  0  0  0  0  0  0
   36.4871   28.7721   31.2827 H   0  0  0  0  0  0  0  0  0  0  0  0
   36.9722   31.6964   35.3029 H   0  0  0  0  0  0  0  0  0  0  0  0
   36.1543   33.4471   36.8062 H   0  0  0  0  0  0  0  0  0  0  0  0
   33.7925   33.4380   37.5876 H   0  0  0  0  0  0  0  0  0  0  0  0
   31.7073   32.4629   37.5947 H   0  0  0  0  0  0  0  0  0  0  0  0
   30.1167   30.6980   36.8836 H   0  0  0  0  0  0  0  0  0  0  0  0
   30.9690   28.9079   35.3407 H   0  0  0  0  0  0  0  0  0  0  0  0
   33.2757   28.9309   34.5914 H   0  0  0  0  0  0  0  0  0  0  0  0
  1  2  2  0
  1  6  1  0
  2  3  1  0
  3 17  1  0
  3  4  2  0
  5  4  1  0
  5  7  1  0
  6  5  2  0
  7 16  1  0
  8  7  2  0
  8  9  1  0
  9 10  2  0
 10 11  1  0
 11 12  2  0
 12 13  1  0
 14 13  2  0
 15 14  1  0
 16 15  2  0
 16 11  1  0
 17 21  1  0
 18 19  2  0
 18 17  1  0
 19 20  1  0
 20 21  2  0
 20 22  1  0
 22 23  2  0
 22 31  1  0
 23 24  1  0
 24 25  2  0
 26 25  1  0
 26 27  2  0
 28 27  1  0
 29 28  2  0
 30 31  2  0
 30 29  1  0
 31 26  1  0
  1 32  1  0
  2 33  1  0
  8 34  1  0
  9 35  1  0
 10 36  1  0
 12 37  1  0
 13 38  1  0
 14 39  1  0
 15 40  1  0
 18 41  1  0
 23 42  1  0
 24 43  1  0
 25 44  1  0
 27 45  1  0
 28 46  1  0
 29 47  1  0
 30 48  1  0
M  END
>  <Score>  (1) 
-8.12018

$$$$
