
     RDKit          3D

 57 61  0  0  1  0  0  0  0  0999 V2000
   38.8070   23.1620   37.4750 C   0  0  0  0  0  0  0  0  0  0  0  0
   38.3340   24.1570   36.5620 C   0  0  0  0  0  0  0  0  0  0  0  0
   39.1710   24.6320   35.5740 C   0  0  0  0  0  0  0  0  0  0  0  0
   40.4470   24.1120   35.5180 N   0  0  0  0  0  0  0  0  0  0  0  0
   40.8460   23.1860   36.3890 C   0  0  0  0  0  0  0  0  0  0  0  0
   40.0600   22.7100   37.3510 N   0  0  0  0  0  0  0  0  0  0  0  0
   38.6840   25.6790   34.6230 C   0  0  0  0  0  0  0  0  0  0  0  0
   37.8110   25.1590   33.5650 C   0  0  0  0  0  0  0  0  0  0  0  0
   36.9670   25.8990   32.8040 C   0  0  0  0  0  0  0  0  0  0  0  0
   36.1560   25.3820   31.8130 C   0  0  0  0  0  0  0  0  0  0  0  0
   36.2140   24.0580   31.5970 N   0  0  0  0  0  0  0  0  0  0  0  0
   37.0320   23.2840   32.3230 C   0  0  0  0  0  0  0  0  0  0  0  0
   37.8120   23.8150   33.2820 N   0  0  0  0  0  0  0  0  0  0  0  0
   37.1890   21.8620   32.1920 N   0  0  0  0  0  0  0  0  0  0  0  0
   38.4130   21.5100   31.6480 C   0  0  0  0  0  0  0  0  0  0  0  0
   38.7250   20.1760   31.4550 C   0  0  0  0  0  0  0  0  0  0  0  0
   37.7970   19.2410   31.8130 C   0  0  0  0  0  0  0  0  0  0  0  0
   38.1130   17.8820   31.6140 N   0  0  0  0  0  0  0  0  0  0  0  0
   36.6220   19.6110   32.3380 N   0  0  0  0  0  0  0  0  0  0  0  0
   36.3290   20.8930   32.5220 C   0  0  0  0  0  0  0  0  0  0  0  0
   35.2690   21.3700   33.0000 O   0  0  0  0  0  0  0  0  0  0  0  0
   42.2620   22.7090   36.2140 C   0  0  1  0  0  0  0  0  0  0  0  0
   42.1860   21.3680   35.4910 C   0  0  0  0  0  0  0  0  0  0  0  0
   43.0940   23.6530   35.4480 C   0  0  0  0  0  0  0  0  0  0  0  0
   44.5100   23.5220   35.8800 C   0  0  0  0  0  0  0  0  0  0  0  0
   45.3720   22.5980   35.2790 C   0  0  0  0  0  0  0  0  0  0  0  0
   46.6810   22.4410   35.6820 C   0  0  0  0  0  0  0  0  0  0  0  0
   47.1960   23.2170   36.7260 C   0  0  0  0  0  0  0  0  0  0  0  0
   46.3600   24.1330   37.3290 C   0  0  0  0  0  0  0  0  0  0  0  0
   46.8780   24.9110   38.3630 C   0  0  0  0  0  0  0  0  0  0  0  0
   46.0730   25.8560   38.9950 C   0  0  0  0  0  0  0  0  0  0  0  0
   44.7590   26.0160   38.5890 C   0  0  0  0  0  0  0  0  0  0  0  0
   44.2910   25.2110   37.5510 C   0  0  0  0  0  0  0  0  0  0  0  0
   45.0550   24.2750   36.9110 C   0  0  0  0  0  0  0  0  0  0  0  0
   38.1499   22.7743   38.2674 H   0  0  0  0  0  0  0  0  0  0  0  0
   37.3070   24.5416   36.6477 H   0  0  0  0  0  0  0  0  0  0  0  0
   38.1239   26.4333   35.1950 H   0  0  0  0  0  0  0  0  0  0  0  0
   39.5717   26.0992   34.1277 H   0  0  0  0  0  0  0  0  0  0  0  0
   36.9257   26.9827   32.9883 H   0  0  0  0  0  0  0  0  0  0  0  0
   35.4892   26.0290   31.2241 H   0  0  0  0  0  0  0  0  0  0  0  0
   39.1365   22.2904   31.3696 H   0  0  0  0  0  0  0  0  0  0  0  0
   39.6927   19.8775   31.0256 H   0  0  0  0  0  0  0  0  0  0  0  0
   37.4343   17.1521   31.8737 H   0  0  0  0  0  0  0  0  0  0  0  0
   39.0226   17.6188   31.2089 H   0  0  0  0  0  0  0  0  0  0  0  0
   42.7410   22.6205   37.2003 H   0  0  0  0  0  0  0  0  0  0  0  0
   42.1399   20.5549   36.2304 H   0  0  0  0  0  0  0  0  0  0  0  0
   41.2849   21.3419   34.8606 H   0  0  0  0  0  0  0  0  0  0  0  0
   43.0783   21.2402   34.8606 H   0  0  0  0  0  0  0  0  0  0  0  0
   42.7474   24.6807   35.6315 H   0  0  0  0  0  0  0  0  0  0  0  0
   43.0139   23.4274   34.3744 H   0  0  0  0  0  0  0  0  0  0  0  0
   44.9918   21.9750   34.4560 H   0  0  0  0  0  0  0  0  0  0  0  0
   47.3234   21.7023   35.1805 H   0  0  0  0  0  0  0  0  0  0  0  0
   48.2386   23.0997   37.0566 H   0  0  0  0  0  0  0  0  0  0  0  0
   47.9230   24.7787   38.6801 H   0  0  0  0  0  0  0  0  0  0  0  0
   46.4787   26.4713   39.8116 H   0  0  0  0  0  0  0  0  0  0  0  0
   44.1036   26.7563   39.0710 H   0  0  0  0  0  0  0  0  0  0  0  0
   43.2468   25.3363   37.2284 H   0  0  0  0  0  0  0  0  0  0  0  0
  2  1  2  0
  3  2  1  0
  4  3  2  0
  4  5  1  0
  5  6  2  0
  6  1  1  0
  7  3  1  0
  8  7  1  0
  9  8  2  0
 10  9  1  0
 11 10  2  0
 11 12  1  0
 12 13  2  0
 13  8  1  0
 14 12  1  0
 14 20  1  0
 15 14  1  0
 16 15  2  0
 16 17  1  0
 17 19  2  0
 18 17  1  0
 19 20  1  0
 20 21  2  0
 22  5  1  0
 23 22  1  0
 24 25  1  0
 24 22  1  0
 25 34  2  0
 26 27  2  0
 26 25  1  0
 27 28  1  0
 28 29  2  0
 29 30  1  0
 30 31  2  0
 32 31  1  0
 33 32  2  0
 34 29  1  0
 34 33  1  0
  1 35  1  0
  2 36  1  0
  7 37  1  0
  7 38  1  0
  9 39  1  0
 10 40  1  0
 15 41  1  0
 16 42  1  0
 18 43  1  0
 18 44  1  0
 22 45  1  1
 23 46  1  0
 23 47  1  0
 23 48  1  0
 24 49  1  0
 24 50  1  0
 26 51  1  0
 27 52  1  0
 28 53  1  0
 30 54  1  0
 31 55  1  0
 32 56  1  0
 33 57  1  0
M  END
>  <Score>  (1) 
-7.19675

$$$$
