
     RDKit          3D

 46 51  0  0  0  0  0  0  0  0999 V2000
   40.1180   22.9350   37.1880 C   0  0  0  0  0  0  0  0  0  0  0  0
   39.3570   23.0630   38.3660 C   0  0  0  0  0  0  0  0  0  0  0  0
   38.0880   23.6480   38.2270 C   0  0  0  0  0  0  0  0  0  0  0  0
   37.6500   24.0570   37.0070 N   0  0  0  0  0  0  0  0  0  0  0  0
   38.4180   23.9110   35.9080 C   0  0  0  0  0  0  0  0  0  0  0  0
   39.6420   23.3530   36.0050 N   0  0  0  0  0  0  0  0  0  0  0  0
   38.0140   24.3190   34.6080 N   0  0  0  0  0  0  0  0  0  0  0  0
   38.1100   23.4900   33.5560 C   0  0  0  0  0  0  0  0  0  0  0  0
   37.6470   24.1680   32.4650 N   0  0  0  0  0  0  0  0  0  0  0  0
   37.2680   25.3960   32.8280 C   0  0  0  0  0  0  0  0  0  0  0  0
   36.7330   26.5430   32.2360 C   0  0  0  0  0  0  0  0  0  0  0  0
   36.5200   26.4540   30.9940 O   0  0  0  0  0  0  0  0  0  0  0  0
   36.4730   27.6530   32.9840 N   0  0  0  0  0  0  0  0  0  0  0  0
   36.7170   27.6830   34.2830 C   0  0  0  0  0  0  0  0  0  0  0  0
   36.3810   28.9290   34.8970 N   0  0  0  0  0  0  0  0  0  0  0  0
   37.2350   26.5940   34.8920 N   0  0  0  0  0  0  0  0  0  0  0  0
   37.4980   25.5020   34.1930 C   0  0  0  0  0  0  0  0  0  0  0  0
   35.9130   28.8310   32.3230 C   0  0  0  0  0  0  0  0  0  0  0  0
   36.6870   29.6930   31.5450 C   0  0  0  0  0  0  0  0  0  0  0  0
   35.4470   30.9450   31.0020 S   0  0  0  0  0  0  0  0  0  0  0  0
   34.0670   30.0730   31.9360 C   0  0  0  0  0  0  0  0  0  0  0  0
   34.6680   29.2290   32.3610 N   0  0  0  0  0  0  0  0  0  0  0  0
   32.7620   30.7260   31.8150 C   0  0  0  0  0  0  0  0  0  0  0  0
   32.4390   31.6380   30.8380 C   0  0  0  0  0  0  0  0  0  0  0  0
   31.1970   32.2470   30.7380 C   0  0  0  0  0  0  0  0  0  0  0  0
   30.2460   31.9080   31.6770 C   0  0  0  0  0  0  0  0  0  0  0  0
   30.5070   31.0130   32.6660 C   0  0  0  0  0  0  0  0  0  0  0  0
   29.5180   30.7140   33.5740 C   0  0  0  0  0  0  0  0  0  0  0  0
   29.7900   29.7950   34.5870 C   0  0  0  0  0  0  0  0  0  0  0  0
   31.0630   29.2260   34.6190 C   0  0  0  0  0  0  0  0  0  0  0  0
   32.0330   29.5460   33.6940 C   0  0  0  0  0  0  0  0  0  0  0  0
   31.7590   30.4450   32.7090 C   0  0  0  0  0  0  0  0  0  0  0  0
   41.1202   22.4845   37.2385 H   0  0  0  0  0  0  0  0  0  0  0  0
   39.7358   22.7234   39.3413 H   0  0  0  0  0  0  0  0  0  0  0  0
   37.4449   23.7760   39.1102 H   0  0  0  0  0  0  0  0  0  0  0  0
   38.4904   22.4580   33.5705 H   0  0  0  0  0  0  0  0  0  0  0  0
   36.5305   29.0621   35.9074 H   0  0  0  0  0  0  0  0  0  0  0  0
   35.9893   29.6939   34.3292 H   0  0  0  0  0  0  0  0  0  0  0  0
   37.7613   29.6393   31.3147 H   0  0  0  0  0  0  0  0  0  0  0  0
   33.2074   31.8987   30.0954 H   0  0  0  0  0  0  0  0  0  0  0  0
   30.9790   32.9725   29.9404 H   0  0  0  0  0  0  0  0  0  0  0  0
   29.2508   32.3737   31.6244 H   0  0  0  0  0  0  0  0  0  0  0  0
   28.5296   31.1915   33.5023 H   0  0  0  0  0  0  0  0  0  0  0  0
   29.0279   29.5284   35.3341 H   0  0  0  0  0  0  0  0  0  0  0  0
   31.3005   28.4979   35.4086 H   0  0  0  0  0  0  0  0  0  0  0  0
   33.0260   29.0763   33.7513 H   0  0  0  0  0  0  0  0  0  0  0  0
  1  2  2  0
  3  2  1  0
  4  3  2  0
  5  6  2  0
  5  4  1  0
  6  1  1  0
  7  5  1  0
  8  7  1  0
  9 10  1  0
  9  8  2  0
 10 17  2  0
 11 10  1  0
 11 13  1  0
 12 11  2  0
 13 14  1  0
 14 16  2  0
 14 15  1  0
 17  7  1  0
 17 16  1  0
 18 22  1  0
 18 13  1  0
 19 18  2  0
 20 19  1  0
 20 21  1  0
 21 22  2  0
 23 21  1  0
 23 32  1  0
 24 23  2  0
 25 24  1  0
 25 26  2  0
 26 27  1  0
 27 32  2  0
 27 28  1  0
 28 29  2  0
 29 30  1  0
 31 30  2  0
 32 31  1  0
  1 33  1  0
  2 34  1  0
  3 35  1  0
  8 36  1  0
 15 37  1  0
 15 38  1  0
 19 39  1  0
 24 40  1  0
 25 41  1  0
 26 42  1  0
 28 43  1  0
 29 44  1  0
 30 45  1  0
 31 46  1  0
M  END
>  <Score>  (1) 
-7.09697

$$$$
