
     RDKit          3D

 45 49  0  0  0  0  0  0  0  0999 V2000
   36.3340   22.8770   32.0520 C   0  0  0  0  0  0  0  0  0  0  0  0
   35.9830   24.1600   31.6300 C   0  0  0  0  0  0  0  0  0  0  0  0
   36.7250   25.1720   32.2170 C   0  0  0  0  0  0  0  0  0  0  0  0
   37.6700   24.8500   33.0950 N   0  0  0  0  0  0  0  0  0  0  0  0
   38.0060   23.6460   33.4970 C   0  0  0  0  0  0  0  0  0  0  0  0
   37.3020   22.6780   32.9400 N   0  0  0  0  0  0  0  0  0  0  0  0
   39.0030   23.1660   34.4340 C   0  0  0  0  0  0  0  0  0  0  0  0
   40.1620   22.5500   34.0200 C   0  0  0  0  0  0  0  0  0  0  0  0
   41.1430   22.0730   34.8600 C   0  0  0  0  0  0  0  0  0  0  0  0
   40.9850   22.2050   36.2200 C   0  0  0  0  0  0  0  0  0  0  0  0
   39.8660   22.8020   36.6830 C   0  0  0  0  0  0  0  0  0  0  0  0
   39.7150   22.9320   38.0580 C   0  0  0  0  0  0  0  0  0  0  0  0
   38.6170   23.5210   38.6200 C   0  0  0  0  0  0  0  0  0  0  0  0
   37.6400   23.9930   37.7340 C   0  0  0  0  0  0  0  0  0  0  0  0
   37.8220   23.8480   36.3860 C   0  0  0  0  0  0  0  0  0  0  0  0
   38.9040   23.2680   35.8180 C   0  0  0  0  0  0  0  0  0  0  0  0
   36.4990   26.5310   31.9030 N   0  0  0  0  0  0  0  0  0  0  0  0
   36.4390   27.0700   30.6680 C   0  0  0  0  0  0  0  0  0  0  0  0
   36.2140   28.3700   30.7330 N   0  0  0  0  0  0  0  0  0  0  0  0
   36.1250   28.6920   32.0350 C   0  0  0  0  0  0  0  0  0  0  0  0
   36.3030   27.5470   32.7290 N   0  0  0  0  0  0  0  0  0  0  0  0
   35.4520   31.8760   34.7360 C   0  0  0  0  0  0  0  0  0  0  0  0
   35.4850   30.5530   35.1650 C   0  0  0  0  0  0  0  0  0  0  0  0
   35.7100   29.5760   34.2170 C   0  0  0  0  0  0  0  0  0  0  0  0
   35.9000   29.8710   32.8800 C   0  0  0  0  0  0  0  0  0  0  0  0
   35.8680   31.1980   32.4420 C   0  0  0  0  0  0  0  0  0  0  0  0
   35.6420   32.1640   33.4010 C   0  0  0  0  0  0  0  0  0  0  0  0
   35.1770   33.1970   35.8300 S   0  0  0  0  0  0  0  0  0  0  0  0
   36.3710   34.0990   35.8570 O   0  0  0  0  0  0  0  0  0  0  0  0
   34.9620   32.5990   37.2100 O   0  0  0  0  0  0  0  0  0  0  0  0
   35.7967   22.0102   31.6398 H   0  0  0  0  0  0  0  0  0  0  0  0
   35.1868   24.3511   30.8955 H   0  0  0  0  0  0  0  0  0  0  0  0
   40.3160   22.4298   32.9375 H   0  0  0  0  0  0  0  0  0  0  0  0
   42.0426   21.5920   34.4484 H   0  0  0  0  0  0  0  0  0  0  0  0
   41.7526   21.8328   36.9144 H   0  0  0  0  0  0  0  0  0  0  0  0
   40.5069   22.5474   38.7175 H   0  0  0  0  0  0  0  0  0  0  0  0
   38.5065   23.6191   39.7100 H   0  0  0  0  0  0  0  0  0  0  0  0
   36.7312   24.4777   38.1202 H   0  0  0  0  0  0  0  0  0  0  0  0
   37.0350   24.2289   35.7186 H   0  0  0  0  0  0  0  0  0  0  0  0
   36.5610   26.5035   29.7330 H   0  0  0  0  0  0  0  0  0  0  0  0
   35.3368   30.2946   36.2239 H   0  0  0  0  0  0  0  0  0  0  0  0
   35.7392   28.5239   34.5369 H   0  0  0  0  0  0  0  0  0  0  0  0
   36.0159   31.4596   31.3838 H   0  0  0  0  0  0  0  0  0  0  0  0
   35.6119   33.2171   33.0845 H   0  0  0  0  0  0  0  0  0  0  0  0
   34.0908   33.9323   35.4345 H   0  0  0  0  0  0  0  0  0  0  0  0
  1  6  2  0
  2  1  1  0
  2  3  2  0
  3  4  1  0
  4  5  2  0
  5  7  1  0
  6  5  1  0
  7 16  1  0
  8  7  2  0
  8  9  1  0
  9 10  2  0
 10 11  1  0
 11 12  2  0
 12 13  1  0
 14 13  2  0
 15 14  1  0
 16 15  2  0
 16 11  1  0
 17  3  1  0
 17 21  1  0
 18 19  2  0
 18 17  1  0
 19 20  1  0
 20 21  2  0
 20 25  1  0
 22 23  2  0
 22 28  1  0
 24 23  1  0
 25 24  2  0
 26 25  1  0
 26 27  2  0
 27 22  1  0
 28 29  2  0
 28 30  2  0
  1 31  1  0
  2 32  1  0
  8 33  1  0
  9 34  1  0
 10 35  1  0
 12 36  1  0
 13 37  1  0
 14 38  1  0
 15 39  1  0
 18 40  1  0
 23 41  1  0
 24 42  1  0
 26 43  1  0
 27 44  1  0
 28 45  1  0
M  END
>  <Score>  (1) 
-7.09405

$$$$
