
     RDKit          3D

 53 58  0  0  1  0  0  0  0  0999 V2000
   40.0430   22.8950   37.2640 C   0  0  0  0  0  0  0  0  0  0  0  0
   39.2710   23.0740   38.4360 C   0  0  0  0  0  0  0  0  0  0  0  0
   38.0260   23.7040   38.2850 C   0  0  0  0  0  0  0  0  0  0  0  0
   37.6240   24.1040   37.0620 N   0  0  0  0  0  0  0  0  0  0  0  0
   38.4010   23.9110   35.9550 C   0  0  0  0  0  0  0  0  0  0  0  0
   39.5930   23.3140   36.0640 N   0  0  0  0  0  0  0  0  0  0  0  0
   38.0040   24.3200   34.6630 N   0  0  0  0  0  0  0  0  0  0  0  0
   38.0850   23.4680   33.6140 C   0  0  0  0  0  0  0  0  0  0  0  0
   37.6370   24.1350   32.5140 N   0  0  0  0  0  0  0  0  0  0  0  0
   37.2820   25.3730   32.8430 C   0  0  0  0  0  0  0  0  0  0  0  0
   36.7650   26.5280   32.2290 C   0  0  0  0  0  0  0  0  0  0  0  0
   36.5520   26.4240   30.9850 O   0  0  0  0  0  0  0  0  0  0  0  0
   36.5300   27.6430   32.9500 N   0  0  0  0  0  0  0  0  0  0  0  0
   36.7780   27.6850   34.2580 C   0  0  0  0  0  0  0  0  0  0  0  0
   36.4680   28.9540   34.8600 N   0  0  0  0  0  0  0  0  0  0  0  0
   37.2750   26.5980   34.8940 N   0  0  0  0  0  0  0  0  0  0  0  0
   37.5160   25.4850   34.2020 C   0  0  0  0  0  0  0  0  0  0  0  0
   35.9950   28.8250   32.2860 C   0  0  0  0  0  0  0  0  0  0  0  0
   36.7550   29.5390   31.3470 C   0  0  0  0  0  0  0  0  0  0  0  0
   35.6090   30.9040   30.8430 S   0  0  0  0  0  0  0  0  0  0  0  0
   34.2980   30.2490   32.0110 C   0  0  0  0  0  0  0  0  0  0  0  0
   34.7950   29.3320   32.4840 N   0  0  0  0  0  0  0  0  0  0  0  0
   32.9810   31.0400   32.0380 C   0  0  1  0  0  0  0  0  0  0  0  0
   31.9370   30.5110   32.9680 C   0  0  0  0  0  0  0  0  0  0  0  0
   32.7710   31.7660   33.2860 C   0  0  1  0  0  0  0  0  0  0  0  0
   33.6160   31.7480   34.4910 C   0  0  0  0  0  0  0  0  0  0  0  0
   34.8090   32.6480   34.3900 C   0  0  0  0  0  0  0  0  0  0  0  0
   35.5950   32.7050   35.6770 C   0  0  0  0  0  0  0  0  0  0  0  0
   35.0020   31.8630   36.7590 C   0  0  0  0  0  0  0  0  0  0  0  0
   33.5410   32.2320   36.9570 C   0  0  0  0  0  0  0  0  0  0  0  0
   32.7550   32.1850   35.6880 C   0  0  0  0  0  0  0  0  0  0  0  0
   41.0260   22.4062   37.3328 H   0  0  0  0  0  0  0  0  0  0  0  0
   39.6296   22.7354   39.4192 H   0  0  0  0  0  0  0  0  0  0  0  0
   37.3812   23.8706   39.1605 H   0  0  0  0  0  0  0  0  0  0  0  0
   38.4458   22.4293   33.6443 H   0  0  0  0  0  0  0  0  0  0  0  0
   36.6217   29.0969   35.8684 H   0  0  0  0  0  0  0  0  0  0  0  0
   36.0923   29.7198   34.2827 H   0  0  0  0  0  0  0  0  0  0  0  0
   37.7782   29.3378   30.9969 H   0  0  0  0  0  0  0  0  0  0  0  0
   32.9702   31.3110   30.9719 H   0  0  0  0  0  0  0  0  0  0  0  0
   30.8699   30.6005   32.7163 H   0  0  0  0  0  0  0  0  0  0  0  0
   31.7297   29.5508   33.4630 H   0  0  0  0  0  0  0  0  0  0  0  0
   32.6281   32.8388   33.4829 H   0  0  0  0  0  0  0  0  0  0  0  0
   34.0008   30.7249   34.6139 H   0  0  0  0  0  0  0  0  0  0  0  0
   35.4663   32.2755   33.5905 H   0  0  0  0  0  0  0  0  0  0  0  0
   34.4465   33.6635   34.1722 H   0  0  0  0  0  0  0  0  0  0  0  0
   36.6181   32.3526   35.4792 H   0  0  0  0  0  0  0  0  0  0  0  0
   35.5811   33.7481   36.0259 H   0  0  0  0  0  0  0  0  0  0  0  0
   35.0757   30.8021   36.4778 H   0  0  0  0  0  0  0  0  0  0  0  0
   35.5506   32.0373   37.6964 H   0  0  0  0  0  0  0  0  0  0  0  0
   33.0944   31.5267   37.6733 H   0  0  0  0  0  0  0  0  0  0  0  0
   33.5083   33.2668   37.3287 H   0  0  0  0  0  0  0  0  0  0  0  0
   32.3480   33.1866   35.4854 H   0  0  0  0  0  0  0  0  0  0  0  0
   31.9503   31.4458   35.8147 H   0  0  0  0  0  0  0  0  0  0  0  0
  1  2  2  0
  3  2  1  0
  4  3  2  0
  5  6  2  0
  5  4  1  0
  6  1  1  0
  7  5  1  0
  8  7  1  0
  9 10  1  0
  9  8  2  0
 10 17  2  0
 11 10  1  0
 11 13  1  0
 12 11  2  0
 13 14  1  0
 14 15  1  0
 14 16  2  0
 17  7  1  0
 17 16  1  0
 18 22  1  0
 18 13  1  0
 19 18  2  0
 20 19  1  0
 20 21  1  0
 21 23  1  0
 21 22  2  0
 23 24  1  0
 23 25  1  0
 24 25  1  0
 25 26  1  0
 26 31  1  0
 27 26  1  0
 27 28  1  0
 28 29  1  0
 29 30  1  0
 31 30  1  0
  1 32  1  0
  2 33  1  0
  3 34  1  0
  8 35  1  0
 15 36  1  0
 15 37  1  0
 19 38  1  0
 23 39  1  6
 24 40  1  0
 24 41  1  0
 25 42  1  6
 26 43  1  0
 27 44  1  0
 27 45  1  0
 28 46  1  0
 28 47  1  0
 29 48  1  0
 29 49  1  0
 30 50  1  0
 30 51  1  0
 31 52  1  0
 31 53  1  0
M  END
>  <Score>  (1) 
-7.00072

$$$$
