
     RDKit          3D

 48 51  0  0  1  0  0  0  0  0999 V2000
   38.1170   23.9290   35.7070 C   0  0  0  0  0  0  0  0  0  0  0  0
   38.1310   24.6140   36.9170 C   0  0  0  0  0  0  0  0  0  0  0  0
   38.0600   26.0170   36.8740 C   0  0  0  0  0  0  0  0  0  0  0  0
   37.9790   26.6240   35.6680 N   0  0  0  0  0  0  0  0  0  0  0  0
   37.9660   25.9480   34.5280 C   0  0  0  0  0  0  0  0  0  0  0  0
   38.0330   24.6240   34.5420 N   0  0  0  0  0  0  0  0  0  0  0  0
   37.8710   26.6850   33.3100 N   0  0  0  0  0  0  0  0  0  0  0  0
   38.4740   26.1460   32.1340 C   0  0  0  0  0  0  0  0  0  0  0  0
   38.7390   27.3270   31.2260 C   0  0  0  0  0  0  0  0  0  0  0  0
   37.5200   28.0940   30.8690 C   0  0  0  0  0  0  0  0  0  0  0  0
   36.5250   28.2630   31.9680 C   0  0  0  0  0  0  0  0  0  0  0  0
   37.1680   27.9430   33.3070 C   0  0  1  0  0  0  0  0  0  0  0  0
   38.2190   23.9250   38.2180 C   0  0  0  0  0  0  0  0  0  0  0  0
   39.4620   23.3660   38.3080 F   0  0  0  0  0  0  0  0  0  0  0  0
   37.2930   22.9530   38.3940 F   0  0  0  0  0  0  0  0  0  0  0  0
   38.1630   24.8540   39.2650 F   0  0  0  0  0  0  0  0  0  0  0  0
   38.1880   22.4590   35.5090 C   0  0  0  0  0  0  0  0  0  0  0  0
   38.2910   22.1340   34.1640 F   0  0  0  0  0  0  0  0  0  0  0  0
   39.2750   21.9280   36.1950 F   0  0  0  0  0  0  0  0  0  0  0  0
   37.1280   21.7850   36.0150 F   0  0  0  0  0  0  0  0  0  0  0  0
   36.0950   28.0410   34.3390 C   0  0  0  0  0  0  0  0  0  0  0  0
   35.1970   29.1960   33.9150 C   0  0  0  0  0  0  0  0  0  0  0  0
   34.2790   29.0130   32.9560 N   0  0  0  0  0  0  0  0  0  0  0  0
   33.4550   29.9670   32.4900 C   0  0  0  0  0  0  0  0  0  0  0  0
   33.5390   31.2030   33.0090 N   0  0  0  0  0  0  0  0  0  0  0  0
   34.4400   31.4580   33.9790 C   0  0  0  0  0  0  0  0  0  0  0  0
   34.5080   32.7320   34.5040 C   0  0  0  0  0  0  0  0  0  0  0  0
   35.4230   33.0050   35.5030 C   0  0  0  0  0  0  0  0  0  0  0  0
   36.2590   31.9840   35.9600 C   0  0  0  0  0  0  0  0  0  0  0  0
   36.1920   30.7080   35.4330 C   0  0  0  0  0  0  0  0  0  0  0  0
   35.2860   30.4620   34.4510 C   0  0  0  0  0  0  0  0  0  0  0  0
   38.0701   26.6087   37.8012 H   0  0  0  0  0  0  0  0  0  0  0  0
   39.4165   25.6377   32.3857 H   0  0  0  0  0  0  0  0  0  0  0  0
   37.8231   25.4026   31.6505 H   0  0  0  0  0  0  0  0  0  0  0  0
   39.4389   28.0057   31.7353 H   0  0  0  0  0  0  0  0  0  0  0  0
   39.1498   26.9242   30.2885 H   0  0  0  0  0  0  0  0  0  0  0  0
   37.8337   29.0951   30.5384 H   0  0  0  0  0  0  0  0  0  0  0  0
   37.0121   27.5093   30.0879 H   0  0  0  0  0  0  0  0  0  0  0  0
   36.1648   29.3023   31.9763 H   0  0  0  0  0  0  0  0  0  0  0  0
   35.6821   27.5766   31.7997 H   0  0  0  0  0  0  0  0  0  0  0  0
   37.9633   28.6680   33.5348 H   0  0  0  0  0  0  0  0  0  0  0  0
   35.5183   27.1051   34.3787 H   0  0  0  0  0  0  0  0  0  0  0  0
   36.5180   28.2106   35.3402 H   0  0  0  0  0  0  0  0  0  0  0  0
   32.7256   29.7399   31.6985 H   0  0  0  0  0  0  0  0  0  0  0  0
   33.8404   33.5227   34.1311 H   0  0  0  0  0  0  0  0  0  0  0  0
   35.4920   34.0150   35.9333 H   0  0  0  0  0  0  0  0  0  0  0  0
   36.9864   32.1999   36.7564 H   0  0  0  0  0  0  0  0  0  0  0  0
   36.8559   29.9113   35.7997 H   0  0  0  0  0  0  0  0  0  0  0  0
  1  2  2  0
  2 13  1  0
  3  2  1  0
  4  3  2  0
  5  6  2  0
  5  4  1  0
  6  1  1  0
  7  5  1  0
  8  7  1  0
  9  8  1  0
 10  9  1  0
 10 11  1  0
 11 12  1  0
 12  7  1  0
 12 21  1  0
 13 14  1  0
 13 15  1  0
 13 16  1  0
 17  1  1  0
 17 20  1  0
 17 19  1  0
 18 17  1  0
 22 21  1  0
 22 31  1  0
 23 22  2  0
 24 23  1  0
 24 25  2  0
 25 26  1  0
 26 31  2  0
 26 27  1  0
 27 28  2  0
 28 29  1  0
 30 29  2  0
 31 30  1  0
  3 32  1  0
  8 33  1  0
  8 34  1  0
  9 35  1  0
  9 36  1  0
 10 37  1  0
 10 38  1  0
 11 39  1  0
 11 40  1  0
 12 41  1  1
 21 42  1  0
 21 43  1  0
 24 44  1  0
 27 45  1  0
 28 46  1  0
 29 47  1  0
 30 48  1  0
M  END
>  <Score>  (1) 
-7.24467

$$$$
