
     RDKit          3D

 56 62  0  0  0  0  0  0  0  0999 V2000
   38.8370   23.8330   36.1450 C   0  0  0  0  0  0  0  0  0  0  0  0
   40.2360   24.0580   36.0920 C   0  0  0  0  0  0  0  0  0  0  0  0
   40.6770   25.0950   35.3080 C   0  0  0  0  0  0  0  0  0  0  0  0
   39.7320   25.7930   34.6700 N   0  0  0  0  0  0  0  0  0  0  0  0
   38.4410   25.6060   34.7030 C   0  0  0  0  0  0  0  0  0  0  0  0
   37.9940   24.5970   35.4640 N   0  0  0  0  0  0  0  0  0  0  0  0
   37.6700   26.4940   33.9380 N   0  0  0  0  0  0  0  0  0  0  0  0
   36.8490   27.3650   34.5850 C   0  0  0  0  0  0  0  0  0  0  0  0
   36.1980   28.1470   33.6610 C   0  0  0  0  0  0  0  0  0  0  0  0
   36.6320   27.7370   32.4740 N   0  0  0  0  0  0  0  0  0  0  0  0
   37.5430   26.7130   32.6290 C   0  0  0  0  0  0  0  0  0  0  0  0
   38.1800   26.0260   31.5480 C   0  0  0  0  0  0  0  0  0  0  0  0
   38.6630   26.7060   30.4170 C   0  0  0  0  0  0  0  0  0  0  0  0
   39.1900   25.7910   29.5380 N   0  0  0  0  0  0  0  0  0  0  0  0
   39.0240   24.5420   30.1450 C   0  0  0  0  0  0  0  0  0  0  0  0
   38.4350   24.7660   31.3070 N   0  0  0  0  0  0  0  0  0  0  0  0
   38.3710   23.4930   31.8770 C   0  0  0  0  0  0  0  0  0  0  0  0
   39.4950   23.1810   32.5320 N   0  0  0  0  0  0  0  0  0  0  0  0
   39.6240   21.9500   33.0960 C   0  0  0  0  0  0  0  0  0  0  0  0
   38.6870   21.0050   33.0410 N   0  0  0  0  0  0  0  0  0  0  0  0
   37.5420   21.2760   32.3930 C   0  0  0  0  0  0  0  0  0  0  0  0
   36.4980   20.3990   32.2580 C   0  0  0  0  0  0  0  0  0  0  0  0
   35.3550   20.7280   31.5850 C   0  0  0  0  0  0  0  0  0  0  0  0
   35.2390   21.9950   31.0140 C   0  0  0  0  0  0  0  0  0  0  0  0
   36.2520   22.9160   31.1150 C   0  0  0  0  0  0  0  0  0  0  0  0
   37.3760   22.5360   31.8000 C   0  0  0  0  0  0  0  0  0  0  0  0
   35.1880   29.1760   33.6590 C   0  0  0  0  0  0  0  0  0  0  0  0
   34.0950   29.0720   32.7970 C   0  0  0  0  0  0  0  0  0  0  0  0
   33.0790   29.9860   32.6970 C   0  0  0  0  0  0  0  0  0  0  0  0
   33.0950   31.0950   33.4800 C   0  0  0  0  0  0  0  0  0  0  0  0
   34.1360   31.2790   34.3550 C   0  0  0  0  0  0  0  0  0  0  0  0
   34.1480   32.4100   35.1090 C   0  0  0  0  0  0  0  0  0  0  0  0
   35.1710   32.6750   35.9840 C   0  0  0  0  0  0  0  0  0  0  0  0
   36.1920   31.7190   36.0520 C   0  0  0  0  0  0  0  0  0  0  0  0
   36.1310   30.6090   35.2790 C   0  0  0  0  0  0  0  0  0  0  0  0
   35.1210   30.3190   34.4010 C   0  0  0  0  0  0  0  0  0  0  0  0
   38.3480   22.7580   36.9700 N   0  0  0  0  0  0  0  0  0  0  0  0
   40.9391   23.4275   36.6560 H   0  0  0  0  0  0  0  0  0  0  0  0
   41.7455   25.3375   35.2104 H   0  0  0  0  0  0  0  0  0  0  0  0
   36.7257   27.4327   35.6760 H   0  0  0  0  0  0  0  0  0  0  0  0
   38.6253   27.7942   30.2608 H   0  0  0  0  0  0  0  0  0  0  0  0
   39.3243   23.5659   29.7362 H   0  0  0  0  0  0  0  0  0  0  0  0
   40.5583   21.7212   33.6296 H   0  0  0  0  0  0  0  0  0  0  0  0
   36.5826   19.3978   32.7058 H   0  0  0  0  0  0  0  0  0  0  0  0
   34.5347   20.0007   31.4946 H   0  0  0  0  0  0  0  0  0  0  0  0
   34.3191   22.2613   30.4728 H   0  0  0  0  0  0  0  0  0  0  0  0
   36.1650   23.9161   30.6653 H   0  0  0  0  0  0  0  0  0  0  0  0
   34.0454   28.1863   32.1466 H   0  0  0  0  0  0  0  0  0  0  0  0
   32.2553   29.8222   31.9866 H   0  0  0  0  0  0  0  0  0  0  0  0
   32.2846   31.8359   33.4139 H   0  0  0  0  0  0  0  0  0  0  0  0
   33.3199   33.1280   35.0156 H   0  0  0  0  0  0  0  0  0  0  0  0
   35.1882   33.5876   36.5979 H   0  0  0  0  0  0  0  0  0  0  0  0
   37.0428   31.8697   36.7328 H   0  0  0  0  0  0  0  0  0  0  0  0
   36.9552   29.8854   35.3627 H   0  0  0  0  0  0  0  0  0  0  0  0
   37.3366   22.5719   37.0273 H   0  0  0  0  0  0  0  0  0  0  0  0
   39.0098   22.1755   37.5026 H   0  0  0  0  0  0  0  0  0  0  0  0
  1 37  1  0
  2  1  2  0
  3  2  1  0
  4  5  1  0
  4  3  2  0
  5  6  2  0
  6  1  1  0
  7  8  1  0
  7  5  1  0
  9  8  2  0
 10 11  2  0
 10  9  1  0
 11  7  1  0
 12 11  1  0
 13 12  2  0
 14 15  2  0
 14 13  1  0
 15 16  1  0
 16 12  1  0
 16 17  1  0
 17 18  2  0
 18 19  1  0
 20 19  2  0
 21 20  1  0
 22 21  2  0
 23 22  1  0
 24 25  1  0
 24 23  2  0
 25 26  2  0
 26 17  1  0
 26 21  1  0
 27  9  1  0
 27 36  1  0
 28 27  2  0
 29 28  1  0
 29 30  2  0
 30 31  1  0
 31 36  2  0
 31 32  1  0
 32 33  2  0
 33 34  1  0
 35 34  2  0
 36 35  1  0
  2 38  1  0
  3 39  1  0
  8 40  1  0
 13 41  1  0
 15 42  1  0
 19 43  1  0
 22 44  1  0
 23 45  1  0
 24 46  1  0
 25 47  1  0
 28 48  1  0
 29 49  1  0
 30 50  1  0
 32 51  1  0
 33 52  1  0
 34 53  1  0
 35 54  1  0
 37 55  1  0
 37 56  1  0
M  END
>  <Score>  (1) 
-7.77343

$$$$
