
 OpenBabel03252514073D

 43 46  0  0  0  0  0  0  0  0999 V2000
   34.1440   30.0430   47.5340 C   0  0  0  0  0  0  0  0  0  0  0  0
   35.1290   29.8180   48.5290 C   0  0  0  0  0  0  0  0  0  0  0  0
   34.9950   28.6660   49.2870 C   0  0  0  0  0  0  0  0  0  0  0  0
   33.9610   27.8230   49.0570 N   0  0  0  0  0  0  0  0  0  0  0  0
   33.0360   28.0550   48.1040 C   0  0  0  0  0  0  0  0  0  0  0  0
   33.1390   29.1530   47.3620 N   0  0  0  0  0  0  0  0  0  0  0  0
   34.1870   30.9220   46.9060 H   0  0  0  0  0  0  0  0  0  0  0  0
   35.7510   28.5180   50.0340 H   0  0  0  0  0  0  0  0  0  0  0  0
   36.1690   30.7800   48.6610 N   0  0  0  0  0  0  0  0  0  0  0  0
   36.4580   31.4280   49.8040 C   0  0  0  0  0  0  0  0  0  0  0  0
   37.4960   32.2660   49.5750 N   0  0  0  0  0  0  0  0  0  0  0  0
   37.8350   32.1200   48.2780 C   0  0  0  0  0  0  0  0  0  0  0  0
   38.7990   32.6940   47.4710 C   0  0  0  0  0  0  0  0  0  0  0  0
   38.9260   32.3630   46.1790 N   0  0  0  0  0  0  0  0  0  0  0  0
   38.1140   31.4490   45.6040 C   0  0  0  0  0  0  0  0  0  0  0  0
   37.1780   30.8910   46.3900 N   0  0  0  0  0  0  0  0  0  0  0  0
   37.0080   31.1880   47.6870 C   0  0  0  0  0  0  0  0  0  0  0  0
   35.9450   31.2970   50.7410 H   0  0  0  0  0  0  0  0  0  0  0  0
   38.2230   31.1880   44.5660 H   0  0  0  0  0  0  0  0  0  0  0  0
   39.6770   33.6610   48.0220 N   0  0  0  0  0  0  0  0  0  0  0  0
   39.4890   34.6880   48.0170 H   0  0  0  0  0  0  0  0  0  0  0  0
   40.5960   33.5750   48.5000 H   0  0  0  0  0  0  0  0  0  0  0  0
   31.9220   27.1150   47.8530 C   0  0  0  0  0  0  0  0  0  0  0  0
   30.7900   27.4070   48.8490 C   0  0  0  0  0  0  0  0  0  0  0  0
   30.6640   28.5110   48.9190 H   0  0  0  0  0  0  0  0  0  0  0  0
   29.8220   27.0130   48.4700 H   0  0  0  0  0  0  0  0  0  0  0  0
   31.0140   27.0020   49.8410 H   0  0  0  0  0  0  0  0  0  0  0  0
   31.2920   27.4030   46.4890 C   0  0  0  0  0  0  0  0  0  0  0  0
   30.8920   28.4610   46.5090 H   0  0  0  0  0  0  0  0  0  0  0  0
   30.4160   26.7840   46.2950 H   0  0  0  0  0  0  0  0  0  0  0  0
   32.0060   27.2970   45.6560 H   0  0  0  0  0  0  0  0  0  0  0  0
   32.2990   25.6870   47.9060 C   0  0  0  0  0  0  0  0  0  0  0  0
   31.3480   25.1050   48.1010 H   0  0  0  0  0  0  0  0  0  0  0  0
   32.8820   25.5370   48.8540 H   0  0  0  0  0  0  0  0  0  0  0  0
   32.9110   25.0920   46.7820 N   0  0  0  0  0  0  0  0  0  0  0  0
   34.1620   25.3310   46.3480 C   0  0  0  0  0  3  0  0  0  0  0  0
   34.7780   24.7690   45.2570 C   0  0  0  0  0  3  0  0  0  0  0  0
   34.0530   23.8520   44.5090 C   0  0  0  0  0  0  0  0  0  0  0  0
   34.5670   23.3140   43.5110 O   0  0  0  0  0  0  0  0  0  0  0  0
   32.8080   23.5820   44.9040 N   0  0  0  0  0  0  0  0  0  0  0  0
   32.2790   24.1790   45.9860 C   0  0  0  0  0  0  0  0  0  0  0  0
   31.1000   23.8150   46.2230 O   0  0  0  0  0  0  0  0  0  0  0  0
   32.3040   22.8970   44.3220 H   0  0  0  0  0  0  0  0  0  0  0  0
  1  2  1  0  0  0  0
  2  9  1  0  0  0  0
  2  3  2  0  0  0  0
  3  8  1  0  0  0  0
  4  3  1  0  0  0  0
  5  4  2  0  0  0  0
  6  1  2  0  0  0  0
  6  5  1  0  0  0  0
  7  1  1  0  0  0  0
  9 10  1  0  0  0  0
 10 18  1  0  0  0  0
 11 10  2  0  0  0  0
 12 11  1  0  0  0  0
 13 20  1  0  0  0  0
 13 12  2  0  0  0  0
 14 13  1  0  0  0  0
 15 14  2  0  0  0  0
 15 16  1  0  0  0  0
 16 17  2  0  0  0  0
 17 12  1  0  0  0  0
 17  9  1  0  0  0  0
 19 15  1  0  0  0  0
 20 22  1  0  0  0  0
 21 20  1  0  0  0  0
 23 32  1  0  0  0  0
 23  5  1  0  0  0  0
 23 24  1  0  0  0  0
 24 25  1  0  0  0  0
 24 27  1  0  0  0  0
 26 24  1  0  0  0  0
 28 29  1  0  0  0  0
 28 23  1  0  0  0  0
 30 28  1  0  0  0  0
 31 28  1  0  0  0  0
 32 33  1  0  0  0  0
 32 34  1  0  0  0  0
 35 32  1  0  0  0  0
 36 35  1  0  0  0  0
 37 36  2  0  0  0  0
 38 40  1  0  0  0  0
 38 37  1  0  0  0  0
 39 38  2  0  0  0  0
 40 41  1  0  0  0  0
 41 42  2  0  0  0  0
 41 35  1  0  0  0  0
 43 40  1  0  0  0  0
M  END
>  <minimizedAffinity>
-5.43240309

>  <minimizedRMSD>
1.38547444

$$$$
