
 OpenBabel03252514033D

 31 33  0  0  1  0  0  0  0  0999 V2000
   35.3040   29.4320   48.9580 C   0  0  2  0  0  0  0  0  0  0  0  0
   34.1790   29.3390   49.8880 C   0  0  0  0  0  0  0  0  0  0  0  0
   34.5560   28.0960   49.2790 C   0  0  1  0  0  0  0  0  0  0  0  0
   35.2320   29.7380   47.9150 H   0  0  0  0  0  0  0  0  0  0  0  0
   33.2540   29.9030   49.6350 H   0  0  0  0  0  0  0  0  0  0  0  0
   34.4210   29.4440   50.9880 H   0  0  0  0  0  0  0  0  0  0  0  0
   35.2120   27.3220   49.6680 H   0  0  0  0  0  0  0  0  0  0  0  0
   36.7080   29.4150   49.5860 C   0  0  0  0  0  0  0  0  0  0  0  0
   37.1730   28.4610   49.2020 H   0  0  0  0  0  0  0  0  0  0  0  0
   36.6130   29.3060   50.6770 H   0  0  0  0  0  0  0  0  0  0  0  0
   38.0930   32.7910   49.4400 C   0  0  0  0  0  0  0  0  0  0  0  0
   38.7750   32.7930   48.2030 C   0  0  0  0  0  0  0  0  0  0  0  0
   38.7390   31.6040   47.4350 C   0  0  0  0  0  0  0  0  0  0  0  0
   38.0510   30.5270   47.9270 N   0  0  0  0  0  0  0  0  0  0  0  0
   37.4190   30.5950   49.1230 C   0  0  0  0  0  0  0  0  0  0  0  0
   37.4520   31.7260   49.8580 N   0  0  0  0  0  0  0  0  0  0  0  0
   38.1560   33.7220   49.9800 H   0  0  0  0  0  0  0  0  0  0  0  0
   39.3370   33.6120   47.7570 H   0  0  0  0  0  0  0  0  0  0  0  0
   39.2150   31.4780   46.4820 H   0  0  0  0  0  0  0  0  0  0  0  0
   33.6140   27.6010   48.1990 C   0  0  0  0  0  0  0  0  0  0  0  0
   33.9560   26.4360   47.7350 O   0  0  0  0  0  0  0  0  0  0  0  0
   32.4810   28.2590   47.7080 O   0  0  0  0  0  0  0  0  0  0  0  0
   31.2080   27.8920   48.0390 C   0  0  0  0  0  0  0  0  0  0  0  0
   30.7180   27.6580   49.4080 C   0  0  0  0  0  0  0  0  0  0  0  0
   29.4300   27.2980   49.5910 C   0  0  0  0  0  0  0  0  0  0  0  0
   28.5600   27.1430   48.4990 C   0  0  0  0  0  0  0  0  0  0  0  0
   29.6410   27.5450   47.0350 S   0  0  0  0  0  0  0  0  0  0  0  0
   31.4230   27.7900   50.2070 H   0  0  0  0  0  0  0  0  0  0  0  0
   29.0050   27.1100   50.5610 H   0  0  0  0  0  0  0  0  0  0  0  0
   27.1430   26.7600   48.4570 C   0  0  0  0  0  0  0  0  0  0  0  0
   26.4730   27.5110   48.8980 H   0  0  0  0  0  0  0  0  0  0  0  0
  1  4  1  6  0  0  0
  1  3  1  0  0  0  0
  1  8  1  0  0  0  0
  1  2  1  0  0  0  0
  2  6  1  0  0  0  0
  3  7  1  1  0  0  0
  3  2  1  0  0  0  0
  5  2  1  0  0  0  0
  8 10  1  0  0  0  0
  9  8  1  0  0  0  0
 11 16  1  0  0  0  0
 11 17  1  0  0  0  0
 12 11  2  0  0  0  0
 13 14  2  0  0  0  0
 13 12  1  0  0  0  0
 14 15  1  0  0  0  0
 15  8  1  0  0  0  0
 15 16  2  0  0  0  0
 18 12  1  0  0  0  0
 19 13  1  0  0  0  0
 20  3  1  0  0  0  0
 21 20  2  0  0  0  0
 22 23  1  0  0  0  0
 22 20  1  0  0  0  0
 23 24  2  0  0  0  0
 24 25  1  0  0  0  0
 24 28  1  0  0  0  0
 25 29  1  0  0  0  0
 26 25  2  0  0  0  0
 27 23  1  0  0  0  0
 27 26  1  0  0  0  0
 30 26  1  0  0  0  0
 30 31  1  0  0  0  0
M  END
>  <minimizedAffinity>
-5.52406931

>  <minimizedRMSD>
0.191849977

$$$$
