
 OpenBabel03252514073D

 43 46  0  0  0  0  0  0  0  0999 V2000
   34.4810   30.1790   47.4800 C   0  0  0  0  0  0  0  0  0  0  0  0
   35.4480   29.9790   48.4970 C   0  0  0  0  0  0  0  0  0  0  0  0
   35.4160   28.7600   49.1550 C   0  0  0  0  0  0  0  0  0  0  0  0
   34.4920   27.8320   48.8130 N   0  0  0  0  0  0  0  0  0  0  0  0
   33.5810   28.0420   47.8410 C   0  0  0  0  0  0  0  0  0  0  0  0
   33.5880   29.2040   47.1940 N   0  0  0  0  0  0  0  0  0  0  0  0
   34.4480   31.1080   46.9280 H   0  0  0  0  0  0  0  0  0  0  0  0
   36.1580   28.6330   49.9210 H   0  0  0  0  0  0  0  0  0  0  0  0
   36.3690   31.0340   48.7510 N   0  0  0  0  0  0  0  0  0  0  0  0
   36.3760   31.7760   49.8730 C   0  0  0  0  0  0  0  0  0  0  0  0
   37.3760   32.6840   49.7840 N   0  0  0  0  0  0  0  0  0  0  0  0
   37.9780   32.4830   48.5940 C   0  0  0  0  0  0  0  0  0  0  0  0
   39.0410   33.0850   47.9470 C   0  0  0  0  0  0  0  0  0  0  0  0
   39.4480   32.6830   46.7350 N   0  0  0  0  0  0  0  0  0  0  0  0
   38.8360   31.6670   46.0890 C   0  0  0  0  0  0  0  0  0  0  0  0
   37.8030   31.0840   46.7200 N   0  0  0  0  0  0  0  0  0  0  0  0
   37.3560   31.4480   47.9310 C   0  0  0  0  0  0  0  0  0  0  0  0
   35.6960   31.6630   50.7000 H   0  0  0  0  0  0  0  0  0  0  0  0
   39.1690   31.3500   45.1160 H   0  0  0  0  0  0  0  0  0  0  0  0
   39.7200   34.1570   48.5790 N   0  0  0  0  0  0  0  0  0  0  0  0
   39.4640   35.1620   48.4550 H   0  0  0  0  0  0  0  0  0  0  0  0
   40.5280   34.1810   49.2320 H   0  0  0  0  0  0  0  0  0  0  0  0
   32.5880   27.0120   47.4660 C   0  0  0  0  0  0  0  0  0  0  0  0
   33.2990   25.6560   47.3500 C   0  0  0  0  0  0  0  0  0  0  0  0
   34.0010   25.5550   48.2100 H   0  0  0  0  0  0  0  0  0  0  0  0
   32.5720   24.8210   47.4530 H   0  0  0  0  0  0  0  0  0  0  0  0
   33.8580   25.5740   46.4120 H   0  0  0  0  0  0  0  0  0  0  0  0
   31.5920   26.8050   48.6090 C   0  0  0  0  0  0  0  0  0  0  0  0
   32.1710   26.4560   49.5150 H   0  0  0  0  0  0  0  0  0  0  0  0
   30.8870   25.9990   48.4070 H   0  0  0  0  0  0  0  0  0  0  0  0
   31.0350   27.7220   48.8620 H   0  0  0  0  0  0  0  0  0  0  0  0
   31.8340   27.3050   46.2300 C   0  0  0  0  0  0  0  0  0  0  0  0
   31.8270   26.3540   45.6180 H   0  0  0  0  0  0  0  0  0  0  0  0
   32.4720   27.9940   45.6130 H   0  0  0  0  0  0  0  0  0  0  0  0
   30.4930   27.7330   46.3240 N   0  0  0  0  0  0  0  0  0  0  0  0
   30.0830   28.9850   46.5960 C   0  0  0  0  0  3  0  0  0  0  0  0
   28.7860   29.4250   46.6950 C   0  0  0  0  0  3  0  0  0  0  0  0
   27.7730   28.4980   46.4990 C   0  0  0  0  0  0  0  0  0  0  0  0
   26.5810   28.8470   46.5790 O   0  0  0  0  0  0  0  0  0  0  0  0
   28.1320   27.2430   46.2280 N   0  0  0  0  0  0  0  0  0  0  0  0
   29.4290   26.8940   46.1480 C   0  0  0  0  0  0  0  0  0  0  0  0
   29.5970   25.6770   45.8830 O   0  0  0  0  0  0  0  0  0  0  0  0
   27.3520   26.5840   46.0890 H   0  0  0  0  0  0  0  0  0  0  0  0
  1  2  1  0  0  0  0
  2  9  1  0  0  0  0
  2  3  2  0  0  0  0
  3  8  1  0  0  0  0
  4  3  1  0  0  0  0
  5  4  2  0  0  0  0
  6  1  2  0  0  0  0
  6  5  1  0  0  0  0
  7  1  1  0  0  0  0
  9 10  1  0  0  0  0
 10 18  1  0  0  0  0
 11 10  2  0  0  0  0
 12 11  1  0  0  0  0
 13 20  1  0  0  0  0
 13 12  1  0  0  0  0
 14 13  2  0  0  0  0
 15 16  2  0  0  0  0
 15 14  1  0  0  0  0
 16 17  1  0  0  0  0
 17 12  2  0  0  0  0
 17  9  1  0  0  0  0
 19 15  1  0  0  0  0
 20 22  1  0  0  0  0
 21 20  1  0  0  0  0
 23  5  1  0  0  0  0
 23 28  1  0  0  0  0
 24 26  1  0  0  0  0
 24 23  1  0  0  0  0
 24 25  1  0  0  0  0
 27 24  1  0  0  0  0
 28 31  1  0  0  0  0
 28 29  1  0  0  0  0
 30 28  1  0  0  0  0
 32 35  1  0  0  0  0
 32 23  1  0  0  0  0
 33 32  1  0  0  0  0
 34 32  1  0  0  0  0
 35 36  1  0  0  0  0
 36 37  2  0  0  0  0
 38 39  2  0  0  0  0
 38 37  1  0  0  0  0
 40 38  1  0  0  0  0
 41 40  1  0  0  0  0
 41 35  1  0  0  0  0
 42 41  2  0  0  0  0
 43 40  1  0  0  0  0
M  END
>  <minimizedAffinity>
-6.05263186

>  <minimizedRMSD>
4.42170429

$$$$
