
 OpenBabel03252514073D

 43 46  0  0  0  0  0  0  0  0999 V2000
   34.0390   30.0620   47.3880 C   0  0  0  0  0  0  0  0  0  0  0  0
   35.0200   29.7310   48.3560 C   0  0  0  0  0  0  0  0  0  0  0  0
   34.9510   28.4580   48.9010 C   0  0  0  0  0  0  0  0  0  0  0  0
   33.9810   27.6040   48.5010 N   0  0  0  0  0  0  0  0  0  0  0  0
   33.0580   27.9390   47.5760 C   0  0  0  0  0  0  0  0  0  0  0  0
   33.0990   29.1540   47.0380 N   0  0  0  0  0  0  0  0  0  0  0  0
   34.0340   31.0380   46.9230 H   0  0  0  0  0  0  0  0  0  0  0  0
   35.7040   28.2310   49.6320 H   0  0  0  0  0  0  0  0  0  0  0  0
   35.9910   30.7190   48.6810 N   0  0  0  0  0  0  0  0  0  0  0  0
   36.0850   31.3200   49.8820 C   0  0  0  0  0  0  0  0  0  0  0  0
   37.1110   32.2020   49.8440 N   0  0  0  0  0  0  0  0  0  0  0  0
   37.6400   32.1300   48.6050 C   0  0  0  0  0  0  0  0  0  0  0  0
   38.6870   32.7750   47.9740 C   0  0  0  0  0  0  0  0  0  0  0  0
   39.0130   32.5120   46.7020 N   0  0  0  0  0  0  0  0  0  0  0  0
   38.3310   31.6000   45.9750 C   0  0  0  0  0  0  0  0  0  0  0  0
   37.3130   30.9750   46.5900 N   0  0  0  0  0  0  0  0  0  0  0  0
   36.9460   31.2020   47.8600 C   0  0  0  0  0  0  0  0  0  0  0  0
   35.4470   31.1270   50.7270 H   0  0  0  0  0  0  0  0  0  0  0  0
   38.5990   31.3940   44.9540 H   0  0  0  0  0  0  0  0  0  0  0  0
   39.4370   33.7420   48.6900 N   0  0  0  0  0  0  0  0  0  0  0  0
   39.2110   34.7620   48.7020 H   0  0  0  0  0  0  0  0  0  0  0  0
   40.2800   33.6630   49.2930 H   0  0  0  0  0  0  0  0  0  0  0  0
   32.0140   26.9880   47.1360 C   0  0  0  0  0  0  0  0  0  0  0  0
   31.2920   26.4340   48.3730 C   0  0  0  0  0  0  0  0  0  0  0  0
   31.1030   27.2800   49.0730 H   0  0  0  0  0  0  0  0  0  0  0  0
   30.2900   26.0380   48.0980 H   0  0  0  0  0  0  0  0  0  0  0  0
   31.8900   25.6690   48.8780 H   0  0  0  0  0  0  0  0  0  0  0  0
   30.9160   27.7330   46.3740 C   0  0  0  0  0  0  0  0  0  0  0  0
   30.4590   28.4910   47.0790 H   0  0  0  0  0  0  0  0  0  0  0  0
   30.0860   27.0830   46.0970 H   0  0  0  0  0  0  0  0  0  0  0  0
   31.2920   28.2480   45.4760 H   0  0  0  0  0  0  0  0  0  0  0  0
   32.5080   25.8820   46.2900 C   0  0  0  0  0  0  0  0  0  0  0  0
   33.5190   25.5830   46.7000 H   0  0  0  0  0  0  0  0  0  0  0  0
   32.7650   26.3240   45.2900 H   0  0  0  0  0  0  0  0  0  0  0  0
   31.7480   24.6970   46.1880 N   0  0  0  0  0  0  0  0  0  0  0  0
   30.6130   24.5470   45.4820 C   0  0  0  0  0  3  0  0  0  0  0  0
   29.8550   23.4060   45.3710 C   0  0  0  0  0  3  0  0  0  0  0  0
   30.2870   22.2770   46.0510 C   0  0  0  0  0  0  0  0  0  0  0  0
   29.6340   21.2200   45.9830 O   0  0  0  0  0  0  0  0  0  0  0  0
   31.4080   22.3790   46.7650 N   0  0  0  0  0  0  0  0  0  0  0  0
   32.0920   23.5360   46.8210 C   0  0  0  0  0  0  0  0  0  0  0  0
   33.1260   23.4640   47.5330 O   0  0  0  0  0  0  0  0  0  0  0  0
   31.6950   21.5190   47.2550 H   0  0  0  0  0  0  0  0  0  0  0  0
  1  2  1  0  0  0  0
  2  9  1  0  0  0  0
  2  3  2  0  0  0  0
  3  8  1  0  0  0  0
  4  3  1  0  0  0  0
  5  4  2  0  0  0  0
  6  1  2  0  0  0  0
  6  5  1  0  0  0  0
  7  1  1  0  0  0  0
  9 10  1  0  0  0  0
 10 18  1  0  0  0  0
 11 10  2  0  0  0  0
 12 11  1  0  0  0  0
 13 12  1  0  0  0  0
 13 20  1  0  0  0  0
 14 13  2  0  0  0  0
 15 16  2  0  0  0  0
 15 14  1  0  0  0  0
 16 17  1  0  0  0  0
 17 12  2  0  0  0  0
 17  9  1  0  0  0  0
 19 15  1  0  0  0  0
 20 21  1  0  0  0  0
 20 22  1  0  0  0  0
 23  5  1  0  0  0  0
 23 24  1  0  0  0  0
 24 27  1  0  0  0  0
 24 25  1  0  0  0  0
 26 24  1  0  0  0  0
 28 29  1  0  0  0  0
 28 23  1  0  0  0  0
 30 28  1  0  0  0  0
 31 28  1  0  0  0  0
 32 33  1  0  0  0  0
 32 23  1  0  0  0  0
 34 32  1  0  0  0  0
 35 32  1  0  0  0  0
 35 41  1  0  0  0  0
 36 35  1  0  0  0  0
 37 36  2  0  0  0  0
 37 38  1  0  0  0  0
 38 40  1  0  0  0  0
 39 38  2  0  0  0  0
 40 41  1  0  0  0  0
 40 43  1  0  0  0  0
 41 42  2  0  0  0  0
M  END
>  <minimizedAffinity>
-5.49542332

>  <minimizedRMSD>
3.06095314

$$$$
