
 OpenBabel03252514063D

 24 26  0  0  0  0  0  0  0  0999 V2000
   38.3600   31.8300   48.0430 N   0  0  0  0  0  0  0  0  0  0  0  0
   38.9180   33.0280   48.3210 C   0  0  0  0  0  0  0  0  0  0  0  0
   39.6560   33.4080   47.2470 N   0  0  0  0  0  0  0  0  0  0  0  0
   39.5460   32.4540   46.3300 C   0  0  0  0  0  0  0  0  0  0  0  0
   40.0610   32.2840   45.0550 C   0  0  0  0  0  0  0  0  0  0  0  0
   39.7680   31.1780   44.3240 N   0  0  0  0  0  0  0  0  0  0  0  0
   38.9720   30.2010   44.8020 C   0  0  0  0  0  0  0  0  0  0  0  0
   38.4850   30.3840   46.0370 N   0  0  0  0  0  0  0  0  0  0  0  0
   38.7360   31.4590   46.8140 C   0  0  0  0  0  0  0  0  0  0  0  0
   40.9070   33.2740   44.5110 N   0  0  0  0  0  0  0  0  0  0  0  0
   38.8390   33.6400   49.2160 H   0  0  0  0  0  0  0  0  0  0  0  0
   38.7470   29.3250   44.2080 H   0  0  0  0  0  0  0  0  0  0  0  0
   40.6850   34.2750   44.7420 H   0  0  0  0  0  0  0  0  0  0  0  0
   41.7060   32.9670   43.9110 H   0  0  0  0  0  0  0  0  0  0  0  0
   36.1900   30.8760   48.5620 C   0  0  0  0  0  0  0  0  0  0  0  0
   37.5170   31.1080   48.9290 C   0  0  0  0  0  0  0  0  0  0  0  0
   37.9240   30.6010   50.1730 C   0  0  0  0  0  0  0  0  0  0  0  0
   37.0460   29.9260   50.9540 N   0  0  0  0  0  0  0  0  0  0  0  0
   35.7670   29.7240   50.5590 C   0  0  0  0  0  0  0  0  0  0  0  0
   35.3610   30.1990   49.3780 N   0  0  0  0  0  0  0  0  0  0  0  0
   35.8680   31.2630   47.6050 H   0  0  0  0  0  0  0  0  0  0  0  0
   38.9540   30.7860   50.4480 H   0  0  0  0  0  0  0  0  0  0  0  0
   34.8110   28.9780   51.4290 C   0  0  0  0  0  2  0  0  0  0  0  0
   33.8720   28.8660   50.8410 H   0  0  0  0  0  0  0  0  0  0  0  0
  1  2  1  0  0  0  0
  1 16  1  0  0  0  0
  2 11  1  0  0  0  0
  3  2  2  0  0  0  0
  4  9  1  0  0  0  0
  4  3  1  0  0  0  0
  5  4  2  0  0  0  0
  6  7  2  0  0  0  0
  6  5  1  0  0  0  0
  7  8  1  0  0  0  0
  8  9  2  0  0  0  0
  9  1  1  0  0  0  0
 10 13  1  0  0  0  0
 10  5  1  0  0  0  0
 12  7  1  0  0  0  0
 14 10  1  0  0  0  0
 15 16  2  0  0  0  0
 15 20  1  0  0  0  0
 16 17  1  0  0  0  0
 17 22  1  0  0  0  0
 17 18  2  0  0  0  0
 19 18  1  0  0  0  0
 19 23  1  0  0  0  0
 20 19  2  0  0  0  0
 21 15  1  0  0  0  0
 24 23  1  0  0  0  0
M  END
>  <minimizedAffinity>
-4.47297907

>  <minimizedRMSD>
1.15205288

$$$$
