
 OpenBabel03252512483D

 44 48  0  0  1  0  0  0  0  0999 V2000
   38.7300   32.6360   44.4650 C   0  0  0  0  0  0  0  0  0  0  0  0
   39.4690   33.3040   43.9740 H   0  0  0  0  0  0  0  0  0  0  0  0
   37.9730   33.2670   44.9690 H   0  0  0  0  0  0  0  0  0  0  0  0
   38.1210   31.7840   43.4830 N   0  0  0  0  0  0  0  0  0  0  0  0
   36.8750   31.7360   42.9820 C   0  0  0  0  0  0  0  0  0  0  0  0
   36.8460   30.7420   42.0760 N   0  0  0  0  0  0  0  0  0  0  0  0
   38.0410   30.1490   41.9820 C   0  0  0  0  0  0  0  0  0  0  0  0
   38.4900   29.1080   41.2100 C   0  0  0  0  0  0  0  0  0  0  0  0
   37.7460   28.4940   40.3810 O   0  0  0  0  0  0  0  0  0  0  0  0
   39.7730   28.6840   41.3020 N   0  0  0  0  0  0  0  0  0  0  0  0
   40.5340   29.3390   42.1730 C   0  0  0  0  0  0  0  0  0  0  0  0
   41.9050   28.9610   42.3320 N   0  0  0  0  0  0  0  0  0  0  0  0
   40.1320   30.3670   42.9500 N   0  0  0  0  0  0  0  0  0  0  0  0
   38.8600   30.8100   42.8800 C   0  0  0  0  0  0  0  0  0  0  0  0
   36.1130   32.4050   43.3050 H   0  0  0  0  0  0  0  0  0  0  0  0
   42.3260   29.5880   41.6120 H   0  0  0  0  0  0  0  0  0  0  0  0
   41.7710   28.2410   43.1040 H   0  0  0  0  0  0  0  0  0  0  0  0
   40.1660   27.5950   40.4670 C   0  0  0  0  0  0  0  0  0  0  0  0
   39.7110   26.3090   40.7500 C   0  0  0  0  0  0  0  0  0  0  0  0
   40.4800   25.2710   39.4100 S   0  0  0  0  0  0  0  0  0  0  0  0
   41.3030   26.8260   38.6910 C   0  0  0  0  0  0  0  0  0  0  0  0
   41.9950   27.0400   37.7930 H   0  0  0  0  0  0  0  0  0  0  0  0
   40.9450   27.6180   39.3980 N   0  0  0  0  0  0  0  0  0  0  0  0
   39.5170   31.8640   45.5360 C   0  0  2  0  0  0  0  0  0  0  0  0
   39.7310   30.8520   45.1730 H   0  0  0  0  0  0  0  0  0  0  0  0
   36.9960   30.9210   48.0340 C   0  0  0  0  0  0  0  0  0  0  0  0
   37.3560   31.8590   49.0410 C   0  0  0  0  0  0  0  0  0  0  0  0
   38.7750   32.7720   48.3090 S   0  0  0  0  0  0  0  0  0  0  0  0
   38.6170   31.6850   46.7250 C   0  0  0  0  0  0  0  0  0  0  0  0
   37.7640   31.0250   46.9760 N   0  0  0  0  0  0  0  0  0  0  0  0
   36.8940   31.9970   50.0210 H   0  0  0  0  0  0  0  0  0  0  0  0
   35.9180   29.1090   49.3240 C   0  0  0  0  0  0  0  0  0  0  0  0
   35.8790   30.0180   48.2750 C   0  0  0  0  0  0  0  0  0  0  0  0
   34.7170   30.0070   47.4900 C   0  0  0  0  0  0  0  0  0  0  0  0
   33.7310   29.1400   47.7890 N   0  0  0  0  0  0  0  0  0  0  0  0
   33.8160   28.2820   48.8130 C   0  0  0  0  0  0  0  0  0  0  0  0
   34.9100   28.2690   49.5770 N   0  0  0  0  0  0  0  0  0  0  0  0
   36.8160   29.0970   49.9540 H   0  0  0  0  0  0  0  0  0  0  0  0
   34.7040   30.7270   46.6730 H   0  0  0  0  0  0  0  0  0  0  0  0
   33.0140   27.5930   49.0360 H   0  0  0  0  0  0  0  0  0  0  0  0
   40.7090   32.6190   45.9780 C   0  0  0  0  0  0  0  0  0  0  0  0
   41.3260   32.9270   45.1090 H   0  0  0  0  0  0  0  0  0  0  0  0
   41.3610   31.9270   46.5610 H   0  0  0  0  0  0  0  0  0  0  0  0
   40.4520   33.4510   46.6490 H   0  0  0  0  0  0  0  0  0  0  0  0
  1  3  1  0  0  0  0
  1 24  1  0  0  0  0
  2  1  1  0  0  0  0
  4  1  1  0  0  0  0
  5 15  1  0  0  0  0
  5  4  1  0  0  0  0
  6  5  2  0  0  0  0
  7  6  1  0  0  0  0
  7 14  2  0  0  0  0
  8 10  1  0  0  0  0
  8  7  1  0  0  0  0
  9  8  2  0  0  0  0
 10 11  1  0  0  0  0
 11 12  1  0  0  0  0
 11 13  2  0  0  0  0
 12 17  1  0  0  0  0
 14 13  1  0  0  0  0
 14  4  1  0  0  0  0
 16 12  1  0  0  0  0
 18 19  2  0  0  0  0
 18 10  1  0  0  0  0
 20 19  1  0  0  0  0
 21 23  2  0  0  0  0
 21 20  1  0  0  0  0
 22 21  1  0  0  0  0
 23 18  1  0  0  0  0
 24 25  1  6  0  0  0
 24 41  1  0  0  0  0
 24 29  1  0  0  0  0
 26 33  1  0  0  0  0
 26 27  2  0  0  0  0
 27 31  1  0  0  0  0
 28 27  1  0  0  0  0
 29 30  2  0  0  0  0
 29 28  1  0  0  0  0
 30 26  1  0  0  0  0
 32 37  1  0  0  0  0
 32 38  1  0  0  0  0
 33 32  2  0  0  0  0
 34 35  2  0  0  0  0
 34 33  1  0  0  0  0
 35 36  1  0  0  0  0
 36 40  1  0  0  0  0
 36 37  2  0  0  0  0
 39 34  1  0  0  0  0
 41 43  1  0  0  0  0
 41 44  1  0  0  0  0
 42 41  1  0  0  0  0
M  END
>  <minimizedAffinity>
-6.32670212

>  <minimizedRMSD>
1.67975104

$$$$
