
 OpenBabel03252514073D

 43 46  0  0  0  0  0  0  0  0999 V2000
   33.9690   29.8400   47.4580 C   0  0  0  0  0  0  0  0  0  0  0  0
   34.9630   29.5800   48.4350 C   0  0  0  0  0  0  0  0  0  0  0  0
   34.8510   28.3890   49.1350 C   0  0  0  0  0  0  0  0  0  0  0  0
   33.8290   27.5430   48.8680 N   0  0  0  0  0  0  0  0  0  0  0  0
   32.8940   27.8080   47.9330 C   0  0  0  0  0  0  0  0  0  0  0  0
   32.9760   28.9450   47.2470 N   0  0  0  0  0  0  0  0  0  0  0  0
   33.9950   30.7500   46.8770 H   0  0  0  0  0  0  0  0  0  0  0  0
   35.6140   28.2150   49.8700 H   0  0  0  0  0  0  0  0  0  0  0  0
   35.9890   30.5500   48.6110 N   0  0  0  0  0  0  0  0  0  0  0  0
   36.2700   31.1490   49.7820 C   0  0  0  0  0  0  0  0  0  0  0  0
   37.2950   32.0120   49.5910 N   0  0  0  0  0  0  0  0  0  0  0  0
   37.6350   31.9300   48.2880 C   0  0  0  0  0  0  0  0  0  0  0  0
   38.5890   32.5550   47.5080 C   0  0  0  0  0  0  0  0  0  0  0  0
   38.7200   32.2850   46.2020 N   0  0  0  0  0  0  0  0  0  0  0  0
   37.9200   31.3860   45.5870 C   0  0  0  0  0  0  0  0  0  0  0  0
   36.9940   30.7800   46.3470 N   0  0  0  0  0  0  0  0  0  0  0  0
   36.8210   31.0140   47.6560 C   0  0  0  0  0  0  0  0  0  0  0  0
   35.7610   30.9680   50.7130 H   0  0  0  0  0  0  0  0  0  0  0  0
   38.0310   31.1750   44.5370 H   0  0  0  0  0  0  0  0  0  0  0  0
   39.4540   33.5080   48.1020 N   0  0  0  0  0  0  0  0  0  0  0  0
   39.2510   34.5320   48.1440 H   0  0  0  0  0  0  0  0  0  0  0  0
   40.3750   33.4130   48.5750 H   0  0  0  0  0  0  0  0  0  0  0  0
   31.7940   26.8650   47.6400 C   0  0  0  0  0  0  0  0  0  0  0  0
   30.7670   26.9300   48.7800 C   0  0  0  0  0  0  0  0  0  0  0  0
   30.6100   28.0000   49.0470 H   0  0  0  0  0  0  0  0  0  0  0  0
   29.7770   26.5540   48.4390 H   0  0  0  0  0  0  0  0  0  0  0  0
   31.1110   26.3810   49.6620 H   0  0  0  0  0  0  0  0  0  0  0  0
   31.0100   27.3390   46.4150 C   0  0  0  0  0  0  0  0  0  0  0  0
   30.5780   28.3580   46.6530 H   0  0  0  0  0  0  0  0  0  0  0  0
   30.1410   26.7150   46.2080 H   0  0  0  0  0  0  0  0  0  0  0  0
   31.6340   27.4090   45.5090 H   0  0  0  0  0  0  0  0  0  0  0  0
   32.2230   25.4700   47.4140 C   0  0  0  0  0  0  0  0  0  0  0  0
   31.3190   24.9070   47.0350 H   0  0  0  0  0  0  0  0  0  0  0  0
   32.3970   25.0120   48.4250 H   0  0  0  0  0  0  0  0  0  0  0  0
   33.2700   25.2080   46.5040 N   0  0  0  0  0  0  0  0  0  0  0  0
   33.4000   25.7440   45.2780 C   0  0  0  0  0  3  0  0  0  0  0  0
   34.4050   25.5030   44.3730 C   0  0  0  0  0  3  0  0  0  0  0  0
   35.4050   24.6150   44.7430 C   0  0  0  0  0  0  0  0  0  0  0  0
   36.3380   24.3630   43.9580 O   0  0  0  0  0  0  0  0  0  0  0  0
   35.3180   24.0580   45.9520 N   0  0  0  0  0  0  0  0  0  0  0  0
   34.2980   24.3500   46.7780 C   0  0  0  0  0  0  0  0  0  0  0  0
   34.3640   23.7430   47.8770 O   0  0  0  0  0  0  0  0  0  0  0  0
   36.0790   23.4040   46.1880 H   0  0  0  0  0  0  0  0  0  0  0  0
  1  2  1  0  0  0  0
  2  9  1  0  0  0  0
  2  3  2  0  0  0  0
  3  8  1  0  0  0  0
  4  3  1  0  0  0  0
  5  4  2  0  0  0  0
  6  1  2  0  0  0  0
  6  5  1  0  0  0  0
  7  1  1  0  0  0  0
  9 10  1  0  0  0  0
 10 18  1  0  0  0  0
 11 10  2  0  0  0  0
 12 11  1  0  0  0  0
 13 20  1  0  0  0  0
 13 12  2  0  0  0  0
 14 13  1  0  0  0  0
 15 14  2  0  0  0  0
 15 16  1  0  0  0  0
 16 17  2  0  0  0  0
 17 12  1  0  0  0  0
 17  9  1  0  0  0  0
 19 15  1  0  0  0  0
 20 21  1  0  0  0  0
 20 22  1  0  0  0  0
 23  5  1  0  0  0  0
 23 24  1  0  0  0  0
 24 25  1  0  0  0  0
 24 27  1  0  0  0  0
 26 24  1  0  0  0  0
 28 29  1  0  0  0  0
 28 23  1  0  0  0  0
 30 28  1  0  0  0  0
 31 28  1  0  0  0  0
 32 23  1  0  0  0  0
 32 34  1  0  0  0  0
 33 32  1  0  0  0  0
 35 41  1  0  0  0  0
 35 32  1  0  0  0  0
 36 35  1  0  0  0  0
 37 38  1  0  0  0  0
 37 36  2  0  0  0  0
 38 40  1  0  0  0  0
 39 38  2  0  0  0  0
 40 43  1  0  0  0  0
 40 41  1  0  0  0  0
 41 42  2  0  0  0  0
M  END
>  <minimizedAffinity>
-5.49989843

>  <minimizedRMSD>
1.02501416

$$$$
