
 OpenBabel03252514073D

 43 46  0  0  0  0  0  0  0  0999 V2000
   34.0460   29.9020   47.5070 C   0  0  0  0  0  0  0  0  0  0  0  0
   35.0340   29.6420   48.4890 C   0  0  0  0  0  0  0  0  0  0  0  0
   34.9370   28.4370   49.1660 C   0  0  0  0  0  0  0  0  0  0  0  0
   33.9330   27.5780   48.8740 N   0  0  0  0  0  0  0  0  0  0  0  0
   33.0030   27.8440   47.9340 C   0  0  0  0  0  0  0  0  0  0  0  0
   33.0710   28.9930   47.2690 N   0  0  0  0  0  0  0  0  0  0  0  0
   34.0620   30.8230   46.9410 H   0  0  0  0  0  0  0  0  0  0  0  0
   35.6950   28.2630   49.9050 H   0  0  0  0  0  0  0  0  0  0  0  0
   36.0410   30.6270   48.6920 N   0  0  0  0  0  0  0  0  0  0  0  0
   36.2750   31.2370   49.8680 C   0  0  0  0  0  0  0  0  0  0  0  0
   37.2940   32.1120   49.7060 N   0  0  0  0  0  0  0  0  0  0  0  0
   37.6790   32.0250   48.4160 C   0  0  0  0  0  0  0  0  0  0  0  0
   38.6520   32.6580   47.6640 C   0  0  0  0  0  0  0  0  0  0  0  0
   38.8300   32.3800   46.3650 N   0  0  0  0  0  0  0  0  0  0  0  0
   38.0640   31.4670   45.7300 C   0  0  0  0  0  0  0  0  0  0  0  0
   37.1200   30.8540   46.4620 N   0  0  0  0  0  0  0  0  0  0  0  0
   36.9000   31.0950   47.7630 C   0  0  0  0  0  0  0  0  0  0  0  0
   35.7360   31.0560   50.7820 H   0  0  0  0  0  0  0  0  0  0  0  0
   38.2140   31.2490   44.6870 H   0  0  0  0  0  0  0  0  0  0  0  0
   39.4840   33.6260   48.2800 N   0  0  0  0  0  0  0  0  0  0  0  0
   39.2660   34.6470   48.3080 H   0  0  0  0  0  0  0  0  0  0  0  0
   40.3890   33.5470   48.7850 H   0  0  0  0  0  0  0  0  0  0  0  0
   31.9220   26.8860   47.6130 C   0  0  0  0  0  0  0  0  0  0  0  0
   30.8510   26.9590   48.7120 C   0  0  0  0  0  0  0  0  0  0  0  0
   30.6760   28.0310   48.9570 H   0  0  0  0  0  0  0  0  0  0  0  0
   29.8790   26.5690   48.3390 H   0  0  0  0  0  0  0  0  0  0  0  0
   31.1660   26.4250   49.6150 H   0  0  0  0  0  0  0  0  0  0  0  0
   31.1820   27.3370   46.3520 C   0  0  0  0  0  0  0  0  0  0  0  0
   30.7330   28.3540   46.5590 H   0  0  0  0  0  0  0  0  0  0  0  0
   30.3260   26.7020   46.1210 H   0  0  0  0  0  0  0  0  0  0  0  0
   31.8390   27.3990   45.4690 H   0  0  0  0  0  0  0  0  0  0  0  0
   32.3710   25.4920   47.4230 C   0  0  0  0  0  0  0  0  0  0  0  0
   31.4690   24.9020   47.0810 H   0  0  0  0  0  0  0  0  0  0  0  0
   32.5720   25.0700   48.4450 H   0  0  0  0  0  0  0  0  0  0  0  0
   33.4050   25.2190   46.5020 N   0  0  0  0  0  0  0  0  0  0  0  0
   33.5650   25.8040   45.3010 C   0  0  0  0  0  3  0  0  0  0  0  0
   34.5580   25.5530   44.3870 C   0  0  0  0  0  3  0  0  0  0  0  0
   35.5090   24.5980   44.7140 C   0  0  0  0  0  0  0  0  0  0  0  0
   36.4290   24.3340   43.9190 O   0  0  0  0  0  0  0  0  0  0  0  0
   35.3910   23.9900   45.8960 N   0  0  0  0  0  0  0  0  0  0  0  0
   34.3860   24.2960   46.7340 C   0  0  0  0  0  0  0  0  0  0  0  0
   34.4200   23.6370   47.8050 O   0  0  0  0  0  0  0  0  0  0  0  0
   36.1170   23.2890   46.1010 H   0  0  0  0  0  0  0  0  0  0  0  0
  1  2  1  0  0  0  0
  2  9  1  0  0  0  0
  2  3  2  0  0  0  0
  3  8  1  0  0  0  0
  4  3  1  0  0  0  0
  5  4  2  0  0  0  0
  6  1  2  0  0  0  0
  6  5  1  0  0  0  0
  7  1  1  0  0  0  0
  9 10  1  0  0  0  0
 10 18  1  0  0  0  0
 11 10  2  0  0  0  0
 12 11  1  0  0  0  0
 13 20  1  0  0  0  0
 13 12  2  0  0  0  0
 14 13  1  0  0  0  0
 15 14  2  0  0  0  0
 15 16  1  0  0  0  0
 16 17  2  0  0  0  0
 17 12  1  0  0  0  0
 17  9  1  0  0  0  0
 19 15  1  0  0  0  0
 20 21  1  0  0  0  0
 20 22  1  0  0  0  0
 23  5  1  0  0  0  0
 23 24  1  0  0  0  0
 24 25  1  0  0  0  0
 24 27  1  0  0  0  0
 26 24  1  0  0  0  0
 28 29  1  0  0  0  0
 28 23  1  0  0  0  0
 30 28  1  0  0  0  0
 31 28  1  0  0  0  0
 32 23  1  0  0  0  0
 32 34  1  0  0  0  0
 33 32  1  0  0  0  0
 35 41  1  0  0  0  0
 35 32  1  0  0  0  0
 36 35  1  0  0  0  0
 37 38  1  0  0  0  0
 37 36  2  0  0  0  0
 38 40  1  0  0  0  0
 39 38  2  0  0  0  0
 40 43  1  0  0  0  0
 40 41  1  0  0  0  0
 41 42  2  0  0  0  0
M  END
>  <minimizedAffinity>
-5.56880617

>  <minimizedRMSD>
0.827060819

$$$$
