
 OpenBabel03252513513D

 33 34  0  0  1  0  0  0  0  0999 V2000
   38.4580   31.5800   46.0580 C   0  0  0  0  0  0  0  0  0  0  0  0
   39.0560   32.5900   46.4920 O   0  0  0  0  0  0  0  0  0  0  0  0
   38.7860   31.2170   44.7170 N   0  0  0  0  0  0  0  0  0  0  0  0
   39.0230   29.8100   44.4690 C   0  0  0  0  0  0  0  0  0  0  0  0
   39.7600   29.5860   43.1700 C   0  0  0  0  0  0  0  0  0  0  0  0
   40.6260   30.6670   42.9940 O   0  0  0  0  0  0  0  0  0  0  0  0
   39.8080   31.7260   42.5450 C   0  0  0  0  0  0  0  0  0  0  0  0
   38.8840   32.2000   43.6420 C   0  0  1  0  0  0  0  0  0  0  0  0
   38.0140   29.3460   44.3280 H   0  0  0  0  0  0  0  0  0  0  0  0
   39.4850   29.2900   45.3220 H   0  0  0  0  0  0  0  0  0  0  0  0
   40.4250   28.6970   43.3180 H   0  0  0  0  0  0  0  0  0  0  0  0
   39.0920   29.4510   42.3050 H   0  0  0  0  0  0  0  0  0  0  0  0
   40.4010   32.5360   42.0880 H   0  0  0  0  0  0  0  0  0  0  0  0
   39.1700   31.2750   41.7440 H   0  0  0  0  0  0  0  0  0  0  0  0
   39.3300   33.1020   44.1360 H   0  0  0  0  0  0  0  0  0  0  0  0
   36.9490   29.7350   48.9880 C   0  0  0  0  0  0  0  0  0  0  0  0
   37.9100   30.4310   48.1790 C   0  0  0  0  0  0  0  0  0  0  0  0
   37.5150   30.8740   46.9030 C   0  0  0  0  0  0  0  0  0  0  0  0
   36.2410   30.6090   46.5310 N   0  0  0  0  0  0  0  0  0  0  0  0
   35.3670   29.9540   47.3190 C   0  0  0  0  0  0  0  0  0  0  0  0
   35.7210   29.5300   48.5190 N   0  0  0  0  0  0  0  0  0  0  0  0
   38.9110   30.5990   48.5610 H   0  0  0  0  0  0  0  0  0  0  0  0
   34.0120   29.7590   46.7290 C   0  0  0  0  0  0  0  0  0  0  0  0
   33.2440   30.9150   46.8790 F   0  0  0  0  0  0  0  0  0  0  0  0
   34.1370   29.5640   45.3670 F   0  0  0  0  0  0  0  0  0  0  0  0
   33.3630   28.6510   47.2540 F   0  0  0  0  0  0  0  0  0  0  0  0
   37.3710   29.3150   50.2330 O   0  0  0  0  0  0  0  0  0  0  0  0
   36.9540   29.8480   51.4380 C   0  0  0  0  0  0  0  0  0  0  0  0
   35.7020   29.4030   51.8410 F   0  0  0  0  0  0  0  0  0  0  0  0
   37.8440   29.7030   52.4580 F   0  0  0  0  0  0  0  0  0  0  0  0
   36.8280   31.2270   51.2000 F   0  0  0  0  0  0  0  0  0  0  0  0
   37.5360   32.6100   43.1440 C   0  0  0  0  0  0  0  0  0  0  0  0
   37.4040   33.7070   43.3190 H   0  0  0  0  0  0  0  0  0  0  0  0
  1  2  2  0  0  0  0
  1 18  1  0  0  0  0
  3  1  1  0  0  0  0
  4  3  1  0  0  0  0
  4 10  1  0  0  0  0
  5 11  1  0  0  0  0
  5  4  1  0  0  0  0
  6  5  1  0  0  0  0
  7  6  1  0  0  0  0
  7  8  1  0  0  0  0
  8 15  1  1  0  0  0
  8  3  1  0  0  0  0
  9  4  1  0  0  0  0
 12  5  1  0  0  0  0
 13  7  1  0  0  0  0
 14  7  1  0  0  0  0
 16 27  1  0  0  0  0
 17 22  1  0  0  0  0
 17 16  2  0  0  0  0
 18 17  1  0  0  0  0
 19 18  2  0  0  0  0
 19 20  1  0  0  0  0
 20 21  2  0  0  0  0
 21 16  1  0  0  0  0
 23 24  1  0  0  0  0
 23 26  1  0  0  0  0
 23 20  1  0  0  0  0
 25 23  1  0  0  0  0
 27 28  1  0  0  0  0
 28 29  1  0  0  0  0
 28 30  1  0  0  0  0
 31 28  1  0  0  0  0
 32 33  1  0  0  0  0
 32  8  1  0  0  0  0
M  END
>  <minimizedAffinity>
-6.34539604

>  <minimizedRMSD>
2.45017362

$$$$
