
 OpenBabel03252513563D

 22 23  0  0  1  0  0  0  0  0999 V2000
   36.8490   29.4110   49.7210 C   0  0  0  0  0  0  0  0  0  0  0  0
   36.8120   29.4520   50.8260 H   0  0  0  0  0  0  0  0  0  0  0  0
   37.3610   28.4930   49.3940 H   0  0  0  0  0  0  0  0  0  0  0  0
   38.4290   32.7180   49.3760 C   0  0  0  0  0  0  0  0  0  0  0  0
   38.9210   32.7070   48.0650 C   0  0  0  0  0  0  0  0  0  0  0  0
   38.7040   31.5570   47.3070 C   0  0  0  0  0  0  0  0  0  0  0  0
   38.0260   30.5340   47.9080 N   0  0  0  0  0  0  0  0  0  0  0  0
   37.5670   30.5750   49.1700 C   0  0  0  0  0  0  0  0  0  0  0  0
   37.7800   31.6910   49.9020 N   0  0  0  0  0  0  0  0  0  0  0  0
   38.5670   33.5740   50.0040 H   0  0  0  0  0  0  0  0  0  0  0  0
   39.4490   33.5610   47.6590 H   0  0  0  0  0  0  0  0  0  0  0  0
   39.0570   31.4850   46.2870 H   0  0  0  0  0  0  0  0  0  0  0  0
   35.4590   29.4190   49.1050 C   0  0  2  0  0  0  0  0  0  0  0  0
   34.2730   29.4620   50.0020 C   0  0  0  0  0  0  0  0  0  0  0  0
   34.6610   28.1730   49.3850 C   0  0  1  0  0  0  0  0  0  0  0  0
   35.3520   29.8720   48.0980 H   0  0  0  0  0  0  0  0  0  0  0  0
   34.4680   29.5250   51.1100 H   0  0  0  0  0  0  0  0  0  0  0  0
   33.3620   30.0110   49.7350 H   0  0  0  0  0  0  0  0  0  0  0  0
   35.1070   27.3660   49.9820 H   0  0  0  0  0  0  0  0  0  0  0  0
   33.8000   27.6760   48.2260 C   0  0  0  0  0  0  0  0  0  0  0  0
   32.3350   27.7390   48.6570 C   0  0  0  0  0  0  0  0  0  0  0  0
   32.1110   28.7630   49.0200 H   0  0  0  0  0  0  0  0  0  0  0  0
  1  2  1  0  0  0  0
  3  1  1  0  0  0  0
  4  9  1  0  0  0  0
  4 10  1  0  0  0  0
  5  4  2  0  0  0  0
  6  7  2  0  0  0  0
  6  5  1  0  0  0  0
  7  8  1  0  0  0  0
  8  1  1  0  0  0  0
  8  9  2  0  0  0  0
 11  5  1  0  0  0  0
 12  6  1  0  0  0  0
 13 16  1  6  0  0  0
 13 15  1  0  0  0  0
 13  1  1  0  0  0  0
 13 14  1  0  0  0  0
 14 17  1  0  0  0  0
 15 19  1  1  0  0  0
 15 14  1  0  0  0  0
 18 14  1  0  0  0  0
 20 21  1  0  0  0  0
 20 15  1  0  0  0  0
 21 22  1  0  0  0  0
M  END
>  <minimizedAffinity>
-4.58980513

>  <minimizedRMSD>
0.424212933

$$$$
