
 OpenBabel03252510173D

 19 20  0  0  0  0  0  0  0  0999 V2000
   37.9300   31.1150   48.1220 N   0  0  0  0  0  0  0  0  0  0  0  0
   38.2900   30.5450   46.9760 N   0  0  0  0  0  0  0  0  0  0  0  0
   39.0790   31.3810   46.2760 C   0  0  0  0  0  0  0  0  0  0  0  0
   39.1950   32.5250   47.0580 C   0  0  0  0  0  0  0  0  0  0  0  0
   38.4640   32.3270   48.2070 C   0  0  0  0  0  0  0  0  0  0  0  0
   39.4600   31.0680   45.3150 H   0  0  0  0  0  0  0  0  0  0  0  0
   39.7970   33.3460   46.6820 H   0  0  0  0  0  0  0  0  0  0  0  0
   37.6380   29.8920   50.2000 C   0  0  0  0  0  0  0  0  0  0  0  0
   37.1170   30.5170   49.0760 C   0  0  0  0  0  0  0  0  0  0  0  0
   35.7180   30.5070   48.9540 C   0  0  0  0  0  0  0  0  0  0  0  0
   34.9650   29.9080   49.9050 N   0  0  0  0  0  0  0  0  0  0  0  0
   35.5290   29.3120   50.9840 C   0  0  0  0  0  0  0  0  0  0  0  0
   36.8720   29.3030   51.1340 N   0  0  0  0  0  0  0  0  0  0  0  0
   38.6940   29.8300   50.4060 H   0  0  0  0  0  0  0  0  0  0  0  0
   35.2580   30.9810   48.0960 H   0  0  0  0  0  0  0  0  0  0  0  0
   34.9210   28.8350   51.7430 H   0  0  0  0  0  0  0  0  0  0  0  0
   38.4190   33.4010   49.2220 C   0  0  0  0  0  0  0  0  0  0  0  0
   39.5910   34.3190   49.2280 C   0  0  0  0  0  0  0  0  0  0  0  0
   39.2860   35.3910   49.2640 H   0  0  0  0  0  0  0  0  0  0  0  0
  1  5  1  0  0  0  0
  1  9  1  0  0  0  0
  2  1  1  0  0  0  0
  3  2  2  0  0  0  0
  3  4  1  0  0  0  0
  4  5  2  0  0  0  0
  5 17  1  0  0  0  0
  6  3  1  0  0  0  0
  7  4  1  0  0  0  0
  8 14  1  0  0  0  0
  8 13  1  0  0  0  0
  9  8  2  0  0  0  0
 10  9  1  0  0  0  0
 10 11  2  0  0  0  0
 11 12  1  0  0  0  0
 12 13  2  0  0  0  0
 12 16  1  0  0  0  0
 15 10  1  0  0  0  0
 17 18  1  0  0  0  0
 18 19  1  0  0  0  0
M  END
>  <minimizedAffinity>
-4.75663996

>  <minimizedRMSD>
1.68556368

$$$$
