
 OpenBabel03252514043D

 32 34  0  0  1  0  0  0  0  0999 V2000
   35.3020   29.2790   48.7900 C   0  0  2  0  0  0  0  0  0  0  0  0
   34.1270   29.1730   49.6490 C   0  0  0  0  0  0  0  0  0  0  0  0
   34.5760   27.9280   49.1010 C   0  0  1  0  0  0  0  0  0  0  0  0
   35.2750   29.6260   47.7400 H   0  0  0  0  0  0  0  0  0  0  0  0
   33.1980   29.6980   49.2870 H   0  0  0  0  0  0  0  0  0  0  0  0
   34.2760   29.4180   50.7390 H   0  0  0  0  0  0  0  0  0  0  0  0
   35.2250   27.2060   49.5940 H   0  0  0  0  0  0  0  0  0  0  0  0
   36.6610   29.3270   49.5060 C   0  0  0  0  0  0  0  0  0  0  0  0
   37.1970   28.4170   49.1430 H   0  0  0  0  0  0  0  0  0  0  0  0
   36.5060   29.2140   50.5900 H   0  0  0  0  0  0  0  0  0  0  0  0
   37.7490   32.8130   49.5430 C   0  0  0  0  0  0  0  0  0  0  0  0
   38.5760   32.8880   48.4020 C   0  0  0  0  0  0  0  0  0  0  0  0
   38.7410   31.7130   47.6320 C   0  0  0  0  0  0  0  0  0  0  0  0
   38.0920   30.5770   48.0400 N   0  0  0  0  0  0  0  0  0  0  0  0
   37.3200   30.5670   49.1350 C   0  0  0  0  0  0  0  0  0  0  0  0
   37.1590   31.6930   49.8750 N   0  0  0  0  0  0  0  0  0  0  0  0
   37.6450   33.7340   50.1100 H   0  0  0  0  0  0  0  0  0  0  0  0
   39.0910   33.7910   48.0760 H   0  0  0  0  0  0  0  0  0  0  0  0
   39.3590   31.7110   46.7510 H   0  0  0  0  0  0  0  0  0  0  0  0
   33.7280   27.3640   47.9800 C   0  0  0  0  0  0  0  0  0  0  0  0
   33.9520   26.1080   47.7600 O   0  0  0  0  0  0  0  0  0  0  0  0
   32.7800   28.0650   47.2290 O   0  0  0  0  0  0  0  0  0  0  0  0
   31.4640   28.1540   47.5770 C   0  0  0  0  0  0  0  0  0  0  0  0
   30.8900   27.5810   48.8090 C   0  0  0  0  0  0  0  0  0  0  0  0
   29.5640   27.7270   49.0620 C   0  0  0  0  0  0  0  0  0  0  0  0
   28.7430   28.4300   48.1370 C   0  0  0  0  0  0  0  0  0  0  0  0
   29.9310   28.9320   46.7960 S   0  0  0  0  0  0  0  0  0  0  0  0
   31.5500   27.0560   49.4780 H   0  0  0  0  0  0  0  0  0  0  0  0
   29.0630   27.3450   49.9300 H   0  0  0  0  0  0  0  0  0  0  0  0
   27.3800   28.7400   48.1130 C   0  0  0  0  0  2  0  0  0  0  0  0
   26.5080   27.5670   48.4680 C   0  0  0  0  0  2  0  0  0  0  0  0
   26.1980   26.9750   47.5600 H   0  0  0  0  0  0  0  0  0  0  0  0
  1  4  1  6  0  0  0
  1  3  1  0  0  0  0
  1  8  1  0  0  0  0
  1  2  1  0  0  0  0
  2  6  1  0  0  0  0
  3  7  1  1  0  0  0
  3  2  1  0  0  0  0
  5  2  1  0  0  0  0
  8 10  1  0  0  0  0
  9  8  1  0  0  0  0
 11 16  1  0  0  0  0
 11 17  1  0  0  0  0
 12 11  2  0  0  0  0
 13 14  2  0  0  0  0
 13 12  1  0  0  0  0
 14 15  1  0  0  0  0
 15  8  1  0  0  0  0
 15 16  2  0  0  0  0
 18 12  1  0  0  0  0
 19 13  1  0  0  0  0
 20  3  1  0  0  0  0
 21 20  2  0  0  0  0
 22 23  1  0  0  0  0
 22 20  1  0  0  0  0
 23 24  2  0  0  0  0
 24 25  1  0  0  0  0
 24 28  1  0  0  0  0
 25 29  1  0  0  0  0
 26 25  2  0  0  0  0
 27 23  1  0  0  0  0
 27 26  1  0  0  0  0
 30 26  1  0  0  0  0
 30 31  1  0  0  0  0
 32 31  1  0  0  0  0
M  END
>  <minimizedAffinity>
-5.356534

>  <minimizedRMSD>
1.05253911

$$$$
