
 OpenBabel03252514063D

 25 27  0  0  0  0  0  0  0  0999 V2000
   38.6860   32.2610   46.1130 N   0  0  0  0  0  0  0  0  0  0  0  0
   39.8470   32.9100   45.9860 C   0  0  0  0  0  0  0  0  0  0  0  0
   39.9740   33.3160   44.6950 N   0  0  0  0  0  0  0  0  0  0  0  0
   38.8770   32.9040   44.0420 C   0  0  0  0  0  0  0  0  0  0  0  0
   38.4620   33.0250   42.7360 C   0  0  0  0  0  0  0  0  0  0  0  0
   37.2780   32.5010   42.3360 N   0  0  0  0  0  0  0  0  0  0  0  0
   36.4600   31.8400   43.1980 C   0  0  0  0  0  0  0  0  0  0  0  0
   36.8980   31.7410   44.4650 N   0  0  0  0  0  0  0  0  0  0  0  0
   38.0560   32.2400   44.9130 C   0  0  0  0  0  0  0  0  0  0  0  0
   39.2420   33.6890   41.7840 N   0  0  0  0  0  0  0  0  0  0  0  0
   40.5710   33.0860   46.7830 H   0  0  0  0  0  0  0  0  0  0  0  0
   35.5090   31.4110   42.9050 H   0  0  0  0  0  0  0  0  0  0  0  0
   39.8080   33.0120   41.1950 H   0  0  0  0  0  0  0  0  0  0  0  0
   39.0790   34.7280   41.8780 H   0  0  0  0  0  0  0  0  0  0  0  0
   37.2990   30.6070   47.2470 C   0  0  0  0  0  0  0  0  0  0  0  0
   38.2060   31.6870   47.3270 C   0  0  0  0  0  0  0  0  0  0  0  0
   38.5620   32.1110   48.6010 C   0  0  0  0  0  0  0  0  0  0  0  0
   38.0380   31.4870   49.6960 N   0  0  0  0  0  0  0  0  0  0  0  0
   37.1710   30.4520   49.5650 C   0  0  0  0  0  0  0  0  0  0  0  0
   36.8080   30.0200   48.3520 N   0  0  0  0  0  0  0  0  0  0  0  0
   36.9520   30.1920   46.3100 H   0  0  0  0  0  0  0  0  0  0  0  0
   39.2520   32.9350   48.6580 H   0  0  0  0  0  0  0  0  0  0  0  0
   36.6030   29.7750   50.7720 C   0  0  0  0  0  2  0  0  0  0  0  0
   37.4860   29.9520   51.9700 C   0  0  0  0  0  2  0  0  0  0  0  0
   36.9490   30.5450   52.7350 H   0  0  0  0  0  0  0  0  0  0  0  0
  1 16  1  0  0  0  0
  2  1  1  0  0  0  0
  2 11  1  0  0  0  0
  3  2  2  0  0  0  0
  4  3  1  0  0  0  0
  4  9  1  0  0  0  0
  5  4  2  0  0  0  0
  6  5  1  0  0  0  0
  6  7  2  0  0  0  0
  7  8  1  0  0  0  0
  8  9  2  0  0  0  0
  9  1  1  0  0  0  0
 10 14  1  0  0  0  0
 10  5  1  0  0  0  0
 12  7  1  0  0  0  0
 13 10  1  0  0  0  0
 15 16  2  0  0  0  0
 15 20  1  0  0  0  0
 16 17  1  0  0  0  0
 17 22  1  0  0  0  0
 17 18  2  0  0  0  0
 19 18  1  0  0  0  0
 19 23  1  0  0  0  0
 20 19  2  0  0  0  0
 21 15  1  0  0  0  0
 23 24  1  0  0  0  0
 24 25  1  0  0  0  0
M  END
>  <minimizedAffinity>
-5.32830572

>  <minimizedRMSD>
3.35497808

$$$$
