
 OpenBabel03252514043D

 32 34  0  0  1  0  0  0  0  0999 V2000
   35.2550   29.4110   48.9560 C   0  0  2  0  0  0  0  0  0  0  0  0
   34.1450   29.2980   49.8960 C   0  0  0  0  0  0  0  0  0  0  0  0
   34.5230   28.0650   49.2730 C   0  0  1  0  0  0  0  0  0  0  0  0
   35.1600   29.7970   47.9240 H   0  0  0  0  0  0  0  0  0  0  0  0
   33.2040   29.8560   49.6230 H   0  0  0  0  0  0  0  0  0  0  0  0
   34.3800   29.5000   50.9800 H   0  0  0  0  0  0  0  0  0  0  0  0
   35.1890   27.3120   49.6900 H   0  0  0  0  0  0  0  0  0  0  0  0
   36.6650   29.4040   49.5710 C   0  0  0  0  0  0  0  0  0  0  0  0
   37.1420   28.4840   49.1560 H   0  0  0  0  0  0  0  0  0  0  0  0
   36.5860   29.2770   50.6610 H   0  0  0  0  0  0  0  0  0  0  0  0
   37.7890   32.8780   49.5280 C   0  0  0  0  0  0  0  0  0  0  0  0
   38.6110   32.9200   48.3810 C   0  0  0  0  0  0  0  0  0  0  0  0
   38.7600   31.7270   47.6360 C   0  0  0  0  0  0  0  0  0  0  0  0
   38.1020   30.6070   48.0720 N   0  0  0  0  0  0  0  0  0  0  0  0
   37.3350   30.6290   49.1700 C   0  0  0  0  0  0  0  0  0  0  0  0
   37.1890   31.7720   49.8860 N   0  0  0  0  0  0  0  0  0  0  0  0
   37.6980   33.8120   50.0750 H   0  0  0  0  0  0  0  0  0  0  0  0
   39.1350   33.8110   48.0340 H   0  0  0  0  0  0  0  0  0  0  0  0
   39.3740   31.6990   46.7530 H   0  0  0  0  0  0  0  0  0  0  0  0
   33.5810   27.5610   48.1990 C   0  0  0  0  0  0  0  0  0  0  0  0
   33.9190   26.3990   47.7360 O   0  0  0  0  0  0  0  0  0  0  0  0
   32.4470   28.2220   47.7180 O   0  0  0  0  0  0  0  0  0  0  0  0
   31.1740   27.8660   48.0530 C   0  0  0  0  0  0  0  0  0  0  0  0
   30.7150   27.6260   49.4340 C   0  0  0  0  0  0  0  0  0  0  0  0
   29.4220   27.2770   49.6590 C   0  0  0  0  0  0  0  0  0  0  0  0
   28.5250   27.1440   48.5630 C   0  0  0  0  0  0  0  0  0  0  0  0
   29.5840   27.5460   47.0860 S   0  0  0  0  0  0  0  0  0  0  0  0
   31.4290   27.7370   50.2310 H   0  0  0  0  0  0  0  0  0  0  0  0
   29.0020   27.0840   50.6280 H   0  0  0  0  0  0  0  0  0  0  0  0
   27.1720   26.8060   48.4700 C   0  0  0  0  0  2  0  0  0  0  0  0
   26.2610   27.9910   48.6360 C   0  0  0  0  0  2  0  0  0  0  0  0
   25.9560   28.1480   49.7110 H   0  0  0  0  0  0  0  0  0  0  0  0
  1  4  1  6  0  0  0
  1  3  1  0  0  0  0
  1  8  1  0  0  0  0
  1  2  1  0  0  0  0
  2  6  1  0  0  0  0
  3  7  1  1  0  0  0
  3  2  1  0  0  0  0
  5  2  1  0  0  0  0
  8 10  1  0  0  0  0
  9  8  1  0  0  0  0
 11 16  1  0  0  0  0
 11 17  1  0  0  0  0
 12 11  2  0  0  0  0
 13 14  2  0  0  0  0
 13 12  1  0  0  0  0
 14 15  1  0  0  0  0
 15  8  1  0  0  0  0
 15 16  2  0  0  0  0
 18 12  1  0  0  0  0
 19 13  1  0  0  0  0
 20  3  1  0  0  0  0
 21 20  2  0  0  0  0
 22 23  1  0  0  0  0
 22 20  1  0  0  0  0
 23 24  2  0  0  0  0
 24 25  1  0  0  0  0
 24 28  1  0  0  0  0
 25 29  1  0  0  0  0
 26 25  2  0  0  0  0
 27 23  1  0  0  0  0
 27 26  1  0  0  0  0
 30 26  1  0  0  0  0
 30 31  1  0  0  0  0
 31 32  1  0  0  0  0
M  END
>  <minimizedAffinity>
-5.65353918

>  <minimizedRMSD>
0.66770035

$$$$
