
 OpenBabel03252514063D

 25 27  0  0  0  0  0  0  0  0999 V2000
   38.6060   32.2720   46.3870 N   0  0  0  0  0  0  0  0  0  0  0  0
   39.7510   32.9510   46.2810 C   0  0  0  0  0  0  0  0  0  0  0  0
   39.9310   33.2900   44.9760 N   0  0  0  0  0  0  0  0  0  0  0  0
   38.8820   32.8070   44.2950 C   0  0  0  0  0  0  0  0  0  0  0  0
   38.5290   32.8430   42.9650 C   0  0  0  0  0  0  0  0  0  0  0  0
   37.3840   32.2580   42.5380 N   0  0  0  0  0  0  0  0  0  0  0  0
   36.5440   31.6190   43.3950 C   0  0  0  0  0  0  0  0  0  0  0  0
   36.9200   31.6040   44.6860 N   0  0  0  0  0  0  0  0  0  0  0  0
   38.0380   32.1640   45.1610 C   0  0  0  0  0  0  0  0  0  0  0  0
   39.3360   33.4790   42.0160 N   0  0  0  0  0  0  0  0  0  0  0  0
   40.4280   33.1950   47.1000 H   0  0  0  0  0  0  0  0  0  0  0  0
   35.6220   31.1440   43.0800 H   0  0  0  0  0  0  0  0  0  0  0  0
   39.9520   32.7900   41.4950 H   0  0  0  0  0  0  0  0  0  0  0  0
   39.1370   34.5160   42.0440 H   0  0  0  0  0  0  0  0  0  0  0  0
   37.6870   30.3940   47.6420 C   0  0  0  0  0  0  0  0  0  0  0  0
   38.0820   31.7500   47.6060 C   0  0  0  0  0  0  0  0  0  0  0  0
   37.9260   32.4770   48.7790 C   0  0  0  0  0  0  0  0  0  0  0  0
   37.4130   31.8730   49.8900 N   0  0  0  0  0  0  0  0  0  0  0  0
   37.0490   30.5670   49.8730 C   0  0  0  0  0  0  0  0  0  0  0  0
   37.1860   29.8390   48.7590 N   0  0  0  0  0  0  0  0  0  0  0  0
   37.7630   29.7310   46.7900 H   0  0  0  0  0  0  0  0  0  0  0  0
   38.2280   33.5100   48.7480 H   0  0  0  0  0  0  0  0  0  0  0  0
   36.4870   29.9150   51.0970 C   0  0  0  0  0  2  0  0  0  0  0  0
   37.5230   29.7700   52.1670 C   0  0  0  0  0  2  0  0  0  0  0  0
   37.2360   30.3870   53.0420 H   0  0  0  0  0  0  0  0  0  0  0  0
  1 16  1  0  0  0  0
  2  1  1  0  0  0  0
  2 11  1  0  0  0  0
  3  2  2  0  0  0  0
  4  3  1  0  0  0  0
  4  9  1  0  0  0  0
  5  4  2  0  0  0  0
  6  5  1  0  0  0  0
  6  7  2  0  0  0  0
  7  8  1  0  0  0  0
  8  9  2  0  0  0  0
  9  1  1  0  0  0  0
 10 14  1  0  0  0  0
 10  5  1  0  0  0  0
 12  7  1  0  0  0  0
 13 10  1  0  0  0  0
 15 20  1  0  0  0  0
 16 15  2  0  0  0  0
 16 17  1  0  0  0  0
 17 18  2  0  0  0  0
 19 18  1  0  0  0  0
 19 23  1  0  0  0  0
 20 19  2  0  0  0  0
 21 15  1  0  0  0  0
 22 17  1  0  0  0  0
 23 24  1  0  0  0  0
 24 25  1  0  0  0  0
M  END
>  <minimizedAffinity>
-5.24639368

>  <minimizedRMSD>
3.16660357

$$$$
