
 OpenBabel03252513203D

 15 15  0  0  0  0  0  0  0  0999 V2000
   35.6860   28.9640   50.1400 C   0  0  0  0  0  0  0  0  0  0  0  0
   36.3260   30.1200   49.6950 C   0  0  0  0  0  0  0  0  0  0  0  0
   36.0670   30.5240   48.3880 C   0  0  0  0  0  0  0  0  0  0  0  0
   35.2180   29.8000   47.6000 N   0  0  0  0  0  0  0  0  0  0  0  0
   34.6180   28.6720   48.0950 C   0  0  0  0  0  0  0  0  0  0  0  0
   34.8600   28.2800   49.3410 N   0  0  0  0  0  0  0  0  0  0  0  0
   35.8950   28.6620   51.1520 H   0  0  0  0  0  0  0  0  0  0  0  0
   36.5280   31.4200   47.9590 H   0  0  0  0  0  0  0  0  0  0  0  0
   37.2520   30.9460   50.5050 C   0  0  0  0  0  0  0  0  0  0  0  0
   38.5460   30.8970   50.1310 F   0  0  0  0  0  0  0  0  0  0  0  0
   37.2170   30.5450   51.8310 F   0  0  0  0  0  0  0  0  0  0  0  0
   36.8450   32.2860   50.4690 F   0  0  0  0  0  0  0  0  0  0  0  0
   33.7020   27.9190   47.1960 C   0  0  0  0  0  0  0  0  0  0  0  0
   33.7230   26.4550   47.5260 C   0  0  0  0  0  0  0  0  0  0  0  0
   34.2730   26.3230   48.4900 H   0  0  0  0  0  0  0  0  0  0  0  0
  1  7  1  0  0  0  0
  2  1  1  0  0  0  0
  2  9  1  0  0  0  0
  3  2  2  0  0  0  0
  4  5  2  0  0  0  0
  4  3  1  0  0  0  0
  5  6  1  0  0  0  0
  6  1  2  0  0  0  0
  8  3  1  0  0  0  0
  9 11  1  0  0  0  0
 10  9  1  0  0  0  0
 12  9  1  0  0  0  0
 13 14  1  0  0  0  0
 13  5  1  0  0  0  0
 14 15  1  0  0  0  0
M  END
>  <minimizedAffinity>
-4.54378462

>  <minimizedRMSD>
0.153196618

$$$$
