
 OpenBabel03252514063D

 25 27  0  0  0  0  0  0  0  0999 V2000
   38.9500   32.4300   46.1360 N   0  0  0  0  0  0  0  0  0  0  0  0
   40.0580   33.1120   45.8340 C   0  0  0  0  0  0  0  0  0  0  0  0
   40.0510   33.3720   44.4990 N   0  0  0  0  0  0  0  0  0  0  0  0
   38.9270   32.8410   43.9980 C   0  0  0  0  0  0  0  0  0  0  0  0
   38.3950   32.7940   42.7300 C   0  0  0  0  0  0  0  0  0  0  0  0
   37.2110   32.1750   42.5000 N   0  0  0  0  0  0  0  0  0  0  0  0
   36.5070   31.5810   43.5010 C   0  0  0  0  0  0  0  0  0  0  0  0
   37.0580   31.6470   44.7260 N   0  0  0  0  0  0  0  0  0  0  0  0
   38.2210   32.2440   45.0090 C   0  0  0  0  0  0  0  0  0  0  0  0
   39.0530   33.3790   41.6440 N   0  0  0  0  0  0  0  0  0  0  0  0
   40.8370   33.4090   46.5370 H   0  0  0  0  0  0  0  0  0  0  0  0
   35.5600   31.0800   43.3450 H   0  0  0  0  0  0  0  0  0  0  0  0
   39.6030   32.6650   41.0840 H   0  0  0  0  0  0  0  0  0  0  0  0
   38.8420   34.4130   41.6380 H   0  0  0  0  0  0  0  0  0  0  0  0
   38.1140   30.6620   47.5940 C   0  0  0  0  0  0  0  0  0  0  0  0
   38.6070   31.9780   47.4440 C   0  0  0  0  0  0  0  0  0  0  0  0
   38.7200   32.7380   48.6020 C   0  0  0  0  0  0  0  0  0  0  0  0
   38.3610   32.2010   49.8050 N   0  0  0  0  0  0  0  0  0  0  0  0
   37.8940   30.9310   49.8940 C   0  0  0  0  0  0  0  0  0  0  0  0
   37.7740   30.1730   48.7980 N   0  0  0  0  0  0  0  0  0  0  0  0
   37.9850   29.9800   46.7640 H   0  0  0  0  0  0  0  0  0  0  0  0
   39.0940   33.7390   48.4840 H   0  0  0  0  0  0  0  0  0  0  0  0
   37.5040   30.3530   51.2180 C   0  0  0  0  0  2  0  0  0  0  0  0
   36.2930   29.4790   51.1030 C   0  0  0  0  0  2  0  0  0  0  0  0
   36.5690   28.4370   51.3530 H   0  0  0  0  0  0  0  0  0  0  0  0
  1 16  1  0  0  0  0
  2  1  1  0  0  0  0
  2 11  1  0  0  0  0
  3  2  2  0  0  0  0
  4  3  1  0  0  0  0
  4  9  1  0  0  0  0
  5  4  2  0  0  0  0
  6  5  1  0  0  0  0
  6  7  2  0  0  0  0
  7  8  1  0  0  0  0
  8  9  2  0  0  0  0
  9  1  1  0  0  0  0
 10  5  1  0  0  0  0
 12  7  1  0  0  0  0
 13 10  1  0  0  0  0
 14 10  1  0  0  0  0
 15 20  1  0  0  0  0
 16 15  2  0  0  0  0
 16 17  1  0  0  0  0
 17 18  2  0  0  0  0
 18 19  1  0  0  0  0
 19 23  1  0  0  0  0
 20 19  2  0  0  0  0
 21 15  1  0  0  0  0
 22 17  1  0  0  0  0
 24 23  1  0  0  0  0
 24 25  1  0  0  0  0
M  END
>  <minimizedAffinity>
-5.75660849

>  <minimizedRMSD>
3.5128808

$$$$
