
 OpenBabel03252513033D

 31 33  0  0  0  0  0  0  0  0999 V2000
   38.1610   31.8740   45.8920 N   0  0  0  0  0  0  0  0  0  0  0  0
   39.2880   32.5820   45.8520 C   0  0  0  0  0  0  0  0  0  0  0  0
   39.8010   33.1890   44.7320 C   0  0  0  0  0  0  0  0  0  0  0  0
   39.1310   33.0820   43.5410 C   0  0  0  0  0  0  0  0  0  0  0  0
   39.5420   33.6090   42.4900 O   0  0  0  0  0  0  0  0  0  0  0  0
   38.0150   32.3880   43.5590 N   0  0  0  0  0  0  0  0  0  0  0  0
   37.5420   31.8080   44.6690 C   0  0  0  0  0  0  0  0  0  0  0  0
   36.4570   31.1620   44.5710 O   0  0  0  0  0  0  0  0  0  0  0  0
   39.8340   32.6760   46.7950 H   0  0  0  0  0  0  0  0  0  0  0  0
   40.7230   33.7390   44.8150 H   0  0  0  0  0  0  0  0  0  0  0  0
   37.2850   32.2540   42.3290 C   0  0  0  0  0  0  0  0  0  0  0  0
   36.3010   33.1810   41.9720 C   0  0  0  0  0  0  0  0  0  0  0  0
   35.8020   32.7600   40.7410 C   0  0  0  0  0  0  0  0  0  0  0  0
   36.5110   31.6070   40.4250 C   0  0  0  0  0  0  0  0  0  0  0  0
   36.3240   31.0630   39.5090 H   0  0  0  0  0  0  0  0  0  0  0  0
   37.3720   31.3330   41.3710 O   0  0  0  0  0  0  0  0  0  0  0  0
   37.5670   31.2250   46.9840 C   0  0  0  0  0  0  0  0  0  0  0  0
   37.3840   30.1530   46.7220 H   0  0  0  0  0  0  0  0  0  0  0  0
   36.5510   31.6590   47.1490 H   0  0  0  0  0  0  0  0  0  0  0  0
   38.2600   31.2230   48.3030 C   0  0  0  0  0  0  0  0  0  0  0  0
   38.4330   32.2720   48.6180 H   0  0  0  0  0  0  0  0  0  0  0  0
   39.2760   30.7610   48.2040 H   0  0  0  0  0  0  0  0  0  0  0  0
   35.6680   29.1990   50.1940 C   0  0  0  0  0  0  0  0  0  0  0  0
   36.3580   29.8200   49.1240 C   0  0  0  0  0  0  0  0  0  0  0  0
   37.4960   30.5530   49.3660 C   0  0  0  0  0  0  0  0  0  0  0  0
   37.9120   30.6460   50.6670 N   0  0  0  0  0  0  0  0  0  0  0  0
   37.2650   30.0650   51.6660 C   0  0  0  0  0  0  0  0  0  0  0  0
   36.1570   29.3490   51.4420 N   0  0  0  0  0  0  0  0  0  0  0  0
   34.7650   28.6220   49.9720 H   0  0  0  0  0  0  0  0  0  0  0  0
   36.0150   29.7380   48.0890 H   0  0  0  0  0  0  0  0  0  0  0  0
   37.6080   30.1460   52.6970 H   0  0  0  0  0  0  0  0  0  0  0  0
  1 17  1  0  0  0  0
  2  1  1  0  0  0  0
  2  9  1  0  0  0  0
  3 10  1  0  0  0  0
  3  2  2  0  0  0  0
  4  6  1  0  0  0  0
  4  3  1  0  0  0  0
  5  4  2  0  0  0  0
  6  7  1  0  0  0  0
  7  1  1  0  0  0  0
  8  7  2  0  0  0  0
 11  6  1  0  0  0  0
 12 11  2  0  0  0  0
 13 12  1  0  0  0  0
 14 13  2  0  0  0  0
 14 16  1  0  0  0  0
 15 14  1  0  0  0  0
 16 11  1  0  0  0  0
 17 19  1  0  0  0  0
 17 20  1  0  0  0  0
 18 17  1  0  0  0  0
 20 21  1  0  0  0  0
 20 25  1  0  0  0  0
 22 20  1  0  0  0  0
 23 28  1  0  0  0  0
 24 25  1  0  0  0  0
 24 23  2  0  0  0  0
 25 26  2  0  0  0  0
 26 27  1  0  0  0  0
 27 31  1  0  0  0  0
 28 27  2  0  0  0  0
 29 23  1  0  0  0  0
 30 24  1  0  0  0  0
M  END
>  <minimizedAffinity>
-5.12797689

>  <minimizedRMSD>
1.29358518

$$$$
