
 OpenBabel03252514063D

 25 27  0  0  0  0  0  0  0  0999 V2000
   36.7870   31.0270   48.1490 N   0  0  0  0  0  0  0  0  0  0  0  0
   37.2070   31.8450   49.1190 C   0  0  0  0  0  0  0  0  0  0  0  0
   38.2050   32.6230   48.6230 N   0  0  0  0  0  0  0  0  0  0  0  0
   38.3840   32.2670   47.3420 C   0  0  0  0  0  0  0  0  0  0  0  0
   39.2420   32.7020   46.3580 C   0  0  0  0  0  0  0  0  0  0  0  0
   39.2080   32.1530   45.1200 N   0  0  0  0  0  0  0  0  0  0  0  0
   38.3360   31.1600   44.8010 C   0  0  0  0  0  0  0  0  0  0  0  0
   37.5140   30.7600   45.7870 N   0  0  0  0  0  0  0  0  0  0  0  0
   37.5040   31.2670   47.0250 C   0  0  0  0  0  0  0  0  0  0  0  0
   40.1700   33.7190   46.6020 N   0  0  0  0  0  0  0  0  0  0  0  0
   36.8160   31.8830   50.1360 H   0  0  0  0  0  0  0  0  0  0  0  0
   38.2880   30.7040   43.8190 H   0  0  0  0  0  0  0  0  0  0  0  0
   41.1350   33.3310   46.8120 H   0  0  0  0  0  0  0  0  0  0  0  0
   39.6810   34.6510   46.5160 H   0  0  0  0  0  0  0  0  0  0  0  0
   34.6050   30.1750   47.4700 C   0  0  0  0  0  0  0  0  0  0  0  0
   35.7470   30.0630   48.2950 C   0  0  0  0  0  0  0  0  0  0  0  0
   35.7650   29.0050   49.1950 C   0  0  0  0  0  0  0  0  0  0  0  0
   34.7110   28.1390   49.2480 N   0  0  0  0  0  0  0  0  0  0  0  0
   33.6380   28.2910   48.4330 C   0  0  0  0  0  0  0  0  0  0  0  0
   33.5900   29.2990   47.5550 N   0  0  0  0  0  0  0  0  0  0  0  0
   34.4810   30.9570   46.7320 H   0  0  0  0  0  0  0  0  0  0  0  0
   36.6360   28.9230   49.8220 H   0  0  0  0  0  0  0  0  0  0  0  0
   32.4880   27.3360   48.5000 C   0  0  0  0  0  2  0  0  0  0  0  0
   31.2910   27.8650   47.7730 C   0  0  0  0  0  2  0  0  0  0  0  0
   31.0660   27.2070   46.9100 H   0  0  0  0  0  0  0  0  0  0  0  0
  1 16  1  0  0  0  0
  1  2  1  0  0  0  0
  2 11  1  0  0  0  0
  3  2  2  0  0  0  0
  4  3  1  0  0  0  0
  5 10  1  0  0  0  0
  5  4  2  0  0  0  0
  6  5  1  0  0  0  0
  7  6  2  0  0  0  0
  7  8  1  0  0  0  0
  8  9  2  0  0  0  0
  9  4  1  0  0  0  0
  9  1  1  0  0  0  0
 10 13  1  0  0  0  0
 12  7  1  0  0  0  0
 14 10  1  0  0  0  0
 15 20  2  0  0  0  0
 15 16  1  0  0  0  0
 16 17  2  0  0  0  0
 17 18  1  0  0  0  0
 17 22  1  0  0  0  0
 19 23  1  0  0  0  0
 19 18  2  0  0  0  0
 20 19  1  0  0  0  0
 21 15  1  0  0  0  0
 24 23  1  0  0  0  0
 25 24  1  0  0  0  0
M  END
>  <minimizedAffinity>
-5.16229582

>  <minimizedRMSD>
2.28398657

$$$$
