
 OpenBabel03252511393D

 38 40  0  0  1  0  0  0  0  0999 V2000
   33.8050   29.2970   47.7810 C   0  0  0  0  0  0  0  0  0  0  0  0
   33.6970   30.2610   46.8130 C   0  0  0  0  0  0  0  0  0  0  0  0
   32.5960   30.0840   46.0350 N   0  0  0  0  0  0  0  0  0  0  0  0
   31.9750   28.9990   46.4910 C   0  0  0  0  0  0  0  0  0  0  0  0
   32.7050   28.5190   47.5500 N   0  0  0  0  0  0  0  0  0  0  0  0
   34.4600   31.0530   46.7450 H   0  0  0  0  0  0  0  0  0  0  0  0
   31.0670   28.6580   46.0270 H   0  0  0  0  0  0  0  0  0  0  0  0
   34.6970   28.9570   48.8320 C   0  0  0  0  0  0  0  0  0  0  0  0
   34.3940   28.0410   49.4220 H   0  0  0  0  0  0  0  0  0  0  0  0
   35.6370   28.5540   48.3200 H   0  0  0  0  0  0  0  0  0  0  0  0
   35.1640   29.9760   49.7560 C   0  0  2  0  0  0  0  0  0  0  0  0
   34.4390   30.7560   49.9830 H   0  0  0  0  0  0  0  0  0  0  0  0
   36.4100   30.6830   49.2690 C   0  0  0  0  0  0  0  0  0  0  0  0
   36.7820   31.8480   49.9340 C   0  0  0  0  0  0  0  0  0  0  0  0
   37.9360   32.4820   49.4240 C   0  0  0  0  0  0  0  0  0  0  0  0
   38.5910   31.9470   48.3620 N   0  0  0  0  0  0  0  0  0  0  0  0
   38.1810   30.7860   47.7370 C   0  0  0  0  0  0  0  0  0  0  0  0
   37.0710   30.1540   48.2070 N   0  0  0  0  0  0  0  0  0  0  0  0
   36.2470   32.2390   50.7620 H   0  0  0  0  0  0  0  0  0  0  0  0
   38.3050   33.3940   49.8730 H   0  0  0  0  0  0  0  0  0  0  0  0
   38.6970   30.3730   46.9060 H   0  0  0  0  0  0  0  0  0  0  0  0
   35.5400   29.2560   51.1070 C   0  0  0  0  0  0  0  0  0  0  0  0
   34.8860   28.3900   51.2330 H   0  0  0  0  0  0  0  0  0  0  0  0
   35.3290   29.9860   51.9080 H   0  0  0  0  0  0  0  0  0  0  0  0
   36.6140   29.0190   51.1050 H   0  0  0  0  0  0  0  0  0  0  0  0
   32.2690   27.3190   48.2630 C   0  0  0  0  0  0  0  0  0  0  0  0
   32.9550   27.0670   49.1050 H   0  0  0  0  0  0  0  0  0  0  0  0
   32.3640   26.4720   47.5560 H   0  0  0  0  0  0  0  0  0  0  0  0
   30.9050   27.3950   48.6980 N   0  0  0  0  0  0  0  0  0  0  0  0
   30.4010   28.0450   49.7610 C   0  0  0  0  0  0  0  0  0  0  0  0
   29.0640   28.0520   50.0950 C   0  0  0  0  0  0  0  0  0  0  0  0
   28.1540   27.3650   49.3190 C   0  0  0  0  0  0  0  0  0  0  0  0
   26.7700   27.3590   49.6460 N   0  0  0  0  0  0  0  0  0  0  0  0
   28.6330   26.7060   48.2480 N   0  0  0  0  0  0  0  0  0  0  0  0
   29.9680   26.7280   47.9580 C   0  0  0  0  0  0  0  0  0  0  0  0
   30.2040   26.0540   46.9240 O   0  0  0  0  0  0  0  0  0  0  0  0
   26.0950   26.9650   48.9470 H   0  0  0  0  0  0  0  0  0  0  0  0
   26.4750   27.7480   50.5670 H   0  0  0  0  0  0  0  0  0  0  0  0
  1  8  1  0  0  0  0
  2  1  2  0  0  0  0
  3  4  2  0  0  0  0
  3  2  1  0  0  0  0
  4  5  1  0  0  0  0
  5  1  1  0  0  0  0
  5 26  1  0  0  0  0
  6  2  1  0  0  0  0
  7  4  1  0  0  0  0
  8  9  1  0  0  0  0
  8 11  1  0  0  0  0
 10  8  1  0  0  0  0
 11 12  1  1  0  0  0
 11 22  1  0  0  0  0
 13 11  1  0  0  0  0
 13 14  1  0  0  0  0
 14 19  1  0  0  0  0
 15 20  1  0  0  0  0
 15 14  2  0  0  0  0
 16 15  1  0  0  0  0
 17 18  1  0  0  0  0
 17 16  2  0  0  0  0
 18 13  2  0  0  0  0
 21 17  1  0  0  0  0
 22 23  1  0  0  0  0
 22 24  1  0  0  0  0
 25 22  1  0  0  0  0
 26 29  1  0  0  0  0
 26 27  1  0  0  0  0
 28 26  1  0  0  0  0
 29 30  1  0  0  0  0
 30 31  2  0  0  0  0
 32 33  1  0  0  0  0
 32 31  1  0  0  0  0
 33 38  1  0  0  0  0
 34 32  2  0  0  0  0
 35 34  1  0  0  0  0
 35 29  1  0  0  0  0
 36 35  2  0  0  0  0
 37 33  1  0  0  0  0
M  END
>  <minimizedAffinity>
-5.92717028

>  <minimizedRMSD>
2.5529418

$$$$
