
 OpenBabel03252512383D

 41 44  0  0  1  0  0  0  0  0999 V2000
   39.1110   30.7670   46.4280 C   0  0  2  0  0  0  0  0  0  0  0  0
   40.1790   31.6470   46.0080 C   0  0  0  0  0  0  0  0  0  0  0  0
   40.9720   31.1530   44.8460 C   0  0  0  0  0  0  0  0  0  0  0  0
   40.1510   30.6130   43.7460 C   0  0  0  0  0  0  0  0  0  0  0  0
   38.9860   29.8350   44.1570 C   0  0  0  0  0  0  0  0  0  0  0  0
   38.1680   30.5160   45.3150 C   0  0  2  0  0  0  0  0  0  0  0  0
   39.5380   29.7590   46.6840 H   0  0  0  0  0  0  0  0  0  0  0  0
   40.9370   31.5990   46.8570 H   0  0  0  0  0  0  0  0  0  0  0  0
   40.0230   32.7150   45.9180 H   0  0  0  0  0  0  0  0  0  0  0  0
   41.7480   30.4080   45.1310 H   0  0  0  0  0  0  0  0  0  0  0  0
   41.5640   32.0120   44.4280 H   0  0  0  0  0  0  0  0  0  0  0  0
   39.8170   31.4450   43.0750 H   0  0  0  0  0  0  0  0  0  0  0  0
   40.7980   29.9580   43.1300 H   0  0  0  0  0  0  0  0  0  0  0  0
   39.1640   28.7800   44.4410 H   0  0  0  0  0  0  0  0  0  0  0  0
   38.2390   29.7960   43.3240 H   0  0  0  0  0  0  0  0  0  0  0  0
   37.3980   29.7070   45.4970 H   0  0  0  0  0  0  0  0  0  0  0  0
   38.6350   32.4690   48.3010 C   0  0  0  0  0  0  0  0  0  0  0  0
   38.3900   31.2300   47.6130 C   0  0  0  0  0  0  0  0  0  0  0  0
   37.4140   30.4110   48.0620 C   0  0  0  0  0  0  0  0  0  0  0  0
   36.6990   30.8140   49.1660 N   0  0  0  0  0  0  0  0  0  0  0  0
   36.9570   32.0070   49.8060 C   0  0  0  0  0  0  0  0  0  0  0  0
   37.9470   32.8420   49.3550 N   0  0  0  0  0  0  0  0  0  0  0  0
   39.4280   33.0690   47.8870 H   0  0  0  0  0  0  0  0  0  0  0  0
   37.1320   29.4590   47.6350 H   0  0  0  0  0  0  0  0  0  0  0  0
   36.2910   32.1440   50.6510 H   0  0  0  0  0  0  0  0  0  0  0  0
   37.6110   31.7260   44.7260 C   0  0  0  0  0  0  0  0  0  0  0  0
   37.9590   32.9310   44.9960 O   0  0  0  0  0  0  0  0  0  0  0  0
   36.6320   31.5030   43.8180 O   0  0  0  0  0  0  0  0  0  0  0  0
   36.4610   32.4350   42.7570 C   0  0  0  0  0  0  0  0  0  0  0  0
   37.3840   32.5340   41.7100 C   0  0  0  0  0  0  0  0  0  0  0  0
   36.8740   33.5320   40.8980 C   0  0  0  0  0  0  0  0  0  0  0  0
   35.7110   34.0010   41.4310 N   0  0  0  0  0  0  0  0  0  0  0  0
   35.4940   33.3220   42.5420 N   0  0  0  0  0  0  0  0  0  0  0  0
   38.2990   31.9980   41.5120 H   0  0  0  0  0  0  0  0  0  0  0  0
   37.2720   33.9420   39.9610 H   0  0  0  0  0  0  0  0  0  0  0  0
   34.8890   35.0280   40.8890 C   0  0  0  0  0  0  0  0  0  0  0  0
   34.2930   35.3120   39.6770 C   0  0  0  0  0  0  0  0  0  0  0  0
   33.6130   36.5060   39.8390 C   0  0  0  0  0  0  0  0  0  0  0  0
   33.8230   36.9000   41.1470 C   0  0  0  0  0  0  0  0  0  0  0  0
   33.4020   37.8110   41.5540 H   0  0  0  0  0  0  0  0  0  0  0  0
   34.5800   36.0050   41.7390 O   0  0  0  0  0  0  0  0  0  0  0  0
  1  7  1  1  0  0  0
  1 18  1  0  0  0  0
  2  1  1  0  0  0  0
  2  8  1  0  0  0  0
  3 10  1  0  0  0  0
  3  2  1  0  0  0  0
  4  5  1  0  0  0  0
  4  3  1  0  0  0  0
  5 14  1  0  0  0  0
  5  6  1  0  0  0  0
  6 16  1  1  0  0  0
  6  1  1  0  0  0  0
  9  2  1  0  0  0  0
 11  3  1  0  0  0  0
 12  4  1  0  0  0  0
 13  4  1  0  0  0  0
 15  5  1  0  0  0  0
 17 22  1  0  0  0  0
 18 19  1  0  0  0  0
 18 17  2  0  0  0  0
 19 20  2  0  0  0  0
 20 21  1  0  0  0  0
 21 25  1  0  0  0  0
 22 21  2  0  0  0  0
 23 17  1  0  0  0  0
 24 19  1  0  0  0  0
 26 27  2  0  0  0  0
 26  6  1  0  0  0  0
 28 26  1  0  0  0  0
 29 28  1  0  0  0  0
 30 29  1  0  0  0  0
 31 32  1  0  0  0  0
 31 30  2  0  0  0  0
 32 33  1  0  0  0  0
 33 29  2  0  0  0  0
 34 30  1  0  0  0  0
 35 31  1  0  0  0  0
 36 32  1  0  0  0  0
 36 41  1  0  0  0  0
 37 38  1  0  0  0  0
 37 36  2  0  0  0  0
 38 39  2  0  0  0  0
 39 40  1  0  0  0  0
 39 41  1  0  0  0  0
M  END
>  <minimizedAffinity>
-5.53336763

>  <minimizedRMSD>
1.54556549

$$$$
