
 OpenBabel03252513113D

 32 34  0  0  0  0  0  0  0  0999 V2000
   36.6070   30.5210   47.3650 C   0  0  0  0  0  0  0  0  0  0  0  0
   35.6100   30.2080   46.4210 C   0  0  0  0  0  0  0  0  0  0  0  0
   34.4520   29.5560   46.7040 C   0  0  0  0  0  0  0  0  0  0  0  0
   34.1840   29.1530   47.9820 C   0  0  0  0  0  0  0  0  0  0  0  0
   35.0940   29.4200   48.9370 C   0  0  0  0  0  0  0  0  0  0  0  0
   34.8110   29.0100   50.2150 C   0  0  0  0  0  0  0  0  0  0  0  0
   35.6810   29.2380   51.2510 C   0  0  0  0  0  0  0  0  0  0  0  0
   36.8670   29.9060   50.9610 C   0  0  0  0  0  0  0  0  0  0  0  0
   37.1030   30.2930   49.6750 C   0  0  0  0  0  0  0  0  0  0  0  0
   36.2660   30.0820   48.6350 C   0  0  0  0  0  0  0  0  0  0  0  0
   35.7770   30.5080   45.3880 H   0  0  0  0  0  0  0  0  0  0  0  0
   33.7270   29.3500   45.9170 H   0  0  0  0  0  0  0  0  0  0  0  0
   33.8880   28.4850   50.4690 H   0  0  0  0  0  0  0  0  0  0  0  0
   35.4860   28.9250   52.2790 H   0  0  0  0  0  0  0  0  0  0  0  0
   37.5740   30.1020   51.7550 H   0  0  0  0  0  0  0  0  0  0  0  0
   38.0450   30.8150   49.4830 H   0  0  0  0  0  0  0  0  0  0  0  0
   39.6820   31.0060   45.5900 C   0  0  0  0  0  0  0  0  0  0  0  0
   40.2510   32.1850   46.0670 C   0  0  0  0  0  0  0  0  0  0  0  0
   39.5430   32.8330   47.0390 C   0  0  0  0  0  0  0  0  0  0  0  0
   38.3970   32.2990   47.4400 N   0  0  0  0  0  0  0  0  0  0  0  0
   37.8240   31.2130   47.0330 C   0  0  0  0  0  0  0  0  0  0  0  0
   38.5270   30.5920   46.0850 N   0  0  0  0  0  0  0  0  0  0  0  0
   40.2540   30.4910   44.8110 H   0  0  0  0  0  0  0  0  0  0  0  0
   41.1870   32.6130   45.7350 H   0  0  0  0  0  0  0  0  0  0  0  0
   40.0450   34.0880   47.6200 C   0  0  0  0  0  0  0  0  0  0  0  0
   39.5170   34.2250   49.0280 C   0  0  0  0  0  0  0  0  0  0  0  0
   39.9390   33.4240   49.6600 H   0  0  0  0  0  0  0  0  0  0  0  0
   32.9960   28.4930   48.2360 O   0  0  0  0  0  0  0  0  0  0  0  0
   32.8020   27.1590   47.8620 C   0  0  0  0  0  0  0  0  0  0  0  0
   33.9050   26.3650   47.9890 F   0  0  0  0  0  0  0  0  0  0  0  0
   31.8150   26.6310   48.6890 F   0  0  0  0  0  0  0  0  0  0  0  0
   32.3610   27.1900   46.5320 F   0  0  0  0  0  0  0  0  0  0  0  0
  1 10  1  0  0  0  0
  2  3  1  0  0  0  0
  2  1  2  0  0  0  0
  3  4  2  0  0  0  0
  4 28  1  0  0  0  0
  4  5  1  0  0  0  0
  5  6  1  0  0  0  0
  6 13  1  0  0  0  0
  6  7  2  0  0  0  0
  7 14  1  0  0  0  0
  8  7  1  0  0  0  0
  8 15  1  0  0  0  0
  9  8  2  0  0  0  0
 10  5  2  0  0  0  0
 10  9  1  0  0  0  0
 11  2  1  0  0  0  0
 12  3  1  0  0  0  0
 16  9  1  0  0  0  0
 17 18  2  0  0  0  0
 17 22  1  0  0  0  0
 18 19  1  0  0  0  0
 19 20  2  0  0  0  0
 19 25  1  0  0  0  0
 21  1  1  0  0  0  0
 21 20  1  0  0  0  0
 22 21  2  0  0  0  0
 23 17  1  0  0  0  0
 24 18  1  0  0  0  0
 25 26  1  0  0  0  0
 26 27  1  0  0  0  0
 29 30  1  0  0  0  0
 29 28  1  0  0  0  0
 29 31  1  0  0  0  0
 32 29  1  0  0  0  0
M  END
>  <minimizedAffinity>
-6.68175316

>  <minimizedRMSD>
1.38712204

$$$$
