
 OpenBabel03252514073D

 39 42  0  0  0  0  0  0  0  0999 V2000
   34.1180   30.0560   47.5290 C   0  0  0  0  0  0  0  0  0  0  0  0
   35.1080   29.8340   48.5050 C   0  0  0  0  0  0  0  0  0  0  0  0
   34.9660   28.6860   49.2770 C   0  0  0  0  0  0  0  0  0  0  0  0
   33.9160   27.8580   49.0620 N   0  0  0  0  0  0  0  0  0  0  0  0
   32.9890   28.0860   48.1320 C   0  0  0  0  0  0  0  0  0  0  0  0
   33.1010   29.1930   47.3690 N   0  0  0  0  0  0  0  0  0  0  0  0
   34.1950   30.9430   46.9070 H   0  0  0  0  0  0  0  0  0  0  0  0
   35.7190   28.5070   50.0270 H   0  0  0  0  0  0  0  0  0  0  0  0
   36.1530   30.7790   48.6260 N   0  0  0  0  0  0  0  0  0  0  0  0
   36.4560   31.4280   49.7860 C   0  0  0  0  0  0  0  0  0  0  0  0
   37.5000   32.2590   49.5660 N   0  0  0  0  0  0  0  0  0  0  0  0
   37.8300   32.1150   48.2750 C   0  0  0  0  0  0  0  0  0  0  0  0
   38.7980   32.6860   47.4700 C   0  0  0  0  0  0  0  0  0  0  0  0
   38.9160   32.3580   46.1790 N   0  0  0  0  0  0  0  0  0  0  0  0
   38.0890   31.4440   45.5870 C   0  0  0  0  0  0  0  0  0  0  0  0
   37.1490   30.8940   46.3790 N   0  0  0  0  0  0  0  0  0  0  0  0
   36.9940   31.1910   47.6730 C   0  0  0  0  0  0  0  0  0  0  0  0
   36.0130   31.3740   50.7740 H   0  0  0  0  0  0  0  0  0  0  0  0
   38.2550   31.2440   44.5520 H   0  0  0  0  0  0  0  0  0  0  0  0
   39.6840   33.6370   48.0270 N   0  0  0  0  0  0  0  0  0  0  0  0
   39.4290   34.3860   48.7110 H   0  0  0  0  0  0  0  0  0  0  0  0
   40.7070   33.6730   47.7900 H   0  0  0  0  0  0  0  0  0  0  0  0
   31.8350   27.2000   47.8780 C   0  0  0  0  0  0  0  0  0  0  0  0
   30.8200   27.3410   48.9980 C   0  0  0  0  0  0  0  0  0  0  0  0
   29.9570   27.9740   48.7290 H   0  0  0  0  0  0  0  0  0  0  0  0
   31.3660   27.7220   49.8880 H   0  0  0  0  0  0  0  0  0  0  0  0
   30.4740   26.3080   49.2770 H   0  0  0  0  0  0  0  0  0  0  0  0
   31.0940   27.5830   46.6080 C   0  0  0  0  0  0  0  0  0  0  0  0
   31.7480   27.5990   45.7140 H   0  0  0  0  0  0  0  0  0  0  0  0
   30.7170   28.6340   46.7050 H   0  0  0  0  0  0  0  0  0  0  0  0
   30.2350   26.9150   46.5090 H   0  0  0  0  0  0  0  0  0  0  0  0
   32.2490   25.7540   47.7200 C   0  0  0  0  0  0  0  0  0  0  0  0
   31.4240   25.0560   47.9050 H   0  0  0  0  0  0  0  0  0  0  0  0
   33.0390   25.5730   48.4930 H   0  0  0  0  0  0  0  0  0  0  0  0
   32.8970   25.5290   46.4450 N   0  0  0  0  0  0  0  0  0  0  0  0
   34.0440   25.9370   45.8870 C   0  0  0  0  0  3  0  0  0  0  0  0
   34.1640   25.4000   44.6100 C   0  0  0  0  0  3  0  0  0  0  0  0
   33.0460   24.6490   44.4110 N   0  0  0  0  0  0  0  0  0  0  0  0
   32.3060   24.7380   45.5130 C   0  0  0  0  0  3  0  0  0  0  0  0
  1  2  1  0  0  0  0
  2  9  1  0  0  0  0
  2  3  2  0  0  0  0
  3  8  1  0  0  0  0
  4  3  1  0  0  0  0
  5  4  2  0  0  0  0
  6  1  2  0  0  0  0
  6  5  1  0  0  0  0
  7  1  1  0  0  0  0
  9 10  1  0  0  0  0
 10 18  1  0  0  0  0
 11 10  2  0  0  0  0
 12 11  1  0  0  0  0
 13 20  1  0  0  0  0
 13 12  2  0  0  0  0
 14 13  1  0  0  0  0
 15 14  2  0  0  0  0
 15 16  1  0  0  0  0
 16 17  2  0  0  0  0
 17 12  1  0  0  0  0
 17  9  1  0  0  0  0
 19 15  1  0  0  0  0
 20 21  1  0  0  0  0
 22 20  1  0  0  0  0
 23  5  1  0  0  0  0
 23 24  1  0  0  0  0
 24 27  1  0  0  0  0
 24 26  1  0  0  0  0
 25 24  1  0  0  0  0
 28 30  1  0  0  0  0
 28 23  1  0  0  0  0
 29 28  1  0  0  0  0
 31 28  1  0  0  0  0
 32 23  1  0  0  0  0
 32 33  1  0  0  0  0
 32 34  1  0  0  0  0
 35 32  1  0  0  0  0
 36 35  1  0  0  0  0
 37 36  2  0  0  0  0
 38 37  1  0  0  0  0
 38 39  2  0  0  0  0
 39 35  1  0  0  0  0
M  END
>  <minimizedAffinity>
-5.14222813

>  <minimizedRMSD>
1.12903821

$$$$
