
 OpenBabel03252514073D

 39 42  0  0  0  0  0  0  0  0999 V2000
   34.0130   29.9510   47.4340 C   0  0  0  0  0  0  0  0  0  0  0  0
   34.9810   29.7560   48.4380 C   0  0  0  0  0  0  0  0  0  0  0  0
   34.7960   28.6540   49.2660 C   0  0  0  0  0  0  0  0  0  0  0  0
   33.7280   27.8430   49.0770 N   0  0  0  0  0  0  0  0  0  0  0  0
   32.8220   28.0460   48.1200 C   0  0  0  0  0  0  0  0  0  0  0  0
   32.9760   29.1080   47.3020 N   0  0  0  0  0  0  0  0  0  0  0  0
   34.1240   30.8020   46.7680 H   0  0  0  0  0  0  0  0  0  0  0  0
   35.5320   28.4950   50.0380 H   0  0  0  0  0  0  0  0  0  0  0  0
   36.0490   30.6780   48.5270 N   0  0  0  0  0  0  0  0  0  0  0  0
   36.3930   31.3300   49.6750 C   0  0  0  0  0  0  0  0  0  0  0  0
   37.4490   32.1350   49.4240 N   0  0  0  0  0  0  0  0  0  0  0  0
   37.7470   31.9740   48.1280 C   0  0  0  0  0  0  0  0  0  0  0  0
   38.7080   32.5160   47.2960 C   0  0  0  0  0  0  0  0  0  0  0  0
   38.7890   32.1760   46.0050 N   0  0  0  0  0  0  0  0  0  0  0  0
   37.9290   31.2760   45.4400 C   0  0  0  0  0  0  0  0  0  0  0  0
   36.9960   30.7540   46.2570 N   0  0  0  0  0  0  0  0  0  0  0  0
   36.8780   31.0640   47.5520 C   0  0  0  0  0  0  0  0  0  0  0  0
   35.9720   31.2930   50.6730 H   0  0  0  0  0  0  0  0  0  0  0  0
   38.0680   31.0640   44.4030 H   0  0  0  0  0  0  0  0  0  0  0  0
   39.6270   33.4530   47.8240 N   0  0  0  0  0  0  0  0  0  0  0  0
   39.4050   34.2120   48.5080 H   0  0  0  0  0  0  0  0  0  0  0  0
   40.6450   33.4630   47.5640 H   0  0  0  0  0  0  0  0  0  0  0  0
   31.6490   27.1780   47.8930 C   0  0  0  0  0  0  0  0  0  0  0  0
   30.6830   27.3000   49.0590 C   0  0  0  0  0  0  0  0  0  0  0  0
   29.8170   27.9480   48.8420 H   0  0  0  0  0  0  0  0  0  0  0  0
   31.2710   27.6530   49.9340 H   0  0  0  0  0  0  0  0  0  0  0  0
   30.3380   26.2640   49.3250 H   0  0  0  0  0  0  0  0  0  0  0  0
   30.8590   27.6010   46.6650 C   0  0  0  0  0  0  0  0  0  0  0  0
   31.4750   27.6330   45.7450 H   0  0  0  0  0  0  0  0  0  0  0  0
   30.4980   28.6530   46.8050 H   0  0  0  0  0  0  0  0  0  0  0  0
   29.9890   26.9440   46.5860 H   0  0  0  0  0  0  0  0  0  0  0  0
   32.0400   25.7320   47.6810 C   0  0  0  0  0  0  0  0  0  0  0  0
   31.1800   25.0530   47.7160 H   0  0  0  0  0  0  0  0  0  0  0  0
   32.7250   25.4710   48.5280 H   0  0  0  0  0  0  0  0  0  0  0  0
   32.8320   25.5730   46.4800 N   0  0  0  0  0  0  0  0  0  0  0  0
   32.5980   25.7310   45.1700 C   0  0  0  0  0  3  0  0  0  0  0  0
   33.7460   25.4330   44.4460 C   0  0  0  0  0  3  0  0  0  0  0  0
   34.6900   25.0860   45.3640 N   0  0  0  0  0  0  0  0  0  0  0  0
   34.1270   25.1750   46.5670 C   0  0  0  0  0  3  0  0  0  0  0  0
  1  2  1  0  0  0  0
  2  9  1  0  0  0  0
  2  3  2  0  0  0  0
  3  8  1  0  0  0  0
  4  3  1  0  0  0  0
  5  4  2  0  0  0  0
  6  1  2  0  0  0  0
  6  5  1  0  0  0  0
  7  1  1  0  0  0  0
  9 10  1  0  0  0  0
 10 18  1  0  0  0  0
 11 10  2  0  0  0  0
 12 11  1  0  0  0  0
 13 20  1  0  0  0  0
 13 12  2  0  0  0  0
 14 13  1  0  0  0  0
 15 14  2  0  0  0  0
 15 16  1  0  0  0  0
 16 17  2  0  0  0  0
 17 12  1  0  0  0  0
 17  9  1  0  0  0  0
 19 15  1  0  0  0  0
 20 21  1  0  0  0  0
 22 20  1  0  0  0  0
 23  5  1  0  0  0  0
 23 24  1  0  0  0  0
 24 27  1  0  0  0  0
 24 26  1  0  0  0  0
 25 24  1  0  0  0  0
 28 30  1  0  0  0  0
 28 23  1  0  0  0  0
 29 28  1  0  0  0  0
 31 28  1  0  0  0  0
 32 33  1  0  0  0  0
 32 23  1  0  0  0  0
 32 34  1  0  0  0  0
 35 39  1  0  0  0  0
 35 32  1  0  0  0  0
 36 35  1  0  0  0  0
 37 36  2  0  0  0  0
 37 38  1  0  0  0  0
 38 39  2  0  0  0  0
M  END
>  <minimizedAffinity>
-5.1589942

>  <minimizedRMSD>
1.28439128

$$$$
