
 OpenBabel03252512293D

 33 35  0  0  1  0  0  0  0  0999 V2000
   32.6980   27.8390   47.8030 C   0  0  2  0  0  0  0  0  0  0  0  0
   33.0310   26.7890   47.5780 H   0  0  0  0  0  0  0  0  0  0  0  0
   35.9310   30.2130   48.5230 C   0  0  0  0  0  0  0  0  0  0  0  0
   35.8390   29.0970   49.3860 C   0  0  0  0  0  0  0  0  0  0  0  0
   34.7870   28.2750   49.2020 C   0  0  0  0  0  0  0  0  0  0  0  0
   33.9170   28.5480   48.2490 C   0  0  0  0  0  0  0  0  0  0  0  0
   34.4950   30.0830   47.4400 S   0  0  0  0  0  0  0  0  0  0  0  0
   36.6350   28.9880   50.1420 H   0  0  0  0  0  0  0  0  0  0  0  0
   34.6410   27.3960   49.8200 H   0  0  0  0  0  0  0  0  0  0  0  0
   38.0100   33.0710   49.5590 C   0  0  0  0  0  0  0  0  0  0  0  0
   38.9680   33.1500   48.5310 C   0  0  0  0  0  0  0  0  0  0  0  0
   38.8760   32.2220   47.5030 C   0  0  0  0  0  0  0  0  0  0  0  0
   37.8800   31.2990   47.5430 N   0  0  0  0  0  0  0  0  0  0  0  0
   37.0050   31.2550   48.5190 C   0  0  0  0  0  0  0  0  0  0  0  0
   37.0260   32.1280   49.5620 N   0  0  0  0  0  0  0  0  0  0  0  0
   38.1110   33.8110   50.3460 H   0  0  0  0  0  0  0  0  0  0  0  0
   39.7390   33.8860   48.5260 H   0  0  0  0  0  0  0  0  0  0  0  0
   39.5640   32.1970   46.6660 H   0  0  0  0  0  0  0  0  0  0  0  0
   32.1340   28.4940   46.6240 C   0  0  0  0  0  0  0  0  0  0  0  0
   32.9510   28.7770   45.9370 H   0  0  0  0  0  0  0  0  0  0  0  0
   31.3320   27.9010   46.1320 H   0  0  0  0  0  0  0  0  0  0  0  0
   31.6460   29.4490   46.9440 H   0  0  0  0  0  0  0  0  0  0  0  0
   31.7620   27.7080   48.9830 C   0  0  0  0  0  0  0  0  0  0  0  0
   32.0690   28.4820   49.7300 H   0  0  0  0  0  0  0  0  0  0  0  0
   31.9230   26.7400   49.4960 H   0  0  0  0  0  0  0  0  0  0  0  0
   30.4550   27.8540   48.6580 O   0  0  0  0  0  0  0  0  0  0  0  0
   29.3450   28.0170   49.4360 C   0  0  0  0  0  0  0  0  0  0  0  0
   29.2310   27.0510   50.4400 C   0  0  0  0  0  0  0  0  0  0  0  0
   28.1530   27.0850   51.3130 C   0  0  0  0  0  0  0  0  0  0  0  0
   27.2420   28.1010   51.1230 C   0  0  0  0  0  0  0  0  0  0  0  0
   26.3720   28.1860   51.7750 H   0  0  0  0  0  0  0  0  0  0  0  0
   27.3860   29.0500   50.1120 C   0  0  0  0  0  0  0  0  0  0  0  0
   28.4470   28.9790   49.2860 N   0  0  0  0  0  0  0  0  0  0  0  0
  1  2  1  6  0  0  0
  1  6  1  0  0  0  0
  1 23  1  0  0  0  0
  3  4  2  0  0  0  0
  4  8  1  0  0  0  0
  5  4  1  0  0  0  0
  5  9  1  0  0  0  0
  6  5  2  0  0  0  0
  7  6  1  0  0  0  0
  7  3  1  0  0  0  0
 10 15  1  0  0  0  0
 10 16  1  0  0  0  0
 11 10  2  0  0  0  0
 12 13  2  0  0  0  0
 12 11  1  0  0  0  0
 13 14  1  0  0  0  0
 14  3  1  0  0  0  0
 14 15  2  0  0  0  0
 17 11  1  0  0  0  0
 18 12  1  0  0  0  0
 19 22  1  0  0  0  0
 19  1  1  0  0  0  0
 20 19  1  0  0  0  0
 21 19  1  0  0  0  0
 23 25  1  0  0  0  0
 23 24  1  0  0  0  0
 26 23  1  0  0  0  0
 26 27  1  0  0  0  0
 27 28  1  0  0  0  0
 28 29  2  0  0  0  0
 30 29  1  0  0  0  0
 30 31  1  0  0  0  0
 32 30  2  0  0  0  0
 33 27  2  0  0  0  0
 33 32  1  0  0  0  0
M  END
>  <minimizedAffinity>
-6.28787327

>  <minimizedRMSD>
2.82675052

$$$$
