
 OpenBabel03252514083D

 39 42  0  0  0  0  0  0  0  0999 V2000
   33.6190   29.3210   46.7360 C   0  0  0  0  0  0  0  0  0  0  0  0
   34.4720   29.2860   47.8550 C   0  0  0  0  0  0  0  0  0  0  0  0
   34.4110   28.1400   48.6410 C   0  0  0  0  0  0  0  0  0  0  0  0
   33.5610   27.1400   48.3060 N   0  0  0  0  0  0  0  0  0  0  0  0
   32.7610   27.1930   47.2420 C   0  0  0  0  0  0  0  0  0  0  0  0
   32.7980   28.2930   46.4610 N   0  0  0  0  0  0  0  0  0  0  0  0
   33.6380   30.2000   46.0990 H   0  0  0  0  0  0  0  0  0  0  0  0
   35.0610   28.1030   49.5010 H   0  0  0  0  0  0  0  0  0  0  0  0
   35.3110   30.3990   48.0920 N   0  0  0  0  0  0  0  0  0  0  0  0
   35.2180   31.1960   49.1950 C   0  0  0  0  0  0  0  0  0  0  0  0
   36.1590   32.1650   49.1180 N   0  0  0  0  0  0  0  0  0  0  0  0
   36.8220   31.9560   47.9730 C   0  0  0  0  0  0  0  0  0  0  0  0
   37.8740   32.6000   47.3500 C   0  0  0  0  0  0  0  0  0  0  0  0
   38.3600   32.1760   46.1790 N   0  0  0  0  0  0  0  0  0  0  0  0
   37.8440   31.0850   45.5350 C   0  0  0  0  0  0  0  0  0  0  0  0
   36.8190   30.4650   46.1490 N   0  0  0  0  0  0  0  0  0  0  0  0
   36.3020   30.8530   47.3190 C   0  0  0  0  0  0  0  0  0  0  0  0
   34.5510   31.1630   50.0480 H   0  0  0  0  0  0  0  0  0  0  0  0
   38.2940   30.8180   44.6050 H   0  0  0  0  0  0  0  0  0  0  0  0
   38.4500   33.7350   47.9680 N   0  0  0  0  0  0  0  0  0  0  0  0
   37.9290   34.4920   48.4670 H   0  0  0  0  0  0  0  0  0  0  0  0
   39.4840   33.9180   47.9770 H   0  0  0  0  0  0  0  0  0  0  0  0
   31.8260   26.1180   46.8550 C   0  0  0  0  0  0  0  0  0  0  0  0
   32.2290   24.8160   47.5260 C   0  0  0  0  0  0  0  0  0  0  0  0
   31.6110   24.5690   48.4060 H   0  0  0  0  0  0  0  0  0  0  0  0
   33.3090   24.8980   47.7730 H   0  0  0  0  0  0  0  0  0  0  0  0
   32.1570   23.9990   46.7570 H   0  0  0  0  0  0  0  0  0  0  0  0
   30.4090   26.3980   47.3300 C   0  0  0  0  0  0  0  0  0  0  0  0
   30.0180   27.3700   46.9730 H   0  0  0  0  0  0  0  0  0  0  0  0
   30.4080   26.4820   48.4480 H   0  0  0  0  0  0  0  0  0  0  0  0
   29.7880   25.5460   47.0460 H   0  0  0  0  0  0  0  0  0  0  0  0
   31.7520   25.9360   45.3550 C   0  0  0  0  0  0  0  0  0  0  0  0
   32.1010   26.8180   44.8050 H   0  0  0  0  0  0  0  0  0  0  0  0
   30.6680   25.7830   45.1160 H   0  0  0  0  0  0  0  0  0  0  0  0
   32.4150   24.7180   44.9400 N   0  0  0  0  0  0  0  0  0  0  0  0
   33.6920   24.3200   44.8660 C   0  0  0  0  0  3  0  0  0  0  0  0
   33.7530   23.0180   44.3830 C   0  0  0  0  0  3  0  0  0  0  0  0
   32.4650   22.6360   44.1640 N   0  0  0  0  0  0  0  0  0  0  0  0
   31.6840   23.6620   44.5010 C   0  0  0  0  0  3  0  0  0  0  0  0
  1  2  1  0  0  0  0
  2  9  1  0  0  0  0
  2  3  2  0  0  0  0
  3  8  1  0  0  0  0
  4  3  1  0  0  0  0
  5  4  2  0  0  0  0
  6  1  2  0  0  0  0
  6  5  1  0  0  0  0
  7  1  1  0  0  0  0
  9 10  1  0  0  0  0
 10 18  1  0  0  0  0
 11 10  2  0  0  0  0
 12 11  1  0  0  0  0
 13 20  1  0  0  0  0
 13 12  1  0  0  0  0
 14 13  2  0  0  0  0
 15 16  2  0  0  0  0
 15 14  1  0  0  0  0
 16 17  1  0  0  0  0
 17 12  2  0  0  0  0
 17  9  1  0  0  0  0
 19 15  1  0  0  0  0
 20 22  1  0  0  0  0
 20 21  1  0  0  0  0
 23  5  1  0  0  0  0
 23 28  1  0  0  0  0
 23 24  1  0  0  0  0
 24 26  1  0  0  0  0
 24 25  1  0  0  0  0
 27 24  1  0  0  0  0
 28 30  1  0  0  0  0
 29 28  1  0  0  0  0
 31 28  1  0  0  0  0
 32 23  1  0  0  0  0
 33 32  1  0  0  0  0
 34 32  1  0  0  0  0
 35 32  1  0  0  0  0
 36 35  1  0  0  0  0
 37 36  2  0  0  0  0
 38 37  1  0  0  0  0
 38 39  2  0  0  0  0
 39 35  1  0  0  0  0
M  END
>  <minimizedAffinity>
-1.30618501

>  <minimizedRMSD>
2.20923996

$$$$
