
 OpenBabel03252514073D

 39 42  0  0  0  0  0  0  0  0999 V2000
   33.9670   29.8720   47.3490 C   0  0  0  0  0  0  0  0  0  0  0  0
   34.9320   29.6980   48.3590 C   0  0  0  0  0  0  0  0  0  0  0  0
   34.7290   28.6310   49.2280 C   0  0  0  0  0  0  0  0  0  0  0  0
   33.6480   27.8320   49.0690 N   0  0  0  0  0  0  0  0  0  0  0  0
   32.7450   28.0140   48.1060 C   0  0  0  0  0  0  0  0  0  0  0  0
   32.9160   29.0430   47.2490 N   0  0  0  0  0  0  0  0  0  0  0  0
   34.0920   30.6960   46.6520 H   0  0  0  0  0  0  0  0  0  0  0  0
   35.4630   28.4890   50.0050 H   0  0  0  0  0  0  0  0  0  0  0  0
   36.0150   30.6050   48.4140 N   0  0  0  0  0  0  0  0  0  0  0  0
   36.4080   31.2490   49.5500 C   0  0  0  0  0  0  0  0  0  0  0  0
   37.4660   32.0410   49.2650 N   0  0  0  0  0  0  0  0  0  0  0  0
   37.7170   31.8780   47.9590 C   0  0  0  0  0  0  0  0  0  0  0  0
   38.6570   32.4080   47.0960 C   0  0  0  0  0  0  0  0  0  0  0  0
   38.6900   32.0700   45.8020 N   0  0  0  0  0  0  0  0  0  0  0  0
   37.7980   31.1830   45.2650 C   0  0  0  0  0  0  0  0  0  0  0  0
   36.8860   30.6720   46.1130 N   0  0  0  0  0  0  0  0  0  0  0  0
   36.8160   30.9820   47.4120 C   0  0  0  0  0  0  0  0  0  0  0  0
   36.0200   31.2160   50.5620 H   0  0  0  0  0  0  0  0  0  0  0  0
   37.8980   30.9720   44.2240 H   0  0  0  0  0  0  0  0  0  0  0  0
   39.6070   33.3310   47.5940 N   0  0  0  0  0  0  0  0  0  0  0  0
   39.4180   34.0910   48.2860 H   0  0  0  0  0  0  0  0  0  0  0  0
   40.6150   33.3280   47.3000 H   0  0  0  0  0  0  0  0  0  0  0  0
   31.5570   27.1590   47.9110 C   0  0  0  0  0  0  0  0  0  0  0  0
   30.6140   27.3090   49.0920 C   0  0  0  0  0  0  0  0  0  0  0  0
   29.7520   27.9650   48.8820 H   0  0  0  0  0  0  0  0  0  0  0  0
   31.2210   27.6660   49.9520 H   0  0  0  0  0  0  0  0  0  0  0  0
   30.2610   26.2810   49.3790 H   0  0  0  0  0  0  0  0  0  0  0  0
   30.7510   27.5750   46.6920 C   0  0  0  0  0  0  0  0  0  0  0  0
   31.3500   27.5870   45.7610 H   0  0  0  0  0  0  0  0  0  0  0  0
   30.4050   28.6330   46.8240 H   0  0  0  0  0  0  0  0  0  0  0  0
   29.8710   26.9280   46.6380 H   0  0  0  0  0  0  0  0  0  0  0  0
   31.9260   25.7050   47.7130 C   0  0  0  0  0  0  0  0  0  0  0  0
   31.0480   25.0540   47.6270 H   0  0  0  0  0  0  0  0  0  0  0  0
   32.4950   25.4040   48.6290 H   0  0  0  0  0  0  0  0  0  0  0  0
   32.8520   25.5440   46.6120 N   0  0  0  0  0  0  0  0  0  0  0  0
   32.8210   25.8370   45.3050 C   0  0  0  0  0  3  0  0  0  0  0  0
   34.0160   25.4540   44.7060 C   0  0  0  0  0  3  0  0  0  0  0  0
   34.7760   24.9140   45.6980 N   0  0  0  0  0  0  0  0  0  0  0  0
   34.0680   24.9770   46.8220 C   0  0  0  0  0  3  0  0  0  0  0  0
  1  2  1  0  0  0  0
  2  9  1  0  0  0  0
  2  3  2  0  0  0  0
  3  8  1  0  0  0  0
  4  3  1  0  0  0  0
  5  4  2  0  0  0  0
  6  1  2  0  0  0  0
  6  5  1  0  0  0  0
  7  1  1  0  0  0  0
  9 10  1  0  0  0  0
 10 18  1  0  0  0  0
 11 10  2  0  0  0  0
 12 11  1  0  0  0  0
 13 20  1  0  0  0  0
 13 12  2  0  0  0  0
 14 13  1  0  0  0  0
 15 14  2  0  0  0  0
 15 16  1  0  0  0  0
 16 17  2  0  0  0  0
 17 12  1  0  0  0  0
 17  9  1  0  0  0  0
 19 15  1  0  0  0  0
 20 21  1  0  0  0  0
 22 20  1  0  0  0  0
 23  5  1  0  0  0  0
 23 24  1  0  0  0  0
 24 27  1  0  0  0  0
 24 26  1  0  0  0  0
 25 24  1  0  0  0  0
 28 30  1  0  0  0  0
 28 23  1  0  0  0  0
 29 28  1  0  0  0  0
 31 28  1  0  0  0  0
 32 23  1  0  0  0  0
 32 34  1  0  0  0  0
 33 32  1  0  0  0  0
 35 39  1  0  0  0  0
 35 32  1  0  0  0  0
 36 35  1  0  0  0  0
 37 36  2  0  0  0  0
 37 38  1  0  0  0  0
 38 39  2  0  0  0  0
M  END
>  <minimizedAffinity>
-5.15508556

>  <minimizedRMSD>
1.29431677

$$$$
