
 OpenBabel03252513273D

 33 35  0  0  0  0  0  0  0  0999 V2000
   32.8010   27.7990   48.5690 C   0  0  0  0  0  0  0  0  0  0  0  0
   31.6750   28.2090   49.2270 C   0  0  0  0  0  0  0  0  0  0  0  0
   30.4540   27.5690   49.1600 C   0  0  0  0  0  0  0  0  0  0  0  0
   30.4120   26.4440   48.3620 C   0  0  0  0  0  0  0  0  0  0  0  0
   31.5130   25.9910   47.6820 C   0  0  0  0  0  0  0  0  0  0  0  0
   32.7160   26.6600   47.7760 C   0  0  0  0  0  0  0  0  0  0  0  0
   31.7220   29.1020   49.8560 H   0  0  0  0  0  0  0  0  0  0  0  0
   29.5920   27.9300   49.6970 H   0  0  0  0  0  0  0  0  0  0  0  0
   29.4530   25.9350   48.3030 H   0  0  0  0  0  0  0  0  0  0  0  0
   31.4370   25.1050   47.0670 H   0  0  0  0  0  0  0  0  0  0  0  0
   36.0980   28.9290   49.7010 C   0  0  0  0  0  0  0  0  0  0  0  0
   36.4140   29.9360   48.7550 C   0  0  0  0  0  0  0  0  0  0  0  0
   35.4800   30.1840   47.7680 C   0  0  0  0  0  0  0  0  0  0  0  0
   34.3130   29.4560   47.7510 N   0  0  0  0  0  0  0  0  0  0  0  0
   34.0580   28.5060   48.6750 C   0  0  0  0  0  0  0  0  0  0  0  0
   34.9440   28.2590   49.6270 N   0  0  0  0  0  0  0  0  0  0  0  0
   36.8640   28.7750   50.4510 H   0  0  0  0  0  0  0  0  0  0  0  0
   35.7030   30.9430   47.0460 H   0  0  0  0  0  0  0  0  0  0  0  0
   37.6780   30.7090   48.7900 C   0  0  0  0  0  0  0  0  0  0  0  0
   38.4900   30.4860   47.7160 F   0  0  0  0  0  0  0  0  0  0  0  0
   38.4160   30.4220   49.9240 F   0  0  0  0  0  0  0  0  0  0  0  0
   37.3810   32.0780   48.8070 F   0  0  0  0  0  0  0  0  0  0  0  0
   33.9200   26.2320   47.0810 C   0  0  0  0  0  0  0  0  0  0  0  0
   33.9530   26.7650   46.0910 H   0  0  0  0  0  0  0  0  0  0  0  0
   34.8350   26.5680   47.6210 H   0  0  0  0  0  0  0  0  0  0  0  0
   34.0410   24.7620   46.8270 C   0  0  0  0  0  0  0  0  0  0  0  0
   33.0370   24.4070   46.4660 H   0  0  0  0  0  0  0  0  0  0  0  0
   34.2040   24.2230   47.7810 H   0  0  0  0  0  0  0  0  0  0  0  0
   35.0000   24.4160   45.8300 N   0  0  0  0  0  0  0  0  0  0  0  0
   36.0370   23.5990   45.7490 C   0  0  0  0  0  0  0  0  0  0  0  0
   36.6540   23.6470   44.4970 C   0  0  0  0  0  0  0  0  0  0  0  0
   35.9270   24.5550   43.8020 N   0  0  0  0  0  0  0  0  0  0  0  0
   34.9300   25.0160   44.6100 C   0  0  0  0  0  0  0  0  0  0  0  0
  1 15  1  0  0  0  0
  1  2  1  0  0  0  0
  2  7  1  0  0  0  0
  3  2  2  0  0  0  0
  3  8  1  0  0  0  0
  4  3  1  0  0  0  0
  5  6  1  0  0  0  0
  5  4  2  0  0  0  0
  6  1  2  0  0  0  0
  9  4  1  0  0  0  0
 10  5  1  0  0  0  0
 11 17  1  0  0  0  0
 12 19  1  0  0  0  0
 12 11  2  0  0  0  0
 13 12  1  0  0  0  0
 14 13  2  0  0  0  0
 14 15  1  0  0  0  0
 15 16  2  0  0  0  0
 16 11  1  0  0  0  0
 18 13  1  0  0  0  0
 19 22  1  0  0  0  0
 19 21  1  0  0  0  0
 20 19  1  0  0  0  0
 23 25  1  0  0  0  0
 23  6  1  0  0  0  0
 24 23  1  0  0  0  0
 26 23  1  0  0  0  0
 26 28  1  0  0  0  0
 27 26  1  0  0  0  0
 29 26  1  0  0  0  0
 30 29  1  0  0  0  0
 31 30  2  0  0  0  0
 32 31  1  0  0  0  0
 32 33  2  0  0  0  0
 33 29  1  0  0  0  0
M  END
>  <minimizedAffinity>
-4.97919893

>  <minimizedRMSD>
0.359231502

$$$$
