
 OpenBabel03252513523D

 39 41  0  0  1  0  0  0  0  0999 V2000
   36.9300   30.5070   45.9070 C   0  0  0  0  0  0  0  0  0  0  0  0
   37.8800   30.2100   46.6630 O   0  0  0  0  0  0  0  0  0  0  0  0
   37.2910   31.3220   44.7900 N   0  0  0  0  0  0  0  0  0  0  0  0
   36.7370   30.9350   43.5030 C   0  0  0  0  0  0  0  0  0  0  0  0
   37.4860   31.5860   42.3680 C   0  0  0  0  0  0  0  0  0  0  0  0
   38.8100   31.6940   42.7560 O   0  0  0  0  0  0  0  0  0  0  0  0
   38.8680   32.8070   43.6390 C   0  0  0  0  0  0  0  0  0  0  0  0
   38.1680   32.4870   44.9150 C   0  0  2  0  0  0  0  0  0  0  0  0
   35.6690   31.2700   43.5220 H   0  0  0  0  0  0  0  0  0  0  0  0
   36.7700   29.8390   43.4490 H   0  0  0  0  0  0  0  0  0  0  0  0
   37.0610   32.5640   42.1360 H   0  0  0  0  0  0  0  0  0  0  0  0
   37.4330   30.8810   41.5180 H   0  0  0  0  0  0  0  0  0  0  0  0
   38.2900   33.5950   43.1010 H   0  0  0  0  0  0  0  0  0  0  0  0
   39.9010   33.1660   43.7530 H   0  0  0  0  0  0  0  0  0  0  0  0
   37.5360   33.3230   45.2850 H   0  0  0  0  0  0  0  0  0  0  0  0
   33.9050   29.2550   47.7500 C   0  0  0  0  0  0  0  0  0  0  0  0
   35.2360   29.7210   47.4970 C   0  0  0  0  0  0  0  0  0  0  0  0
   35.5950   30.0350   46.1910 C   0  0  0  0  0  0  0  0  0  0  0  0
   34.6360   29.8710   45.2420 N   0  0  0  0  0  0  0  0  0  0  0  0
   33.4050   29.4350   45.5100 C   0  0  0  0  0  0  0  0  0  0  0  0
   33.0480   29.1320   46.7500 N   0  0  0  0  0  0  0  0  0  0  0  0
   35.8990   29.8070   48.3340 H   0  0  0  0  0  0  0  0  0  0  0  0
   32.5000   29.3230   44.3320 C   0  0  0  0  0  0  0  0  0  0  0  0
   32.5720   30.4780   43.5570 F   0  0  0  0  0  0  0  0  0  0  0  0
   32.9250   28.3010   43.5090 F   0  0  0  0  0  0  0  0  0  0  0  0
   31.1860   29.0470   44.6890 F   0  0  0  0  0  0  0  0  0  0  0  0
   33.5740   28.9480   49.0710 O   0  0  0  0  0  0  0  0  0  0  0  0
   34.0750   29.5990   50.1810 C   0  0  0  0  0  0  0  0  0  0  0  0
   35.0720   28.8870   50.8350 F   0  0  0  0  0  0  0  0  0  0  0  0
   34.4760   30.8910   49.9610 F   0  0  0  0  0  0  0  0  0  0  0  0
   32.9870   29.6880   51.0770 F   0  0  0  0  0  0  0  0  0  0  0  0
   39.1600   32.1110   45.8320 O   0  0  0  0  0  0  0  0  0  0  0  0
   39.2980   32.8470   47.0010 C   0  0  0  0  0  0  0  0  0  0  0  0
   38.5820   32.5650   48.1580 C   0  0  0  0  0  0  0  0  0  0  0  0
   38.7160   33.3010   49.3350 C   0  0  0  0  0  0  0  0  0  0  0  0
   39.6200   34.3330   49.2530 C   0  0  0  0  0  0  0  0  0  0  0  0
   39.7510   34.9290   50.1540 H   0  0  0  0  0  0  0  0  0  0  0  0
   40.3560   34.6560   48.1390 C   0  0  0  0  0  0  0  0  0  0  0  0
   40.1450   33.8800   47.0650 N   0  0  0  0  0  0  0  0  0  0  0  0
  1 18  1  0  0  0  0
  1  2  2  0  0  0  0
  3  8  1  0  0  0  0
  3  1  1  0  0  0  0
  4  9  1  0  0  0  0
  4  3  1  0  0  0  0
  5  6  1  0  0  0  0
  5  4  1  0  0  0  0
  6  7  1  0  0  0  0
  7 14  1  0  0  0  0
  7  8  1  0  0  0  0
  8 15  1  1  0  0  0
  8 32  1  0  0  0  0
 10  4  1  0  0  0  0
 11  5  1  0  0  0  0
 12  5  1  0  0  0  0
 13  7  1  0  0  0  0
 16 27  1  0  0  0  0
 17 16  1  0  0  0  0
 17 22  1  0  0  0  0
 18 17  2  0  0  0  0
 19 20  2  0  0  0  0
 19 18  1  0  0  0  0
 20 21  1  0  0  0  0
 21 16  2  0  0  0  0
 23 26  1  0  0  0  0
 23 20  1  0  0  0  0
 24 23  1  0  0  0  0
 25 23  1  0  0  0  0
 27 28  1  0  0  0  0
 28 29  1  0  0  0  0
 28 31  1  0  0  0  0
 30 28  1  0  0  0  0
 32 33  1  0  0  0  0
 33 39  2  0  0  0  0
 33 34  1  0  0  0  0
 34 35  2  0  0  0  0
 36 35  1  0  0  0  0
 36 37  1  0  0  0  0
 38 36  2  0  0  0  0
 39 38  1  0  0  0  0
M  END
>  <minimizedAffinity>
-5.67677164

>  <minimizedRMSD>
2.04645252

$$$$
