
 OpenBabel03252514063D

 26 28  0  0  0  0  0  0  0  0999 V2000
   36.8030   31.2370   48.6330 N   0  0  0  0  0  0  0  0  0  0  0  0
   36.8620   32.0340   49.7270 C   0  0  0  0  0  0  0  0  0  0  0  0
   37.8370   32.9550   49.5480 N   0  0  0  0  0  0  0  0  0  0  0  0
   38.3730   32.7200   48.3430 C   0  0  0  0  0  0  0  0  0  0  0  0
   39.3840   33.3070   47.6100 C   0  0  0  0  0  0  0  0  0  0  0  0
   39.7250   32.8510   46.3870 N   0  0  0  0  0  0  0  0  0  0  0  0
   39.0980   31.8000   45.8190 C   0  0  0  0  0  0  0  0  0  0  0  0
   38.1130   31.2350   46.5440 N   0  0  0  0  0  0  0  0  0  0  0  0
   37.7360   31.6440   47.7540 C   0  0  0  0  0  0  0  0  0  0  0  0
   40.0850   34.4140   48.1440 N   0  0  0  0  0  0  0  0  0  0  0  0
   36.2320   31.9450   50.5960 H   0  0  0  0  0  0  0  0  0  0  0  0
   39.3930   31.4560   44.8350 H   0  0  0  0  0  0  0  0  0  0  0  0
   40.1840   35.3440   47.6600 H   0  0  0  0  0  0  0  0  0  0  0  0
   40.5420   34.3200   49.0840 H   0  0  0  0  0  0  0  0  0  0  0  0
   34.9610   30.2260   47.4190 C   0  0  0  0  0  0  0  0  0  0  0  0
   35.8900   30.1620   48.4830 C   0  0  0  0  0  0  0  0  0  0  0  0
   35.8270   29.0400   49.3000 C   0  0  0  0  0  0  0  0  0  0  0  0
   34.8960   28.0860   49.0360 N   0  0  0  0  0  0  0  0  0  0  0  0
   34.0300   28.1720   48.0230 C   0  0  0  0  0  0  0  0  0  0  0  0
   34.0630   29.2510   47.2080 N   0  0  0  0  0  0  0  0  0  0  0  0
   34.9410   31.0730   46.7270 H   0  0  0  0  0  0  0  0  0  0  0  0
   36.5390   28.9920   50.1170 H   0  0  0  0  0  0  0  0  0  0  0  0
   33.0540   27.0640   47.8320 C   0  0  0  0  0  0  0  0  0  0  0  0
   33.6430   25.8130   47.9620 F   0  0  0  0  0  0  0  0  0  0  0  0
   32.3800   27.1290   46.6410 F   0  0  0  0  0  0  0  0  0  0  0  0
   32.0710   27.0950   48.8260 F   0  0  0  0  0  0  0  0  0  0  0  0
  1  2  1  0  0  0  0
  2 11  1  0  0  0  0
  3  2  2  0  0  0  0
  4  3  1  0  0  0  0
  5 10  1  0  0  0  0
  5  4  2  0  0  0  0
  6  5  1  0  0  0  0
  7  6  2  0  0  0  0
  7  8  1  0  0  0  0
  8  9  2  0  0  0  0
  9  4  1  0  0  0  0
  9  1  1  0  0  0  0
 10 14  1  0  0  0  0
 12  7  1  0  0  0  0
 13 10  1  0  0  0  0
 15 16  1  0  0  0  0
 16  1  1  0  0  0  0
 16 17  2  0  0  0  0
 17 22  1  0  0  0  0
 18 17  1  0  0  0  0
 19 18  2  0  0  0  0
 20 15  2  0  0  0  0
 20 19  1  0  0  0  0
 21 15  1  0  0  0  0
 23 24  1  0  0  0  0
 23 19  1  0  0  0  0
 23 26  1  0  0  0  0
 25 23  1  0  0  0  0
M  END
>  <minimizedAffinity>
-5.4994235

>  <minimizedRMSD>
2.87005949

$$$$
