
 OpenBabel03252512043D

 33 34  0  0  0  0  0  0  0  0999 V2000
   37.7030   32.1510   49.5870 C   0  0  0  0  0  0  0  0  0  0  0  0
   36.8570   32.8220   49.5660 H   0  0  0  0  0  0  0  0  0  0  0  0
   38.5120   32.7280   50.1450 H   0  0  0  0  0  0  0  0  0  0  0  0
   38.2970   31.8560   48.2380 C   0  0  0  0  0  0  0  0  0  0  0  0
   38.1190   30.6520   47.6210 C   0  0  0  0  0  0  0  0  0  0  0  0
   38.6900   30.4000   46.3930 C   0  0  0  0  0  0  0  0  0  0  0  0
   39.4310   31.3880   45.8200 N   0  0  0  0  0  0  0  0  0  0  0  0
   39.6070   32.5580   46.4140 C   0  0  0  0  0  0  0  0  0  0  0  0
   39.0510   32.7960   47.6060 N   0  0  0  0  0  0  0  0  0  0  0  0
   37.5460   29.8620   48.0320 H   0  0  0  0  0  0  0  0  0  0  0  0
   38.5830   29.4650   45.8580 H   0  0  0  0  0  0  0  0  0  0  0  0
   40.4160   33.6310   45.7820 C   0  0  0  0  0  0  0  0  0  0  0  0
   41.5100   33.5070   45.9470 H   0  0  0  0  0  0  0  0  0  0  0  0
   40.1020   34.6250   46.2110 H   0  0  0  0  0  0  0  0  0  0  0  0
   40.0800   33.7310   44.2870 C   0  0  0  0  0  0  0  0  0  0  0  0
   39.4780   32.8390   43.9780 H   0  0  0  0  0  0  0  0  0  0  0  0
   41.0320   33.6310   43.7300 H   0  0  0  0  0  0  0  0  0  0  0  0
   39.4810   34.6130   44.0430 H   0  0  0  0  0  0  0  0  0  0  0  0
   37.5020   30.8230   50.2390 C   0  0  0  0  0  0  0  0  0  0  0  0
   38.4220   30.2050   50.2250 H   0  0  0  0  0  0  0  0  0  0  0  0
   37.3840   31.0590   51.3470 H   0  0  0  0  0  0  0  0  0  0  0  0
   36.2510   28.7740   49.7580 C   0  0  0  0  0  0  0  0  0  0  0  0
   36.3140   30.1700   49.8230 C   0  0  0  0  0  0  0  0  0  0  0  0
   35.1930   30.8680   49.4870 C   0  0  0  0  0  0  0  0  0  0  0  0
   34.0450   30.2250   49.1000 N   0  0  0  0  0  0  0  0  0  0  0  0
   34.0040   28.8820   49.0440 C   0  0  0  0  0  0  0  0  0  0  0  0
   35.0920   28.1850   49.3690 N   0  0  0  0  0  0  0  0  0  0  0  0
   37.1280   28.2030   50.0200 H   0  0  0  0  0  0  0  0  0  0  0  0
   35.0380   31.9320   49.4650 H   0  0  0  0  0  0  0  0  0  0  0  0
   32.7750   28.1380   48.6290 C   0  0  0  0  0  0  0  0  0  0  0  0
   32.2300   28.6460   47.4660 F   0  0  0  0  0  0  0  0  0  0  0  0
   33.1390   26.7980   48.4400 F   0  0  0  0  0  0  0  0  0  0  0  0
   31.8370   28.1160   49.6480 F   0  0  0  0  0  0  0  0  0  0  0  0
  1  3  1  0  0  0  0
  1 19  1  0  0  0  0
  2  1  1  0  0  0  0
  4  1  1  0  0  0  0
  5 10  1  0  0  0  0
  5  4  1  0  0  0  0
  6  5  2  0  0  0  0
  7  6  1  0  0  0  0
  7  8  2  0  0  0  0
  8  9  1  0  0  0  0
  9  4  2  0  0  0  0
 11  6  1  0  0  0  0
 12 13  1  0  0  0  0
 12 14  1  0  0  0  0
 12  8  1  0  0  0  0
 15 12  1  0  0  0  0
 16 15  1  0  0  0  0
 17 15  1  0  0  0  0
 18 15  1  0  0  0  0
 19 21  1  0  0  0  0
 20 19  1  0  0  0  0
 22 23  1  0  0  0  0
 22 28  1  0  0  0  0
 23 19  1  0  0  0  0
 24 23  2  0  0  0  0
 25 24  1  0  0  0  0
 26 25  2  0  0  0  0
 26 27  1  0  0  0  0
 27 22  2  0  0  0  0
 29 24  1  0  0  0  0
 30 26  1  0  0  0  0
 30 33  1  0  0  0  0
 31 30  1  0  0  0  0
 32 30  1  0  0  0  0
M  END
>  <minimizedAffinity>
-5.25992966

>  <minimizedRMSD>
1.5413413

$$$$
