
 OpenBabel03252514073D

 39 42  0  0  0  0  0  0  0  0999 V2000
   34.0530   29.9110   47.5330 C   0  0  0  0  0  0  0  0  0  0  0  0
   35.0550   29.6680   48.4920 C   0  0  0  0  0  0  0  0  0  0  0  0
   34.9710   28.4600   49.1770 C   0  0  0  0  0  0  0  0  0  0  0  0
   33.9630   27.5990   48.9000 N   0  0  0  0  0  0  0  0  0  0  0  0
   33.0240   27.8490   47.9880 C   0  0  0  0  0  0  0  0  0  0  0  0
   33.0800   29.0140   47.3080 N   0  0  0  0  0  0  0  0  0  0  0  0
   34.0850   30.8450   46.9780 H   0  0  0  0  0  0  0  0  0  0  0  0
   35.7340   28.2640   49.9130 H   0  0  0  0  0  0  0  0  0  0  0  0
   36.0520   30.6520   48.6830 N   0  0  0  0  0  0  0  0  0  0  0  0
   36.2710   31.2870   49.8700 C   0  0  0  0  0  0  0  0  0  0  0  0
   37.2890   32.1640   49.7180 N   0  0  0  0  0  0  0  0  0  0  0  0
   37.6870   32.0630   48.4430 C   0  0  0  0  0  0  0  0  0  0  0  0
   38.6690   32.6890   47.6990 C   0  0  0  0  0  0  0  0  0  0  0  0
   38.8630   32.3950   46.4080 N   0  0  0  0  0  0  0  0  0  0  0  0
   38.1050   31.4610   45.7580 C   0  0  0  0  0  0  0  0  0  0  0  0
   37.1510   30.8570   46.4910 N   0  0  0  0  0  0  0  0  0  0  0  0
   36.9210   31.1190   47.7820 C   0  0  0  0  0  0  0  0  0  0  0  0
   35.7830   31.1930   50.8330 H   0  0  0  0  0  0  0  0  0  0  0  0
   38.3300   31.2910   44.7290 H   0  0  0  0  0  0  0  0  0  0  0  0
   39.4860   33.6640   48.3170 N   0  0  0  0  0  0  0  0  0  0  0  0
   39.1670   34.3860   49.0020 H   0  0  0  0  0  0  0  0  0  0  0  0
   40.5170   33.7460   48.1320 H   0  0  0  0  0  0  0  0  0  0  0  0
   31.9150   26.9290   47.6680 C   0  0  0  0  0  0  0  0  0  0  0  0
   30.8120   27.0710   48.7020 C   0  0  0  0  0  0  0  0  0  0  0  0
   29.9580   27.6750   48.3500 H   0  0  0  0  0  0  0  0  0  0  0  0
   31.2770   27.4870   49.6210 H   0  0  0  0  0  0  0  0  0  0  0  0
   30.4690   26.0360   48.9790 H   0  0  0  0  0  0  0  0  0  0  0  0
   31.2670   27.2620   46.3340 C   0  0  0  0  0  0  0  0  0  0  0  0
   31.9880   27.2730   45.4940 H   0  0  0  0  0  0  0  0  0  0  0  0
   30.8590   28.3060   46.3750 H   0  0  0  0  0  0  0  0  0  0  0  0
   30.4340   26.5710   46.1860 H   0  0  0  0  0  0  0  0  0  0  0  0
   32.3730   25.4900   47.5800 C   0  0  0  0  0  0  0  0  0  0  0  0
   31.5650   24.7760   47.7790 H   0  0  0  0  0  0  0  0  0  0  0  0
   33.1520   25.3660   48.3760 H   0  0  0  0  0  0  0  0  0  0  0  0
   33.0540   25.2310   46.3290 N   0  0  0  0  0  0  0  0  0  0  0  0
   34.2100   25.6340   45.7860 C   0  0  0  0  0  3  0  0  0  0  0  0
   34.3680   25.0570   44.5300 C   0  0  0  0  0  3  0  0  0  0  0  0
   33.2640   24.2860   44.3290 N   0  0  0  0  0  0  0  0  0  0  0  0
   32.4960   24.4020   45.4090 C   0  0  0  0  0  3  0  0  0  0  0  0
  1  2  1  0  0  0  0
  2  9  1  0  0  0  0
  2  3  2  0  0  0  0
  3  8  1  0  0  0  0
  4  3  1  0  0  0  0
  5  4  2  0  0  0  0
  6  1  2  0  0  0  0
  6  5  1  0  0  0  0
  7  1  1  0  0  0  0
  9 10  1  0  0  0  0
 10 18  1  0  0  0  0
 11 10  2  0  0  0  0
 12 11  1  0  0  0  0
 13 20  1  0  0  0  0
 13 12  2  0  0  0  0
 14 13  1  0  0  0  0
 15 14  2  0  0  0  0
 15 16  1  0  0  0  0
 16 17  2  0  0  0  0
 17 12  1  0  0  0  0
 17  9  1  0  0  0  0
 19 15  1  0  0  0  0
 20 21  1  0  0  0  0
 22 20  1  0  0  0  0
 23  5  1  0  0  0  0
 23 24  1  0  0  0  0
 24 27  1  0  0  0  0
 24 26  1  0  0  0  0
 25 24  1  0  0  0  0
 28 30  1  0  0  0  0
 28 23  1  0  0  0  0
 29 28  1  0  0  0  0
 31 28  1  0  0  0  0
 32 23  1  0  0  0  0
 32 33  1  0  0  0  0
 32 34  1  0  0  0  0
 35 32  1  0  0  0  0
 36 35  1  0  0  0  0
 37 36  2  0  0  0  0
 38 37  1  0  0  0  0
 38 39  2  0  0  0  0
 39 35  1  0  0  0  0
M  END
>  <minimizedAffinity>
-5.12635851

>  <minimizedRMSD>
1.12107384

$$$$
