
 OpenBabel03252514043D

 32 34  0  0  1  0  0  0  0  0999 V2000
   35.4100   29.4350   48.8400 C   0  0  2  0  0  0  0  0  0  0  0  0
   34.2780   29.4500   49.7610 C   0  0  0  0  0  0  0  0  0  0  0  0
   34.6160   28.1510   49.2490 C   0  0  1  0  0  0  0  0  0  0  0  0
   35.2860   29.7980   47.8170 H   0  0  0  0  0  0  0  0  0  0  0  0
   33.3410   30.0040   49.4930 H   0  0  0  0  0  0  0  0  0  0  0  0
   34.5080   29.6320   50.8530 H   0  0  0  0  0  0  0  0  0  0  0  0
   35.2430   27.3900   49.7050 H   0  0  0  0  0  0  0  0  0  0  0  0
   36.8080   29.4220   49.4830 C   0  0  0  0  0  0  0  0  0  0  0  0
   37.2990   28.4960   49.0880 H   0  0  0  0  0  0  0  0  0  0  0  0
   36.7170   29.2900   50.5620 H   0  0  0  0  0  0  0  0  0  0  0  0
   38.1330   32.8260   49.4580 C   0  0  0  0  0  0  0  0  0  0  0  0
   38.8310   32.8770   48.2400 C   0  0  0  0  0  0  0  0  0  0  0  0
   38.8320   31.7140   47.4360 C   0  0  0  0  0  0  0  0  0  0  0  0
   38.1570   30.6100   47.8850 N   0  0  0  0  0  0  0  0  0  0  0  0
   37.5080   30.6220   49.0570 C   0  0  0  0  0  0  0  0  0  0  0  0
   37.5010   31.7330   49.8390 N   0  0  0  0  0  0  0  0  0  0  0  0
   38.1660   33.7420   50.0310 H   0  0  0  0  0  0  0  0  0  0  0  0
   39.3720   33.7310   47.8580 H   0  0  0  0  0  0  0  0  0  0  0  0
   39.3540   31.7000   46.4880 H   0  0  0  0  0  0  0  0  0  0  0  0
   33.6720   27.5990   48.1990 C   0  0  0  0  0  0  0  0  0  0  0  0
   34.0110   26.4170   47.7940 O   0  0  0  0  0  0  0  0  0  0  0  0
   32.5400   28.2300   47.6850 O   0  0  0  0  0  0  0  0  0  0  0  0
   31.2820   28.0360   48.1890 C   0  0  0  0  0  0  0  0  0  0  0  0
   30.9330   28.0020   49.6260 C   0  0  0  0  0  0  0  0  0  0  0  0
   29.6420   27.8010   49.9650 C   0  0  0  0  0  0  0  0  0  0  0  0
   28.6390   27.6260   48.9930 C   0  0  0  0  0  0  0  0  0  0  0  0
   29.5840   27.7520   47.3920 S   0  0  0  0  0  0  0  0  0  0  0  0
   31.7250   28.1400   50.3250 H   0  0  0  0  0  0  0  0  0  0  0  0
   29.2840   27.7580   50.9770 H   0  0  0  0  0  0  0  0  0  0  0  0
   27.2590   27.4030   48.8650 C   0  0  0  0  0  3  0  0  0  0  0  0
   26.8470   25.9300   48.7530 C   0  0  0  0  0  1  0  0  0  0  0  0
   26.7120   28.1680   47.6740 C   0  0  0  0  0  1  0  0  0  0  0  0
  1  4  1  6  0  0  0
  1  3  1  0  0  0  0
  1  8  1  0  0  0  0
  1  2  1  0  0  0  0
  2  6  1  0  0  0  0
  3  7  1  1  0  0  0
  3  2  1  0  0  0  0
  5  2  1  0  0  0  0
  8 10  1  0  0  0  0
  9  8  1  0  0  0  0
 11 16  1  0  0  0  0
 11 17  1  0  0  0  0
 12 11  2  0  0  0  0
 13 14  2  0  0  0  0
 13 12  1  0  0  0  0
 14 15  1  0  0  0  0
 15  8  1  0  0  0  0
 15 16  2  0  0  0  0
 18 12  1  0  0  0  0
 19 13  1  0  0  0  0
 20  3  1  0  0  0  0
 21 20  2  0  0  0  0
 22 23  1  0  0  0  0
 22 20  1  0  0  0  0
 23 24  2  0  0  0  0
 24 25  1  0  0  0  0
 24 28  1  0  0  0  0
 25 29  1  0  0  0  0
 26 25  2  0  0  0  0
 27 23  1  0  0  0  0
 27 26  1  0  0  0  0
 30 26  1  0  0  0  0
 31 30  1  0  0  0  0
 32 30  1  0  0  0  0
M  END
>  <minimizedAffinity>
-5.20731974

>  <minimizedRMSD>
0.479999185

$$$$
