
 OpenBabel03252513473D

 19 19  0  0  0  0  0  0  0  0999 V2000
   37.6150   30.5930   49.2470 C   0  0  0  0  0  0  0  0  0  0  0  0
   38.1260   31.8760   49.6440 C   0  0  0  0  0  0  0  0  0  0  0  0
   38.6460   32.6960   48.6370 C   0  0  0  0  0  0  0  0  0  0  0  0
   38.6350   32.2260   47.3630 N   0  0  0  0  0  0  0  0  0  0  0  0
   38.1510   31.0240   47.0320 C   0  0  0  0  0  0  0  0  0  0  0  0
   37.6520   30.2270   47.9620 N   0  0  0  0  0  0  0  0  0  0  0  0
   38.1300   32.2350   50.6500 H   0  0  0  0  0  0  0  0  0  0  0  0
   38.2190   30.6740   45.5880 C   0  0  0  0  0  0  0  0  0  0  0  0
   36.9740   30.1760   45.1640 F   0  0  0  0  0  0  0  0  0  0  0  0
   38.4330   31.8030   44.8400 F   0  0  0  0  0  0  0  0  0  0  0  0
   39.2260   29.7630   45.3100 F   0  0  0  0  0  0  0  0  0  0  0  0
   39.1960   34.0280   48.9190 C   0  0  0  0  0  0  0  0  0  0  0  0
   39.7800   34.1390   50.3100 C   0  0  0  0  0  0  0  0  0  0  0  0
   40.2660   34.4410   47.9470 C   0  0  0  0  0  0  0  0  0  0  0  0
   37.1060   29.7940   50.2370 O   0  0  0  0  0  0  0  0  0  0  0  0
   35.7620   29.4970   50.4190 C   0  0  0  0  0  0  0  0  0  0  0  0
   35.4390   29.1680   51.7210 F   0  0  0  0  0  0  0  0  0  0  0  0
   34.8970   30.4560   49.9280 F   0  0  0  0  0  0  0  0  0  0  0  0
   35.5340   28.3350   49.6660 F   0  0  0  0  0  0  0  0  0  0  0  0
  1  2  1  0  0  0  0
  1 15  1  0  0  0  0
  2  7  1  0  0  0  0
  3 12  1  0  0  0  0
  3  2  2  0  0  0  0
  4  3  1  0  0  0  0
  5  4  2  0  0  0  0
  5  6  1  0  0  0  0
  6  1  2  0  0  0  0
  8  5  1  0  0  0  0
  9  8  1  0  0  0  0
 10  8  1  0  0  0  0
 11  8  1  0  0  0  0
 12 13  1  0  0  0  0
 14 12  1  0  0  0  0
 15 16  1  0  0  0  0
 16 17  1  0  0  0  0
 18 16  1  0  0  0  0
 19 16  1  0  0  0  0
M  END
>  <minimizedAffinity>
-5.53034401

>  <minimizedRMSD>
1.26904452

$$$$
