
 OpenBabel03252514073D

 44 47  0  0  0  0  0  0  0  0999 V2000
   34.4680   30.1200   47.5720 C   0  0  0  0  0  0  0  0  0  0  0  0
   35.4530   29.9420   48.5560 C   0  0  0  0  0  0  0  0  0  0  0  0
   35.4340   28.7320   49.2230 C   0  0  0  0  0  0  0  0  0  0  0  0
   34.5070   27.8000   48.9190 N   0  0  0  0  0  0  0  0  0  0  0  0
   33.5740   28.0060   47.9650 C   0  0  0  0  0  0  0  0  0  0  0  0
   33.5650   29.1600   47.3050 N   0  0  0  0  0  0  0  0  0  0  0  0
   34.3810   31.0260   46.9810 H   0  0  0  0  0  0  0  0  0  0  0  0
   36.1860   28.5770   49.9850 H   0  0  0  0  0  0  0  0  0  0  0  0
   36.3710   30.9980   48.7830 N   0  0  0  0  0  0  0  0  0  0  0  0
   36.3850   31.7710   49.9020 C   0  0  0  0  0  0  0  0  0  0  0  0
   37.3870   32.6740   49.7810 N   0  0  0  0  0  0  0  0  0  0  0  0
   37.9770   32.4540   48.6020 C   0  0  0  0  0  0  0  0  0  0  0  0
   39.0360   33.0460   47.9440 C   0  0  0  0  0  0  0  0  0  0  0  0
   39.4370   32.6250   46.7430 N   0  0  0  0  0  0  0  0  0  0  0  0
   38.8210   31.5860   46.1020 C   0  0  0  0  0  0  0  0  0  0  0  0
   37.7910   31.0180   46.7580 N   0  0  0  0  0  0  0  0  0  0  0  0
   37.3540   31.4050   47.9600 C   0  0  0  0  0  0  0  0  0  0  0  0
   35.7400   31.7280   50.7720 H   0  0  0  0  0  0  0  0  0  0  0  0
   39.1520   31.2450   45.1210 H   0  0  0  0  0  0  0  0  0  0  0  0
   39.7150   34.1290   48.5570 N   0  0  0  0  0  0  0  0  0  0  0  0
   39.4950   34.4640   49.5200 H   0  0  0  0  0  0  0  0  0  0  0  0
   40.4750   34.6480   48.0650 H   0  0  0  0  0  0  0  0  0  0  0  0
   32.5400   26.9850   47.6150 C   0  0  0  0  0  0  0  0  0  0  0  0
   31.3320   27.1730   48.5520 C   0  0  0  0  0  0  0  0  0  0  0  0
   31.0280   28.2290   48.5790 H   0  0  0  0  0  0  0  0  0  0  0  0
   31.6160   26.9010   49.5950 H   0  0  0  0  0  0  0  0  0  0  0  0
   30.4760   26.5910   48.2100 H   0  0  0  0  0  0  0  0  0  0  0  0
   31.9980   27.2310   46.2270 C   0  0  0  0  0  0  0  0  0  0  0  0
   31.6570   28.3010   46.1410 H   0  0  0  0  0  0  0  0  0  0  0  0
   31.1270   26.5910   46.0460 H   0  0  0  0  0  0  0  0  0  0  0  0
   32.7550   27.1150   45.4240 H   0  0  0  0  0  0  0  0  0  0  0  0
   33.0530   25.5910   47.6990 C   0  0  0  0  0  0  0  0  0  0  0  0
   34.0130   25.5290   48.2720 H   0  0  0  0  0  0  0  0  0  0  0  0
   32.3300   24.9900   48.3170 H   0  0  0  0  0  0  0  0  0  0  0  0
   33.2010   24.9260   46.4240 N   0  0  0  0  0  0  0  0  0  0  0  0
   34.3470   25.1730   45.7300 C   0  0  0  0  0  3  0  0  0  0  0  0
   34.6540   24.6160   44.5070 C   0  0  0  0  0  0  0  0  0  0  0  0
   35.9360   24.9430   43.8160 C   0  0  0  0  0  1  0  0  0  0  0  0
   33.7510   23.7540   43.9370 C   0  0  0  0  0  0  0  0  0  0  0  0
   34.0040   23.2310   42.8190 O   0  0  0  0  0  0  0  0  0  0  0  0
   32.6370   23.5290   44.6340 N   0  0  0  0  0  0  0  0  0  0  0  0
   32.3500   24.0760   45.8230 C   0  0  0  0  0  0  0  0  0  0  0  0
   31.2970   23.8300   46.4250 O   0  0  0  0  0  0  0  0  0  0  0  0
   31.9130   22.8830   44.2540 H   0  0  0  0  0  0  0  0  0  0  0  0
  1  2  1  0  0  0  0
  2  9  1  0  0  0  0
  2  3  2  0  0  0  0
  3  8  1  0  0  0  0
  4  3  1  0  0  0  0
  5  4  2  0  0  0  0
  6  1  2  0  0  0  0
  6  5  1  0  0  0  0
  7  1  1  0  0  0  0
  9 10  1  0  0  0  0
 10 18  1  0  0  0  0
 11 10  2  0  0  0  0
 12 11  1  0  0  0  0
 13 20  1  0  0  0  0
 13 12  2  0  0  0  0
 14 13  1  0  0  0  0
 15 14  2  0  0  0  0
 15 16  1  0  0  0  0
 16 17  2  0  0  0  0
 17 12  1  0  0  0  0
 17  9  1  0  0  0  0
 19 15  1  0  0  0  0
 20 21  1  0  0  0  0
 22 20  1  0  0  0  0
 23 32  1  0  0  0  0
 23  5  1  0  0  0  0
 23 24  1  0  0  0  0
 24 25  1  0  0  0  0
 24 26  1  0  0  0  0
 27 24  1  0  0  0  0
 28 23  1  0  0  0  0
 29 28  1  0  0  0  0
 30 28  1  0  0  0  0
 31 28  1  0  0  0  0
 32 33  1  0  0  0  0
 32 34  1  0  0  0  0
 35 32  1  0  0  0  0
 36 35  1  0  0  0  0
 37 36  2  0  0  0  0
 38 37  1  0  0  0  0
 39 37  1  0  0  0  0
 39 41  1  0  0  0  0
 40 39  2  0  0  0  0
 41 42  1  0  0  0  0
 42 35  1  0  0  0  0
 42 43  2  0  0  0  0
 44 41  1  0  0  0  0
M  END
>  <minimizedAffinity>
-5.51761913

>  <minimizedRMSD>
1.92752779

$$$$
