
 OpenBabel03252514063D

 25 27  0  0  0  0  0  0  0  0999 V2000
   36.7610   31.2570   48.7750 N   0  0  0  0  0  0  0  0  0  0  0  0
   36.8630   32.1340   49.8040 C   0  0  0  0  0  0  0  0  0  0  0  0
   37.8570   33.0110   49.5130 N   0  0  0  0  0  0  0  0  0  0  0  0
   38.3480   32.6630   48.3180 C   0  0  0  0  0  0  0  0  0  0  0  0
   39.3540   33.1710   47.5120 C   0  0  0  0  0  0  0  0  0  0  0  0
   39.6460   32.6100   46.3230 N   0  0  0  0  0  0  0  0  0  0  0  0
   38.9770   31.5250   45.8530 C   0  0  0  0  0  0  0  0  0  0  0  0
   38.0040   31.0460   46.6500 N   0  0  0  0  0  0  0  0  0  0  0  0
   37.6730   31.5620   47.8340 C   0  0  0  0  0  0  0  0  0  0  0  0
   40.0900   34.2870   47.9240 N   0  0  0  0  0  0  0  0  0  0  0  0
   36.2510   32.1360   50.7120 H   0  0  0  0  0  0  0  0  0  0  0  0
   39.2510   31.1120   44.8910 H   0  0  0  0  0  0  0  0  0  0  0  0
   40.6910   34.2880   48.7930 H   0  0  0  0  0  0  0  0  0  0  0  0
   40.2300   35.2550   47.5570 H   0  0  0  0  0  0  0  0  0  0  0  0
   34.7480   30.2830   47.8350 C   0  0  0  0  0  0  0  0  0  0  0  0
   35.8160   30.1900   48.7380 C   0  0  0  0  0  0  0  0  0  0  0  0
   35.8540   29.0480   49.5240 C   0  0  0  0  0  0  0  0  0  0  0  0
   34.8900   28.1020   49.3930 N   0  0  0  0  0  0  0  0  0  0  0  0
   33.8840   28.2240   48.5200 C   0  0  0  0  0  0  0  0  0  0  0  0
   33.8170   29.3210   47.7400 N   0  0  0  0  0  0  0  0  0  0  0  0
   34.6600   31.1480   47.1920 H   0  0  0  0  0  0  0  0  0  0  0  0
   36.6640   28.9780   50.2090 H   0  0  0  0  0  0  0  0  0  0  0  0
   32.8280   27.2080   48.3620 C   0  0  0  0  0  3  0  0  0  0  0  0
   31.5540   27.7630   47.7650 C   0  0  0  0  0  1  0  0  0  0  0  0
   33.3430   26.1300   47.3990 C   0  0  0  0  0  1  0  0  0  0  0  0
  1  2  1  0  0  0  0
  2 11  1  0  0  0  0
  3  2  2  0  0  0  0
  4  3  1  0  0  0  0
  5 10  1  0  0  0  0
  5  4  2  0  0  0  0
  6  5  1  0  0  0  0
  7  6  2  0  0  0  0
  7  8  1  0  0  0  0
  8  9  2  0  0  0  0
  9  4  1  0  0  0  0
  9  1  1  0  0  0  0
 10 13  1  0  0  0  0
 12  7  1  0  0  0  0
 14 10  1  0  0  0  0
 15 16  1  0  0  0  0
 16  1  1  0  0  0  0
 16 17  2  0  0  0  0
 17 22  1  0  0  0  0
 18 17  1  0  0  0  0
 19 18  2  0  0  0  0
 20 15  2  0  0  0  0
 20 19  1  0  0  0  0
 21 15  1  0  0  0  0
 23 19  1  0  0  0  0
 24 23  1  0  0  0  0
 25 23  1  0  0  0  0
M  END
>  <minimizedAffinity>
-5.61785269

>  <minimizedRMSD>
2.6758914

$$$$
