
 OpenBabel03252510123D

 25 27  0  0  0  0  0  0  0  0999 V2000
   36.4540   29.2070   50.8590 C   0  0  0  0  0  0  0  0  0  0  0  0
   36.8720   29.5420   49.5590 C   0  0  0  0  0  0  0  0  0  0  0  0
   35.9050   29.9750   48.6690 C   0  0  0  0  0  0  0  0  0  0  0  0
   34.5950   30.0620   49.0770 N   0  0  0  0  0  0  0  0  0  0  0  0
   34.2360   29.7280   50.3450 C   0  0  0  0  0  0  0  0  0  0  0  0
   35.1470   29.3060   51.2280 N   0  0  0  0  0  0  0  0  0  0  0  0
   36.3170   30.3130   47.3600 N   0  0  0  0  0  0  0  0  0  0  0  0
   35.3840   29.9450   46.4340 C   0  0  0  0  0  0  0  0  0  0  0  0
   35.5640   30.1720   45.0860 C   0  0  0  0  0  0  0  0  0  0  0  0
   36.7530   30.8020   44.6890 C   0  0  0  0  0  0  0  0  0  0  0  0
   36.9480   31.0240   43.4720 O   0  0  0  0  0  0  0  0  0  0  0  0
   37.6270   31.1380   45.6370 N   0  0  0  0  0  0  0  0  0  0  0  0
   37.4330   30.9080   46.9490 C   0  0  0  0  0  0  0  0  0  0  0  0
   38.2120   31.2000   47.8640 O   0  0  0  0  0  0  0  0  0  0  0  0
   37.1810   28.8630   51.5880 H   0  0  0  0  0  0  0  0  0  0  0  0
   37.9250   29.4320   49.3580 H   0  0  0  0  0  0  0  0  0  0  0  0
   33.1700   29.8570   50.4920 H   0  0  0  0  0  0  0  0  0  0  0  0
   34.4490   29.4610   46.6470 H   0  0  0  0  0  0  0  0  0  0  0  0
   34.8600   29.9020   44.3250 H   0  0  0  0  0  0  0  0  0  0  0  0
   38.8530   31.7800   45.2980 C   0  0  0  0  0  0  0  0  0  0  0  0
   40.1630   31.4040   45.0600 C   0  0  0  0  0  0  0  0  0  0  0  0
   40.8590   32.5400   44.7780 N   0  0  0  0  0  0  0  0  0  0  0  0
   40.0220   33.5890   44.8370 C   0  0  0  0  0  0  0  0  0  0  0  0
   38.7780   33.1350   45.1570 N   0  0  0  0  0  0  0  0  0  0  0  0
   38.0310   33.8810   45.2320 H   0  0  0  0  0  0  0  0  0  0  0  0
  1  6  1  0  0  0  0
  1 15  1  0  0  0  0
  2  1  2  0  0  0  0
  3  4  2  0  0  0  0
  3  2  1  0  0  0  0
  4  5  1  0  0  0  0
  5 17  1  0  0  0  0
  5  6  2  0  0  0  0
  7  3  1  0  0  0  0
  8 18  1  0  0  0  0
  8  7  1  0  0  0  0
  9  8  2  0  0  0  0
 10  9  1  0  0  0  0
 10 12  1  0  0  0  0
 11 10  2  0  0  0  0
 12 13  1  0  0  0  0
 13  7  1  0  0  0  0
 13 14  2  0  0  0  0
 16  2  1  0  0  0  0
 19  9  1  0  0  0  0
 20 12  1  0  0  0  0
 21 20  2  0  0  0  0
 22 23  2  0  0  0  0
 22 21  1  0  0  0  0
 23 24  1  0  0  0  0
 24 25  1  0  0  0  0
 24 20  1  0  0  0  0
M  END
>  <minimizedAffinity>
-5.63093758

>  <minimizedRMSD>
3.37402797

$$$$
