
 OpenBabel03252514083D

 48 52  0  0  0  0  0  0  0  0999 V2000
   30.0400   27.6910   47.5070 C   0  0  0  0  0  0  0  0  0  0  0  0
   32.6420   29.9210   46.1830 C   0  0  0  0  0  0  0  0  0  0  0  0
   33.8220   29.1730   46.2700 C   0  0  0  0  0  0  0  0  0  0  0  0
   33.6950   27.8990   46.7900 C   0  0  0  0  0  0  0  0  0  0  0  0
   32.4800   27.4560   47.1740 N   0  0  0  0  0  0  0  0  0  0  0  0
   31.3680   28.1890   47.0810 C   0  0  0  0  0  0  0  0  0  0  0  0
   31.4630   29.4180   46.5850 N   0  0  0  0  0  0  0  0  0  0  0  0
   32.6880   30.9280   45.7820 H   0  0  0  0  0  0  0  0  0  0  0  0
   34.6000   27.3090   46.8630 H   0  0  0  0  0  0  0  0  0  0  0  0
   35.0370   29.7710   45.8260 N   0  0  0  0  0  0  0  0  0  0  0  0
   35.9720   30.2920   46.6440 C   0  0  0  0  0  0  0  0  0  0  0  0
   36.9860   30.7700   45.8910 N   0  0  0  0  0  0  0  0  0  0  0  0
   36.6680   30.5390   44.6090 C   0  0  0  0  0  0  0  0  0  0  0  0
   37.3000   30.7980   43.4130 C   0  0  0  0  0  0  0  0  0  0  0  0
   36.7430   30.4500   42.2360 N   0  0  0  0  0  0  0  0  0  0  0  0
   35.5360   29.8320   42.1820 C   0  0  0  0  0  0  0  0  0  0  0  0
   34.9340   29.5870   43.3580 N   0  0  0  0  0  0  0  0  0  0  0  0
   35.4440   29.9110   44.5540 C   0  0  0  0  0  0  0  0  0  0  0  0
   35.9080   30.3170   47.7350 H   0  0  0  0  0  0  0  0  0  0  0  0
   35.0630   29.5410   41.2530 H   0  0  0  0  0  0  0  0  0  0  0  0
   38.5550   31.4380   43.4070 N   0  0  0  0  0  0  0  0  0  0  0  0
   39.2160   30.6710   43.1840 H   0  0  0  0  0  0  0  0  0  0  0  0
   38.6240   32.4540   43.6000 H   0  0  0  0  0  0  0  0  0  0  0  0
   30.1940   26.8560   48.7910 C   0  0  0  0  0  0  0  0  0  0  0  0
   29.1830   26.5300   49.0690 H   0  0  0  0  0  0  0  0  0  0  0  0
   30.9170   26.0320   48.6430 H   0  0  0  0  0  0  0  0  0  0  0  0
   30.5600   27.5370   49.5800 H   0  0  0  0  0  0  0  0  0  0  0  0
   29.1420   28.8500   47.9150 C   0  0  0  0  0  0  0  0  0  0  0  0
   28.1170   28.5170   48.0790 H   0  0  0  0  0  0  0  0  0  0  0  0
   29.5720   29.4050   48.7760 H   0  0  0  0  0  0  0  0  0  0  0  0
   29.1550   29.5720   47.0730 H   0  0  0  0  0  0  0  0  0  0  0  0
   29.3260   26.9060   46.4610 C   0  0  0  0  0  0  0  0  0  0  0  0
   28.2480   26.9290   46.7100 H   0  0  0  0  0  0  0  0  0  0  0  0
   29.6760   25.8490   46.5220 H   0  0  0  0  0  0  0  0  0  0  0  0
   29.5750   27.4300   45.1580 N   0  0  0  0  0  0  0  0  0  0  0  0
   30.4720   26.9120   44.3030 C   0  0  0  0  0  3  0  0  0  0  0  0
   30.4910   27.6190   43.1380 N   0  0  0  0  0  0  0  0  0  0  0  0
   29.5890   28.6220   43.2230 C   0  0  0  0  0  0  0  0  0  0  0  0
   29.1740   29.6350   42.3840 C   0  0  0  0  0  0  0  0  0  0  0  0
   29.7420   29.6600   41.2770 O   0  0  0  0  0  0  0  0  0  0  0  0
   28.2200   30.4910   42.8020 N   0  0  0  0  0  0  0  0  0  0  0  0
   27.7240   30.3100   44.0230 C   0  0  0  0  0  0  0  0  0  0  0  0
   26.7190   31.2340   44.4280 N   0  0  0  0  0  0  0  0  0  0  0  0
   28.1020   29.3460   44.8550 N   0  0  0  0  0  0  0  0  0  0  0  0
   29.0530   28.4690   44.4760 C   0  0  0  0  0  0  0  0  0  0  0  0
   27.9650   31.2240   42.1070 H   0  0  0  0  0  0  0  0  0  0  0  0
   26.5160   32.1360   43.9450 H   0  0  0  0  0  0  0  0  0  0  0  0
   26.0350   31.2160   45.2160 H   0  0  0  0  0  0  0  0  0  0  0  0
  1 28  1  0  0  0  0
  1 24  1  0  0  0  0
  2  3  2  0  0  0  0
  2  7  1  0  0  0  0
  3  4  1  0  0  0  0
  4  9  1  0  0  0  0
  4  5  2  0  0  0  0
  6  5  1  0  0  0  0
  6  1  1  0  0  0  0
  7  6  2  0  0  0  0
  8  2  1  0  0  0  0
 10  3  1  0  0  0  0
 10 11  1  0  0  0  0
 11 19  1  0  0  0  0
 12 11  2  0  0  0  0
 13 12  1  0  0  0  0
 14 13  2  0  0  0  0
 15 14  1  0  0  0  0
 16 15  2  0  0  0  0
 16 17  1  0  0  0  0
 17 18  2  0  0  0  0
 18 13  1  0  0  0  0
 18 10  1  0  0  0  0
 20 16  1  0  0  0  0
 21 14  1  0  0  0  0
 21 23  1  0  0  0  0
 22 21  1  0  0  0  0
 24 25  1  0  0  0  0
 24 27  1  0  0  0  0
 26 24  1  0  0  0  0
 28 29  1  0  0  0  0
 28 30  1  0  0  0  0
 31 28  1  0  0  0  0
 32 34  1  0  0  0  0
 32 33  1  0  0  0  0
 32  1  1  0  0  0  0
 35 32  1  0  0  0  0
 36 35  1  0  0  0  0
 37 38  1  0  0  0  0
 37 36  2  0  0  0  0
 38 45  2  0  0  0  0
 39 41  1  0  0  0  0
 39 38  1  0  0  0  0
 40 39  2  0  0  0  0
 41 42  1  0  0  0  0
 42 43  1  0  0  0  0
 42 44  2  0  0  0  0
 43 48  1  0  0  0  0
 45 44  1  0  0  0  0
 45 35  1  0  0  0  0
 46 41  1  0  0  0  0
 47 43  1  0  0  0  0
M  END
>  <minimizedAffinity>
-3.69561005

>  <minimizedRMSD>
5.57833481

$$$$
