
 OpenBabel03252514033D

 33 35  0  0  1  0  0  0  0  0999 V2000
   35.4170   29.4850   48.9350 C   0  0  2  0  0  0  0  0  0  0  0  0
   34.2870   29.3840   49.8510 C   0  0  0  0  0  0  0  0  0  0  0  0
   34.6770   28.1430   49.2470 C   0  0  1  0  0  0  0  0  0  0  0  0
   35.3830   29.7210   47.8740 H   0  0  0  0  0  0  0  0  0  0  0  0
   33.3380   29.9000   49.5320 H   0  0  0  0  0  0  0  0  0  0  0  0
   34.4980   29.6470   50.9210 H   0  0  0  0  0  0  0  0  0  0  0  0
   35.3380   27.3780   49.6500 H   0  0  0  0  0  0  0  0  0  0  0  0
   36.8160   29.4820   49.5720 C   0  0  0  0  0  0  0  0  0  0  0  0
   37.3480   28.5700   49.2330 H   0  0  0  0  0  0  0  0  0  0  0  0
   36.7100   29.4270   50.6590 H   0  0  0  0  0  0  0  0  0  0  0  0
   38.2370   32.8400   49.3810 C   0  0  0  0  0  0  0  0  0  0  0  0
   38.8860   32.8310   48.1310 C   0  0  0  0  0  0  0  0  0  0  0  0
   38.8200   31.6450   47.3650 C   0  0  0  0  0  0  0  0  0  0  0  0
   38.1320   30.5780   47.8790 N   0  0  0  0  0  0  0  0  0  0  0  0
   37.5320   30.6470   49.0830 C   0  0  0  0  0  0  0  0  0  0  0  0
   37.5930   31.7820   49.8180 N   0  0  0  0  0  0  0  0  0  0  0  0
   38.3550   33.7960   49.8730 H   0  0  0  0  0  0  0  0  0  0  0  0
   39.4440   33.5850   47.6290 H   0  0  0  0  0  0  0  0  0  0  0  0
   39.2830   31.5320   46.3940 H   0  0  0  0  0  0  0  0  0  0  0  0
   33.7540   27.6320   48.1580 C   0  0  0  0  0  0  0  0  0  0  0  0
   34.0710   26.4630   47.7190 O   0  0  0  0  0  0  0  0  0  0  0  0
   32.6480   28.2890   47.6340 O   0  0  0  0  0  0  0  0  0  0  0  0
   31.3620   28.0790   48.0520 C   0  0  0  0  0  0  0  0  0  0  0  0
   30.9600   27.7510   49.4420 C   0  0  0  0  0  0  0  0  0  0  0  0
   29.6460   27.5750   49.6950 C   0  0  0  0  0  0  0  0  0  0  0  0
   28.6750   27.6960   48.6840 C   0  0  0  0  0  0  0  0  0  0  0  0
   29.6800   28.1030   47.1780 S   0  0  0  0  0  0  0  0  0  0  0  0
   31.7440   27.6720   50.1720 H   0  0  0  0  0  0  0  0  0  0  0  0
   29.2590   27.3350   50.6700 H   0  0  0  0  0  0  0  0  0  0  0  0
   27.3160   27.6020   48.5360 C   0  0  0  0  0  0  0  0  0  0  0  0
   26.8900   27.9390   47.1250 C   0  0  0  0  0  1  0  0  0  0  0  0
   26.8000   26.1860   48.8000 C   0  0  0  0  0  1  0  0  0  0  0  0
   26.5560   28.5230   49.4700 C   0  0  0  0  0  1  0  0  0  0  0  0
  1  4  1  6  0  0  0
  1  3  1  0  0  0  0
  1  8  1  0  0  0  0
  1  2  1  0  0  0  0
  2  6  1  0  0  0  0
  3  7  1  1  0  0  0
  3  2  1  0  0  0  0
  5  2  1  0  0  0  0
  8 10  1  0  0  0  0
  9  8  1  0  0  0  0
 11 16  1  0  0  0  0
 11 17  1  0  0  0  0
 12 11  2  0  0  0  0
 13 14  2  0  0  0  0
 13 12  1  0  0  0  0
 14 15  1  0  0  0  0
 15  8  1  0  0  0  0
 15 16  2  0  0  0  0
 18 12  1  0  0  0  0
 19 13  1  0  0  0  0
 20  3  1  0  0  0  0
 21 20  2  0  0  0  0
 22 23  1  0  0  0  0
 22 20  1  0  0  0  0
 23 24  2  0  0  0  0
 24 25  1  0  0  0  0
 24 28  1  0  0  0  0
 25 29  1  0  0  0  0
 26 25  2  0  0  0  0
 27 23  1  0  0  0  0
 27 26  1  0  0  0  0
 30 26  1  0  0  0  0
 30 32  1  0  0  0  0
 30 33  1  0  0  0  0
 31 30  1  0  0  0  0
M  END
>  <minimizedAffinity>
-5.66819382

>  <minimizedRMSD>
0.668104351

$$$$
