
 OpenBabel03252511513D

 24 26  0  0  0  0  0  0  0  0999 V2000
   37.4270   31.0290   48.2850 N   0  0  0  0  0  0  0  0  0  0  0  0
   38.5450   31.7390   48.5590 C   0  0  0  0  0  0  0  0  0  0  0  0
   39.1560   32.1530   47.4440 N   0  0  0  0  0  0  0  0  0  0  0  0
   38.4150   31.7000   46.4060 C   0  0  0  0  0  0  0  0  0  0  0  0
   38.5070   31.7850   45.0490 C   0  0  0  0  0  0  0  0  0  0  0  0
   37.6250   31.2380   44.1940 N   0  0  0  0  0  0  0  0  0  0  0  0
   36.5880   30.5620   44.7690 C   0  0  0  0  0  0  0  0  0  0  0  0
   36.4920   30.4740   46.0920 N   0  0  0  0  0  0  0  0  0  0  0  0
   37.3440   31.0020   46.9690 C   0  0  0  0  0  0  0  0  0  0  0  0
   38.9210   31.9600   49.5470 H   0  0  0  0  0  0  0  0  0  0  0  0
   35.8100   30.0760   44.1940 H   0  0  0  0  0  0  0  0  0  0  0  0
   35.1830   30.4580   49.0290 C   0  0  0  0  0  0  0  0  0  0  0  0
   36.5630   30.4570   49.2360 C   0  0  0  0  0  0  0  0  0  0  0  0
   37.0670   29.8800   50.3960 C   0  0  0  0  0  0  0  0  0  0  0  0
   36.1560   29.3430   51.2740 N   0  0  0  0  0  0  0  0  0  0  0  0
   34.8220   29.3600   51.0430 C   0  0  0  0  0  0  0  0  0  0  0  0
   34.3430   29.9150   49.9280 N   0  0  0  0  0  0  0  0  0  0  0  0
   34.7990   30.9120   48.1170 H   0  0  0  0  0  0  0  0  0  0  0  0
   38.1140   29.8470   50.6130 H   0  0  0  0  0  0  0  0  0  0  0  0
   34.2130   28.9040   51.8130 H   0  0  0  0  0  0  0  0  0  0  0  0
   39.6750   32.5430   44.5370 C   0  0  0  0  0  0  0  0  0  0  0  0
   39.9620   33.7810   45.3410 C   0  0  0  0  0  0  0  0  0  0  0  0
   40.8730   31.6210   44.6490 C   0  0  0  0  0  0  0  0  0  0  0  0
   39.4500   32.9540   43.1000 C   0  0  0  0  0  0  0  0  0  0  0  0
  1  2  1  0  0  0  0
  1 13  1  0  0  0  0
  2 10  1  0  0  0  0
  3  2  2  0  0  0  0
  4  9  1  0  0  0  0
  4  3  1  0  0  0  0
  5  4  2  0  0  0  0
  6  7  2  0  0  0  0
  6  5  1  0  0  0  0
  7  8  1  0  0  0  0
  8  9  2  0  0  0  0
  9  1  1  0  0  0  0
 11  7  1  0  0  0  0
 12 13  2  0  0  0  0
 12 17  1  0  0  0  0
 13 14  1  0  0  0  0
 14 19  1  0  0  0  0
 14 15  2  0  0  0  0
 16 15  1  0  0  0  0
 16 20  1  0  0  0  0
 17 16  2  0  0  0  0
 18 12  1  0  0  0  0
 21 23  1  0  0  0  0
 21  5  1  0  0  0  0
 21 22  1  0  0  0  0
 24 21  1  0  0  0  0
M  END
>  <minimizedAffinity>
-5.28676653

>  <minimizedRMSD>
1.69930267

$$$$
