
 OpenBabel03252512293D

 32 34  0  0  1  0  0  0  0  0999 V2000
   35.1720   29.5210   48.6360 C   0  0  0  0  0  0  0  0  0  0  0  0
   34.7380   28.3370   49.2390 C   0  0  0  0  0  0  0  0  0  0  0  0
   33.6100   27.7820   48.7330 C   0  0  0  0  0  0  0  0  0  0  0  0
   32.9970   28.3710   47.7250 C   0  0  0  0  0  0  0  0  0  0  0  0
   33.9640   29.8590   47.3260 S   0  0  0  0  0  0  0  0  0  0  0  0
   35.3450   27.9530   50.0750 H   0  0  0  0  0  0  0  0  0  0  0  0
   33.2070   26.8570   49.1510 H   0  0  0  0  0  0  0  0  0  0  0  0
   38.0390   30.8460   50.5110 C   0  0  0  0  0  0  0  0  0  0  0  0
   38.5790   31.8040   49.6410 C   0  0  0  0  0  0  0  0  0  0  0  0
   37.9500   31.9820   48.4230 C   0  0  0  0  0  0  0  0  0  0  0  0
   36.8520   31.2340   48.1230 N   0  0  0  0  0  0  0  0  0  0  0  0
   36.3850   30.3380   48.9910 C   0  0  0  0  0  0  0  0  0  0  0  0
   36.9380   30.0810   50.2350 N   0  0  0  0  0  0  0  0  0  0  0  0
   38.4800   30.6550   51.4810 H   0  0  0  0  0  0  0  0  0  0  0  0
   39.4400   32.3480   49.9510 H   0  0  0  0  0  0  0  0  0  0  0  0
   38.3370   32.7100   47.7290 H   0  0  0  0  0  0  0  0  0  0  0  0
   31.7780   27.9880   46.9770 C   0  0  2  0  0  0  0  0  0  0  0  0
   31.9930   26.9620   46.5560 H   0  0  0  0  0  0  0  0  0  0  0  0
   31.5590   28.9300   45.8770 C   0  0  0  0  0  0  0  0  0  0  0  0
   32.4120   29.6560   45.7490 H   0  0  0  0  0  0  0  0  0  0  0  0
   31.4400   28.4370   44.8990 H   0  0  0  0  0  0  0  0  0  0  0  0
   30.6790   29.5760   46.1440 H   0  0  0  0  0  0  0  0  0  0  0  0
   30.6250   27.8730   47.9440 C   0  0  0  0  0  0  0  0  0  0  0  0
   29.9520   28.7340   47.7180 H   0  0  0  0  0  0  0  0  0  0  0  0
   30.9610   28.0490   48.9920 H   0  0  0  0  0  0  0  0  0  0  0  0
   29.9480   26.7080   47.8660 O   0  0  0  0  0  0  0  0  0  0  0  0
   29.2210   26.3450   46.7450 C   0  0  0  0  0  0  0  0  0  0  0  0
   29.0710   25.3080   45.8540 C   0  0  0  0  0  0  0  0  0  0  0  0
   28.0990   25.6950   44.9530 C   0  0  0  0  0  0  0  0  0  0  0  0
   27.6930   26.9570   45.3290 C   0  0  0  0  0  0  0  0  0  0  0  0
   26.9290   27.4780   44.7710 H   0  0  0  0  0  0  0  0  0  0  0  0
   28.3840   27.3010   46.3950 O   0  0  0  0  0  0  0  0  0  0  0  0
  1 12  1  0  0  0  0
  1  2  2  0  0  0  0
  2  6  1  0  0  0  0
  3  7  1  0  0  0  0
  3  2  1  0  0  0  0
  4  3  2  0  0  0  0
  5  4  1  0  0  0  0
  5  1  1  0  0  0  0
  8 14  1  0  0  0  0
  9 15  1  0  0  0  0
  9  8  2  0  0  0  0
 10  9  1  0  0  0  0
 11 10  2  0  0  0  0
 11 12  1  0  0  0  0
 12 13  2  0  0  0  0
 13  8  1  0  0  0  0
 16 10  1  0  0  0  0
 17 18  1  6  0  0  0
 17  4  1  0  0  0  0
 17 23  1  0  0  0  0
 19 22  1  0  0  0  0
 19 17  1  0  0  0  0
 20 19  1  0  0  0  0
 21 19  1  0  0  0  0
 23 25  1  0  0  0  0
 24 23  1  0  0  0  0
 26 23  1  0  0  0  0
 27 26  1  0  0  0  0
 28 27  2  0  0  0  0
 29 30  2  0  0  0  0
 29 28  1  0  0  0  0
 30 32  1  0  0  0  0
 31 30  1  0  0  0  0
 32 27  1  0  0  0  0
M  END
>  <minimizedAffinity>
-4.52214813

>  <minimizedRMSD>
1.04228806

$$$$
