
 OpenBabel03252514043D

 33 35  0  0  1  0  0  0  0  0999 V2000
   35.4120   29.4640   48.8810 C   0  0  2  0  0  0  0  0  0  0  0  0
   34.2740   29.4130   49.7920 C   0  0  0  0  0  0  0  0  0  0  0  0
   34.6460   28.1470   49.2310 C   0  0  1  0  0  0  0  0  0  0  0  0
   35.3890   29.6670   47.8120 H   0  0  0  0  0  0  0  0  0  0  0  0
   33.3360   29.9340   49.4490 H   0  0  0  0  0  0  0  0  0  0  0  0
   34.4820   29.7070   50.8540 H   0  0  0  0  0  0  0  0  0  0  0  0
   35.2910   27.3840   49.6640 H   0  0  0  0  0  0  0  0  0  0  0  0
   36.8050   29.4590   49.5280 C   0  0  0  0  0  0  0  0  0  0  0  0
   37.3540   28.5690   49.1580 H   0  0  0  0  0  0  0  0  0  0  0  0
   36.6930   29.3590   50.6120 H   0  0  0  0  0  0  0  0  0  0  0  0
   38.1290   32.8610   49.4540 C   0  0  0  0  0  0  0  0  0  0  0  0
   38.8340   32.8930   48.2360 C   0  0  0  0  0  0  0  0  0  0  0  0
   38.8400   31.7180   47.4500 C   0  0  0  0  0  0  0  0  0  0  0  0
   38.1630   30.6220   47.9150 N   0  0  0  0  0  0  0  0  0  0  0  0
   37.5070   30.6530   49.0900 C   0  0  0  0  0  0  0  0  0  0  0  0
   37.4990   31.7770   49.8450 N   0  0  0  0  0  0  0  0  0  0  0  0
   38.1950   33.8120   49.9660 H   0  0  0  0  0  0  0  0  0  0  0  0
   39.3910   33.6720   47.7710 H   0  0  0  0  0  0  0  0  0  0  0  0
   39.3500   31.6350   46.4990 H   0  0  0  0  0  0  0  0  0  0  0  0
   33.7220   27.6160   48.1520 C   0  0  0  0  0  0  0  0  0  0  0  0
   34.0490   26.4470   47.7210 O   0  0  0  0  0  0  0  0  0  0  0  0
   32.6060   28.2570   47.6290 O   0  0  0  0  0  0  0  0  0  0  0  0
   31.3280   28.0580   48.0770 C   0  0  0  0  0  0  0  0  0  0  0  0
   30.9520   27.7730   49.4830 C   0  0  0  0  0  0  0  0  0  0  0  0
   29.6420   27.6040   49.7660 C   0  0  0  0  0  0  0  0  0  0  0  0
   28.6540   27.6920   48.7680 C   0  0  0  0  0  0  0  0  0  0  0  0
   29.6300   28.0520   47.2330 S   0  0  0  0  0  0  0  0  0  0  0  0
   31.7480   27.7190   50.2010 H   0  0  0  0  0  0  0  0  0  0  0  0
   29.2740   27.3940   50.7540 H   0  0  0  0  0  0  0  0  0  0  0  0
   27.2920   27.5910   48.6480 C   0  0  0  0  0  0  0  0  0  0  0  0
   26.8270   28.0120   47.2720 C   0  0  0  0  0  1  0  0  0  0  0  0
   26.7980   26.1550   48.8340 C   0  0  0  0  0  1  0  0  0  0  0  0
   26.5460   28.4420   49.6550 C   0  0  0  0  0  1  0  0  0  0  0  0
  1  4  1  6  0  0  0
  1  3  1  0  0  0  0
  1  8  1  0  0  0  0
  1  2  1  0  0  0  0
  2  6  1  0  0  0  0
  3  7  1  1  0  0  0
  3  2  1  0  0  0  0
  5  2  1  0  0  0  0
  8 10  1  0  0  0  0
  9  8  1  0  0  0  0
 11 16  1  0  0  0  0
 11 17  1  0  0  0  0
 12 11  2  0  0  0  0
 13 14  2  0  0  0  0
 13 12  1  0  0  0  0
 14 15  1  0  0  0  0
 15  8  1  0  0  0  0
 15 16  2  0  0  0  0
 18 12  1  0  0  0  0
 19 13  1  0  0  0  0
 20  3  1  0  0  0  0
 21 20  2  0  0  0  0
 22 23  1  0  0  0  0
 22 20  1  0  0  0  0
 23 24  2  0  0  0  0
 24 25  1  0  0  0  0
 24 28  1  0  0  0  0
 25 29  1  0  0  0  0
 26 25  2  0  0  0  0
 27 23  1  0  0  0  0
 27 26  1  0  0  0  0
 30 26  1  0  0  0  0
 30 32  1  0  0  0  0
 30 33  1  0  0  0  0
 31 30  1  0  0  0  0
M  END
>  <minimizedAffinity>
-5.66090631

>  <minimizedRMSD>
0.588515818

$$$$
