
 OpenBabel03252512213D

 20 21  0  0  0  0  0  0  0  0999 V2000
   34.9400   29.3250   48.6880 C   0  0  0  0  0  0  0  0  0  0  0  0
   34.3160   28.1420   49.1460 C   0  0  0  0  0  0  0  0  0  0  0  0
   33.2120   27.7260   48.4730 C   0  0  0  0  0  0  0  0  0  0  0  0
   32.7730   28.4400   47.4290 C   0  0  0  0  0  0  0  0  0  0  0  0
   33.9140   29.8170   47.2860 S   0  0  0  0  0  0  0  0  0  0  0  0
   34.7470   27.6190   50.0140 H   0  0  0  0  0  0  0  0  0  0  0  0
   32.6600   26.8370   48.7390 H   0  0  0  0  0  0  0  0  0  0  0  0
   37.5080   30.3710   51.1210 C   0  0  0  0  0  0  0  0  0  0  0  0
   38.3940   31.1200   50.2980 C   0  0  0  0  0  0  0  0  0  0  0  0
   38.0870   31.2470   48.9370 C   0  0  0  0  0  0  0  0  0  0  0  0
   36.9570   30.6440   48.4740 N   0  0  0  0  0  0  0  0  0  0  0  0
   36.1470   29.9460   49.2780 C   0  0  0  0  0  0  0  0  0  0  0  0
   36.3900   29.7890   50.6020 N   0  0  0  0  0  0  0  0  0  0  0  0
   37.6750   30.2270   52.1830 H   0  0  0  0  0  0  0  0  0  0  0  0
   39.2670   31.5580   50.7730 H   0  0  0  0  0  0  0  0  0  0  0  0
   38.7550   31.8110   48.3220 H   0  0  0  0  0  0  0  0  0  0  0  0
   31.6260   28.2580   46.5110 C   0  0  0  0  0  0  0  0  0  0  0  0
   31.2190   29.5940   45.9470 C   0  0  0  0  0  0  0  0  0  0  0  0
   30.4290   27.6550   47.2510 C   0  0  0  0  0  0  0  0  0  0  0  0
   31.9520   27.2550   45.4100 C   0  0  0  0  0  0  0  0  0  0  0  0
  1  2  2  0  0  0  0
  1 12  1  0  0  0  0
  2  6  1  0  0  0  0
  3  7  1  0  0  0  0
  3  2  1  0  0  0  0
  4  3  2  0  0  0  0
  5  4  1  0  0  0  0
  5  1  1  0  0  0  0
  8 14  1  0  0  0  0
  9 15  1  0  0  0  0
  9  8  2  0  0  0  0
 10  9  1  0  0  0  0
 11 10  2  0  0  0  0
 11 12  1  0  0  0  0
 12 13  2  0  0  0  0
 13  8  1  0  0  0  0
 16 10  1  0  0  0  0
 17 19  1  0  0  0  0
 17  4  1  0  0  0  0
 18 17  1  0  0  0  0
 20 17  1  0  0  0  0
M  END
>  <minimizedAffinity>
-4.30740833

>  <minimizedRMSD>
0.261942327

$$$$
