
 OpenBabel03252514083D

 48 52  0  0  0  0  0  0  0  0999 V2000
   31.8950   26.9200   47.4460 C   0  0  0  0  0  0  0  0  0  0  0  0
   34.0010   29.9290   47.5010 C   0  0  0  0  0  0  0  0  0  0  0  0
   35.0190   29.6280   48.4140 C   0  0  0  0  0  0  0  0  0  0  0  0
   34.9580   28.3780   48.9990 C   0  0  0  0  0  0  0  0  0  0  0  0
   33.9530   27.5400   48.6710 N   0  0  0  0  0  0  0  0  0  0  0  0
   32.9930   27.8500   47.7970 C   0  0  0  0  0  0  0  0  0  0  0  0
   33.0290   29.0460   47.2200 N   0  0  0  0  0  0  0  0  0  0  0  0
   34.0040   30.8990   47.0140 H   0  0  0  0  0  0  0  0  0  0  0  0
   35.7390   28.1320   49.7070 H   0  0  0  0  0  0  0  0  0  0  0  0
   36.0180   30.6140   48.6640 N   0  0  0  0  0  0  0  0  0  0  0  0
   36.2210   31.2050   49.8570 C   0  0  0  0  0  0  0  0  0  0  0  0
   37.2410   32.0820   49.7360 N   0  0  0  0  0  0  0  0  0  0  0  0
   37.6610   32.0230   48.4630 C   0  0  0  0  0  0  0  0  0  0  0  0
   38.6520   32.6740   47.7610 C   0  0  0  0  0  0  0  0  0  0  0  0
   38.8670   32.4190   46.4550 N   0  0  0  0  0  0  0  0  0  0  0  0
   38.1160   31.5130   45.7800 C   0  0  0  0  0  0  0  0  0  0  0  0
   37.1550   30.8880   46.4800 N   0  0  0  0  0  0  0  0  0  0  0  0
   36.9000   31.1040   47.7780 C   0  0  0  0  0  0  0  0  0  0  0  0
   35.6480   31.0010   50.7640 H   0  0  0  0  0  0  0  0  0  0  0  0
   38.2650   31.2880   44.7320 H   0  0  0  0  0  0  0  0  0  0  0  0
   39.4640   33.6260   48.4100 N   0  0  0  0  0  0  0  0  0  0  0  0
   40.3660   33.1300   48.5330 H   0  0  0  0  0  0  0  0  0  0  0  0
   39.0870   34.5630   48.6390 H   0  0  0  0  0  0  0  0  0  0  0  0
   30.9330   26.7900   48.6410 C   0  0  0  0  0  0  0  0  0  0  0  0
   30.1350   26.1080   48.3200 H   0  0  0  0  0  0  0  0  0  0  0  0
   31.4730   26.4670   49.5510 H   0  0  0  0  0  0  0  0  0  0  0  0
   30.4840   27.7850   48.8070 H   0  0  0  0  0  0  0  0  0  0  0  0
   31.0380   27.5040   46.3320 C   0  0  0  0  0  0  0  0  0  0  0  0
   30.3250   26.7700   45.9560 H   0  0  0  0  0  0  0  0  0  0  0  0
   30.5670   28.4580   46.6500 H   0  0  0  0  0  0  0  0  0  0  0  0
   31.7320   27.7850   45.5130 H   0  0  0  0  0  0  0  0  0  0  0  0
   32.3600   25.5750   47.0070 C   0  0  0  0  0  0  0  0  0  0  0  0
   31.4600   24.9610   46.8150 H   0  0  0  0  0  0  0  0  0  0  0  0
   32.9260   25.1120   47.8490 H   0  0  0  0  0  0  0  0  0  0  0  0
   33.1910   25.6640   45.8500 N   0  0  0  0  0  0  0  0  0  0  0  0
   32.9330   26.4650   44.8030 C   0  0  0  0  0  3  0  0  0  0  0  0
   33.8970   26.3380   43.8500 N   0  0  0  0  0  0  0  0  0  0  0  0
   34.8120   25.4370   44.2730 C   0  0  0  0  0  0  0  0  0  0  0  0
   35.9770   24.9120   43.7550 C   0  0  0  0  0  0  0  0  0  0  0  0
   36.2900   25.3500   42.6330 O   0  0  0  0  0  0  0  0  0  0  0  0
   36.6660   24.0010   44.4690 N   0  0  0  0  0  0  0  0  0  0  0  0
   36.1770   23.6520   45.6550 C   0  0  0  0  0  0  0  0  0  0  0  0
   36.9340   22.6860   46.3790 N   0  0  0  0  0  0  0  0  0  0  0  0
   35.0590   24.1370   46.1830 N   0  0  0  0  0  0  0  0  0  0  0  0
   34.3400   25.0500   45.5020 C   0  0  0  0  0  0  0  0  0  0  0  0
   37.5330   23.6570   44.0050 H   0  0  0  0  0  0  0  0  0  0  0  0
   37.6890   22.0960   45.9650 H   0  0  0  0  0  0  0  0  0  0  0  0
   36.9060   22.3870   47.3780 H   0  0  0  0  0  0  0  0  0  0  0  0
  1  6  1  0  0  0  0
  1 24  1  0  0  0  0
  2  3  1  0  0  0  0
  3 10  1  0  0  0  0
  3  4  2  0  0  0  0
  4  9  1  0  0  0  0
  5  4  1  0  0  0  0
  6  5  2  0  0  0  0
  7  2  2  0  0  0  0
  7  6  1  0  0  0  0
  8  2  1  0  0  0  0
 10 11  1  0  0  0  0
 11 19  1  0  0  0  0
 12 11  2  0  0  0  0
 13 12  1  0  0  0  0
 14 21  1  0  0  0  0
 14 13  2  0  0  0  0
 15 14  1  0  0  0  0
 16 15  2  0  0  0  0
 16 17  1  0  0  0  0
 17 18  2  0  0  0  0
 18 13  1  0  0  0  0
 18 10  1  0  0  0  0
 20 16  1  0  0  0  0
 21 22  1  0  0  0  0
 21 23  1  0  0  0  0
 24 27  1  0  0  0  0
 24 26  1  0  0  0  0
 25 24  1  0  0  0  0
 28 30  1  0  0  0  0
 28  1  1  0  0  0  0
 29 28  1  0  0  0  0
 31 28  1  0  0  0  0
 32  1  1  0  0  0  0
 32 34  1  0  0  0  0
 33 32  1  0  0  0  0
 35 32  1  0  0  0  0
 36 35  1  0  0  0  0
 37 38  1  0  0  0  0
 37 36  2  0  0  0  0
 38 45  2  0  0  0  0
 39 38  1  0  0  0  0
 39 41  1  0  0  0  0
 40 39  2  0  0  0  0
 41 42  1  0  0  0  0
 42 44  2  0  0  0  0
 42 43  1  0  0  0  0
 43 48  1  0  0  0  0
 45 35  1  0  0  0  0
 45 44  1  0  0  0  0
 46 41  1  0  0  0  0
 47 43  1  0  0  0  0
M  END
>  <minimizedAffinity>
-5.7080493

>  <minimizedRMSD>
1.20411384

$$$$
