
 OpenBabel03252514083D

 48 52  0  0  0  0  0  0  0  0999 V2000
   31.8960   26.9190   47.4470 C   0  0  0  0  0  0  0  0  0  0  0  0
   34.0020   29.9280   47.5010 C   0  0  0  0  0  0  0  0  0  0  0  0
   35.0190   29.6280   48.4140 C   0  0  0  0  0  0  0  0  0  0  0  0
   34.9580   28.3780   49.0010 C   0  0  0  0  0  0  0  0  0  0  0  0
   33.9540   27.5390   48.6730 N   0  0  0  0  0  0  0  0  0  0  0  0
   32.9940   27.8490   47.7980 C   0  0  0  0  0  0  0  0  0  0  0  0
   33.0290   29.0450   47.2210 N   0  0  0  0  0  0  0  0  0  0  0  0
   34.0050   30.8980   47.0140 H   0  0  0  0  0  0  0  0  0  0  0  0
   35.7400   28.1320   49.7090 H   0  0  0  0  0  0  0  0  0  0  0  0
   36.0190   30.6130   48.6640 N   0  0  0  0  0  0  0  0  0  0  0  0
   36.2220   31.2040   49.8580 C   0  0  0  0  0  0  0  0  0  0  0  0
   37.2420   32.0810   49.7360 N   0  0  0  0  0  0  0  0  0  0  0  0
   37.6610   32.0240   48.4630 C   0  0  0  0  0  0  0  0  0  0  0  0
   38.6510   32.6750   47.7610 C   0  0  0  0  0  0  0  0  0  0  0  0
   38.8650   32.4210   46.4550 N   0  0  0  0  0  0  0  0  0  0  0  0
   38.1140   31.5150   45.7790 C   0  0  0  0  0  0  0  0  0  0  0  0
   37.1540   30.8890   46.4800 N   0  0  0  0  0  0  0  0  0  0  0  0
   36.9000   31.1050   47.7780 C   0  0  0  0  0  0  0  0  0  0  0  0
   35.6500   30.9990   50.7650 H   0  0  0  0  0  0  0  0  0  0  0  0
   38.2630   31.2900   44.7310 H   0  0  0  0  0  0  0  0  0  0  0  0
   39.4630   33.6260   48.4090 N   0  0  0  0  0  0  0  0  0  0  0  0
   40.3660   33.1300   48.5310 H   0  0  0  0  0  0  0  0  0  0  0  0
   39.0860   34.5640   48.6390 H   0  0  0  0  0  0  0  0  0  0  0  0
   30.9330   26.7900   48.6420 C   0  0  0  0  0  0  0  0  0  0  0  0
   30.1350   26.1080   48.3210 H   0  0  0  0  0  0  0  0  0  0  0  0
   31.4730   26.4680   49.5530 H   0  0  0  0  0  0  0  0  0  0  0  0
   30.4840   27.7850   48.8060 H   0  0  0  0  0  0  0  0  0  0  0  0
   31.0400   27.5020   46.3320 C   0  0  0  0  0  0  0  0  0  0  0  0
   30.3270   26.7670   45.9570 H   0  0  0  0  0  0  0  0  0  0  0  0
   30.5680   28.4570   46.6490 H   0  0  0  0  0  0  0  0  0  0  0  0
   31.7340   27.7820   45.5140 H   0  0  0  0  0  0  0  0  0  0  0  0
   32.3610   25.5730   47.0100 C   0  0  0  0  0  0  0  0  0  0  0  0
   31.4610   24.9590   46.8180 H   0  0  0  0  0  0  0  0  0  0  0  0
   32.9270   25.1110   47.8530 H   0  0  0  0  0  0  0  0  0  0  0  0
   33.1920   25.6610   45.8530 N   0  0  0  0  0  0  0  0  0  0  0  0
   32.9340   26.4610   44.8060 C   0  0  0  0  0  3  0  0  0  0  0  0
   33.8990   26.3340   43.8530 N   0  0  0  0  0  0  0  0  0  0  0  0
   34.8130   25.4330   44.2760 C   0  0  0  0  0  0  0  0  0  0  0  0
   35.9780   24.9060   43.7590 C   0  0  0  0  0  0  0  0  0  0  0  0
   36.2910   25.3430   42.6360 O   0  0  0  0  0  0  0  0  0  0  0  0
   36.6670   23.9950   44.4740 N   0  0  0  0  0  0  0  0  0  0  0  0
   36.1780   23.6460   45.6600 C   0  0  0  0  0  0  0  0  0  0  0  0
   36.9340   22.6820   46.3850 N   0  0  0  0  0  0  0  0  0  0  0  0
   35.0600   24.1330   46.1870 N   0  0  0  0  0  0  0  0  0  0  0  0
   34.3410   25.0460   45.5060 C   0  0  0  0  0  0  0  0  0  0  0  0
   37.5340   23.6510   44.0100 H   0  0  0  0  0  0  0  0  0  0  0  0
   37.6880   22.0910   45.9720 H   0  0  0  0  0  0  0  0  0  0  0  0
   36.9050   22.3830   47.3840 H   0  0  0  0  0  0  0  0  0  0  0  0
  1  6  1  0  0  0  0
  1 24  1  0  0  0  0
  2  3  1  0  0  0  0
  3 10  1  0  0  0  0
  3  4  2  0  0  0  0
  4  9  1  0  0  0  0
  5  4  1  0  0  0  0
  6  5  2  0  0  0  0
  7  2  2  0  0  0  0
  7  6  1  0  0  0  0
  8  2  1  0  0  0  0
 10 11  1  0  0  0  0
 11 19  1  0  0  0  0
 12 11  2  0  0  0  0
 13 12  1  0  0  0  0
 14 21  1  0  0  0  0
 14 13  2  0  0  0  0
 15 14  1  0  0  0  0
 16 15  2  0  0  0  0
 16 17  1  0  0  0  0
 17 18  2  0  0  0  0
 18 13  1  0  0  0  0
 18 10  1  0  0  0  0
 20 16  1  0  0  0  0
 21 22  1  0  0  0  0
 21 23  1  0  0  0  0
 24 27  1  0  0  0  0
 24 26  1  0  0  0  0
 25 24  1  0  0  0  0
 28 30  1  0  0  0  0
 28  1  1  0  0  0  0
 29 28  1  0  0  0  0
 31 28  1  0  0  0  0
 32  1  1  0  0  0  0
 32 34  1  0  0  0  0
 33 32  1  0  0  0  0
 35 32  1  0  0  0  0
 36 35  1  0  0  0  0
 37 38  1  0  0  0  0
 37 36  2  0  0  0  0
 38 45  2  0  0  0  0
 39 38  1  0  0  0  0
 39 41  1  0  0  0  0
 40 39  2  0  0  0  0
 41 42  1  0  0  0  0
 42 44  2  0  0  0  0
 42 43  1  0  0  0  0
 43 48  1  0  0  0  0
 45 35  1  0  0  0  0
 45 44  1  0  0  0  0
 46 41  1  0  0  0  0
 47 43  1  0  0  0  0
M  END
>  <minimizedAffinity>
-5.7086544

>  <minimizedRMSD>
1.20794463

$$$$
