
 OpenBabel03252514073D

 48 52  0  0  0  0  0  0  0  0999 V2000
   31.8970   26.9170   47.4500 C   0  0  0  0  0  0  0  0  0  0  0  0
   34.0030   29.9270   47.5030 C   0  0  0  0  0  0  0  0  0  0  0  0
   35.0200   29.6270   48.4160 C   0  0  0  0  0  0  0  0  0  0  0  0
   34.9590   28.3780   49.0030 C   0  0  0  0  0  0  0  0  0  0  0  0
   33.9550   27.5380   48.6750 N   0  0  0  0  0  0  0  0  0  0  0  0
   32.9950   27.8470   47.8010 C   0  0  0  0  0  0  0  0  0  0  0  0
   33.0300   29.0430   47.2230 N   0  0  0  0  0  0  0  0  0  0  0  0
   34.0050   30.8960   47.0150 H   0  0  0  0  0  0  0  0  0  0  0  0
   35.7400   28.1320   49.7110 H   0  0  0  0  0  0  0  0  0  0  0  0
   36.0190   30.6130   48.6660 N   0  0  0  0  0  0  0  0  0  0  0  0
   36.2230   31.2040   49.8590 C   0  0  0  0  0  0  0  0  0  0  0  0
   37.2420   32.0810   49.7370 N   0  0  0  0  0  0  0  0  0  0  0  0
   37.6620   32.0230   48.4640 C   0  0  0  0  0  0  0  0  0  0  0  0
   38.6510   32.6740   47.7610 C   0  0  0  0  0  0  0  0  0  0  0  0
   38.8650   32.4200   46.4550 N   0  0  0  0  0  0  0  0  0  0  0  0
   38.1140   31.5140   45.7800 C   0  0  0  0  0  0  0  0  0  0  0  0
   37.1540   30.8880   46.4810 N   0  0  0  0  0  0  0  0  0  0  0  0
   36.9000   31.1040   47.7790 C   0  0  0  0  0  0  0  0  0  0  0  0
   35.6510   30.9990   50.7670 H   0  0  0  0  0  0  0  0  0  0  0  0
   38.2620   31.2890   44.7320 H   0  0  0  0  0  0  0  0  0  0  0  0
   39.4630   33.6260   48.4090 N   0  0  0  0  0  0  0  0  0  0  0  0
   40.3660   33.1310   48.5310 H   0  0  0  0  0  0  0  0  0  0  0  0
   39.0860   34.5640   48.6390 H   0  0  0  0  0  0  0  0  0  0  0  0
   30.9340   26.7890   48.6440 C   0  0  0  0  0  0  0  0  0  0  0  0
   30.1360   26.1060   48.3240 H   0  0  0  0  0  0  0  0  0  0  0  0
   31.4730   26.4680   49.5550 H   0  0  0  0  0  0  0  0  0  0  0  0
   30.4850   27.7840   48.8080 H   0  0  0  0  0  0  0  0  0  0  0  0
   31.0410   27.4990   46.3340 C   0  0  0  0  0  0  0  0  0  0  0  0
   30.3290   26.7640   45.9590 H   0  0  0  0  0  0  0  0  0  0  0  0
   30.5690   28.4540   46.6500 H   0  0  0  0  0  0  0  0  0  0  0  0
   31.7350   27.7790   45.5160 H   0  0  0  0  0  0  0  0  0  0  0  0
   32.3630   25.5710   47.0140 C   0  0  0  0  0  0  0  0  0  0  0  0
   31.4630   24.9570   46.8230 H   0  0  0  0  0  0  0  0  0  0  0  0
   32.9280   25.1100   47.8570 H   0  0  0  0  0  0  0  0  0  0  0  0
   33.1930   25.6580   45.8570 N   0  0  0  0  0  0  0  0  0  0  0  0
   32.9350   26.4570   44.8090 C   0  0  0  0  0  3  0  0  0  0  0  0
   33.8990   26.3300   43.8560 N   0  0  0  0  0  0  0  0  0  0  0  0
   34.8130   25.4280   44.2800 C   0  0  0  0  0  0  0  0  0  0  0  0
   35.9780   24.9020   43.7610 C   0  0  0  0  0  0  0  0  0  0  0  0
   36.2910   25.3380   42.6390 O   0  0  0  0  0  0  0  0  0  0  0  0
   36.6660   23.9920   44.4770 N   0  0  0  0  0  0  0  0  0  0  0  0
   36.1790   23.6430   45.6640 C   0  0  0  0  0  0  0  0  0  0  0  0
   36.9350   22.6790   46.3890 N   0  0  0  0  0  0  0  0  0  0  0  0
   35.0610   24.1300   46.1910 N   0  0  0  0  0  0  0  0  0  0  0  0
   34.3410   25.0440   45.5080 C   0  0  0  0  0  0  0  0  0  0  0  0
   37.5340   23.6450   44.0130 H   0  0  0  0  0  0  0  0  0  0  0  0
   37.6890   22.0870   45.9760 H   0  0  0  0  0  0  0  0  0  0  0  0
   36.9070   22.3800   47.3880 H   0  0  0  0  0  0  0  0  0  0  0  0
  1  6  1  0  0  0  0
  1 24  1  0  0  0  0
  2  3  1  0  0  0  0
  3 10  1  0  0  0  0
  3  4  2  0  0  0  0
  4  9  1  0  0  0  0
  5  4  1  0  0  0  0
  6  5  2  0  0  0  0
  7  2  2  0  0  0  0
  7  6  1  0  0  0  0
  8  2  1  0  0  0  0
 10 11  1  0  0  0  0
 11 19  1  0  0  0  0
 12 11  2  0  0  0  0
 13 12  1  0  0  0  0
 14 21  1  0  0  0  0
 14 13  2  0  0  0  0
 15 14  1  0  0  0  0
 16 15  2  0  0  0  0
 16 17  1  0  0  0  0
 17 18  2  0  0  0  0
 18 13  1  0  0  0  0
 18 10  1  0  0  0  0
 20 16  1  0  0  0  0
 21 22  1  0  0  0  0
 21 23  1  0  0  0  0
 24 27  1  0  0  0  0
 24 26  1  0  0  0  0
 25 24  1  0  0  0  0
 28 30  1  0  0  0  0
 28  1  1  0  0  0  0
 29 28  1  0  0  0  0
 31 28  1  0  0  0  0
 32  1  1  0  0  0  0
 32 34  1  0  0  0  0
 33 32  1  0  0  0  0
 35 32  1  0  0  0  0
 36 35  1  0  0  0  0
 37 38  1  0  0  0  0
 37 36  2  0  0  0  0
 38 45  2  0  0  0  0
 39 38  1  0  0  0  0
 39 41  1  0  0  0  0
 40 39  2  0  0  0  0
 41 42  1  0  0  0  0
 42 44  2  0  0  0  0
 42 43  1  0  0  0  0
 43 48  1  0  0  0  0
 45 35  1  0  0  0  0
 45 44  1  0  0  0  0
 46 41  1  0  0  0  0
 47 43  1  0  0  0  0
M  END
>  <minimizedAffinity>
-5.71178484

>  <minimizedRMSD>
1.25899398

$$$$
