
 OpenBabel03252512563D

 25 27  0  0  0  0  0  0  0  0999 V2000
   38.5500   31.8620   47.9070 C   0  0  0  0  0  0  0  0  0  0  0  0
   39.3130   32.9890   47.9100 N   0  0  0  0  0  0  0  0  0  0  0  0
   39.7620   33.2140   46.7090 O   0  0  0  0  0  0  0  0  0  0  0  0
   39.3150   32.2670   45.9190 C   0  0  0  0  0  0  0  0  0  0  0  0
   38.5470   31.3950   46.6360 N   0  0  0  0  0  0  0  0  0  0  0  0
   39.5510   32.1050   44.5210 N   0  0  0  0  0  0  0  0  0  0  0  0
   39.0550   32.9650   43.6140 N   0  0  0  0  0  0  0  0  0  0  0  0
   39.4470   32.5480   42.3870 C   0  0  0  0  0  0  0  0  0  0  0  0
   40.2110   31.3840   42.5760 C   0  0  0  0  0  0  0  0  0  0  0  0
   40.2570   31.1340   43.9300 C   0  0  0  0  0  0  0  0  0  0  0  0
   39.1400   33.1210   41.5210 H   0  0  0  0  0  0  0  0  0  0  0  0
   40.6340   30.8700   41.7360 H   0  0  0  0  0  0  0  0  0  0  0  0
   40.7740   30.3050   44.3810 H   0  0  0  0  0  0  0  0  0  0  0  0
   37.5610   30.3540   51.1980 C   0  0  0  0  0  0  0  0  0  0  0  0
   38.3280   31.0380   50.2500 C   0  0  0  0  0  0  0  0  0  0  0  0
   37.8120   31.1600   48.9640 C   0  0  0  0  0  0  0  0  0  0  0  0
   36.6030   30.6190   48.6720 N   0  0  0  0  0  0  0  0  0  0  0  0
   35.9000   29.9660   49.6250 C   0  0  0  0  0  0  0  0  0  0  0  0
   36.3740   29.8330   50.8810 N   0  0  0  0  0  0  0  0  0  0  0  0
   38.0620   30.3190   52.1710 H   0  0  0  0  0  0  0  0  0  0  0  0
   39.3070   31.4860   50.4500 H   0  0  0  0  0  0  0  0  0  0  0  0
   34.5820   29.3780   49.3050 C   0  0  0  0  0  0  0  0  0  0  0  0
   34.0590   30.0910   48.0690 C   0  0  0  0  0  0  0  0  0  0  0  0
   33.6090   29.6530   50.4450 C   0  0  0  0  0  0  0  0  0  0  0  0
   34.6470   27.8780   49.1230 C   0  0  0  0  0  0  0  0  0  0  0  0
  1  2  2  0  0  0  0
  1 16  1  0  0  0  0
  3  2  1  0  0  0  0
  4  5  2  0  0  0  0
  4  3  1  0  0  0  0
  5  1  1  0  0  0  0
  6  4  1  0  0  0  0
  7  6  1  0  0  0  0
  8  9  1  0  0  0  0
  8  7  2  0  0  0  0
  9 10  2  0  0  0  0
 10 13  1  0  0  0  0
 10  6  1  0  0  0  0
 11  8  1  0  0  0  0
 12  9  1  0  0  0  0
 14 20  1  0  0  0  0
 15 21  1  0  0  0  0
 15 14  2  0  0  0  0
 16 15  1  0  0  0  0
 17 16  2  0  0  0  0
 17 18  1  0  0  0  0
 18 19  2  0  0  0  0
 19 14  1  0  0  0  0
 22 18  1  0  0  0  0
 22 24  1  0  0  0  0
 23 22  1  0  0  0  0
 25 22  1  0  0  0  0
M  END
>  <minimizedAffinity>
-6.24272346

>  <minimizedRMSD>
1.00870538

$$$$
