
 OpenBabel03252513033D

 31 33  0  0  0  0  0  0  0  0999 V2000
   38.2770   31.8680   45.7990 N   0  0  0  0  0  0  0  0  0  0  0  0
   39.4160   32.5540   45.7270 C   0  0  0  0  0  0  0  0  0  0  0  0
   39.8830   33.1990   44.6110 C   0  0  0  0  0  0  0  0  0  0  0  0
   39.1570   33.1620   43.4600 C   0  0  0  0  0  0  0  0  0  0  0  0
   39.5100   33.7240   42.3970 O   0  0  0  0  0  0  0  0  0  0  0  0
   38.0220   32.4900   43.4950 N   0  0  0  0  0  0  0  0  0  0  0  0
   37.5930   31.8700   44.6050 C   0  0  0  0  0  0  0  0  0  0  0  0
   36.4910   31.2520   44.5400 O   0  0  0  0  0  0  0  0  0  0  0  0
   40.0100   32.5910   46.6450 H   0  0  0  0  0  0  0  0  0  0  0  0
   40.8240   33.7310   44.6560 H   0  0  0  0  0  0  0  0  0  0  0  0
   37.2250   32.4270   42.3060 C   0  0  0  0  0  0  0  0  0  0  0  0
   36.9190   33.4490   41.4860 N   0  0  0  0  0  0  0  0  0  0  0  0
   36.1780   33.0060   40.5100 O   0  0  0  0  0  0  0  0  0  0  0  0
   35.9680   31.7200   40.6380 C   0  0  0  0  0  0  0  0  0  0  0  0
   35.4010   31.0210   40.0180 H   0  0  0  0  0  0  0  0  0  0  0  0
   36.6270   31.3470   41.7720 N   0  0  0  0  0  0  0  0  0  0  0  0
   37.7230   31.1820   46.8900 C   0  0  0  0  0  0  0  0  0  0  0  0
   36.6540   31.5150   46.9990 H   0  0  0  0  0  0  0  0  0  0  0  0
   37.6170   30.0930   46.6160 H   0  0  0  0  0  0  0  0  0  0  0  0
   38.3510   31.2560   48.2130 C   0  0  0  0  0  0  0  0  0  0  0  0
   38.5300   32.3070   48.5220 H   0  0  0  0  0  0  0  0  0  0  0  0
   39.3920   30.8230   48.1310 H   0  0  0  0  0  0  0  0  0  0  0  0
   35.8360   29.1680   50.1060 C   0  0  0  0  0  0  0  0  0  0  0  0
   36.5240   29.7930   49.0400 C   0  0  0  0  0  0  0  0  0  0  0  0
   37.6120   30.5900   49.2910 C   0  0  0  0  0  0  0  0  0  0  0  0
   37.9860   30.7420   50.5940 N   0  0  0  0  0  0  0  0  0  0  0  0
   37.3470   30.1590   51.5960 C   0  0  0  0  0  0  0  0  0  0  0  0
   36.2820   29.3770   51.3730 N   0  0  0  0  0  0  0  0  0  0  0  0
   35.0040   28.5730   49.7660 H   0  0  0  0  0  0  0  0  0  0  0  0
   36.2500   29.6890   48.0090 H   0  0  0  0  0  0  0  0  0  0  0  0
   37.6470   30.2820   52.6300 H   0  0  0  0  0  0  0  0  0  0  0  0
  1 17  1  0  0  0  0
  2  1  1  0  0  0  0
  2  9  1  0  0  0  0
  3 10  1  0  0  0  0
  3  2  2  0  0  0  0
  4  6  1  0  0  0  0
  4  3  1  0  0  0  0
  5  4  2  0  0  0  0
  6  7  1  0  0  0  0
  7  1  1  0  0  0  0
  8  7  2  0  0  0  0
 11  6  1  0  0  0  0
 12 11  2  0  0  0  0
 13 14  1  0  0  0  0
 13 12  1  0  0  0  0
 14 16  2  0  0  0  0
 15 14  1  0  0  0  0
 16 11  1  0  0  0  0
 17 18  1  0  0  0  0
 17 20  1  0  0  0  0
 19 17  1  0  0  0  0
 20 21  1  0  0  0  0
 20 25  1  0  0  0  0
 22 20  1  0  0  0  0
 23 28  1  0  0  0  0
 24 25  1  0  0  0  0
 24 23  2  0  0  0  0
 25 26  2  0  0  0  0
 26 27  1  0  0  0  0
 27 31  1  0  0  0  0
 28 27  2  0  0  0  0
 29 23  1  0  0  0  0
 30 24  1  0  0  0  0
M  END
>  <minimizedAffinity>
-5.37136936

>  <minimizedRMSD>
1.26764786

$$$$
