
 OpenBabel03252514043D

 33 35  0  0  1  0  0  0  0  0999 V2000
   35.4610   29.4710   48.8380 C   0  0  2  0  0  0  0  0  0  0  0  0
   34.3280   29.4420   49.7570 C   0  0  0  0  0  0  0  0  0  0  0  0
   34.6900   28.1640   49.2150 C   0  0  1  0  0  0  0  0  0  0  0  0
   35.4340   29.6560   47.7670 H   0  0  0  0  0  0  0  0  0  0  0  0
   33.3920   29.9620   49.4100 H   0  0  0  0  0  0  0  0  0  0  0  0
   34.5440   29.7520   50.8120 H   0  0  0  0  0  0  0  0  0  0  0  0
   35.3330   27.4050   49.6570 H   0  0  0  0  0  0  0  0  0  0  0  0
   36.8580   29.4680   49.4780 C   0  0  0  0  0  0  0  0  0  0  0  0
   37.4130   28.5900   49.0910 H   0  0  0  0  0  0  0  0  0  0  0  0
   36.7530   29.3500   50.5600 H   0  0  0  0  0  0  0  0  0  0  0  0
   38.1350   32.8890   49.4420 C   0  0  0  0  0  0  0  0  0  0  0  0
   38.8480   32.9410   48.2290 C   0  0  0  0  0  0  0  0  0  0  0  0
   38.8750   31.7730   47.4320 C   0  0  0  0  0  0  0  0  0  0  0  0
   38.2110   30.6640   47.8840 N   0  0  0  0  0  0  0  0  0  0  0  0
   37.5460   30.6760   49.0550 C   0  0  0  0  0  0  0  0  0  0  0  0
   37.5180   31.7930   49.8190 N   0  0  0  0  0  0  0  0  0  0  0  0
   38.1850   33.8360   49.9620 H   0  0  0  0  0  0  0  0  0  0  0  0
   39.3980   33.7310   47.7740 H   0  0  0  0  0  0  0  0  0  0  0  0
   39.3930   31.7050   46.4840 H   0  0  0  0  0  0  0  0  0  0  0  0
   33.7560   27.6210   48.1510 C   0  0  0  0  0  0  0  0  0  0  0  0
   34.0740   26.4420   47.7380 O   0  0  0  0  0  0  0  0  0  0  0  0
   32.6410   28.2600   47.6230 O   0  0  0  0  0  0  0  0  0  0  0  0
   31.3710   28.1080   48.1070 C   0  0  0  0  0  0  0  0  0  0  0  0
   31.0240   27.8500   49.5260 C   0  0  0  0  0  0  0  0  0  0  0  0
   29.7170   27.7280   49.8460 C   0  0  0  0  0  0  0  0  0  0  0  0
   28.7060   27.8380   48.8750 C   0  0  0  0  0  0  0  0  0  0  0  0
   29.6510   28.1490   47.3100 S   0  0  0  0  0  0  0  0  0  0  0  0
   31.8370   27.7770   50.2230 H   0  0  0  0  0  0  0  0  0  0  0  0
   29.3700   27.5400   50.8460 H   0  0  0  0  0  0  0  0  0  0  0  0
   27.3390   27.7810   48.7920 C   0  0  0  0  0  0  0  0  0  0  0  0
   26.6880   28.3520   50.0300 C   0  0  0  0  0  1  0  0  0  0  0  0
   26.7940   28.5990   47.6180 C   0  0  0  0  0  1  0  0  0  0  0  0
   26.8160   26.3690   48.6180 C   0  0  0  0  0  1  0  0  0  0  0  0
  1  4  1  6  0  0  0
  1  3  1  0  0  0  0
  1  8  1  0  0  0  0
  1  2  1  0  0  0  0
  2  6  1  0  0  0  0
  3  7  1  1  0  0  0
  3  2  1  0  0  0  0
  5  2  1  0  0  0  0
  8 10  1  0  0  0  0
  9  8  1  0  0  0  0
 11 16  1  0  0  0  0
 11 17  1  0  0  0  0
 12 11  2  0  0  0  0
 13 14  2  0  0  0  0
 13 12  1  0  0  0  0
 14 15  1  0  0  0  0
 15  8  1  0  0  0  0
 15 16  2  0  0  0  0
 18 12  1  0  0  0  0
 19 13  1  0  0  0  0
 20  3  1  0  0  0  0
 21 20  2  0  0  0  0
 22 23  1  0  0  0  0
 22 20  1  0  0  0  0
 23 24  2  0  0  0  0
 24 25  1  0  0  0  0
 24 28  1  0  0  0  0
 25 29  1  0  0  0  0
 26 25  2  0  0  0  0
 27 23  1  0  0  0  0
 27 26  1  0  0  0  0
 30 26  1  0  0  0  0
 30 31  1  0  0  0  0
 32 30  1  0  0  0  0
 33 30  1  0  0  0  0
M  END
>  <minimizedAffinity>
-5.67444086

>  <minimizedRMSD>
0.704457581

$$$$
