
 OpenBabel03252513013D

 22 23  0  0  0  0  0  0  0  0999 V2000
   38.0980   30.6460   47.7060 C   0  0  0  0  0  0  0  0  0  0  0  0
   38.8510   29.8970   47.4180 H   0  0  0  0  0  0  0  0  0  0  0  0
   37.2610   30.7030   46.9670 H   0  0  0  0  0  0  0  0  0  0  0  0
   37.3420   30.2200   51.4160 C   0  0  0  0  0  0  0  0  0  0  0  0
   38.0060   30.6570   50.2600 C   0  0  0  0  0  0  0  0  0  0  0  0
   37.5160   30.2730   49.0140 C   0  0  0  0  0  0  0  0  0  0  0  0
   36.4020   29.4830   49.0060 N   0  0  0  0  0  0  0  0  0  0  0  0
   35.7810   29.0750   50.1150 C   0  0  0  0  0  0  0  0  0  0  0  0
   36.2520   29.4450   51.3240 N   0  0  0  0  0  0  0  0  0  0  0  0
   37.7960   30.5690   52.3390 H   0  0  0  0  0  0  0  0  0  0  0  0
   38.8910   31.2840   50.2490 H   0  0  0  0  0  0  0  0  0  0  0  0
   34.8940   28.4450   50.0750 H   0  0  0  0  0  0  0  0  0  0  0  0
   38.7230   32.0270   47.7610 C   0  0  0  0  0  0  0  0  0  0  0  0
   39.7060   32.0010   48.2850 H   0  0  0  0  0  0  0  0  0  0  0  0
   38.0700   32.7380   48.2700 H   0  0  0  0  0  0  0  0  0  0  0  0
   38.9930   32.4730   46.3990 N   0  0  0  0  0  0  0  0  0  0  0  0
   38.1660   32.3170   45.3590 N   0  0  0  0  0  0  0  0  0  0  0  0
   38.8300   32.8780   44.3180 C   0  0  0  0  0  0  0  0  0  0  0  0
   38.3350   32.8650   43.3500 H   0  0  0  0  0  0  0  0  0  0  0  0
   40.0530   33.3800   44.6870 C   0  0  0  0  0  0  0  0  0  0  0  0
   40.1350   33.1070   46.0310 C   0  0  0  0  0  0  0  0  0  0  0  0
   40.9540   33.3450   46.6990 H   0  0  0  0  0  0  0  0  0  0  0  0
  1 13  1  0  0  0  0
  1  6  1  0  0  0  0
  2  1  1  0  0  0  0
  3  1  1  0  0  0  0
  4 10  1  0  0  0  0
  5  4  2  0  0  0  0
  6  5  1  0  0  0  0
  7  6  2  0  0  0  0
  7  8  1  0  0  0  0
  8  9  2  0  0  0  0
  9  4  1  0  0  0  0
 11  5  1  0  0  0  0
 12  8  1  0  0  0  0
 13 15  1  0  0  0  0
 13 14  1  0  0  0  0
 16 13  1  0  0  0  0
 17 16  1  0  0  0  0
 18 20  1  0  0  0  0
 18 17  2  0  0  0  0
 19 18  1  0  0  0  0
 20 21  2  0  0  0  0
 21 16  1  0  0  0  0
 21 22  1  0  0  0  0
M  END
>  <minimizedAffinity>
-4.86194849

>  <minimizedRMSD>
0.685771525

$$$$
