
 OpenBabel03252513213D

 24 26  0  0  0  0  0  0  0  0999 V2000
   35.3900   29.0510   50.4790 C   0  0  0  0  0  0  0  0  0  0  0  0
   36.0260   30.1350   49.8540 C   0  0  0  0  0  0  0  0  0  0  0  0
   35.5420   30.5100   48.5880 C   0  0  0  0  0  0  0  0  0  0  0  0
   34.4970   29.8140   48.0390 N   0  0  0  0  0  0  0  0  0  0  0  0
   33.9230   28.7760   48.6880 C   0  0  0  0  0  0  0  0  0  0  0  0
   34.3730   28.4110   49.8890 N   0  0  0  0  0  0  0  0  0  0  0  0
   35.7620   28.7600   51.4530 H   0  0  0  0  0  0  0  0  0  0  0  0
   36.0090   31.3360   48.0880 H   0  0  0  0  0  0  0  0  0  0  0  0
   32.8630   28.1870   47.9620 N   0  0  0  0  0  0  0  0  0  0  0  0
   33.0360   27.9200   46.6460 C   0  0  0  0  0  0  0  0  0  0  0  0
   31.8990   27.3580   46.1470 N   0  0  0  0  0  0  0  0  0  0  0  0
   31.0020   27.2640   47.1340 C   0  0  0  0  0  0  0  0  0  0  0  0
   29.7280   26.8190   47.3010 C   0  0  0  0  0  0  0  0  0  0  0  0
   29.1380   26.8930   48.4870 N   0  0  0  0  0  0  0  0  0  0  0  0
   29.7410   27.4040   49.5980 C   0  0  0  0  0  0  0  0  0  0  0  0
   31.0200   27.8650   49.4820 N   0  0  0  0  0  0  0  0  0  0  0  0
   31.6190   27.7890   48.2750 C   0  0  0  0  0  0  0  0  0  0  0  0
   37.1590   30.8880   50.4530 C   0  0  0  0  0  0  0  0  0  0  0  0
   38.3590   30.6470   49.8440 F   0  0  0  0  0  0  0  0  0  0  0  0
   37.3030   30.5840   51.7830 F   0  0  0  0  0  0  0  0  0  0  0  0
   36.9090   32.2520   50.3390 F   0  0  0  0  0  0  0  0  0  0  0  0
   29.0840   26.2800   46.1480 N   0  0  0  0  0  0  0  0  0  0  0  0
   28.0890   26.1970   45.8510 H   0  0  0  0  0  0  0  0  0  0  0  0
   29.6330   25.8480   45.3610 H   0  0  0  0  0  0  0  0  0  0  0  0
  1  7  1  0  0  0  0
  2 18  1  0  0  0  0
  2  1  2  0  0  0  0
  3  2  1  0  0  0  0
  4  3  2  0  0  0  0
  4  5  1  0  0  0  0
  5  6  2  0  0  0  0
  6  1  1  0  0  0  0
  8  3  1  0  0  0  0
  9 17  1  0  0  0  0
  9  5  1  0  0  0  0
 10  9  1  0  0  0  0
 11 10  2  0  0  0  0
 11 12  1  0  0  0  0
 12 13  2  0  0  0  0
 12 17  1  0  0  0  0
 13 14  1  0  0  0  0
 14 15  2  0  0  0  0
 16 15  1  0  0  0  0
 17 16  2  0  0  0  0
 18 20  1  0  0  0  0
 19 18  1  0  0  0  0
 21 18  1  0  0  0  0
 22 13  1  0  0  0  0
 23 22  1  0  0  0  0
 24 22  1  0  0  0  0
M  END
>  <minimizedAffinity>
-5.89635563

>  <minimizedRMSD>
1.14340639

$$$$
