
 OpenBabel03252514003D

 34 37  0  0  1  0  0  0  0  0999 V2000
   35.4690   29.4820   49.1570 C   0  0  2  0  0  0  0  0  0  0  0  0
   34.4220   29.4720   50.1870 C   0  0  0  0  0  0  0  0  0  0  0  0
   34.6940   28.2020   49.5270 C   0  0  1  0  0  0  0  0  0  0  0  0
   35.2800   29.9050   48.1660 H   0  0  0  0  0  0  0  0  0  0  0  0
   33.4570   30.0070   49.9730 H   0  0  0  0  0  0  0  0  0  0  0  0
   34.7220   29.6540   51.2470 H   0  0  0  0  0  0  0  0  0  0  0  0
   35.3610   27.3920   49.8460 H   0  0  0  0  0  0  0  0  0  0  0  0
   36.9240   29.4040   49.6200 C   0  0  0  0  0  0  0  0  0  0  0  0
   36.9130   29.4230   50.7190 H   0  0  0  0  0  0  0  0  0  0  0  0
   37.3170   28.4490   49.2470 H   0  0  0  0  0  0  0  0  0  0  0  0
   38.4250   32.7380   49.3720 C   0  0  0  0  0  0  0  0  0  0  0  0
   38.9270   32.7630   48.0610 C   0  0  0  0  0  0  0  0  0  0  0  0
   38.7390   31.6130   47.2740 C   0  0  0  0  0  0  0  0  0  0  0  0
   38.0850   30.5450   47.8200 N   0  0  0  0  0  0  0  0  0  0  0  0
   37.6220   30.5750   49.0850 C   0  0  0  0  0  0  0  0  0  0  0  0
   37.7990   31.6740   49.8440 N   0  0  0  0  0  0  0  0  0  0  0  0
   38.6210   33.6670   49.8890 H   0  0  0  0  0  0  0  0  0  0  0  0
   39.4500   33.5380   47.5390 H   0  0  0  0  0  0  0  0  0  0  0  0
   39.0770   31.4990   46.2460 H   0  0  0  0  0  0  0  0  0  0  0  0
   33.6350   27.7510   48.5610 C   0  0  0  0  0  0  0  0  0  0  0  0
   34.0320   26.9160   47.6530 O   0  0  0  0  0  0  0  0  0  0  0  0
   32.2990   28.1300   48.5580 O   0  0  0  0  0  0  0  0  0  0  0  0
   31.4510   27.6520   47.5780 C   0  0  0  0  0  0  0  0  0  0  0  0
   30.8930   26.4130   47.7040 N   0  0  0  0  0  0  0  0  0  0  0  0
   30.0720   25.9380   46.7670 C   0  0  0  0  0  3  0  0  0  0  0  0
   29.7750   26.6800   45.6630 N   0  0  0  0  0  0  0  0  0  0  0  0
   30.3240   27.8960   45.5400 C   0  0  0  0  0  0  0  0  0  0  0  0
   30.0250   28.6520   44.4220 C   0  0  0  0  0  3  0  0  0  0  0  0
   30.5450   29.9260   44.2020 C   0  0  0  0  0  0  0  0  0  0  0  0
   30.3000   30.5060   43.3210 H   0  0  0  0  0  0  0  0  0  0  0  0
   31.3950   30.4360   45.1600 C   0  0  0  0  0  0  0  0  0  0  0  0
   31.8180   31.4250   45.0200 H   0  0  0  0  0  0  0  0  0  0  0  0
   31.6920   29.6740   46.2800 C   0  0  0  0  0  3  0  0  0  0  0  0
   31.1710   28.4220   46.4790 C   0  0  0  0  0  0  0  0  0  0  0  0
  1  4  1  6  0  0  0
  1  3  1  0  0  0  0
  1  8  1  0  0  0  0
  1  2  1  0  0  0  0
  2  6  1  0  0  0  0
  3  7  1  1  0  0  0
  3  2  1  0  0  0  0
  5  2  1  0  0  0  0
  8  9  1  0  0  0  0
 10  8  1  0  0  0  0
 11 16  1  0  0  0  0
 11 17  1  0  0  0  0
 12 11  2  0  0  0  0
 13 14  2  0  0  0  0
 13 12  1  0  0  0  0
 14 15  1  0  0  0  0
 15  8  1  0  0  0  0
 15 16  2  0  0  0  0
 18 12  1  0  0  0  0
 19 13  1  0  0  0  0
 20  3  1  0  0  0  0
 21 20  2  0  0  0  0
 22 20  1  0  0  0  0
 23 24  1  0  0  0  0
 23 22  1  0  0  0  0
 25 24  2  0  0  0  0
 26 25  1  0  0  0  0
 27 26  2  0  0  0  0
 27 34  1  0  0  0  0
 28 27  1  0  0  0  0
 29 28  2  0  0  0  0
 29 31  1  0  0  0  0
 30 29  1  0  0  0  0
 31 33  2  0  0  0  0
 32 31  1  0  0  0  0
 33 34  1  0  0  0  0
 34 23  2  0  0  0  0
M  END
>  <minimizedAffinity>
-5.18346548

>  <minimizedRMSD>
0.623726249

$$$$
