
 OpenBabel03252514013D

 34 37  0  0  1  0  0  0  0  0999 V2000
   35.2150   29.6630   49.2830 C   0  0  2  0  0  0  0  0  0  0  0  0
   34.6210   29.0720   50.4890 C   0  0  0  0  0  0  0  0  0  0  0  0
   34.4640   28.3170   49.2540 C   0  0  1  0  0  0  0  0  0  0  0  0
   34.7370   30.5060   48.7750 H   0  0  0  0  0  0  0  0  0  0  0  0
   33.7240   29.5750   50.9440 H   0  0  0  0  0  0  0  0  0  0  0  0
   35.3070   28.7280   51.3010 H   0  0  0  0  0  0  0  0  0  0  0  0
   35.0880   27.5040   48.8630 H   0  0  0  0  0  0  0  0  0  0  0  0
   36.7140   29.4680   49.0580 C   0  0  0  0  0  0  0  0  0  0  0  0
   37.1010   28.9170   49.9280 H   0  0  0  0  0  0  0  0  0  0  0  0
   36.8160   28.8760   48.1390 H   0  0  0  0  0  0  0  0  0  0  0  0
   37.5200   32.9730   49.7630 C   0  0  0  0  0  0  0  0  0  0  0  0
   38.4750   33.2820   48.7810 C   0  0  0  0  0  0  0  0  0  0  0  0
   38.8320   32.2620   47.8810 C   0  0  0  0  0  0  0  0  0  0  0  0
   38.2370   31.0400   48.0080 N   0  0  0  0  0  0  0  0  0  0  0  0
   37.3250   30.7970   48.9690 C   0  0  0  0  0  0  0  0  0  0  0  0
   36.9790   31.7700   49.8350 N   0  0  0  0  0  0  0  0  0  0  0  0
   37.3180   33.8230   50.4010 H   0  0  0  0  0  0  0  0  0  0  0  0
   38.9990   34.1970   48.5950 H   0  0  0  0  0  0  0  0  0  0  0  0
   39.5560   32.3670   47.0760 H   0  0  0  0  0  0  0  0  0  0  0  0
   33.0770   28.3300   48.6760 C   0  0  0  0  0  0  0  0  0  0  0  0
   32.9830   28.7940   47.4700 O   0  0  0  0  0  0  0  0  0  0  0  0
   31.9160   27.8910   49.2970 O   0  0  0  0  0  0  0  0  0  0  0  0
   30.9010   27.3330   48.5420 C   0  0  0  0  0  0  0  0  0  0  0  0
   31.2030   26.5630   47.4570 N   0  0  0  0  0  0  0  0  0  0  0  0
   30.2360   26.0190   46.7190 C   0  0  0  0  0  3  0  0  0  0  0  0
   28.9250   26.2200   47.0350 N   0  0  0  0  0  0  0  0  0  0  0  0
   28.6300   26.9760   48.1010 C   0  0  0  0  0  0  0  0  0  0  0  0
   27.3010   27.1820   48.4250 C   0  0  0  0  0  3  0  0  0  0  0  0
   26.8930   27.9510   49.5120 C   0  0  0  0  0  0  0  0  0  0  0  0
   25.8480   28.1040   49.7520 H   0  0  0  0  0  0  0  0  0  0  0  0
   27.8780   28.5230   50.2870 C   0  0  0  0  0  0  0  0  0  0  0  0
   27.5950   29.1290   51.1420 H   0  0  0  0  0  0  0  0  0  0  0  0
   29.2090   28.3140   49.9590 C   0  0  0  0  0  3  0  0  0  0  0  0
   29.5920   27.5540   48.8850 C   0  0  0  0  0  0  0  0  0  0  0  0
  1  4  1  6  0  0  0
  1  2  1  0  0  0  0
  2  5  1  0  0  0  0
  2  6  1  0  0  0  0
  3  7  1  6  0  0  0
  3  1  1  0  0  0  0
  3  2  1  0  0  0  0
  8  1  1  0  0  0  0
  8  9  1  0  0  0  0
 10  8  1  0  0  0  0
 11 16  1  0  0  0  0
 11 17  1  0  0  0  0
 12 11  2  0  0  0  0
 13 14  2  0  0  0  0
 13 12  1  0  0  0  0
 14 15  1  0  0  0  0
 15  8  1  0  0  0  0
 15 16  2  0  0  0  0
 18 12  1  0  0  0  0
 19 13  1  0  0  0  0
 20  3  1  0  0  0  0
 20 22  1  0  0  0  0
 21 20  2  0  0  0  0
 23 34  1  0  0  0  0
 23 22  1  0  0  0  0
 24 23  2  0  0  0  0
 25 26  2  0  0  0  0
 25 24  1  0  0  0  0
 26 27  1  0  0  0  0
 27 28  2  0  0  0  0
 27 34  1  0  0  0  0
 28 29  1  0  0  0  0
 29 30  1  0  0  0  0
 29 31  2  0  0  0  0
 31 32  1  0  0  0  0
 33 31  1  0  0  0  0
 34 33  2  0  0  0  0
M  END
>  <minimizedAffinity>
-6.23949051

>  <minimizedRMSD>
1.86973095

$$$$
