
 OpenBabel03252512073D

 44 47  0  0  0  0  0  0  0  0999 V2000
   35.6400   28.4670   49.8150 C   0  0  0  0  0  0  0  0  0  0  0  0
   35.7230   29.8550   49.6200 C   0  0  0  0  0  0  0  0  0  0  0  0
   34.6820   30.4460   48.9470 C   0  0  0  0  0  0  0  0  0  0  0  0
   33.6340   29.7080   48.4980 N   0  0  0  0  0  0  0  0  0  0  0  0
   33.5790   28.3890   48.6950 C   0  0  0  0  0  0  0  0  0  0  0  0
   34.5640   27.8100   49.3360 N   0  0  0  0  0  0  0  0  0  0  0  0
   36.4440   27.9610   50.3450 H   0  0  0  0  0  0  0  0  0  0  0  0
   34.5580   31.4890   48.7030 H   0  0  0  0  0  0  0  0  0  0  0  0
   36.8310   30.5970   50.0700 C   0  0  0  0  0  0  0  0  0  0  0  0
   36.7780   30.7960   51.1800 H   0  0  0  0  0  0  0  0  0  0  0  0
   37.7760   30.0370   49.9190 H   0  0  0  0  0  0  0  0  0  0  0  0
   36.9630   31.9040   49.3850 C   0  0  0  0  0  0  0  0  0  0  0  0
   37.6000   32.5500   50.0740 H   0  0  0  0  0  0  0  0  0  0  0  0
   36.0500   32.4610   49.1770 H   0  0  0  0  0  0  0  0  0  0  0  0
   37.8170   31.7040   48.1910 C   0  0  0  0  0  0  0  0  0  0  0  0
   37.8380   30.5070   47.5640 C   0  0  0  0  0  0  0  0  0  0  0  0
   38.6790   30.3190   46.4670 C   0  0  0  0  0  0  0  0  0  0  0  0
   39.4510   31.3670   46.0680 N   0  0  0  0  0  0  0  0  0  0  0  0
   39.4100   32.5270   46.6920 C   0  0  0  0  0  0  0  0  0  0  0  0
   38.6090   32.7350   47.7560 N   0  0  0  0  0  0  0  0  0  0  0  0
   37.3690   29.5650   47.6540 H   0  0  0  0  0  0  0  0  0  0  0  0
   38.8550   29.4490   45.8240 H   0  0  0  0  0  0  0  0  0  0  0  0
   40.2370   33.6640   46.2280 C   0  0  0  0  0  0  0  0  0  0  0  0
   39.7860   34.6320   46.5920 H   0  0  0  0  0  0  0  0  0  0  0  0
   41.2710   33.6520   46.5910 H   0  0  0  0  0  0  0  0  0  0  0  0
   40.1640   33.7650   44.6890 C   0  0  0  0  0  0  0  0  0  0  0  0
   40.0000   34.7920   44.3510 H   0  0  0  0  0  0  0  0  0  0  0  0
   39.4070   33.0460   44.3430 H   0  0  0  0  0  0  0  0  0  0  0  0
   41.1810   33.4160   44.3490 H   0  0  0  0  0  0  0  0  0  0  0  0
   32.4450   27.5920   48.2090 C   0  0  0  0  0  0  0  0  0  0  0  0
   32.4790   27.0360   47.0830 O   0  0  0  0  0  0  0  0  0  0  0  0
   31.3060   27.4260   48.9760 O   0  0  0  0  0  0  0  0  0  0  0  0
   30.1040   28.0340   48.6270 C   0  0  0  0  0  0  0  0  0  0  0  0
   29.9300   28.7240   47.4740 N   0  0  0  0  0  0  0  0  0  0  0  0
   28.7460   29.2960   47.1790 C   0  0  0  0  0  0  0  0  0  0  0  0
   27.6670   29.2180   48.0040 N   0  0  0  0  0  0  0  0  0  0  0  0
   27.7940   28.5470   49.1480 C   0  0  0  0  0  0  0  0  0  0  0  0
   26.7880   28.3870   50.0780 C   0  0  0  0  0  0  0  0  0  0  0  0
   26.8870   27.7020   51.2620 C   0  0  0  0  0  0  0  0  0  0  0  0
   25.9990   27.6640   51.8930 H   0  0  0  0  0  0  0  0  0  0  0  0
   28.1170   27.1120   51.5640 C   0  0  0  0  0  0  0  0  0  0  0  0
   28.1770   26.5770   52.5030 H   0  0  0  0  0  0  0  0  0  0  0  0
   29.1510   27.2560   50.6490 C   0  0  0  0  0  0  0  0  0  0  0  0
   29.0100   27.9440   49.4810 C   0  0  0  0  0  0  0  0  0  0  0  0
  1  7  1  0  0  0  0
  2  1  1  0  0  0  0
  2  9  1  0  0  0  0
  3  2  2  0  0  0  0
  4  5  2  0  0  0  0
  4  3  1  0  0  0  0
  5  6  1  0  0  0  0
  6  1  2  0  0  0  0
  8  3  1  0  0  0  0
  9 10  1  0  0  0  0
 11  9  1  0  0  0  0
 12  9  1  0  0  0  0
 12 13  1  0  0  0  0
 14 12  1  0  0  0  0
 15 12  1  0  0  0  0
 16 21  1  0  0  0  0
 16 15  2  0  0  0  0
 17 16  1  0  0  0  0
 18 17  2  0  0  0  0
 18 19  1  0  0  0  0
 19 20  2  0  0  0  0
 20 15  1  0  0  0  0
 22 17  1  0  0  0  0
 23 25  1  0  0  0  0
 23 24  1  0  0  0  0
 23 19  1  0  0  0  0
 26 23  1  0  0  0  0
 27 26  1  0  0  0  0
 28 26  1  0  0  0  0
 29 26  1  0  0  0  0
 30  5  1  0  0  0  0
 30 32  1  0  0  0  0
 31 30  2  0  0  0  0
 33 32  1  0  0  0  0
 33 44  1  0  0  0  0
 34 33  2  0  0  0  0
 35 34  1  0  0  0  0
 35 36  2  0  0  0  0
 36 37  1  0  0  0  0
 37 44  2  0  0  0  0
 37 38  1  0  0  0  0
 38 39  2  0  0  0  0
 39 41  1  0  0  0  0
 39 40  1  0  0  0  0
 41 42  1  0  0  0  0
 43 41  2  0  0  0  0
 44 43  1  0  0  0  0
M  END
>  <minimizedAffinity>
-6.85777283

>  <minimizedRMSD>
1.56573451

$$$$
