
 OpenBabel03252514083D

 41 44  0  0  0  0  0  0  0  0999 V2000
   34.0770   29.9150   47.5350 C   0  0  0  0  0  0  0  0  0  0  0  0
   35.0690   29.6600   48.5130 C   0  0  0  0  0  0  0  0  0  0  0  0
   34.9710   28.4620   49.1940 C   0  0  0  0  0  0  0  0  0  0  0  0
   33.9570   27.6110   48.9050 N   0  0  0  0  0  0  0  0  0  0  0  0
   33.0250   27.8830   47.9660 C   0  0  0  0  0  0  0  0  0  0  0  0
   33.0950   29.0280   47.2920 N   0  0  0  0  0  0  0  0  0  0  0  0
   34.0890   30.8400   46.9550 H   0  0  0  0  0  0  0  0  0  0  0  0
   35.7270   28.2850   49.9300 H   0  0  0  0  0  0  0  0  0  0  0  0
   36.0680   30.6550   48.7000 N   0  0  0  0  0  0  0  0  0  0  0  0
   36.2770   31.2910   49.8900 C   0  0  0  0  0  0  0  0  0  0  0  0
   37.2900   32.1720   49.7370 N   0  0  0  0  0  0  0  0  0  0  0  0
   37.6940   32.0710   48.4610 C   0  0  0  0  0  0  0  0  0  0  0  0
   38.6740   32.7010   47.7180 C   0  0  0  0  0  0  0  0  0  0  0  0
   38.8740   32.4020   46.4180 N   0  0  0  0  0  0  0  0  0  0  0  0
   38.1230   31.4690   45.7810 C   0  0  0  0  0  0  0  0  0  0  0  0
   37.1740   30.8610   46.5070 N   0  0  0  0  0  0  0  0  0  0  0  0
   36.9390   31.1240   47.7990 C   0  0  0  0  0  0  0  0  0  0  0  0
   35.7450   31.1480   50.8280 H   0  0  0  0  0  0  0  0  0  0  0  0
   38.3210   31.2640   44.7380 H   0  0  0  0  0  0  0  0  0  0  0  0
   39.4850   33.6790   48.3240 N   0  0  0  0  0  0  0  0  0  0  0  0
   40.0820   33.4900   49.1580 H   0  0  0  0  0  0  0  0  0  0  0  0
   39.6310   34.6860   48.0750 H   0  0  0  0  0  0  0  0  0  0  0  0
   31.9270   26.9410   47.6640 C   0  0  0  0  0  0  0  0  0  0  0  0
   30.8260   27.0630   48.7060 C   0  0  0  0  0  0  0  0  0  0  0  0
   29.9410   26.5300   48.2920 H   0  0  0  0  0  0  0  0  0  0  0  0
   31.2140   26.5030   49.5970 H   0  0  0  0  0  0  0  0  0  0  0  0
   30.6300   28.1250   48.9390 H   0  0  0  0  0  0  0  0  0  0  0  0
   31.2700   27.2920   46.3370 C   0  0  0  0  0  0  0  0  0  0  0  0
   31.0910   26.3950   45.7060 H   0  0  0  0  0  0  0  0  0  0  0  0
   31.8930   28.0680   45.8130 H   0  0  0  0  0  0  0  0  0  0  0  0
   30.2780   27.7690   46.4530 H   0  0  0  0  0  0  0  0  0  0  0  0
   32.3760   25.5040   47.5570 C   0  0  0  0  0  0  0  0  0  0  0  0
   33.0290   25.3190   48.4300 H   0  0  0  0  0  0  0  0  0  0  0  0
   31.4740   24.8840   47.7020 H   0  0  0  0  0  0  0  0  0  0  0  0
   33.0010   25.2260   46.2920 N   0  0  0  0  0  0  0  0  0  0  0  0
   34.2760   25.5380   46.0460 N   0  0  0  0  0  0  0  0  0  0  0  0
   34.6110   25.1810   44.8150 C   0  0  0  0  0  0  0  0  0  0  0  0
   35.6010   25.3240   44.3620 H   0  0  0  0  0  0  0  0  0  0  0  0
   33.4910   24.5990   44.2130 C   0  0  0  0  0  3  0  0  0  0  0  0
   32.5130   24.6520   45.1760 C   0  0  0  0  0  0  0  0  0  0  0  0
   31.5000   24.2920   45.0740 H   0  0  0  0  0  0  0  0  0  0  0  0
  1  2  1  0  0  0  0
  2  9  1  0  0  0  0
  2  3  2  0  0  0  0
  3  8  1  0  0  0  0
  4  3  1  0  0  0  0
  5  4  2  0  0  0  0
  6  1  2  0  0  0  0
  6  5  1  0  0  0  0
  7  1  1  0  0  0  0
  9 10  1  0  0  0  0
 10 18  1  0  0  0  0
 11 10  2  0  0  0  0
 12 11  1  0  0  0  0
 13 20  1  0  0  0  0
 13 12  2  0  0  0  0
 14 13  1  0  0  0  0
 15 14  2  0  0  0  0
 15 16  1  0  0  0  0
 16 17  2  0  0  0  0
 17 12  1  0  0  0  0
 17  9  1  0  0  0  0
 19 15  1  0  0  0  0
 20 21  1  0  0  0  0
 22 20  1  0  0  0  0
 23  5  1  0  0  0  0
 23 24  1  0  0  0  0
 24 27  1  0  0  0  0
 24 26  1  0  0  0  0
 25 24  1  0  0  0  0
 28 31  1  0  0  0  0
 28 23  1  0  0  0  0
 29 28  1  0  0  0  0
 30 28  1  0  0  0  0
 32 23  1  0  0  0  0
 32 34  1  0  0  0  0
 32 33  1  0  0  0  0
 35 32  1  0  0  0  0
 36 35  1  0  0  0  0
 37 36  2  0  0  0  0
 38 37  1  0  0  0  0
 39 37  1  0  0  0  0
 39 40  2  0  0  0  0
 40 35  1  0  0  0  0
 41 40  1  0  0  0  0
M  END
>  <minimizedAffinity>
-5.17953825

>  <minimizedRMSD>
1.1071316

$$$$
