
 OpenBabel03252514003D

 34 37  0  0  1  0  0  0  0  0999 V2000
   35.4500   29.6620   49.4460 C   0  0  2  0  0  0  0  0  0  0  0  0
   34.5370   29.2820   50.5330 C   0  0  0  0  0  0  0  0  0  0  0  0
   34.6890   28.3210   49.4490 C   0  0  1  0  0  0  0  0  0  0  0  0
   35.1520   30.3980   48.6930 H   0  0  0  0  0  0  0  0  0  0  0  0
   33.5680   29.8430   50.6380 H   0  0  0  0  0  0  0  0  0  0  0  0
   34.9710   29.0940   51.5450 H   0  0  0  0  0  0  0  0  0  0  0  0
   35.3680   27.4620   49.3850 H   0  0  0  0  0  0  0  0  0  0  0  0
   36.9470   29.4520   49.6680 C   0  0  0  0  0  0  0  0  0  0  0  0
   37.1070   29.3920   50.7540 H   0  0  0  0  0  0  0  0  0  0  0  0
   37.2030   28.5040   49.1780 H   0  0  0  0  0  0  0  0  0  0  0  0
   38.4590   32.7750   49.3410 C   0  0  0  0  0  0  0  0  0  0  0  0
   38.9470   32.7730   48.0240 C   0  0  0  0  0  0  0  0  0  0  0  0
   38.7460   31.6090   47.2610 C   0  0  0  0  0  0  0  0  0  0  0  0
   38.0940   30.5550   47.8340 N   0  0  0  0  0  0  0  0  0  0  0  0
   37.6450   30.6110   49.1030 C   0  0  0  0  0  0  0  0  0  0  0  0
   37.8350   31.7230   49.8400 N   0  0  0  0  0  0  0  0  0  0  0  0
   38.6650   33.7130   49.8380 H   0  0  0  0  0  0  0  0  0  0  0  0
   39.4670   33.5360   47.4820 H   0  0  0  0  0  0  0  0  0  0  0  0
   39.0720   31.4750   46.2320 H   0  0  0  0  0  0  0  0  0  0  0  0
   33.5070   28.2140   48.5280 C   0  0  0  0  0  0  0  0  0  0  0  0
   33.7270   28.5660   47.3010 O   0  0  0  0  0  0  0  0  0  0  0  0
   32.2340   27.7710   48.8600 O   0  0  0  0  0  0  0  0  0  0  0  0
   31.3430   27.4260   47.8620 C   0  0  0  0  0  0  0  0  0  0  0  0
   30.4530   28.3490   47.3950 N   0  0  0  0  0  0  0  0  0  0  0  0
   29.5860   28.0320   46.4320 C   0  0  0  0  0  3  0  0  0  0  0  0
   29.5730   26.7800   45.8950 N   0  0  0  0  0  0  0  0  0  0  0  0
   30.4480   25.8750   46.3540 C   0  0  0  0  0  0  0  0  0  0  0  0
   30.4380   24.6020   45.8120 C   0  0  0  0  0  3  0  0  0  0  0  0
   31.3070   23.5940   46.2210 C   0  0  0  0  0  0  0  0  0  0  0  0
   31.2860   22.6010   45.7860 H   0  0  0  0  0  0  0  0  0  0  0  0
   32.2090   23.9010   47.2160 C   0  0  0  0  0  0  0  0  0  0  0  0
   32.9000   23.1370   47.5570 H   0  0  0  0  0  0  0  0  0  0  0  0
   32.2160   25.1770   47.7560 C   0  0  0  0  0  3  0  0  0  0  0  0
   31.3540   26.1590   47.3420 C   0  0  0  0  0  0  0  0  0  0  0  0
  1  4  1  6  0  0  0
  1  3  1  0  0  0  0
  1  8  1  0  0  0  0
  1  2  1  0  0  0  0
  2  5  1  0  0  0  0
  2  6  1  0  0  0  0
  3  7  1  1  0  0  0
  3  2  1  0  0  0  0
  8  9  1  0  0  0  0
 10  8  1  0  0  0  0
 11 17  1  0  0  0  0
 11 16  1  0  0  0  0
 12 11  2  0  0  0  0
 13 14  2  0  0  0  0
 13 12  1  0  0  0  0
 14 15  1  0  0  0  0
 15  8  1  0  0  0  0
 15 16  2  0  0  0  0
 18 12  1  0  0  0  0
 19 13  1  0  0  0  0
 20 22  1  0  0  0  0
 20  3  1  0  0  0  0
 21 20  2  0  0  0  0
 23 22  1  0  0  0  0
 24 23  1  0  0  0  0
 25 24  2  0  0  0  0
 26 27  2  0  0  0  0
 26 25  1  0  0  0  0
 27 34  1  0  0  0  0
 28 29  2  0  0  0  0
 28 27  1  0  0  0  0
 29 31  1  0  0  0  0
 30 29  1  0  0  0  0
 31 32  1  0  0  0  0
 31 33  2  0  0  0  0
 34 33  1  0  0  0  0
 34 23  2  0  0  0  0
M  END
>  <minimizedAffinity>
-5.36283016

>  <minimizedRMSD>
0.639716148

$$$$
