
 OpenBabel03252510223D

 27 29  0  0  0  0  0  0  0  0999 V2000
   37.6750   31.9970   48.8520 C   0  0  0  0  0  0  0  0  0  0  0  0
   38.1960   33.1400   49.4730 C   0  0  0  0  0  0  0  0  0  0  0  0
   39.2140   33.8380   48.7790 C   0  0  0  0  0  0  0  0  0  0  0  0
   39.6260   33.3750   47.5730 N   0  0  0  0  0  0  0  0  0  0  0  0
   39.0920   32.2720   47.0230 C   0  0  0  0  0  0  0  0  0  0  0  0
   38.1190   31.5810   47.6570 N   0  0  0  0  0  0  0  0  0  0  0  0
   37.8170   33.4490   50.4360 H   0  0  0  0  0  0  0  0  0  0  0  0
   39.5950   34.7150   49.2820 H   0  0  0  0  0  0  0  0  0  0  0  0
   39.6120   31.8900   45.7540 N   0  0  0  0  0  0  0  0  0  0  0  0
   40.7830   31.2970   45.5200 C   0  0  0  0  0  0  0  0  0  0  0  0
   40.9040   31.1000   44.1750 N   0  0  0  0  0  0  0  0  0  0  0  0
   39.8060   31.5720   43.5580 C   0  0  0  0  0  0  0  0  0  0  0  0
   39.3480   31.6630   42.2590 C   0  0  0  0  0  0  0  0  0  0  0  0
   38.1650   32.2030   41.9130 N   0  0  0  0  0  0  0  0  0  0  0  0
   37.3910   32.6820   42.9300 C   0  0  0  0  0  0  0  0  0  0  0  0
   37.8160   32.6050   44.2030 N   0  0  0  0  0  0  0  0  0  0  0  0
   38.9940   32.0680   44.5580 C   0  0  0  0  0  0  0  0  0  0  0  0
   40.1990   31.1460   41.2430 N   0  0  0  0  0  0  0  0  0  0  0  0
   41.2160   31.4160   41.3000 H   0  0  0  0  0  0  0  0  0  0  0  0
   40.2210   30.5490   40.3840 H   0  0  0  0  0  0  0  0  0  0  0  0
   36.6390   31.2760   49.5460 C   0  0  0  0  0  0  0  0  0  0  0  0
   35.6400   30.8040   48.9130 O   0  0  0  0  0  0  0  0  0  0  0  0
   36.7110   31.0860   50.9130 O   0  0  0  0  0  0  0  0  0  0  0  0
   36.9360   29.7450   51.3570 C   0  0  0  0  0  0  0  0  0  0  0  0
   35.7360   29.0890   51.5770 F   0  0  0  0  0  0  0  0  0  0  0  0
   37.7030   29.8020   52.5210 F   0  0  0  0  0  0  0  0  0  0  0  0
   37.6420   29.0270   50.4140 F   0  0  0  0  0  0  0  0  0  0  0  0
  1  2  1  0  0  0  0
  1 21  1  0  0  0  0
  2  7  1  0  0  0  0
  3  8  1  0  0  0  0
  3  2  2  0  0  0  0
  4  3  1  0  0  0  0
  5  4  2  0  0  0  0
  5  6  1  0  0  0  0
  6  1  2  0  0  0  0
  9  5  1  0  0  0  0
 10  9  1  0  0  0  0
 11 10  2  0  0  0  0
 12 11  1  0  0  0  0
 12 17  1  0  0  0  0
 13 12  2  0  0  0  0
 14 13  1  0  0  0  0
 14 15  2  0  0  0  0
 15 16  1  0  0  0  0
 16 17  2  0  0  0  0
 17  9  1  0  0  0  0
 18 19  1  0  0  0  0
 18 13  1  0  0  0  0
 20 18  1  0  0  0  0
 21 23  1  0  0  0  0
 22 21  2  0  0  0  0
 23 24  1  0  0  0  0
 24 25  1  0  0  0  0
 24 26  1  0  0  0  0
 27 24  1  0  0  0  0
M  END
>  <minimizedAffinity>
-6.94945478

>  <minimizedRMSD>
1.87108314

$$$$
