
 OpenBabel03252513473D

 28 30  0  0  0  0  0  0  0  0999 V2000
   33.4650   30.4560   44.8330 C   0  0  0  0  0  0  0  0  0  0  0  0
   33.8170   30.3120   46.2080 C   0  0  0  0  0  0  0  0  0  0  0  0
   35.1640   30.0890   46.5030 C   0  0  0  0  0  0  0  0  0  0  0  0
   36.0430   30.0210   45.4770 N   0  0  0  0  0  0  0  0  0  0  0  0
   35.6640   30.1620   44.1920 C   0  0  0  0  0  0  0  0  0  0  0  0
   34.3960   30.3750   43.8900 N   0  0  0  0  0  0  0  0  0  0  0  0
   33.1220   30.3650   47.0350 H   0  0  0  0  0  0  0  0  0  0  0  0
   35.6670   29.9270   47.8130 N   0  0  0  0  0  0  0  0  0  0  0  0
   35.0810   29.0070   48.6030 C   0  0  0  0  0  0  0  0  0  0  0  0
   35.6810   28.9790   49.8210 N   0  0  0  0  0  0  0  0  0  0  0  0
   36.6760   29.9020   49.8140 C   0  0  0  0  0  0  0  0  0  0  0  0
   37.6300   30.3730   50.6720 C   0  0  0  0  0  0  0  0  0  0  0  0
   38.4610   31.3330   50.2740 N   0  0  0  0  0  0  0  0  0  0  0  0
   38.4150   31.8880   49.0260 C   0  0  0  0  0  0  0  0  0  0  0  0
   37.4830   31.4550   48.1300 N   0  0  0  0  0  0  0  0  0  0  0  0
   36.6480   30.4800   48.5500 C   0  0  0  0  0  0  0  0  0  0  0  0
   36.7560   30.0610   43.1710 C   0  0  0  0  0  0  0  0  0  0  0  0
   37.3590   31.3160   43.0000 F   0  0  0  0  0  0  0  0  0  0  0  0
   37.7530   29.2310   43.6560 F   0  0  0  0  0  0  0  0  0  0  0  0
   36.3170   29.5440   41.9710 F   0  0  0  0  0  0  0  0  0  0  0  0
   37.6900   29.8100   51.9620 N   0  0  0  0  0  0  0  0  0  0  0  0
   37.2380   28.9350   52.2430 H   0  0  0  0  0  0  0  0  0  0  0  0
   38.1400   30.0950   52.8390 H   0  0  0  0  0  0  0  0  0  0  0  0
   32.1270   30.6770   44.5590 O   0  0  0  0  0  0  0  0  0  0  0  0
   31.5720   31.8670   44.1210 C   0  0  0  0  0  0  0  0  0  0  0  0
   30.6240   32.3770   45.0010 F   0  0  0  0  0  0  0  0  0  0  0  0
   32.5000   32.8450   43.8070 F   0  0  0  0  0  0  0  0  0  0  0  0
   30.8880   31.5680   42.9420 F   0  0  0  0  0  0  0  0  0  0  0  0
  1  2  1  0  0  0  0
  2  3  2  0  0  0  0
  2  7  1  0  0  0  0
  3  8  1  0  0  0  0
  4  3  1  0  0  0  0
  5  4  2  0  0  0  0
  6  5  1  0  0  0  0
  6  1  2  0  0  0  0
  8 16  1  0  0  0  0
  8  9  1  0  0  0  0
  9 10  2  0  0  0  0
 11 10  1  0  0  0  0
 11 12  1  0  0  0  0
 12 21  1  0  0  0  0
 13 12  2  0  0  0  0
 14 13  1  0  0  0  0
 15 16  1  0  0  0  0
 15 14  2  0  0  0  0
 16 11  2  0  0  0  0
 17 19  1  0  0  0  0
 17  5  1  0  0  0  0
 18 17  1  0  0  0  0
 20 17  1  0  0  0  0
 21 22  1  0  0  0  0
 21 23  1  0  0  0  0
 24  1  1  0  0  0  0
 25 24  1  0  0  0  0
 25 26  1  0  0  0  0
 27 25  1  0  0  0  0
 28 25  1  0  0  0  0
M  END
>  <minimizedAffinity>
-5.26955795

>  <minimizedRMSD>
6.09763098

$$$$
