
 OpenBabel03252514073D

 41 44  0  0  0  0  0  0  0  0999 V2000
   34.1520   30.0870   47.5420 C   0  0  0  0  0  0  0  0  0  0  0  0
   35.1390   29.8490   48.5280 C   0  0  0  0  0  0  0  0  0  0  0  0
   34.9890   28.7050   49.2880 C   0  0  0  0  0  0  0  0  0  0  0  0
   33.9330   27.8870   49.0620 N   0  0  0  0  0  0  0  0  0  0  0  0
   33.0060   28.1420   48.1130 C   0  0  0  0  0  0  0  0  0  0  0  0
   33.1250   29.2360   47.3640 N   0  0  0  0  0  0  0  0  0  0  0  0
   34.2030   30.9710   46.9020 H   0  0  0  0  0  0  0  0  0  0  0  0
   35.7430   28.5400   50.0300 H   0  0  0  0  0  0  0  0  0  0  0  0
   36.1870   30.8040   48.6440 N   0  0  0  0  0  0  0  0  0  0  0  0
   36.4790   31.4580   49.8060 C   0  0  0  0  0  0  0  0  0  0  0  0
   37.5190   32.2910   49.5840 N   0  0  0  0  0  0  0  0  0  0  0  0
   37.8570   32.1430   48.2930 C   0  0  0  0  0  0  0  0  0  0  0  0
   38.8250   32.7130   47.4890 C   0  0  0  0  0  0  0  0  0  0  0  0
   38.9500   32.3770   46.1880 N   0  0  0  0  0  0  0  0  0  0  0  0
   38.1300   31.4630   45.6110 C   0  0  0  0  0  0  0  0  0  0  0  0
   37.1930   30.9130   46.3960 N   0  0  0  0  0  0  0  0  0  0  0  0
   37.0310   31.2150   47.6910 C   0  0  0  0  0  0  0  0  0  0  0  0
   35.9870   31.3590   50.7720 H   0  0  0  0  0  0  0  0  0  0  0  0
   38.2680   31.2260   44.5660 H   0  0  0  0  0  0  0  0  0  0  0  0
   39.7050   33.6690   48.0310 N   0  0  0  0  0  0  0  0  0  0  0  0
   40.3330   33.4740   48.8410 H   0  0  0  0  0  0  0  0  0  0  0  0
   39.8800   34.6640   47.7510 H   0  0  0  0  0  0  0  0  0  0  0  0
   31.8610   27.2370   47.8800 C   0  0  0  0  0  0  0  0  0  0  0  0
   30.8340   27.3890   48.9920 C   0  0  0  0  0  0  0  0  0  0  0  0
   29.9080   26.8870   48.6340 H   0  0  0  0  0  0  0  0  0  0  0  0
   31.2610   26.8130   49.8540 H   0  0  0  0  0  0  0  0  0  0  0  0
   30.6880   28.4560   49.2400 H   0  0  0  0  0  0  0  0  0  0  0  0
   31.1310   27.6150   46.5990 C   0  0  0  0  0  0  0  0  0  0  0  0
   30.8830   26.7270   45.9790 H   0  0  0  0  0  0  0  0  0  0  0  0
   31.7450   28.3720   46.0380 H   0  0  0  0  0  0  0  0  0  0  0  0
   30.1650   28.1220   46.7810 H   0  0  0  0  0  0  0  0  0  0  0  0
   32.2560   25.7870   47.7410 C   0  0  0  0  0  0  0  0  0  0  0  0
   32.8940   25.5560   48.6140 H   0  0  0  0  0  0  0  0  0  0  0  0
   31.3300   25.1980   47.8650 H   0  0  0  0  0  0  0  0  0  0  0  0
   32.8800   25.5160   46.4740 N   0  0  0  0  0  0  0  0  0  0  0  0
   32.2520   24.8540   45.4990 N   0  0  0  0  0  0  0  0  0  0  0  0
   33.0360   24.7340   44.4390 C   0  0  0  0  0  0  0  0  0  0  0  0
   32.7620   24.2320   43.5020 H   0  0  0  0  0  0  0  0  0  0  0  0
   34.2560   25.3560   44.7300 C   0  0  0  0  0  3  0  0  0  0  0  0
   34.1060   25.8270   46.0130 C   0  0  0  0  0  0  0  0  0  0  0  0
   34.8480   26.3680   46.5800 H   0  0  0  0  0  0  0  0  0  0  0  0
  1  2  1  0  0  0  0
  2  9  1  0  0  0  0
  2  3  2  0  0  0  0
  3  8  1  0  0  0  0
  4  3  1  0  0  0  0
  5  4  2  0  0  0  0
  6  1  2  0  0  0  0
  6  5  1  0  0  0  0
  7  1  1  0  0  0  0
  9 10  1  0  0  0  0
 10 18  1  0  0  0  0
 11 10  2  0  0  0  0
 12 11  1  0  0  0  0
 13 20  1  0  0  0  0
 13 12  2  0  0  0  0
 14 13  1  0  0  0  0
 15 14  2  0  0  0  0
 15 16  1  0  0  0  0
 16 17  2  0  0  0  0
 17 12  1  0  0  0  0
 17  9  1  0  0  0  0
 19 15  1  0  0  0  0
 20 21  1  0  0  0  0
 22 20  1  0  0  0  0
 23  5  1  0  0  0  0
 23 24  1  0  0  0  0
 24 27  1  0  0  0  0
 24 26  1  0  0  0  0
 25 24  1  0  0  0  0
 28 31  1  0  0  0  0
 28 23  1  0  0  0  0
 29 28  1  0  0  0  0
 30 28  1  0  0  0  0
 32 34  1  0  0  0  0
 32 23  1  0  0  0  0
 32 33  1  0  0  0  0
 35 32  1  0  0  0  0
 36 35  1  0  0  0  0
 37 39  1  0  0  0  0
 37 36  2  0  0  0  0
 38 37  1  0  0  0  0
 39 40  2  0  0  0  0
 40 35  1  0  0  0  0
 40 41  1  0  0  0  0
M  END
>  <minimizedAffinity>
-5.20789719

>  <minimizedRMSD>
1.19499242

$$$$
