
 OpenBabel03252514083D

 41 44  0  0  0  0  0  0  0  0999 V2000
   34.0190   29.9280   47.3200 C   0  0  0  0  0  0  0  0  0  0  0  0
   34.9180   29.5840   48.3590 C   0  0  0  0  0  0  0  0  0  0  0  0
   34.7910   28.3150   48.8900 C   0  0  0  0  0  0  0  0  0  0  0  0
   33.8380   27.4820   48.4070 N   0  0  0  0  0  0  0  0  0  0  0  0
   32.9940   27.8390   47.4150 C   0  0  0  0  0  0  0  0  0  0  0  0
   33.0930   29.0550   46.8830 N   0  0  0  0  0  0  0  0  0  0  0  0
   34.0580   30.9140   46.8510 H   0  0  0  0  0  0  0  0  0  0  0  0
   35.4770   28.0710   49.6740 H   0  0  0  0  0  0  0  0  0  0  0  0
   35.8610   30.5720   48.7550 N   0  0  0  0  0  0  0  0  0  0  0  0
   35.8670   31.1480   49.9930 C   0  0  0  0  0  0  0  0  0  0  0  0
   36.8810   32.0390   50.0510 N   0  0  0  0  0  0  0  0  0  0  0  0
   37.4890   32.0030   48.8550 C   0  0  0  0  0  0  0  0  0  0  0  0
   38.5690   32.6720   48.3120 C   0  0  0  0  0  0  0  0  0  0  0  0
   38.9820   32.4400   47.0490 N   0  0  0  0  0  0  0  0  0  0  0  0
   38.3550   31.5370   46.2540 C   0  0  0  0  0  0  0  0  0  0  0  0
   37.3070   30.8910   46.7850 N   0  0  0  0  0  0  0  0  0  0  0  0
   36.8620   31.0880   48.0330 C   0  0  0  0  0  0  0  0  0  0  0  0
   35.1900   30.9570   50.8230 H   0  0  0  0  0  0  0  0  0  0  0  0
   38.7220   31.3850   45.2490 H   0  0  0  0  0  0  0  0  0  0  0  0
   39.2600   33.6210   49.0900 N   0  0  0  0  0  0  0  0  0  0  0  0
   39.7150   33.3930   50.0000 H   0  0  0  0  0  0  0  0  0  0  0  0
   39.4330   34.6410   48.9180 H   0  0  0  0  0  0  0  0  0  0  0  0
   31.9610   26.9150   46.9010 C   0  0  0  0  0  0  0  0  0  0  0  0
   31.7080   25.7980   47.9030 C   0  0  0  0  0  0  0  0  0  0  0  0
   30.7670   25.2980   47.5830 H   0  0  0  0  0  0  0  0  0  0  0  0
   32.5690   25.0930   47.7670 H   0  0  0  0  0  0  0  0  0  0  0  0
   31.6640   26.2030   48.9300 H   0  0  0  0  0  0  0  0  0  0  0  0
   30.6280   27.6330   46.7490 C   0  0  0  0  0  0  0  0  0  0  0  0
   30.1290   27.3930   45.7850 H   0  0  0  0  0  0  0  0  0  0  0  0
   30.7890   28.7380   46.8850 H   0  0  0  0  0  0  0  0  0  0  0  0
   29.8950   27.3630   47.5320 H   0  0  0  0  0  0  0  0  0  0  0  0
   32.2940   26.3290   45.5520 C   0  0  0  0  0  0  0  0  0  0  0  0
   31.3270   26.0930   45.0710 H   0  0  0  0  0  0  0  0  0  0  0  0
   32.7480   27.1440   44.9600 H   0  0  0  0  0  0  0  0  0  0  0  0
   33.1840   25.2050   45.6560 N   0  0  0  0  0  0  0  0  0  0  0  0
   34.5090   25.3510   45.7350 N   0  0  0  0  0  0  0  0  0  0  0  0
   35.1020   24.1700   45.8220 C   0  0  0  0  0  0  0  0  0  0  0  0
   36.1850   24.0090   45.8980 H   0  0  0  0  0  0  0  0  0  0  0  0
   34.1100   23.1840   45.8000 C   0  0  0  0  0  3  0  0  0  0  0  0
   32.9300   23.8820   45.6950 C   0  0  0  0  0  0  0  0  0  0  0  0
   31.9410   23.4530   45.6490 H   0  0  0  0  0  0  0  0  0  0  0  0
  1  2  1  0  0  0  0
  2  9  1  0  0  0  0
  2  3  2  0  0  0  0
  3  8  1  0  0  0  0
  4  3  1  0  0  0  0
  5  4  2  0  0  0  0
  6  1  2  0  0  0  0
  6  5  1  0  0  0  0
  7  1  1  0  0  0  0
  9 10  1  0  0  0  0
 10 11  2  0  0  0  0
 10 18  1  0  0  0  0
 12 11  1  0  0  0  0
 13 12  1  0  0  0  0
 13 20  1  0  0  0  0
 14 13  2  0  0  0  0
 15 16  2  0  0  0  0
 15 14  1  0  0  0  0
 16 17  1  0  0  0  0
 17  9  1  0  0  0  0
 17 12  2  0  0  0  0
 19 15  1  0  0  0  0
 20 21  1  0  0  0  0
 22 20  1  0  0  0  0
 23  5  1  0  0  0  0
 23 24  1  0  0  0  0
 24 27  1  0  0  0  0
 25 24  1  0  0  0  0
 26 24  1  0  0  0  0
 28 30  1  0  0  0  0
 28 23  1  0  0  0  0
 28 31  1  0  0  0  0
 29 28  1  0  0  0  0
 32 35  1  0  0  0  0
 32 23  1  0  0  0  0
 33 32  1  0  0  0  0
 34 32  1  0  0  0  0
 35 40  1  0  0  0  0
 35 36  1  0  0  0  0
 36 37  2  0  0  0  0
 37 38  1  0  0  0  0
 39 37  1  0  0  0  0
 40 39  2  0  0  0  0
 41 40  1  0  0  0  0
M  END
>  <minimizedAffinity>
-5.02169132

>  <minimizedRMSD>
1.27114236

$$$$
