
 OpenBabel03252509553D

 42 45  0  0  0  0  0  0  0  0999 V2000
   33.7130   30.0860   44.2050 C   0  0  0  0  0  0  0  0  0  0  0  0
   34.1100   31.1630   43.3720 C   0  0  0  0  0  0  0  0  0  0  0  0
   33.0980   31.9770   42.8380 C   0  0  0  0  0  0  0  0  0  0  0  0
   31.7920   31.6950   43.1420 N   0  0  0  0  0  0  0  0  0  0  0  0
   31.4670   30.6550   43.9410 C   0  0  0  0  0  0  0  0  0  0  0  0
   32.4070   29.8710   44.4580 N   0  0  0  0  0  0  0  0  0  0  0  0
   30.0820   30.4130   44.2210 N   0  0  0  0  0  0  0  0  0  0  0  0
   29.1320   30.6040   43.2860 C   0  0  0  0  0  0  0  0  0  0  0  0
   27.8070   30.3730   43.5450 C   0  0  0  0  0  0  0  0  0  0  0  0
   27.5210   29.9370   44.8100 C   0  0  0  0  0  0  0  0  0  0  0  0
   26.3200   29.6950   45.1460 O   0  0  0  0  0  0  0  0  0  0  0  0
   28.4160   29.7290   45.7770 N   0  0  0  0  0  0  0  0  0  0  0  0
   29.7210   29.9800   45.4500 C   0  0  0  0  0  0  0  0  0  0  0  0
   30.5910   29.7960   46.3300 O   0  0  0  0  0  0  0  0  0  0  0  0
   34.4920   29.4480   44.6250 H   0  0  0  0  0  0  0  0  0  0  0  0
   35.1230   31.3800   43.1390 H   0  0  0  0  0  0  0  0  0  0  0  0
   33.3380   32.8070   42.2010 H   0  0  0  0  0  0  0  0  0  0  0  0
   29.4270   30.9510   42.3030 H   0  0  0  0  0  0  0  0  0  0  0  0
   27.6100   27.9210   49.4680 C   0  0  0  0  0  0  0  0  0  0  0  0
   27.5130   29.2910   49.3790 C   0  0  0  0  0  0  0  0  0  0  0  0
   27.7590   29.9680   48.2160 C   0  0  0  0  0  0  0  0  0  0  0  0
   28.1150   29.2760   47.0850 C   0  0  0  0  0  0  0  0  0  0  0  0
   28.2200   27.8830   47.1500 C   0  0  0  0  0  0  0  0  0  0  0  0
   27.9670   27.1990   48.3470 C   0  0  0  0  0  0  0  0  0  0  0  0
   27.2340   29.8720   50.2550 H   0  0  0  0  0  0  0  0  0  0  0  0
   27.7070   31.0170   48.0590 H   0  0  0  0  0  0  0  0  0  0  0  0
   28.4910   27.1980   46.3370 H   0  0  0  0  0  0  0  0  0  0  0  0
   28.0370   26.1360   48.4370 H   0  0  0  0  0  0  0  0  0  0  0  0
   27.2910   27.0990   50.9710 S   0  0  0  0  0  0  0  0  0  0  0  0
   28.4760   27.0200   51.8610 O   0  0  0  0  0  0  0  0  0  0  0  0
   26.1550   27.8150   51.6600 O   0  0  0  0  0  0  0  0  0  0  0  0
   26.8520   25.8310   50.6540 H   0  0  0  0  0  0  0  0  0  0  0  0
   26.7220   30.5660   42.5620 C   0  0  0  0  0  0  0  0  0  0  0  0
   27.1100   31.3080   41.8060 H   0  0  0  0  0  0  0  0  0  0  0  0
   25.8750   31.0790   43.0660 H   0  0  0  0  0  0  0  0  0  0  0  0
   26.3350   29.3610   41.8960 N   0  0  0  0  0  0  0  0  0  0  0  0
   25.0980   29.2640   41.3900 N   0  0  0  0  0  0  0  0  0  0  0  0
   24.9190   28.0660   40.8050 C   0  0  0  0  0  0  0  0  0  0  0  0
   24.0640   27.6360   40.3010 H   0  0  0  0  0  0  0  0  0  0  0  0
   26.0900   27.3330   40.9260 C   0  0  0  0  0  0  0  0  0  0  0  0
   26.9390   28.1970   41.6180 C   0  0  0  0  0  0  0  0  0  0  0  0
   27.9690   28.0530   41.9460 H   0  0  0  0  0  0  0  0  0  0  0  0
  1  6  1  0  0  0  0
  1 15  1  0  0  0  0
  2  1  2  0  0  0  0
  3  4  2  0  0  0  0
  3  2  1  0  0  0  0
  4  5  1  0  0  0  0
  5  7  1  0  0  0  0
  5  6  2  0  0  0  0
  7 13  1  0  0  0  0
  8  9  2  0  0  0  0
  8  7  1  0  0  0  0
  9 10  1  0  0  0  0
 10 11  2  0  0  0  0
 10 12  1  0  0  0  0
 12 22  1  0  0  0  0
 13 12  1  0  0  0  0
 13 14  2  0  0  0  0
 16  2  1  0  0  0  0
 17  3  1  0  0  0  0
 18  8  1  0  0  0  0
 19 29  1  0  0  0  0
 20 19  1  0  0  0  0
 20 25  1  0  0  0  0
 21 20  2  0  0  0  0
 22 23  2  0  0  0  0
 22 21  1  0  0  0  0
 23 24  1  0  0  0  0
 24 28  1  0  0  0  0
 24 19  2  0  0  0  0
 26 21  1  0  0  0  0
 27 23  1  0  0  0  0
 29 31  2  0  0  0  0
 29 30  2  0  0  0  0
 32 29  1  0  0  0  0
 33 35  1  0  0  0  0
 33  9  1  0  0  0  0
 34 33  1  0  0  0  0
 36 33  1  0  0  0  0
 37 36  1  0  0  0  0
 38 40  1  0  0  0  0
 38 37  2  0  0  0  0
 39 38  1  0  0  0  0
 40 41  2  0  0  0  0
 41 36  1  0  0  0  0
 41 42  1  0  0  0  0
M  END
>  <minimizedAffinity>
-4.52277374

>  <minimizedRMSD>
0.243276983

$$$$
