
 OpenBabel03252513073D

 41 43  0  0  0  0  0  0  0  0999 V2000
   33.6150   28.1910   49.1220 C   0  0  0  0  0  0  0  0  0  0  0  0
   33.3530   28.4970   47.7560 C   0  0  0  0  0  0  0  0  0  0  0  0
   34.1950   29.2750   47.0210 C   0  0  0  0  0  0  0  0  0  0  0  0
   35.3200   29.7610   47.6550 N   0  0  0  0  0  0  0  0  0  0  0  0
   35.5590   29.4760   48.9200 C   0  0  0  0  0  0  0  0  0  0  0  0
   34.7590   28.7160   49.6780 N   0  0  0  0  0  0  0  0  0  0  0  0
   32.9950   27.5910   49.7430 H   0  0  0  0  0  0  0  0  0  0  0  0
   32.4350   28.0390   47.4260 H   0  0  0  0  0  0  0  0  0  0  0  0
   33.9240   29.5780   45.6380 C   0  0  0  0  0  0  0  0  0  0  0  0
   34.8270   30.0950   45.2010 H   0  0  0  0  0  0  0  0  0  0  0  0
   33.8460   28.6340   45.0460 H   0  0  0  0  0  0  0  0  0  0  0  0
   32.7560   30.4330   45.3690 C   0  0  0  0  0  0  0  0  0  0  0  0
   32.5950   31.1120   46.2300 H   0  0  0  0  0  0  0  0  0  0  0  0
   31.8470   29.7580   45.4030 H   0  0  0  0  0  0  0  0  0  0  0  0
   32.6760   31.1520   44.1630 N   0  0  0  0  0  0  0  0  0  0  0  0
   33.0880   30.7910   42.9530 C   0  0  0  0  0  0  0  0  0  0  0  0
   32.9740   31.5450   41.8100 C   0  0  0  0  0  0  0  0  0  0  0  0
   32.3930   32.7760   41.8860 C   0  0  0  0  0  0  0  0  0  0  0  0
   32.2500   33.5230   40.9000 O   0  0  0  0  0  0  0  0  0  0  0  0
   31.9780   33.1560   43.0650 N   0  0  0  0  0  0  0  0  0  0  0  0
   32.1000   32.4080   44.1560 C   0  0  0  0  0  0  0  0  0  0  0  0
   31.6660   32.8610   45.2660 O   0  0  0  0  0  0  0  0  0  0  0  0
   33.5570   29.7990   42.8800 H   0  0  0  0  0  0  0  0  0  0  0  0
   33.3470   31.1510   40.8630 H   0  0  0  0  0  0  0  0  0  0  0  0
   31.3490   34.4720   43.1810 C   0  0  0  0  0  0  0  0  0  0  0  0
   31.5080   34.9760   44.4590 F   0  0  0  0  0  0  0  0  0  0  0  0
   30.0040   34.3010   42.9390 F   0  0  0  0  0  0  0  0  0  0  0  0
   31.9200   35.3030   42.2600 F   0  0  0  0  0  0  0  0  0  0  0  0
   36.7810   30.0080   49.6000 C   0  0  0  0  0  0  0  0  0  0  0  0
   36.9660   29.4970   50.5660 H   0  0  0  0  0  0  0  0  0  0  0  0
   37.6170   29.8380   48.8910 H   0  0  0  0  0  0  0  0  0  0  0  0
   36.6020   31.4950   49.8840 C   0  0  0  0  0  0  0  0  0  0  0  0
   35.5980   31.7800   49.4900 H   0  0  0  0  0  0  0  0  0  0  0  0
   36.5890   31.6550   50.9630 H   0  0  0  0  0  0  0  0  0  0  0  0
   37.6470   32.2640   49.2380 N   0  0  0  0  0  0  0  0  0  0  0  0
   38.2600   33.3830   49.5290 N   0  0  0  0  0  0  0  0  0  0  0  0
   39.1780   33.7110   48.6140 C   0  0  0  0  0  0  0  0  0  0  0  0
   39.8270   34.5790   48.6060 H   0  0  0  0  0  0  0  0  0  0  0  0
   39.1670   32.7210   47.6370 C   0  0  0  0  0  0  0  0  0  0  0  0
   38.1990   31.8440   48.0690 C   0  0  0  0  0  0  0  0  0  0  0  0
   37.9520   30.9440   47.5000 H   0  0  0  0  0  0  0  0  0  0  0  0
  1  6  1  0  0  0  0
  1  7  1  0  0  0  0
  2  1  2  0  0  0  0
  3  4  2  0  0  0  0
  3  2  1  0  0  0  0
  4  5  1  0  0  0  0
  5 29  1  0  0  0  0
  5  6  2  0  0  0  0
  8  2  1  0  0  0  0
  9  3  1  0  0  0  0
 10  9  1  0  0  0  0
 11  9  1  0  0  0  0
 12 14  1  0  0  0  0
 12  9  1  0  0  0  0
 12 13  1  0  0  0  0
 15 12  1  0  0  0  0
 16 15  1  0  0  0  0
 17 18  1  0  0  0  0
 17 16  2  0  0  0  0
 18 20  1  0  0  0  0
 19 18  2  0  0  0  0
 20 25  1  0  0  0  0
 20 21  1  0  0  0  0
 21 15  1  0  0  0  0
 21 22  2  0  0  0  0
 23 16  1  0  0  0  0
 24 17  1  0  0  0  0
 25 26  1  0  0  0  0
 27 25  1  0  0  0  0
 28 25  1  0  0  0  0
 29 32  1  0  0  0  0
 29 30  1  0  0  0  0
 31 29  1  0  0  0  0
 32 34  1  0  0  0  0
 33 32  1  0  0  0  0
 35 36  1  0  0  0  0
 35 32  1  0  0  0  0
 37 36  2  0  0  0  0
 38 37  1  0  0  0  0
 39 40  2  0  0  0  0
 39 37  1  0  0  0  0
 40 35  1  0  0  0  0
 41 40  1  0  0  0  0
M  END
>  <minimizedAffinity>
-5.26274109

>  <minimizedRMSD>
4.27723503

$$$$
