
 OpenBabel03252514083D

 41 44  0  0  0  0  0  0  0  0999 V2000
   34.4470   30.1090   47.5250 C   0  0  0  0  0  0  0  0  0  0  0  0
   35.4310   29.9060   48.5230 C   0  0  0  0  0  0  0  0  0  0  0  0
   35.3960   28.6950   49.1880 C   0  0  0  0  0  0  0  0  0  0  0  0
   34.4470   27.7840   48.8650 N   0  0  0  0  0  0  0  0  0  0  0  0
   33.5200   28.0060   47.9080 C   0  0  0  0  0  0  0  0  0  0  0  0
   33.5300   29.1620   47.2490 N   0  0  0  0  0  0  0  0  0  0  0  0
   34.4100   31.0400   46.9560 H   0  0  0  0  0  0  0  0  0  0  0  0
   36.1460   28.5580   49.9390 H   0  0  0  0  0  0  0  0  0  0  0  0
   36.3570   30.9620   48.7450 N   0  0  0  0  0  0  0  0  0  0  0  0
   36.3630   31.7280   49.8750 C   0  0  0  0  0  0  0  0  0  0  0  0
   37.3580   32.6350   49.7780 N   0  0  0  0  0  0  0  0  0  0  0  0
   37.9550   32.4210   48.5950 C   0  0  0  0  0  0  0  0  0  0  0  0
   39.0160   33.0160   47.9400 C   0  0  0  0  0  0  0  0  0  0  0  0
   39.4220   32.5940   46.7250 N   0  0  0  0  0  0  0  0  0  0  0  0
   38.8060   31.5650   46.0910 C   0  0  0  0  0  0  0  0  0  0  0  0
   37.7770   30.9910   46.7310 N   0  0  0  0  0  0  0  0  0  0  0  0
   37.3400   31.3750   47.9370 C   0  0  0  0  0  0  0  0  0  0  0  0
   35.6980   31.6580   50.7340 H   0  0  0  0  0  0  0  0  0  0  0  0
   39.1670   31.2620   45.1180 H   0  0  0  0  0  0  0  0  0  0  0  0
   39.6950   34.0900   48.5480 N   0  0  0  0  0  0  0  0  0  0  0  0
   40.1630   34.0180   49.4770 H   0  0  0  0  0  0  0  0  0  0  0  0
   39.8440   35.0720   48.2140 H   0  0  0  0  0  0  0  0  0  0  0  0
   32.4940   26.9980   47.5690 C   0  0  0  0  0  0  0  0  0  0  0  0
   31.3520   27.0510   48.5730 C   0  0  0  0  0  0  0  0  0  0  0  0
   30.5170   26.4650   48.1290 H   0  0  0  0  0  0  0  0  0  0  0  0
   31.7440   26.5150   49.4770 H   0  0  0  0  0  0  0  0  0  0  0  0
   31.0830   28.0980   48.7980 H   0  0  0  0  0  0  0  0  0  0  0  0
   31.8620   27.3100   46.2200 C   0  0  0  0  0  0  0  0  0  0  0  0
   31.7610   26.4040   45.5830 H   0  0  0  0  0  0  0  0  0  0  0  0
   32.4540   28.1230   45.7170 H   0  0  0  0  0  0  0  0  0  0  0  0
   30.8400   27.7240   46.3010 H   0  0  0  0  0  0  0  0  0  0  0  0
   33.0350   25.5930   47.4790 C   0  0  0  0  0  0  0  0  0  0  0  0
   33.5600   25.4020   48.4330 H   0  0  0  0  0  0  0  0  0  0  0  0
   32.1580   24.9210   47.4640 H   0  0  0  0  0  0  0  0  0  0  0  0
   33.8540   25.4030   46.3130 N   0  0  0  0  0  0  0  0  0  0  0  0
   33.7790   26.2100   45.2520 N   0  0  0  0  0  0  0  0  0  0  0  0
   34.6340   25.8250   44.3150 C   0  0  0  0  0  0  0  0  0  0  0  0
   34.7710   26.3180   43.3440 H   0  0  0  0  0  0  0  0  0  0  0  0
   35.3130   24.6970   44.7850 C   0  0  0  0  0  3  0  0  0  0  0  0
   34.7900   24.4740   46.0360 C   0  0  0  0  0  0  0  0  0  0  0  0
   35.0730   23.6800   46.7100 H   0  0  0  0  0  0  0  0  0  0  0  0
  1  2  1  0  0  0  0
  2  9  1  0  0  0  0
  2  3  2  0  0  0  0
  3  8  1  0  0  0  0
  4  3  1  0  0  0  0
  5  4  2  0  0  0  0
  6  1  2  0  0  0  0
  6  5  1  0  0  0  0
  7  1  1  0  0  0  0
  9 10  1  0  0  0  0
 10 18  1  0  0  0  0
 11 10  2  0  0  0  0
 12 11  1  0  0  0  0
 13 20  1  0  0  0  0
 13 12  1  0  0  0  0
 14 13  2  0  0  0  0
 15 14  1  0  0  0  0
 15 16  2  0  0  0  0
 16 17  1  0  0  0  0
 17 12  2  0  0  0  0
 17  9  1  0  0  0  0
 19 15  1  0  0  0  0
 20 21  1  0  0  0  0
 22 20  1  0  0  0  0
 23  5  1  0  0  0  0
 23 24  1  0  0  0  0
 24 27  1  0  0  0  0
 24 26  1  0  0  0  0
 25 24  1  0  0  0  0
 28 31  1  0  0  0  0
 28 23  1  0  0  0  0
 29 28  1  0  0  0  0
 30 28  1  0  0  0  0
 32 23  1  0  0  0  0
 32 33  1  0  0  0  0
 34 32  1  0  0  0  0
 35 32  1  0  0  0  0
 36 35  1  0  0  0  0
 37 39  1  0  0  0  0
 37 36  2  0  0  0  0
 38 37  1  0  0  0  0
 39 40  2  0  0  0  0
 40 35  1  0  0  0  0
 40 41  1  0  0  0  0
M  END
>  <minimizedAffinity>
-5.43314981

>  <minimizedRMSD>
0.459020138

$$$$
