
 OpenBabel03252514003D

 28 30  0  0  1  0  0  0  0  0999 V2000
   35.5570   29.5670   49.2760 C   0  0  2  0  0  0  0  0  0  0  0  0
   34.5810   29.4860   50.3740 C   0  0  0  0  0  0  0  0  0  0  0  0
   34.8270   28.2580   49.6310 C   0  0  1  0  0  0  0  0  0  0  0  0
   35.3420   30.0120   48.2960 H   0  0  0  0  0  0  0  0  0  0  0  0
   34.9920   29.6530   51.3920 H   0  0  0  0  0  0  0  0  0  0  0  0
   33.6430   30.0880   50.2280 H   0  0  0  0  0  0  0  0  0  0  0  0
   35.5380   27.4610   49.8680 H   0  0  0  0  0  0  0  0  0  0  0  0
   37.0400   29.5040   49.6490 C   0  0  0  0  0  0  0  0  0  0  0  0
   37.1230   29.4940   50.7380 H   0  0  0  0  0  0  0  0  0  0  0  0
   37.4440   28.5370   49.2920 H   0  0  0  0  0  0  0  0  0  0  0  0
   38.4390   32.8630   49.2470 C   0  0  0  0  0  0  0  0  0  0  0  0
   38.9340   32.8460   47.9330 C   0  0  0  0  0  0  0  0  0  0  0  0
   38.7770   31.6610   47.1950 C   0  0  0  0  0  0  0  0  0  0  0  0
   38.1520   30.5960   47.7950 N   0  0  0  0  0  0  0  0  0  0  0  0
   37.6980   30.6670   49.0520 C   0  0  0  0  0  0  0  0  0  0  0  0
   37.8460   31.8010   49.7650 N   0  0  0  0  0  0  0  0  0  0  0  0
   38.5650   33.7750   49.7990 H   0  0  0  0  0  0  0  0  0  0  0  0
   39.4190   33.7240   47.5190 H   0  0  0  0  0  0  0  0  0  0  0  0
   39.1480   31.6250   46.1900 H   0  0  0  0  0  0  0  0  0  0  0  0
   33.7160   27.8260   48.7130 C   0  0  0  0  0  0  0  0  0  0  0  0
   34.1180   27.1960   47.6540 O   0  0  0  0  0  0  0  0  0  0  0  0
   32.3620   28.0330   48.9150 O   0  0  0  0  0  0  0  0  0  0  0  0
   31.4590   27.5720   47.9700 C   0  0  0  0  0  0  0  0  0  0  0  0
   30.6490   28.2370   47.0780 C   0  0  0  0  0  3  0  0  0  0  0  0
   29.9820   27.2740   46.4020 N   0  0  0  0  0  0  0  0  0  0  0  0
   30.3500   26.0520   46.8430 C   0  0  0  0  0  3  0  0  0  0  0  0
   31.2750   26.2320   47.8250 N   0  0  0  0  0  0  0  0  0  0  0  0
   31.7160   25.4120   48.3260 H   0  0  0  0  0  0  0  0  0  0  0  0
  1  4  1  6  0  0  0
  1  3  1  0  0  0  0
  1  8  1  0  0  0  0
  1  2  1  0  0  0  0
  2  5  1  0  0  0  0
  3  7  1  1  0  0  0
  3  2  1  0  0  0  0
  6  2  1  0  0  0  0
  8  9  1  0  0  0  0
 10  8  1  0  0  0  0
 11 16  1  0  0  0  0
 11 17  1  0  0  0  0
 12 11  2  0  0  0  0
 13 14  2  0  0  0  0
 13 12  1  0  0  0  0
 14 15  1  0  0  0  0
 15  8  1  0  0  0  0
 15 16  2  0  0  0  0
 18 12  1  0  0  0  0
 19 13  1  0  0  0  0
 20 22  1  0  0  0  0
 20  3  1  0  0  0  0
 21 20  2  0  0  0  0
 23 22  1  0  0  0  0
 24 23  2  0  0  0  0
 25 26  2  0  0  0  0
 25 24  1  0  0  0  0
 26 27  1  0  0  0  0
 27 23  1  0  0  0  0
 27 28  1  0  0  0  0
M  END
>  <minimizedAffinity>
-4.83620167

>  <minimizedRMSD>
0.516012847

$$$$
