
 OpenBabel03252514043D

 38 41  0  0  1  0  0  0  0  0999 V2000
   35.4590   29.2870   48.6900 C   0  0  2  0  0  0  0  0  0  0  0  0
   34.2360   29.2880   49.4920 C   0  0  0  0  0  0  0  0  0  0  0  0
   34.6910   27.9860   49.1040 C   0  0  1  0  0  0  0  0  0  0  0  0
   35.5070   29.4020   47.6070 H   0  0  0  0  0  0  0  0  0  0  0  0
   33.3370   29.7890   49.0290 H   0  0  0  0  0  0  0  0  0  0  0  0
   34.3330   29.6280   50.5630 H   0  0  0  0  0  0  0  0  0  0  0  0
   35.2960   27.3170   49.7100 H   0  0  0  0  0  0  0  0  0  0  0  0
   36.7770   29.3910   49.4780 C   0  0  0  0  0  0  0  0  0  0  0  0
   36.5640   29.4260   50.5610 H   0  0  0  0  0  0  0  0  0  0  0  0
   37.3860   28.4880   49.2770 H   0  0  0  0  0  0  0  0  0  0  0  0
   37.9290   32.8570   49.4210 C   0  0  0  0  0  0  0  0  0  0  0  0
   38.7070   32.9050   48.2410 C   0  0  0  0  0  0  0  0  0  0  0  0
   38.8140   31.7150   47.4840 C   0  0  0  0  0  0  0  0  0  0  0  0
   38.1630   30.5960   47.9390 N   0  0  0  0  0  0  0  0  0  0  0  0
   37.4370   30.6200   49.0750 C   0  0  0  0  0  0  0  0  0  0  0  0
   37.3290   31.7620   49.8080 N   0  0  0  0  0  0  0  0  0  0  0  0
   37.7980   33.7300   50.0600 H   0  0  0  0  0  0  0  0  0  0  0  0
   39.1870   33.8320   47.9590 H   0  0  0  0  0  0  0  0  0  0  0  0
   39.3990   31.7340   46.5870 H   0  0  0  0  0  0  0  0  0  0  0  0
   33.8950   27.3150   48.0040 C   0  0  0  0  0  0  0  0  0  0  0  0
   34.2550   26.0950   47.7810 O   0  0  0  0  0  0  0  0  0  0  0  0
   32.8640   27.8760   47.2710 O   0  0  0  0  0  0  0  0  0  0  0  0
   31.5920   28.0380   47.7270 C   0  0  0  0  0  0  0  0  0  0  0  0
   31.1140   27.5990   49.0470 C   0  0  0  0  0  0  0  0  0  0  0  0
   29.8260   27.8090   49.4100 C   0  0  0  0  0  0  0  0  0  0  0  0
   28.9390   28.4550   48.5110 C   0  0  0  0  0  0  0  0  0  0  0  0
   30.0140   28.7940   47.0240 S   0  0  0  0  0  0  0  0  0  0  0  0
   31.8310   27.1120   49.6900 H   0  0  0  0  0  0  0  0  0  0  0  0
   29.4300   27.5080   50.3640 H   0  0  0  0  0  0  0  0  0  0  0  0
   27.5940   28.7610   48.6940 N   0  0  0  0  0  0  0  0  0  0  0  0
   27.3000   30.0400   48.8920 C   0  0  0  0  0  3  0  0  0  0  0  0
   25.9670   30.4140   49.0840 C   0  0  0  0  0  3  0  0  0  0  0  0
   25.0150   29.4160   49.0570 C   0  0  0  0  0  0  0  0  0  0  0  0
   23.8010   29.6830   49.2220 O   0  0  0  0  0  0  0  0  0  0  0  0
   25.3920   28.1380   48.8510 N   0  0  0  0  0  0  0  0  0  0  0  0
   26.6930   27.7670   48.6630 C   0  0  0  0  0  0  0  0  0  0  0  0
   26.9600   26.5530   48.4760 O   0  0  0  0  0  0  0  0  0  0  0  0
   24.6830   27.3670   48.8270 H   0  0  0  0  0  0  0  0  0  0  0  0
  1  4  1  6  0  0  0
  1  3  1  0  0  0  0
  1  8  1  0  0  0  0
  1  2  1  0  0  0  0
  2  6  1  0  0  0  0
  3  2  1  0  0  0  0
  3  7  1  1  0  0  0
  5  2  1  0  0  0  0
  8  9  1  0  0  0  0
 10  8  1  0  0  0  0
 11 16  1  0  0  0  0
 11 17  1  0  0  0  0
 12 11  2  0  0  0  0
 13 14  2  0  0  0  0
 13 12  1  0  0  0  0
 14 15  1  0  0  0  0
 15  8  1  0  0  0  0
 15 16  2  0  0  0  0
 18 12  1  0  0  0  0
 19 13  1  0  0  0  0
 20  3  1  0  0  0  0
 21 20  2  0  0  0  0
 22 23  1  0  0  0  0
 22 20  1  0  0  0  0
 23 24  2  0  0  0  0
 24 25  1  0  0  0  0
 24 28  1  0  0  0  0
 25 29  1  0  0  0  0
 26 30  1  0  0  0  0
 26 25  2  0  0  0  0
 27 23  1  0  0  0  0
 27 26  1  0  0  0  0
 30 31  1  0  0  0  0
 31 32  2  0  0  0  0
 33 32  1  0  0  0  0
 33 34  2  0  0  0  0
 35 33  1  0  0  0  0
 36 30  1  0  0  0  0
 36 35  1  0  0  0  0
 37 36  2  0  0  0  0
 38 35  1  0  0  0  0
M  END
>  <minimizedAffinity>
-6.95879221

>  <minimizedRMSD>
1.83236432

$$$$
