
 OpenBabel03252514013D

 28 30  0  0  1  0  0  0  0  0999 V2000
   35.4840   29.4990   49.1860 C   0  0  2  0  0  0  0  0  0  0  0  0
   34.4480   29.4740   50.2310 C   0  0  0  0  0  0  0  0  0  0  0  0
   34.7140   28.2150   49.5480 C   0  0  1  0  0  0  0  0  0  0  0  0
   35.3290   29.9100   48.1800 H   0  0  0  0  0  0  0  0  0  0  0  0
   34.8060   29.6730   51.2640 H   0  0  0  0  0  0  0  0  0  0  0  0
   33.5290   30.0830   50.0120 H   0  0  0  0  0  0  0  0  0  0  0  0
   35.3980   27.4180   49.8540 H   0  0  0  0  0  0  0  0  0  0  0  0
   36.9420   29.4300   49.6410 C   0  0  0  0  0  0  0  0  0  0  0  0
   36.9640   29.4140   50.7340 H   0  0  0  0  0  0  0  0  0  0  0  0
   37.3640   28.4640   49.3030 H   0  0  0  0  0  0  0  0  0  0  0  0
   38.4360   32.7600   49.3630 C   0  0  0  0  0  0  0  0  0  0  0  0
   38.9400   32.7750   48.0520 C   0  0  0  0  0  0  0  0  0  0  0  0
   38.7560   31.6210   47.2740 C   0  0  0  0  0  0  0  0  0  0  0  0
   38.0980   30.5540   47.8330 N   0  0  0  0  0  0  0  0  0  0  0  0
   37.6370   30.5940   49.0890 C   0  0  0  0  0  0  0  0  0  0  0  0
   37.8110   31.6980   49.8420 N   0  0  0  0  0  0  0  0  0  0  0  0
   38.5840   33.6500   49.9470 H   0  0  0  0  0  0  0  0  0  0  0  0
   39.4510   33.6530   47.6720 H   0  0  0  0  0  0  0  0  0  0  0  0
   39.1320   31.6090   46.2700 H   0  0  0  0  0  0  0  0  0  0  0  0
   33.6480   27.7640   48.5880 C   0  0  0  0  0  0  0  0  0  0  0  0
   34.0460   26.8750   47.7330 O   0  0  0  0  0  0  0  0  0  0  0  0
   32.3340   28.2010   48.5610 O   0  0  0  0  0  0  0  0  0  0  0  0
   31.4250   27.5570   47.7380 C   0  0  0  0  0  0  0  0  0  0  0  0
   30.3820   26.7030   48.0170 C   0  0  0  0  0  3  0  0  0  0  0  0
   29.8380   26.3840   46.8200 N   0  0  0  0  0  0  0  0  0  0  0  0
   30.5050   27.0060   45.8240 C   0  0  0  0  0  3  0  0  0  0  0  0
   31.4990   27.7410   46.3910 N   0  0  0  0  0  0  0  0  0  0  0  0
   32.1610   28.3210   45.8060 H   0  0  0  0  0  0  0  0  0  0  0  0
  1  4  1  6  0  0  0
  1  3  1  0  0  0  0
  1  8  1  0  0  0  0
  1  2  1  0  0  0  0
  2  5  1  0  0  0  0
  3  7  1  1  0  0  0
  3  2  1  0  0  0  0
  6  2  1  0  0  0  0
  8  9  1  0  0  0  0
 10  8  1  0  0  0  0
 11 16  1  0  0  0  0
 11 17  1  0  0  0  0
 12 11  2  0  0  0  0
 13 14  2  0  0  0  0
 13 12  1  0  0  0  0
 14 15  1  0  0  0  0
 15  8  1  0  0  0  0
 15 16  2  0  0  0  0
 18 12  1  0  0  0  0
 19 13  1  0  0  0  0
 20  3  1  0  0  0  0
 21 20  2  0  0  0  0
 22 20  1  0  0  0  0
 23 24  2  0  0  0  0
 23 22  1  0  0  0  0
 25 24  1  0  0  0  0
 26 27  1  0  0  0  0
 26 25  2  0  0  0  0
 27 23  1  0  0  0  0
 28 27  1  0  0  0  0
M  END
>  <minimizedAffinity>
-4.74804211

>  <minimizedRMSD>
0.357664853

$$$$
