
 OpenBabel03252514013D

 28 30  0  0  1  0  0  0  0  0999 V2000
   35.5010   29.5110   49.2010 C   0  0  2  0  0  0  0  0  0  0  0  0
   34.4740   29.4570   50.2530 C   0  0  0  0  0  0  0  0  0  0  0  0
   34.7420   28.2140   49.5410 C   0  0  1  0  0  0  0  0  0  0  0  0
   35.3360   29.9430   48.2060 H   0  0  0  0  0  0  0  0  0  0  0  0
   34.8400   29.6340   51.2870 H   0  0  0  0  0  0  0  0  0  0  0  0
   33.5500   30.0640   50.0560 H   0  0  0  0  0  0  0  0  0  0  0  0
   35.4330   27.4150   49.8220 H   0  0  0  0  0  0  0  0  0  0  0  0
   36.9640   29.4400   49.6430 C   0  0  0  0  0  0  0  0  0  0  0  0
   36.9950   29.4220   50.7350 H   0  0  0  0  0  0  0  0  0  0  0  0
   37.3810   28.4740   49.2990 H   0  0  0  0  0  0  0  0  0  0  0  0
   38.4490   32.7730   49.3550 C   0  0  0  0  0  0  0  0  0  0  0  0
   38.9490   32.7870   48.0420 C   0  0  0  0  0  0  0  0  0  0  0  0
   38.7650   31.6310   47.2660 C   0  0  0  0  0  0  0  0  0  0  0  0
   38.1110   30.5630   47.8290 N   0  0  0  0  0  0  0  0  0  0  0  0
   37.6530   30.6040   49.0860 C   0  0  0  0  0  0  0  0  0  0  0  0
   37.8280   31.7100   49.8360 N   0  0  0  0  0  0  0  0  0  0  0  0
   38.5960   33.6640   49.9360 H   0  0  0  0  0  0  0  0  0  0  0  0
   39.4570   33.6650   47.6590 H   0  0  0  0  0  0  0  0  0  0  0  0
   39.1380   31.6180   46.2610 H   0  0  0  0  0  0  0  0  0  0  0  0
   33.6700   27.7790   48.5790 C   0  0  0  0  0  0  0  0  0  0  0  0
   34.0390   26.8430   47.7620 O   0  0  0  0  0  0  0  0  0  0  0  0
   32.3780   28.2750   48.5150 O   0  0  0  0  0  0  0  0  0  0  0  0
   31.4190   27.5700   47.8060 C   0  0  0  0  0  0  0  0  0  0  0  0
   30.3750   26.7760   48.2220 C   0  0  0  0  0  3  0  0  0  0  0  0
   29.7690   26.3470   47.0910 N   0  0  0  0  0  0  0  0  0  0  0  0
   30.3990   26.8440   46.0060 C   0  0  0  0  0  3  0  0  0  0  0  0
   31.4320   27.6110   46.4460 N   0  0  0  0  0  0  0  0  0  0  0  0
   32.0760   28.1110   45.7730 H   0  0  0  0  0  0  0  0  0  0  0  0
  1  4  1  6  0  0  0
  1  3  1  0  0  0  0
  1  8  1  0  0  0  0
  1  2  1  0  0  0  0
  2  5  1  0  0  0  0
  3  7  1  1  0  0  0
  3  2  1  0  0  0  0
  6  2  1  0  0  0  0
  8  9  1  0  0  0  0
 10  8  1  0  0  0  0
 11 16  1  0  0  0  0
 11 17  1  0  0  0  0
 12 11  2  0  0  0  0
 13 14  2  0  0  0  0
 13 12  1  0  0  0  0
 14 15  1  0  0  0  0
 15  8  1  0  0  0  0
 15 16  2  0  0  0  0
 18 12  1  0  0  0  0
 19 13  1  0  0  0  0
 20  3  1  0  0  0  0
 21 20  2  0  0  0  0
 22 20  1  0  0  0  0
 23 24  2  0  0  0  0
 23 22  1  0  0  0  0
 25 24  1  0  0  0  0
 26 27  1  0  0  0  0
 26 25  2  0  0  0  0
 27 23  1  0  0  0  0
 28 27  1  0  0  0  0
M  END
>  <minimizedAffinity>
-4.75598764

>  <minimizedRMSD>
0.463482648

$$$$
