
 OpenBabel03252513323D

 21 22  0  0  0  0  0  0  0  0999 V2000
   36.4290   29.7950   49.6170 C   0  0  0  0  0  0  0  0  0  0  0  0
   37.3070   30.6050   48.8910 C   0  0  0  0  0  0  0  0  0  0  0  0
   36.9790   30.8790   47.5630 C   0  0  0  0  0  0  0  0  0  0  0  0
   35.8350   30.3520   47.0520 N   0  0  0  0  0  0  0  0  0  0  0  0
   35.0130   29.5730   47.7920 C   0  0  0  0  0  0  0  0  0  0  0  0
   35.3220   29.3020   49.0750 N   0  0  0  0  0  0  0  0  0  0  0  0
   38.1990   30.9860   49.3700 H   0  0  0  0  0  0  0  0  0  0  0  0
   34.1210   29.1990   47.2900 H   0  0  0  0  0  0  0  0  0  0  0  0
   37.8840   31.6970   46.8550 N   0  0  0  0  0  0  0  0  0  0  0  0
   37.7210   31.6100   45.5110 C   0  0  0  0  0  0  0  0  0  0  0  0
   38.5270   32.3480   44.6590 C   0  0  0  0  0  0  0  0  0  0  0  0
   39.4790   33.1550   45.2580 C   0  0  0  0  0  0  0  0  0  0  0  0
   40.2310   33.8410   44.5170 O   0  0  0  0  0  0  0  0  0  0  0  0
   39.6420   33.2440   46.5950 N   0  0  0  0  0  0  0  0  0  0  0  0
   38.8290   32.5020   47.3760 C   0  0  0  0  0  0  0  0  0  0  0  0
   38.9040   32.5150   48.6490 O   0  0  0  0  0  0  0  0  0  0  0  0
   40.3540   33.8460   47.0520 H   0  0  0  0  0  0  0  0  0  0  0  0
   36.7650   29.4860   51.0560 C   0  0  0  0  0  0  0  0  0  0  0  0
   35.6180   29.1360   51.7460 F   0  0  0  0  0  0  0  0  0  0  0  0
   37.7400   28.5390   51.0790 F   0  0  0  0  0  0  0  0  0  0  0  0
   37.2510   30.6640   51.6290 F   0  0  0  0  0  0  0  0  0  0  0  0
  1 18  1  0  0  0  0
  2  7  1  0  0  0  0
  2  1  2  0  0  0  0
  3  2  1  0  0  0  0
  4  3  2  0  0  0  0
  4  5  1  0  0  0  0
  5  6  2  0  0  0  0
  6  1  1  0  0  0  0
  8  5  1  0  0  0  0
  9 15  1  0  0  0  0
  9  3  1  0  0  0  0
 10  9  1  0  0  0  0
 11 12  1  0  0  0  0
 11 10  2  0  0  0  0
 12 14  1  0  0  0  0
 13 12  2  0  0  0  0
 14 17  1  0  0  0  0
 14 15  1  0  0  0  0
 15 16  2  0  0  0  0
 18 20  1  0  0  0  0
 18 21  1  0  0  0  0
 18 19  1  0  0  0  0
M  END
>  <minimizedAffinity>
-6.80102253

>  <minimizedRMSD>
2.86658812

$$$$
