
 OpenBabel03252514043D

 38 41  0  0  1  0  0  0  0  0999 V2000
   35.4330   29.2540   48.7150 C   0  0  2  0  0  0  0  0  0  0  0  0
   34.2000   29.2380   49.5010 C   0  0  0  0  0  0  0  0  0  0  0  0
   34.6760   27.9430   49.1150 C   0  0  1  0  0  0  0  0  0  0  0  0
   35.4940   29.3740   47.6330 H   0  0  0  0  0  0  0  0  0  0  0  0
   33.3010   29.7290   49.0290 H   0  0  0  0  0  0  0  0  0  0  0  0
   34.2800   29.5750   50.5750 H   0  0  0  0  0  0  0  0  0  0  0  0
   35.2810   27.2790   49.7270 H   0  0  0  0  0  0  0  0  0  0  0  0
   36.7390   29.3720   49.5200 C   0  0  0  0  0  0  0  0  0  0  0  0
   36.5150   29.3790   50.6020 H   0  0  0  0  0  0  0  0  0  0  0  0
   37.3720   28.4870   49.3060 H   0  0  0  0  0  0  0  0  0  0  0  0
   37.7870   32.8710   49.5340 C   0  0  0  0  0  0  0  0  0  0  0  0
   38.6030   32.9540   48.3820 C   0  0  0  0  0  0  0  0  0  0  0  0
   38.7720   31.7750   47.6180 C   0  0  0  0  0  0  0  0  0  0  0  0
   38.1400   30.6330   48.0400 N   0  0  0  0  0  0  0  0  0  0  0  0
   37.3750   30.6240   49.1510 C   0  0  0  0  0  0  0  0  0  0  0  0
   37.2080   31.7550   49.8900 N   0  0  0  0  0  0  0  0  0  0  0  0
   37.6060   33.7330   50.1750 H   0  0  0  0  0  0  0  0  0  0  0  0
   39.0630   33.8990   48.1250 H   0  0  0  0  0  0  0  0  0  0  0  0
   39.3870   31.8210   46.7430 H   0  0  0  0  0  0  0  0  0  0  0  0
   33.9020   27.2660   48.0030 C   0  0  0  0  0  0  0  0  0  0  0  0
   34.2870   26.0550   47.7740 O   0  0  0  0  0  0  0  0  0  0  0  0
   32.8670   27.8140   47.2660 O   0  0  0  0  0  0  0  0  0  0  0  0
   31.5960   27.9790   47.7240 C   0  0  0  0  0  0  0  0  0  0  0  0
   31.0740   27.4000   48.9710 C   0  0  0  0  0  0  0  0  0  0  0  0
   29.7920   27.6260   49.3430 C   0  0  0  0  0  0  0  0  0  0  0  0
   28.9520   28.4250   48.5240 C   0  0  0  0  0  0  0  0  0  0  0  0
   30.0690   28.8970   47.1060 S   0  0  0  0  0  0  0  0  0  0  0  0
   31.7550   26.7990   49.5540 H   0  0  0  0  0  0  0  0  0  0  0  0
   29.3650   27.2250   50.2460 H   0  0  0  0  0  0  0  0  0  0  0  0
   27.6210   28.7720   48.7300 N   0  0  0  0  0  0  0  0  0  0  0  0
   26.7140   28.0410   48.0970 C   0  0  0  0  0  3  0  0  0  0  0  0
   25.3580   28.3380   48.2620 C   0  0  0  0  0  3  0  0  0  0  0  0
   25.0330   29.3940   49.0890 C   0  0  0  0  0  0  0  0  0  0  0  0
   23.8360   29.7130   49.2800 O   0  0  0  0  0  0  0  0  0  0  0  0
   26.0130   30.0910   49.6990 N   0  0  0  0  0  0  0  0  0  0  0  0
   27.3390   29.8040   49.5410 C   0  0  0  0  0  0  0  0  0  0  0  0
   28.1910   30.5050   50.1470 O   0  0  0  0  0  0  0  0  0  0  0  0
   25.7860   30.8950   50.3300 H   0  0  0  0  0  0  0  0  0  0  0  0
  1  4  1  6  0  0  0
  1  3  1  0  0  0  0
  1  2  1  0  0  0  0
  1  8  1  0  0  0  0
  2  6  1  0  0  0  0
  3  2  1  0  0  0  0
  3  7  1  1  0  0  0
  5  2  1  0  0  0  0
  8  9  1  0  0  0  0
 10  8  1  0  0  0  0
 11 16  1  0  0  0  0
 11 17  1  0  0  0  0
 12 11  2  0  0  0  0
 13 14  2  0  0  0  0
 13 12  1  0  0  0  0
 14 15  1  0  0  0  0
 15  8  1  0  0  0  0
 15 16  2  0  0  0  0
 18 12  1  0  0  0  0
 19 13  1  0  0  0  0
 20  3  1  0  0  0  0
 21 20  2  0  0  0  0
 22 23  1  0  0  0  0
 22 20  1  0  0  0  0
 23 24  2  0  0  0  0
 24 25  1  0  0  0  0
 24 28  1  0  0  0  0
 25 29  1  0  0  0  0
 26 30  1  0  0  0  0
 26 25  2  0  0  0  0
 27 23  1  0  0  0  0
 27 26  1  0  0  0  0
 30 36  1  0  0  0  0
 31 32  2  0  0  0  0
 31 30  1  0  0  0  0
 32 33  1  0  0  0  0
 33 34  2  0  0  0  0
 33 35  1  0  0  0  0
 35 38  1  0  0  0  0
 36 35  1  0  0  0  0
 36 37  2  0  0  0  0
M  END
>  <minimizedAffinity>
-5.9280014

>  <minimizedRMSD>
1.88906801

$$$$
