
 OpenBabel03252514043D

 38 41  0  0  1  0  0  0  0  0999 V2000
   35.4430   29.2210   48.6480 C   0  0  2  0  0  0  0  0  0  0  0  0
   34.1920   29.2630   49.4040 C   0  0  0  0  0  0  0  0  0  0  0  0
   34.6460   27.9440   49.0810 C   0  0  1  0  0  0  0  0  0  0  0  0
   35.5310   29.2950   47.5640 H   0  0  0  0  0  0  0  0  0  0  0  0
   33.3150   29.7550   48.8910 H   0  0  0  0  0  0  0  0  0  0  0  0
   34.2540   29.6410   50.4660 H   0  0  0  0  0  0  0  0  0  0  0  0
   35.2210   27.2910   49.7330 H   0  0  0  0  0  0  0  0  0  0  0  0
   36.7320   29.3410   49.4790 C   0  0  0  0  0  0  0  0  0  0  0  0
   36.4860   29.3420   50.5560 H   0  0  0  0  0  0  0  0  0  0  0  0
   37.3740   28.4610   49.2740 H   0  0  0  0  0  0  0  0  0  0  0  0
   37.7800   32.8390   49.5430 C   0  0  0  0  0  0  0  0  0  0  0  0
   38.5980   32.9380   48.3930 C   0  0  0  0  0  0  0  0  0  0  0  0
   38.7680   31.7700   47.6140 C   0  0  0  0  0  0  0  0  0  0  0  0
   38.1350   30.6220   48.0190 N   0  0  0  0  0  0  0  0  0  0  0  0
   37.3690   30.5980   49.1280 C   0  0  0  0  0  0  0  0  0  0  0  0
   37.2000   31.7180   49.8830 N   0  0  0  0  0  0  0  0  0  0  0  0
   37.5990   33.6930   50.1970 H   0  0  0  0  0  0  0  0  0  0  0  0
   39.0590   33.8860   48.1510 H   0  0  0  0  0  0  0  0  0  0  0  0
   39.3840   31.8280   46.7400 H   0  0  0  0  0  0  0  0  0  0  0  0
   33.8830   27.2400   47.9780 C   0  0  0  0  0  0  0  0  0  0  0  0
   34.2840   26.0310   47.7670 O   0  0  0  0  0  0  0  0  0  0  0  0
   32.8420   27.7630   47.2310 O   0  0  0  0  0  0  0  0  0  0  0  0
   31.5790   27.9590   47.6980 C   0  0  0  0  0  0  0  0  0  0  0  0
   31.0880   27.4940   49.0050 C   0  0  0  0  0  0  0  0  0  0  0  0
   29.8110   27.7420   49.3810 C   0  0  0  0  0  0  0  0  0  0  0  0
   28.9470   28.4530   48.5080 C   0  0  0  0  0  0  0  0  0  0  0  0
   30.0300   28.7990   47.0280 S   0  0  0  0  0  0  0  0  0  0  0  0
   31.7880   26.9580   49.6270 H   0  0  0  0  0  0  0  0  0  0  0  0
   29.4070   27.4240   50.3260 H   0  0  0  0  0  0  0  0  0  0  0  0
   27.6160   28.8040   48.7090 N   0  0  0  0  0  0  0  0  0  0  0  0
   26.9640   28.1380   49.6510 C   0  0  0  0  0  3  0  0  0  0  0  0
   25.6220   28.4440   49.9030 C   0  0  0  0  0  3  0  0  0  0  0  0
   25.0430   29.4390   49.1430 C   0  0  0  0  0  0  0  0  0  0  0  0
   23.8440   29.7630   49.3180 O   0  0  0  0  0  0  0  0  0  0  0  0
   25.7720   30.0730   48.2030 N   0  0  0  0  0  0  0  0  0  0  0  0
   27.0820   29.7770   47.9540 C   0  0  0  0  0  0  0  0  0  0  0  0
   27.6920   30.4160   47.0580 O   0  0  0  0  0  0  0  0  0  0  0  0
   25.3500   30.8310   47.6170 H   0  0  0  0  0  0  0  0  0  0  0  0
  1  4  1  6  0  0  0
  1  3  1  0  0  0  0
  1  2  1  0  0  0  0
  1  8  1  0  0  0  0
  2  6  1  0  0  0  0
  3  2  1  0  0  0  0
  3  7  1  1  0  0  0
  5  2  1  0  0  0  0
  8  9  1  0  0  0  0
 10  8  1  0  0  0  0
 11 16  1  0  0  0  0
 11 17  1  0  0  0  0
 12 11  2  0  0  0  0
 13 14  2  0  0  0  0
 13 12  1  0  0  0  0
 14 15  1  0  0  0  0
 15  8  1  0  0  0  0
 15 16  2  0  0  0  0
 18 12  1  0  0  0  0
 19 13  1  0  0  0  0
 20  3  1  0  0  0  0
 21 20  2  0  0  0  0
 22 23  1  0  0  0  0
 22 20  1  0  0  0  0
 23 24  2  0  0  0  0
 24 25  1  0  0  0  0
 24 28  1  0  0  0  0
 25 29  1  0  0  0  0
 26 30  1  0  0  0  0
 26 25  2  0  0  0  0
 27 23  1  0  0  0  0
 27 26  1  0  0  0  0
 30 31  1  0  0  0  0
 31 32  2  0  0  0  0
 33 34  2  0  0  0  0
 33 32  1  0  0  0  0
 35 33  1  0  0  0  0
 36 35  1  0  0  0  0
 36 30  1  0  0  0  0
 37 36  2  0  0  0  0
 38 35  1  0  0  0  0
M  END
>  <minimizedAffinity>
-6.32585716

>  <minimizedRMSD>
1.89210296

$$$$
