
 OpenBabel03252513503D

 24 25  0  0  0  0  0  0  0  0999 V2000
   33.7390   28.4180   47.8080 C   0  0  0  0  0  0  0  0  0  0  0  0
   34.7400   29.1750   48.5280 C   0  0  0  0  0  0  0  0  0  0  0  0
   35.5120   30.0620   47.7970 C   0  0  0  0  0  0  0  0  0  0  0  0
   35.2810   30.1660   46.4650 N   0  0  0  0  0  0  0  0  0  0  0  0
   34.3450   29.4510   45.8220 C   0  0  0  0  0  0  0  0  0  0  0  0
   33.5910   28.5920   46.5000 N   0  0  0  0  0  0  0  0  0  0  0  0
   34.8990   29.0690   49.5930 H   0  0  0  0  0  0  0  0  0  0  0  0
   34.2320   29.6920   44.3700 C   0  0  0  0  0  0  0  0  0  0  0  0
   34.8800   30.8960   44.0300 F   0  0  0  0  0  0  0  0  0  0  0  0
   34.9160   28.7020   43.6870 F   0  0  0  0  0  0  0  0  0  0  0  0
   32.9240   29.6880   43.9200 F   0  0  0  0  0  0  0  0  0  0  0  0
   36.5400   30.8570   48.4570 C   0  0  0  0  0  0  0  0  0  0  0  0
   36.2550   31.5370   49.4610 O   0  0  0  0  0  0  0  0  0  0  0  0
   37.9530   30.9690   48.0670 C   0  0  0  0  0  0  0  0  0  0  0  0
   38.0160   30.6030   46.5800 C   0  0  0  0  0  0  0  0  0  0  0  0
   37.8700   31.8620   45.7280 C   0  0  0  0  0  0  0  0  0  0  0  0
   39.1120   32.7440   45.8850 C   0  0  0  0  0  0  0  0  0  0  0  0
   39.6320   32.5500   47.2910 C   0  0  0  0  0  0  0  0  0  0  0  0
   38.4340   32.4190   48.2090 C   0  0  0  0  0  0  0  0  0  0  0  0
   32.9680   27.5320   48.5390 O   0  0  0  0  0  0  0  0  0  0  0  0
   31.5990   27.6510   48.7460 C   0  0  0  0  0  0  0  0  0  0  0  0
   31.2790   28.2250   49.9700 F   0  0  0  0  0  0  0  0  0  0  0  0
   30.9250   28.2750   47.7340 F   0  0  0  0  0  0  0  0  0  0  0  0
   31.1170   26.3310   48.7890 F   0  0  0  0  0  0  0  0  0  0  0  0
  1  2  1  0  0  0  0
  1 20  1  0  0  0  0
  2  7  1  0  0  0  0
  3 12  1  0  0  0  0
  3  2  2  0  0  0  0
  4  3  1  0  0  0  0
  5  4  2  0  0  0  0
  5  6  1  0  0  0  0
  6  1  2  0  0  0  0
  8  5  1  0  0  0  0
  9  8  1  0  0  0  0
 10  8  1  0  0  0  0
 11  8  1  0  0  0  0
 12 13  2  0  0  0  0
 14 19  1  0  0  0  0
 14 12  1  0  0  0  0
 15 14  1  0  0  0  0
 16 17  1  0  0  0  0
 16 15  1  0  0  0  0
 17 18  1  0  0  0  0
 18 19  1  0  0  0  0
 20 21  1  0  0  0  0
 21 24  1  0  0  0  0
 21 22  1  0  0  0  0
 23 21  1  0  0  0  0
M  END
>  <minimizedAffinity>
-4.99728727

>  <minimizedRMSD>
4.85254097

$$$$
