
 OpenBabel03252512043D

 38 40  0  0  0  0  0  0  0  0999 V2000
   37.5480   30.6350   50.2380 C   0  0  0  0  0  0  0  0  0  0  0  0
   37.5130   30.8130   51.3610 H   0  0  0  0  0  0  0  0  0  0  0  0
   38.4870   30.0400   50.1290 H   0  0  0  0  0  0  0  0  0  0  0  0
   36.2050   28.6690   49.6800 C   0  0  0  0  0  0  0  0  0  0  0  0
   36.3210   30.0400   49.8620 C   0  0  0  0  0  0  0  0  0  0  0  0
   35.1920   30.7790   49.6760 C   0  0  0  0  0  0  0  0  0  0  0  0
   34.0010   30.1940   49.3280 N   0  0  0  0  0  0  0  0  0  0  0  0
   33.9270   28.8600   49.1600 C   0  0  0  0  0  0  0  0  0  0  0  0
   35.0100   28.1280   49.3360 N   0  0  0  0  0  0  0  0  0  0  0  0
   37.0820   28.0480   49.8190 H   0  0  0  0  0  0  0  0  0  0  0  0
   35.0580   31.8440   49.7580 H   0  0  0  0  0  0  0  0  0  0  0  0
   32.7370   28.1670   48.8010 N   0  0  0  0  0  0  0  0  0  0  0  0
   31.6010   28.3120   49.5390 C   0  0  0  0  0  0  0  0  0  0  0  0
   30.4550   27.6330   49.1770 C   0  0  0  0  0  0  0  0  0  0  0  0
   30.4680   26.8030   48.0590 C   0  0  0  0  0  0  0  0  0  0  0  0
   29.4350   26.1780   47.7170 O   0  0  0  0  0  0  0  0  0  0  0  0
   31.6030   26.6610   47.3280 N   0  0  0  0  0  0  0  0  0  0  0  0
   32.6890   27.3390   47.7170 C   0  0  0  0  0  0  0  0  0  0  0  0
   33.7740   27.2510   47.0810 O   0  0  0  0  0  0  0  0  0  0  0  0
   31.6330   26.0400   46.4840 H   0  0  0  0  0  0  0  0  0  0  0  0
   37.7420   32.0000   49.6550 C   0  0  0  0  0  0  0  0  0  0  0  0
   36.9010   32.6780   49.6920 H   0  0  0  0  0  0  0  0  0  0  0  0
   38.5910   32.5410   50.1880 H   0  0  0  0  0  0  0  0  0  0  0  0
   38.3060   31.7740   48.2810 C   0  0  0  0  0  0  0  0  0  0  0  0
   38.1050   30.6050   47.6060 C   0  0  0  0  0  0  0  0  0  0  0  0
   38.6490   30.4240   46.3510 C   0  0  0  0  0  0  0  0  0  0  0  0
   39.3820   31.4310   45.8180 N   0  0  0  0  0  0  0  0  0  0  0  0
   39.5770   32.5720   46.4760 C   0  0  0  0  0  0  0  0  0  0  0  0
   39.0530   32.7640   47.6980 N   0  0  0  0  0  0  0  0  0  0  0  0
   37.5360   29.8000   47.9940 H   0  0  0  0  0  0  0  0  0  0  0  0
   38.4950   29.5020   45.8130 H   0  0  0  0  0  0  0  0  0  0  0  0
   40.3830   33.6740   45.8810 C   0  0  0  0  0  0  0  0  0  0  0  0
   40.1220   34.6510   46.3400 H   0  0  0  0  0  0  0  0  0  0  0  0
   41.4730   33.5410   46.0440 H   0  0  0  0  0  0  0  0  0  0  0  0
   40.0870   33.7830   44.3750 C   0  0  0  0  0  0  0  0  0  0  0  0
   40.9550   34.2110   43.8690 H   0  0  0  0  0  0  0  0  0  0  0  0
   39.1440   34.3110   44.1940 H   0  0  0  0  0  0  0  0  0  0  0  0
   39.9720   32.7360   44.0190 H   0  0  0  0  0  0  0  0  0  0  0  0
  1  2  1  0  0  0  0
  3  1  1  0  0  0  0
  4 10  1  0  0  0  0
  4  5  1  0  0  0  0
  5  1  1  0  0  0  0
  6 11  1  0  0  0  0
  6  5  2  0  0  0  0
  7  6  1  0  0  0  0
  8  7  2  0  0  0  0
  8  9  1  0  0  0  0
  9  4  2  0  0  0  0
 12  8  1  0  0  0  0
 12 13  1  0  0  0  0
 14 13  2  0  0  0  0
 15 14  1  0  0  0  0
 16 15  2  0  0  0  0
 17 18  1  0  0  0  0
 17 15  1  0  0  0  0
 18 12  1  0  0  0  0
 19 18  2  0  0  0  0
 20 17  1  0  0  0  0
 21 22  1  0  0  0  0
 21 23  1  0  0  0  0
 21  1  1  0  0  0  0
 24 21  1  0  0  0  0
 25 30  1  0  0  0  0
 25 24  2  0  0  0  0
 26 25  1  0  0  0  0
 27 26  2  0  0  0  0
 27 28  1  0  0  0  0
 28 29  2  0  0  0  0
 29 24  1  0  0  0  0
 31 26  1  0  0  0  0
 32 34  1  0  0  0  0
 32 33  1  0  0  0  0
 32 28  1  0  0  0  0
 35 32  1  0  0  0  0
 36 35  1  0  0  0  0
 37 35  1  0  0  0  0
 38 35  1  0  0  0  0
M  END
>  <minimizedAffinity>
-5.51913691

>  <minimizedRMSD>
2.01939416

$$$$
