
 OpenBabel03252514033D

 38 41  0  0  1  0  0  0  0  0999 V2000
   35.4460   29.2710   48.7110 C   0  0  2  0  0  0  0  0  0  0  0  0
   34.2120   29.2600   49.4950 C   0  0  0  0  0  0  0  0  0  0  0  0
   34.6860   27.9630   49.1170 C   0  0  1  0  0  0  0  0  0  0  0  0
   35.5080   29.3840   47.6280 H   0  0  0  0  0  0  0  0  0  0  0  0
   33.3130   29.7500   49.0190 H   0  0  0  0  0  0  0  0  0  0  0  0
   34.2900   29.6030   50.5670 H   0  0  0  0  0  0  0  0  0  0  0  0
   35.2900   27.3010   49.7330 H   0  0  0  0  0  0  0  0  0  0  0  0
   36.7510   29.3910   49.5170 C   0  0  0  0  0  0  0  0  0  0  0  0
   36.5210   29.4450   50.5960 H   0  0  0  0  0  0  0  0  0  0  0  0
   37.3650   28.4850   49.3410 H   0  0  0  0  0  0  0  0  0  0  0  0
   37.9240   32.8490   49.4330 C   0  0  0  0  0  0  0  0  0  0  0  0
   38.6930   32.8860   48.2470 C   0  0  0  0  0  0  0  0  0  0  0  0
   38.7870   31.6920   47.4950 C   0  0  0  0  0  0  0  0  0  0  0  0
   38.1320   30.5790   47.9610 N   0  0  0  0  0  0  0  0  0  0  0  0
   37.4150   30.6140   49.1030 C   0  0  0  0  0  0  0  0  0  0  0  0
   37.3200   31.7600   49.8300 N   0  0  0  0  0  0  0  0  0  0  0  0
   37.8020   33.7260   50.0690 H   0  0  0  0  0  0  0  0  0  0  0  0
   39.1760   33.8090   47.9570 H   0  0  0  0  0  0  0  0  0  0  0  0
   39.3650   31.7020   46.5940 H   0  0  0  0  0  0  0  0  0  0  0  0
   33.9130   27.2800   48.0080 C   0  0  0  0  0  0  0  0  0  0  0  0
   34.3000   26.0690   47.7820 O   0  0  0  0  0  0  0  0  0  0  0  0
   32.8770   27.8230   47.2690 O   0  0  0  0  0  0  0  0  0  0  0  0
   31.6060   27.9870   47.7260 C   0  0  0  0  0  0  0  0  0  0  0  0
   31.0840   27.4080   48.9730 C   0  0  0  0  0  0  0  0  0  0  0  0
   29.8010   27.6320   49.3450 C   0  0  0  0  0  0  0  0  0  0  0  0
   28.9610   28.4280   48.5240 C   0  0  0  0  0  0  0  0  0  0  0  0
   30.0770   28.9000   47.1050 S   0  0  0  0  0  0  0  0  0  0  0  0
   31.7670   26.8100   49.5580 H   0  0  0  0  0  0  0  0  0  0  0  0
   29.3750   27.2320   50.2480 H   0  0  0  0  0  0  0  0  0  0  0  0
   27.6290   28.7730   48.7290 N   0  0  0  0  0  0  0  0  0  0  0  0
   26.7230   28.0400   48.0930 C   0  0  0  0  0  3  0  0  0  0  0  0
   25.3670   28.3340   48.2580 C   0  0  0  0  0  3  0  0  0  0  0  0
   25.0390   29.3880   49.0860 C   0  0  0  0  0  0  0  0  0  0  0  0
   23.8400   29.7040   49.2760 O   0  0  0  0  0  0  0  0  0  0  0  0
   26.0160   30.0870   49.6980 N   0  0  0  0  0  0  0  0  0  0  0  0
   27.3430   29.8030   49.5410 C   0  0  0  0  0  0  0  0  0  0  0  0
   28.1930   30.5040   50.1490 O   0  0  0  0  0  0  0  0  0  0  0  0
   25.7870   30.8890   50.3300 H   0  0  0  0  0  0  0  0  0  0  0  0
  1  4  1  6  0  0  0
  1  3  1  0  0  0  0
  1  2  1  0  0  0  0
  1  8  1  0  0  0  0
  2  6  1  0  0  0  0
  3  2  1  0  0  0  0
  3  7  1  1  0  0  0
  5  2  1  0  0  0  0
  8  9  1  0  0  0  0
 10  8  1  0  0  0  0
 11 16  1  0  0  0  0
 11 17  1  0  0  0  0
 12 11  2  0  0  0  0
 13 14  2  0  0  0  0
 13 12  1  0  0  0  0
 14 15  1  0  0  0  0
 15  8  1  0  0  0  0
 15 16  2  0  0  0  0
 18 12  1  0  0  0  0
 19 13  1  0  0  0  0
 20  3  1  0  0  0  0
 21 20  2  0  0  0  0
 22 23  1  0  0  0  0
 22 20  1  0  0  0  0
 23 24  2  0  0  0  0
 24 25  1  0  0  0  0
 24 28  1  0  0  0  0
 25 29  1  0  0  0  0
 26 30  1  0  0  0  0
 26 25  2  0  0  0  0
 27 23  1  0  0  0  0
 27 26  1  0  0  0  0
 30 36  1  0  0  0  0
 31 32  2  0  0  0  0
 31 30  1  0  0  0  0
 32 33  1  0  0  0  0
 33 34  2  0  0  0  0
 33 35  1  0  0  0  0
 35 38  1  0  0  0  0
 36 35  1  0  0  0  0
 36 37  2  0  0  0  0
M  END
>  <minimizedAffinity>
-5.93813705

>  <minimizedRMSD>
1.95082545

$$$$
