
 OpenBabel03252511293D

 21 22  0  0  0  0  0  0  0  0999 V2000
   36.9090   31.2350   49.0450 C   0  0  0  0  0  0  0  0  0  0  0  0
   37.2050   32.3120   49.8860 C   0  0  0  0  0  0  0  0  0  0  0  0
   38.1940   33.2060   49.4910 C   0  0  0  0  0  0  0  0  0  0  0  0
   38.8210   32.9830   48.3040 N   0  0  0  0  0  0  0  0  0  0  0  0
   38.5090   31.9250   47.5110 C   0  0  0  0  0  0  0  0  0  0  0  0
   37.5590   31.0710   47.8960 N   0  0  0  0  0  0  0  0  0  0  0  0
   36.6780   32.4590   50.8320 H   0  0  0  0  0  0  0  0  0  0  0  0
   38.4510   34.0570   50.1200 H   0  0  0  0  0  0  0  0  0  0  0  0
   39.1620   31.6860   46.2690 N   0  0  0  0  0  0  0  0  0  0  0  0
   38.8250   30.4750   45.7420 C   0  0  0  0  0  0  0  0  0  0  0  0
   39.3410   30.0330   44.5400 C   0  0  0  0  0  0  0  0  0  0  0  0
   40.2270   30.8770   43.8770 C   0  0  0  0  0  0  0  0  0  0  0  0
   40.7260   30.5190   42.7720 O   0  0  0  0  0  0  0  0  0  0  0  0
   40.5320   32.0600   44.4300 N   0  0  0  0  0  0  0  0  0  0  0  0
   40.0160   32.4710   45.6040 C   0  0  0  0  0  0  0  0  0  0  0  0
   40.2620   33.5650   46.1720 O   0  0  0  0  0  0  0  0  0  0  0  0
   41.1860   32.7040   43.9580 H   0  0  0  0  0  0  0  0  0  0  0  0
   35.8350   30.2540   49.4610 C   0  0  0  0  0  0  0  0  0  0  0  0
   34.5990   30.8570   49.3810 F   0  0  0  0  0  0  0  0  0  0  0  0
   35.9840   29.1290   48.7150 F   0  0  0  0  0  0  0  0  0  0  0  0
   36.0720   29.9600   50.8120 F   0  0  0  0  0  0  0  0  0  0  0  0
  1 18  1  0  0  0  0
  1  2  1  0  0  0  0
  2  7  1  0  0  0  0
  3  2  2  0  0  0  0
  3  8  1  0  0  0  0
  4  3  1  0  0  0  0
  5  6  1  0  0  0  0
  5  4  2  0  0  0  0
  6  1  2  0  0  0  0
  9  5  1  0  0  0  0
 10  9  1  0  0  0  0
 11 10  2  0  0  0  0
 12 14  1  0  0  0  0
 12 11  1  0  0  0  0
 13 12  2  0  0  0  0
 14 15  1  0  0  0  0
 15 16  2  0  0  0  0
 15  9  1  0  0  0  0
 17 14  1  0  0  0  0
 18 21  1  0  0  0  0
 19 18  1  0  0  0  0
 20 18  1  0  0  0  0
M  END
>  <minimizedAffinity>
-6.45387793

>  <minimizedRMSD>
3.6665833

$$$$
