
 OpenBabel03252513043D

 35 38  0  0  0  0  0  0  0  0999 V2000
   38.6920   32.4150   46.6160 N   0  0  0  0  0  0  0  0  0  0  0  0
   39.8290   32.9960   46.2430 C   0  0  0  0  0  0  0  0  0  0  0  0
   40.4010   32.9040   45.0040 C   0  0  0  0  0  0  0  0  0  0  0  0
   39.7890   32.1640   44.0400 C   0  0  0  0  0  0  0  0  0  0  0  0
   40.2420   32.0270   42.8790 O   0  0  0  0  0  0  0  0  0  0  0  0
   38.6610   31.5710   44.3640 N   0  0  0  0  0  0  0  0  0  0  0  0
   38.1270   31.6850   45.5970 C   0  0  0  0  0  0  0  0  0  0  0  0
   37.0370   31.0750   45.8110 O   0  0  0  0  0  0  0  0  0  0  0  0
   40.3250   33.5930   47.0200 H   0  0  0  0  0  0  0  0  0  0  0  0
   41.3300   33.4190   44.8070 H   0  0  0  0  0  0  0  0  0  0  0  0
   37.7500   26.7010   41.5180 H   0  0  0  0  0  0  0  0  0  0  0  0
   38.0860   27.4710   42.1570 N   0  0  0  0  0  0  0  0  0  0  0  0
   39.0540   27.4180   43.0910 C   0  0  0  0  0  0  0  0  0  0  0  0
   39.1710   28.6310   43.6910 N   0  0  0  0  0  0  0  0  0  0  0  0
   38.2760   29.4620   43.1400 C   0  0  0  0  0  0  0  0  0  0  0  0
   37.9830   30.7840   43.3790 C   0  0  0  0  0  0  0  0  0  0  0  0
   36.9960   31.3580   42.6360 N   0  0  0  0  0  0  0  0  0  0  0  0
   36.3180   30.6630   41.6890 C   0  0  0  0  0  0  0  0  0  0  0  0
   36.6400   29.3650   41.4870 N   0  0  0  0  0  0  0  0  0  0  0  0
   37.6050   28.7290   42.1850 C   0  0  0  0  0  0  0  0  0  0  0  0
   38.0310   32.4500   47.8540 C   0  0  0  0  0  0  0  0  0  0  0  0
   37.8810   33.5350   48.1320 H   0  0  0  0  0  0  0  0  0  0  0  0
   36.9760   32.0800   47.7130 H   0  0  0  0  0  0  0  0  0  0  0  0
   38.5980   31.7400   49.0100 C   0  0  0  0  0  0  0  0  0  0  0  0
   39.1240   32.4170   49.7120 H   0  0  0  0  0  0  0  0  0  0  0  0
   39.3830   31.0240   48.6290 H   0  0  0  0  0  0  0  0  0  0  0  0
   35.5370   29.7510   50.0210 C   0  0  0  0  0  0  0  0  0  0  0  0
   36.4250   30.5460   49.2470 C   0  0  0  0  0  0  0  0  0  0  0  0
   37.6380   30.9190   49.7610 C   0  0  0  0  0  0  0  0  0  0  0  0
   37.9440   30.5020   51.0210 N   0  0  0  0  0  0  0  0  0  0  0  0
   37.1190   29.7610   51.7450 C   0  0  0  0  0  0  0  0  0  0  0  0
   35.9190   29.3800   51.2620 N   0  0  0  0  0  0  0  0  0  0  0  0
   34.5970   29.4860   49.5700 H   0  0  0  0  0  0  0  0  0  0  0  0
   36.1690   30.8670   48.2550 H   0  0  0  0  0  0  0  0  0  0  0  0
   37.3880   29.4400   52.7530 H   0  0  0  0  0  0  0  0  0  0  0  0
  1 21  1  0  0  0  0
  2  1  1  0  0  0  0
  2  9  1  0  0  0  0
  3  2  2  0  0  0  0
  4  6  1  0  0  0  0
  4  3  1  0  0  0  0
  5  4  2  0  0  0  0
  6  7  1  0  0  0  0
  7  8  2  0  0  0  0
  7  1  1  0  0  0  0
 10  3  1  0  0  0  0
 11 12  1  0  0  0  0
 12 20  1  0  0  0  0
 12 13  1  0  0  0  0
 13 14  2  0  0  0  0
 15 16  1  0  0  0  0
 15 14  1  0  0  0  0
 16  6  1  0  0  0  0
 17 16  2  0  0  0  0
 18 17  1  0  0  0  0
 19 18  2  0  0  0  0
 19 20  1  0  0  0  0
 20 15  2  0  0  0  0
 21 22  1  0  0  0  0
 21 24  1  0  0  0  0
 23 21  1  0  0  0  0
 24 25  1  0  0  0  0
 24 29  1  0  0  0  0
 26 24  1  0  0  0  0
 27 32  1  0  0  0  0
 28 29  1  0  0  0  0
 28 27  2  0  0  0  0
 29 30  2  0  0  0  0
 30 31  1  0  0  0  0
 31 35  1  0  0  0  0
 32 31  2  0  0  0  0
 33 27  1  0  0  0  0
 34 28  1  0  0  0  0
M  END
>  <minimizedAffinity>
-5.8414712

>  <minimizedRMSD>
3.30425286

$$$$
