
 OpenBabel03252513563D

 29 31  0  0  1  0  0  0  0  0999 V2000
   35.9870   30.1490   49.8910 C   0  0  2  0  0  0  0  0  0  0  0  0
   35.0900   29.1890   50.5660 C   0  0  0  0  0  0  0  0  0  0  0  0
   35.5400   28.8860   49.1870 C   0  0  1  0  0  0  0  0  0  0  0  0
   35.5030   31.1090   49.5740 H   0  0  0  0  0  0  0  0  0  0  0  0
   34.0440   29.4150   50.8240 H   0  0  0  0  0  0  0  0  0  0  0  0
   35.5890   28.6110   51.3950 H   0  0  0  0  0  0  0  0  0  0  0  0
   36.2770   28.0770   48.9940 H   0  0  0  0  0  0  0  0  0  0  0  0
   34.5220   29.0950   48.1500 N   0  0  0  0  0  0  0  0  0  0  0  0
   34.2940   30.2770   47.5480 C   0  0  0  0  0  0  0  0  0  0  0  0
   33.2880   30.2880   46.5850 C   0  0  0  0  0  0  0  0  0  0  0  0
   32.5790   29.1320   46.2860 C   0  0  0  0  0  0  0  0  0  0  0  0
   31.5640   29.1650   45.3070 N   0  0  0  0  0  0  0  0  0  0  0  0
   32.8340   27.9640   46.9090 N   0  0  0  0  0  0  0  0  0  0  0  0
   33.8190   27.9640   47.8480 C   0  0  0  0  0  0  0  0  0  0  0  0
   34.0270   26.8640   48.4040 O   0  0  0  0  0  0  0  0  0  0  0  0
   30.9310   29.9250   44.9980 H   0  0  0  0  0  0  0  0  0  0  0  0
   31.3390   28.3190   44.7440 H   0  0  0  0  0  0  0  0  0  0  0  0
   37.4600   30.2060   50.2280 C   0  0  0  0  0  0  0  0  0  0  0  0
   37.9480   29.2260   50.0330 H   0  0  0  0  0  0  0  0  0  0  0  0
   37.6240   30.5630   51.2720 H   0  0  0  0  0  0  0  0  0  0  0  0
   38.9370   33.2900   48.8510 C   0  0  0  0  0  0  0  0  0  0  0  0
   39.1990   32.9360   47.5280 C   0  0  0  0  0  0  0  0  0  0  0  0
   38.8760   31.6500   47.0960 C   0  0  0  0  0  0  0  0  0  0  0  0
   38.3090   30.7980   48.0210 N   0  0  0  0  0  0  0  0  0  0  0  0
   38.0720   31.1880   49.3050 C   0  0  0  0  0  0  0  0  0  0  0  0
   38.3930   32.4440   49.7100 N   0  0  0  0  0  0  0  0  0  0  0  0
   39.2070   34.3040   49.1430 H   0  0  0  0  0  0  0  0  0  0  0  0
   39.6400   33.5720   46.7740 H   0  0  0  0  0  0  0  0  0  0  0  0
   39.0380   31.2790   46.0930 H   0  0  0  0  0  0  0  0  0  0  0  0
  1  4  1  6  0  0  0
  1 18  1  0  0  0  0
  1  2  1  0  0  0  0
  2  5  1  0  0  0  0
  2  6  1  0  0  0  0
  3  7  1  6  0  0  0
  3  1  1  0  0  0  0
  3  2  1  0  0  0  0
  8  3  1  0  0  0  0
  9  8  1  0  0  0  0
 10  9  2  0  0  0  0
 11 10  1  0  0  0  0
 11 13  2  0  0  0  0
 12 11  1  0  0  0  0
 13 14  1  0  0  0  0
 14  8  1  0  0  0  0
 14 15  2  0  0  0  0
 16 12  1  0  0  0  0
 17 12  1  0  0  0  0
 18 20  1  0  0  0  0
 19 18  1  0  0  0  0
 21 27  1  0  0  0  0
 21 26  1  0  0  0  0
 22 21  2  0  0  0  0
 23 22  1  0  0  0  0
 23 24  2  0  0  0  0
 24 25  1  0  0  0  0
 25 26  2  0  0  0  0
 25 18  1  0  0  0  0
 28 22  1  0  0  0  0
 29 23  1  0  0  0  0
M  END
>  <minimizedAffinity>
-5.14162111

>  <minimizedRMSD>
1.44274592

$$$$
