
 OpenBabel03252510153D

 19 20  0  0  0  0  0  0  0  0999 V2000
   36.8780   31.3010   48.6440 N   0  0  0  0  0  0  0  0  0  0  0  0
   36.8830   32.0930   49.7110 C   0  0  0  0  0  0  0  0  0  0  0  0
   37.8120   33.1240   49.7360 C   0  0  0  0  0  0  0  0  0  0  0  0
   38.6570   33.2480   48.6510 C   0  0  0  0  0  0  0  0  0  0  0  0
   39.6670   34.2440   48.5080 N   0  0  0  0  0  0  0  0  0  0  0  0
   38.6130   32.4080   47.5760 N   0  0  0  0  0  0  0  0  0  0  0  0
   37.7090   31.4110   47.5650 C   0  0  0  0  0  0  0  0  0  0  0  0
   37.6020   30.5990   46.6200 O   0  0  0  0  0  0  0  0  0  0  0  0
   39.8920   35.2570   48.6290 H   0  0  0  0  0  0  0  0  0  0  0  0
   40.6250   34.0310   48.1470 H   0  0  0  0  0  0  0  0  0  0  0  0
   34.7500   30.3140   47.8450 C   0  0  0  0  0  0  0  0  0  0  0  0
   35.9170   30.2520   48.6430 C   0  0  0  0  0  0  0  0  0  0  0  0
   36.0850   29.1050   49.4380 C   0  0  0  0  0  0  0  0  0  0  0  0
   35.1220   28.1230   49.3980 N   0  0  0  0  0  0  0  0  0  0  0  0
   34.0320   28.2430   48.6160 C   0  0  0  0  0  0  0  0  0  0  0  0
   33.8380   29.3210   47.8440 N   0  0  0  0  0  0  0  0  0  0  0  0
   34.6500   31.2040   47.2480 H   0  0  0  0  0  0  0  0  0  0  0  0
   36.9720   29.0410   50.0550 H   0  0  0  0  0  0  0  0  0  0  0  0
   33.2700   27.4730   48.5800 H   0  0  0  0  0  0  0  0  0  0  0  0
  1  2  1  0  0  0  0
  2  3  2  0  0  0  0
  4  3  1  0  0  0  0
  5  9  1  0  0  0  0
  5  4  1  0  0  0  0
  6  4  2  0  0  0  0
  7  6  1  0  0  0  0
  7  1  1  0  0  0  0
  8  7  2  0  0  0  0
 10  5  1  0  0  0  0
 11 12  1  0  0  0  0
 12  1  1  0  0  0  0
 12 13  2  0  0  0  0
 13 18  1  0  0  0  0
 14 13  1  0  0  0  0
 15 14  2  0  0  0  0
 16 11  2  0  0  0  0
 16 15  1  0  0  0  0
 17 11  1  0  0  0  0
 19 15  1  0  0  0  0
M  END
>  <minimizedAffinity>
-4.8726716

>  <minimizedRMSD>
3.46374559

$$$$
