
 OpenBabel03252514013D

 28 30  0  0  1  0  0  0  0  0999 V2000
   35.4970   29.4870   49.1920 C   0  0  2  0  0  0  0  0  0  0  0  0
   34.4690   29.4810   50.2420 C   0  0  0  0  0  0  0  0  0  0  0  0
   34.7260   28.2110   49.5690 C   0  0  1  0  0  0  0  0  0  0  0  0
   35.2920   29.9840   48.2420 H   0  0  0  0  0  0  0  0  0  0  0  0
   34.7580   29.5220   51.3320 H   0  0  0  0  0  0  0  0  0  0  0  0
   33.5150   30.0240   50.0860 H   0  0  0  0  0  0  0  0  0  0  0  0
   35.3910   27.3810   49.7990 H   0  0  0  0  0  0  0  0  0  0  0  0
   36.9590   29.4050   49.6230 C   0  0  0  0  0  0  0  0  0  0  0  0
   37.4120   28.4390   49.3400 H   0  0  0  0  0  0  0  0  0  0  0  0
   36.9610   29.4370   50.7300 H   0  0  0  0  0  0  0  0  0  0  0  0
   38.4380   32.7480   49.3660 C   0  0  0  0  0  0  0  0  0  0  0  0
   38.9310   32.7730   48.0530 C   0  0  0  0  0  0  0  0  0  0  0  0
   38.7480   31.6260   47.2620 C   0  0  0  0  0  0  0  0  0  0  0  0
   38.0940   30.5460   47.8260 N   0  0  0  0  0  0  0  0  0  0  0  0
   37.6430   30.5880   49.0990 C   0  0  0  0  0  0  0  0  0  0  0  0
   37.8220   31.6950   49.8590 N   0  0  0  0  0  0  0  0  0  0  0  0
   38.6340   33.6790   49.8800 H   0  0  0  0  0  0  0  0  0  0  0  0
   39.4480   33.5660   47.5370 H   0  0  0  0  0  0  0  0  0  0  0  0
   39.0610   31.4760   46.2420 H   0  0  0  0  0  0  0  0  0  0  0  0
   33.6330   27.7780   48.6280 C   0  0  0  0  0  0  0  0  0  0  0  0
   33.9840   26.8810   47.7650 O   0  0  0  0  0  0  0  0  0  0  0  0
   32.3220   28.2260   48.6000 O   0  0  0  0  0  0  0  0  0  0  0  0
   31.4290   27.6510   47.7070 C   0  0  0  0  0  0  0  0  0  0  0  0
   30.5860   26.7120   48.2040 N   0  0  0  0  0  0  0  0  0  0  0  0
   29.8040   26.2540   47.2670 O   0  0  0  0  0  0  0  0  0  0  0  0
   30.1270   26.8820   46.1640 C   0  0  0  0  0  0  0  0  0  0  0  0
   29.5870   26.6390   45.2660 H   0  0  0  0  0  0  0  0  0  0  0  0
   31.1290   27.7480   46.4170 N   0  0  0  0  0  0  0  0  0  0  0  0
  1  4  1  6  0  0  0
  1  3  1  0  0  0  0
  1  8  1  0  0  0  0
  1  2  1  0  0  0  0
  2  5  1  0  0  0  0
  3  7  1  1  0  0  0
  3  2  1  0  0  0  0
  6  2  1  0  0  0  0
  8 10  1  0  0  0  0
  9  8  1  0  0  0  0
 11 16  1  0  0  0  0
 11 17  1  0  0  0  0
 12 11  2  0  0  0  0
 13 14  2  0  0  0  0
 13 12  1  0  0  0  0
 14 15  1  0  0  0  0
 15  8  1  0  0  0  0
 15 16  2  0  0  0  0
 18 12  1  0  0  0  0
 19 13  1  0  0  0  0
 20  3  1  0  0  0  0
 21 20  2  0  0  0  0
 22 20  1  0  0  0  0
 23 24  2  0  0  0  0
 23 22  1  0  0  0  0
 25 24  1  0  0  0  0
 26 28  2  0  0  0  0
 26 25  1  0  0  0  0
 27 26  1  0  0  0  0
 28 23  1  0  0  0  0
M  END
>  <minimizedAffinity>
-4.75477552

>  <minimizedRMSD>
0.298519373

$$$$
