
 OpenBabel03252514013D

 28 30  0  0  1  0  0  0  0  0999 V2000
   35.7250   29.6530   49.4980 C   0  0  2  0  0  0  0  0  0  0  0  0
   34.8210   29.4000   50.6290 C   0  0  0  0  0  0  0  0  0  0  0  0
   35.0620   28.2840   49.7190 C   0  0  1  0  0  0  0  0  0  0  0  0
   35.3920   30.2920   48.6770 H   0  0  0  0  0  0  0  0  0  0  0  0
   35.2280   29.2740   51.6740 H   0  0  0  0  0  0  0  0  0  0  0  0
   33.8310   29.8980   50.6700 H   0  0  0  0  0  0  0  0  0  0  0  0
   35.7870   27.4730   49.7300 H   0  0  0  0  0  0  0  0  0  0  0  0
   37.2280   29.5960   49.7570 C   0  0  0  0  0  0  0  0  0  0  0  0
   37.6480   28.6100   49.4920 H   0  0  0  0  0  0  0  0  0  0  0  0
   37.3620   29.7080   50.8500 H   0  0  0  0  0  0  0  0  0  0  0  0
   38.6260   32.9150   49.0770 C   0  0  0  0  0  0  0  0  0  0  0  0
   38.9880   32.8320   47.7250 C   0  0  0  0  0  0  0  0  0  0  0  0
   38.7450   31.6210   47.0540 C   0  0  0  0  0  0  0  0  0  0  0  0
   38.1650   30.5880   47.7680 N   0  0  0  0  0  0  0  0  0  0  0  0
   37.8410   30.7350   49.0710 C   0  0  0  0  0  0  0  0  0  0  0  0
   38.0770   31.9030   49.7150 N   0  0  0  0  0  0  0  0  0  0  0  0
   38.8580   33.8870   49.4900 H   0  0  0  0  0  0  0  0  0  0  0  0
   39.4410   33.5810   47.0960 H   0  0  0  0  0  0  0  0  0  0  0  0
   38.9590   31.3860   46.0240 H   0  0  0  0  0  0  0  0  0  0  0  0
   33.8920   27.9470   48.8330 C   0  0  0  0  0  0  0  0  0  0  0  0
   34.1990   27.3150   47.7470 O   0  0  0  0  0  0  0  0  0  0  0  0
   32.5550   28.2330   49.0600 O   0  0  0  0  0  0  0  0  0  0  0  0
   31.5870   27.5780   48.3120 C   0  0  0  0  0  0  0  0  0  0  0  0
   31.0130   28.2830   47.3060 N   0  0  0  0  0  0  0  0  0  0  0  0
   30.1250   27.5570   46.6840 O   0  0  0  0  0  0  0  0  0  0  0  0
   30.1140   26.3880   47.2730 C   0  0  0  0  0  0  0  0  0  0  0  0
   29.4370   25.6390   46.9010 H   0  0  0  0  0  0  0  0  0  0  0  0
   31.0110   26.3830   48.2810 N   0  0  0  0  0  0  0  0  0  0  0  0
  1  4  1  6  0  0  0
  1  3  1  0  0  0  0
  1  8  1  0  0  0  0
  1  2  1  0  0  0  0
  2  6  1  0  0  0  0
  2  5  1  0  0  0  0
  3  7  1  1  0  0  0
  3  2  1  0  0  0  0
  8 10  1  0  0  0  0
  9  8  1  0  0  0  0
 11 17  1  0  0  0  0
 11 16  1  0  0  0  0
 12 11  2  0  0  0  0
 13 12  1  0  0  0  0
 13 14  2  0  0  0  0
 14 15  1  0  0  0  0
 15 16  2  0  0  0  0
 15  8  1  0  0  0  0
 18 12  1  0  0  0  0
 19 13  1  0  0  0  0
 20 22  1  0  0  0  0
 20  3  1  0  0  0  0
 21 20  2  0  0  0  0
 23 22  1  0  0  0  0
 24 23  2  0  0  0  0
 25 26  1  0  0  0  0
 25 24  1  0  0  0  0
 26 28  2  0  0  0  0
 27 26  1  0  0  0  0
 28 23  1  0  0  0  0
M  END
>  <minimizedAffinity>
-4.83622265

>  <minimizedRMSD>
0.70319885

$$$$
