
 OpenBabel03252512523D

 24 26  0  0  0  0  0  0  0  0999 V2000
   38.2150   31.2610   48.3100 C   0  0  0  0  0  0  0  0  0  0  0  0
   38.8240   32.4690   48.2220 N   0  0  0  0  0  0  0  0  0  0  0  0
   39.3040   32.6340   47.0340 O   0  0  0  0  0  0  0  0  0  0  0  0
   39.0250   31.5520   46.3290 C   0  0  0  0  0  0  0  0  0  0  0  0
   38.3480   30.6790   47.0980 N   0  0  0  0  0  0  0  0  0  0  0  0
   39.4090   31.3830   44.9600 N   0  0  0  0  0  0  0  0  0  0  0  0
   39.3390   30.1230   44.4940 C   0  0  0  0  0  0  0  0  0  0  0  0
   39.7030   29.9340   43.1750 C   0  0  0  0  0  0  0  0  0  0  0  0
   40.1050   31.0350   42.4480 C   0  0  0  0  0  0  0  0  0  0  0  0
   40.4800   30.8390   41.0900 N   0  0  0  0  0  0  0  0  0  0  0  0
   40.1500   32.2690   42.9820 N   0  0  0  0  0  0  0  0  0  0  0  0
   39.7940   32.4800   44.2830 C   0  0  0  0  0  0  0  0  0  0  0  0
   39.8320   33.6130   44.7860 O   0  0  0  0  0  0  0  0  0  0  0  0
   41.4320   30.4140   41.1040 H   0  0  0  0  0  0  0  0  0  0  0  0
   40.2890   30.9030   40.0770 H   0  0  0  0  0  0  0  0  0  0  0  0
   37.2150   29.9950   51.7060 C   0  0  0  0  0  0  0  0  0  0  0  0
   37.9620   30.6600   50.7370 C   0  0  0  0  0  0  0  0  0  0  0  0
   37.5210   30.6030   49.4280 C   0  0  0  0  0  0  0  0  0  0  0  0
   36.3770   29.9080   49.1120 N   0  0  0  0  0  0  0  0  0  0  0  0
   35.6900   29.2780   50.1150 C   0  0  0  0  0  0  0  0  0  0  0  0
   36.1000   29.3180   51.3980 N   0  0  0  0  0  0  0  0  0  0  0  0
   37.6300   30.0900   52.6960 H   0  0  0  0  0  0  0  0  0  0  0  0
   38.8540   31.2240   50.8550 H   0  0  0  0  0  0  0  0  0  0  0  0
   34.8090   28.7630   49.7590 H   0  0  0  0  0  0  0  0  0  0  0  0
  1 18  1  0  0  0  0
  2  1  2  0  0  0  0
  3  2  1  0  0  0  0
  4  3  1  0  0  0  0
  4  5  2  0  0  0  0
  5  1  1  0  0  0  0
  6  4  1  0  0  0  0
  7  6  1  0  0  0  0
  8  7  2  0  0  0  0
  9 11  2  0  0  0  0
  9  8  1  0  0  0  0
 10 14  1  0  0  0  0
 10  9  1  0  0  0  0
 11 12  1  0  0  0  0
 12 13  2  0  0  0  0
 12  6  1  0  0  0  0
 15 10  1  0  0  0  0
 16 22  1  0  0  0  0
 17 23  1  0  0  0  0
 17 16  2  0  0  0  0
 18 17  1  0  0  0  0
 19 18  2  0  0  0  0
 19 20  1  0  0  0  0
 20 21  2  0  0  0  0
 21 16  1  0  0  0  0
 24 20  1  0  0  0  0
M  END
>  <minimizedAffinity>
-6.19088984

>  <minimizedRMSD>
0.588773072

$$$$
