
 OpenBabel03252514013D

 28 30  0  0  1  0  0  0  0  0999 V2000
   35.4780   29.4570   49.1160 C   0  0  2  0  0  0  0  0  0  0  0  0
   34.4090   29.5380   50.1220 C   0  0  0  0  0  0  0  0  0  0  0  0
   34.6810   28.2190   49.5590 C   0  0  1  0  0  0  0  0  0  0  0  0
   35.3150   29.8820   48.1240 H   0  0  0  0  0  0  0  0  0  0  0  0
   34.6560   29.6620   51.2160 H   0  0  0  0  0  0  0  0  0  0  0  0
   33.4670   30.0740   49.8870 H   0  0  0  0  0  0  0  0  0  0  0  0
   35.3290   27.4050   49.8770 H   0  0  0  0  0  0  0  0  0  0  0  0
   36.9210   29.4000   49.6100 C   0  0  0  0  0  0  0  0  0  0  0  0
   37.3960   28.4330   49.3650 H   0  0  0  0  0  0  0  0  0  0  0  0
   36.8760   29.4530   50.7150 H   0  0  0  0  0  0  0  0  0  0  0  0
   38.4170   32.7370   49.3660 C   0  0  0  0  0  0  0  0  0  0  0  0
   38.9210   32.7600   48.0580 C   0  0  0  0  0  0  0  0  0  0  0  0
   38.7390   31.6140   47.2650 C   0  0  0  0  0  0  0  0  0  0  0  0
   38.0760   30.5360   47.8230 N   0  0  0  0  0  0  0  0  0  0  0  0
   37.6150   30.5800   49.0920 C   0  0  0  0  0  0  0  0  0  0  0  0
   37.7920   31.6850   49.8540 N   0  0  0  0  0  0  0  0  0  0  0  0
   38.6120   33.6670   49.8830 H   0  0  0  0  0  0  0  0  0  0  0  0
   39.4460   33.5510   47.5470 H   0  0  0  0  0  0  0  0  0  0  0  0
   39.0600   31.4630   46.2470 H   0  0  0  0  0  0  0  0  0  0  0  0
   33.6220   27.7220   48.6110 C   0  0  0  0  0  0  0  0  0  0  0  0
   34.0510   26.9260   47.6860 O   0  0  0  0  0  0  0  0  0  0  0  0
   32.2680   28.0180   48.6340 O   0  0  0  0  0  0  0  0  0  0  0  0
   31.5290   27.8970   47.4650 C   0  0  0  0  0  0  0  0  0  0  0  0
   31.5720   28.9440   46.6050 N   0  0  0  0  0  0  0  0  0  0  0  0
   30.8380   28.7040   45.5520 O   0  0  0  0  0  0  0  0  0  0  0  0
   30.3190   27.5140   45.7170 C   0  0  0  0  0  0  0  0  0  0  0  0
   29.6750   27.1300   44.9450 H   0  0  0  0  0  0  0  0  0  0  0  0
   30.7350   26.9990   46.8930 N   0  0  0  0  0  0  0  0  0  0  0  0
  1  4  1  6  0  0  0
  1  3  1  0  0  0  0
  1  8  1  0  0  0  0
  1  2  1  0  0  0  0
  2  5  1  0  0  0  0
  3  7  1  1  0  0  0
  3  2  1  0  0  0  0
  6  2  1  0  0  0  0
  8 10  1  0  0  0  0
  9  8  1  0  0  0  0
 11 16  1  0  0  0  0
 11 17  1  0  0  0  0
 12 11  2  0  0  0  0
 13 14  2  0  0  0  0
 13 12  1  0  0  0  0
 14 15  1  0  0  0  0
 15  8  1  0  0  0  0
 15 16  2  0  0  0  0
 18 12  1  0  0  0  0
 19 13  1  0  0  0  0
 20 22  1  0  0  0  0
 20  3  1  0  0  0  0
 21 20  2  0  0  0  0
 23 22  1  0  0  0  0
 24 23  2  0  0  0  0
 25 26  1  0  0  0  0
 25 24  1  0  0  0  0
 26 28  2  0  0  0  0
 27 26  1  0  0  0  0
 28 23  1  0  0  0  0
M  END
>  <minimizedAffinity>
-4.71727896

>  <minimizedRMSD>
0.485622466

$$$$
