
 OpenBabel03252511453D

 42 46  0  0  1  0  0  0  0  0999 V2000
   34.4280   30.4650   47.8250 C   0  0  0  0  0  0  0  0  0  0  0  0
   35.6900   30.3120   48.3680 C   0  0  0  0  0  0  0  0  0  0  0  0
   35.9050   29.0560   49.0160 C   0  0  0  0  0  0  0  0  0  0  0  0
   34.9200   28.1230   49.0650 N   0  0  0  0  0  0  0  0  0  0  0  0
   33.7190   28.3590   48.5060 C   0  0  0  0  0  0  0  0  0  0  0  0
   33.4820   29.5170   47.8950 N   0  0  0  0  0  0  0  0  0  0  0  0
   34.3040   31.4270   47.3450 H   0  0  0  0  0  0  0  0  0  0  0  0
   36.8510   28.8060   49.4850 H   0  0  0  0  0  0  0  0  0  0  0  0
   36.8200   31.2230   48.3860 C   0  0  0  0  0  0  0  0  0  0  0  0
   36.9080   31.8840   49.5750 C   0  0  0  0  0  0  0  0  0  0  0  0
   37.9270   32.8100   49.8140 C   0  0  0  0  0  0  0  0  0  0  0  0
   38.8630   33.0570   48.8240 C   0  0  0  0  0  0  0  0  0  0  0  0
   38.7530   32.3730   47.6250 C   0  0  0  0  0  0  0  0  0  0  0  0
   39.6510   32.5680   46.5850 C   0  0  0  0  0  0  0  0  0  0  0  0
   39.4880   31.8540   45.4030 C   0  0  0  0  0  0  0  0  0  0  0  0
   38.4590   30.9450   45.2130 C   0  0  0  0  0  0  0  0  0  0  0  0
   37.5740   30.7670   46.2660 C   0  0  0  0  0  0  0  0  0  0  0  0
   37.7560   31.4770   47.4110 C   0  0  0  0  0  0  0  0  0  0  0  0
   36.2530   31.7940   50.4310 H   0  0  0  0  0  0  0  0  0  0  0  0
   38.0500   33.3580   50.7200 H   0  0  0  0  0  0  0  0  0  0  0  0
   39.6910   33.7460   48.8950 H   0  0  0  0  0  0  0  0  0  0  0  0
   40.4690   33.2690   46.6930 H   0  0  0  0  0  0  0  0  0  0  0  0
   40.1680   31.9710   44.5530 H   0  0  0  0  0  0  0  0  0  0  0  0
   38.3310   30.3890   44.2920 H   0  0  0  0  0  0  0  0  0  0  0  0
   36.7570   30.0470   46.1180 H   0  0  0  0  0  0  0  0  0  0  0  0
   32.6720   27.3000   48.5880 C   0  0  1  0  0  0  0  0  0  0  0  0
   31.2720   27.6330   48.2070 C   0  0  0  0  0  0  0  0  0  0  0  0
   32.0960   26.7370   47.3200 C   0  0  1  0  0  0  0  0  0  0  0  0
   32.8180   26.5420   49.3680 H   0  0  0  0  0  0  0  0  0  0  0  0
   31.0420   28.6240   47.7580 H   0  0  0  0  0  0  0  0  0  0  0  0
   30.4490   27.1240   48.7850 H   0  0  0  0  0  0  0  0  0  0  0  0
   31.8640   25.6680   47.2470 H   0  0  0  0  0  0  0  0  0  0  0  0
   32.6920   27.3130   46.1160 N   0  0  0  0  0  0  0  0  0  0  0  0
   33.9560   27.3540   45.7140 C   0  0  0  0  0  0  0  0  0  0  0  0
   34.2610   27.9680   44.5170 C   0  0  0  0  0  0  0  0  0  0  0  0
   33.2670   28.5380   43.7380 C   0  0  0  0  0  0  0  0  0  0  0  0
   33.6630   29.1460   42.5300 N   0  0  0  0  0  0  0  0  0  0  0  0
   31.9920   28.4810   44.1740 N   0  0  0  0  0  0  0  0  0  0  0  0
   31.7050   27.8700   45.3600 C   0  0  0  0  0  0  0  0  0  0  0  0
   30.4690   27.9160   45.5970 O   0  0  0  0  0  0  0  0  0  0  0  0
   33.0920   28.7120   41.7600 H   0  0  0  0  0  0  0  0  0  0  0  0
   34.3390   29.8710   42.2540 H   0  0  0  0  0  0  0  0  0  0  0  0
  1  6  2  0  0  0  0
  1  2  1  0  0  0  0
  2  9  1  0  0  0  0
  2  3  2  0  0  0  0
  3  4  1  0  0  0  0
  3  8  1  0  0  0  0
  5 26  1  0  0  0  0
  5  4  2  0  0  0  0
  6  5  1  0  0  0  0
  7  1  1  0  0  0  0
  9 10  1  0  0  0  0
 10 11  2  0  0  0  0
 10 19  1  0  0  0  0
 11 20  1  0  0  0  0
 12 21  1  0  0  0  0
 12 11  1  0  0  0  0
 13 12  2  0  0  0  0
 14 22  1  0  0  0  0
 14 13  1  0  0  0  0
 15 14  2  0  0  0  0
 16 15  1  0  0  0  0
 16 17  2  0  0  0  0
 17 18  1  0  0  0  0
 18 13  1  0  0  0  0
 18  9  2  0  0  0  0
 23 15  1  0  0  0  0
 24 16  1  0  0  0  0
 25 17  1  0  0  0  0
 26 29  1  1  0  0  0
 27 26  1  0  0  0  0
 27 31  1  0  0  0  0
 28 32  1  6  0  0  0
 28 27  1  0  0  0  0
 28 26  1  0  0  0  0
 30 27  1  0  0  0  0
 33 28  1  0  0  0  0
 34 33  1  0  0  0  0
 35 34  2  0  0  0  0
 36 38  2  0  0  0  0
 36 35  1  0  0  0  0
 37 36  1  0  0  0  0
 38 39  1  0  0  0  0
 39 40  2  0  0  0  0
 39 33  1  0  0  0  0
 41 37  1  0  0  0  0
 42 37  1  0  0  0  0
M  END
>  <minimizedAffinity>
-6.29652548

>  <minimizedRMSD>
1.84507048

$$$$
