
 OpenBabel03252513483D

 26 27  0  0  0  0  0  0  0  0999 V2000
   37.5820   30.8620   44.5560 C   0  0  0  0  0  0  0  0  0  0  0  0
   37.0650   30.4120   45.8100 C   0  0  0  0  0  0  0  0  0  0  0  0
   37.6450   30.9470   46.9460 C   0  0  0  0  0  0  0  0  0  0  0  0
   38.6520   31.8520   46.8220 N   0  0  0  0  0  0  0  0  0  0  0  0
   39.1090   32.2480   45.6260 C   0  0  0  0  0  0  0  0  0  0  0  0
   38.5830   31.7610   44.5010 N   0  0  0  0  0  0  0  0  0  0  0  0
   36.2650   29.6930   45.8520 H   0  0  0  0  0  0  0  0  0  0  0  0
   37.1350   30.5040   48.1980 N   0  0  0  0  0  0  0  0  0  0  0  0
   37.9050   30.1950   49.2620 C   0  0  0  0  0  0  0  0  0  0  0  0
   37.3190   29.7710   50.4410 C   0  0  0  0  0  0  0  0  0  0  0  0
   35.9390   29.6830   50.4700 C   0  0  0  0  0  0  0  0  0  0  0  0
   35.3750   29.2420   51.7050 N   0  0  0  0  0  0  0  0  0  0  0  0
   35.1670   29.9900   49.4110 N   0  0  0  0  0  0  0  0  0  0  0  0
   35.7800   30.3960   48.2900 C   0  0  0  0  0  0  0  0  0  0  0  0
   35.0190   30.6770   47.3110 O   0  0  0  0  0  0  0  0  0  0  0  0
   35.1240   28.3600   52.2070 H   0  0  0  0  0  0  0  0  0  0  0  0
   35.1920   30.1590   52.1770 H   0  0  0  0  0  0  0  0  0  0  0  0
   40.2130   33.2410   45.6590 C   0  0  0  0  0  0  0  0  0  0  0  0
   40.2650   33.8550   46.9230 F   0  0  0  0  0  0  0  0  0  0  0  0
   41.4110   32.6050   45.4890 F   0  0  0  0  0  0  0  0  0  0  0  0
   40.0880   34.1990   44.6600 F   0  0  0  0  0  0  0  0  0  0  0  0
   37.0160   30.3390   43.4050 O   0  0  0  0  0  0  0  0  0  0  0  0
   35.7440   30.6460   42.9340 C   0  0  0  0  0  0  0  0  0  0  0  0
   34.7860   29.6850   43.2570 F   0  0  0  0  0  0  0  0  0  0  0  0
   35.2900   31.8970   43.3000 F   0  0  0  0  0  0  0  0  0  0  0  0
   35.8570   30.6480   41.5410 F   0  0  0  0  0  0  0  0  0  0  0  0
  1  2  1  0  0  0  0
  2  7  1  0  0  0  0
  2  3  2  0  0  0  0
  3  8  1  0  0  0  0
  4  3  1  0  0  0  0
  5 18  1  0  0  0  0
  5  4  2  0  0  0  0
  6  1  2  0  0  0  0
  6  5  1  0  0  0  0
  8 14  1  0  0  0  0
  8  9  1  0  0  0  0
  9 10  2  0  0  0  0
 10 11  1  0  0  0  0
 11 12  1  0  0  0  0
 12 17  1  0  0  0  0
 12 16  1  0  0  0  0
 13 11  2  0  0  0  0
 14 13  1  0  0  0  0
 15 14  2  0  0  0  0
 18 19  1  0  0  0  0
 20 18  1  0  0  0  0
 21 18  1  0  0  0  0
 22  1  1  0  0  0  0
 23 24  1  0  0  0  0
 23 25  1  0  0  0  0
 23 22  1  0  0  0  0
 26 23  1  0  0  0  0
M  END
>  <minimizedAffinity>
-5.71144867

>  <minimizedRMSD>
5.41069508

$$$$
