
 OpenBabel03252513303D

 45 49  0  0  0  0  0  0  0  0999 V2000
   33.2600   27.8730   48.5190 C   0  0  0  0  0  0  0  0  0  0  0  0
   33.9350   27.5880   49.3510 H   0  0  0  0  0  0  0  0  0  0  0  0
   32.3430   28.2470   49.0380 H   0  0  0  0  0  0  0  0  0  0  0  0
   31.6210   26.2790   47.6170 C   0  0  0  0  0  0  0  0  0  0  0  0
   31.3130   25.1380   46.9580 C   0  0  0  0  0  0  0  0  0  0  0  0
   32.2560   24.2720   46.4380 C   0  0  0  0  0  0  0  0  0  0  0  0
   33.5760   24.6380   46.6300 C   0  0  0  0  0  0  0  0  0  0  0  0
   33.9160   25.7890   47.2940 C   0  0  0  0  0  0  0  0  0  0  0  0
   32.9460   26.6260   47.7970 C   0  0  0  0  0  0  0  0  0  0  0  0
   30.2730   24.8720   46.8190 H   0  0  0  0  0  0  0  0  0  0  0  0
   32.0050   23.3600   45.9110 H   0  0  0  0  0  0  0  0  0  0  0  0
   34.3360   23.9750   46.2320 H   0  0  0  0  0  0  0  0  0  0  0  0
   34.9450   26.0850   47.4520 H   0  0  0  0  0  0  0  0  0  0  0  0
   29.2250   27.9400   49.8750 C   0  0  0  0  0  0  0  0  0  0  0  0
   28.6240   28.8980   49.0230 C   0  0  0  0  0  0  0  0  0  0  0  0
   29.0650   28.9380   47.7040 C   0  0  0  0  0  0  0  0  0  0  0  0
   30.0430   28.0640   47.2960 N   0  0  0  0  0  0  0  0  0  0  0  0
   30.5880   27.1650   48.1480 C   0  0  0  0  0  0  0  0  0  0  0  0
   30.1730   27.1180   49.4140 N   0  0  0  0  0  0  0  0  0  0  0  0
   28.8610   27.9410   50.8740 H   0  0  0  0  0  0  0  0  0  0  0  0
   28.6630   29.6350   46.9900 H   0  0  0  0  0  0  0  0  0  0  0  0
   27.5710   29.8270   49.4900 C   0  0  0  0  0  0  0  0  0  0  0  0
   27.9920   30.6810   50.4720 F   0  0  0  0  0  0  0  0  0  0  0  0
   26.4690   29.1440   49.9810 F   0  0  0  0  0  0  0  0  0  0  0  0
   27.1360   30.6140   48.4090 F   0  0  0  0  0  0  0  0  0  0  0  0
   33.7540   28.9800   47.6580 C   0  0  0  0  0  0  0  0  0  0  0  0
   33.0150   29.8300   47.6240 H   0  0  0  0  0  0  0  0  0  0  0  0
   33.8990   28.6890   46.5960 H   0  0  0  0  0  0  0  0  0  0  0  0
   35.0100   29.5200   48.1810 C   0  0  0  0  0  0  0  0  0  0  0  0
   35.7430   28.9050   49.1810 C   0  0  0  0  0  0  0  0  0  0  0  0
   36.8660   29.6540   49.4550 C   0  0  0  0  0  0  0  0  0  0  0  0
   36.7820   30.7240   48.5950 N   0  0  0  0  0  0  0  0  0  0  0  0
   35.6920   30.6370   47.8520 N   0  0  0  0  0  0  0  0  0  0  0  0
   35.6470   28.0070   49.7760 H   0  0  0  0  0  0  0  0  0  0  0  0
   37.7000   29.5480   50.1530 H   0  0  0  0  0  0  0  0  0  0  0  0
   40.4810   33.9080   45.6710 H   0  0  0  0  0  0  0  0  0  0  0  0
   39.7810   33.2390   46.0470 N   0  0  0  0  0  0  0  0  0  0  0  0
   39.1830   32.2740   45.3340 C   0  0  0  0  0  0  0  0  0  0  0  0
   38.3060   31.5350   46.0710 N   0  0  0  0  0  0  0  0  0  0  0  0
   38.3750   32.0850   47.3100 C   0  0  0  0  0  0  0  0  0  0  0  0
   37.7350   31.7950   48.5020 C   0  0  0  0  0  0  0  0  0  0  0  0
   37.9810   32.5050   49.6150 N   0  0  0  0  0  0  0  0  0  0  0  0
   38.8780   33.5330   49.5820 C   0  0  0  0  0  0  0  0  0  0  0  0
   39.5180   33.8390   48.4280 N   0  0  0  0  0  0  0  0  0  0  0  0
   39.2800   33.1320   47.2960 C   0  0  0  0  0  0  0  0  0  0  0  0
  1  3  1  0  0  0  0
  1  2  1  0  0  0  0
  4  9  1  0  0  0  0
  4 18  1  0  0  0  0
  5  4  2  0  0  0  0
  6  7  2  0  0  0  0
  6  5  1  0  0  0  0
  7  8  1  0  0  0  0
  8 13  1  0  0  0  0
  8  9  2  0  0  0  0
  9  1  1  0  0  0  0
 10  5  1  0  0  0  0
 11  6  1  0  0  0  0
 12  7  1  0  0  0  0
 14 20  1  0  0  0  0
 15 22  1  0  0  0  0
 15 14  2  0  0  0  0
 16 15  1  0  0  0  0
 17 16  2  0  0  0  0
 17 18  1  0  0  0  0
 18 19  2  0  0  0  0
 19 14  1  0  0  0  0
 21 16  1  0  0  0  0
 22 24  1  0  0  0  0
 22 23  1  0  0  0  0
 25 22  1  0  0  0  0
 26 29  1  0  0  0  0
 26  1  1  0  0  0  0
 27 26  1  0  0  0  0
 28 26  1  0  0  0  0
 29 30  1  0  0  0  0
 30 31  2  0  0  0  0
 30 34  1  0  0  0  0
 31 35  1  0  0  0  0
 32 31  1  0  0  0  0
 33 29  2  0  0  0  0
 33 32  1  0  0  0  0
 36 37  1  0  0  0  0
 37 45  1  0  0  0  0
 38 37  1  0  0  0  0
 38 39  2  0  0  0  0
 39 40  1  0  0  0  0
 40 41  1  0  0  0  0
 41 32  1  0  0  0  0
 41 42  2  0  0  0  0
 43 42  1  0  0  0  0
 44 43  2  0  0  0  0
 45 40  2  0  0  0  0
 45 44  1  0  0  0  0
M  END
>  <minimizedAffinity>
-7.56031418

>  <minimizedRMSD>
1.82887685

$$$$
