
 OpenBabel03252514043D

 39 42  0  0  1  0  0  0  0  0999 V2000
   34.0140   27.3720   48.0420 C   0  0  0  0  0  0  0  0  0  0  0  0
   34.3690   26.1520   47.7950 O   0  0  0  0  0  0  0  0  0  0  0  0
   35.5280   29.3520   48.8090 C   0  0  2  0  0  0  0  0  0  0  0  0
   34.3240   29.2630   49.6380 C   0  0  0  0  0  0  0  0  0  0  0  0
   34.8200   28.0020   49.1620 C   0  0  1  0  0  0  0  0  0  0  0  0
   35.5680   29.5230   47.7380 H   0  0  0  0  0  0  0  0  0  0  0  0
   34.4400   29.4820   50.7310 H   0  0  0  0  0  0  0  0  0  0  0  0
   33.3810   29.7040   49.2430 H   0  0  0  0  0  0  0  0  0  0  0  0
   35.4870   27.2950   49.6640 H   0  0  0  0  0  0  0  0  0  0  0  0
   36.8580   29.4710   49.5740 C   0  0  0  0  0  0  0  0  0  0  0  0
   37.4230   28.5340   49.3080 H   0  0  0  0  0  0  0  0  0  0  0  0
   36.6830   29.4370   50.6540 H   0  0  0  0  0  0  0  0  0  0  0  0
   38.2460   32.8420   49.3800 C   0  0  0  0  0  0  0  0  0  0  0  0
   38.8810   32.8410   48.1190 C   0  0  0  0  0  0  0  0  0  0  0  0
   38.8170   31.6550   47.3510 C   0  0  0  0  0  0  0  0  0  0  0  0
   38.1470   30.5800   47.8650 N   0  0  0  0  0  0  0  0  0  0  0  0
   37.5600   30.6380   49.0690 C   0  0  0  0  0  0  0  0  0  0  0  0
   37.6160   31.7600   49.8070 N   0  0  0  0  0  0  0  0  0  0  0  0
   38.3400   33.7840   49.9050 H   0  0  0  0  0  0  0  0  0  0  0  0
   39.4260   33.6380   47.6450 H   0  0  0  0  0  0  0  0  0  0  0  0
   39.2890   31.6010   46.3750 H   0  0  0  0  0  0  0  0  0  0  0  0
   32.9850   27.9700   47.3150 O   0  0  0  0  0  0  0  0  0  0  0  0
   31.6930   28.0310   47.7490 C   0  0  0  0  0  0  0  0  0  0  0  0
   31.1720   27.3870   48.9600 C   0  0  0  0  0  0  0  0  0  0  0  0
   29.8660   27.5300   49.2730 C   0  0  0  0  0  0  0  0  0  0  0  0
   29.0150   28.2940   48.4390 C   0  0  0  0  0  0  0  0  0  0  0  0
   30.1380   28.8700   47.0850 S   0  0  0  0  0  0  0  0  0  0  0  0
   31.8800   26.8220   49.5450 H   0  0  0  0  0  0  0  0  0  0  0  0
   29.4360   27.0910   50.1310 H   0  0  0  0  0  0  0  0  0  0  0  0
   27.6390   28.5500   48.6070 N   0  0  0  0  0  0  0  0  0  0  0  0
   26.6460   27.8870   48.0210 C   0  0  0  0  0  0  0  0  0  0  0  0
   25.3300   28.2500   48.2790 C   0  0  0  0  0  0  0  0  0  0  0  0
   25.1300   29.3080   49.1540 C   0  0  0  0  0  0  0  0  0  0  0  0
   23.7870   29.6730   49.4140 N   0  0  0  0  0  0  0  0  0  0  0  0
   26.1500   29.9780   49.7490 N   0  0  0  0  0  0  0  0  0  0  0  0
   27.4200   29.5830   49.4610 C   0  0  0  0  0  0  0  0  0  0  0  0
   28.2930   30.2640   50.0570 O   0  0  0  0  0  0  0  0  0  0  0  0
   23.6110   29.3040   50.3960 H   0  0  0  0  0  0  0  0  0  0  0  0
   22.9840   30.1600   48.9630 H   0  0  0  0  0  0  0  0  0  0  0  0
  1  5  1  0  0  0  0
  2  1  2  0  0  0  0
  3  6  1  6  0  0  0
  3  5  1  0  0  0  0
  3 10  1  0  0  0  0
  3  4  1  0  0  0  0
  4  7  1  0  0  0  0
  5  4  1  0  0  0  0
  5  9  1  1  0  0  0
  8  4  1  0  0  0  0
 10 12  1  0  0  0  0
 11 10  1  0  0  0  0
 13 18  1  0  0  0  0
 13 19  1  0  0  0  0
 14 13  2  0  0  0  0
 15 16  2  0  0  0  0
 15 14  1  0  0  0  0
 16 17  1  0  0  0  0
 17 10  1  0  0  0  0
 17 18  2  0  0  0  0
 20 14  1  0  0  0  0
 21 15  1  0  0  0  0
 22 23  1  0  0  0  0
 22  1  1  0  0  0  0
 23 24  2  0  0  0  0
 24 25  1  0  0  0  0
 24 28  1  0  0  0  0
 25 29  1  0  0  0  0
 26 30  1  0  0  0  0
 26 25  2  0  0  0  0
 27 23  1  0  0  0  0
 27 26  1  0  0  0  0
 30 36  1  0  0  0  0
 31 32  2  0  0  0  0
 31 30  1  0  0  0  0
 32 33  1  0  0  0  0
 33 34  1  0  0  0  0
 33 35  2  0  0  0  0
 34 38  1  0  0  0  0
 36 35  1  0  0  0  0
 36 37  2  0  0  0  0
 39 34  1  0  0  0  0
M  END
>  <minimizedAffinity>
-6.32876635

>  <minimizedRMSD>
1.75209093

$$$$
