
 OpenBabel03252514083D

 44 48  0  0  0  0  0  0  0  0999 V2000
   34.0580   29.9340   47.3690 C   0  0  0  0  0  0  0  0  0  0  0  0
   35.0350   29.7590   48.3800 C   0  0  0  0  0  0  0  0  0  0  0  0
   34.8330   28.7090   49.2540 C   0  0  0  0  0  0  0  0  0  0  0  0
   33.7410   27.9190   49.1040 N   0  0  0  0  0  0  0  0  0  0  0  0
   32.8270   28.0980   48.1420 C   0  0  0  0  0  0  0  0  0  0  0  0
   33.0000   29.1040   47.2890 N   0  0  0  0  0  0  0  0  0  0  0  0
   34.2010   30.7580   46.6720 H   0  0  0  0  0  0  0  0  0  0  0  0
   35.5710   28.5740   50.0210 H   0  0  0  0  0  0  0  0  0  0  0  0
   36.1220   30.6710   48.4030 N   0  0  0  0  0  0  0  0  0  0  0  0
   36.5220   31.3350   49.5260 C   0  0  0  0  0  0  0  0  0  0  0  0
   37.5730   32.1230   49.2160 N   0  0  0  0  0  0  0  0  0  0  0  0
   37.8060   31.9330   47.9020 C   0  0  0  0  0  0  0  0  0  0  0  0
   38.7380   32.4520   47.0110 C   0  0  0  0  0  0  0  0  0  0  0  0
   38.7590   32.0930   45.7310 N   0  0  0  0  0  0  0  0  0  0  0  0
   37.8680   31.1990   45.2280 C   0  0  0  0  0  0  0  0  0  0  0  0
   36.9640   30.6980   46.0970 N   0  0  0  0  0  0  0  0  0  0  0  0
   36.9020   31.0250   47.3830 C   0  0  0  0  0  0  0  0  0  0  0  0
   36.1430   31.3150   50.5410 H   0  0  0  0  0  0  0  0  0  0  0  0
   37.9020   30.9190   44.1790 H   0  0  0  0  0  0  0  0  0  0  0  0
   39.6900   33.3900   47.4770 N   0  0  0  0  0  0  0  0  0  0  0  0
   39.5760   34.4430   47.4650 H   0  0  0  0  0  0  0  0  0  0  0  0
   40.6510   33.2670   47.9080 H   0  0  0  0  0  0  0  0  0  0  0  0
   31.6440   27.2250   47.9970 C   0  0  0  0  0  0  0  0  0  0  0  0
   30.6580   27.5010   49.1190 C   0  0  0  0  0  0  0  0  0  0  0  0
   29.6780   27.0760   48.8100 H   0  0  0  0  0  0  0  0  0  0  0  0
   31.0130   27.0310   50.0530 H   0  0  0  0  0  0  0  0  0  0  0  0
   30.5780   28.6010   49.2520 H   0  0  0  0  0  0  0  0  0  0  0  0
   30.8830   27.5740   46.7140 C   0  0  0  0  0  0  0  0  0  0  0  0
   31.5270   27.6880   45.8440 H   0  0  0  0  0  0  0  0  0  0  0  0
   30.4660   28.6000   46.9130 H   0  0  0  0  0  0  0  0  0  0  0  0
   30.0300   26.8840   46.6050 H   0  0  0  0  0  0  0  0  0  0  0  0
   31.9880   25.7700   47.9190 C   0  0  0  0  0  0  0  0  0  0  0  0
   31.0270   25.2140   47.9820 H   0  0  0  0  0  0  0  0  0  0  0  0
   32.7040   25.4640   48.7160 H   0  0  0  0  0  0  0  0  0  0  0  0
   32.6670   25.5060   46.6670 N   0  0  0  0  0  0  0  0  0  0  0  0
   33.9320   25.8100   46.3200 C   0  0  0  0  0  3  0  0  0  0  0  0
   34.2370   25.4160   45.0730 N   0  0  0  0  0  0  0  0  0  0  0  0
   33.1450   24.8290   44.5630 C   0  0  0  0  0  0  0  0  0  0  0  0
   32.8430   24.2350   43.3440 C   0  0  0  0  0  0  0  0  0  0  0  0
   33.5870   24.1840   42.5690 H   0  0  0  0  0  0  0  0  0  0  0  0
   31.6320   23.7110   43.0950 N   0  0  0  0  0  0  0  0  0  0  0  0
   30.7140   23.7820   44.0770 C   0  0  0  0  0  3  0  0  0  0  0  0
   30.9950   24.3580   45.2670 N   0  0  0  0  0  0  0  0  0  0  0  0
   32.1930   24.8950   45.5570 C   0  0  0  0  0  0  0  0  0  0  0  0
  1  2  1  0  0  0  0
  2  9  1  0  0  0  0
  2  3  2  0  0  0  0
  3  8  1  0  0  0  0
  4  3  1  0  0  0  0
  5  4  2  0  0  0  0
  6  1  2  0  0  0  0
  6  5  1  0  0  0  0
  7  1  1  0  0  0  0
  9 10  1  0  0  0  0
 10 18  1  0  0  0  0
 11 10  2  0  0  0  0
 12 11  1  0  0  0  0
 13 20  1  0  0  0  0
 13 12  2  0  0  0  0
 14 13  1  0  0  0  0
 15 14  2  0  0  0  0
 15 16  1  0  0  0  0
 16 17  2  0  0  0  0
 17 12  1  0  0  0  0
 17  9  1  0  0  0  0
 19 15  1  0  0  0  0
 20 22  1  0  0  0  0
 21 20  1  0  0  0  0
 23  5  1  0  0  0  0
 23 24  1  0  0  0  0
 24 27  1  0  0  0  0
 24 26  1  0  0  0  0
 25 24  1  0  0  0  0
 28 30  1  0  0  0  0
 28 23  1  0  0  0  0
 29 28  1  0  0  0  0
 31 28  1  0  0  0  0
 32 33  1  0  0  0  0
 32 23  1  0  0  0  0
 32 34  1  0  0  0  0
 35 32  1  0  0  0  0
 36 35  1  0  0  0  0
 37 36  2  0  0  0  0
 38 37  1  0  0  0  0
 38 44  1  0  0  0  0
 39 38  2  0  0  0  0
 40 39  1  0  0  0  0
 41 39  1  0  0  0  0
 41 42  2  0  0  0  0
 42 43  1  0  0  0  0
 43 44  2  0  0  0  0
 44 35  1  0  0  0  0
M  END
>  <minimizedAffinity>
-5.27936554

>  <minimizedRMSD>
1.95827103

$$$$
