
 OpenBabel03252511123D

 32 34  0  0  0  0  0  0  0  0999 V2000
   32.5630   28.3010   47.7550 C   0  0  0  0  0  0  0  0  0  0  0  0
   33.2060   29.1490   46.8600 C   0  0  0  0  0  0  0  0  0  0  0  0
   34.3520   29.7720   47.2780 C   0  0  0  0  0  0  0  0  0  0  0  0
   34.9240   29.6310   48.5130 C   0  0  0  0  0  0  0  0  0  0  0  0
   34.2360   28.7700   49.3670 C   0  0  0  0  0  0  0  0  0  0  0  0
   33.0760   28.1100   49.0120 C   0  0  0  0  0  0  0  0  0  0  0  0
   32.7880   29.2850   45.8850 H   0  0  0  0  0  0  0  0  0  0  0  0
   34.8290   30.4290   46.5480 H   0  0  0  0  0  0  0  0  0  0  0  0
   34.6190   28.6000   50.3670 H   0  0  0  0  0  0  0  0  0  0  0  0
   32.6030   27.4540   49.7460 H   0  0  0  0  0  0  0  0  0  0  0  0
   37.6410   30.8080   50.6360 C   0  0  0  0  0  0  0  0  0  0  0  0
   38.4680   31.4960   49.7180 C   0  0  0  0  0  0  0  0  0  0  0  0
   38.0620   31.5440   48.3640 C   0  0  0  0  0  0  0  0  0  0  0  0
   36.9020   30.9290   48.0100 N   0  0  0  0  0  0  0  0  0  0  0  0
   36.1410   30.2780   48.9300 C   0  0  0  0  0  0  0  0  0  0  0  0
   36.5100   30.2220   50.2200 N   0  0  0  0  0  0  0  0  0  0  0  0
   37.9660   30.7790   51.6730 H   0  0  0  0  0  0  0  0  0  0  0  0
   39.3740   31.9780   49.9860 H   0  0  0  0  0  0  0  0  0  0  0  0
   38.8610   32.2410   47.3220 C   0  0  0  0  0  0  0  0  0  0  0  0
   38.1070   32.6540   46.2570 F   0  0  0  0  0  0  0  0  0  0  0  0
   39.4590   33.3820   47.8420 F   0  0  0  0  0  0  0  0  0  0  0  0
   39.8260   31.3800   46.8140 F   0  0  0  0  0  0  0  0  0  0  0  0
   31.0850   27.4760   47.3580 S   0  0  0  0  0  0  0  0  0  0  0  0
   30.3760   28.1710   46.2920 O   0  0  0  0  0  0  0  0  0  0  0  0
   30.2120   27.4370   48.6190 O   0  0  0  0  0  0  0  0  0  0  0  0
   31.4360   25.7760   47.0570 C   0  0  0  0  0  0  0  0  0  0  0  0
   32.4600   24.9190   47.4740 C   0  0  0  0  0  0  0  0  0  0  0  0
   32.1670   23.7210   46.8980 C   0  0  0  0  0  0  0  0  0  0  0  0
   32.8180   22.8660   47.0650 H   0  0  0  0  0  0  0  0  0  0  0  0
   31.0400   23.7980   46.1640 N   0  0  0  0  0  0  0  0  0  0  0  0
   30.6210   25.0390   46.2750 N   0  0  0  0  0  0  0  0  0  0  0  0
   30.6130   23.0060   45.6270 H   0  0  0  0  0  0  0  0  0  0  0  0
  1  6  1  0  0  0  0
  2  3  1  0  0  0  0
  2  1  2  0  0  0  0
  3  4  2  0  0  0  0
  4 15  1  0  0  0  0
  4  5  1  0  0  0  0
  5  9  1  0  0  0  0
  6  5  2  0  0  0  0
  6 10  1  0  0  0  0
  7  2  1  0  0  0  0
  8  3  1  0  0  0  0
 11 17  1  0  0  0  0
 12 18  1  0  0  0  0
 12 11  2  0  0  0  0
 13 12  1  0  0  0  0
 14 13  2  0  0  0  0
 14 15  1  0  0  0  0
 15 16  2  0  0  0  0
 16 11  1  0  0  0  0
 19 21  1  0  0  0  0
 19 13  1  0  0  0  0
 20 19  1  0  0  0  0
 22 19  1  0  0  0  0
 23  1  1  0  0  0  0
 23 25  2  0  0  0  0
 24 23  2  0  0  0  0
 26 23  1  0  0  0  0
 26 27  1  0  0  0  0
 28 29  1  0  0  0  0
 28 27  2  0  0  0  0
 30 31  1  0  0  0  0
 30 28  1  0  0  0  0
 31 26  2  0  0  0  0
 32 30  1  0  0  0  0
M  END
>  <minimizedAffinity>
-5.99080944

>  <minimizedRMSD>
1.41917682

$$$$
