
 OpenBabel03252514083D

 39 42  0  0  0  0  0  0  0  0999 V2000
   34.0280   29.9430   47.2800 C   0  0  0  0  0  0  0  0  0  0  0  0
   35.0560   29.7510   48.2070 C   0  0  0  0  0  0  0  0  0  0  0  0
   34.9140   28.6820   49.1010 C   0  0  0  0  0  0  0  0  0  0  0  0
   33.8050   27.9120   49.0150 N   0  0  0  0  0  0  0  0  0  0  0  0
   32.8320   28.1060   48.1260 C   0  0  0  0  0  0  0  0  0  0  0  0
   32.9560   29.1240   47.2650 N   0  0  0  0  0  0  0  0  0  0  0  0
   34.0910   30.7650   46.5580 H   0  0  0  0  0  0  0  0  0  0  0  0
   35.7010   28.5340   49.8130 H   0  0  0  0  0  0  0  0  0  0  0  0
   36.1580   30.6420   48.1780 N   0  0  0  0  0  0  0  0  0  0  0  0
   36.6350   31.3000   49.2770 C   0  0  0  0  0  0  0  0  0  0  0  0
   37.6830   32.0640   48.9050 N   0  0  0  0  0  0  0  0  0  0  0  0
   37.8460   31.8760   47.5960 C   0  0  0  0  0  0  0  0  0  0  0  0
   38.7370   32.3760   46.6620 C   0  0  0  0  0  0  0  0  0  0  0  0
   38.6840   32.0180   45.3810 N   0  0  0  0  0  0  0  0  0  0  0  0
   37.7420   31.1360   44.9130 C   0  0  0  0  0  0  0  0  0  0  0  0
   36.8800   30.6560   45.8230 N   0  0  0  0  0  0  0  0  0  0  0  0
   36.8970   30.9850   47.1150 C   0  0  0  0  0  0  0  0  0  0  0  0
   36.2760   31.2570   50.2990 H   0  0  0  0  0  0  0  0  0  0  0  0
   37.7130   30.8580   43.8710 H   0  0  0  0  0  0  0  0  0  0  0  0
   39.7340   33.2870   47.0620 N   0  0  0  0  0  0  0  0  0  0  0  0
   39.6760   34.3350   47.0030 H   0  0  0  0  0  0  0  0  0  0  0  0
   40.5960   32.8560   47.4460 H   0  0  0  0  0  0  0  0  0  0  0  0
   31.6200   27.2700   48.0310 C   0  0  0  0  0  0  0  0  0  0  0  0
   30.6910   27.5740   49.1960 C   0  0  0  0  0  0  0  0  0  0  0  0
   30.4310   28.6360   49.2080 H   0  0  0  0  0  0  0  0  0  0  0  0
   29.7540   26.9970   49.0550 H   0  0  0  0  0  0  0  0  0  0  0  0
   31.1330   27.2170   50.1520 H   0  0  0  0  0  0  0  0  0  0  0  0
   30.8180   27.5920   46.7810 C   0  0  0  0  0  0  0  0  0  0  0  0
   30.4850   26.7170   46.2240 H   0  0  0  0  0  0  0  0  0  0  0  0
   29.9160   28.2010   46.9880 H   0  0  0  0  0  0  0  0  0  0  0  0
   31.4490   28.2360   46.1260 H   0  0  0  0  0  0  0  0  0  0  0  0
   31.9390   25.7980   47.9850 C   0  0  0  0  0  0  0  0  0  0  0  0
   32.7250   25.6090   48.7580 H   0  0  0  0  0  0  0  0  0  0  0  0
   31.0810   25.1720   48.3040 H   0  0  0  0  0  0  0  0  0  0  0  0
   32.3420   25.3530   46.6330 C   0  0  0  0  0  0  0  0  0  0  0  0
   31.6780   24.7430   45.6390 C   0  0  0  0  0  3  0  0  0  0  0  0
   32.2670   24.4270   44.4620 C   0  0  0  0  0  3  0  0  0  0  0  0
   33.6320   24.7960   44.3770 C   0  0  0  0  0  3  0  0  0  0  0  0
   33.9540   25.5770   46.0210 S   0  0  0  0  0  0  0  0  0  0  0  0
  1  2  1  0  0  0  0
  2  3  2  0  0  0  0
  3  8  1  0  0  0  0
  4  3  1  0  0  0  0
  5  4  2  0  0  0  0
  6  1  2  0  0  0  0
  6  5  1  0  0  0  0
  7  1  1  0  0  0  0
  9  2  1  0  0  0  0
  9 10  1  0  0  0  0
 10 18  1  0  0  0  0
 11 10  2  0  0  0  0
 12 11  1  0  0  0  0
 13 20  1  0  0  0  0
 13 12  2  0  0  0  0
 14 13  1  0  0  0  0
 15 14  2  0  0  0  0
 15 16  1  0  0  0  0
 16 17  2  0  0  0  0
 17 12  1  0  0  0  0
 17  9  1  0  0  0  0
 19 15  1  0  0  0  0
 20 22  1  0  0  0  0
 21 20  1  0  0  0  0
 23  5  1  0  0  0  0
 23 24  1  0  0  0  0
 24 25  1  0  0  0  0
 24 27  1  0  0  0  0
 26 24  1  0  0  0  0
 28 30  1  0  0  0  0
 28 23  1  0  0  0  0
 29 28  1  0  0  0  0
 31 28  1  0  0  0  0
 32 23  1  0  0  0  0
 32 34  1  0  0  0  0
 32 33  1  0  0  0  0
 35 32  1  0  0  0  0
 36 35  2  0  0  0  0
 37 36  1  0  0  0  0
 38 37  2  0  0  0  0
 38 39  1  0  0  0  0
 39 35  1  0  0  0  0
M  END
>  <minimizedAffinity>
-5.11222744

>  <minimizedRMSD>
1.68060863

$$$$
