
 OpenBabel03252514043D

 34 37  0  0  1  0  0  0  0  0999 V2000
   35.2550   29.2020   48.6150 C   0  0  2  0  0  0  0  0  0  0  0  0
   34.0410   29.3190   49.4170 C   0  0  0  0  0  0  0  0  0  0  0  0
   34.4000   27.9740   49.0690 C   0  0  1  0  0  0  0  0  0  0  0  0
   35.3360   29.3590   47.5370 H   0  0  0  0  0  0  0  0  0  0  0  0
   33.1280   29.8290   49.0110 H   0  0  0  0  0  0  0  0  0  0  0  0
   34.1730   29.6160   50.4970 H   0  0  0  0  0  0  0  0  0  0  0  0
   34.9670   27.2560   49.6590 H   0  0  0  0  0  0  0  0  0  0  0  0
   36.5860   29.2390   49.3850 C   0  0  0  0  0  0  0  0  0  0  0  0
   37.1770   28.3290   49.1510 H   0  0  0  0  0  0  0  0  0  0  0  0
   36.3670   29.2220   50.4700 H   0  0  0  0  0  0  0  0  0  0  0  0
   37.6470   32.7320   49.5590 C   0  0  0  0  0  0  0  0  0  0  0  0
   38.5040   32.8520   48.4590 C   0  0  0  0  0  0  0  0  0  0  0  0
   38.7070   31.7030   47.6610 C   0  0  0  0  0  0  0  0  0  0  0  0
   38.0560   30.5440   48.0070 N   0  0  0  0  0  0  0  0  0  0  0  0
   37.2500   30.4930   49.0680 C   0  0  0  0  0  0  0  0  0  0  0  0
   37.0510   31.5950   49.8410 N   0  0  0  0  0  0  0  0  0  0  0  0
   37.4320   33.5560   50.2270 H   0  0  0  0  0  0  0  0  0  0  0  0
   38.9660   33.7970   48.2720 H   0  0  0  0  0  0  0  0  0  0  0  0
   39.3610   31.8020   46.8260 H   0  0  0  0  0  0  0  0  0  0  0  0
   33.5500   27.3300   47.9930 C   0  0  0  0  0  0  0  0  0  0  0  0
   33.8760   26.0990   47.7620 O   0  0  0  0  0  0  0  0  0  0  0  0
   32.5060   27.9310   47.2880 O   0  0  0  0  0  0  0  0  0  0  0  0
   31.2460   28.0830   47.8000 C   0  0  0  0  0  0  0  0  0  0  0  0
   30.8000   27.5980   49.1340 C   0  0  0  0  0  0  0  0  0  0  0  0
   29.5170   27.8340   49.4830 C   0  0  0  0  0  0  0  0  0  0  0  0
   28.6220   28.5130   48.6310 C   0  0  0  0  0  0  0  0  0  0  0  0
   29.6590   28.8860   47.1420 S   0  0  0  0  0  0  0  0  0  0  0  0
   31.5330   27.0900   49.7300 H   0  0  0  0  0  0  0  0  0  0  0  0
   29.1190   27.5140   50.4310 H   0  0  0  0  0  0  0  0  0  0  0  0
   27.3470   28.8610   48.7400 N   0  0  0  0  0  0  0  0  0  0  0  0
   26.8750   30.1200   48.8380 C   0  0  0  0  0  3  0  0  0  0  0  0
   25.4810   30.0870   48.9360 C   0  0  0  0  0  3  0  0  0  0  0  0
   25.1450   28.7640   48.8930 N   0  0  0  0  0  0  0  0  0  0  0  0
   26.2870   28.0320   48.7750 C   0  0  0  0  0  3  0  0  0  0  0  0
  1  4  1  6  0  0  0
  1  3  1  0  0  0  0
  1  8  1  0  0  0  0
  1  2  1  0  0  0  0
  2  6  1  0  0  0  0
  3  2  1  0  0  0  0
  3  7  1  1  0  0  0
  5  2  1  0  0  0  0
  8 10  1  0  0  0  0
  9  8  1  0  0  0  0
 11 16  1  0  0  0  0
 11 17  1  0  0  0  0
 12 11  2  0  0  0  0
 13 14  2  0  0  0  0
 13 12  1  0  0  0  0
 14 15  1  0  0  0  0
 15  8  1  0  0  0  0
 15 16  2  0  0  0  0
 18 12  1  0  0  0  0
 19 13  1  0  0  0  0
 20  3  1  0  0  0  0
 21 20  2  0  0  0  0
 22 23  1  0  0  0  0
 22 20  1  0  0  0  0
 23 24  2  0  0  0  0
 24 25  1  0  0  0  0
 24 28  1  0  0  0  0
 25 29  1  0  0  0  0
 26 30  1  0  0  0  0
 26 25  2  0  0  0  0
 27 23  1  0  0  0  0
 27 26  1  0  0  0  0
 30 34  1  0  0  0  0
 30 31  1  0  0  0  0
 31 32  2  0  0  0  0
 33 32  1  0  0  0  0
 34 33  2  0  0  0  0
M  END
>  <minimizedAffinity>
-6.16315746

>  <minimizedRMSD>
1.55864882

$$$$
