
 OpenBabel03252514083D

 39 42  0  0  0  0  0  0  0  0999 V2000
   32.2150   29.2310   45.9400 C   0  0  0  0  0  0  0  0  0  0  0  0
   32.8030   28.5210   46.9900 C   0  0  0  0  0  0  0  0  0  0  0  0
   32.2280   27.2890   47.3250 C   0  0  0  0  0  0  0  0  0  0  0  0
   31.1510   26.8670   46.6220 N   0  0  0  0  0  0  0  0  0  0  0  0
   30.6000   27.5540   45.6230 C   0  0  0  0  0  0  0  0  0  0  0  0
   31.1420   28.7330   45.2920 N   0  0  0  0  0  0  0  0  0  0  0  0
   32.6280   30.2000   45.6380 H   0  0  0  0  0  0  0  0  0  0  0  0
   32.6770   26.7440   48.1310 H   0  0  0  0  0  0  0  0  0  0  0  0
   33.9290   29.0920   47.6360 N   0  0  0  0  0  0  0  0  0  0  0  0
   34.1140   29.0850   48.9900 C   0  0  0  0  0  0  0  0  0  0  0  0
   35.2780   29.7080   49.2720 N   0  0  0  0  0  0  0  0  0  0  0  0
   35.7980   30.0900   48.1050 C   0  0  0  0  0  0  0  0  0  0  0  0
   36.9540   30.7610   47.7490 C   0  0  0  0  0  0  0  0  0  0  0  0
   37.2480   31.0260   46.4780 N   0  0  0  0  0  0  0  0  0  0  0  0
   36.4190   30.6510   45.4490 C   0  0  0  0  0  0  0  0  0  0  0  0
   35.2980   30.0010   45.8020 N   0  0  0  0  0  0  0  0  0  0  0  0
   34.9660   29.7140   47.0610 C   0  0  0  0  0  0  0  0  0  0  0  0
   33.4740   28.6680   49.7590 H   0  0  0  0  0  0  0  0  0  0  0  0
   36.6720   30.8740   44.4250 H   0  0  0  0  0  0  0  0  0  0  0  0
   37.8570   31.1800   48.7450 N   0  0  0  0  0  0  0  0  0  0  0  0
   37.8950   32.1350   49.1860 H   0  0  0  0  0  0  0  0  0  0  0  0
   38.5380   30.4610   49.0540 H   0  0  0  0  0  0  0  0  0  0  0  0
   29.4250   27.0990   44.8560 C   0  0  0  0  0  0  0  0  0  0  0  0
   29.3710   27.8160   43.5170 C   0  0  0  0  0  0  0  0  0  0  0  0
   30.2930   27.6410   42.9550 H   0  0  0  0  0  0  0  0  0  0  0  0
   28.5310   27.3950   42.9280 H   0  0  0  0  0  0  0  0  0  0  0  0
   29.1390   28.8940   43.6600 H   0  0  0  0  0  0  0  0  0  0  0  0
   29.5190   25.6190   44.5190 C   0  0  0  0  0  0  0  0  0  0  0  0
   28.6050   25.0580   44.7050 H   0  0  0  0  0  0  0  0  0  0  0  0
   29.7990   25.4320   43.4630 H   0  0  0  0  0  0  0  0  0  0  0  0
   30.3550   25.1860   45.1140 H   0  0  0  0  0  0  0  0  0  0  0  0
   28.1340   27.2980   45.6100 C   0  0  0  0  0  0  0  0  0  0  0  0
   27.4150   26.5290   45.2350 H   0  0  0  0  0  0  0  0  0  0  0  0
   28.2410   27.0730   46.6910 H   0  0  0  0  0  0  0  0  0  0  0  0
   27.6190   28.6790   45.4860 C   0  0  0  0  0  0  0  0  0  0  0  0
   26.9940   29.3320   44.4970 C   0  0  0  0  0  3  0  0  0  0  0  0
   26.6070   30.6250   44.6110 C   0  0  0  0  0  3  0  0  0  0  0  0
   26.9200   31.2160   45.8600 C   0  0  0  0  0  3  0  0  0  0  0  0
   27.7560   29.8410   46.7710 S   0  0  0  0  0  0  0  0  0  0  0  0
  1  2  1  0  0  0  0
  2  3  2  0  0  0  0
  2  9  1  0  0  0  0
  3  8  1  0  0  0  0
  4  3  1  0  0  0  0
  5  4  2  0  0  0  0
  6  5  1  0  0  0  0
  6  1  2  0  0  0  0
  7  1  1  0  0  0  0
  9 10  1  0  0  0  0
 10 11  2  0  0  0  0
 10 18  1  0  0  0  0
 12 11  1  0  0  0  0
 13 12  1  0  0  0  0
 13 20  1  0  0  0  0
 14 13  2  0  0  0  0
 15 16  2  0  0  0  0
 15 14  1  0  0  0  0
 16 17  1  0  0  0  0
 17  9  1  0  0  0  0
 17 12  2  0  0  0  0
 19 15  1  0  0  0  0
 20 22  1  0  0  0  0
 20 21  1  0  0  0  0
 23 32  1  0  0  0  0
 23  5  1  0  0  0  0
 24 27  1  0  0  0  0
 24 23  1  0  0  0  0
 25 24  1  0  0  0  0
 26 24  1  0  0  0  0
 28 29  1  0  0  0  0
 28 23  1  0  0  0  0
 28 31  1  0  0  0  0
 30 28  1  0  0  0  0
 32 34  1  0  0  0  0
 33 32  1  0  0  0  0
 35 32  1  0  0  0  0
 35 39  1  0  0  0  0
 36 37  1  0  0  0  0
 36 35  2  0  0  0  0
 37 38  2  0  0  0  0
 38 39  1  0  0  0  0
M  END
>  <minimizedAffinity>
-4.06411552

>  <minimizedRMSD>
5.44634438

$$$$
