
 OpenBabel03252513203D

 17 18  0  0  0  0  0  0  0  0999 V2000
   35.2450   29.2330   50.3970 C   0  0  0  0  0  0  0  0  0  0  0  0
   36.0850   30.1770   49.7920 C   0  0  0  0  0  0  0  0  0  0  0  0
   35.8230   30.5170   48.4580 C   0  0  0  0  0  0  0  0  0  0  0  0
   34.7770   29.9270   47.8060 N   0  0  0  0  0  0  0  0  0  0  0  0
   33.9880   29.0120   48.4470 C   0  0  0  0  0  0  0  0  0  0  0  0
   34.2280   28.6810   49.7170 N   0  0  0  0  0  0  0  0  0  0  0  0
   35.5180   29.0300   51.4270 H   0  0  0  0  0  0  0  0  0  0  0  0
   36.4110   31.2250   47.9180 H   0  0  0  0  0  0  0  0  0  0  0  0
   32.8880   28.3750   47.8030 N   0  0  0  0  0  0  0  0  0  0  0  0
   32.5050   28.3420   46.5170 C   0  0  0  0  0  0  0  0  0  0  0  0
   31.3490   27.5580   46.4820 C   0  0  0  0  0  0  0  0  0  0  0  0
   31.0780   27.1450   47.7550 N   0  0  0  0  0  0  0  0  0  0  0  0
   32.0450   27.6610   48.5680 C   0  0  0  0  0  0  0  0  0  0  0  0
   37.2290   30.8270   50.4920 C   0  0  0  0  0  0  0  0  0  0  0  0
   38.4570   30.4660   50.0070 F   0  0  0  0  0  0  0  0  0  0  0  0
   37.2360   30.5180   51.8320 F   0  0  0  0  0  0  0  0  0  0  0  0
   37.1310   32.2070   50.3600 F   0  0  0  0  0  0  0  0  0  0  0  0
  1  7  1  0  0  0  0
  2  1  1  0  0  0  0
  2 14  1  0  0  0  0
  3  2  2  0  0  0  0
  4  5  2  0  0  0  0
  4  3  1  0  0  0  0
  5  6  1  0  0  0  0
  6  1  2  0  0  0  0
  8  3  1  0  0  0  0
  9  5  1  0  0  0  0
  9 13  1  0  0  0  0
 10  9  1  0  0  0  0
 11 10  2  0  0  0  0
 11 12  1  0  0  0  0
 12 13  2  0  0  0  0
 14 16  1  0  0  0  0
 15 14  1  0  0  0  0
 17 14  1  0  0  0  0
M  END
>  <minimizedAffinity>
-5.00360584

>  <minimizedRMSD>
0.733097076

$$$$
