
 OpenBabel03252513503D

 27 28  0  0  0  0  0  0  0  0999 V2000
   33.7530   28.3810   48.0600 C   0  0  0  0  0  0  0  0  0  0  0  0
   34.6720   29.0430   48.9490 C   0  0  0  0  0  0  0  0  0  0  0  0
   35.5180   30.0270   48.4320 C   0  0  0  0  0  0  0  0  0  0  0  0
   35.4200   30.3020   47.1070 N   0  0  0  0  0  0  0  0  0  0  0  0
   34.5510   29.6690   46.2950 C   0  0  0  0  0  0  0  0  0  0  0  0
   33.7350   28.7280   46.7600 N   0  0  0  0  0  0  0  0  0  0  0  0
   34.7320   28.8060   49.9990 H   0  0  0  0  0  0  0  0  0  0  0  0
   34.5900   30.1060   44.8830 C   0  0  0  0  0  0  0  0  0  0  0  0
   35.8130   30.7420   44.6020 F   0  0  0  0  0  0  0  0  0  0  0  0
   34.5230   29.0270   44.0540 F   0  0  0  0  0  0  0  0  0  0  0  0
   33.5240   30.9530   44.5620 F   0  0  0  0  0  0  0  0  0  0  0  0
   36.4420   30.7080   49.3170 C   0  0  0  0  0  0  0  0  0  0  0  0
   36.3660   30.5200   50.5500 O   0  0  0  0  0  0  0  0  0  0  0  0
   37.4750   31.6180   48.8350 C   0  0  0  0  0  0  0  0  0  0  0  0
   37.7960   32.7210   49.6300 C   0  0  0  0  0  0  0  0  0  0  0  0
   37.2610   32.8600   50.5810 H   0  0  0  0  0  0  0  0  0  0  0  0
   38.7630   33.6310   49.2480 C   0  0  0  0  0  0  0  0  0  0  0  0
   39.4260   33.4400   48.0470 C   0  0  0  0  0  0  0  0  0  0  0  0
   40.1750   34.1590   47.7670 H   0  0  0  0  0  0  0  0  0  0  0  0
   39.1170   32.3510   47.2500 C   0  0  0  0  0  0  0  0  0  0  0  0
   39.6110   32.1780   46.3210 H   0  0  0  0  0  0  0  0  0  0  0  0
   38.1500   31.4390   47.6300 C   0  0  0  0  0  0  0  0  0  0  0  0
   32.9300   27.4210   48.5730 O   0  0  0  0  0  0  0  0  0  0  0  0
   31.5500   27.5760   48.7410 C   0  0  0  0  0  0  0  0  0  0  0  0
   31.2040   28.2100   49.9340 F   0  0  0  0  0  0  0  0  0  0  0  0
   30.9100   28.2030   47.6990 F   0  0  0  0  0  0  0  0  0  0  0  0
   31.0480   26.2770   48.8280 F   0  0  0  0  0  0  0  0  0  0  0  0
  1 23  1  0  0  0  0
  1  2  1  0  0  0  0
  2  7  1  0  0  0  0
  3  2  2  0  0  0  0
  3 12  1  0  0  0  0
  4  3  1  0  0  0  0
  5  6  1  0  0  0  0
  5  4  2  0  0  0  0
  6  1  2  0  0  0  0
  8  5  1  0  0  0  0
  9  8  1  0  0  0  0
 10  8  1  0  0  0  0
 11  8  1  0  0  0  0
 12 13  2  0  0  0  0
 14 12  1  0  0  0  0
 14 15  1  0  0  0  0
 15 16  1  0  0  0  0
 17 15  2  0  0  0  0
 18 17  1  0  0  0  0
 19 18  1  0  0  0  0
 20 22  1  0  0  0  0
 20 18  2  0  0  0  0
 21 20  1  0  0  0  0
 22 14  2  0  0  0  0
 23 24  1  0  0  0  0
 24 27  1  0  0  0  0
 24 25  1  0  0  0  0
 26 24  1  0  0  0  0
M  END
>  <minimizedAffinity>
-5.73022556

>  <minimizedRMSD>
4.40137386

$$$$
