
 OpenBabel03252514083D

 39 42  0  0  0  0  0  0  0  0999 V2000
   34.4990   30.0950   47.4830 C   0  0  0  0  0  0  0  0  0  0  0  0
   35.4450   29.9260   48.4970 C   0  0  0  0  0  0  0  0  0  0  0  0
   35.4100   28.7180   49.2040 C   0  0  0  0  0  0  0  0  0  0  0  0
   34.4730   27.8010   48.8680 N   0  0  0  0  0  0  0  0  0  0  0  0
   33.5770   27.9750   47.8990 C   0  0  0  0  0  0  0  0  0  0  0  0
   33.6000   29.1250   47.2150 N   0  0  0  0  0  0  0  0  0  0  0  0
   34.4840   31.0220   46.8980 H   0  0  0  0  0  0  0  0  0  0  0  0
   36.1340   28.5870   49.9830 H   0  0  0  0  0  0  0  0  0  0  0  0
   36.3640   30.9790   48.7350 N   0  0  0  0  0  0  0  0  0  0  0  0
   36.3690   31.7430   49.8690 C   0  0  0  0  0  0  0  0  0  0  0  0
   37.3650   32.6500   49.7770 N   0  0  0  0  0  0  0  0  0  0  0  0
   37.9620   32.4430   48.6030 C   0  0  0  0  0  0  0  0  0  0  0  0
   39.0260   33.0420   47.9530 C   0  0  0  0  0  0  0  0  0  0  0  0
   39.4350   32.6340   46.7540 N   0  0  0  0  0  0  0  0  0  0  0  0
   38.8230   31.5980   46.0930 C   0  0  0  0  0  0  0  0  0  0  0  0
   37.7910   31.0210   46.7280 N   0  0  0  0  0  0  0  0  0  0  0  0
   37.3490   31.3950   47.9290 C   0  0  0  0  0  0  0  0  0  0  0  0
   35.7120   31.6820   50.7290 H   0  0  0  0  0  0  0  0  0  0  0  0
   39.1680   31.2810   45.1210 H   0  0  0  0  0  0  0  0  0  0  0  0
   39.7070   34.1130   48.5650 N   0  0  0  0  0  0  0  0  0  0  0  0
   39.5260   35.1370   48.4020 H   0  0  0  0  0  0  0  0  0  0  0  0
   40.4520   33.8380   49.2310 H   0  0  0  0  0  0  0  0  0  0  0  0
   32.5520   26.9780   47.5330 C   0  0  0  0  0  0  0  0  0  0  0  0
   31.4310   26.9870   48.5600 C   0  0  0  0  0  0  0  0  0  0  0  0
   30.9930   27.9860   48.6350 H   0  0  0  0  0  0  0  0  0  0  0  0
   30.6370   26.2940   48.2170 H   0  0  0  0  0  0  0  0  0  0  0  0
   31.7910   26.5890   49.5340 H   0  0  0  0  0  0  0  0  0  0  0  0
   31.8890   27.3220   46.2080 C   0  0  0  0  0  0  0  0  0  0  0  0
   31.7930   26.4810   45.5240 H   0  0  0  0  0  0  0  0  0  0  0  0
   30.8750   27.7530   46.3300 H   0  0  0  0  0  0  0  0  0  0  0  0
   32.4850   28.1320   45.7290 H   0  0  0  0  0  0  0  0  0  0  0  0
   33.1240   25.5900   47.3930 C   0  0  0  0  0  0  0  0  0  0  0  0
   33.7030   25.3800   48.3260 H   0  0  0  0  0  0  0  0  0  0  0  0
   32.3360   24.8120   47.3750 H   0  0  0  0  0  0  0  0  0  0  0  0
   33.9350   25.4380   46.1650 C   0  0  0  0  0  0  0  0  0  0  0  0
   34.0640   26.1890   45.0600 C   0  0  0  0  0  3  0  0  0  0  0  0
   34.8860   25.8440   44.0420 C   0  0  0  0  0  3  0  0  0  0  0  0
   35.5900   24.6340   44.2470 C   0  0  0  0  0  3  0  0  0  0  0  0
   35.0000   24.0890   45.9130 S   0  0  0  0  0  0  0  0  0  0  0  0
  1  2  1  0  0  0  0
  2  9  1  0  0  0  0
  2  3  2  0  0  0  0
  3  8  1  0  0  0  0
  4  3  1  0  0  0  0
  5  4  2  0  0  0  0
  6  1  2  0  0  0  0
  6  5  1  0  0  0  0
  7  1  1  0  0  0  0
  9 10  1  0  0  0  0
 10 18  1  0  0  0  0
 11 10  2  0  0  0  0
 12 11  1  0  0  0  0
 13 20  1  0  0  0  0
 13 12  1  0  0  0  0
 14 13  2  0  0  0  0
 15 16  2  0  0  0  0
 15 14  1  0  0  0  0
 16 17  1  0  0  0  0
 17 12  2  0  0  0  0
 17  9  1  0  0  0  0
 19 15  1  0  0  0  0
 20 22  1  0  0  0  0
 21 20  1  0  0  0  0
 23  5  1  0  0  0  0
 23 24  1  0  0  0  0
 24 25  1  0  0  0  0
 24 27  1  0  0  0  0
 26 24  1  0  0  0  0
 28 30  1  0  0  0  0
 28 23  1  0  0  0  0
 29 28  1  0  0  0  0
 31 28  1  0  0  0  0
 32 23  1  0  0  0  0
 32 33  1  0  0  0  0
 34 32  1  0  0  0  0
 35 32  1  0  0  0  0
 36 35  2  0  0  0  0
 37 38  2  0  0  0  0
 37 36  1  0  0  0  0
 38 39  1  0  0  0  0
 39 35  1  0  0  0  0
M  END
>  <minimizedAffinity>
-5.53826714

>  <minimizedRMSD>
0.483013004

$$$$
