
 OpenBabel03252514043D

 34 37  0  0  1  0  0  0  0  0999 V2000
   35.2610   29.2460   48.6860 C   0  0  2  0  0  0  0  0  0  0  0  0
   34.0770   29.2740   49.5390 C   0  0  0  0  0  0  0  0  0  0  0  0
   34.4550   27.9660   49.0850 C   0  0  1  0  0  0  0  0  0  0  0  0
   35.2960   29.4780   47.6200 H   0  0  0  0  0  0  0  0  0  0  0  0
   33.1360   29.7850   49.2040 H   0  0  0  0  0  0  0  0  0  0  0  0
   34.2430   29.5000   50.6320 H   0  0  0  0  0  0  0  0  0  0  0  0
   35.0610   27.2260   49.6030 H   0  0  0  0  0  0  0  0  0  0  0  0
   36.6190   29.2660   49.4070 C   0  0  0  0  0  0  0  0  0  0  0  0
   37.1920   28.3500   49.1480 H   0  0  0  0  0  0  0  0  0  0  0  0
   36.4400   29.2460   50.5000 H   0  0  0  0  0  0  0  0  0  0  0  0
   37.7020   32.7540   49.5410 C   0  0  0  0  0  0  0  0  0  0  0  0
   38.5390   32.8620   48.4250 C   0  0  0  0  0  0  0  0  0  0  0  0
   38.7220   31.7080   47.6300 C   0  0  0  0  0  0  0  0  0  0  0  0
   38.0710   30.5550   47.9950 N   0  0  0  0  0  0  0  0  0  0  0  0
   37.2840   30.5140   49.0710 C   0  0  0  0  0  0  0  0  0  0  0  0
   37.1050   31.6220   49.8400 N   0  0  0  0  0  0  0  0  0  0  0  0
   37.5030   33.5830   50.2070 H   0  0  0  0  0  0  0  0  0  0  0  0
   39.0030   33.8040   48.2240 H   0  0  0  0  0  0  0  0  0  0  0  0
   39.3610   31.7980   46.7830 H   0  0  0  0  0  0  0  0  0  0  0  0
   33.5790   27.3750   47.9990 C   0  0  0  0  0  0  0  0  0  0  0  0
   33.9510   26.1880   47.6430 O   0  0  0  0  0  0  0  0  0  0  0  0
   32.4710   27.9790   47.4040 O   0  0  0  0  0  0  0  0  0  0  0  0
   31.2230   27.9760   47.9670 C   0  0  0  0  0  0  0  0  0  0  0  0
   30.8690   27.3260   49.2570 C   0  0  0  0  0  0  0  0  0  0  0  0
   29.5850   27.4200   49.6680 C   0  0  0  0  0  0  0  0  0  0  0  0
   28.6080   28.1050   48.9160 C   0  0  0  0  0  0  0  0  0  0  0  0
   29.5540   28.7070   47.4420 S   0  0  0  0  0  0  0  0  0  0  0  0
   31.6620   26.8230   49.7760 H   0  0  0  0  0  0  0  0  0  0  0  0
   29.2510   26.9760   50.5890 H   0  0  0  0  0  0  0  0  0  0  0  0
   27.3140   28.3350   49.0990 N   0  0  0  0  0  0  0  0  0  0  0  0
   26.4210   28.6380   48.1380 C   0  0  0  0  0  3  0  0  0  0  0  0
   25.1580   28.8100   48.7150 C   0  0  0  0  0  3  0  0  0  0  0  0
   25.3380   28.5970   50.0510 N   0  0  0  0  0  0  0  0  0  0  0  0
   26.6510   28.3090   50.2700 C   0  0  0  0  0  3  0  0  0  0  0  0
  1  4  1  6  0  0  0
  1  3  1  0  0  0  0
  1  8  1  0  0  0  0
  1  2  1  0  0  0  0
  2  6  1  0  0  0  0
  3  2  1  0  0  0  0
  3  7  1  1  0  0  0
  5  2  1  0  0  0  0
  8 10  1  0  0  0  0
  9  8  1  0  0  0  0
 11 16  1  0  0  0  0
 11 17  1  0  0  0  0
 12 11  2  0  0  0  0
 13 14  2  0  0  0  0
 13 12  1  0  0  0  0
 14 15  1  0  0  0  0
 15  8  1  0  0  0  0
 15 16  2  0  0  0  0
 18 12  1  0  0  0  0
 19 13  1  0  0  0  0
 20  3  1  0  0  0  0
 21 20  2  0  0  0  0
 22 23  1  0  0  0  0
 22 20  1  0  0  0  0
 23 24  2  0  0  0  0
 24 25  1  0  0  0  0
 24 28  1  0  0  0  0
 25 29  1  0  0  0  0
 26 30  1  0  0  0  0
 26 25  2  0  0  0  0
 27 23  1  0  0  0  0
 27 26  1  0  0  0  0
 30 34  1  0  0  0  0
 31 32  2  0  0  0  0
 31 30  1  0  0  0  0
 32 33  1  0  0  0  0
 33 34  2  0  0  0  0
M  END
>  <minimizedAffinity>
-6.05680466

>  <minimizedRMSD>
1.34959877

$$$$
