
 OpenBabel03252512113D

 28 31  0  0  0  0  0  0  0  0999 V2000
   35.6770   30.0530   47.8460 C   0  0  0  0  0  0  0  0  0  0  0  0
   36.6520   30.7000   47.1090 C   0  0  0  0  0  0  0  0  0  0  0  0
   37.6840   31.0390   47.9000 N   0  0  0  0  0  0  0  0  0  0  0  0
   37.4020   30.6230   49.1470 C   0  0  0  0  0  0  0  0  0  0  0  0
   38.1020   30.7050   50.3530 C   0  0  0  0  0  0  0  0  0  0  0  0
   37.5460   30.1760   51.4920 C   0  0  0  0  0  0  0  0  0  0  0  0
   36.3110   29.5730   51.4410 C   0  0  0  0  0  0  0  0  0  0  0  0
   35.5670   29.4640   50.2630 C   0  0  0  0  0  0  0  0  0  0  0  0
   36.1550   30.0050   49.1350 C   0  0  0  0  0  0  0  0  0  0  0  0
   36.6710   30.9420   46.0520 H   0  0  0  0  0  0  0  0  0  0  0  0
   38.5670   31.5310   47.6560 H   0  0  0  0  0  0  0  0  0  0  0  0
   39.0740   31.1730   50.4180 H   0  0  0  0  0  0  0  0  0  0  0  0
   38.0310   30.2020   52.4700 H   0  0  0  0  0  0  0  0  0  0  0  0
   35.8400   29.1450   52.3200 H   0  0  0  0  0  0  0  0  0  0  0  0
   34.6020   28.9900   50.2360 H   0  0  0  0  0  0  0  0  0  0  0  0
   32.4100   29.8300   46.1520 C   0  0  0  0  0  0  0  0  0  0  0  0
   32.1120   28.4780   46.2880 C   0  0  0  0  0  0  0  0  0  0  0  0
   33.0330   27.6560   46.9580 C   0  0  0  0  0  0  0  0  0  0  0  0
   34.1720   28.2450   47.4370 N   0  0  0  0  0  0  0  0  0  0  0  0
   34.4250   29.5540   47.2880 C   0  0  0  0  0  0  0  0  0  0  0  0
   33.5560   30.3480   46.6510 N   0  0  0  0  0  0  0  0  0  0  0  0
   31.6720   30.4270   45.6280 H   0  0  0  0  0  0  0  0  0  0  0  0
   31.2190   27.9960   45.9160 H   0  0  0  0  0  0  0  0  0  0  0  0
   32.8640   26.2500   47.1730 N   0  0  0  0  0  0  0  0  0  0  0  0
   33.9060   25.4600   46.8490 C   0  0  0  0  0  0  0  0  0  0  0  0
   33.5300   24.1640   47.1350 C   0  0  0  0  0  0  0  0  0  0  0  0
   32.2760   24.1900   47.6250 N   0  0  0  0  0  0  0  0  0  0  0  0
   31.8460   25.4810   47.6560 C   0  0  0  0  0  0  0  0  0  0  0  0
  1  9  1  0  0  0  0
  2  1  2  0  0  0  0
  2  3  1  0  0  0  0
  3  4  1  0  0  0  0
  4  5  1  0  0  0  0
  5 12  1  0  0  0  0
  5  6  2  0  0  0  0
  6 13  1  0  0  0  0
  7  6  1  0  0  0  0
  7 14  1  0  0  0  0
  8  7  2  0  0  0  0
  9  4  2  0  0  0  0
  9  8  1  0  0  0  0
 10  2  1  0  0  0  0
 11  3  1  0  0  0  0
 15  8  1  0  0  0  0
 16 17  2  0  0  0  0
 16 21  1  0  0  0  0
 17 18  1  0  0  0  0
 18 24  1  0  0  0  0
 18 19  2  0  0  0  0
 20 19  1  0  0  0  0
 20  1  1  0  0  0  0
 21 20  2  0  0  0  0
 22 16  1  0  0  0  0
 23 17  1  0  0  0  0
 24 28  1  0  0  0  0
 25 26  2  0  0  0  0
 25 24  1  0  0  0  0
 26 27  1  0  0  0  0
 27 28  2  0  0  0  0
M  END
>  <minimizedAffinity>
-5.73101807

>  <minimizedRMSD>
0.433738321

$$$$
