
 OpenBabel03252513143D

 41 44  0  0  0  0  0  0  0  0999 V2000
   36.8430   30.7860   46.1020 C   0  0  0  0  0  0  0  0  0  0  0  0
   35.8260   30.0260   46.6610 C   0  0  0  0  0  0  0  0  0  0  0  0
   35.5190   29.9840   47.9840 C   0  0  0  0  0  0  0  0  0  0  0  0
   36.2380   30.7300   48.8780 C   0  0  0  0  0  0  0  0  0  0  0  0
   37.2450   31.4950   48.3970 C   0  0  0  0  0  0  0  0  0  0  0  0
   37.9680   32.2490   49.3060 C   0  0  0  0  0  0  0  0  0  0  0  0
   39.0030   33.0490   48.9070 C   0  0  0  0  0  0  0  0  0  0  0  0
   39.3120   33.0880   47.5580 C   0  0  0  0  0  0  0  0  0  0  0  0
   38.5720   32.3290   46.6940 C   0  0  0  0  0  0  0  0  0  0  0  0
   37.5420   31.5240   47.0490 C   0  0  0  0  0  0  0  0  0  0  0  0
   35.2170   29.4100   46.0040 H   0  0  0  0  0  0  0  0  0  0  0  0
   34.7080   29.3660   48.3510 H   0  0  0  0  0  0  0  0  0  0  0  0
   37.7810   32.2660   50.3690 H   0  0  0  0  0  0  0  0  0  0  0  0
   39.5950   33.6530   49.5760 H   0  0  0  0  0  0  0  0  0  0  0  0
   40.1240   33.7140   47.2180 H   0  0  0  0  0  0  0  0  0  0  0  0
   38.8440   32.3850   45.6390 H   0  0  0  0  0  0  0  0  0  0  0  0
   36.1230   31.3330   42.6160 C   0  0  0  0  0  0  0  0  0  0  0  0
   37.3100   31.0160   41.9260 C   0  0  0  0  0  0  0  0  0  0  0  0
   38.3680   30.6090   42.6610 C   0  0  0  0  0  0  0  0  0  0  0  0
   38.1920   30.5450   43.9720 N   0  0  0  0  0  0  0  0  0  0  0  0
   37.1510   30.8140   44.6860 C   0  0  0  0  0  0  0  0  0  0  0  0
   36.1240   31.2110   43.9440 N   0  0  0  0  0  0  0  0  0  0  0  0
   35.2550   31.6650   42.0350 H   0  0  0  0  0  0  0  0  0  0  0  0
   39.6270   30.2460   42.1060 N   0  0  0  0  0  0  0  0  0  0  0  0
   40.7520   29.9270   42.9100 C   0  0  0  0  0  0  0  0  0  0  0  0
   40.9570   30.6470   43.9650 N   0  0  0  0  0  0  0  0  0  0  0  0
   41.6150   28.8600   42.5660 N   0  0  0  0  0  0  0  0  0  0  0  0
   41.7020   30.5440   44.6430 H   0  0  0  0  0  0  0  0  0  0  0  0
   39.7500   30.2020   41.0470 H   0  0  0  0  0  0  0  0  0  0  0  0
   41.6880   27.9850   43.1310 H   0  0  0  0  0  0  0  0  0  0  0  0
   42.3090   28.5770   41.8570 H   0  0  0  0  0  0  0  0  0  0  0  0
   37.4190   31.1130   40.5040 N   0  0  0  0  0  0  0  0  0  0  0  0
   37.2560   30.1780   39.5410 C   0  0  0  0  0  0  0  0  0  0  0  0
   37.4820   30.8220   38.3370 C   0  0  0  0  0  0  0  0  0  0  0  0
   37.7770   32.1150   38.5550 N   0  0  0  0  0  0  0  0  0  0  0  0
   37.7350   32.2870   39.8900 C   0  0  0  0  0  0  0  0  0  0  0  0
   35.9130   30.6760   50.2150 O   0  0  0  0  0  0  0  0  0  0  0  0
   36.4230   29.6320   51.0340 C   0  0  0  0  0  0  0  0  0  0  0  0
   37.2370   28.7400   50.4130 F   0  0  0  0  0  0  0  0  0  0  0  0
   37.2020   30.2350   52.0200 F   0  0  0  0  0  0  0  0  0  0  0  0
   35.3160   28.9980   51.5880 F   0  0  0  0  0  0  0  0  0  0  0  0
  1  2  2  0  0  0  0
  1 10  1  0  0  0  0
  2  3  1  0  0  0  0
  3 12  1  0  0  0  0
  3  4  2  0  0  0  0
  4 37  1  0  0  0  0
  5  4  1  0  0  0  0
  5  6  1  0  0  0  0
  6 13  1  0  0  0  0
  7  6  2  0  0  0  0
  7 14  1  0  0  0  0
  8  7  1  0  0  0  0
  9 10  1  0  0  0  0
  9  8  2  0  0  0  0
 10  5  2  0  0  0  0
 11  2  1  0  0  0  0
 15  8  1  0  0  0  0
 16  9  1  0  0  0  0
 17 22  1  0  0  0  0
 18 17  2  0  0  0  0
 18 19  1  0  0  0  0
 19 20  2  0  0  0  0
 20 21  1  0  0  0  0
 21  1  1  0  0  0  0
 22 21  2  0  0  0  0
 23 17  1  0  0  0  0
 24 19  1  0  0  0  0
 24 25  1  0  0  0  0
 25 26  2  0  0  0  0
 26 28  1  0  0  0  0
 27 25  1  0  0  0  0
 27 30  1  0  0  0  0
 29 24  1  0  0  0  0
 31 27  1  0  0  0  0
 32 18  1  0  0  0  0
 33 32  1  0  0  0  0
 34 35  1  0  0  0  0
 34 33  2  0  0  0  0
 35 36  2  0  0  0  0
 36 32  1  0  0  0  0
 37 38  1  0  0  0  0
 38 41  1  0  0  0  0
 38 40  1  0  0  0  0
 39 38  1  0  0  0  0
M  END
>  <minimizedAffinity>
-7.36574841

>  <minimizedRMSD>
0.0433845446

$$$$
