
 OpenBabel03252514033D

 34 37  0  0  1  0  0  0  0  0999 V2000
   35.2530   29.1870   48.5960 C   0  0  2  0  0  0  0  0  0  0  0  0
   34.0330   29.3250   49.3870 C   0  0  0  0  0  0  0  0  0  0  0  0
   34.3860   27.9720   49.0620 C   0  0  1  0  0  0  0  0  0  0  0  0
   35.3430   29.3260   47.5170 H   0  0  0  0  0  0  0  0  0  0  0  0
   33.1270   29.8340   48.9650 H   0  0  0  0  0  0  0  0  0  0  0  0
   34.1590   29.6380   50.4630 H   0  0  0  0  0  0  0  0  0  0  0  0
   34.9430   27.2600   49.6690 H   0  0  0  0  0  0  0  0  0  0  0  0
   36.5780   29.2280   49.3760 C   0  0  0  0  0  0  0  0  0  0  0  0
   37.1760   28.3210   49.1420 H   0  0  0  0  0  0  0  0  0  0  0  0
   36.3510   29.2030   50.4600 H   0  0  0  0  0  0  0  0  0  0  0  0
   37.6140   32.7270   49.5720 C   0  0  0  0  0  0  0  0  0  0  0  0
   38.4820   32.8550   48.4830 C   0  0  0  0  0  0  0  0  0  0  0  0
   38.7030   31.7100   47.6840 C   0  0  0  0  0  0  0  0  0  0  0  0
   38.0550   30.5460   48.0190 N   0  0  0  0  0  0  0  0  0  0  0  0
   37.2370   30.4860   49.0710 C   0  0  0  0  0  0  0  0  0  0  0  0
   37.0220   31.5850   49.8440 N   0  0  0  0  0  0  0  0  0  0  0  0
   37.3850   33.5480   50.2390 H   0  0  0  0  0  0  0  0  0  0  0  0
   38.9400   33.8040   48.3040 H   0  0  0  0  0  0  0  0  0  0  0  0
   39.3660   31.8150   46.8570 H   0  0  0  0  0  0  0  0  0  0  0  0
   33.5390   27.3170   47.9900 C   0  0  0  0  0  0  0  0  0  0  0  0
   33.8750   26.0870   47.7650 O   0  0  0  0  0  0  0  0  0  0  0  0
   32.4910   27.9060   47.2840 O   0  0  0  0  0  0  0  0  0  0  0  0
   31.2380   28.0780   47.8070 C   0  0  0  0  0  0  0  0  0  0  0  0
   30.7970   27.5990   49.1450 C   0  0  0  0  0  0  0  0  0  0  0  0
   29.5200   27.8550   49.5060 C   0  0  0  0  0  0  0  0  0  0  0  0
   28.6290   28.5490   48.6610 C   0  0  0  0  0  0  0  0  0  0  0  0
   29.6580   28.9060   47.1630 S   0  0  0  0  0  0  0  0  0  0  0  0
   31.5270   27.0790   49.7340 H   0  0  0  0  0  0  0  0  0  0  0  0
   29.1260   27.5400   50.4560 H   0  0  0  0  0  0  0  0  0  0  0  0
   27.3600   28.9160   48.7820 N   0  0  0  0  0  0  0  0  0  0  0  0
   26.2980   28.0880   48.8410 C   0  0  0  0  0  0  0  0  0  0  0  0
   25.1270   28.8440   48.9660 C   0  0  0  0  0  0  0  0  0  0  0  0
   25.5360   30.1460   48.9810 N   0  0  0  0  0  0  0  0  0  0  0  0
   26.8920   30.1760   48.8690 C   0  0  0  0  0  0  0  0  0  0  0  0
  1  4  1  6  0  0  0
  1  3  1  0  0  0  0
  1  8  1  0  0  0  0
  1  2  1  0  0  0  0
  2  6  1  0  0  0  0
  3  2  1  0  0  0  0
  3  7  1  1  0  0  0
  5  2  1  0  0  0  0
  8 10  1  0  0  0  0
  9  8  1  0  0  0  0
 11 16  1  0  0  0  0
 11 17  1  0  0  0  0
 12 11  2  0  0  0  0
 13 14  2  0  0  0  0
 13 12  1  0  0  0  0
 14 15  1  0  0  0  0
 15  8  1  0  0  0  0
 15 16  2  0  0  0  0
 18 12  1  0  0  0  0
 19 13  1  0  0  0  0
 20  3  1  0  0  0  0
 21 20  2  0  0  0  0
 22 23  1  0  0  0  0
 22 20  1  0  0  0  0
 23 24  2  0  0  0  0
 24 25  1  0  0  0  0
 24 28  1  0  0  0  0
 25 29  1  0  0  0  0
 26 30  1  0  0  0  0
 26 25  2  0  0  0  0
 27 23  1  0  0  0  0
 27 26  1  0  0  0  0
 30 31  1  0  0  0  0
 30 34  1  0  0  0  0
 31 32  2  0  0  0  0
 32 33  1  0  0  0  0
 34 33  2  0  0  0  0
M  END
>  <minimizedAffinity>
-6.1812048

>  <minimizedRMSD>
1.59635913

$$$$
