
 OpenBabel03252514083D

 39 42  0  0  0  0  0  0  0  0999 V2000
   34.1740   30.0510   47.5540 C   0  0  0  0  0  0  0  0  0  0  0  0
   35.1470   29.8320   48.5330 C   0  0  0  0  0  0  0  0  0  0  0  0
   35.0300   28.6640   49.2950 C   0  0  0  0  0  0  0  0  0  0  0  0
   33.9950   27.8290   49.0420 N   0  0  0  0  0  0  0  0  0  0  0  0
   33.0740   28.0490   48.1050 C   0  0  0  0  0  0  0  0  0  0  0  0
   33.1760   29.1630   47.3690 N   0  0  0  0  0  0  0  0  0  0  0  0
   34.2200   30.9500   46.9290 H   0  0  0  0  0  0  0  0  0  0  0  0
   35.7740   28.4950   50.0470 H   0  0  0  0  0  0  0  0  0  0  0  0
   36.1730   30.8000   48.6830 N   0  0  0  0  0  0  0  0  0  0  0  0
   36.4320   31.4570   49.8530 C   0  0  0  0  0  0  0  0  0  0  0  0
   37.4640   32.3040   49.6550 N   0  0  0  0  0  0  0  0  0  0  0  0
   37.8320   32.1650   48.3810 C   0  0  0  0  0  0  0  0  0  0  0  0
   38.8120   32.7520   47.6000 C   0  0  0  0  0  0  0  0  0  0  0  0
   38.9750   32.4280   46.3190 N   0  0  0  0  0  0  0  0  0  0  0  0
   38.1800   31.4950   45.7010 C   0  0  0  0  0  0  0  0  0  0  0  0
   37.2310   30.9300   46.4640 N   0  0  0  0  0  0  0  0  0  0  0  0
   37.0330   31.2230   47.7490 C   0  0  0  0  0  0  0  0  0  0  0  0
   35.9310   31.3610   50.8090 H   0  0  0  0  0  0  0  0  0  0  0  0
   38.3260   31.2450   44.6620 H   0  0  0  0  0  0  0  0  0  0  0  0
   39.6700   33.7190   48.1600 N   0  0  0  0  0  0  0  0  0  0  0  0
   39.5440   34.7620   48.1110 H   0  0  0  0  0  0  0  0  0  0  0  0
   40.4950   33.3390   48.6610 H   0  0  0  0  0  0  0  0  0  0  0  0
   31.9430   27.1430   47.8290 C   0  0  0  0  0  0  0  0  0  0  0  0
   30.8410   27.3650   48.8520 C   0  0  0  0  0  0  0  0  0  0  0  0
   30.5150   28.4090   48.8390 H   0  0  0  0  0  0  0  0  0  0  0  0
   29.9720   26.7360   48.5720 H   0  0  0  0  0  0  0  0  0  0  0  0
   31.1650   27.0170   49.8570 H   0  0  0  0  0  0  0  0  0  0  0  0
   31.3080   27.4410   46.4800 C   0  0  0  0  0  0  0  0  0  0  0  0
   31.1140   26.5580   45.8720 H   0  0  0  0  0  0  0  0  0  0  0  0
   30.3490   27.9890   46.5630 H   0  0  0  0  0  0  0  0  0  0  0  0
   31.9840   28.1350   45.9300 H   0  0  0  0  0  0  0  0  0  0  0  0
   32.3590   25.6940   47.8110 C   0  0  0  0  0  0  0  0  0  0  0  0
   33.0110   25.5310   48.7050 H   0  0  0  0  0  0  0  0  0  0  0  0
   31.5000   25.0100   47.9670 H   0  0  0  0  0  0  0  0  0  0  0  0
   33.0140   25.3130   46.5410 C   0  0  0  0  0  0  0  0  0  0  0  0
   34.2020   25.6260   46.0010 C   0  0  0  0  0  3  0  0  0  0  0  0
   34.5990   25.1500   44.7980 C   0  0  0  0  0  3  0  0  0  0  0  0
   33.6560   24.2990   44.1690 C   0  0  0  0  0  3  0  0  0  0  0  0
   32.2620   24.2600   45.3830 S   0  0  0  0  0  0  0  0  0  0  0  0
  1  2  1  0  0  0  0
  2  9  1  0  0  0  0
  2  3  2  0  0  0  0
  3  8  1  0  0  0  0
  4  3  1  0  0  0  0
  5  4  2  0  0  0  0
  6  1  2  0  0  0  0
  6  5  1  0  0  0  0
  7  1  1  0  0  0  0
  9 10  1  0  0  0  0
 10 18  1  0  0  0  0
 11 10  2  0  0  0  0
 12 11  1  0  0  0  0
 13 20  1  0  0  0  0
 13 12  2  0  0  0  0
 14 13  1  0  0  0  0
 15 14  2  0  0  0  0
 15 16  1  0  0  0  0
 16 17  2  0  0  0  0
 17 12  1  0  0  0  0
 17  9  1  0  0  0  0
 19 15  1  0  0  0  0
 20 22  1  0  0  0  0
 21 20  1  0  0  0  0
 23  5  1  0  0  0  0
 23 24  1  0  0  0  0
 24 27  1  0  0  0  0
 25 24  1  0  0  0  0
 26 24  1  0  0  0  0
 28 30  1  0  0  0  0
 28 23  1  0  0  0  0
 29 28  1  0  0  0  0
 31 28  1  0  0  0  0
 32 23  1  0  0  0  0
 32 34  1  0  0  0  0
 32 33  1  0  0  0  0
 35 32  1  0  0  0  0
 36 35  2  0  0  0  0
 37 36  1  0  0  0  0
 38 37  2  0  0  0  0
 38 39  1  0  0  0  0
 39 35  1  0  0  0  0
M  END
>  <minimizedAffinity>
-5.35665083

>  <minimizedRMSD>
1.06059206

$$$$
