
 OpenBabel03252514083D

 39 42  0  0  0  0  0  0  0  0999 V2000
   34.1750   30.0520   47.5540 C   0  0  0  0  0  0  0  0  0  0  0  0
   35.1470   29.8330   48.5330 C   0  0  0  0  0  0  0  0  0  0  0  0
   35.0300   28.6640   49.2950 C   0  0  0  0  0  0  0  0  0  0  0  0
   33.9960   27.8300   49.0420 N   0  0  0  0  0  0  0  0  0  0  0  0
   33.0750   28.0500   48.1050 C   0  0  0  0  0  0  0  0  0  0  0  0
   33.1760   29.1640   47.3690 N   0  0  0  0  0  0  0  0  0  0  0  0
   34.2210   30.9510   46.9290 H   0  0  0  0  0  0  0  0  0  0  0  0
   35.7750   28.4950   50.0470 H   0  0  0  0  0  0  0  0  0  0  0  0
   36.1730   30.8000   48.6830 N   0  0  0  0  0  0  0  0  0  0  0  0
   36.4330   31.4580   49.8530 C   0  0  0  0  0  0  0  0  0  0  0  0
   37.4650   32.3040   49.6550 N   0  0  0  0  0  0  0  0  0  0  0  0
   37.8330   32.1660   48.3810 C   0  0  0  0  0  0  0  0  0  0  0  0
   38.8130   32.7520   47.6000 C   0  0  0  0  0  0  0  0  0  0  0  0
   38.9760   32.4280   46.3190 N   0  0  0  0  0  0  0  0  0  0  0  0
   38.1800   31.4960   45.7000 C   0  0  0  0  0  0  0  0  0  0  0  0
   37.2310   30.9310   46.4630 N   0  0  0  0  0  0  0  0  0  0  0  0
   37.0340   31.2240   47.7490 C   0  0  0  0  0  0  0  0  0  0  0  0
   35.9320   31.3620   50.8090 H   0  0  0  0  0  0  0  0  0  0  0  0
   38.3260   31.2460   44.6610 H   0  0  0  0  0  0  0  0  0  0  0  0
   39.6710   33.7190   48.1600 N   0  0  0  0  0  0  0  0  0  0  0  0
   39.5450   34.7630   48.1110 H   0  0  0  0  0  0  0  0  0  0  0  0
   40.4960   33.3390   48.6600 H   0  0  0  0  0  0  0  0  0  0  0  0
   31.9440   27.1440   47.8290 C   0  0  0  0  0  0  0  0  0  0  0  0
   30.8420   27.3660   48.8520 C   0  0  0  0  0  0  0  0  0  0  0  0
   30.5160   28.4100   48.8390 H   0  0  0  0  0  0  0  0  0  0  0  0
   29.9730   26.7370   48.5720 H   0  0  0  0  0  0  0  0  0  0  0  0
   31.1660   27.0180   49.8580 H   0  0  0  0  0  0  0  0  0  0  0  0
   31.3090   27.4420   46.4800 C   0  0  0  0  0  0  0  0  0  0  0  0
   31.1140   26.5590   45.8720 H   0  0  0  0  0  0  0  0  0  0  0  0
   30.3500   27.9900   46.5640 H   0  0  0  0  0  0  0  0  0  0  0  0
   31.9850   28.1360   45.9300 H   0  0  0  0  0  0  0  0  0  0  0  0
   32.3590   25.6950   47.8110 C   0  0  0  0  0  0  0  0  0  0  0  0
   33.0110   25.5310   48.7050 H   0  0  0  0  0  0  0  0  0  0  0  0
   31.5010   25.0110   47.9670 H   0  0  0  0  0  0  0  0  0  0  0  0
   33.0150   25.3140   46.5420 C   0  0  0  0  0  0  0  0  0  0  0  0
   34.2020   25.6290   46.0000 C   0  0  0  0  0  3  0  0  0  0  0  0
   34.5980   25.1510   44.7970 C   0  0  0  0  0  3  0  0  0  0  0  0
   33.6560   24.2990   44.1700 C   0  0  0  0  0  3  0  0  0  0  0  0
   32.2630   24.2590   45.3840 S   0  0  0  0  0  0  0  0  0  0  0  0
  1  2  1  0  0  0  0
  2  9  1  0  0  0  0
  2  3  2  0  0  0  0
  3  8  1  0  0  0  0
  4  3  1  0  0  0  0
  5  4  2  0  0  0  0
  6  1  2  0  0  0  0
  6  5  1  0  0  0  0
  7  1  1  0  0  0  0
  9 10  1  0  0  0  0
 10 18  1  0  0  0  0
 11 10  2  0  0  0  0
 12 11  1  0  0  0  0
 13 20  1  0  0  0  0
 13 12  2  0  0  0  0
 14 13  1  0  0  0  0
 15 14  2  0  0  0  0
 15 16  1  0  0  0  0
 16 17  2  0  0  0  0
 17 12  1  0  0  0  0
 17  9  1  0  0  0  0
 19 15  1  0  0  0  0
 20 22  1  0  0  0  0
 21 20  1  0  0  0  0
 23  5  1  0  0  0  0
 23 24  1  0  0  0  0
 24 27  1  0  0  0  0
 25 24  1  0  0  0  0
 26 24  1  0  0  0  0
 28 30  1  0  0  0  0
 28 23  1  0  0  0  0
 29 28  1  0  0  0  0
 31 28  1  0  0  0  0
 32 23  1  0  0  0  0
 32 34  1  0  0  0  0
 32 33  1  0  0  0  0
 35 32  1  0  0  0  0
 36 35  2  0  0  0  0
 37 36  1  0  0  0  0
 38 37  2  0  0  0  0
 38 39  1  0  0  0  0
 39 35  1  0  0  0  0
M  END
>  <minimizedAffinity>
-5.35600567

>  <minimizedRMSD>
1.15124476

$$$$
