
 OpenBabel03252512003D

 20 21  0  0  0  0  0  0  0  0999 V2000
   37.5690   32.5330   49.4010 C   0  0  0  0  0  0  0  0  0  0  0  0
   37.8960   33.1760   50.2700 H   0  0  0  0  0  0  0  0  0  0  0  0
   36.8840   33.0900   48.7350 H   0  0  0  0  0  0  0  0  0  0  0  0
   35.6630   30.9940   49.4420 C   0  0  0  0  0  0  0  0  0  0  0  0
   36.9230   31.3780   49.9640 C   0  0  0  0  0  0  0  0  0  0  0  0
   37.4400   30.6110   51.0010 C   0  0  0  0  0  0  0  0  0  0  0  0
   36.7100   29.5470   51.4480 N   0  0  0  0  0  0  0  0  0  0  0  0
   35.5130   29.2120   50.9250 C   0  0  0  0  0  0  0  0  0  0  0  0
   34.9920   29.9320   49.9260 N   0  0  0  0  0  0  0  0  0  0  0  0
   35.2190   31.5670   48.6250 H   0  0  0  0  0  0  0  0  0  0  0  0
   38.3960   30.8640   51.4370 H   0  0  0  0  0  0  0  0  0  0  0  0
   34.9620   28.3620   51.3040 H   0  0  0  0  0  0  0  0  0  0  0  0
   38.8120   32.0760   48.6700 C   0  0  0  0  0  0  0  0  0  0  0  0
   39.6670   32.7010   49.0500 H   0  0  0  0  0  0  0  0  0  0  0  0
   39.0750   31.0430   48.9840 H   0  0  0  0  0  0  0  0  0  0  0  0
   38.6850   32.2010   47.2090 C   0  0  0  0  0  0  0  0  0  0  0  0
   37.7520   31.7790   46.2730 C   0  0  0  0  0  0  0  0  0  0  0  0
   37.9400   32.0740   44.9600 C   0  0  0  0  0  0  0  0  0  0  0  0
   39.1250   32.8290   44.5900 C   0  0  0  0  0  0  0  0  0  0  0  0
   39.9500   33.0940   46.1920 S   0  0  0  0  0  0  0  0  0  0  0  0
  1  5  1  0  0  0  0
  1  2  1  0  0  0  0
  3  1  1  0  0  0  0
  4  9  2  0  0  0  0
  4  5  1  0  0  0  0
  5  6  2  0  0  0  0
  6 11  1  0  0  0  0
  6  7  1  0  0  0  0
  8 12  1  0  0  0  0
  8  7  2  0  0  0  0
  9  8  1  0  0  0  0
 10  4  1  0  0  0  0
 13 15  1  0  0  0  0
 13 14  1  0  0  0  0
 13  1  1  0  0  0  0
 16 13  1  0  0  0  0
 17 16  2  0  0  0  0
 18 17  1  0  0  0  0
 19 18  2  0  0  0  0
 19 20  1  0  0  0  0
 20 16  1  0  0  0  0
M  END
>  <minimizedAffinity>
-4.47531128

>  <minimizedRMSD>
4.29239416

$$$$
