
 OpenBabel03252514013D

 29 31  0  0  1  0  0  0  0  0999 V2000
   35.4650   29.4520   49.1160 C   0  0  2  0  0  0  0  0  0  0  0  0
   34.4320   29.5450   50.1580 C   0  0  0  0  0  0  0  0  0  0  0  0
   34.6540   28.2290   49.5850 C   0  0  1  0  0  0  0  0  0  0  0  0
   35.2990   29.7950   48.0950 H   0  0  0  0  0  0  0  0  0  0  0  0
   34.7760   29.7840   51.2020 H   0  0  0  0  0  0  0  0  0  0  0  0
   33.5070   30.1310   49.9230 H   0  0  0  0  0  0  0  0  0  0  0  0
   35.3160   27.4610   50.0030 H   0  0  0  0  0  0  0  0  0  0  0  0
   36.9230   29.3730   49.5690 C   0  0  0  0  0  0  0  0  0  0  0  0
   36.9810   29.2740   50.6710 H   0  0  0  0  0  0  0  0  0  0  0  0
   37.3220   28.4500   49.1090 H   0  0  0  0  0  0  0  0  0  0  0  0
   38.3900   32.7240   49.3750 C   0  0  0  0  0  0  0  0  0  0  0  0
   38.9070   32.7680   48.0710 C   0  0  0  0  0  0  0  0  0  0  0  0
   38.7410   31.6290   47.2660 C   0  0  0  0  0  0  0  0  0  0  0  0
   38.0870   30.5410   47.7960 N   0  0  0  0  0  0  0  0  0  0  0  0
   37.6140   30.5550   49.0500 C   0  0  0  0  0  0  0  0  0  0  0  0
   37.7720   31.6500   49.8280 N   0  0  0  0  0  0  0  0  0  0  0  0
   38.5690   33.6440   49.9070 H   0  0  0  0  0  0  0  0  0  0  0  0
   39.4240   33.5530   47.5690 H   0  0  0  0  0  0  0  0  0  0  0  0
   39.0690   31.4900   46.2550 H   0  0  0  0  0  0  0  0  0  0  0  0
   33.5750   27.7360   48.6640 C   0  0  0  0  0  0  0  0  0  0  0  0
   33.9990   27.0460   47.6510 O   0  0  0  0  0  0  0  0  0  0  0  0
   32.2110   27.9430   48.8120 O   0  0  0  0  0  0  0  0  0  0  0  0
   31.3480   27.6980   47.7550 C   0  0  0  0  0  0  0  0  0  0  0  0
   31.1300   28.6130   46.7360 C   0  0  0  0  0  3  0  0  0  0  0  0
   30.2440   28.2760   45.7180 C   0  0  0  0  0  0  0  0  0  0  0  0
   30.0940   29.0050   44.9390 H   0  0  0  0  0  0  0  0  0  0  0  0
   29.6240   27.0830   45.7400 N   0  0  0  0  0  0  0  0  0  0  0  0
   29.8340   26.1790   46.7370 C   0  0  0  0  0  3  0  0  0  0  0  0
   30.6910   26.5100   47.7190 N   0  0  0  0  0  0  0  0  0  0  0  0
  1  4  1  6  0  0  0
  1  8  1  0  0  0  0
  1  3  1  0  0  0  0
  1  2  1  0  0  0  0
  2  5  1  0  0  0  0
  3  7  1  1  0  0  0
  3  2  1  0  0  0  0
  6  2  1  0  0  0  0
  8  9  1  0  0  0  0
 10  8  1  0  0  0  0
 11 16  1  0  0  0  0
 11 17  1  0  0  0  0
 12 11  2  0  0  0  0
 13 14  2  0  0  0  0
 13 12  1  0  0  0  0
 14 15  1  0  0  0  0
 15  8  1  0  0  0  0
 15 16  2  0  0  0  0
 18 12  1  0  0  0  0
 19 13  1  0  0  0  0
 20 22  1  0  0  0  0
 20  3  1  0  0  0  0
 21 20  2  0  0  0  0
 23 22  1  0  0  0  0
 24 23  2  0  0  0  0
 25 27  2  0  0  0  0
 25 24  1  0  0  0  0
 26 25  1  0  0  0  0
 27 28  1  0  0  0  0
 28 29  2  0  0  0  0
 29 23  1  0  0  0  0
M  END
>  <minimizedAffinity>
-4.91128683

>  <minimizedRMSD>
0.426561475

$$$$
