
 OpenBabel03252512293D

 33 35  0  0  1  0  0  0  0  0999 V2000
   32.9830   27.2400   48.0880 C   0  0  2  0  0  0  0  0  0  0  0  0
   33.0230   26.3280   48.7440 H   0  0  0  0  0  0  0  0  0  0  0  0
   35.9680   29.9510   48.7180 C   0  0  0  0  0  0  0  0  0  0  0  0
   35.7570   29.0710   49.7920 C   0  0  0  0  0  0  0  0  0  0  0  0
   34.7830   28.1530   49.6520 C   0  0  0  0  0  0  0  0  0  0  0  0
   34.0830   28.1210   48.5330 C   0  0  0  0  0  0  0  0  0  0  0  0
   34.7490   29.4600   47.4800 S   0  0  0  0  0  0  0  0  0  0  0  0
   36.4100   29.2030   50.6710 H   0  0  0  0  0  0  0  0  0  0  0  0
   34.5580   27.4370   50.4350 H   0  0  0  0  0  0  0  0  0  0  0  0
   37.8860   32.9910   49.4780 C   0  0  0  0  0  0  0  0  0  0  0  0
   38.8610   33.0160   48.4490 C   0  0  0  0  0  0  0  0  0  0  0  0
   38.8340   31.9850   47.5170 C   0  0  0  0  0  0  0  0  0  0  0  0
   37.8800   31.0440   47.6660 N   0  0  0  0  0  0  0  0  0  0  0  0
   36.9880   31.0420   48.6250 C   0  0  0  0  0  0  0  0  0  0  0  0
   36.9360   32.0100   49.5850 N   0  0  0  0  0  0  0  0  0  0  0  0
   37.9010   33.7910   50.2100 H   0  0  0  0  0  0  0  0  0  0  0  0
   39.5730   33.8110   48.4250 H   0  0  0  0  0  0  0  0  0  0  0  0
   39.5580   31.9630   46.7140 H   0  0  0  0  0  0  0  0  0  0  0  0
   33.1810   26.8550   46.6910 C   0  0  0  0  0  0  0  0  0  0  0  0
   33.8460   27.5930   46.1700 H   0  0  0  0  0  0  0  0  0  0  0  0
   33.6180   25.8400   46.6240 H   0  0  0  0  0  0  0  0  0  0  0  0
   32.2340   26.8740   46.1000 H   0  0  0  0  0  0  0  0  0  0  0  0
   31.6730   27.9300   48.3840 C   0  0  0  0  0  0  0  0  0  0  0  0
   31.2540   28.2480   47.4060 H   0  0  0  0  0  0  0  0  0  0  0  0
   31.8450   28.8570   48.9710 H   0  0  0  0  0  0  0  0  0  0  0  0
   30.7830   27.1210   49.0340 O   0  0  0  0  0  0  0  0  0  0  0  0
   29.6150   27.4560   49.6850 C   0  0  0  0  0  0  0  0  0  0  0  0
   28.9260   28.5270   49.1500 C   0  0  0  0  0  0  0  0  0  0  0  0
   27.7360   28.9110   49.7680 C   0  0  0  0  0  0  0  0  0  0  0  0
   27.2010   29.7510   49.3440 H   0  0  0  0  0  0  0  0  0  0  0  0
   27.2470   28.2790   50.8500 N   0  0  0  0  0  0  0  0  0  0  0  0
   27.9470   27.2380   51.3440 C   0  0  0  0  0  0  0  0  0  0  0  0
   29.0870   26.8460   50.7790 N   0  0  0  0  0  0  0  0  0  0  0  0
  1 23  1  0  0  0  0
  1  6  1  0  0  0  0
  1  2  1  1  0  0  0
  3  4  2  0  0  0  0
  4  8  1  0  0  0  0
  5  4  1  0  0  0  0
  5  9  1  0  0  0  0
  6  5  2  0  0  0  0
  7  6  1  0  0  0  0
  7  3  1  0  0  0  0
 10 15  1  0  0  0  0
 10 16  1  0  0  0  0
 11 10  2  0  0  0  0
 12 13  2  0  0  0  0
 12 11  1  0  0  0  0
 13 14  1  0  0  0  0
 14  3  1  0  0  0  0
 14 15  2  0  0  0  0
 17 11  1  0  0  0  0
 18 12  1  0  0  0  0
 19  1  1  0  0  0  0
 20 19  1  0  0  0  0
 21 19  1  0  0  0  0
 22 19  1  0  0  0  0
 23 25  1  0  0  0  0
 23 26  1  0  0  0  0
 24 23  1  0  0  0  0
 26 27  1  0  0  0  0
 27 33  1  0  0  0  0
 28 27  2  0  0  0  0
 28 29  1  0  0  0  0
 29 31  2  0  0  0  0
 30 29  1  0  0  0  0
 31 32  1  0  0  0  0
 33 32  2  0  0  0  0
M  END
>  <minimizedAffinity>
-6.06627846

>  <minimizedRMSD>
2.78515768

$$$$
