
 OpenBabel03252513433D

 23 24  0  0  0  0  0  0  0  0999 V2000
   37.9330   30.9420   49.4440 C   0  0  0  0  0  0  0  0  0  0  0  0
   38.1100   32.2330   50.0200 C   0  0  0  0  0  0  0  0  0  0  0  0
   38.6810   33.2260   49.2390 C   0  0  0  0  0  0  0  0  0  0  0  0
   39.0390   32.9050   47.9690 N   0  0  0  0  0  0  0  0  0  0  0  0
   38.8600   31.6800   47.4550 C   0  0  0  0  0  0  0  0  0  0  0  0
   38.3120   30.6990   48.1790 N   0  0  0  0  0  0  0  0  0  0  0  0
   37.7840   32.3620   51.0390 H   0  0  0  0  0  0  0  0  0  0  0  0
   38.8010   34.1780   49.6930 H   0  0  0  0  0  0  0  0  0  0  0  0
   39.2660   31.4330   46.1130 N   0  0  0  0  0  0  0  0  0  0  0  0
   38.9640   30.2740   45.5000 C   0  0  0  0  0  0  0  0  0  0  0  0
   39.4030   30.1230   44.1870 C   0  0  0  0  0  0  0  0  0  0  0  0
   39.1340   28.8950   43.4090 C   0  0  0  0  0  0  0  0  0  0  0  0
   40.1190   31.1260   43.5460 C   0  0  0  0  0  0  0  0  0  0  0  0
   40.5220   30.9910   42.3450 O   0  0  0  0  0  0  0  0  0  0  0  0
   40.4070   32.2690   44.1740 N   0  0  0  0  0  0  0  0  0  0  0  0
   39.9710   32.3820   45.4340 C   0  0  0  0  0  0  0  0  0  0  0  0
   40.2250   33.4450   46.0550 O   0  0  0  0  0  0  0  0  0  0  0  0
   40.9390   33.0390   43.7270 H   0  0  0  0  0  0  0  0  0  0  0  0
   37.3620   29.9610   50.2310 O   0  0  0  0  0  0  0  0  0  0  0  0
   36.0030   29.6640   50.2880 C   0  0  0  0  0  0  0  0  0  0  0  0
   35.5750   29.2500   51.5350 F   0  0  0  0  0  0  0  0  0  0  0  0
   35.1930   30.6690   49.8080 F   0  0  0  0  0  0  0  0  0  0  0  0
   35.8170   28.5840   49.4290 F   0  0  0  0  0  0  0  0  0  0  0  0
  1  2  1  0  0  0  0
  1 19  1  0  0  0  0
  2  7  1  0  0  0  0
  3  8  1  0  0  0  0
  3  2  2  0  0  0  0
  4  3  1  0  0  0  0
  5  4  2  0  0  0  0
  5  6  1  0  0  0  0
  6  1  2  0  0  0  0
  9  5  1  0  0  0  0
 10  9  1  0  0  0  0
 11 10  2  0  0  0  0
 12 11  1  0  0  0  0
 13 15  1  0  0  0  0
 13 11  1  0  0  0  0
 14 13  2  0  0  0  0
 15 16  1  0  0  0  0
 16 17  2  0  0  0  0
 16  9  1  0  0  0  0
 18 15  1  0  0  0  0
 19 20  1  0  0  0  0
 20 21  1  0  0  0  0
 22 20  1  0  0  0  0
 23 20  1  0  0  0  0
M  END
>  <minimizedAffinity>
-6.67839336

>  <minimizedRMSD>
1.09831345

$$$$
