
 OpenBabel03252511503D

 40 44  0  0  1  0  0  0  0  0999 V2000
   35.5530   30.3570   47.2520 C   0  0  0  0  0  0  0  0  0  0  0  0
   36.6070   30.5960   48.1190 C   0  0  0  0  0  0  0  0  0  0  0  0
   36.6860   29.6910   49.2240 C   0  0  0  0  0  0  0  0  0  0  0  0
   35.7640   28.6970   49.3520 N   0  0  0  0  0  0  0  0  0  0  0  0
   34.7730   28.5280   48.4750 C   0  0  0  0  0  0  0  0  0  0  0  0
   34.6730   29.3600   47.4300 N   0  0  0  0  0  0  0  0  0  0  0  0
   35.5250   31.0600   46.4280 H   0  0  0  0  0  0  0  0  0  0  0  0
   37.4260   29.7060   50.0060 H   0  0  0  0  0  0  0  0  0  0  0  0
   37.6280   31.6100   48.0800 C   0  0  0  0  0  0  0  0  0  0  0  0
   37.5880   32.4290   49.1780 C   0  0  0  0  0  0  0  0  0  0  0  0
   38.4910   33.4820   49.3430 C   0  0  0  0  0  0  0  0  0  0  0  0
   39.4450   33.7070   48.3830 C   0  0  0  0  0  0  0  0  0  0  0  0
   39.4780   32.8740   47.2760 C   0  0  0  0  0  0  0  0  0  0  0  0
   40.4160   33.0160   46.2320 C   0  0  0  0  0  0  0  0  0  0  0  0
   40.4010   32.1630   45.1620 C   0  0  0  0  0  0  0  0  0  0  0  0
   39.4890   31.1440   45.0540 C   0  0  0  0  0  0  0  0  0  0  0  0
   38.5620   30.9990   46.0800 C   0  0  0  0  0  0  0  0  0  0  0  0
   38.5890   31.8560   47.1390 C   0  0  0  0  0  0  0  0  0  0  0  0
   36.8920   32.3640   50.0040 H   0  0  0  0  0  0  0  0  0  0  0  0
   38.4840   34.1450   50.1970 H   0  0  0  0  0  0  0  0  0  0  0  0
   40.1910   34.4930   48.4120 H   0  0  0  0  0  0  0  0  0  0  0  0
   41.1440   33.8270   46.3170 H   0  0  0  0  0  0  0  0  0  0  0  0
   41.1050   32.2490   44.3510 H   0  0  0  0  0  0  0  0  0  0  0  0
   39.4800   30.4720   44.2080 H   0  0  0  0  0  0  0  0  0  0  0  0
   37.8360   30.1760   45.9760 H   0  0  0  0  0  0  0  0  0  0  0  0
   33.8130   27.4220   48.6750 C   0  0  1  0  0  0  0  0  0  0  0  0
   32.3450   27.7440   48.7140 C   0  0  0  0  0  0  0  0  0  0  0  0
   32.9240   26.9870   47.5610 C   0  0  2  0  0  0  0  0  0  0  0  0
   34.1270   26.6510   49.4260 H   0  0  0  0  0  0  0  0  0  0  0  0
   31.7300   27.1930   49.4300 H   0  0  0  0  0  0  0  0  0  0  0  0
   32.0890   28.8150   48.6100 H   0  0  0  0  0  0  0  0  0  0  0  0
   33.0230   27.6150   46.6270 H   0  0  0  0  0  0  0  0  0  0  0  0
   32.5990   25.2360   47.3430 S   0  0  0  0  0  0  0  0  0  0  0  0
   36.8640   22.7560   47.6050 H   0  0  0  0  0  0  0  0  0  0  0  0
   36.1030   22.4970   46.9800 N   0  0  0  0  0  0  0  0  0  0  0  0
   34.9270   21.9310   47.5830 C   0  0  0  0  0  0  0  0  0  0  0  0
   33.6840   22.7490   47.3000 C   0  0  0  0  0  0  0  0  0  0  0  0
   34.0610   24.2380   47.2250 C   0  0  0  0  0  0  0  0  0  0  0  0
   34.8530   24.3910   45.9760 C   0  0  0  0  0  0  0  0  0  0  0  0
   35.8670   23.2810   45.8270 C   0  0  0  0  0  0  0  0  0  0  0  0
  1  6  2  0  0  0  0
  1  2  1  0  0  0  0
  2  3  2  0  0  0  0
  3  4  1  0  0  0  0
  3  8  1  0  0  0  0
  5 26  1  0  0  0  0
  5  4  2  0  0  0  0
  6  5  1  0  0  0  0
  7  1  1  0  0  0  0
  9  2  1  0  0  0  0
  9 10  1  0  0  0  0
 10 11  2  0  0  0  0
 10 19  1  0  0  0  0
 11 20  1  0  0  0  0
 12 21  1  0  0  0  0
 12 11  1  0  0  0  0
 13 12  2  0  0  0  0
 14 22  1  0  0  0  0
 14 13  1  0  0  0  0
 15 14  2  0  0  0  0
 16 15  1  0  0  0  0
 16 17  2  0  0  0  0
 17 18  1  0  0  0  0
 18 13  1  0  0  0  0
 18  9  2  0  0  0  0
 23 15  1  0  0  0  0
 24 16  1  0  0  0  0
 25 17  1  0  0  0  0
 26 27  1  0  0  0  0
 26 29  1  1  0  0  0
 27 30  1  0  0  0  0
 28 32  1  6  0  0  0
 28 26  1  0  0  0  0
 28 27  1  0  0  0  0
 31 27  1  0  0  0  0
 33 28  1  0  0  0  0
 35 36  1  0  0  0  0
 35 34  1  0  0  0  0
 37 36  1  0  0  0  0
 38 37  1  0  0  0  0
 38 33  1  0  0  0  0
 39 38  1  0  0  0  0
 40 39  1  0  0  0  0
 40 35  1  0  0  0  0
M  END
>  <minimizedAffinity>
-6.61962795

>  <minimizedRMSD>
0.304204404

$$$$
