
 OpenBabel03252513133D

 46 49  0  0  0  0  0  0  0  0999 V2000
   36.2040   31.5330   42.6380 C   0  0  0  0  0  0  0  0  0  0  0  0
   37.3650   31.1820   41.9480 C   0  0  0  0  0  0  0  0  0  0  0  0
   38.4100   30.6990   42.6840 C   0  0  0  0  0  0  0  0  0  0  0  0
   38.2150   30.6110   43.9900 N   0  0  0  0  0  0  0  0  0  0  0  0
   37.1790   30.9120   44.7000 C   0  0  0  0  0  0  0  0  0  0  0  0
   36.1750   31.3790   43.9670 N   0  0  0  0  0  0  0  0  0  0  0  0
   35.3580   31.9230   42.0550 H   0  0  0  0  0  0  0  0  0  0  0  0
   36.8660   30.8550   46.1090 C   0  0  0  0  0  0  0  0  0  0  0  0
   35.8300   30.0770   46.6360 C   0  0  0  0  0  0  0  0  0  0  0  0
   35.5050   29.9960   47.9520 C   0  0  0  0  0  0  0  0  0  0  0  0
   36.2120   30.7110   48.8750 C   0  0  0  0  0  0  0  0  0  0  0  0
   37.2310   31.4890   48.4390 C   0  0  0  0  0  0  0  0  0  0  0  0
   37.9420   32.2080   49.3720 C   0  0  0  0  0  0  0  0  0  0  0  0
   38.9830   33.0130   49.0090 C   0  0  0  0  0  0  0  0  0  0  0  0
   39.3110   33.0910   47.6640 C   0  0  0  0  0  0  0  0  0  0  0  0
   38.5810   32.3620   46.7700 C   0  0  0  0  0  0  0  0  0  0  0  0
   37.5490   31.5580   47.0900 C   0  0  0  0  0  0  0  0  0  0  0  0
   35.2330   29.4870   45.9470 H   0  0  0  0  0  0  0  0  0  0  0  0
   34.6880   29.3710   48.2840 H   0  0  0  0  0  0  0  0  0  0  0  0
   37.7450   32.1980   50.4310 H   0  0  0  0  0  0  0  0  0  0  0  0
   39.5640   33.5940   49.7140 H   0  0  0  0  0  0  0  0  0  0  0  0
   40.1270   33.7160   47.3280 H   0  0  0  0  0  0  0  0  0  0  0  0
   38.8620   32.4440   45.7220 H   0  0  0  0  0  0  0  0  0  0  0  0
   35.8690   30.6190   50.2060 O   0  0  0  0  0  0  0  0  0  0  0  0
   36.4070   29.5850   51.0190 C   0  0  0  0  0  0  0  0  0  0  0  0
   37.2200   28.7000   50.3820 F   0  0  0  0  0  0  0  0  0  0  0  0
   37.1860   30.1970   51.9880 F   0  0  0  0  0  0  0  0  0  0  0  0
   35.3190   28.9400   51.5940 F   0  0  0  0  0  0  0  0  0  0  0  0
   37.5110   31.3030   40.5330 N   0  0  0  0  0  0  0  0  0  0  0  0
   37.7110   32.5820   40.1720 C   0  0  0  0  0  0  0  0  0  0  0  0
   37.8760   32.8930   38.8180 C   0  0  0  0  0  0  0  0  0  0  0  0
   38.1050   34.2650   38.2830 C   0  0  0  0  0  0  0  0  0  0  0  0
   37.8230   31.8470   37.9230 C   0  0  0  0  0  0  0  0  0  0  0  0
   37.9590   32.0210   36.6830 O   0  0  0  0  0  0  0  0  0  0  0  0
   37.6200   30.5790   38.3150 N   0  0  0  0  0  0  0  0  0  0  0  0
   37.4630   30.3040   39.6330 C   0  0  0  0  0  0  0  0  0  0  0  0
   37.2670   29.1950   40.1940 O   0  0  0  0  0  0  0  0  0  0  0  0
   37.5630   29.7250   37.7260 H   0  0  0  0  0  0  0  0  0  0  0  0
   39.6570   30.2960   42.1390 N   0  0  0  0  0  0  0  0  0  0  0  0
   40.7650   29.9390   42.9390 C   0  0  0  0  0  0  0  0  0  0  0  0
   40.9900   30.6300   44.0100 N   0  0  0  0  0  0  0  0  0  0  0  0
   41.5970   28.8600   42.5740 N   0  0  0  0  0  0  0  0  0  0  0  0
   41.7310   30.4940   44.6870 H   0  0  0  0  0  0  0  0  0  0  0  0
   39.7620   30.2570   41.0790 H   0  0  0  0  0  0  0  0  0  0  0  0
   42.1240   27.9800   42.4320 H   0  0  0  0  0  0  0  0  0  0  0  0
   42.3410   28.7940   41.8450 H   0  0  0  0  0  0  0  0  0  0  0  0
  1  6  1  0  0  0  0
  2  1  2  0  0  0  0
  2  3  1  0  0  0  0
  3  4  2  0  0  0  0
  4  5  1  0  0  0  0
  5  8  1  0  0  0  0
  6  5  2  0  0  0  0
  7  1  1  0  0  0  0
  8  9  2  0  0  0  0
  8 17  1  0  0  0  0
  9 10  1  0  0  0  0
 10 19  1  0  0  0  0
 10 11  2  0  0  0  0
 11 24  1  0  0  0  0
 12 11  1  0  0  0  0
 12 13  1  0  0  0  0
 13 20  1  0  0  0  0
 14 13  2  0  0  0  0
 14 21  1  0  0  0  0
 15 14  1  0  0  0  0
 16 17  1  0  0  0  0
 16 15  2  0  0  0  0
 17 12  2  0  0  0  0
 18  9  1  0  0  0  0
 22 15  1  0  0  0  0
 23 16  1  0  0  0  0
 24 25  1  0  0  0  0
 25 28  1  0  0  0  0
 25 27  1  0  0  0  0
 26 25  1  0  0  0  0
 29  2  1  0  0  0  0
 30 29  1  0  0  0  0
 31 30  2  0  0  0  0
 32 31  1  0  0  0  0
 33 35  1  0  0  0  0
 33 31  1  0  0  0  0
 34 33  2  0  0  0  0
 35 36  1  0  0  0  0
 36 37  2  0  0  0  0
 36 29  1  0  0  0  0
 38 35  1  0  0  0  0
 39  3  1  0  0  0  0
 39 40  1  0  0  0  0
 40 41  2  0  0  0  0
 41 43  1  0  0  0  0
 42 40  1  0  0  0  0
 44 39  1  0  0  0  0
 45 42  1  0  0  0  0
 46 42  1  0  0  0  0
M  END
>  <minimizedAffinity>
-7.53433847

>  <minimizedRMSD>
0.489372343

$$$$
