
 OpenBabel03252514043D

 39 42  0  0  1  0  0  0  0  0999 V2000
   34.0630   27.2350   47.9920 C   0  0  0  0  0  0  0  0  0  0  0  0
   34.4470   26.0080   47.8170 O   0  0  0  0  0  0  0  0  0  0  0  0
   35.5500   29.2460   48.7280 C   0  0  2  0  0  0  0  0  0  0  0  0
   34.3020   29.2170   49.4820 C   0  0  0  0  0  0  0  0  0  0  0  0
   34.8100   27.9240   49.1190 C   0  0  1  0  0  0  0  0  0  0  0  0
   35.5400   29.5210   47.6770 H   0  0  0  0  0  0  0  0  0  0  0  0
   33.3620   29.6250   49.0260 H   0  0  0  0  0  0  0  0  0  0  0  0
   34.3100   29.4760   50.5820 H   0  0  0  0  0  0  0  0  0  0  0  0
   35.4300   27.2450   49.7010 H   0  0  0  0  0  0  0  0  0  0  0  0
   36.8380   29.3950   49.5550 C   0  0  0  0  0  0  0  0  0  0  0  0
   36.5750   29.4850   50.6280 H   0  0  0  0  0  0  0  0  0  0  0  0
   37.4090   28.4600   49.3930 H   0  0  0  0  0  0  0  0  0  0  0  0
   38.3860   32.7010   49.3960 C   0  0  0  0  0  0  0  0  0  0  0  0
   38.9180   32.7270   48.0880 C   0  0  0  0  0  0  0  0  0  0  0  0
   38.7270   31.5840   47.2770 C   0  0  0  0  0  0  0  0  0  0  0  0
   38.0420   30.5200   47.8010 N   0  0  0  0  0  0  0  0  0  0  0  0
   37.5570   30.5560   49.0600 C   0  0  0  0  0  0  0  0  0  0  0  0
   37.7350   31.6460   49.8430 N   0  0  0  0  0  0  0  0  0  0  0  0
   38.5300   33.5720   50.0130 H   0  0  0  0  0  0  0  0  0  0  0  0
   39.4560   33.5610   47.6760 H   0  0  0  0  0  0  0  0  0  0  0  0
   39.1030   31.5240   46.2650 H   0  0  0  0  0  0  0  0  0  0  0  0
   33.0620   27.7780   47.1950 O   0  0  0  0  0  0  0  0  0  0  0  0
   31.7800   27.9810   47.6210 C   0  0  0  0  0  0  0  0  0  0  0  0
   31.1730   27.3540   48.8200 C   0  0  0  0  0  0  0  0  0  0  0  0
   29.8870   27.6560   49.1120 C   0  0  0  0  0  0  0  0  0  0  0  0
   29.1380   28.5420   48.3040 C   0  0  0  0  0  0  0  0  0  0  0  0
   30.3330   29.0230   46.9800 S   0  0  0  0  0  0  0  0  0  0  0  0
   31.8080   26.6930   49.3830 H   0  0  0  0  0  0  0  0  0  0  0  0
   29.4050   27.2240   49.9740 H   0  0  0  0  0  0  0  0  0  0  0  0
   27.8330   28.9490   48.4640 N   0  0  0  0  0  0  0  0  0  0  0  0
   26.8400   28.5570   47.6290 C   0  0  0  0  0  3  0  0  0  0  0  0
   25.5470   28.9940   47.8340 C   0  0  0  0  0  0  0  0  0  0  0  0
   24.4500   28.5530   46.9010 C   0  0  0  0  0  1  0  0  0  0  0  0
   25.2660   29.8400   48.9030 C   0  0  0  0  0  0  0  0  0  0  0  0
   24.0780   30.2410   49.0890 O   0  0  0  0  0  0  0  0  0  0  0  0
   26.2930   30.2130   49.7220 N   0  0  0  0  0  0  0  0  0  0  0  0
   27.5580   29.7680   49.4960 C   0  0  0  0  0  0  0  0  0  0  0  0
   28.3760   30.2100   50.3470 O   0  0  0  0  0  0  0  0  0  0  0  0
   25.9860   30.8460   50.4910 H   0  0  0  0  0  0  0  0  0  0  0  0
  1  5  1  0  0  0  0
  2  1  2  0  0  0  0
  3  6  1  6  0  0  0
  3  5  1  0  0  0  0
  3  4  1  0  0  0  0
  3 10  1  0  0  0  0
  4  8  1  0  0  0  0
  5  4  1  0  0  0  0
  5  9  1  1  0  0  0
  7  4  1  0  0  0  0
 10 11  1  0  0  0  0
 12 10  1  0  0  0  0
 13 18  1  0  0  0  0
 13 19  1  0  0  0  0
 14 13  2  0  0  0  0
 15 16  2  0  0  0  0
 15 14  1  0  0  0  0
 16 17  1  0  0  0  0
 17 10  1  0  0  0  0
 17 18  2  0  0  0  0
 20 14  1  0  0  0  0
 21 15  1  0  0  0  0
 22 23  1  0  0  0  0
 22  1  1  0  0  0  0
 23 24  2  0  0  0  0
 24 25  1  0  0  0  0
 24 28  1  0  0  0  0
 25 29  1  0  0  0  0
 26 30  1  0  0  0  0
 26 25  2  0  0  0  0
 27 23  1  0  0  0  0
 27 26  1  0  0  0  0
 30 37  1  0  0  0  0
 31 32  2  0  0  0  0
 31 30  1  0  0  0  0
 32 34  1  0  0  0  0
 33 32  1  0  0  0  0
 34 35  2  0  0  0  0
 34 36  1  0  0  0  0
 36 39  1  0  0  0  0
 37 36  1  0  0  0  0
 37 38  2  0  0  0  0
M  END
>  <minimizedAffinity>
-3.74780297

>  <minimizedRMSD>
2.38160276

$$$$
