
 OpenBabel03252510353D

 33 36  0  0  0  0  0  0  0  0999 V2000
   35.3020   29.2850   49.3720 C   0  0  0  0  0  0  0  0  0  0  0  0
   35.5740   30.2380   48.4150 C   0  0  0  0  0  0  0  0  0  0  0  0
   34.7020   30.3380   47.3270 C   0  0  0  0  0  0  0  0  0  0  0  0
   33.6360   29.4840   47.2830 N   0  0  0  0  0  0  0  0  0  0  0  0
   33.4050   28.5660   48.2400 C   0  0  0  0  0  0  0  0  0  0  0  0
   34.2410   28.4540   49.3050 N   0  0  0  0  0  0  0  0  0  0  0  0
   35.9280   29.1480   50.2420 H   0  0  0  0  0  0  0  0  0  0  0  0
   34.9110   31.0760   46.5820 H   0  0  0  0  0  0  0  0  0  0  0  0
   32.2330   27.8230   47.9340 N   0  0  0  0  0  0  0  0  0  0  0  0
   31.1890   27.7460   48.7780 C   0  0  0  0  0  0  0  0  0  0  0  0
   30.0700   27.0090   48.4270 C   0  0  0  0  0  0  0  0  0  0  0  0
   28.9110   26.9230   49.3620 C   0  0  0  0  0  0  0  0  0  0  0  0
   30.0720   26.3690   47.2030 C   0  0  0  0  0  0  0  0  0  0  0  0
   29.0750   25.6840   46.8380 O   0  0  0  0  0  0  0  0  0  0  0  0
   31.1100   26.4390   46.3520 N   0  0  0  0  0  0  0  0  0  0  0  0
   32.1740   27.1680   46.7370 C   0  0  0  0  0  0  0  0  0  0  0  0
   33.1810   27.2640   45.9660 O   0  0  0  0  0  0  0  0  0  0  0  0
   31.1200   25.9600   45.4270 H   0  0  0  0  0  0  0  0  0  0  0  0
   36.7370   31.0850   48.5740 C   0  0  0  0  0  0  0  0  0  0  0  0
   37.0080   31.7420   49.7570 C   0  0  0  0  0  0  0  0  0  0  0  0
   38.1750   32.5320   49.7680 C   0  0  0  0  0  0  0  0  0  0  0  0
   39.0000   32.6710   48.7190 N   0  0  0  0  0  0  0  0  0  0  0  0
   38.6810   32.0050   47.5910 C   0  0  0  0  0  0  0  0  0  0  0  0
   37.5670   31.2250   47.5180 N   0  0  0  0  0  0  0  0  0  0  0  0
   39.5240   32.1170   46.4490 N   0  0  0  0  0  0  0  0  0  0  0  0
   40.0920   33.1360   45.7690 C   0  0  0  0  0  0  0  0  0  0  0  0
   40.7990   32.5810   44.7490 N   0  0  0  0  0  0  0  0  0  0  0  0
   40.6430   31.2360   44.8350 C   0  0  0  0  0  0  0  0  0  0  0  0
   39.8460   30.9420   45.8980 N   0  0  0  0  0  0  0  0  0  0  0  0
   36.3700   31.6520   50.6090 H   0  0  0  0  0  0  0  0  0  0  0  0
   38.4110   33.0640   50.6960 H   0  0  0  0  0  0  0  0  0  0  0  0
   39.9130   34.1480   46.1090 H   0  0  0  0  0  0  0  0  0  0  0  0
   41.0910   30.4980   44.1520 H   0  0  0  0  0  0  0  0  0  0  0  0
  1  7  1  0  0  0  0
  2 19  1  0  0  0  0
  2  1  2  0  0  0  0
  3  2  1  0  0  0  0
  4  3  2  0  0  0  0
  4  5  1  0  0  0  0
  5  6  2  0  0  0  0
  6  1  1  0  0  0  0
  8  3  1  0  0  0  0
  9  5  1  0  0  0  0
  9 10  1  0  0  0  0
 11 10  2  0  0  0  0
 11 12  1  0  0  0  0
 13 11  1  0  0  0  0
 14 13  2  0  0  0  0
 15 16  1  0  0  0  0
 15 13  1  0  0  0  0
 16  9  1  0  0  0  0
 17 16  2  0  0  0  0
 18 15  1  0  0  0  0
 19 20  1  0  0  0  0
 20 21  2  0  0  0  0
 20 30  1  0  0  0  0
 21 31  1  0  0  0  0
 22 21  1  0  0  0  0
 23 22  2  0  0  0  0
 24 23  1  0  0  0  0
 24 19  2  0  0  0  0
 25 23  1  0  0  0  0
 26 32  1  0  0  0  0
 26 25  1  0  0  0  0
 27 28  1  0  0  0  0
 27 26  2  0  0  0  0
 28 29  2  0  0  0  0
 29 25  1  0  0  0  0
 33 28  1  0  0  0  0
M  END
>  <minimizedAffinity>
-7.26275206

>  <minimizedRMSD>
0.918068826

$$$$
