
 OpenBabel03252513543D

 19 20  0  0  0  0  0  0  0  0999 V2000
   36.1350   30.1160   50.0590 C   0  0  0  0  0  0  0  0  0  0  0  0
   36.7310   29.3190   50.5410 H   0  0  0  0  0  0  0  0  0  0  0  0
   35.6260   30.6810   50.8810 H   0  0  0  0  0  0  0  0  0  0  0  0
   38.7610   31.4940   47.8510 C   0  0  0  0  0  0  0  0  0  0  0  0
   38.8420   32.8320   48.2620 C   0  0  0  0  0  0  0  0  0  0  0  0
   37.9970   33.2710   49.2990 C   0  0  0  0  0  0  0  0  0  0  0  0
   37.1510   32.3420   49.8310 N   0  0  0  0  0  0  0  0  0  0  0  0
   37.0870   31.0580   49.4210 C   0  0  0  0  0  0  0  0  0  0  0  0
   37.9050   30.6540   48.4260 N   0  0  0  0  0  0  0  0  0  0  0  0
   39.4380   31.2260   47.0510 H   0  0  0  0  0  0  0  0  0  0  0  0
   39.4990   33.6030   47.8690 H   0  0  0  0  0  0  0  0  0  0  0  0
   37.9300   34.2410   49.7270 H   0  0  0  0  0  0  0  0  0  0  0  0
   35.1460   29.5640   49.1020 C   0  0  0  0  0  0  0  0  0  0  0  0
   34.7060   28.2480   49.2610 C   0  0  0  0  0  0  0  0  0  0  0  0
   33.7870   27.6900   48.3950 C   0  0  0  0  0  0  0  0  0  0  0  0
   33.2910   28.4280   47.3610 N   0  0  0  0  0  0  0  0  0  0  0  0
   33.7300   29.7070   47.2240 C   0  0  0  0  0  0  0  0  0  0  0  0
   33.3940   30.3590   46.4400 H   0  0  0  0  0  0  0  0  0  0  0  0
   34.6380   30.2670   48.0730 N   0  0  0  0  0  0  0  0  0  0  0  0
  1  2  1  0  0  0  0
  1  3  1  0  0  0  0
  4  5  2  0  0  0  0
  4  9  1  0  0  0  0
  5  6  1  0  0  0  0
  6 12  1  0  0  0  0
  6  7  2  0  0  0  0
  8  7  1  0  0  0  0
  8  1  1  0  0  0  0
  9  8  2  0  0  0  0
 10  4  1  0  0  0  0
 11  5  1  0  0  0  0
 13 14  1  0  0  0  0
 13  1  1  0  0  0  0
 15 14  2  0  0  0  0
 16 15  1  0  0  0  0
 17 16  2  0  0  0  0
 17 19  1  0  0  0  0
 18 17  1  0  0  0  0
 19 13  2  0  0  0  0
M  END
>  <minimizedAffinity>
-4.42878437

>  <minimizedRMSD>
3.67442274

$$$$
