
 OpenBabel03252514013D

 29 31  0  0  1  0  0  0  0  0999 V2000
   35.4640   29.4510   49.1140 C   0  0  2  0  0  0  0  0  0  0  0  0
   34.4300   29.5450   50.1550 C   0  0  0  0  0  0  0  0  0  0  0  0
   34.6520   28.2290   49.5830 C   0  0  1  0  0  0  0  0  0  0  0  0
   35.2980   29.7940   48.0930 H   0  0  0  0  0  0  0  0  0  0  0  0
   34.7730   29.7840   51.2000 H   0  0  0  0  0  0  0  0  0  0  0  0
   33.5060   30.1310   49.9190 H   0  0  0  0  0  0  0  0  0  0  0  0
   35.3130   27.4600   50.0010 H   0  0  0  0  0  0  0  0  0  0  0  0
   36.9210   29.3720   49.5680 C   0  0  0  0  0  0  0  0  0  0  0  0
   36.9790   29.2720   50.6700 H   0  0  0  0  0  0  0  0  0  0  0  0
   37.3200   28.4490   49.1070 H   0  0  0  0  0  0  0  0  0  0  0  0
   38.3890   32.7230   49.3760 C   0  0  0  0  0  0  0  0  0  0  0  0
   38.9060   32.7670   48.0710 C   0  0  0  0  0  0  0  0  0  0  0  0
   38.7400   31.6280   47.2660 C   0  0  0  0  0  0  0  0  0  0  0  0
   38.0860   30.5400   47.7960 N   0  0  0  0  0  0  0  0  0  0  0  0
   37.6130   30.5540   49.0490 C   0  0  0  0  0  0  0  0  0  0  0  0
   37.7710   31.6490   49.8280 N   0  0  0  0  0  0  0  0  0  0  0  0
   38.5680   33.6430   49.9080 H   0  0  0  0  0  0  0  0  0  0  0  0
   39.4230   33.5520   47.5700 H   0  0  0  0  0  0  0  0  0  0  0  0
   39.0690   31.4900   46.2550 H   0  0  0  0  0  0  0  0  0  0  0  0
   33.5730   27.7350   48.6610 C   0  0  0  0  0  0  0  0  0  0  0  0
   33.9970   27.0410   47.6520 O   0  0  0  0  0  0  0  0  0  0  0  0
   32.2100   27.9480   48.8060 O   0  0  0  0  0  0  0  0  0  0  0  0
   31.3480   27.7010   47.7480 C   0  0  0  0  0  0  0  0  0  0  0  0
   31.1350   28.6120   46.7240 C   0  0  0  0  0  3  0  0  0  0  0  0
   30.2510   28.2730   45.7070 C   0  0  0  0  0  0  0  0  0  0  0  0
   30.1040   28.9990   44.9240 H   0  0  0  0  0  0  0  0  0  0  0  0
   29.6260   27.0830   45.7330 N   0  0  0  0  0  0  0  0  0  0  0  0
   29.8300   26.1820   46.7350 C   0  0  0  0  0  3  0  0  0  0  0  0
   30.6860   26.5150   47.7170 N   0  0  0  0  0  0  0  0  0  0  0  0
  1  4  1  6  0  0  0
  1  8  1  0  0  0  0
  1  3  1  0  0  0  0
  1  2  1  0  0  0  0
  2  5  1  0  0  0  0
  3  7  1  1  0  0  0
  3  2  1  0  0  0  0
  6  2  1  0  0  0  0
  8  9  1  0  0  0  0
 10  8  1  0  0  0  0
 11 16  1  0  0  0  0
 11 17  1  0  0  0  0
 12 11  2  0  0  0  0
 13 14  2  0  0  0  0
 13 12  1  0  0  0  0
 14 15  1  0  0  0  0
 15  8  1  0  0  0  0
 15 16  2  0  0  0  0
 18 12  1  0  0  0  0
 19 13  1  0  0  0  0
 20 22  1  0  0  0  0
 20  3  1  0  0  0  0
 21 20  2  0  0  0  0
 23 22  1  0  0  0  0
 24 23  2  0  0  0  0
 25 27  2  0  0  0  0
 25 24  1  0  0  0  0
 26 25  1  0  0  0  0
 27 28  1  0  0  0  0
 28 29  2  0  0  0  0
 29 23  1  0  0  0  0
M  END
>  <minimizedAffinity>
-4.90577936

>  <minimizedRMSD>
0.534479737

$$$$
