
 OpenBabel03252514013D

 29 31  0  0  1  0  0  0  0  0999 V2000
   35.4790   29.4300   49.0300 C   0  0  2  0  0  0  0  0  0  0  0  0
   34.3690   29.5680   49.9850 C   0  0  0  0  0  0  0  0  0  0  0  0
   34.6520   28.2240   49.5140 C   0  0  1  0  0  0  0  0  0  0  0  0
   35.3840   29.7060   47.9800 H   0  0  0  0  0  0  0  0  0  0  0  0
   34.6310   29.8770   51.0350 H   0  0  0  0  0  0  0  0  0  0  0  0
   33.4570   30.1210   49.6460 H   0  0  0  0  0  0  0  0  0  0  0  0
   35.2910   27.4950   50.0270 H   0  0  0  0  0  0  0  0  0  0  0  0
   36.8990   29.4070   49.5930 C   0  0  0  0  0  0  0  0  0  0  0  0
   36.8760   29.3680   50.7000 H   0  0  0  0  0  0  0  0  0  0  0  0
   37.3470   28.4690   49.2150 H   0  0  0  0  0  0  0  0  0  0  0  0
   38.4190   32.7320   49.3670 C   0  0  0  0  0  0  0  0  0  0  0  0
   38.9310   32.7570   48.0610 C   0  0  0  0  0  0  0  0  0  0  0  0
   38.7440   31.6150   47.2660 C   0  0  0  0  0  0  0  0  0  0  0  0
   38.0750   30.5420   47.8070 N   0  0  0  0  0  0  0  0  0  0  0  0
   37.6070   30.5740   49.0620 C   0  0  0  0  0  0  0  0  0  0  0  0
   37.7860   31.6720   49.8310 N   0  0  0  0  0  0  0  0  0  0  0  0
   38.6140   33.6540   49.8910 H   0  0  0  0  0  0  0  0  0  0  0  0
   39.4580   33.5310   47.5510 H   0  0  0  0  0  0  0  0  0  0  0  0
   39.0660   31.4640   46.2540 H   0  0  0  0  0  0  0  0  0  0  0  0
   33.6520   27.6540   48.5490 C   0  0  0  0  0  0  0  0  0  0  0  0
   34.1020   26.6950   47.8030 O   0  0  0  0  0  0  0  0  0  0  0  0
   32.3300   28.0530   48.4060 O   0  0  0  0  0  0  0  0  0  0  0  0
   31.8280   28.3750   47.1540 C   0  0  0  0  0  0  0  0  0  0  0  0
   32.3660   29.3810   46.3650 C   0  0  0  0  0  3  0  0  0  0  0  0
   31.7930   29.6300   45.1240 C   0  0  0  0  0  0  0  0  0  0  0  0
   32.2300   30.4170   44.5320 H   0  0  0  0  0  0  0  0  0  0  0  0
   30.7410   28.9000   44.7150 N   0  0  0  0  0  0  0  0  0  0  0  0
   30.2070   27.9100   45.4830 C   0  0  0  0  0  3  0  0  0  0  0  0
   30.7650   27.6730   46.6840 N   0  0  0  0  0  0  0  0  0  0  0  0
  1  4  1  6  0  0  0
  1  3  1  0  0  0  0
  1  8  1  0  0  0  0
  1  2  1  0  0  0  0
  2  5  1  0  0  0  0
  3  2  1  0  0  0  0
  3  7  1  1  0  0  0
  6  2  1  0  0  0  0
  8  9  1  0  0  0  0
 10  8  1  0  0  0  0
 11 16  1  0  0  0  0
 11 17  1  0  0  0  0
 12 11  2  0  0  0  0
 13 14  2  0  0  0  0
 13 12  1  0  0  0  0
 14 15  1  0  0  0  0
 15  8  1  0  0  0  0
 15 16  2  0  0  0  0
 18 12  1  0  0  0  0
 19 13  1  0  0  0  0
 20  3  1  0  0  0  0
 21 20  2  0  0  0  0
 22 20  1  0  0  0  0
 23 22  1  0  0  0  0
 24 23  2  0  0  0  0
 25 24  1  0  0  0  0
 26 25  1  0  0  0  0
 27 25  2  0  0  0  0
 27 28  1  0  0  0  0
 28 29  2  0  0  0  0
 29 23  1  0  0  0  0
M  END
>  <minimizedAffinity>
-4.7471137

>  <minimizedRMSD>
1.16472292

$$$$
