
 OpenBabel03252514073D

 36 38  0  0  0  0  0  0  0  0999 V2000
   34.4330   30.1660   47.5640 C   0  0  0  0  0  0  0  0  0  0  0  0
   35.4370   29.9530   48.5370 C   0  0  0  0  0  0  0  0  0  0  0  0
   35.4210   28.7320   49.1840 C   0  0  0  0  0  0  0  0  0  0  0  0
   34.4680   27.8160   48.8660 N   0  0  0  0  0  0  0  0  0  0  0  0
   33.5260   28.0510   47.9350 C   0  0  0  0  0  0  0  0  0  0  0  0
   33.5130   29.2170   47.2930 N   0  0  0  0  0  0  0  0  0  0  0  0
   34.4180   31.1220   47.0340 H   0  0  0  0  0  0  0  0  0  0  0  0
   36.1920   28.5670   49.9290 H   0  0  0  0  0  0  0  0  0  0  0  0
   36.3660   31.0020   48.7620 N   0  0  0  0  0  0  0  0  0  0  0  0
   36.3800   31.7620   49.8930 C   0  0  0  0  0  0  0  0  0  0  0  0
   37.3790   32.6670   49.7960 N   0  0  0  0  0  0  0  0  0  0  0  0
   37.9710   32.4530   48.6070 C   0  0  0  0  0  0  0  0  0  0  0  0
   39.0350   33.0470   47.9460 C   0  0  0  0  0  0  0  0  0  0  0  0
   39.4300   32.6320   46.7390 N   0  0  0  0  0  0  0  0  0  0  0  0
   38.8080   31.6100   46.1020 C   0  0  0  0  0  0  0  0  0  0  0  0
   37.7790   31.0400   46.7460 N   0  0  0  0  0  0  0  0  0  0  0  0
   37.3490   31.4150   47.9480 C   0  0  0  0  0  0  0  0  0  0  0  0
   35.7190   31.6890   50.7530 H   0  0  0  0  0  0  0  0  0  0  0  0
   39.1880   31.3400   45.1350 H   0  0  0  0  0  0  0  0  0  0  0  0
   39.7130   34.1200   48.5770 N   0  0  0  0  0  0  0  0  0  0  0  0
   39.1210   34.8220   49.0810 H   0  0  0  0  0  0  0  0  0  0  0  0
   40.7350   34.2860   48.5910 H   0  0  0  0  0  0  0  0  0  0  0  0
   32.4980   27.0410   47.6060 C   0  0  0  0  0  0  0  0  0  0  0  0
   31.3500   27.1020   48.5970 C   0  0  0  0  0  0  0  0  0  0  0  0
   30.4200   26.7510   48.0800 H   0  0  0  0  0  0  0  0  0  0  0  0
   31.1620   28.1970   48.7700 H   0  0  0  0  0  0  0  0  0  0  0  0
   31.5540   26.5500   49.5150 H   0  0  0  0  0  0  0  0  0  0  0  0
   31.8740   27.3500   46.2400 C   0  0  0  0  0  0  0  0  0  0  0  0
   30.9410   26.7820   46.1290 H   0  0  0  0  0  0  0  0  0  0  0  0
   31.7910   28.4340   46.0800 H   0  0  0  0  0  0  0  0  0  0  0  0
   32.5970   26.9390   45.4960 H   0  0  0  0  0  0  0  0  0  0  0  0
   33.0400   25.6340   47.5000 C   0  0  0  0  0  0  0  0  0  0  0  0
   33.1920   25.2820   48.5430 H   0  0  0  0  0  0  0  0  0  0  0  0
   32.2230   25.0280   47.0580 H   0  0  0  0  0  0  0  0  0  0  0  0
   34.2090   25.5790   46.7780 O   0  0  0  0  0  0  0  0  0  0  0  0
   34.0350   25.1210   45.9060 H   0  0  0  0  0  0  0  0  0  0  0  0
  1  2  1  0  0  0  0
  2  9  1  0  0  0  0
  2  3  2  0  0  0  0
  3  8  1  0  0  0  0
  4  3  1  0  0  0  0
  5  4  2  0  0  0  0
  6  1  2  0  0  0  0
  6  5  1  0  0  0  0
  7  1  1  0  0  0  0
  9 10  1  0  0  0  0
 10 18  1  0  0  0  0
 11 10  2  0  0  0  0
 12 11  1  0  0  0  0
 13 20  1  0  0  0  0
 13 12  2  0  0  0  0
 14 13  1  0  0  0  0
 15 14  2  0  0  0  0
 15 16  1  0  0  0  0
 16 17  2  0  0  0  0
 17 12  1  0  0  0  0
 17  9  1  0  0  0  0
 19 15  1  0  0  0  0
 20 22  1  0  0  0  0
 20 21  1  0  0  0  0
 23  5  1  0  0  0  0
 23 24  1  0  0  0  0
 24 26  1  0  0  0  0
 24 27  1  0  0  0  0
 25 24  1  0  0  0  0
 28 23  1  0  0  0  0
 29 28  1  0  0  0  0
 30 28  1  0  0  0  0
 31 28  1  0  0  0  0
 32 23  1  0  0  0  0
 32 33  1  0  0  0  0
 34 32  1  0  0  0  0
 35 32  1  0  0  0  0
 36 35  1  0  0  0  0
M  END
>  <minimizedAffinity>
-5.28375816

>  <minimizedRMSD>
0.218444318

$$$$
