
 OpenBabel03252512373D

 33 34  0  0  1  0  0  0  0  0999 V2000
   39.3550   31.3400   46.6780 C   0  0  2  0  0  0  0  0  0  0  0  0
   39.8980   32.5500   46.1120 C   0  0  0  0  0  0  0  0  0  0  0  0
   40.8550   32.3160   44.9900 C   0  0  0  0  0  0  0  0  0  0  0  0
   40.3440   31.3660   43.9760 C   0  0  0  0  0  0  0  0  0  0  0  0
   39.6580   30.1860   44.5260 C   0  0  0  0  0  0  0  0  0  0  0  0
   38.6330   30.5460   45.6290 C   0  0  2  0  0  0  0  0  0  0  0  0
   40.1790   30.6460   47.0000 H   0  0  0  0  0  0  0  0  0  0  0  0
   39.4500   33.5440   46.1780 H   0  0  0  0  0  0  0  0  0  0  0  0
   40.6700   32.7970   46.9400 H   0  0  0  0  0  0  0  0  0  0  0  0
   41.8660   31.9620   45.2740 H   0  0  0  0  0  0  0  0  0  0  0  0
   41.0420   33.3120   44.4990 H   0  0  0  0  0  0  0  0  0  0  0  0
   41.1830   31.0230   43.3440 H   0  0  0  0  0  0  0  0  0  0  0  0
   39.6610   31.9090   43.2820 H   0  0  0  0  0  0  0  0  0  0  0  0
   40.3640   29.4700   45.0140 H   0  0  0  0  0  0  0  0  0  0  0  0
   39.1160   29.6370   43.7400 H   0  0  0  0  0  0  0  0  0  0  0  0
   38.2800   29.5370   45.9370 H   0  0  0  0  0  0  0  0  0  0  0  0
   38.3390   32.7900   48.5230 C   0  0  0  0  0  0  0  0  0  0  0  0
   38.4950   31.5450   47.8380 C   0  0  0  0  0  0  0  0  0  0  0  0
   37.7890   30.4660   48.2740 C   0  0  0  0  0  0  0  0  0  0  0  0
   36.9560   30.6300   49.3550 N   0  0  0  0  0  0  0  0  0  0  0  0
   36.8270   31.8400   49.9920 C   0  0  0  0  0  0  0  0  0  0  0  0
   37.5310   32.9220   49.5620 N   0  0  0  0  0  0  0  0  0  0  0  0
   38.9240   33.6230   48.1380 H   0  0  0  0  0  0  0  0  0  0  0  0
   37.7550   29.4500   47.9170 H   0  0  0  0  0  0  0  0  0  0  0  0
   36.1670   31.9100   50.8260 H   0  0  0  0  0  0  0  0  0  0  0  0
   37.5900   31.3450   44.9590 C   0  0  0  0  0  0  0  0  0  0  0  0
   37.5790   32.6050   44.7640 O   0  0  0  0  0  0  0  0  0  0  0  0
   36.5290   30.6050   44.5110 O   0  0  0  0  0  0  0  0  0  0  0  0
   35.7990   30.9660   43.3560 C   0  0  0  0  0  0  0  0  0  0  0  0
   34.8140   32.0030   43.4160 N   0  0  0  0  0  0  0  0  0  0  0  0
   36.0030   30.3840   42.2590 O   0  0  0  0  0  0  0  0  0  0  0  0
   34.6230   32.7490   42.7380 H   0  0  0  0  0  0  0  0  0  0  0  0
   34.1600   32.0630   44.2500 H   0  0  0  0  0  0  0  0  0  0  0  0
  1  7  1  1  0  0  0
  1 18  1  0  0  0  0
  2  8  1  0  0  0  0
  2  1  1  0  0  0  0
  2  9  1  0  0  0  0
  3 10  1  0  0  0  0
  3  2  1  0  0  0  0
  4  5  1  0  0  0  0
  4  3  1  0  0  0  0
  5 14  1  0  0  0  0
  5  6  1  0  0  0  0
  6 16  1  1  0  0  0
  6  1  1  0  0  0  0
 11  3  1  0  0  0  0
 12  4  1  0  0  0  0
 13  4  1  0  0  0  0
 15  5  1  0  0  0  0
 17 22  1  0  0  0  0
 18 19  1  0  0  0  0
 18 17  2  0  0  0  0
 19 20  2  0  0  0  0
 20 21  1  0  0  0  0
 21 25  1  0  0  0  0
 22 21  2  0  0  0  0
 23 17  1  0  0  0  0
 24 19  1  0  0  0  0
 26  6  1  0  0  0  0
 27 26  2  0  0  0  0
 28 26  1  0  0  0  0
 29 30  1  0  0  0  0
 29 28  1  0  0  0  0
 30 33  1  0  0  0  0
 31 29  2  0  0  0  0
 32 30  1  0  0  0  0
M  END
>  <minimizedAffinity>
-5.10019159

>  <minimizedRMSD>
1.73483241

$$$$
