
 OpenBabel03252511383D

 27 28  0  0  1  0  0  0  0  0999 V2000
   36.1450   30.3010   49.8060 C   0  0  2  0  0  0  0  0  0  0  0  0
   35.2440   30.8630   50.1200 H   0  0  0  0  0  0  0  0  0  0  0  0
   37.1740   31.2400   49.2440 C   0  0  0  0  0  0  0  0  0  0  0  0
   37.2470   32.5240   49.7910 C   0  0  0  0  0  0  0  0  0  0  0  0
   38.2100   33.3780   49.2170 C   0  0  0  0  0  0  0  0  0  0  0  0
   38.9850   32.9250   48.2050 N   0  0  0  0  0  0  0  0  0  0  0  0
   38.8810   31.6550   47.6960 C   0  0  0  0  0  0  0  0  0  0  0  0
   37.9580   30.8140   48.2350 N   0  0  0  0  0  0  0  0  0  0  0  0
   36.5780   32.7760   50.5990 H   0  0  0  0  0  0  0  0  0  0  0  0
   38.2810   34.3580   49.6200 H   0  0  0  0  0  0  0  0  0  0  0  0
   39.5200   31.3600   46.8990 H   0  0  0  0  0  0  0  0  0  0  0  0
   36.7140   29.6960   51.1260 C   0  0  0  0  0  0  0  0  0  0  0  0
   36.5940   30.4760   51.9020 H   0  0  0  0  0  0  0  0  0  0  0  0
   36.1550   28.7760   51.3310 H   0  0  0  0  0  0  0  0  0  0  0  0
   37.7680   29.4560   50.9030 H   0  0  0  0  0  0  0  0  0  0  0  0
   35.8130   29.2040   48.8990 C   0  0  0  0  0  0  0  0  0  0  0  0
   35.6480   28.2560   49.4760 H   0  0  0  0  0  0  0  0  0  0  0  0
   36.7990   28.9510   48.3760 H   0  0  0  0  0  0  0  0  0  0  0  0
   34.8850   29.4270   47.8350 C   0  0  0  0  0  0  0  0  0  0  0  0
   34.8520   30.0560   46.6130 C   0  0  0  0  0  0  0  0  0  0  0  0
   33.6540   29.8920   46.0020 N   0  0  0  0  0  0  0  0  0  0  0  0
   32.8830   29.1550   46.8110 C   0  0  0  0  0  0  0  0  0  0  0  0
   33.6350   28.8820   47.9110 N   0  0  0  0  0  0  0  0  0  0  0  0
   35.7530   30.5970   46.2770 H   0  0  0  0  0  0  0  0  0  0  0  0
   31.8680   28.8550   46.6030 H   0  0  0  0  0  0  0  0  0  0  0  0
   33.0490   28.0770   48.9990 C   0  0  0  0  0  0  0  0  0  0  0  0
   32.1390   27.5460   48.5930 H   0  0  0  0  0  0  0  0  0  0  0  0
  1  2  1  1  0  0  0
  1 12  1  0  0  0  0
  3  4  1  0  0  0  0
  3  1  1  0  0  0  0
  4  9  1  0  0  0  0
  5 10  1  0  0  0  0
  5  4  2  0  0  0  0
  6  5  1  0  0  0  0
  7  6  2  0  0  0  0
  7  8  1  0  0  0  0
  8  3  2  0  0  0  0
 11  7  1  0  0  0  0
 12 14  1  0  0  0  0
 12 13  1  0  0  0  0
 15 12  1  0  0  0  0
 16 17  1  0  0  0  0
 16  1  1  0  0  0  0
 18 16  1  0  0  0  0
 19 23  1  0  0  0  0
 19 16  1  0  0  0  0
 20 19  2  0  0  0  0
 21 20  1  0  0  0  0
 21 22  2  0  0  0  0
 22 23  1  0  0  0  0
 23 26  1  0  0  0  0
 24 20  1  0  0  0  0
 25 22  1  0  0  0  0
 27 26  1  0  0  0  0
M  END
>  <minimizedAffinity>
-4.71714211

>  <minimizedRMSD>
1.14763844

$$$$
