
 OpenBabel03252510023D

 23 23  0  0  0  0  0  0  0  0999 V2000
   39.3880   32.1910   45.7850 C   0  0  0  0  0  0  0  0  0  0  0  0
   38.3410   33.0340   49.3290 C   0  0  0  0  0  0  0  0  0  0  0  0
   39.0650   33.1070   48.1180 C   0  0  0  0  0  0  0  0  0  0  0  0
   38.7260   32.2260   47.0870 C   0  0  0  0  0  0  0  0  0  0  0  0
   37.6970   31.3360   47.3200 N   0  0  0  0  0  0  0  0  0  0  0  0
   37.0370   31.3080   48.4940 C   0  0  0  0  0  0  0  0  0  0  0  0
   37.3440   32.1390   49.4920 N   0  0  0  0  0  0  0  0  0  0  0  0
   38.6190   33.7270   50.1190 H   0  0  0  0  0  0  0  0  0  0  0  0
   39.8700   33.8100   47.9510 H   0  0  0  0  0  0  0  0  0  0  0  0
   36.2290   30.5750   48.6130 H   0  0  0  0  0  0  0  0  0  0  0  0
   40.3970   31.0600   45.8150 C   0  0  0  0  0  0  0  0  0  0  0  0
   40.6750   30.7690   46.8570 H   0  0  0  0  0  0  0  0  0  0  0  0
   41.2720   31.3680   45.2130 H   0  0  0  0  0  0  0  0  0  0  0  0
   39.9890   30.1550   45.2780 H   0  0  0  0  0  0  0  0  0  0  0  0
   40.0510   33.4660   45.3860 C   0  0  0  0  0  0  0  0  0  0  0  0
   40.3250   33.4130   44.3290 H   0  0  0  0  0  0  0  0  0  0  0  0
   40.8990   33.6680   46.0640 H   0  0  0  0  0  0  0  0  0  0  0  0
   39.3300   34.2910   45.5670 H   0  0  0  0  0  0  0  0  0  0  0  0
   38.3330   31.8690   44.7330 C   0  0  0  0  0  0  0  0  0  0  0  0
   37.8710   30.8840   44.9860 H   0  0  0  0  0  0  0  0  0  0  0  0
   38.7540   31.7500   43.7220 H   0  0  0  0  0  0  0  0  0  0  0  0
   37.3710   32.8800   44.7260 O   0  0  0  0  0  0  0  0  0  0  0  0
   37.8330   33.7620   44.6800 H   0  0  0  0  0  0  0  0  0  0  0  0
  1 11  1  0  0  0  0
  1  4  1  0  0  0  0
  2  7  1  0  0  0  0
  2  8  1  0  0  0  0
  3  2  2  0  0  0  0
  4  5  2  0  0  0  0
  4  3  1  0  0  0  0
  5  6  1  0  0  0  0
  6 10  1  0  0  0  0
  6  7  2  0  0  0  0
  9  3  1  0  0  0  0
 11 12  1  0  0  0  0
 13 11  1  0  0  0  0
 14 11  1  0  0  0  0
 15 18  1  0  0  0  0
 15  1  1  0  0  0  0
 15 17  1  0  0  0  0
 16 15  1  0  0  0  0
 19 20  1  0  0  0  0
 19  1  1  0  0  0  0
 21 19  1  0  0  0  0
 22 19  1  0  0  0  0
 23 22  1  0  0  0  0
M  END
>  <minimizedAffinity>
-4.1643095

>  <minimizedRMSD>
0.611881971

$$$$
