
 OpenBabel03252511173D

 35 37  0  0  1  0  0  0  0  0999 V2000
   38.6530   31.7830   48.1190 C   0  0  1  0  0  0  0  0  0  0  0  0
   39.7200   31.7290   48.6160 H   0  0  0  0  0  0  0  0  0  0  0  0
   37.8560   31.0200   49.0890 C   0  0  0  0  0  0  0  0  0  0  0  0
   38.3120   30.8510   50.3260 N   0  0  0  0  0  0  0  0  0  0  0  0
   37.6290   30.1620   51.2660 C   0  0  0  0  0  0  0  0  0  0  0  0
   36.4560   29.6000   51.0340 N   0  0  0  0  0  0  0  0  0  0  0  0
   35.8850   29.7000   49.8200 C   0  0  0  0  0  0  0  0  0  0  0  0
   34.6810   29.1260   49.5460 C   0  0  0  0  0  0  0  0  0  0  0  0
   34.1090   29.2210   48.3190 C   0  0  0  0  0  0  0  0  0  0  0  0
   34.8170   29.9320   47.3650 C   0  0  0  0  0  0  0  0  0  0  0  0
   36.0280   30.5010   47.6700 C   0  0  0  0  0  0  0  0  0  0  0  0
   36.6180   30.4140   48.8930 C   0  0  0  0  0  0  0  0  0  0  0  0
   38.1150   30.0890   52.2650 H   0  0  0  0  0  0  0  0  0  0  0  0
   34.1930   28.5840   50.3600 H   0  0  0  0  0  0  0  0  0  0  0  0
   33.1600   28.7590   48.1240 H   0  0  0  0  0  0  0  0  0  0  0  0
   34.4140   30.0420   46.3760 H   0  0  0  0  0  0  0  0  0  0  0  0
   36.5310   31.0720   46.9000 H   0  0  0  0  0  0  0  0  0  0  0  0
   39.0460   31.5110   46.7700 C   0  0  0  0  0  0  0  0  0  0  0  0
   40.0030   32.4650   46.3510 C   0  0  0  0  0  0  0  0  0  0  0  0
   40.6490   32.3080   45.0820 C   0  0  0  0  0  0  0  0  0  0  0  0
   40.2820   31.2420   44.3790 N   0  0  0  0  0  0  0  0  0  0  0  0
   39.3460   30.3320   44.8090 C   0  0  0  0  0  0  0  0  0  0  0  0
   38.7500   30.4750   45.9760 N   0  0  0  0  0  0  0  0  0  0  0  0
   40.3410   33.3420   46.8690 H   0  0  0  0  0  0  0  0  0  0  0  0
   41.3790   32.9940   44.7140 H   0  0  0  0  0  0  0  0  0  0  0  0
   38.9520   29.1540   43.9800 C   0  0  0  0  0  0  0  0  0  0  0  0
   37.9380   29.2400   43.5510 H   0  0  0  0  0  0  0  0  0  0  0  0
   39.7550   28.9960   43.2310 H   0  0  0  0  0  0  0  0  0  0  0  0
   38.9960   28.2510   44.6350 H   0  0  0  0  0  0  0  0  0  0  0  0
   38.4110   33.0540   48.5270 O   0  0  0  0  0  0  0  0  0  0  0  0
   39.2230   34.0000   49.0790 C   0  0  0  0  0  0  0  0  0  0  0  0
   39.7390   35.1530   48.3780 N   0  0  0  0  0  0  0  0  0  0  0  0
   39.5720   33.9090   50.2710 O   0  0  0  0  0  0  0  0  0  0  0  0
   39.4940   36.0670   48.8600 H   0  0  0  0  0  0  0  0  0  0  0  0
   40.2520   35.6460   47.6160 H   0  0  0  0  0  0  0  0  0  0  0  0
  1 30  1  0  0  0  0
  1  2  1  1  0  0  0
  1  3  1  0  0  0  0
  3  4  1  0  0  0  0
  4  5  2  0  0  0  0
  5 13  1  0  0  0  0
  6  5  1  0  0  0  0
  7  6  2  0  0  0  0
  8  7  1  0  0  0  0
  8 14  1  0  0  0  0
  9  8  2  0  0  0  0
 10 11  2  0  0  0  0
 10  9  1  0  0  0  0
 11 12  1  0  0  0  0
 12  3  2  0  0  0  0
 12  7  1  0  0  0  0
 15  9  1  0  0  0  0
 16 10  1  0  0  0  0
 17 11  1  0  0  0  0
 18  1  1  0  0  0  0
 19 18  1  0  0  0  0
 19 24  1  0  0  0  0
 20 19  2  0  0  0  0
 21 22  2  0  0  0  0
 21 20  1  0  0  0  0
 22 23  1  0  0  0  0
 23 18  2  0  0  0  0
 25 20  1  0  0  0  0
 26 29  1  0  0  0  0
 26 22  1  0  0  0  0
 27 26  1  0  0  0  0
 28 26  1  0  0  0  0
 30 31  1  0  0  0  0
 31 33  2  0  0  0  0
 32 34  1  0  0  0  0
 32 31  1  0  0  0  0
 35 32  1  0  0  0  0
M  END
>  <minimizedAffinity>
-6.97062254

>  <minimizedRMSD>
0.511177063

$$$$
