
 OpenBabel03252513593D

 27 28  0  0  1  0  0  0  0  0999 V2000
   35.5850   29.6090   49.3730 C   0  0  2  0  0  0  0  0  0  0  0  0
   34.7230   29.3740   50.5380 C   0  0  0  0  0  0  0  0  0  0  0  0
   34.8700   28.2650   49.5980 C   0  0  1  0  0  0  0  0  0  0  0  0
   35.2440   30.2750   48.5870 H   0  0  0  0  0  0  0  0  0  0  0  0
   33.7340   29.8950   50.6680 H   0  0  0  0  0  0  0  0  0  0  0  0
   35.2010   29.2260   51.5380 H   0  0  0  0  0  0  0  0  0  0  0  0
   35.5540   27.4170   49.5840 H   0  0  0  0  0  0  0  0  0  0  0  0
   37.0930   29.4750   49.5690 C   0  0  0  0  0  0  0  0  0  0  0  0
   37.2710   29.3050   50.6440 H   0  0  0  0  0  0  0  0  0  0  0  0
   37.4340   28.5730   48.9940 H   0  0  0  0  0  0  0  0  0  0  0  0
   38.3130   32.9280   49.3670 C   0  0  0  0  0  0  0  0  0  0  0  0
   38.8840   32.9770   48.0870 C   0  0  0  0  0  0  0  0  0  0  0  0
   38.8490   31.8160   47.2970 C   0  0  0  0  0  0  0  0  0  0  0  0
   38.2530   30.6960   47.8270 N   0  0  0  0  0  0  0  0  0  0  0  0
   37.7200   30.6950   49.0520 C   0  0  0  0  0  0  0  0  0  0  0  0
   37.7540   31.8140   49.8120 N   0  0  0  0  0  0  0  0  0  0  0  0
   38.3980   33.8740   49.8800 H   0  0  0  0  0  0  0  0  0  0  0  0
   39.3690   33.8440   47.6240 H   0  0  0  0  0  0  0  0  0  0  0  0
   39.2600   31.7440   46.2980 H   0  0  0  0  0  0  0  0  0  0  0  0
   33.6500   27.9920   48.7620 C   0  0  0  0  0  0  0  0  0  0  0  0
   33.9090   27.6190   47.5460 O   0  0  0  0  0  0  0  0  0  0  0  0
   32.3260   28.0920   49.1690 O   0  0  0  0  0  0  0  0  0  0  0  0
   31.2810   27.6610   48.3800 C   0  0  0  0  0  0  0  0  0  0  0  0
   30.9620   28.6300   47.3630 N   0  0  0  0  0  0  0  0  0  0  0  0
   30.8070   26.5340   48.6780 O   0  0  0  0  0  0  0  0  0  0  0  0
   31.5250   28.8230   46.4950 H   0  0  0  0  0  0  0  0  0  0  0  0
   30.0760   28.9560   47.8510 H   0  0  0  0  0  0  0  0  0  0  0  0
  1  4  1  6  0  0  0
  1  8  1  0  0  0  0
  1  3  1  0  0  0  0
  1  2  1  0  0  0  0
  2  5  1  0  0  0  0
  2  6  1  0  0  0  0
  3  7  1  1  0  0  0
  3  2  1  0  0  0  0
  8  9  1  0  0  0  0
 10  8  1  0  0  0  0
 11 16  1  0  0  0  0
 11 17  1  0  0  0  0
 12 11  2  0  0  0  0
 13 14  2  0  0  0  0
 13 12  1  0  0  0  0
 14 15  1  0  0  0  0
 15  8  1  0  0  0  0
 15 16  2  0  0  0  0
 18 12  1  0  0  0  0
 19 13  1  0  0  0  0
 20 22  1  0  0  0  0
 20  3  1  0  0  0  0
 21 20  2  0  0  0  0
 23 25  2  0  0  0  0
 23 22  1  0  0  0  0
 24 27  1  0  0  0  0
 24 23  1  0  0  0  0
 26 24  1  0  0  0  0
M  END
>  <minimizedAffinity>
-4.80986547

>  <minimizedRMSD>
0.6102584

$$$$
