
 OpenBabel03252511243D

 39 43  0  0  0  0  0  0  0  0999 V2000
   33.6070   26.7700   47.7030 C   0  0  0  0  0  0  0  0  0  0  0  0
   32.6850   27.3480   46.8450 C   0  0  0  0  0  0  0  0  0  0  0  0
   32.7130   28.7260   46.7860 C   0  0  0  0  0  0  0  0  0  0  0  0
   33.6080   29.3780   47.5430 N   0  0  0  0  0  0  0  0  0  0  0  0
   34.4870   28.8530   48.3600 C   0  0  0  0  0  0  0  0  0  0  0  0
   34.4460   27.5170   48.4050 N   0  0  0  0  0  0  0  0  0  0  0  0
   33.5670   25.6740   47.7350 H   0  0  0  0  0  0  0  0  0  0  0  0
   31.9490   26.8690   46.2170 H   0  0  0  0  0  0  0  0  0  0  0  0
   35.4960   29.4040   49.2260 C   0  0  0  0  0  0  0  0  0  0  0  0
   35.5630   29.1470   50.6070 C   0  0  0  0  0  0  0  0  0  0  0  0
   36.5160   29.6620   51.4480 C   0  0  0  0  0  0  0  0  0  0  0  0
   37.4830   30.4840   50.9560 C   0  0  0  0  0  0  0  0  0  0  0  0
   37.4880   30.7870   49.6090 C   0  0  0  0  0  0  0  0  0  0  0  0
   38.4820   31.6190   49.1620 C   0  0  0  0  0  0  0  0  0  0  0  0
   38.5440   31.9560   47.8450 C   0  0  0  0  0  0  0  0  0  0  0  0
   37.5800   31.4340   47.0020 C   0  0  0  0  0  0  0  0  0  0  0  0
   36.6080   30.6050   47.5050 C   0  0  0  0  0  0  0  0  0  0  0  0
   36.5130   30.2460   48.8070 C   0  0  0  0  0  0  0  0  0  0  0  0
   34.8150   28.4980   51.0450 H   0  0  0  0  0  0  0  0  0  0  0  0
   36.5000   29.4150   52.5030 H   0  0  0  0  0  0  0  0  0  0  0  0
   38.2110   30.8680   51.6410 H   0  0  0  0  0  0  0  0  0  0  0  0
   39.2190   32.0160   49.8200 H   0  0  0  0  0  0  0  0  0  0  0  0
   39.3020   32.6060   47.4310 H   0  0  0  0  0  0  0  0  0  0  0  0
   37.6000   31.6840   45.9380 H   0  0  0  0  0  0  0  0  0  0  0  0
   35.8670   30.2200   46.7860 H   0  0  0  0  0  0  0  0  0  0  0  0
   31.8600   29.5350   45.9750 N   0  0  0  0  0  0  0  0  0  0  0  0
   32.2930   30.2900   44.9410 C   0  0  0  0  0  0  0  0  0  0  0  0
   31.2500   30.9370   44.3750 N   0  0  0  0  0  0  0  0  0  0  0  0
   30.1420   30.5930   45.0500 C   0  0  0  0  0  0  0  0  0  0  0  0
   28.7890   30.9100   44.9610 C   0  0  0  0  0  0  0  0  0  0  0  0
   28.4160   31.7080   44.0570 O   0  0  0  0  0  0  0  0  0  0  0  0
   27.9380   30.3490   45.8490 N   0  0  0  0  0  0  0  0  0  0  0  0
   28.3360   29.4990   46.8130 C   0  0  0  0  0  0  0  0  0  0  0  0
   27.2900   29.0170   47.6470 N   0  0  0  0  0  0  0  0  0  0  0  0
   29.6470   29.1460   46.9560 N   0  0  0  0  0  0  0  0  0  0  0  0
   30.5090   29.7110   46.0610 C   0  0  0  0  0  0  0  0  0  0  0  0
   26.9340   30.6350   45.7210 H   0  0  0  0  0  0  0  0  0  0  0  0
   26.5910   28.4060   47.1390 H   0  0  0  0  0  0  0  0  0  0  0  0
   27.2190   29.2490   48.6800 H   0  0  0  0  0  0  0  0  0  0  0  0
  1  7  1  0  0  0  0
  1  6  1  0  0  0  0
  2  1  2  0  0  0  0
  3  2  1  0  0  0  0
  3  4  2  0  0  0  0
  4  5  1  0  0  0  0
  5  6  2  0  0  0  0
  5  9  1  0  0  0  0
  8  2  1  0  0  0  0
  9 10  1  0  0  0  0
 10 19  1  0  0  0  0
 10 11  2  0  0  0  0
 11 20  1  0  0  0  0
 12 11  1  0  0  0  0
 12 21  1  0  0  0  0
 13 12  2  0  0  0  0
 14 13  1  0  0  0  0
 14 22  1  0  0  0  0
 15 14  2  0  0  0  0
 16 17  2  0  0  0  0
 16 15  1  0  0  0  0
 17 18  1  0  0  0  0
 18  9  2  0  0  0  0
 18 13  1  0  0  0  0
 23 15  1  0  0  0  0
 24 16  1  0  0  0  0
 25 17  1  0  0  0  0
 26 36  1  0  0  0  0
 26  3  1  0  0  0  0
 27 26  1  0  0  0  0
 28 27  2  0  0  0  0
 28 29  1  0  0  0  0
 29 36  2  0  0  0  0
 30 29  1  0  0  0  0
 30 32  1  0  0  0  0
 31 30  2  0  0  0  0
 32 33  1  0  0  0  0
 33 35  2  0  0  0  0
 33 34  1  0  0  0  0
 34 39  1  0  0  0  0
 36 35  1  0  0  0  0
 37 32  1  0  0  0  0
 38 34  1  0  0  0  0
M  END
>  <minimizedAffinity>
-7.6261754

>  <minimizedRMSD>
1.15273106

$$$$
