
 OpenBabel03252514013D

 32 35  0  0  1  0  0  0  0  0999 V2000
   35.4800   29.5160   49.1830 C   0  0  2  0  0  0  0  0  0  0  0  0
   34.4580   29.4910   50.2400 C   0  0  0  0  0  0  0  0  0  0  0  0
   34.7250   28.2280   49.5620 C   0  0  1  0  0  0  0  0  0  0  0  0
   35.2460   29.9610   48.2110 H   0  0  0  0  0  0  0  0  0  0  0  0
   33.4910   30.0320   50.0960 H   0  0  0  0  0  0  0  0  0  0  0  0
   34.7700   29.5180   51.3210 H   0  0  0  0  0  0  0  0  0  0  0  0
   35.3850   27.4090   49.8280 H   0  0  0  0  0  0  0  0  0  0  0  0
   36.9420   29.4610   49.6190 C   0  0  0  0  0  0  0  0  0  0  0  0
   36.9420   29.4480   50.7250 H   0  0  0  0  0  0  0  0  0  0  0  0
   37.4080   28.4800   49.3190 H   0  0  0  0  0  0  0  0  0  0  0  0
   38.3400   32.8320   49.2840 C   0  0  0  0  0  0  0  0  0  0  0  0
   38.8900   32.8180   47.9950 C   0  0  0  0  0  0  0  0  0  0  0  0
   38.7710   31.6330   47.2490 C   0  0  0  0  0  0  0  0  0  0  0  0
   38.1260   30.5630   47.8220 N   0  0  0  0  0  0  0  0  0  0  0  0
   37.6180   30.6330   49.0590 C   0  0  0  0  0  0  0  0  0  0  0  0
   37.7310   31.7710   49.7820 N   0  0  0  0  0  0  0  0  0  0  0  0
   38.4890   33.7900   49.7640 H   0  0  0  0  0  0  0  0  0  0  0  0
   39.3990   33.6530   47.5350 H   0  0  0  0  0  0  0  0  0  0  0  0
   39.1660   31.5350   46.2490 H   0  0  0  0  0  0  0  0  0  0  0  0
   33.6420   27.7660   48.6250 C   0  0  0  0  0  0  0  0  0  0  0  0
   34.0500   26.9510   47.7030 O   0  0  0  0  0  0  0  0  0  0  0  0
   32.3030   28.1240   48.6780 O   0  0  0  0  0  0  0  0  0  0  0  0
   29.8240   29.0830   43.7600 H   0  0  0  0  0  0  0  0  0  0  0  0
   30.3680   29.0670   44.6610 N   0  0  0  0  0  0  0  0  0  0  0  0
   31.1870   30.0720   45.0830 C   0  0  0  0  0  3  0  0  0  0  0  0
   31.7150   29.7170   46.2670 N   0  0  0  0  0  0  0  0  0  0  0  0
   31.2610   28.5000   46.6350 C   0  0  0  0  0  0  0  0  0  0  0  0
   31.4390   27.6460   47.7040 C   0  0  0  0  0  0  0  0  0  0  0  0
   30.7920   26.4550   47.7330 N   0  0  0  0  0  0  0  0  0  0  0  0
   29.9730   26.0940   46.7250 C   0  0  0  0  0  3  0  0  0  0  0  0
   29.7660   26.9040   45.6510 N   0  0  0  0  0  0  0  0  0  0  0  0
   30.4120   28.0990   45.6160 C   0  0  0  0  0  0  0  0  0  0  0  0
  1  4  1  6  0  0  0
  1  3  1  0  0  0  0
  1  8  1  0  0  0  0
  1  2  1  0  0  0  0
  2  6  1  0  0  0  0
  3  7  1  1  0  0  0
  3  2  1  0  0  0  0
  5  2  1  0  0  0  0
  8  9  1  0  0  0  0
 10  8  1  0  0  0  0
 11 17  1  0  0  0  0
 11 16  1  0  0  0  0
 12 11  2  0  0  0  0
 13 14  2  0  0  0  0
 13 12  1  0  0  0  0
 14 15  1  0  0  0  0
 15  8  1  0  0  0  0
 15 16  2  0  0  0  0
 18 12  1  0  0  0  0
 19 13  1  0  0  0  0
 20 22  1  0  0  0  0
 20  3  1  0  0  0  0
 21 20  2  0  0  0  0
 23 24  1  0  0  0  0
 24 25  1  0  0  0  0
 24 32  1  0  0  0  0
 25 26  2  0  0  0  0
 26 27  1  0  0  0  0
 27 28  1  0  0  0  0
 28 29  2  0  0  0  0
 28 22  1  0  0  0  0
 30 29  1  0  0  0  0
 31 30  2  0  0  0  0
 32 31  1  0  0  0  0
 32 27  2  0  0  0  0
M  END
>  <minimizedAffinity>
-5.15557003

>  <minimizedRMSD>
0.439899892

$$$$
