
 OpenBabel03252513053D

 28 30  0  0  0  0  0  0  0  0999 V2000
   38.7620   31.3750   47.5970 C   0  0  0  0  0  0  0  0  0  0  0  0
   39.7540   31.1140   48.0690 H   0  0  0  0  0  0  0  0  0  0  0  0
   38.3080   30.3610   47.4000 H   0  0  0  0  0  0  0  0  0  0  0  0
   39.0240   32.0180   46.3730 N   0  0  0  0  0  0  0  0  0  0  0  0
   40.0180   32.7950   46.0130 C   0  0  0  0  0  0  0  0  0  0  0  0
   40.1800   33.3760   44.7890 C   0  0  0  0  0  0  0  0  0  0  0  0
   39.2510   33.1560   43.8180 C   0  0  0  0  0  0  0  0  0  0  0  0
   39.3300   33.6530   42.6690 O   0  0  0  0  0  0  0  0  0  0  0  0
   38.2110   32.3690   44.1230 N   0  0  0  0  0  0  0  0  0  0  0  0
   38.1280   31.8410   45.3490 C   0  0  0  0  0  0  0  0  0  0  0  0
   37.1120   31.1130   45.5480 O   0  0  0  0  0  0  0  0  0  0  0  0
   40.7770   32.9870   46.7740 H   0  0  0  0  0  0  0  0  0  0  0  0
   41.0410   34.0090   44.5830 H   0  0  0  0  0  0  0  0  0  0  0  0
   37.2010   32.1130   43.1130 C   0  0  0  0  0  0  0  0  0  0  0  0
   36.8550   30.7610   42.6410 C   0  0  0  0  0  0  0  0  0  0  0  0
   37.5160   31.7500   41.7280 C   0  0  0  0  0  0  0  0  0  0  0  0
   37.9450   32.0420   48.6180 C   0  0  0  0  0  0  0  0  0  0  0  0
   38.6460   32.6410   49.2690 H   0  0  0  0  0  0  0  0  0  0  0  0
   37.2360   32.7480   48.1700 H   0  0  0  0  0  0  0  0  0  0  0  0
   35.4000   29.7510   50.2080 C   0  0  0  0  0  0  0  0  0  0  0  0
   36.0000   30.6120   49.2690 C   0  0  0  0  0  0  0  0  0  0  0  0
   37.2390   31.1360   49.5360 C   0  0  0  0  0  0  0  0  0  0  0  0
   37.8410   30.7980   50.7080 N   0  0  0  0  0  0  0  0  0  0  0  0
   37.2670   29.9780   51.6000 C   0  0  0  0  0  0  0  0  0  0  0  0
   36.0590   29.4550   51.3600 N   0  0  0  0  0  0  0  0  0  0  0  0
   34.4370   29.3280   50.0260 H   0  0  0  0  0  0  0  0  0  0  0  0
   35.4870   30.8490   48.3600 H   0  0  0  0  0  0  0  0  0  0  0  0
   37.8460   29.7860   52.4920 H   0  0  0  0  0  0  0  0  0  0  0  0
  1  2  1  0  0  0  0
  1 17  1  0  0  0  0
  3  1  1  0  0  0  0
  4  1  1  0  0  0  0
  5  4  1  0  0  0  0
  5 12  1  0  0  0  0
  6  5  2  0  0  0  0
  7  9  1  0  0  0  0
  7  6  1  0  0  0  0
  8  7  2  0  0  0  0
  9 10  1  0  0  0  0
 10 11  2  0  0  0  0
 10  4  1  0  0  0  0
 13  6  1  0  0  0  0
 14  9  1  0  0  0  0
 15 14  1  0  0  0  0
 16 15  1  0  0  0  0
 16 14  1  0  0  0  0
 17 18  1  0  0  0  0
 17 22  1  0  0  0  0
 19 17  1  0  0  0  0
 20 25  1  0  0  0  0
 21 22  1  0  0  0  0
 21 20  2  0  0  0  0
 22 23  2  0  0  0  0
 23 24  1  0  0  0  0
 24 28  1  0  0  0  0
 25 24  2  0  0  0  0
 26 20  1  0  0  0  0
 27 21  1  0  0  0  0
M  END
>  <minimizedAffinity>
-5.16253328

>  <minimizedRMSD>
1.55356503

$$$$
