
 OpenBabel03252514083D

 41 44  0  0  0  0  0  0  0  0999 V2000
   34.7360   29.6990   47.0820 C   0  0  0  0  0  0  0  0  0  0  0  0
   35.3820   29.6550   48.3210 C   0  0  0  0  0  0  0  0  0  0  0  0
   35.1330   28.5300   49.0980 C   0  0  0  0  0  0  0  0  0  0  0  0
   34.3100   27.5630   48.6430 N   0  0  0  0  0  0  0  0  0  0  0  0
   33.7040   27.6230   47.4590 C   0  0  0  0  0  0  0  0  0  0  0  0
   33.9290   28.6990   46.6910 N   0  0  0  0  0  0  0  0  0  0  0  0
   34.8800   30.5420   46.4220 H   0  0  0  0  0  0  0  0  0  0  0  0
   35.6220   28.4750   50.0600 H   0  0  0  0  0  0  0  0  0  0  0  0
   36.2260   30.7330   48.6940 N   0  0  0  0  0  0  0  0  0  0  0  0
   36.1150   31.4200   49.8460 C   0  0  0  0  0  0  0  0  0  0  0  0
   37.0810   32.3750   49.8690 N   0  0  0  0  0  0  0  0  0  0  0  0
   37.7710   32.2610   48.7310 C   0  0  0  0  0  0  0  0  0  0  0  0
   38.8480   32.9450   48.2060 C   0  0  0  0  0  0  0  0  0  0  0  0
   39.3610   32.6130   47.0030 N   0  0  0  0  0  0  0  0  0  0  0  0
   38.8440   31.6000   46.2610 C   0  0  0  0  0  0  0  0  0  0  0  0
   37.7960   30.9410   46.7830 N   0  0  0  0  0  0  0  0  0  0  0  0
   37.2520   31.2340   47.9760 C   0  0  0  0  0  0  0  0  0  0  0  0
   35.4030   31.2900   50.6610 H   0  0  0  0  0  0  0  0  0  0  0  0
   39.2510   31.3300   45.2960 H   0  0  0  0  0  0  0  0  0  0  0  0
   39.4310   34.0090   48.9280 N   0  0  0  0  0  0  0  0  0  0  0  0
   40.4640   33.9330   49.0710 H   0  0  0  0  0  0  0  0  0  0  0  0
   38.8530   34.8130   49.2890 H   0  0  0  0  0  0  0  0  0  0  0  0
   32.7930   26.5780   46.9260 C   0  0  0  0  0  0  0  0  0  0  0  0
   31.8170   26.1610   48.0370 C   0  0  0  0  0  0  0  0  0  0  0  0
   30.8620   25.8000   47.6310 H   0  0  0  0  0  0  0  0  0  0  0  0
   31.5780   27.1280   48.5660 H   0  0  0  0  0  0  0  0  0  0  0  0
   32.2840   25.5340   48.7990 H   0  0  0  0  0  0  0  0  0  0  0  0
   31.9200   27.1120   45.8100 C   0  0  0  0  0  0  0  0  0  0  0  0
   32.5310   27.3740   44.9380 H   0  0  0  0  0  0  0  0  0  0  0  0
   31.1840   26.2930   45.6000 H   0  0  0  0  0  0  0  0  0  0  0  0
   31.3500   27.9940   46.2180 H   0  0  0  0  0  0  0  0  0  0  0  0
   33.5370   25.3940   46.4030 C   0  0  0  0  0  0  0  0  0  0  0  0
   34.6080   25.4690   46.7330 H   0  0  0  0  0  0  0  0  0  0  0  0
   33.5820   25.5270   45.2900 H   0  0  0  0  0  0  0  0  0  0  0  0
   32.9260   24.1170   46.7560 C   0  0  0  0  0  0  0  0  0  0  0  0
   31.8800   23.5180   46.0890 C   0  0  0  0  0  3  0  0  0  0  0  0
   31.2990   22.3110   46.4170 C   0  0  0  0  0  3  0  0  0  0  0  0
   31.8890   21.7180   47.5390 C   0  0  0  0  0  0  0  0  0  0  0  0
   31.5140   20.7630   47.8920 H   0  0  0  0  0  0  0  0  0  0  0  0
   32.9360   22.2770   48.2390 C   0  0  0  0  0  3  0  0  0  0  0  0
   33.4190   23.4540   47.8280 N   0  0  0  0  0  0  0  0  0  0  0  0
  1  2  1  0  0  0  0
  2  9  1  0  0  0  0
  2  3  2  0  0  0  0
  3  8  1  0  0  0  0
  4  3  1  0  0  0  0
  5  4  2  0  0  0  0
  6  1  2  0  0  0  0
  6  5  1  0  0  0  0
  7  1  1  0  0  0  0
  9 10  1  0  0  0  0
 10 11  2  0  0  0  0
 10 18  1  0  0  0  0
 12 11  1  0  0  0  0
 13 12  1  0  0  0  0
 13 20  1  0  0  0  0
 14 13  2  0  0  0  0
 15 16  2  0  0  0  0
 15 14  1  0  0  0  0
 16 17  1  0  0  0  0
 17  9  1  0  0  0  0
 17 12  2  0  0  0  0
 19 15  1  0  0  0  0
 20 21  1  0  0  0  0
 20 22  1  0  0  0  0
 23  5  1  0  0  0  0
 23 24  1  0  0  0  0
 24 26  1  0  0  0  0
 24 27  1  0  0  0  0
 25 24  1  0  0  0  0
 28 31  1  0  0  0  0
 28 23  1  0  0  0  0
 29 28  1  0  0  0  0
 30 28  1  0  0  0  0
 32 33  1  0  0  0  0
 32 35  1  0  0  0  0
 32 23  1  0  0  0  0
 34 32  1  0  0  0  0
 35 41  1  0  0  0  0
 36 37  1  0  0  0  0
 36 35  2  0  0  0  0
 37 38  2  0  0  0  0
 38 39  1  0  0  0  0
 38 40  1  0  0  0  0
 41 40  2  0  0  0  0
M  END
>  <minimizedAffinity>
-5.44971132

>  <minimizedRMSD>
0.781146705

$$$$
