
 OpenBabel03252514013D

 32 35  0  0  1  0  0  0  0  0999 V2000
   35.4900   29.7070   49.4220 C   0  0  2  0  0  0  0  0  0  0  0  0
   34.6730   29.2600   50.5590 C   0  0  0  0  0  0  0  0  0  0  0  0
   34.7240   28.3720   49.4040 C   0  0  1  0  0  0  0  0  0  0  0  0
   35.1210   30.5000   48.7640 H   0  0  0  0  0  0  0  0  0  0  0  0
   33.7370   29.8100   50.8250 H   0  0  0  0  0  0  0  0  0  0  0  0
   35.1730   28.8580   51.4840 H   0  0  0  0  0  0  0  0  0  0  0  0
   35.3600   27.5170   49.1980 H   0  0  0  0  0  0  0  0  0  0  0  0
   36.9990   29.4910   49.5130 C   0  0  0  0  0  0  0  0  0  0  0  0
   37.2230   29.2690   50.5740 H   0  0  0  0  0  0  0  0  0  0  0  0
   37.3000   28.5590   48.9550 H   0  0  0  0  0  0  0  0  0  0  0  0
   38.2530   32.9300   49.3590 C   0  0  0  0  0  0  0  0  0  0  0  0
   38.8890   32.9780   48.1100 C   0  0  0  0  0  0  0  0  0  0  0  0
   38.8770   31.8100   47.3280 C   0  0  0  0  0  0  0  0  0  0  0  0
   38.2470   30.6950   47.8290 N   0  0  0  0  0  0  0  0  0  0  0  0
   37.6550   30.7080   49.0300 C   0  0  0  0  0  0  0  0  0  0  0  0
   37.6640   31.8290   49.7870 N   0  0  0  0  0  0  0  0  0  0  0  0
   38.3240   33.8800   49.8710 H   0  0  0  0  0  0  0  0  0  0  0  0
   39.3860   33.8480   47.7070 H   0  0  0  0  0  0  0  0  0  0  0  0
   39.3420   31.7590   46.3550 H   0  0  0  0  0  0  0  0  0  0  0  0
   33.4620   28.3140   48.5880 C   0  0  0  0  0  0  0  0  0  0  0  0
   33.5990   28.7370   47.3690 O   0  0  0  0  0  0  0  0  0  0  0  0
   32.2260   27.8580   49.0180 O   0  0  0  0  0  0  0  0  0  0  0  0
   30.3070   23.9110   45.5540 H   0  0  0  0  0  0  0  0  0  0  0  0
   30.7970   24.5300   46.2500 N   0  0  0  0  0  0  0  0  0  0  0  0
   31.9000   24.1640   46.9650 C   0  0  0  0  0  3  0  0  0  0  0  0
   32.2550   25.1950   47.7510 N   0  0  0  0  0  0  0  0  0  0  0  0
   31.4090   26.2330   47.5700 C   0  0  0  0  0  0  0  0  0  0  0  0
   31.2700   27.5100   48.0750 C   0  0  0  0  0  0  0  0  0  0  0  0
   30.2590   28.3020   47.6410 N   0  0  0  0  0  0  0  0  0  0  0  0
   29.3850   27.8530   46.7160 C   0  0  0  0  0  3  0  0  0  0  0  0
   29.4840   26.6020   46.1910 N   0  0  0  0  0  0  0  0  0  0  0  0
   30.4940   25.8050   46.6220 C   0  0  0  0  0  0  0  0  0  0  0  0
  1  4  1  6  0  0  0
  1  8  1  0  0  0  0
  1  2  1  0  0  0  0
  2  5  1  0  0  0  0
  2  6  1  0  0  0  0
  3  7  1  1  0  0  0
  3  1  1  0  0  0  0
  3  2  1  0  0  0  0
  8  9  1  0  0  0  0
 10  8  1  0  0  0  0
 11 16  1  0  0  0  0
 11 17  1  0  0  0  0
 12 11  2  0  0  0  0
 13 14  2  0  0  0  0
 13 12  1  0  0  0  0
 14 15  1  0  0  0  0
 15  8  1  0  0  0  0
 15 16  2  0  0  0  0
 18 12  1  0  0  0  0
 19 13  1  0  0  0  0
 20 22  1  0  0  0  0
 20  3  1  0  0  0  0
 21 20  2  0  0  0  0
 23 24  1  0  0  0  0
 24 32  1  0  0  0  0
 24 25  1  0  0  0  0
 25 26  2  0  0  0  0
 27 26  1  0  0  0  0
 27 28  1  0  0  0  0
 28 22  1  0  0  0  0
 29 28  2  0  0  0  0
 30 29  1  0  0  0  0
 31 32  1  0  0  0  0
 31 30  2  0  0  0  0
 32 27  2  0  0  0  0
M  END
>  <minimizedAffinity>
-5.2388835

>  <minimizedRMSD>
0.926335096

$$$$
