
 OpenBabel03252513513D

 45 48  0  0  1  0  0  0  0  0999 V2000
   35.5590   30.3330   44.4710 C   0  0  0  0  0  0  0  0  0  0  0  0
   36.6470   29.7520   44.3380 O   0  0  0  0  0  0  0  0  0  0  0  0
   35.3270   31.4090   43.5620 N   0  0  0  0  0  0  0  0  0  0  0  0
   34.0270   31.4540   42.9380 C   0  0  0  0  0  0  0  0  0  0  0  0
   34.0220   32.3380   41.7110 C   0  0  0  0  0  0  0  0  0  0  0  0
   35.2770   32.1920   41.1020 O   0  0  0  0  0  0  0  0  0  0  0  0
   36.1540   32.9770   41.8700 C   0  0  0  0  0  0  0  0  0  0  0  0
   36.3370   32.4220   43.2620 C   0  0  2  0  0  0  0  0  0  0  0  0
   33.3460   31.9460   43.6910 H   0  0  0  0  0  0  0  0  0  0  0  0
   33.5900   30.4750   42.7090 H   0  0  0  0  0  0  0  0  0  0  0  0
   33.9490   33.4060   42.0200 H   0  0  0  0  0  0  0  0  0  0  0  0
   33.2110   32.1080   41.0250 H   0  0  0  0  0  0  0  0  0  0  0  0
   35.8690   34.0480   41.8470 H   0  0  0  0  0  0  0  0  0  0  0  0
   37.1660   32.9260   41.3760 H   0  0  0  0  0  0  0  0  0  0  0  0
   36.0860   33.2660   43.9610 H   0  0  0  0  0  0  0  0  0  0  0  0
   37.6640   31.9850   43.5550 N   0  0  0  0  0  0  0  0  0  0  0  0
   38.5790   31.4960   42.6670 C   0  0  0  0  0  0  0  0  0  0  0  0
   39.7320   31.1810   43.3010 N   0  0  0  0  0  0  0  0  0  0  0  0
   39.5470   31.4740   44.6090 C   0  0  0  0  0  0  0  0  0  0  0  0
   40.4220   31.3350   45.6640 C   0  0  0  0  0  0  0  0  0  0  0  0
   41.5930   30.8800   45.5210 O   0  0  0  0  0  0  0  0  0  0  0  0
   40.0420   31.6880   46.9050 N   0  0  0  0  0  0  0  0  0  0  0  0
   38.7910   32.1680   47.0220 C   0  0  0  0  0  0  0  0  0  0  0  0
   38.3290   32.5600   48.3160 N   0  0  0  0  0  0  0  0  0  0  0  0
   37.9020   32.3200   46.0080 N   0  0  0  0  0  0  0  0  0  0  0  0
   38.2600   31.9730   44.7580 C   0  0  0  0  0  0  0  0  0  0  0  0
   40.6340   31.6170   47.7620 H   0  0  0  0  0  0  0  0  0  0  0  0
   37.6240   32.4930   49.0560 H   0  0  0  0  0  0  0  0  0  0  0  0
   39.0060   33.2460   48.7530 H   0  0  0  0  0  0  0  0  0  0  0  0
   34.1630   29.1010   47.7510 C   0  0  0  0  0  0  0  0  0  0  0  0
   35.0950   29.5190   46.7540 C   0  0  0  0  0  0  0  0  0  0  0  0
   34.6250   29.9060   45.4980 C   0  0  0  0  0  0  0  0  0  0  0  0
   33.2910   29.8530   45.3160 N   0  0  0  0  0  0  0  0  0  0  0  0
   32.4250   29.4580   46.2670 C   0  0  0  0  0  0  0  0  0  0  0  0
   32.8620   29.0940   47.4470 N   0  0  0  0  0  0  0  0  0  0  0  0
   36.1270   29.5220   47.0060 H   0  0  0  0  0  0  0  0  0  0  0  0
   30.9950   29.4720   45.8630 C   0  0  0  0  0  0  0  0  0  0  0  0
   30.6670   30.7040   45.2740 F   0  0  0  0  0  0  0  0  0  0  0  0
   30.7770   28.5340   44.8830 F   0  0  0  0  0  0  0  0  0  0  0  0
   30.1410   29.1850   46.9160 F   0  0  0  0  0  0  0  0  0  0  0  0
   34.6530   28.7250   48.9860 O   0  0  0  0  0  0  0  0  0  0  0  0
   35.4740   29.5180   49.7820 C   0  0  0  0  0  0  0  0  0  0  0  0
   36.8170   29.2980   49.5630 F   0  0  0  0  0  0  0  0  0  0  0  0
   35.1810   30.8460   49.7500 F   0  0  0  0  0  0  0  0  0  0  0  0
   35.2060   29.0750   51.0980 F   0  0  0  0  0  0  0  0  0  0  0  0
  1 32  1  0  0  0  0
  2  1  2  0  0  0  0
  3  1  1  0  0  0  0
  4  3  1  0  0  0  0
  4  9  1  0  0  0  0
  5 11  1  0  0  0  0
  5  4  1  0  0  0  0
  6  5  1  0  0  0  0
  6  7  1  0  0  0  0
  7  8  1  0  0  0  0
  8 16  1  0  0  0  0
  8  3  1  0  0  0  0
  8 15  1  1  0  0  0
 10  4  1  0  0  0  0
 12  5  1  0  0  0  0
 13  7  1  0  0  0  0
 14  7  1  0  0  0  0
 16 26  1  0  0  0  0
 17 18  2  0  0  0  0
 17 16  1  0  0  0  0
 18 19  1  0  0  0  0
 19 26  2  0  0  0  0
 19 20  1  0  0  0  0
 20 22  1  0  0  0  0
 21 20  2  0  0  0  0
 22 23  1  0  0  0  0
 22 27  1  0  0  0  0
 23 24  1  0  0  0  0
 24 29  1  0  0  0  0
 24 28  1  0  0  0  0
 25 23  2  0  0  0  0
 26 25  1  0  0  0  0
 30 41  1  0  0  0  0
 31 36  1  0  0  0  0
 31 30  2  0  0  0  0
 32 31  1  0  0  0  0
 33 32  2  0  0  0  0
 33 34  1  0  0  0  0
 34 35  2  0  0  0  0
 35 30  1  0  0  0  0
 37 34  1  0  0  0  0
 37 40  1  0  0  0  0
 38 37  1  0  0  0  0
 39 37  1  0  0  0  0
 41 42  1  0  0  0  0
 42 45  1  0  0  0  0
 43 42  1  0  0  0  0
 44 42  1  0  0  0  0
M  END
>  <minimizedAffinity>
-6.15762615

>  <minimizedRMSD>
4.33940601

$$$$
