
 OpenBabel03252514083D

 41 44  0  0  0  0  0  0  0  0999 V2000
   34.7240   29.7060   47.0770 C   0  0  0  0  0  0  0  0  0  0  0  0
   35.3740   29.6540   48.3130 C   0  0  0  0  0  0  0  0  0  0  0  0
   35.1280   28.5260   49.0850 C   0  0  0  0  0  0  0  0  0  0  0  0
   34.3020   27.5610   48.6280 N   0  0  0  0  0  0  0  0  0  0  0  0
   33.6920   27.6280   47.4470 C   0  0  0  0  0  0  0  0  0  0  0  0
   33.9140   28.7080   46.6830 N   0  0  0  0  0  0  0  0  0  0  0  0
   34.8660   30.5520   46.4210 H   0  0  0  0  0  0  0  0  0  0  0  0
   35.6200   28.4650   50.0450 H   0  0  0  0  0  0  0  0  0  0  0  0
   36.2200   30.7300   48.6890 N   0  0  0  0  0  0  0  0  0  0  0  0
   36.1120   31.4140   49.8440 C   0  0  0  0  0  0  0  0  0  0  0  0
   37.0790   32.3670   49.8680 N   0  0  0  0  0  0  0  0  0  0  0  0
   37.7670   32.2560   48.7290 C   0  0  0  0  0  0  0  0  0  0  0  0
   38.8450   32.9410   48.2060 C   0  0  0  0  0  0  0  0  0  0  0  0
   39.3550   32.6120   47.0010 N   0  0  0  0  0  0  0  0  0  0  0  0
   38.8360   31.6030   46.2560 C   0  0  0  0  0  0  0  0  0  0  0  0
   37.7880   30.9430   46.7770 N   0  0  0  0  0  0  0  0  0  0  0  0
   37.2460   31.2320   47.9710 C   0  0  0  0  0  0  0  0  0  0  0  0
   35.4010   31.2810   50.6590 H   0  0  0  0  0  0  0  0  0  0  0  0
   39.2420   31.3350   45.2900 H   0  0  0  0  0  0  0  0  0  0  0  0
   39.4300   34.0010   48.9300 N   0  0  0  0  0  0  0  0  0  0  0  0
   40.4630   33.9230   49.0720 H   0  0  0  0  0  0  0  0  0  0  0  0
   38.8540   34.8040   49.2950 H   0  0  0  0  0  0  0  0  0  0  0  0
   32.7780   26.5870   46.9110 C   0  0  0  0  0  0  0  0  0  0  0  0
   31.8080   26.1620   48.0250 C   0  0  0  0  0  0  0  0  0  0  0  0
   30.8510   25.8030   47.6210 H   0  0  0  0  0  0  0  0  0  0  0  0
   31.5720   27.1250   48.5610 H   0  0  0  0  0  0  0  0  0  0  0  0
   32.2800   25.5290   48.7800 H   0  0  0  0  0  0  0  0  0  0  0  0
   31.8980   27.1280   45.8040 C   0  0  0  0  0  0  0  0  0  0  0  0
   32.5050   27.3970   44.9300 H   0  0  0  0  0  0  0  0  0  0  0  0
   31.1620   26.3110   45.5920 H   0  0  0  0  0  0  0  0  0  0  0  0
   31.3300   28.0070   46.2220 H   0  0  0  0  0  0  0  0  0  0  0  0
   33.5190   25.4070   46.3760 C   0  0  0  0  0  0  0  0  0  0  0  0
   34.6020   25.5050   46.6600 H   0  0  0  0  0  0  0  0  0  0  0  0
   33.5160   25.5220   45.2600 H   0  0  0  0  0  0  0  0  0  0  0  0
   32.9460   24.1260   46.7740 C   0  0  0  0  0  0  0  0  0  0  0  0
   33.3330   23.3790   47.8650 C   0  0  0  0  0  3  0  0  0  0  0  0
   32.7940   22.1680   48.2460 C   0  0  0  0  0  3  0  0  0  0  0  0
   31.7740   21.7400   47.3900 C   0  0  0  0  0  0  0  0  0  0  0  0
   31.2730   20.7980   47.5900 H   0  0  0  0  0  0  0  0  0  0  0  0
   31.3510   22.4510   46.2870 C   0  0  0  0  0  3  0  0  0  0  0  0
   31.9480   23.6150   46.0150 N   0  0  0  0  0  0  0  0  0  0  0  0
  1  2  1  0  0  0  0
  2  9  1  0  0  0  0
  2  3  2  0  0  0  0
  3  8  1  0  0  0  0
  4  3  1  0  0  0  0
  5  4  2  0  0  0  0
  6  1  2  0  0  0  0
  6  5  1  0  0  0  0
  7  1  1  0  0  0  0
  9 10  1  0  0  0  0
 10 11  2  0  0  0  0
 10 18  1  0  0  0  0
 12 11  1  0  0  0  0
 13 12  1  0  0  0  0
 13 20  1  0  0  0  0
 14 13  2  0  0  0  0
 15 16  2  0  0  0  0
 15 14  1  0  0  0  0
 16 17  1  0  0  0  0
 17  9  1  0  0  0  0
 17 12  2  0  0  0  0
 19 15  1  0  0  0  0
 20 21  1  0  0  0  0
 20 22  1  0  0  0  0
 23  5  1  0  0  0  0
 23 24  1  0  0  0  0
 24 26  1  0  0  0  0
 24 27  1  0  0  0  0
 25 24  1  0  0  0  0
 28 31  1  0  0  0  0
 28 23  1  0  0  0  0
 29 28  1  0  0  0  0
 30 28  1  0  0  0  0
 32 33  1  0  0  0  0
 32 35  1  0  0  0  0
 32 23  1  0  0  0  0
 34 32  1  0  0  0  0
 35 36  1  0  0  0  0
 36 37  2  0  0  0  0
 38 39  1  0  0  0  0
 38 37  1  0  0  0  0
 40 38  2  0  0  0  0
 41 40  1  0  0  0  0
 41 35  2  0  0  0  0
M  END
>  <minimizedAffinity>
-5.45978308

>  <minimizedRMSD>
0.80817008

$$$$
