
 OpenBabel03252514013D

 32 35  0  0  1  0  0  0  0  0999 V2000
   35.5730   29.7350   49.4990 C   0  0  2  0  0  0  0  0  0  0  0  0
   34.6530   29.2920   50.5570 C   0  0  0  0  0  0  0  0  0  0  0  0
   34.8930   28.3530   49.4680 C   0  0  1  0  0  0  0  0  0  0  0  0
   35.2390   30.4690   48.7600 H   0  0  0  0  0  0  0  0  0  0  0  0
   33.6610   29.7920   50.6820 H   0  0  0  0  0  0  0  0  0  0  0  0
   35.0610   28.9680   51.5550 H   0  0  0  0  0  0  0  0  0  0  0  0
   35.5980   27.5320   49.3850 H   0  0  0  0  0  0  0  0  0  0  0  0
   37.0700   29.6210   49.7770 C   0  0  0  0  0  0  0  0  0  0  0  0
   37.1910   29.6620   50.8760 H   0  0  0  0  0  0  0  0  0  0  0  0
   37.4500   28.6010   49.4830 H   0  0  0  0  0  0  0  0  0  0  0  0
   38.5840   32.8900   49.1060 C   0  0  0  0  0  0  0  0  0  0  0  0
   38.9910   32.7790   47.7690 C   0  0  0  0  0  0  0  0  0  0  0  0
   38.7360   31.5650   47.1080 C   0  0  0  0  0  0  0  0  0  0  0  0
   38.1050   30.5620   47.8060 N   0  0  0  0  0  0  0  0  0  0  0  0
   37.7380   30.7240   49.0830 C   0  0  0  0  0  0  0  0  0  0  0  0
   37.9810   31.8900   49.7240 N   0  0  0  0  0  0  0  0  0  0  0  0
   38.8290   33.8620   49.5120 H   0  0  0  0  0  0  0  0  0  0  0  0
   39.4870   33.5610   47.2120 H   0  0  0  0  0  0  0  0  0  0  0  0
   39.0160   31.3960   46.0800 H   0  0  0  0  0  0  0  0  0  0  0  0
   33.7420   28.1750   48.5150 C   0  0  0  0  0  0  0  0  0  0  0  0
   34.0460   28.3870   47.2720 O   0  0  0  0  0  0  0  0  0  0  0  0
   32.4480   27.8100   48.8500 O   0  0  0  0  0  0  0  0  0  0  0  0
   30.4640   23.8250   45.4690 H   0  0  0  0  0  0  0  0  0  0  0  0
   30.9470   24.4430   46.1700 N   0  0  0  0  0  0  0  0  0  0  0  0
   31.9330   24.0240   47.0160 C   0  0  0  0  0  3  0  0  0  0  0  0
   32.3170   25.0710   47.7670 N   0  0  0  0  0  0  0  0  0  0  0  0
   31.6070   26.1700   47.4340 C   0  0  0  0  0  0  0  0  0  0  0  0
   31.5540   27.4890   47.8390 C   0  0  0  0  0  0  0  0  0  0  0  0
   30.6780   28.3410   47.2530 N   0  0  0  0  0  0  0  0  0  0  0  0
   29.8540   27.9140   46.2750 C   0  0  0  0  0  3  0  0  0  0  0  0
   29.8710   26.6230   45.8430 N   0  0  0  0  0  0  0  0  0  0  0  0
   30.7460   25.7650   46.4270 C   0  0  0  0  0  0  0  0  0  0  0  0
  1  4  1  6  0  0  0
  1  8  1  0  0  0  0
  1  2  1  0  0  0  0
  2  5  1  0  0  0  0
  2  6  1  0  0  0  0
  3  7  1  1  0  0  0
  3  1  1  0  0  0  0
  3  2  1  0  0  0  0
  8  9  1  0  0  0  0
 10  8  1  0  0  0  0
 11 17  1  0  0  0  0
 11 16  1  0  0  0  0
 12 11  2  0  0  0  0
 13 12  1  0  0  0  0
 13 14  2  0  0  0  0
 14 15  1  0  0  0  0
 15 16  2  0  0  0  0
 15  8  1  0  0  0  0
 18 12  1  0  0  0  0
 19 13  1  0  0  0  0
 20 22  1  0  0  0  0
 20  3  1  0  0  0  0
 21 20  2  0  0  0  0
 23 24  1  0  0  0  0
 24 32  1  0  0  0  0
 24 25  1  0  0  0  0
 25 26  2  0  0  0  0
 27 26  1  0  0  0  0
 27 28  1  0  0  0  0
 28 22  1  0  0  0  0
 29 28  2  0  0  0  0
 30 29  1  0  0  0  0
 31 30  2  0  0  0  0
 31 32  1  0  0  0  0
 32 27  2  0  0  0  0
M  END
>  <minimizedAffinity>
-5.18663216

>  <minimizedRMSD>
0.528169572

$$$$
