
 OpenBabel03252511463D

 46 51  0  0  1  0  0  0  0  0999 V2000
   33.8440   29.7550   47.3480 C   0  0  0  0  0  0  0  0  0  0  0  0
   34.7260   29.3980   48.3510 C   0  0  0  0  0  0  0  0  0  0  0  0
   34.3510   28.2240   49.0790 C   0  0  0  0  0  0  0  0  0  0  0  0
   33.2070   27.5590   48.7590 N   0  0  0  0  0  0  0  0  0  0  0  0
   32.4060   27.9740   47.7680 C   0  0  0  0  0  0  0  0  0  0  0  0
   32.7340   29.0600   47.0810 N   0  0  0  0  0  0  0  0  0  0  0  0
   34.1600   30.6410   46.8260 H   0  0  0  0  0  0  0  0  0  0  0  0
   34.9320   27.8240   49.8850 H   0  0  0  0  0  0  0  0  0  0  0  0
   35.9600   30.0220   48.7830 C   0  0  0  0  0  0  0  0  0  0  0  0
   36.1120   29.9490   50.1440 C   0  0  0  0  0  0  0  0  0  0  0  0
   37.2330   30.4880   50.7780 C   0  0  0  0  0  0  0  0  0  0  0  0
   38.2110   31.1100   50.0120 C   0  0  0  0  0  0  0  0  0  0  0  0
   38.0430   31.1750   48.6390 C   0  0  0  0  0  0  0  0  0  0  0  0
   38.9650   31.7770   47.7820 C   0  0  0  0  0  0  0  0  0  0  0  0
   38.7350   31.8080   46.4200 C   0  0  0  0  0  0  0  0  0  0  0  0
   37.6120   31.2590   45.8670 C   0  0  0  0  0  0  0  0  0  0  0  0
   36.6860   30.6560   46.7080 C   0  0  0  0  0  0  0  0  0  0  0  0
   36.9350   30.6380   48.0450 C   0  0  0  0  0  0  0  0  0  0  0  0
   35.4330   29.4970   50.8540 H   0  0  0  0  0  0  0  0  0  0  0  0
   37.4040   30.4600   51.8270 H   0  0  0  0  0  0  0  0  0  0  0  0
   39.1070   31.5510   50.4310 H   0  0  0  0  0  0  0  0  0  0  0  0
   39.8460   32.2030   48.2660 H   0  0  0  0  0  0  0  0  0  0  0  0
   39.5190   32.3010   45.8550 H   0  0  0  0  0  0  0  0  0  0  0  0
   37.4750   31.3070   44.7910 H   0  0  0  0  0  0  0  0  0  0  0  0
   35.7880   30.2200   46.2400 H   0  0  0  0  0  0  0  0  0  0  0  0
   31.1710   27.1950   47.4750 C   0  0  1  0  0  0  0  0  0  0  0  0
   30.4970   27.4110   46.1560 C   0  0  0  0  0  0  0  0  0  0  0  0
   31.2090   26.1200   46.4330 C   0  0  1  0  0  0  0  0  0  0  0  0
   30.5560   26.9220   48.3490 H   0  0  0  0  0  0  0  0  0  0  0  0
   30.9830   28.1580   45.4910 H   0  0  0  0  0  0  0  0  0  0  0  0
   29.3890   27.3330   46.1440 H   0  0  0  0  0  0  0  0  0  0  0  0
   30.5980   25.1890   46.5670 H   0  0  0  0  0  0  0  0  0  0  0  0
   32.5190   25.8440   45.9210 N   0  0  0  0  0  0  0  0  0  0  0  0
   33.2490   26.4120   44.9480 C   0  0  0  0  0  0  0  0  0  0  0  0
   34.4470   25.7650   44.8550 N   0  0  0  0  0  0  0  0  0  0  0  0
   34.4530   24.7860   45.7840 C   0  0  0  0  0  0  0  0  0  0  0  0
   35.4140   23.8330   46.1230 C   0  0  0  0  0  0  0  0  0  0  0  0
   36.5100   23.7490   45.5540 O   0  0  0  0  0  0  0  0  0  0  0  0
   35.1550   22.9550   47.1110 N   0  0  0  0  0  0  0  0  0  0  0  0
   33.9810   23.0000   47.7640 C   0  0  0  0  0  0  0  0  0  0  0  0
   33.6310   22.1030   48.8250 N   0  0  0  0  0  0  0  0  0  0  0  0
   33.0520   23.9200   47.4370 N   0  0  0  0  0  0  0  0  0  0  0  0
   33.2610   24.8320   46.4460 C   0  0  0  0  0  0  0  0  0  0  0  0
   35.7890   22.1980   47.4580 H   0  0  0  0  0  0  0  0  0  0  0  0
   33.0700   21.2740   48.4660 H   0  0  0  0  0  0  0  0  0  0  0  0
   34.0140   22.4690   49.7290 H   0  0  0  0  0  0  0  0  0  0  0  0
  1  2  1  0  0  0  0
  2  9  1  0  0  0  0
  2  3  2  0  0  0  0
  3  8  1  0  0  0  0
  4  3  1  0  0  0  0
  5  4  2  0  0  0  0
  6  1  2  0  0  0  0
  6  5  1  0  0  0  0
  7  1  1  0  0  0  0
  9 10  1  0  0  0  0
 10 11  2  0  0  0  0
 10 19  1  0  0  0  0
 11 20  1  0  0  0  0
 12 21  1  0  0  0  0
 12 11  1  0  0  0  0
 13 12  2  0  0  0  0
 14 22  1  0  0  0  0
 14 13  1  0  0  0  0
 15 14  2  0  0  0  0
 16 15  1  0  0  0  0
 16 17  2  0  0  0  0
 17 18  1  0  0  0  0
 18 13  1  0  0  0  0
 18  9  2  0  0  0  0
 23 15  1  0  0  0  0
 24 16  1  0  0  0  0
 25 17  1  0  0  0  0
 26  5  1  0  0  0  0
 26 29  1  1  0  0  0
 27 28  1  0  0  0  0
 27 26  1  0  0  0  0
 28 32  1  1  0  0  0
 28 26  1  0  0  0  0
 30 27  1  0  0  0  0
 31 27  1  0  0  0  0
 33 28  1  0  0  0  0
 33 43  1  0  0  0  0
 34 33  1  0  0  0  0
 35 34  2  0  0  0  0
 35 36  1  0  0  0  0
 36 37  1  0  0  0  0
 36 43  2  0  0  0  0
 37 39  1  0  0  0  0
 38 37  2  0  0  0  0
 39 44  1  0  0  0  0
 39 40  1  0  0  0  0
 40 41  1  0  0  0  0
 41 46  1  0  0  0  0
 42 40  2  0  0  0  0
 43 42  1  0  0  0  0
 45 41  1  0  0  0  0
M  END
>  <minimizedAffinity>
-6.88769197

>  <minimizedRMSD>
3.12577128

$$$$
