
 OpenBabel03252514013D

 32 35  0  0  1  0  0  0  0  0999 V2000
   35.3050   29.4700   49.0660 C   0  0  2  0  0  0  0  0  0  0  0  0
   34.2180   29.4020   50.0520 C   0  0  0  0  0  0  0  0  0  0  0  0
   34.5460   28.1630   49.3590 C   0  0  1  0  0  0  0  0  0  0  0  0
   35.1300   29.9390   48.0930 H   0  0  0  0  0  0  0  0  0  0  0  0
   33.2540   29.9350   49.8600 H   0  0  0  0  0  0  0  0  0  0  0  0
   34.4570   29.4030   51.1520 H   0  0  0  0  0  0  0  0  0  0  0  0
   35.1990   27.3450   49.6450 H   0  0  0  0  0  0  0  0  0  0  0  0
   36.7370   29.4210   49.5950 C   0  0  0  0  0  0  0  0  0  0  0  0
   36.6640   29.3510   50.6970 H   0  0  0  0  0  0  0  0  0  0  0  0
   37.2440   28.4660   49.2780 H   0  0  0  0  0  0  0  0  0  0  0  0
   37.9420   32.8790   49.4470 C   0  0  0  0  0  0  0  0  0  0  0  0
   38.7130   32.8930   48.2760 C   0  0  0  0  0  0  0  0  0  0  0  0
   38.8090   31.6970   47.5440 C   0  0  0  0  0  0  0  0  0  0  0  0
   38.1460   30.5890   48.0160 N   0  0  0  0  0  0  0  0  0  0  0  0
   37.4220   30.6330   49.1400 C   0  0  0  0  0  0  0  0  0  0  0  0
   37.3260   31.7820   49.8490 N   0  0  0  0  0  0  0  0  0  0  0  0
   37.9380   33.8490   49.9260 H   0  0  0  0  0  0  0  0  0  0  0  0
   39.2380   33.7580   47.8980 H   0  0  0  0  0  0  0  0  0  0  0  0
   39.3820   31.6200   46.6330 H   0  0  0  0  0  0  0  0  0  0  0  0
   33.5330   27.7140   48.3410 C   0  0  0  0  0  0  0  0  0  0  0  0
   33.7450   26.5240   47.8700 O   0  0  0  0  0  0  0  0  0  0  0  0
   32.4380   28.4390   47.8960 O   0  0  0  0  0  0  0  0  0  0  0  0
   27.4860   26.4820   49.5970 H   0  0  0  0  0  0  0  0  0  0  0  0
   28.4360   26.9100   49.4500 N   0  0  0  0  0  0  0  0  0  0  0  0
   29.1530   27.5460   50.4210 C   0  0  0  0  0  0  0  0  0  0  0  0
   30.3120   27.9640   49.8840 N   0  0  0  0  0  0  0  0  0  0  0  0
   30.3750   27.6170   48.5800 C   0  0  0  0  0  0  0  0  0  0  0  0
   31.2780   27.7640   47.5480 C   0  0  0  0  0  0  0  0  0  0  0  0
   30.9900   27.2650   46.3200 N   0  0  0  0  0  0  0  0  0  0  0  0
   29.8250   26.6240   46.0970 C   0  0  0  0  0  0  0  0  0  0  0  0
   28.9040   26.4550   47.0860 N   0  0  0  0  0  0  0  0  0  0  0  0
   29.1870   26.9530   48.3160 C   0  0  0  0  0  0  0  0  0  0  0  0
  1  4  1  6  0  0  0
  1  3  1  0  0  0  0
  1  8  1  0  0  0  0
  1  2  1  0  0  0  0
  2  6  1  0  0  0  0
  3  7  1  1  0  0  0
  3  2  1  0  0  0  0
  5  2  1  0  0  0  0
  8  9  1  0  0  0  0
 10  8  1  0  0  0  0
 11 16  1  0  0  0  0
 11 17  1  0  0  0  0
 12 11  2  0  0  0  0
 13 14  2  0  0  0  0
 13 12  1  0  0  0  0
 14 15  1  0  0  0  0
 15  8  1  0  0  0  0
 15 16  2  0  0  0  0
 18 12  1  0  0  0  0
 19 13  1  0  0  0  0
 20  3  1  0  0  0  0
 21 20  2  0  0  0  0
 22 20  1  0  0  0  0
 24 23  1  0  0  0  0
 24 25  1  0  0  0  0
 26 25  2  0  0  0  0
 27 26  1  0  0  0  0
 28 22  1  0  0  0  0
 28 27  2  0  0  0  0
 29 28  1  0  0  0  0
 30 29  2  0  0  0  0
 30 31  1  0  0  0  0
 31 32  2  0  0  0  0
 32 27  1  0  0  0  0
 32 24  1  0  0  0  0
M  END
>  <minimizedAffinity>
-5.79928732

>  <minimizedRMSD>
1.00111198

$$$$
