
 OpenBabel03252512453D

 31 33  0  0  1  0  0  0  0  0999 V2000
   40.0300   31.9830   46.4450 C   0  0  2  0  0  0  0  0  0  0  0  0
   40.9510   31.6650   46.9480 H   0  0  0  0  0  0  0  0  0  0  0  0
   37.2070   31.4060   48.7300 C   0  0  0  0  0  0  0  0  0  0  0  0
   37.4070   32.5290   49.5730 C   0  0  0  0  0  0  0  0  0  0  0  0
   38.8870   33.3580   48.8750 S   0  0  0  0  0  0  0  0  0  0  0  0
   38.9820   32.0040   47.5270 C   0  0  0  0  0  0  0  0  0  0  0  0
   38.1140   31.3470   47.7790 N   0  0  0  0  0  0  0  0  0  0  0  0
   36.7980   32.8180   50.4420 H   0  0  0  0  0  0  0  0  0  0  0  0
   35.9770   29.8790   50.2280 C   0  0  0  0  0  0  0  0  0  0  0  0
   36.0960   30.5010   48.9830 C   0  0  0  0  0  0  0  0  0  0  0  0
   35.1080   30.2010   48.0500 C   0  0  0  0  0  0  0  0  0  0  0  0
   34.1150   29.3480   48.3910 N   0  0  0  0  0  0  0  0  0  0  0  0
   34.0410   28.7750   49.5970 C   0  0  0  0  0  0  0  0  0  0  0  0
   34.9880   29.0440   50.5340 N   0  0  0  0  0  0  0  0  0  0  0  0
   36.7390   30.1020   50.9660 H   0  0  0  0  0  0  0  0  0  0  0  0
   35.1830   30.6680   47.0920 H   0  0  0  0  0  0  0  0  0  0  0  0
   33.1750   28.1320   49.6560 H   0  0  0  0  0  0  0  0  0  0  0  0
   40.0910   33.3590   45.8700 C   0  0  0  0  0  0  0  0  0  0  0  0
   40.5650   33.3060   44.8460 H   0  0  0  0  0  0  0  0  0  0  0  0
   40.5770   34.0910   46.5100 H   0  0  0  0  0  0  0  0  0  0  0  0
   39.0310   33.6890   45.6740 H   0  0  0  0  0  0  0  0  0  0  0  0
   39.6000   30.9750   45.3900 C   0  0  0  0  0  0  0  0  0  0  0  0
   40.4530   30.3130   45.1540 H   0  0  0  0  0  0  0  0  0  0  0  0
   38.8360   30.3280   45.8670 H   0  0  0  0  0  0  0  0  0  0  0  0
   39.0480   31.6450   44.1940 C   0  0  0  0  0  0  0  0  0  0  0  0
   39.7650   31.9970   43.0720 C   0  0  0  0  0  0  0  0  0  0  0  0
   39.1270   32.6250   42.0100 C   0  0  0  0  0  0  0  0  0  0  0  0
   37.7730   32.9250   42.0200 C   0  0  0  0  0  0  0  0  0  0  0  0
   37.2670   33.4130   41.1990 H   0  0  0  0  0  0  0  0  0  0  0  0
   37.1130   32.5470   43.1740 C   0  0  0  0  0  0  0  0  0  0  0  0
   37.7160   31.9320   44.2220 N   0  0  0  0  0  0  0  0  0  0  0  0
  1  2  1  1  0  0  0
  1  6  1  0  0  0  0
  3 10  1  0  0  0  0
  3  4  2  0  0  0  0
  4  8  1  0  0  0  0
  5  4  1  0  0  0  0
  6  7  2  0  0  0  0
  6  5  1  0  0  0  0
  7  3  1  0  0  0  0
  9 14  1  0  0  0  0
  9 15  1  0  0  0  0
 10  9  2  0  0  0  0
 11 12  2  0  0  0  0
 11 10  1  0  0  0  0
 12 13  1  0  0  0  0
 13 17  1  0  0  0  0
 13 14  2  0  0  0  0
 16 11  1  0  0  0  0
 18  1  1  0  0  0  0
 18 20  1  0  0  0  0
 19 18  1  0  0  0  0
 21 18  1  0  0  0  0
 22 24  1  0  0  0  0
 22  1  1  0  0  0  0
 23 22  1  0  0  0  0
 25 31  1  0  0  0  0
 25 22  1  0  0  0  0
 26 25  2  0  0  0  0
 27 28  2  0  0  0  0
 27 26  1  0  0  0  0
 28 30  1  0  0  0  0
 29 28  1  0  0  0  0
 30 31  2  0  0  0  0
M  END
>  <minimizedAffinity>
-5.39348125

>  <minimizedRMSD>
2.38104057

$$$$
