
 OpenBabel03252514013D

 32 35  0  0  1  0  0  0  0  0999 V2000
   35.2830   29.4580   49.0680 C   0  0  2  0  0  0  0  0  0  0  0  0
   34.2020   29.3690   50.0590 C   0  0  0  0  0  0  0  0  0  0  0  0
   34.5370   28.1410   49.3480 C   0  0  1  0  0  0  0  0  0  0  0  0
   35.0990   29.9380   48.1020 H   0  0  0  0  0  0  0  0  0  0  0  0
   33.2320   29.8950   49.8780 H   0  0  0  0  0  0  0  0  0  0  0  0
   34.4480   29.3580   51.1570 H   0  0  0  0  0  0  0  0  0  0  0  0
   35.1980   27.3250   49.6210 H   0  0  0  0  0  0  0  0  0  0  0  0
   36.7180   29.4150   49.5880 C   0  0  0  0  0  0  0  0  0  0  0  0
   36.6520   29.3050   50.6870 H   0  0  0  0  0  0  0  0  0  0  0  0
   37.2390   28.4800   49.2360 H   0  0  0  0  0  0  0  0  0  0  0  0
   37.8180   32.9100   49.5240 C   0  0  0  0  0  0  0  0  0  0  0  0
   38.6300   32.9630   48.3820 C   0  0  0  0  0  0  0  0  0  0  0  0
   38.7900   31.7800   47.6410 C   0  0  0  0  0  0  0  0  0  0  0  0
   38.1450   30.6460   48.0750 N   0  0  0  0  0  0  0  0  0  0  0  0
   37.3810   30.6540   49.1730 C   0  0  0  0  0  0  0  0  0  0  0  0
   37.2240   31.7900   49.8910 N   0  0  0  0  0  0  0  0  0  0  0  0
   37.7670   33.8730   50.0140 H   0  0  0  0  0  0  0  0  0  0  0  0
   39.1410   33.8490   48.0330 H   0  0  0  0  0  0  0  0  0  0  0  0
   39.3970   31.7330   46.7500 H   0  0  0  0  0  0  0  0  0  0  0  0
   33.5220   27.6960   48.3300 C   0  0  0  0  0  0  0  0  0  0  0  0
   33.7300   26.5050   47.8590 O   0  0  0  0  0  0  0  0  0  0  0  0
   32.4300   28.4250   47.8870 O   0  0  0  0  0  0  0  0  0  0  0  0
   27.4760   26.4890   49.6070 H   0  0  0  0  0  0  0  0  0  0  0  0
   28.4270   26.9120   49.4560 N   0  0  0  0  0  0  0  0  0  0  0  0
   29.1500   27.5460   50.4240 C   0  0  0  0  0  3  0  0  0  0  0  0
   30.3100   27.9590   49.8820 N   0  0  0  0  0  0  0  0  0  0  0  0
   30.3660   27.6110   48.5780 C   0  0  0  0  0  0  0  0  0  0  0  0
   31.2660   27.7540   47.5430 C   0  0  0  0  0  0  0  0  0  0  0  0
   30.9710   27.2560   46.3170 N   0  0  0  0  0  0  0  0  0  0  0  0
   29.8020   26.6190   46.0980 C   0  0  0  0  0  3  0  0  0  0  0  0
   28.8850   26.4550   47.0890 N   0  0  0  0  0  0  0  0  0  0  0  0
   29.1740   26.9510   48.3190 C   0  0  0  0  0  0  0  0  0  0  0  0
  1  4  1  6  0  0  0
  1  3  1  0  0  0  0
  1  8  1  0  0  0  0
  1  2  1  0  0  0  0
  2  6  1  0  0  0  0
  3  7  1  1  0  0  0
  3  2  1  0  0  0  0
  5  2  1  0  0  0  0
  8  9  1  0  0  0  0
 10  8  1  0  0  0  0
 11 16  1  0  0  0  0
 11 17  1  0  0  0  0
 12 11  2  0  0  0  0
 13 14  2  0  0  0  0
 13 12  1  0  0  0  0
 14 15  1  0  0  0  0
 15  8  1  0  0  0  0
 15 16  2  0  0  0  0
 18 12  1  0  0  0  0
 19 13  1  0  0  0  0
 20  3  1  0  0  0  0
 21 20  2  0  0  0  0
 22 20  1  0  0  0  0
 24 23  1  0  0  0  0
 24 25  1  0  0  0  0
 26 25  2  0  0  0  0
 27 26  1  0  0  0  0
 28 22  1  0  0  0  0
 28 27  2  0  0  0  0
 29 28  1  0  0  0  0
 30 29  2  0  0  0  0
 30 31  1  0  0  0  0
 31 32  2  0  0  0  0
 32 27  1  0  0  0  0
 32 24  1  0  0  0  0
M  END
>  <minimizedAffinity>
-5.78163099

>  <minimizedRMSD>
1.45072687

$$$$
