
 OpenBabel03252514033D

 36 39  0  0  1  0  0  0  0  0999 V2000
   35.2460   29.2010   48.6080 C   0  0  2  0  0  0  0  0  0  0  0  0
   34.0350   29.3310   49.4110 C   0  0  0  0  0  0  0  0  0  0  0  0
   34.3820   27.9830   49.0760 C   0  0  1  0  0  0  0  0  0  0  0  0
   35.3170   29.3040   47.5180 H   0  0  0  0  0  0  0  0  0  0  0  0
   33.1450   29.8300   48.9290 H   0  0  0  0  0  0  0  0  0  0  0  0
   34.1640   29.7360   50.4500 H   0  0  0  0  0  0  0  0  0  0  0  0
   34.9400   27.2850   49.6980 H   0  0  0  0  0  0  0  0  0  0  0  0
   36.5770   29.2340   49.3790 C   0  0  0  0  0  0  0  0  0  0  0  0
   36.3670   29.1420   50.4520 H   0  0  0  0  0  0  0  0  0  0  0  0
   37.2100   28.3860   48.9910 H   0  0  0  0  0  0  0  0  0  0  0  0
   37.6300   32.7250   49.5620 C   0  0  0  0  0  0  0  0  0  0  0  0
   38.4950   32.8490   48.4660 C   0  0  0  0  0  0  0  0  0  0  0  0
   38.7060   31.7020   47.6660 C   0  0  0  0  0  0  0  0  0  0  0  0
   38.0560   30.5450   48.0080 N   0  0  0  0  0  0  0  0  0  0  0  0
   37.2430   30.4860   49.0630 C   0  0  0  0  0  0  0  0  0  0  0  0
   37.0330   31.5820   49.8380 N   0  0  0  0  0  0  0  0  0  0  0  0
   37.5030   33.6330   50.1430 H   0  0  0  0  0  0  0  0  0  0  0  0
   39.0140   33.7380   48.1780 H   0  0  0  0  0  0  0  0  0  0  0  0
   39.3630   31.7630   46.8190 H   0  0  0  0  0  0  0  0  0  0  0  0
   33.5250   27.3330   48.0070 C   0  0  0  0  0  0  0  0  0  0  0  0
   33.8600   26.1080   47.7660 O   0  0  0  0  0  0  0  0  0  0  0  0
   32.4670   27.9290   47.3210 O   0  0  0  0  0  0  0  0  0  0  0  0
   31.2140   28.0740   47.8540 C   0  0  0  0  0  0  0  0  0  0  0  0
   30.7910   27.5960   49.1960 C   0  0  0  0  0  0  0  0  0  0  0  0
   29.5140   27.8250   49.5630 C   0  0  0  0  0  0  0  0  0  0  0  0
   28.6000   28.4900   48.7220 C   0  0  0  0  0  0  0  0  0  0  0  0
   29.6150   28.8620   47.2080 S   0  0  0  0  0  0  0  0  0  0  0  0
   31.5370   27.0980   49.7840 H   0  0  0  0  0  0  0  0  0  0  0  0
   29.1300   27.5100   50.5170 H   0  0  0  0  0  0  0  0  0  0  0  0
   27.3280   28.8330   48.8370 N   0  0  0  0  0  0  0  0  0  0  0  0
   26.2490   28.0500   48.9930 N   0  0  0  0  0  0  0  0  0  0  0  0
   25.1300   28.7640   49.0720 C   0  0  0  0  0  0  0  0  0  0  0  0
   24.1380   28.3510   49.1980 H   0  0  0  0  0  0  0  0  0  0  0  0
   25.4660   30.0970   48.9650 C   0  0  0  0  0  3  0  0  0  0  0  0
   26.8370   30.1040   48.8210 C   0  0  0  0  0  0  0  0  0  0  0  0
   27.4020   31.0380   48.7110 H   0  0  0  0  0  0  0  0  0  0  0  0
  1  4  1  6  0  0  0
  1  3  1  0  0  0  0
  1  8  1  0  0  0  0
  1  2  1  0  0  0  0
  2  6  1  0  0  0  0
  3  2  1  0  0  0  0
  3  7  1  1  0  0  0
  5  2  1  0  0  0  0
  8  9  1  0  0  0  0
 10  8  1  0  0  0  0
 11 16  1  0  0  0  0
 11 17  1  0  0  0  0
 12 11  2  0  0  0  0
 13 14  2  0  0  0  0
 13 12  1  0  0  0  0
 14 15  1  0  0  0  0
 15  8  1  0  0  0  0
 15 16  2  0  0  0  0
 18 12  1  0  0  0  0
 19 13  1  0  0  0  0
 20  3  1  0  0  0  0
 21 20  2  0  0  0  0
 22 23  1  0  0  0  0
 22 20  1  0  0  0  0
 23 24  2  0  0  0  0
 24 25  1  0  0  0  0
 24 28  1  0  0  0  0
 25 29  1  0  0  0  0
 26 30  1  0  0  0  0
 26 25  2  0  0  0  0
 27 23  1  0  0  0  0
 27 26  1  0  0  0  0
 30 31  1  0  0  0  0
 31 32  2  0  0  0  0
 32 33  1  0  0  0  0
 34 32  1  0  0  0  0
 35 30  1  0  0  0  0
 35 34  2  0  0  0  0
 36 35  1  0  0  0  0
M  END
>  <minimizedAffinity>
-6.23611689

>  <minimizedRMSD>
1.54654896

$$$$
