
 OpenBabel03252514043D

 36 39  0  0  1  0  0  0  0  0999 V2000
   35.2420   29.2290   48.6590 C   0  0  2  0  0  0  0  0  0  0  0  0
   34.0480   29.2770   49.4970 C   0  0  0  0  0  0  0  0  0  0  0  0
   34.4220   27.9620   49.0720 C   0  0  1  0  0  0  0  0  0  0  0  0
   35.2830   29.4000   47.5760 H   0  0  0  0  0  0  0  0  0  0  0  0
   33.1340   29.7790   49.0670 H   0  0  0  0  0  0  0  0  0  0  0  0
   34.1920   29.6230   50.5550 H   0  0  0  0  0  0  0  0  0  0  0  0
   35.0130   27.2440   49.6370 H   0  0  0  0  0  0  0  0  0  0  0  0
   36.5910   29.2520   49.4000 C   0  0  0  0  0  0  0  0  0  0  0  0
   36.4040   29.1590   50.4770 H   0  0  0  0  0  0  0  0  0  0  0  0
   37.2090   28.4010   48.9970 H   0  0  0  0  0  0  0  0  0  0  0  0
   37.6550   32.7410   49.5540 C   0  0  0  0  0  0  0  0  0  0  0  0
   38.5110   32.8560   48.4510 C   0  0  0  0  0  0  0  0  0  0  0  0
   38.7120   31.7040   47.6560 C   0  0  0  0  0  0  0  0  0  0  0  0
   38.0620   30.5510   48.0090 N   0  0  0  0  0  0  0  0  0  0  0  0
   37.2570   30.5000   49.0720 C   0  0  0  0  0  0  0  0  0  0  0  0
   37.0570   31.6010   49.8420 N   0  0  0  0  0  0  0  0  0  0  0  0
   37.5350   33.6530   50.1300 H   0  0  0  0  0  0  0  0  0  0  0  0
   39.0310   33.7410   48.1530 H   0  0  0  0  0  0  0  0  0  0  0  0
   39.3620   31.7570   46.8030 H   0  0  0  0  0  0  0  0  0  0  0  0
   33.5560   27.3540   47.9850 C   0  0  0  0  0  0  0  0  0  0  0  0
   33.9360   26.1680   47.6410 O   0  0  0  0  0  0  0  0  0  0  0  0
   32.4490   27.9500   47.3820 O   0  0  0  0  0  0  0  0  0  0  0  0
   31.1990   27.9520   47.9430 C   0  0  0  0  0  0  0  0  0  0  0  0
   30.8280   27.2790   49.2140 C   0  0  0  0  0  0  0  0  0  0  0  0
   29.5460   27.3840   49.6220 C   0  0  0  0  0  0  0  0  0  0  0  0
   28.5820   28.1000   48.8850 C   0  0  0  0  0  0  0  0  0  0  0  0
   29.5480   28.7240   47.4230 S   0  0  0  0  0  0  0  0  0  0  0  0
   31.6100   26.7520   49.7230 H   0  0  0  0  0  0  0  0  0  0  0  0
   29.1970   26.9250   50.5300 H   0  0  0  0  0  0  0  0  0  0  0  0
   27.2950   28.3520   49.0580 N   0  0  0  0  0  0  0  0  0  0  0  0
   26.5800   28.3720   50.1930 N   0  0  0  0  0  0  0  0  0  0  0  0
   25.3050   28.6680   49.9650 C   0  0  0  0  0  0  0  0  0  0  0  0
   24.5380   28.7410   50.7260 H   0  0  0  0  0  0  0  0  0  0  0  0
   25.1450   28.8570   48.6080 C   0  0  0  0  0  3  0  0  0  0  0  0
   26.4000   28.6540   48.0760 C   0  0  0  0  0  0  0  0  0  0  0  0
   26.5920   28.7370   46.9990 H   0  0  0  0  0  0  0  0  0  0  0  0
  1  4  1  6  0  0  0
  1  3  1  0  0  0  0
  1  8  1  0  0  0  0
  1  2  1  0  0  0  0
  2  6  1  0  0  0  0
  3  2  1  0  0  0  0
  3  7  1  1  0  0  0
  5  2  1  0  0  0  0
  8  9  1  0  0  0  0
 10  8  1  0  0  0  0
 11 16  1  0  0  0  0
 11 17  1  0  0  0  0
 12 11  2  0  0  0  0
 13 14  2  0  0  0  0
 13 12  1  0  0  0  0
 14 15  1  0  0  0  0
 15  8  1  0  0  0  0
 15 16  2  0  0  0  0
 18 12  1  0  0  0  0
 19 13  1  0  0  0  0
 20  3  1  0  0  0  0
 21 20  2  0  0  0  0
 22 23  1  0  0  0  0
 22 20  1  0  0  0  0
 23 24  2  0  0  0  0
 24 25  1  0  0  0  0
 24 28  1  0  0  0  0
 25 29  1  0  0  0  0
 26 30  1  0  0  0  0
 26 25  2  0  0  0  0
 27 23  1  0  0  0  0
 27 26  1  0  0  0  0
 30 31  1  0  0  0  0
 32 31  2  0  0  0  0
 32 33  1  0  0  0  0
 34 32  1  0  0  0  0
 35 34  2  0  0  0  0
 35 30  1  0  0  0  0
 36 35  1  0  0  0  0
M  END
>  <minimizedAffinity>
-6.03705025

>  <minimizedRMSD>
1.3508662

$$$$
