
 OpenBabel03252514013D

 29 31  0  0  1  0  0  0  0  0999 V2000
   35.7480   29.6560   49.3700 C   0  0  2  0  0  0  0  0  0  0  0  0
   34.8230   29.5030   50.5010 C   0  0  0  0  0  0  0  0  0  0  0  0
   35.0560   28.3170   49.6820 C   0  0  1  0  0  0  0  0  0  0  0  0
   35.4440   30.2350   48.4950 H   0  0  0  0  0  0  0  0  0  0  0  0
   33.8280   30.0070   50.4930 H   0  0  0  0  0  0  0  0  0  0  0  0
   35.2920   29.5030   51.5120 H   0  0  0  0  0  0  0  0  0  0  0  0
   35.7690   27.4960   49.7680 H   0  0  0  0  0  0  0  0  0  0  0  0
   37.2440   29.5980   49.6710 C   0  0  0  0  0  0  0  0  0  0  0  0
   37.3690   29.6260   50.7710 H   0  0  0  0  0  0  0  0  0  0  0  0
   37.6560   28.6610   49.2760 H   0  0  0  0  0  0  0  0  0  0  0  0
   38.5740   32.9960   49.3280 C   0  0  0  0  0  0  0  0  0  0  0  0
   39.0200   33.0240   47.9970 C   0  0  0  0  0  0  0  0  0  0  0  0
   38.8570   31.8600   47.2250 C   0  0  0  0  0  0  0  0  0  0  0  0
   38.2720   30.7640   47.8140 N   0  0  0  0  0  0  0  0  0  0  0  0
   37.8640   30.7900   49.0890 C   0  0  0  0  0  0  0  0  0  0  0  0
   38.0180   31.9090   49.8360 N   0  0  0  0  0  0  0  0  0  0  0  0
   38.7520   33.9380   49.8120 H   0  0  0  0  0  0  0  0  0  0  0  0
   39.4780   33.8310   47.4820 H   0  0  0  0  0  0  0  0  0  0  0  0
   39.1720   31.7970   46.1950 H   0  0  0  0  0  0  0  0  0  0  0  0
   33.8980   27.9260   48.8020 C   0  0  0  0  0  0  0  0  0  0  0  0
   34.2310   27.2020   47.7790 O   0  0  0  0  0  0  0  0  0  0  0  0
   32.5660   28.2540   48.9920 O   0  0  0  0  0  0  0  0  0  0  0  0
   31.5860   27.6060   48.2720 C   0  0  0  0  0  0  0  0  0  0  0  0
   30.8990   26.4100   48.2690 C   0  0  0  0  0  3  0  0  0  0  0  0
   30.0340   26.4840   47.1980 C   0  0  0  0  0  0  0  0  0  0  0  0
   29.3790   25.6460   46.9890 H   0  0  0  0  0  0  0  0  0  0  0  0
   30.1820   27.6650   46.5750 N   0  0  0  0  0  0  0  0  0  0  0  0
   31.1240   28.3500   47.2250 N   0  0  0  0  0  0  0  0  0  0  0  0
   29.6350   27.9660   45.7250 H   0  0  0  0  0  0  0  0  0  0  0  0
  1  4  1  6  0  0  0
  1  8  1  0  0  0  0
  1  3  1  0  0  0  0
  1  2  1  0  0  0  0
  2  6  1  0  0  0  0
  3  7  1  1  0  0  0
  3  2  1  0  0  0  0
  5  2  1  0  0  0  0
  8  9  1  0  0  0  0
 10  8  1  0  0  0  0
 11 17  1  0  0  0  0
 11 16  1  0  0  0  0
 12 11  2  0  0  0  0
 13 14  2  0  0  0  0
 13 12  1  0  0  0  0
 14 15  1  0  0  0  0
 15  8  1  0  0  0  0
 15 16  2  0  0  0  0
 18 12  1  0  0  0  0
 19 13  1  0  0  0  0
 20 22  1  0  0  0  0
 20  3  1  0  0  0  0
 21 20  2  0  0  0  0
 23 22  1  0  0  0  0
 24 23  1  0  0  0  0
 25 24  2  0  0  0  0
 26 25  1  0  0  0  0
 27 25  1  0  0  0  0
 27 28  1  0  0  0  0
 28 23  2  0  0  0  0
 29 27  1  0  0  0  0
M  END
>  <minimizedAffinity>
-4.84516096

>  <minimizedRMSD>
0.674532235

$$$$
