
 OpenBabel03252513203D

 19 20  0  0  0  0  0  0  0  0999 V2000
   35.2540   29.2490   50.4290 C   0  0  0  0  0  0  0  0  0  0  0  0
   36.1020   30.1800   49.8130 C   0  0  0  0  0  0  0  0  0  0  0  0
   35.8290   30.4910   48.4780 C   0  0  0  0  0  0  0  0  0  0  0  0
   34.7680   29.8820   47.8480 N   0  0  0  0  0  0  0  0  0  0  0  0
   33.9870   28.9910   48.4970 C   0  0  0  0  0  0  0  0  0  0  0  0
   34.2410   28.6840   49.7860 N   0  0  0  0  0  0  0  0  0  0  0  0
   35.5490   29.0770   51.4580 H   0  0  0  0  0  0  0  0  0  0  0  0
   36.4380   31.2050   47.9210 H   0  0  0  0  0  0  0  0  0  0  0  0
   32.8870   28.3540   47.8590 N   0  0  0  0  0  0  0  0  0  0  0  0
   32.1010   27.5580   48.6020 N   0  0  0  0  0  0  0  0  0  0  0  0
   31.1240   27.0550   47.8180 C   0  0  0  0  0  0  0  0  0  0  0  0
   30.2940   26.3850   48.0000 H   0  0  0  0  0  0  0  0  0  0  0  0
   31.3440   27.5770   46.5500 C   0  0  0  0  0  0  0  0  0  0  0  0
   32.4620   28.4010   46.5830 C   0  0  0  0  0  0  0  0  0  0  0  0
   32.9990   29.0030   45.8660 H   0  0  0  0  0  0  0  0  0  0  0  0
   37.2500   30.8400   50.4910 C   0  0  0  0  0  0  0  0  0  0  0  0
   38.4630   30.4970   49.9770 F   0  0  0  0  0  0  0  0  0  0  0  0
   37.2690   30.5410   51.8290 F   0  0  0  0  0  0  0  0  0  0  0  0
   37.1260   32.2170   50.3580 F   0  0  0  0  0  0  0  0  0  0  0  0
  1  7  1  0  0  0  0
  2  1  1  0  0  0  0
  2 16  1  0  0  0  0
  3  2  2  0  0  0  0
  4  3  1  0  0  0  0
  4  5  2  0  0  0  0
  5  6  1  0  0  0  0
  6  1  2  0  0  0  0
  8  3  1  0  0  0  0
  9  5  1  0  0  0  0
  9 10  1  0  0  0  0
 11 12  1  0  0  0  0
 11 10  2  0  0  0  0
 13 14  2  0  0  0  0
 13 11  1  0  0  0  0
 14  9  1  0  0  0  0
 15 14  1  0  0  0  0
 16 18  1  0  0  0  0
 17 16  1  0  0  0  0
 19 16  1  0  0  0  0
M  END
>  <minimizedAffinity>
-5.0092454

>  <minimizedRMSD>
0.754772723

$$$$
