
 OpenBabel03252513433D

 20 21  0  0  0  0  0  0  0  0999 V2000
   37.2670   30.5550   49.1560 C   0  0  0  0  0  0  0  0  0  0  0  0
   37.0520   31.6900   49.9680 C   0  0  0  0  0  0  0  0  0  0  0  0
   37.6490   32.8940   49.6170 C   0  0  0  0  0  0  0  0  0  0  0  0
   38.4230   32.9300   48.4940 N   0  0  0  0  0  0  0  0  0  0  0  0
   38.5990   31.8210   47.7510 C   0  0  0  0  0  0  0  0  0  0  0  0
   38.0330   30.6420   48.0660 N   0  0  0  0  0  0  0  0  0  0  0  0
   36.4340   31.6840   50.8760 H   0  0  0  0  0  0  0  0  0  0  0  0
   37.4890   33.7690   50.2360 H   0  0  0  0  0  0  0  0  0  0  0  0
   39.4340   32.0560   46.6230 N   0  0  0  0  0  0  0  0  0  0  0  0
   39.7000   30.9270   45.9720 N   0  0  0  0  0  0  0  0  0  0  0  0
   40.4990   31.1890   44.9030 C   0  0  0  0  0  0  0  0  0  0  0  0
   40.9080   30.5160   44.1600 H   0  0  0  0  0  0  0  0  0  0  0  0
   40.7340   32.5270   44.8960 C   0  0  0  0  0  0  0  0  0  0  0  0
   40.0590   33.0760   45.9870 C   0  0  0  0  0  0  0  0  0  0  0  0
   39.9010   34.0390   46.4460 H   0  0  0  0  0  0  0  0  0  0  0  0
   36.6730   29.3840   49.5190 O   0  0  0  0  0  0  0  0  0  0  0  0
   35.4360   29.2560   50.1710 C   0  0  0  0  0  0  0  0  0  0  0  0
   35.5320   29.2200   51.5470 F   0  0  0  0  0  0  0  0  0  0  0  0
   34.5030   30.1790   49.7700 F   0  0  0  0  0  0  0  0  0  0  0  0
   34.9310   28.0040   49.7660 F   0  0  0  0  0  0  0  0  0  0  0  0
  1 16  1  0  0  0  0
  1  2  1  0  0  0  0
  2  7  1  0  0  0  0
  3  2  2  0  0  0  0
  3  8  1  0  0  0  0
  4  3  1  0  0  0  0
  5  6  1  0  0  0  0
  5  4  2  0  0  0  0
  6  1  2  0  0  0  0
  9  5  1  0  0  0  0
 10  9  1  0  0  0  0
 11 10  2  0  0  0  0
 12 11  1  0  0  0  0
 13 11  1  0  0  0  0
 13 14  2  0  0  0  0
 14 15  1  0  0  0  0
 14  9  1  0  0  0  0
 16 17  1  0  0  0  0
 17 18  1  0  0  0  0
 19 17  1  0  0  0  0
 20 17  1  0  0  0  0
M  END
>  <minimizedAffinity>
-6.0998373

>  <minimizedRMSD>
1.6617105

$$$$
