
 OpenBabel03252513543D

 18 19  0  0  0  0  0  0  0  0999 V2000
   37.7210   29.7430   50.1140 C   0  0  0  0  0  0  0  0  0  0  0  0
   37.9480   30.6280   49.0510 C   0  0  0  0  0  0  0  0  0  0  0  0
   36.8320   31.0750   48.3050 C   0  0  0  0  0  0  0  0  0  0  0  0
   35.5980   30.6080   48.6750 N   0  0  0  0  0  0  0  0  0  0  0  0
   35.4200   29.7580   49.7030 C   0  0  0  0  0  0  0  0  0  0  0  0
   36.4840   29.3360   50.4090 N   0  0  0  0  0  0  0  0  0  0  0  0
   38.6200   29.4310   50.6560 H   0  0  0  0  0  0  0  0  0  0  0  0
   38.9200   31.0110   48.7410 H   0  0  0  0  0  0  0  0  0  0  0  0
   36.9040   31.7600   47.4650 H   0  0  0  0  0  0  0  0  0  0  0  0
   34.0590   29.2980   50.0410 C   0  0  0  0  0  0  0  0  0  0  0  0
   34.1020   28.8850   51.0810 H   0  0  0  0  0  0  0  0  0  0  0  0
   33.3550   30.1810   50.0520 H   0  0  0  0  0  0  0  0  0  0  0  0
   33.5480   28.2600   49.1100 C   0  0  0  0  0  0  0  0  0  0  0  0
   32.1500   28.0160   48.9970 C   0  0  0  0  0  0  0  0  0  0  0  0
   32.0190   26.6400   47.7110 S   0  0  0  0  0  0  0  0  0  0  0  0
   33.9110   26.6700   47.5800 C   0  0  0  0  0  0  0  0  0  0  0  0
   34.8490   26.1040   46.9690 H   0  0  0  0  0  0  0  0  0  0  0  0
   34.2270   27.4660   48.3040 N   0  0  0  0  0  0  0  0  0  0  0  0
  1  6  1  0  0  0  0
  1  7  1  0  0  0  0
  2  1  2  0  0  0  0
  3  4  2  0  0  0  0
  3  2  1  0  0  0  0
  4  5  1  0  0  0  0
  5 10  1  0  0  0  0
  5  6  2  0  0  0  0
  8  2  1  0  0  0  0
  9  3  1  0  0  0  0
 10 12  1  0  0  0  0
 10 11  1  0  0  0  0
 13 10  1  0  0  0  0
 14 13  2  0  0  0  0
 15 14  1  0  0  0  0
 16 15  1  0  0  0  0
 16 18  2  0  0  0  0
 17 16  1  0  0  0  0
 18 13  1  0  0  0  0
M  END
>  <minimizedAffinity>
-3.55054283

>  <minimizedRMSD>
2.40592527

$$$$
