
 OpenBabel03252514043D

 36 39  0  0  1  0  0  0  0  0999 V2000
   35.2430   29.1980   48.6090 C   0  0  2  0  0  0  0  0  0  0  0  0
   34.0330   29.3260   49.4140 C   0  0  0  0  0  0  0  0  0  0  0  0
   34.3810   27.9790   49.0750 C   0  0  1  0  0  0  0  0  0  0  0  0
   35.3130   29.3040   47.5190 H   0  0  0  0  0  0  0  0  0  0  0  0
   33.1420   29.8250   48.9340 H   0  0  0  0  0  0  0  0  0  0  0  0
   34.1640   29.7290   50.4530 H   0  0  0  0  0  0  0  0  0  0  0  0
   34.9400   27.2800   49.6940 H   0  0  0  0  0  0  0  0  0  0  0  0
   36.5760   29.2300   49.3780 C   0  0  0  0  0  0  0  0  0  0  0  0
   36.3670   29.1320   50.4510 H   0  0  0  0  0  0  0  0  0  0  0  0
   37.2100   28.3860   48.9850 H   0  0  0  0  0  0  0  0  0  0  0  0
   37.6140   32.7260   49.5710 C   0  0  0  0  0  0  0  0  0  0  0  0
   38.4840   32.8540   48.4810 C   0  0  0  0  0  0  0  0  0  0  0  0
   38.7050   31.7090   47.6800 C   0  0  0  0  0  0  0  0  0  0  0  0
   38.0580   30.5490   48.0170 N   0  0  0  0  0  0  0  0  0  0  0  0
   37.2380   30.4850   49.0670 C   0  0  0  0  0  0  0  0  0  0  0  0
   37.0200   31.5790   49.8420 N   0  0  0  0  0  0  0  0  0  0  0  0
   37.4790   33.6320   50.1520 H   0  0  0  0  0  0  0  0  0  0  0  0
   39.0020   33.7450   48.1960 H   0  0  0  0  0  0  0  0  0  0  0  0
   39.3660   31.7730   46.8370 H   0  0  0  0  0  0  0  0  0  0  0  0
   33.5230   27.3310   48.0060 C   0  0  0  0  0  0  0  0  0  0  0  0
   33.8570   26.1060   47.7630 O   0  0  0  0  0  0  0  0  0  0  0  0
   32.4660   27.9290   47.3210 O   0  0  0  0  0  0  0  0  0  0  0  0
   31.2120   28.0740   47.8540 C   0  0  0  0  0  0  0  0  0  0  0  0
   30.7900   27.5940   49.1950 C   0  0  0  0  0  0  0  0  0  0  0  0
   29.5120   27.8230   49.5630 C   0  0  0  0  0  0  0  0  0  0  0  0
   28.5990   28.4890   48.7230 C   0  0  0  0  0  0  0  0  0  0  0  0
   29.6140   28.8620   47.2090 S   0  0  0  0  0  0  0  0  0  0  0  0
   31.5350   27.0960   49.7830 H   0  0  0  0  0  0  0  0  0  0  0  0
   29.1280   27.5070   50.5170 H   0  0  0  0  0  0  0  0  0  0  0  0
   27.3260   28.8330   48.8390 N   0  0  0  0  0  0  0  0  0  0  0  0
   26.2480   28.0500   48.9960 N   0  0  0  0  0  0  0  0  0  0  0  0
   25.1300   28.7640   49.0750 C   0  0  0  0  0  0  0  0  0  0  0  0
   24.1370   28.3520   49.2040 H   0  0  0  0  0  0  0  0  0  0  0  0
   25.4650   30.0970   48.9650 C   0  0  0  0  0  3  0  0  0  0  0  0
   26.8350   30.1040   48.8200 C   0  0  0  0  0  0  0  0  0  0  0  0
   27.4000   31.0370   48.7070 H   0  0  0  0  0  0  0  0  0  0  0  0
  1  4  1  6  0  0  0
  1  3  1  0  0  0  0
  1  8  1  0  0  0  0
  1  2  1  0  0  0  0
  2  6  1  0  0  0  0
  3  2  1  0  0  0  0
  3  7  1  1  0  0  0
  5  2  1  0  0  0  0
  8  9  1  0  0  0  0
 10  8  1  0  0  0  0
 11 16  1  0  0  0  0
 11 17  1  0  0  0  0
 12 11  2  0  0  0  0
 13 14  2  0  0  0  0
 13 12  1  0  0  0  0
 14 15  1  0  0  0  0
 15  8  1  0  0  0  0
 15 16  2  0  0  0  0
 18 12  1  0  0  0  0
 19 13  1  0  0  0  0
 20  3  1  0  0  0  0
 21 20  2  0  0  0  0
 22 23  1  0  0  0  0
 22 20  1  0  0  0  0
 23 24  2  0  0  0  0
 24 25  1  0  0  0  0
 24 28  1  0  0  0  0
 25 29  1  0  0  0  0
 26 30  1  0  0  0  0
 26 25  2  0  0  0  0
 27 23  1  0  0  0  0
 27 26  1  0  0  0  0
 30 31  1  0  0  0  0
 31 32  2  0  0  0  0
 32 33  1  0  0  0  0
 34 32  1  0  0  0  0
 35 30  1  0  0  0  0
 35 34  2  0  0  0  0
 36 35  1  0  0  0  0
M  END
>  <minimizedAffinity>
-6.24039888

>  <minimizedRMSD>
1.55685472

$$$$
