
 OpenBabel03252513313D

 40 43  0  0  0  0  0  0  0  0999 V2000
   31.6960   26.3700   47.7410 C   0  0  0  0  0  0  0  0  0  0  0  0
   31.4790   25.2050   47.0910 C   0  0  0  0  0  0  0  0  0  0  0  0
   32.4970   24.4180   46.5750 C   0  0  0  0  0  0  0  0  0  0  0  0
   33.7840   24.8900   46.7590 C   0  0  0  0  0  0  0  0  0  0  0  0
   34.0290   26.0760   47.4190 C   0  0  0  0  0  0  0  0  0  0  0  0
   32.9870   26.8270   47.9160 C   0  0  0  0  0  0  0  0  0  0  0  0
   30.4500   24.8870   46.9780 H   0  0  0  0  0  0  0  0  0  0  0  0
   32.2080   23.5080   46.0760 H   0  0  0  0  0  0  0  0  0  0  0  0
   34.5640   24.2640   46.3500 H   0  0  0  0  0  0  0  0  0  0  0  0
   35.0420   26.3940   47.5330 H   0  0  0  0  0  0  0  0  0  0  0  0
   29.1470   27.8160   49.9780 C   0  0  0  0  0  0  0  0  0  0  0  0
   28.4950   28.7440   49.1310 C   0  0  0  0  0  0  0  0  0  0  0  0
   28.9560   28.8450   47.8120 C   0  0  0  0  0  0  0  0  0  0  0  0
   30.0000   28.0480   47.4160 N   0  0  0  0  0  0  0  0  0  0  0  0
   30.5930   27.1710   48.2710 C   0  0  0  0  0  0  0  0  0  0  0  0
   30.1550   27.0810   49.5080 N   0  0  0  0  0  0  0  0  0  0  0  0
   28.7630   27.7670   50.9870 H   0  0  0  0  0  0  0  0  0  0  0  0
   28.5090   29.5280   47.1120 H   0  0  0  0  0  0  0  0  0  0  0  0
   27.3670   29.5910   49.5830 C   0  0  0  0  0  0  0  0  0  0  0  0
   27.7650   30.7340   50.2200 F   0  0  0  0  0  0  0  0  0  0  0  0
   26.5340   28.9070   50.4470 F   0  0  0  0  0  0  0  0  0  0  0  0
   26.5980   29.9760   48.4650 F   0  0  0  0  0  0  0  0  0  0  0  0
   33.1970   28.1030   48.6310 C   0  0  0  0  0  0  0  0  0  0  0  0
   32.2170   28.5360   48.9250 H   0  0  0  0  0  0  0  0  0  0  0  0
   33.6850   27.8320   49.5860 H   0  0  0  0  0  0  0  0  0  0  0  0
   33.9140   29.1420   47.8470 C   0  0  0  0  0  0  0  0  0  0  0  0
   34.1480   28.7130   46.8400 H   0  0  0  0  0  0  0  0  0  0  0  0
   33.2680   30.0260   47.6850 H   0  0  0  0  0  0  0  0  0  0  0  0
   35.1740   29.5030   48.4950 C   0  0  0  0  0  0  0  0  0  0  0  0
   35.6850   28.8360   49.5920 C   0  0  0  0  0  0  0  0  0  0  0  0
   36.8750   29.4210   49.9620 C   0  0  0  0  0  0  0  0  0  0  0  0
   37.0480   30.4440   49.0590 N   0  0  0  0  0  0  0  0  0  0  0  0
   36.0490   30.4930   48.1960 N   0  0  0  0  0  0  0  0  0  0  0  0
   35.3880   27.9940   50.2030 H   0  0  0  0  0  0  0  0  0  0  0  0
   37.6000   29.2260   50.7490 H   0  0  0  0  0  0  0  0  0  0  0  0
   38.1800   31.3700   49.0350 C   0  0  0  0  0  0  0  0  0  0  0  0
   38.6790   31.6320   47.6450 C   0  0  0  0  0  0  0  0  0  0  0  0
   39.2560   33.0110   47.7090 C   0  0  0  0  0  0  0  0  0  0  0  0
   38.9010   33.5860   49.0460 C   0  0  0  0  0  0  0  0  0  0  0  0
   37.8470   32.6860   49.6540 C   0  0  0  0  0  0  0  0  0  0  0  0
  1  6  1  0  0  0  0
  1 15  1  0  0  0  0
  2  1  2  0  0  0  0
  3  4  2  0  0  0  0
  3  2  1  0  0  0  0
  4  5  1  0  0  0  0
  5 10  1  0  0  0  0
  5  6  2  0  0  0  0
  6 23  1  0  0  0  0
  7  2  1  0  0  0  0
  8  3  1  0  0  0  0
  9  4  1  0  0  0  0
 11 17  1  0  0  0  0
 12 19  1  0  0  0  0
 12 11  2  0  0  0  0
 13 12  1  0  0  0  0
 14 13  2  0  0  0  0
 14 15  1  0  0  0  0
 15 16  2  0  0  0  0
 16 11  1  0  0  0  0
 18 13  1  0  0  0  0
 19 20  1  0  0  0  0
 19 21  1  0  0  0  0
 22 19  1  0  0  0  0
 23 24  1  0  0  0  0
 23 25  1  0  0  0  0
 26 29  1  0  0  0  0
 26 23  1  0  0  0  0
 27 26  1  0  0  0  0
 28 26  1  0  0  0  0
 29 30  1  0  0  0  0
 30 31  2  0  0  0  0
 30 34  1  0  0  0  0
 31 35  1  0  0  0  0
 32 31  1  0  0  0  0
 33 29  2  0  0  0  0
 33 32  1  0  0  0  0
 36 32  1  0  0  0  0
 36 40  1  0  0  0  0
 37 38  1  0  0  0  0
 37 36  1  0  0  0  0
 38 39  1  0  0  0  0
 39 40  1  0  0  0  0
M  END
>  <minimizedAffinity>
-7.16030836

>  <minimizedRMSD>
0.825009227

$$$$
