
 OpenBabel03252512513D

 19 21  0  0  0  0  0  0  0  0999 V2000
   38.4180   31.4950   48.2030 C   0  0  0  0  0  0  0  0  0  0  0  0
   38.9780   32.7300   48.2130 N   0  0  0  0  0  0  0  0  0  0  0  0
   39.4700   33.0010   47.0370 O   0  0  0  0  0  0  0  0  0  0  0  0
   39.2430   31.9660   46.2600 C   0  0  0  0  0  0  0  0  0  0  0  0
   38.5920   31.0170   46.9550 N   0  0  0  0  0  0  0  0  0  0  0  0
   39.6000   31.8060   44.8900 N   0  0  0  0  0  0  0  0  0  0  0  0
   39.2210   32.7130   43.9590 C   0  0  0  0  0  0  0  0  0  0  0  0
   39.6620   32.3680   42.7440 N   0  0  0  0  0  0  0  0  0  0  0  0
   40.3390   31.2090   42.9150 C   0  0  0  0  0  0  0  0  0  0  0  0
   40.2850   30.8870   44.2400 N   0  0  0  0  0  0  0  0  0  0  0  0
   37.2910   30.1170   51.5120 C   0  0  0  0  0  0  0  0  0  0  0  0
   37.9930   30.8940   50.5930 C   0  0  0  0  0  0  0  0  0  0  0  0
   37.7410   30.7330   49.2410 C   0  0  0  0  0  0  0  0  0  0  0  0
   36.8030   29.8090   48.8470 N   0  0  0  0  0  0  0  0  0  0  0  0
   36.1370   29.0680   49.7760 C   0  0  0  0  0  0  0  0  0  0  0  0
   36.3710   29.2120   51.1020 N   0  0  0  0  0  0  0  0  0  0  0  0
   37.4810   30.2350   52.5690 H   0  0  0  0  0  0  0  0  0  0  0  0
   38.7360   31.6240   50.9090 H   0  0  0  0  0  0  0  0  0  0  0  0
   35.4220   28.3730   49.3440 H   0  0  0  0  0  0  0  0  0  0  0  0
  1  2  2  0  0  0  0
  1 13  1  0  0  0  0
  3  2  1  0  0  0  0
  4  5  2  0  0  0  0
  4  3  1  0  0  0  0
  5  1  1  0  0  0  0
  6  4  1  0  0  0  0
  7  6  1  0  0  0  0
  8  9  1  0  0  0  0
  8  7  2  0  0  0  0
  9 10  2  0  0  0  0
 10  6  1  0  0  0  0
 11 17  1  0  0  0  0
 12 18  1  0  0  0  0
 12 11  2  0  0  0  0
 13 12  1  0  0  0  0
 14 13  2  0  0  0  0
 14 15  1  0  0  0  0
 15 16  2  0  0  0  0
 16 11  1  0  0  0  0
 19 15  1  0  0  0  0
M  END
>  <minimizedAffinity>
-5.54705429

>  <minimizedRMSD>
0.3090913

$$$$
