
 OpenBabel03252514083D

 40 43  0  0  0  0  0  0  0  0999 V2000
   34.1420   29.9500   47.5740 C   0  0  0  0  0  0  0  0  0  0  0  0
   35.1220   29.7120   48.5710 C   0  0  0  0  0  0  0  0  0  0  0  0
   35.0000   28.5290   49.2710 C   0  0  0  0  0  0  0  0  0  0  0  0
   33.9860   27.6760   48.9880 N   0  0  0  0  0  0  0  0  0  0  0  0
   33.0670   27.9330   48.0320 C   0  0  0  0  0  0  0  0  0  0  0  0
   33.1570   29.0640   47.3400 N   0  0  0  0  0  0  0  0  0  0  0  0
   34.1930   30.8690   46.9940 H   0  0  0  0  0  0  0  0  0  0  0  0
   35.7350   28.3490   50.0180 H   0  0  0  0  0  0  0  0  0  0  0  0
   36.1200   30.7070   48.7450 N   0  0  0  0  0  0  0  0  0  0  0  0
   36.3170   31.3610   49.9290 C   0  0  0  0  0  0  0  0  0  0  0  0
   37.3300   32.2420   49.7590 N   0  0  0  0  0  0  0  0  0  0  0  0
   37.7430   32.1220   48.4860 C   0  0  0  0  0  0  0  0  0  0  0  0
   38.7260   32.7380   47.7260 C   0  0  0  0  0  0  0  0  0  0  0  0
   38.9320   32.4240   46.4520 N   0  0  0  0  0  0  0  0  0  0  0  0
   38.1860   31.4730   45.8180 C   0  0  0  0  0  0  0  0  0  0  0  0
   37.2350   30.8770   46.5540 N   0  0  0  0  0  0  0  0  0  0  0  0
   36.9880   31.1600   47.8420 C   0  0  0  0  0  0  0  0  0  0  0  0
   35.7520   31.1960   50.8410 H   0  0  0  0  0  0  0  0  0  0  0  0
   38.3830   31.2520   44.7990 H   0  0  0  0  0  0  0  0  0  0  0  0
   39.5240   33.7310   48.3170 N   0  0  0  0  0  0  0  0  0  0  0  0
   40.5600   33.7890   48.2400 H   0  0  0  0  0  0  0  0  0  0  0  0
   39.0600   34.4740   48.8820 H   0  0  0  0  0  0  0  0  0  0  0  0
   31.9650   26.9960   47.7320 C   0  0  0  0  0  0  0  0  0  0  0  0
   30.8480   27.1570   48.7480 C   0  0  0  0  0  0  0  0  0  0  0  0
   31.0690   26.6450   49.7170 H   0  0  0  0  0  0  0  0  0  0  0  0
   30.7290   28.2640   48.9250 H   0  0  0  0  0  0  0  0  0  0  0  0
   29.9160   26.7100   48.3410 H   0  0  0  0  0  0  0  0  0  0  0  0
   31.3340   27.3300   46.3770 C   0  0  0  0  0  0  0  0  0  0  0  0
   32.1340   27.5810   45.6670 H   0  0  0  0  0  0  0  0  0  0  0  0
   30.8040   26.4340   46.0280 H   0  0  0  0  0  0  0  0  0  0  0  0
   30.6630   28.2170   46.4970 H   0  0  0  0  0  0  0  0  0  0  0  0
   32.4000   25.5520   47.6570 C   0  0  0  0  0  0  0  0  0  0  0  0
   32.9820   25.3450   48.5850 H   0  0  0  0  0  0  0  0  0  0  0  0
   31.4750   24.9470   47.7760 H   0  0  0  0  0  0  0  0  0  0  0  0
   33.1530   25.2450   46.4360 C   0  0  0  0  0  0  0  0  0  0  0  0
   32.7030   24.2960   45.5100 C   0  0  0  0  0  3  0  0  0  0  0  0
   33.6460   24.2530   44.4780 C   0  0  0  0  0  3  0  0  0  0  0  0
   34.6250   25.1840   44.8360 C   0  0  0  0  0  0  0  0  0  0  0  0
   35.5160   25.4060   44.2460 H   0  0  0  0  0  0  0  0  0  0  0  0
   34.2820   25.7350   45.9930 O   0  0  0  0  0  0  0  0  0  0  0  0
  1  2  1  0  0  0  0
  2  9  1  0  0  0  0
  2  3  2  0  0  0  0
  3  8  1  0  0  0  0
  4  3  1  0  0  0  0
  5  4  2  0  0  0  0
  6  1  2  0  0  0  0
  6  5  1  0  0  0  0
  7  1  1  0  0  0  0
  9 10  1  0  0  0  0
 10 18  1  0  0  0  0
 11 10  2  0  0  0  0
 12 11  1  0  0  0  0
 13 20  1  0  0  0  0
 13 12  2  0  0  0  0
 14 13  1  0  0  0  0
 15 14  2  0  0  0  0
 15 16  1  0  0  0  0
 16 17  2  0  0  0  0
 17 12  1  0  0  0  0
 17  9  1  0  0  0  0
 19 15  1  0  0  0  0
 20 22  1  0  0  0  0
 21 20  1  0  0  0  0
 23  5  1  0  0  0  0
 23 24  1  0  0  0  0
 24 26  1  0  0  0  0
 24 25  1  0  0  0  0
 27 24  1  0  0  0  0
 28 31  1  0  0  0  0
 28 23  1  0  0  0  0
 29 28  1  0  0  0  0
 30 28  1  0  0  0  0
 32 23  1  0  0  0  0
 32 34  1  0  0  0  0
 32 33  1  0  0  0  0
 35 32  1  0  0  0  0
 36 35  2  0  0  0  0
 37 38  2  0  0  0  0
 37 36  1  0  0  0  0
 38 40  1  0  0  0  0
 39 38  1  0  0  0  0
 40 35  1  0  0  0  0
M  END
>  <minimizedAffinity>
-5.264884

>  <minimizedRMSD>
1.02011788

$$$$
