
 OpenBabel03252514083D

 40 43  0  0  0  0  0  0  0  0999 V2000
   34.6040   29.9590   47.4300 C   0  0  0  0  0  0  0  0  0  0  0  0
   35.4950   29.8380   48.5280 C   0  0  0  0  0  0  0  0  0  0  0  0
   35.3880   28.6780   49.2690 C   0  0  0  0  0  0  0  0  0  0  0  0
   34.4730   27.7390   48.9310 N   0  0  0  0  0  0  0  0  0  0  0  0
   33.6380   27.8860   47.8790 C   0  0  0  0  0  0  0  0  0  0  0  0
   33.7150   28.9910   47.1440 N   0  0  0  0  0  0  0  0  0  0  0  0
   34.6470   30.8540   46.8140 H   0  0  0  0  0  0  0  0  0  0  0  0
   36.0560   28.5870   50.0920 H   0  0  0  0  0  0  0  0  0  0  0  0
   36.3960   30.9130   48.7490 N   0  0  0  0  0  0  0  0  0  0  0  0
   36.3570   31.6940   49.8710 C   0  0  0  0  0  0  0  0  0  0  0  0
   37.3360   32.6220   49.7700 N   0  0  0  0  0  0  0  0  0  0  0  0
   37.9610   32.4050   48.6010 C   0  0  0  0  0  0  0  0  0  0  0  0
   39.0230   33.0110   47.9450 C   0  0  0  0  0  0  0  0  0  0  0  0
   39.4560   32.5870   46.7630 N   0  0  0  0  0  0  0  0  0  0  0  0
   38.8770   31.5270   46.1260 C   0  0  0  0  0  0  0  0  0  0  0  0
   37.8500   30.9420   46.7600 N   0  0  0  0  0  0  0  0  0  0  0  0
   37.3770   31.3340   47.9530 C   0  0  0  0  0  0  0  0  0  0  0  0
   35.6570   31.5810   50.6930 H   0  0  0  0  0  0  0  0  0  0  0  0
   39.2530   31.2200   45.1820 H   0  0  0  0  0  0  0  0  0  0  0  0
   39.6580   34.1100   48.5440 N   0  0  0  0  0  0  0  0  0  0  0  0
   40.6870   34.2330   48.6280 H   0  0  0  0  0  0  0  0  0  0  0  0
   39.0680   34.8720   48.9420 H   0  0  0  0  0  0  0  0  0  0  0  0
   32.6420   26.8550   47.5190 C   0  0  0  0  0  0  0  0  0  0  0  0
   31.4520   26.9240   48.4600 C   0  0  0  0  0  0  0  0  0  0  0  0
   31.6530   26.4390   49.4470 H   0  0  0  0  0  0  0  0  0  0  0  0
   31.2270   28.0190   48.6160 H   0  0  0  0  0  0  0  0  0  0  0  0
   30.5910   26.3970   47.9990 H   0  0  0  0  0  0  0  0  0  0  0  0
   32.0740   27.1270   46.1230 C   0  0  0  0  0  0  0  0  0  0  0  0
   32.8940   27.4420   45.4630 H   0  0  0  0  0  0  0  0  0  0  0  0
   31.6460   26.1860   45.7500 H   0  0  0  0  0  0  0  0  0  0  0  0
   31.3220   27.9530   46.1900 H   0  0  0  0  0  0  0  0  0  0  0  0
   33.2030   25.4550   47.4870 C   0  0  0  0  0  0  0  0  0  0  0  0
   33.7360   25.3010   48.4550 H   0  0  0  0  0  0  0  0  0  0  0  0
   32.3280   24.7720   47.5490 H   0  0  0  0  0  0  0  0  0  0  0  0
   34.0620   25.2090   46.3230 C   0  0  0  0  0  0  0  0  0  0  0  0
   33.8900   25.9030   45.1200 C   0  0  0  0  0  3  0  0  0  0  0  0
   34.8630   25.4310   44.2340 C   0  0  0  0  0  3  0  0  0  0  0  0
   35.5790   24.4700   44.9530 C   0  0  0  0  0  0  0  0  0  0  0  0
   36.4200   23.8980   44.5560 H   0  0  0  0  0  0  0  0  0  0  0  0
   35.0650   24.3830   46.1710 O   0  0  0  0  0  0  0  0  0  0  0  0
  1  2  1  0  0  0  0
  2  9  1  0  0  0  0
  2  3  2  0  0  0  0
  3  8  1  0  0  0  0
  4  3  1  0  0  0  0
  5  4  2  0  0  0  0
  6  1  2  0  0  0  0
  6  5  1  0  0  0  0
  7  1  1  0  0  0  0
  9 10  1  0  0  0  0
 10 18  1  0  0  0  0
 11 10  2  0  0  0  0
 12 11  1  0  0  0  0
 13 20  1  0  0  0  0
 13 12  2  0  0  0  0
 14 13  1  0  0  0  0
 15 16  1  0  0  0  0
 15 14  2  0  0  0  0
 16 17  2  0  0  0  0
 17 12  1  0  0  0  0
 17  9  1  0  0  0  0
 19 15  1  0  0  0  0
 20 21  1  0  0  0  0
 20 22  1  0  0  0  0
 23  5  1  0  0  0  0
 23 24  1  0  0  0  0
 24 26  1  0  0  0  0
 24 25  1  0  0  0  0
 27 24  1  0  0  0  0
 28 31  1  0  0  0  0
 28 23  1  0  0  0  0
 29 28  1  0  0  0  0
 30 28  1  0  0  0  0
 32 23  1  0  0  0  0
 32 34  1  0  0  0  0
 32 33  1  0  0  0  0
 35 32  1  0  0  0  0
 36 35  2  0  0  0  0
 37 38  2  0  0  0  0
 37 36  1  0  0  0  0
 38 40  1  0  0  0  0
 39 38  1  0  0  0  0
 40 35  1  0  0  0  0
M  END
>  <minimizedAffinity>
-5.58790541

>  <minimizedRMSD>
0.307597637

$$$$
