
 OpenBabel03252513543D

 18 19  0  0  0  0  0  0  0  0999 V2000
   37.4790   29.8600   51.2640 C   0  0  0  0  0  0  0  0  0  0  0  0
   37.9470   30.8380   50.3510 C   0  0  0  0  0  0  0  0  0  0  0  0
   37.0300   31.3880   49.4340 C   0  0  0  0  0  0  0  0  0  0  0  0
   35.7360   30.9470   49.4780 N   0  0  0  0  0  0  0  0  0  0  0  0
   35.3290   30.0160   50.3620 C   0  0  0  0  0  0  0  0  0  0  0  0
   36.1880   29.4780   51.2450 N   0  0  0  0  0  0  0  0  0  0  0  0
   38.1480   29.4290   51.9670 H   0  0  0  0  0  0  0  0  0  0  0  0
   38.9730   31.1580   50.3480 H   0  0  0  0  0  0  0  0  0  0  0  0
   37.3310   32.1380   48.7130 H   0  0  0  0  0  0  0  0  0  0  0  0
   33.9030   29.5710   50.3640 C   0  0  0  0  0  0  0  0  0  0  0  0
   33.6430   29.1840   51.3860 H   0  0  0  0  0  0  0  0  0  0  0  0
   33.2600   30.4480   50.1600 H   0  0  0  0  0  0  0  0  0  0  0  0
   33.6790   28.5040   49.3390 C   0  0  0  0  0  0  0  0  0  0  0  0
   34.5650   27.8190   48.5380 C   0  0  0  0  0  0  0  0  0  0  0  0
   33.8330   26.9360   47.7660 C   0  0  0  0  0  0  0  0  0  0  0  0
   32.5100   27.1260   48.1380 C   0  0  0  0  0  0  0  0  0  0  0  0
   31.6390   26.6000   47.7390 H   0  0  0  0  0  0  0  0  0  0  0  0
   32.4760   28.0630   49.0700 O   0  0  0  0  0  0  0  0  0  0  0  0
  1  7  1  0  0  0  0
  2  1  2  0  0  0  0
  3  4  2  0  0  0  0
  3  2  1  0  0  0  0
  4  5  1  0  0  0  0
  5 10  1  0  0  0  0
  5  6  2  0  0  0  0
  6  1  1  0  0  0  0
  8  2  1  0  0  0  0
  9  3  1  0  0  0  0
 10 11  1  0  0  0  0
 12 10  1  0  0  0  0
 13 10  1  0  0  0  0
 14 13  2  0  0  0  0
 15 16  2  0  0  0  0
 15 14  1  0  0  0  0
 16 18  1  0  0  0  0
 17 16  1  0  0  0  0
 18 13  1  0  0  0  0
M  END
>  <minimizedAffinity>
-4.14359856

>  <minimizedRMSD>
2.14754558

$$$$
