
 OpenBabel03252512493D

 43 47  0  0  1  0  0  0  0  0999 V2000
   38.4980   32.5750   44.7220 C   0  0  0  0  0  0  0  0  0  0  0  0
   37.7920   33.3150   45.1610 H   0  0  0  0  0  0  0  0  0  0  0  0
   39.0220   32.9660   43.8250 H   0  0  0  0  0  0  0  0  0  0  0  0
   37.8150   31.3840   44.3030 N   0  0  0  0  0  0  0  0  0  0  0  0
   36.5230   31.0100   44.3830 C   0  0  0  0  0  0  0  0  0  0  0  0
   36.4170   29.7860   43.8330 N   0  0  0  0  0  0  0  0  0  0  0  0
   37.6110   29.3620   43.3990 C   0  0  0  0  0  0  0  0  0  0  0  0
   38.0020   28.1900   42.7760 C   0  0  0  0  0  0  0  0  0  0  0  0
   37.2050   27.2610   42.4980 O   0  0  0  0  0  0  0  0  0  0  0  0
   39.2860   28.0050   42.4370 N   0  0  0  0  0  0  0  0  0  0  0  0
   40.1250   29.0090   42.7410 C   0  0  0  0  0  0  0  0  0  0  0  0
   41.5200   28.8680   42.3980 N   0  0  0  0  0  0  0  0  0  0  0  0
   39.7930   30.1620   43.3440 N   0  0  0  0  0  0  0  0  0  0  0  0
   38.5060   30.3750   43.6970 C   0  0  0  0  0  0  0  0  0  0  0  0
   35.7580   31.6180   44.8170 H   0  0  0  0  0  0  0  0  0  0  0  0
   42.0720   29.3920   41.6780 H   0  0  0  0  0  0  0  0  0  0  0  0
   42.1510   28.1790   42.8720 H   0  0  0  0  0  0  0  0  0  0  0  0
   39.7990   26.8240   41.7850 C   0  0  0  0  0  0  0  0  0  0  0  0
   40.0870   27.1680   40.3460 C   0  0  0  0  0  0  0  0  0  0  0  0
   38.9090   26.5970   39.5960 C   0  0  0  0  0  0  0  0  0  0  0  0
   38.4160   25.4390   40.4230 C   0  0  0  0  0  0  0  0  0  0  0  0
   38.9520   25.6210   41.8240 C   0  0  0  0  0  0  0  0  0  0  0  0
   39.5870   32.3060   45.7700 C   0  0  2  0  0  0  0  0  0  0  0  0
   39.9650   31.2890   45.6370 H   0  0  0  0  0  0  0  0  0  0  0  0
   37.6670   31.7770   48.8570 C   0  0  0  0  0  0  0  0  0  0  0  0
   38.0880   32.9460   49.5500 C   0  0  0  0  0  0  0  0  0  0  0  0
   39.2390   33.7710   48.3800 S   0  0  0  0  0  0  0  0  0  0  0  0
   38.9340   32.3390   47.1230 C   0  0  0  0  0  0  0  0  0  0  0  0
   38.2210   31.6930   47.6710 N   0  0  0  0  0  0  0  0  0  0  0  0
   37.7930   33.2730   50.5490 H   0  0  0  0  0  0  0  0  0  0  0  0
   37.0050   30.3220   50.7340 C   0  0  0  0  0  0  0  0  0  0  0  0
   36.7200   30.8750   49.4940 C   0  0  0  0  0  0  0  0  0  0  0  0
   35.4890   30.5180   48.9250 C   0  0  0  0  0  0  0  0  0  0  0  0
   34.6660   29.6800   49.5860 N   0  0  0  0  0  0  0  0  0  0  0  0
   34.9830   29.1710   50.7800 C   0  0  0  0  0  0  0  0  0  0  0  0
   36.1470   29.4920   51.3460 N   0  0  0  0  0  0  0  0  0  0  0  0
   37.9530   30.5950   51.1760 H   0  0  0  0  0  0  0  0  0  0  0  0
   35.2520   30.9330   47.9730 H   0  0  0  0  0  0  0  0  0  0  0  0
   34.3930   28.4940   51.3880 H   0  0  0  0  0  0  0  0  0  0  0  0
   40.6290   33.3520   45.7380 C   0  0  0  0  0  0  0  0  0  0  0  0
   41.2560   33.3430   46.6270 H   0  0  0  0  0  0  0  0  0  0  0  0
   40.1330   34.3510   45.6610 H   0  0  0  0  0  0  0  0  0  0  0  0
   41.2090   33.2520   44.7940 H   0  0  0  0  0  0  0  0  0  0  0  0
  1  2  1  0  0  0  0
  1 23  1  0  0  0  0
  3  1  1  0  0  0  0
  4  5  1  0  0  0  0
  4  1  1  0  0  0  0
  5 15  1  0  0  0  0
  6  5  2  0  0  0  0
  7 14  2  0  0  0  0
  7  6  1  0  0  0  0
  8  7  1  0  0  0  0
  9  8  2  0  0  0  0
 10 11  1  0  0  0  0
 10  8  1  0  0  0  0
 11 13  2  0  0  0  0
 12 11  1  0  0  0  0
 12 17  1  0  0  0  0
 13 14  1  0  0  0  0
 14  4  1  0  0  0  0
 16 12  1  0  0  0  0
 18 22  1  0  0  0  0
 18 10  1  0  0  0  0
 19 18  1  0  0  0  0
 20 19  1  0  0  0  0
 20 21  1  0  0  0  0
 21 22  1  0  0  0  0
 23 24  1  6  0  0  0
 23 28  1  0  0  0  0
 25 32  1  0  0  0  0
 25 26  2  0  0  0  0
 26 30  1  0  0  0  0
 27 26  1  0  0  0  0
 28 29  2  0  0  0  0
 28 27  1  0  0  0  0
 29 25  1  0  0  0  0
 31 37  1  0  0  0  0
 31 36  1  0  0  0  0
 32 31  2  0  0  0  0
 33 32  1  0  0  0  0
 33 34  2  0  0  0  0
 34 35  1  0  0  0  0
 35 36  2  0  0  0  0
 35 39  1  0  0  0  0
 38 33  1  0  0  0  0
 40 23  1  0  0  0  0
 40 41  1  0  0  0  0
 42 40  1  0  0  0  0
 43 40  1  0  0  0  0
M  END
>  <minimizedAffinity>
-6.23819971

>  <minimizedRMSD>
0.439875603

$$$$
