
 OpenBabel03252512423D

 20 22  0  0  0  0  0  0  0  0999 V2000
   38.3990   31.1330   47.8160 C   0  0  0  0  0  0  0  0  0  0  0  0
   38.8440   32.4730   47.8750 C   0  0  0  0  0  0  0  0  0  0  0  0
   39.6380   32.7850   46.2560 S   0  0  0  0  0  0  0  0  0  0  0  0
   39.2220   30.9890   45.7490 C   0  0  0  0  0  0  0  0  0  0  0  0
   38.6960   30.5850   46.6540 N   0  0  0  0  0  0  0  0  0  0  0  0
   38.7260   33.1820   48.7390 H   0  0  0  0  0  0  0  0  0  0  0  0
   39.5380   30.3520   44.4730 N   0  0  0  0  0  0  0  0  0  0  0  0
   38.9540   29.3880   43.7780 C   0  0  0  0  0  0  0  0  0  0  0  0
   39.6890   29.1960   42.6490 N   0  0  0  0  0  0  0  0  0  0  0  0
   40.7280   30.0680   42.6810 C   0  0  0  0  0  0  0  0  0  0  0  0
   40.6270   30.7850   43.8220 N   0  0  0  0  0  0  0  0  0  0  0  0
   38.1330   30.8860   50.2610 C   0  0  0  0  0  0  0  0  0  0  0  0
   37.7200   30.5550   48.9560 C   0  0  0  0  0  0  0  0  0  0  0  0
   36.6650   29.6690   48.8610 C   0  0  0  0  0  0  0  0  0  0  0  0
   36.0830   29.1660   49.9690 N   0  0  0  0  0  0  0  0  0  0  0  0
   36.5110   29.5130   51.2080 C   0  0  0  0  0  0  0  0  0  0  0  0
   37.5420   30.3770   51.3410 N   0  0  0  0  0  0  0  0  0  0  0  0
   38.9590   31.5790   50.3260 H   0  0  0  0  0  0  0  0  0  0  0  0
   36.3540   29.4200   47.8510 H   0  0  0  0  0  0  0  0  0  0  0  0
   36.0130   29.0840   52.0630 H   0  0  0  0  0  0  0  0  0  0  0  0
  1  2  2  0  0  0  0
  1 13  1  0  0  0  0
  2  6  1  0  0  0  0
  3  2  1  0  0  0  0
  4  3  1  0  0  0  0
  4  5  2  0  0  0  0
  5  1  1  0  0  0  0
  7  4  1  0  0  0  0
  8  7  1  0  0  0  0
  9 10  1  0  0  0  0
  9  8  2  0  0  0  0
 10 11  2  0  0  0  0
 11  7  1  0  0  0  0
 12 18  1  0  0  0  0
 12 17  1  0  0  0  0
 13 12  2  0  0  0  0
 14 13  1  0  0  0  0
 14 15  2  0  0  0  0
 15 16  1  0  0  0  0
 16 17  2  0  0  0  0
 16 20  1  0  0  0  0
 19 14  1  0  0  0  0
M  END
>  <minimizedAffinity>
-5.49003363

>  <minimizedRMSD>
0.158235878

$$$$
