
 OpenBabel03252514083D

 40 43  0  0  0  0  0  0  0  0999 V2000
   34.2670   30.0560   47.5640 C   0  0  0  0  0  0  0  0  0  0  0  0
   35.2700   29.8110   48.5360 C   0  0  0  0  0  0  0  0  0  0  0  0
   35.1870   28.6040   49.2000 C   0  0  0  0  0  0  0  0  0  0  0  0
   34.1890   27.7360   48.9070 N   0  0  0  0  0  0  0  0  0  0  0  0
   33.2480   28.0000   47.9750 C   0  0  0  0  0  0  0  0  0  0  0  0
   33.3000   29.1550   47.3180 N   0  0  0  0  0  0  0  0  0  0  0  0
   34.2870   30.9940   47.0130 H   0  0  0  0  0  0  0  0  0  0  0  0
   35.9390   28.4190   49.9290 H   0  0  0  0  0  0  0  0  0  0  0  0
   36.2470   30.8240   48.7250 N   0  0  0  0  0  0  0  0  0  0  0  0
   36.3740   31.5230   49.8930 C   0  0  0  0  0  0  0  0  0  0  0  0
   37.3860   32.4100   49.7440 N   0  0  0  0  0  0  0  0  0  0  0  0
   37.8660   32.2480   48.5000 C   0  0  0  0  0  0  0  0  0  0  0  0
   38.8820   32.8480   47.7700 C   0  0  0  0  0  0  0  0  0  0  0  0
   39.1590   32.4900   46.5210 N   0  0  0  0  0  0  0  0  0  0  0  0
   38.4570   31.5070   45.8850 C   0  0  0  0  0  0  0  0  0  0  0  0
   37.4750   30.9270   46.5910 N   0  0  0  0  0  0  0  0  0  0  0  0
   37.1570   31.2540   47.8530 C   0  0  0  0  0  0  0  0  0  0  0  0
   35.7630   31.3850   50.7800 H   0  0  0  0  0  0  0  0  0  0  0  0
   38.7100   31.2510   44.8860 H   0  0  0  0  0  0  0  0  0  0  0  0
   39.6370   33.8710   48.3650 N   0  0  0  0  0  0  0  0  0  0  0  0
   40.6750   33.9390   48.3400 H   0  0  0  0  0  0  0  0  0  0  0  0
   39.1370   34.6290   48.8760 H   0  0  0  0  0  0  0  0  0  0  0  0
   32.1640   27.0470   47.6640 C   0  0  0  0  0  0  0  0  0  0  0  0
   31.0880   27.1070   48.7350 C   0  0  0  0  0  0  0  0  0  0  0  0
   31.3680   26.5440   49.6590 H   0  0  0  0  0  0  0  0  0  0  0  0
   30.9430   28.1970   48.9860 H   0  0  0  0  0  0  0  0  0  0  0  0
   30.1540   26.6550   48.3410 H   0  0  0  0  0  0  0  0  0  0  0  0
   31.4620   27.4430   46.3610 C   0  0  0  0  0  0  0  0  0  0  0  0
   32.2220   27.7650   45.6350 H   0  0  0  0  0  0  0  0  0  0  0  0
   30.9450   26.5530   45.9780 H   0  0  0  0  0  0  0  0  0  0  0  0
   30.7700   28.2980   46.5660 H   0  0  0  0  0  0  0  0  0  0  0  0
   32.6390   25.6270   47.4790 C   0  0  0  0  0  0  0  0  0  0  0  0
   33.1130   25.3200   48.4410 H   0  0  0  0  0  0  0  0  0  0  0  0
   31.7220   25.0020   47.4170 H   0  0  0  0  0  0  0  0  0  0  0  0
   33.5390   25.4700   46.3300 C   0  0  0  0  0  0  0  0  0  0  0  0
   34.5210   24.4740   46.2930 C   0  0  0  0  0  3  0  0  0  0  0  0
   35.1920   24.6070   45.0730 C   0  0  0  0  0  3  0  0  0  0  0  0
   34.5740   25.6840   44.4310 C   0  0  0  0  0  0  0  0  0  0  0  0
   34.8540   26.0620   43.4460 H   0  0  0  0  0  0  0  0  0  0  0  0
   33.6130   26.1510   45.2160 O   0  0  0  0  0  0  0  0  0  0  0  0
  1  2  1  0  0  0  0
  2  9  1  0  0  0  0
  2  3  2  0  0  0  0
  3  8  1  0  0  0  0
  4  3  1  0  0  0  0
  5  4  2  0  0  0  0
  6  1  2  0  0  0  0
  6  5  1  0  0  0  0
  7  1  1  0  0  0  0
  9 10  1  0  0  0  0
 10 18  1  0  0  0  0
 11 10  2  0  0  0  0
 12 11  1  0  0  0  0
 13 20  1  0  0  0  0
 13 12  2  0  0  0  0
 14 13  1  0  0  0  0
 15 14  2  0  0  0  0
 15 16  1  0  0  0  0
 16 17  2  0  0  0  0
 17 12  1  0  0  0  0
 17  9  1  0  0  0  0
 19 15  1  0  0  0  0
 20 22  1  0  0  0  0
 21 20  1  0  0  0  0
 23  5  1  0  0  0  0
 23 24  1  0  0  0  0
 24 26  1  0  0  0  0
 24 25  1  0  0  0  0
 27 24  1  0  0  0  0
 28 31  1  0  0  0  0
 28 23  1  0  0  0  0
 29 28  1  0  0  0  0
 30 28  1  0  0  0  0
 32 23  1  0  0  0  0
 32 33  1  0  0  0  0
 34 32  1  0  0  0  0
 35 32  1  0  0  0  0
 36 35  2  0  0  0  0
 37 36  1  0  0  0  0
 38 37  2  0  0  0  0
 38 40  1  0  0  0  0
 39 38  1  0  0  0  0
 40 35  1  0  0  0  0
M  END
>  <minimizedAffinity>
-5.55686951

>  <minimizedRMSD>
0.643234491

$$$$
