
 OpenBabel03252513533D

 39 41  0  0  1  0  0  0  0  0999 V2000
   36.7150   30.4300   45.7670 C   0  0  0  0  0  0  0  0  0  0  0  0
   37.7060   30.1860   46.4980 O   0  0  0  0  0  0  0  0  0  0  0  0
   37.0070   31.1990   44.6170 N   0  0  0  0  0  0  0  0  0  0  0  0
   36.4130   30.7150   43.3760 C   0  0  0  0  0  0  0  0  0  0  0  0
   37.1070   31.2910   42.1600 C   0  0  0  0  0  0  0  0  0  0  0  0
   38.4540   31.4500   42.4900 O   0  0  0  0  0  0  0  0  0  0  0  0
   38.5090   32.5970   43.2890 C   0  0  0  0  0  0  0  0  0  0  0  0
   37.8310   32.3760   44.6240 C   0  0  2  0  0  0  0  0  0  0  0  0
   36.4360   29.5970   43.3740 H   0  0  0  0  0  0  0  0  0  0  0  0
   35.3480   30.9920   43.3650 H   0  0  0  0  0  0  0  0  0  0  0  0
   36.6400   32.2300   41.8270 H   0  0  0  0  0  0  0  0  0  0  0  0
   37.0800   30.4930   41.3720 H   0  0  0  0  0  0  0  0  0  0  0  0
   39.5350   32.9950   43.3730 H   0  0  0  0  0  0  0  0  0  0  0  0
   37.9290   33.3620   42.7320 H   0  0  0  0  0  0  0  0  0  0  0  0
   37.3210   33.3030   44.8800 H   0  0  0  0  0  0  0  0  0  0  0  0
   33.8180   29.1450   47.8100 C   0  0  0  0  0  0  0  0  0  0  0  0
   35.1230   29.6460   47.4840 C   0  0  0  0  0  0  0  0  0  0  0  0
   35.4090   29.9220   46.1510 C   0  0  0  0  0  0  0  0  0  0  0  0
   34.4140   29.6920   45.2530 N   0  0  0  0  0  0  0  0  0  0  0  0
   33.2160   29.2270   45.5890 C   0  0  0  0  0  0  0  0  0  0  0  0
   32.9240   28.9580   46.8510 N   0  0  0  0  0  0  0  0  0  0  0  0
   35.8640   29.8080   48.2310 H   0  0  0  0  0  0  0  0  0  0  0  0
   32.2600   29.0420   44.4470 C   0  0  0  0  0  0  0  0  0  0  0  0
   32.1950   30.2100   43.6820 F   0  0  0  0  0  0  0  0  0  0  0  0
   32.7410   28.0590   43.6010 F   0  0  0  0  0  0  0  0  0  0  0  0
   31.0070   28.6230   44.8670 F   0  0  0  0  0  0  0  0  0  0  0  0
   33.5450   28.8740   49.1410 O   0  0  0  0  0  0  0  0  0  0  0  0
   34.0690   29.5660   50.2150 C   0  0  0  0  0  0  0  0  0  0  0  0
   35.0770   28.9080   50.8840 F   0  0  0  0  0  0  0  0  0  0  0  0
   34.4550   30.8520   49.9230 F   0  0  0  0  0  0  0  0  0  0  0  0
   32.9840   29.6980   51.1180 F   0  0  0  0  0  0  0  0  0  0  0  0
   38.8950   32.0970   45.5190 O   0  0  0  0  0  0  0  0  0  0  0  0
   38.9030   35.3600   48.4800 H   0  0  0  0  0  0  0  0  0  0  0  0
   39.5340   34.5730   48.6990 N   0  0  0  0  0  0  0  0  0  0  0  0
   38.8800   33.3460   49.0710 C   0  0  0  0  0  2  0  0  0  0  0  0
   38.8570   32.3370   47.9440 C   0  0  0  0  0  2  0  0  0  0  0  0
   38.8720   32.9600   46.6030 C   0  0  0  0  0  3  0  0  0  0  0  0
   40.1740   33.7690   46.4740 C   0  0  0  0  0  2  0  0  0  0  0  0
   40.6080   34.3710   47.7610 C   0  0  0  0  0  2  0  0  0  0  0  0
  1 18  1  0  0  0  0
  1  2  2  0  0  0  0
  3  8  1  0  0  0  0
  3  1  1  0  0  0  0
  4  3  1  0  0  0  0
  5  6  1  0  0  0  0
  5  4  1  0  0  0  0
  6  7  1  0  0  0  0
  7 13  1  0  0  0  0
  7  8  1  0  0  0  0
  8 15  1  1  0  0  0
  8 32  1  0  0  0  0
  9  4  1  0  0  0  0
 10  4  1  0  0  0  0
 11  5  1  0  0  0  0
 12  5  1  0  0  0  0
 14  7  1  0  0  0  0
 16 27  1  0  0  0  0
 17 16  1  0  0  0  0
 17 22  1  0  0  0  0
 18 17  2  0  0  0  0
 19 20  2  0  0  0  0
 19 18  1  0  0  0  0
 20 21  1  0  0  0  0
 21 16  2  0  0  0  0
 23 26  1  0  0  0  0
 23 20  1  0  0  0  0
 24 23  1  0  0  0  0
 25 23  1  0  0  0  0
 27 28  1  0  0  0  0
 28 29  1  0  0  0  0
 28 31  1  0  0  0  0
 30 28  1  0  0  0  0
 32 37  1  0  0  0  0
 33 34  1  0  0  0  0
 34 35  1  0  0  0  0
 36 35  1  0  0  0  0
 37 36  1  0  0  0  0
 38 37  1  0  0  0  0
 38 39  1  0  0  0  0
 39 34  1  0  0  0  0
M  END
>  <minimizedAffinity>
-5.08792543

>  <minimizedRMSD>
2.3780663

$$$$
