
 OpenBabel03252514013D

 25 27  0  0  1  0  0  0  0  0999 V2000
   35.3790   29.4730   49.0910 C   0  0  2  0  0  0  0  0  0  0  0  0
   34.2810   29.4330   50.0660 C   0  0  0  0  0  0  0  0  0  0  0  0
   34.6190   28.1730   49.4170 C   0  0  1  0  0  0  0  0  0  0  0  0
   35.2900   29.7990   48.0490 H   0  0  0  0  0  0  0  0  0  0  0  0
   34.5370   29.5370   51.1440 H   0  0  0  0  0  0  0  0  0  0  0  0
   33.3420   29.9750   49.7700 H   0  0  0  0  0  0  0  0  0  0  0  0
   35.3090   27.3810   49.7540 H   0  0  0  0  0  0  0  0  0  0  0  0
   36.8100   29.4420   49.6320 C   0  0  0  0  0  0  0  0  0  0  0  0
   36.7400   29.4950   50.7340 H   0  0  0  0  0  0  0  0  0  0  0  0
   37.3340   28.5240   49.3330 H   0  0  0  0  0  0  0  0  0  0  0  0
   38.1100   32.8620   49.4270 C   0  0  0  0  0  0  0  0  0  0  0  0
   38.7890   32.8630   48.1980 C   0  0  0  0  0  0  0  0  0  0  0  0
   38.7940   31.6780   47.4460 C   0  0  0  0  0  0  0  0  0  0  0  0
   38.1340   30.5890   47.9570 N   0  0  0  0  0  0  0  0  0  0  0  0
   37.5010   30.6320   49.1300 C   0  0  0  0  0  0  0  0  0  0  0  0
   37.4960   31.7740   49.8560 N   0  0  0  0  0  0  0  0  0  0  0  0
   38.1050   33.7730   50.0080 H   0  0  0  0  0  0  0  0  0  0  0  0
   39.3010   33.7090   47.8010 H   0  0  0  0  0  0  0  0  0  0  0  0
   39.3010   31.6420   46.5030 H   0  0  0  0  0  0  0  0  0  0  0  0
   33.6210   27.6960   48.3970 C   0  0  0  0  0  0  0  0  0  0  0  0
   34.0350   26.7120   47.6650 O   0  0  0  0  0  0  0  0  0  0  0  0
   32.3460   28.1970   48.1940 O   0  0  0  0  0  0  0  0  0  0  0  0
   31.2250   27.5860   48.7540 C   0  0  0  0  0  3  0  0  0  0  0  0
   29.8490   27.9860   48.4130 C   0  0  0  0  0  2  0  0  0  0  0  0
   30.4030   26.5910   48.0420 C   0  0  0  0  0  2  0  0  0  0  0  0
  1  4  1  6  0  0  0
  1  3  1  0  0  0  0
  1  8  1  0  0  0  0
  1  2  1  0  0  0  0
  2  5  1  0  0  0  0
  3  7  1  1  0  0  0
  3  2  1  0  0  0  0
  6  2  1  0  0  0  0
  8  9  1  0  0  0  0
 10  8  1  0  0  0  0
 11 16  1  0  0  0  0
 11 17  1  0  0  0  0
 12 11  2  0  0  0  0
 13 14  2  0  0  0  0
 13 12  1  0  0  0  0
 14 15  1  0  0  0  0
 15  8  1  0  0  0  0
 15 16  2  0  0  0  0
 18 12  1  0  0  0  0
 19 13  1  0  0  0  0
 20  3  1  0  0  0  0
 21 20  2  0  0  0  0
 22 20  1  0  0  0  0
 22 23  1  0  0  0  0
 24 23  1  0  0  0  0
 25 24  1  0  0  0  0
 25 23  1  0  0  0  0
M  END
>  <minimizedAffinity>
-4.74502325

>  <minimizedRMSD>
0.929757357

$$$$
