
 OpenBabel03252514013D

 25 27  0  0  1  0  0  0  0  0999 V2000
   35.4810   29.4890   49.1870 C   0  0  2  0  0  0  0  0  0  0  0  0
   34.4480   29.4830   50.2330 C   0  0  0  0  0  0  0  0  0  0  0  0
   34.7060   28.2120   49.5660 C   0  0  1  0  0  0  0  0  0  0  0  0
   35.3330   29.8170   48.1520 H   0  0  0  0  0  0  0  0  0  0  0  0
   34.7780   29.5800   51.2910 H   0  0  0  0  0  0  0  0  0  0  0  0
   33.5090   30.0510   49.9970 H   0  0  0  0  0  0  0  0  0  0  0  0
   35.3930   27.4010   49.8600 H   0  0  0  0  0  0  0  0  0  0  0  0
   36.9420   29.4170   49.6320 C   0  0  0  0  0  0  0  0  0  0  0  0
   36.9470   29.4760   50.7360 H   0  0  0  0  0  0  0  0  0  0  0  0
   37.4180   28.4820   49.3040 H   0  0  0  0  0  0  0  0  0  0  0  0
   38.4220   32.7590   49.3650 C   0  0  0  0  0  0  0  0  0  0  0  0
   38.9240   32.7730   48.0540 C   0  0  0  0  0  0  0  0  0  0  0  0
   38.7490   31.6220   47.2680 C   0  0  0  0  0  0  0  0  0  0  0  0
   38.0970   30.5540   47.8300 N   0  0  0  0  0  0  0  0  0  0  0  0
   37.6340   30.5840   49.0800 C   0  0  0  0  0  0  0  0  0  0  0  0
   37.8030   31.6920   49.8380 N   0  0  0  0  0  0  0  0  0  0  0  0
   38.5550   33.6430   49.9720 H   0  0  0  0  0  0  0  0  0  0  0  0
   39.4300   33.6030   47.6190 H   0  0  0  0  0  0  0  0  0  0  0  0
   39.1190   31.5960   46.2640 H   0  0  0  0  0  0  0  0  0  0  0  0
   33.6300   27.7630   48.6160 C   0  0  0  0  0  0  0  0  0  0  0  0
   34.0620   27.0830   47.6040 O   0  0  0  0  0  0  0  0  0  0  0  0
   32.2710   28.0010   48.7380 O   0  0  0  0  0  0  0  0  0  0  0  0
   31.3660   27.5710   47.7690 C   0  0  0  0  0  3  0  0  0  0  0  0
   29.9100   27.5460   47.9960 C   0  0  0  0  0  2  0  0  0  0  0  0
   30.5520   28.4910   46.9540 C   0  0  0  0  0  2  0  0  0  0  0  0
  1  4  1  6  0  0  0
  1  3  1  0  0  0  0
  1  8  1  0  0  0  0
  1  2  1  0  0  0  0
  2  5  1  0  0  0  0
  3  7  1  1  0  0  0
  3  2  1  0  0  0  0
  6  2  1  0  0  0  0
  8  9  1  0  0  0  0
 10  8  1  0  0  0  0
 11 16  1  0  0  0  0
 11 17  1  0  0  0  0
 12 11  2  0  0  0  0
 13 14  2  0  0  0  0
 13 12  1  0  0  0  0
 14 15  1  0  0  0  0
 15  8  1  0  0  0  0
 15 16  2  0  0  0  0
 18 12  1  0  0  0  0
 19 13  1  0  0  0  0
 20 22  1  0  0  0  0
 20  3  1  0  0  0  0
 21 20  2  0  0  0  0
 23 24  1  0  0  0  0
 23 22  1  0  0  0  0
 25 23  1  0  0  0  0
 25 24  1  0  0  0  0
M  END
>  <minimizedAffinity>
-4.65262365

>  <minimizedRMSD>
0.334482402

$$$$
