
 OpenBabel03252512303D

 29 31  0  0  1  0  0  0  0  0999 V2000
   35.8080   30.1340   48.5080 C   0  0  0  0  0  0  0  0  0  0  0  0
   35.7310   29.0190   49.3660 C   0  0  0  0  0  0  0  0  0  0  0  0
   34.6480   28.2280   49.2360 C   0  0  0  0  0  0  0  0  0  0  0  0
   33.7350   28.5280   48.3320 C   0  0  0  0  0  0  0  0  0  0  0  0
   34.3120   30.0490   47.5010 S   0  0  0  0  0  0  0  0  0  0  0  0
   36.5630   28.8840   50.0780 H   0  0  0  0  0  0  0  0  0  0  0  0
   34.5110   27.3500   49.8570 H   0  0  0  0  0  0  0  0  0  0  0  0
   38.0220   32.9130   49.4570 C   0  0  0  0  0  0  0  0  0  0  0  0
   38.9110   32.9900   48.3480 C   0  0  0  0  0  0  0  0  0  0  0  0
   38.7280   32.0910   47.3000 C   0  0  0  0  0  0  0  0  0  0  0  0
   37.7110   31.2020   47.4120 N   0  0  0  0  0  0  0  0  0  0  0  0
   36.9030   31.1490   48.4450 C   0  0  0  0  0  0  0  0  0  0  0  0
   37.0210   31.9960   49.5060 N   0  0  0  0  0  0  0  0  0  0  0  0
   38.1030   33.5680   50.2910 H   0  0  0  0  0  0  0  0  0  0  0  0
   39.6970   33.7360   48.3460 H   0  0  0  0  0  0  0  0  0  0  0  0
   39.3860   32.1210   46.4390 H   0  0  0  0  0  0  0  0  0  0  0  0
   32.4740   27.8580   47.9510 C   0  0  2  0  0  0  0  0  0  0  0  0
   32.7290   26.7880   47.7190 H   0  0  0  0  0  0  0  0  0  0  0  0
   31.8960   28.5020   46.7730 C   0  0  0  0  0  0  0  0  0  0  0  0
   32.6260   28.5080   45.9560 H   0  0  0  0  0  0  0  0  0  0  0  0
   31.6010   29.5600   47.0000 H   0  0  0  0  0  0  0  0  0  0  0  0
   30.9820   27.9800   46.4180 H   0  0  0  0  0  0  0  0  0  0  0  0
   31.5760   27.7970   49.1630 C   0  0  0  0  0  0  0  0  0  0  0  0
   32.1560   27.4800   50.0590 H   0  0  0  0  0  0  0  0  0  0  0  0
   31.2070   28.8290   49.3900 H   0  0  0  0  0  0  0  0  0  0  0  0
   30.5100   26.9690   49.0040 O   0  0  0  0  0  0  0  0  0  0  0  0
   29.4740   27.1380   49.9000 C   0  0  0  0  0  0  0  0  0  0  0  0
   28.0470   27.0740   49.3800 C   0  0  0  0  0  0  0  0  0  0  0  0
   28.6270   28.3400   49.9230 C   0  0  0  0  0  0  0  0  0  0  0  0
  1  2  2  0  0  0  0
  2  6  1  0  0  0  0
  3  2  1  0  0  0  0
  3  7  1  0  0  0  0
  4  3  2  0  0  0  0
  5  4  1  0  0  0  0
  5  1  1  0  0  0  0
  8 13  1  0  0  0  0
  8 14  1  0  0  0  0
  9  8  2  0  0  0  0
 10 11  2  0  0  0  0
 10  9  1  0  0  0  0
 11 12  1  0  0  0  0
 12  1  1  0  0  0  0
 12 13  2  0  0  0  0
 15  9  1  0  0  0  0
 16 10  1  0  0  0  0
 17 18  1  6  0  0  0
 17  4  1  0  0  0  0
 17 23  1  0  0  0  0
 19 21  1  0  0  0  0
 19 17  1  0  0  0  0
 20 19  1  0  0  0  0
 22 19  1  0  0  0  0
 23 25  1  0  0  0  0
 23 24  1  0  0  0  0
 26 23  1  0  0  0  0
 26 27  1  0  0  0  0
 27 29  1  0  0  0  0
 28 27  1  0  0  0  0
 28 29  1  0  0  0  0
M  END
>  <minimizedAffinity>
-5.04626894

>  <minimizedRMSD>
1.93561041

$$$$
