
 OpenBabel03252513443D

 23 25  0  0  0  0  0  0  0  0999 V2000
   37.3730   30.5840   49.1000 C   0  0  0  0  0  0  0  0  0  0  0  0
   37.1840   31.7180   49.9320 C   0  0  0  0  0  0  0  0  0  0  0  0
   37.7600   32.9170   49.5260 C   0  0  0  0  0  0  0  0  0  0  0  0
   38.4690   32.9400   48.3640 N   0  0  0  0  0  0  0  0  0  0  0  0
   38.6190   31.8320   47.6080 C   0  0  0  0  0  0  0  0  0  0  0  0
   38.0860   30.6700   47.9590 N   0  0  0  0  0  0  0  0  0  0  0  0
   36.6220   31.6810   50.8440 H   0  0  0  0  0  0  0  0  0  0  0  0
   37.6340   33.8110   50.1430 H   0  0  0  0  0  0  0  0  0  0  0  0
   39.3870   32.0150   46.4210 N   0  0  0  0  0  0  0  0  0  0  0  0
   40.2190   33.0210   46.0880 C   0  0  0  0  0  0  0  0  0  0  0  0
   40.7520   32.7990   44.8540 N   0  0  0  0  0  0  0  0  0  0  0  0
   40.2470   31.6330   44.4000 C   0  0  0  0  0  0  0  0  0  0  0  0
   40.4380   30.9320   43.2230 C   0  0  0  0  0  0  0  0  0  0  0  0
   41.1000   31.3000   42.4480 H   0  0  0  0  0  0  0  0  0  0  0  0
   39.7730   29.7620   43.0580 N   0  0  0  0  0  0  0  0  0  0  0  0
   38.9430   29.3120   44.0430 C   0  0  0  0  0  0  0  0  0  0  0  0
   38.7680   30.0060   45.1810 N   0  0  0  0  0  0  0  0  0  0  0  0
   39.4020   31.1580   45.3820 C   0  0  0  0  0  0  0  0  0  0  0  0
   36.8040   29.3930   49.4960 O   0  0  0  0  0  0  0  0  0  0  0  0
   35.5440   29.2570   50.0710 C   0  0  0  0  0  0  0  0  0  0  0  0
   35.5730   29.2210   51.4550 F   0  0  0  0  0  0  0  0  0  0  0  0
   34.6270   30.1650   49.6330 F   0  0  0  0  0  0  0  0  0  0  0  0
   35.0710   27.9980   49.6510 F   0  0  0  0  0  0  0  0  0  0  0  0
  1 19  1  0  0  0  0
  1  2  1  0  0  0  0
  2  7  1  0  0  0  0
  3  2  2  0  0  0  0
  3  8  1  0  0  0  0
  4  3  1  0  0  0  0
  5  6  1  0  0  0  0
  5  4  2  0  0  0  0
  6  1  2  0  0  0  0
  9  5  1  0  0  0  0
 10  9  1  0  0  0  0
 11 10  2  0  0  0  0
 12 11  1  0  0  0  0
 12 18  1  0  0  0  0
 13 12  2  0  0  0  0
 14 13  1  0  0  0  0
 15 13  1  0  0  0  0
 15 16  2  0  0  0  0
 16 17  1  0  0  0  0
 17 18  2  0  0  0  0
 18  9  1  0  0  0  0
 19 20  1  0  0  0  0
 20 21  1  0  0  0  0
 22 20  1  0  0  0  0
 23 20  1  0  0  0  0
M  END
>  <minimizedAffinity>
-6.70825624

>  <minimizedRMSD>
1.96381807

$$$$
