
 OpenBabel03252510203D

 15 16  0  0  0  0  0  0  0  0999 V2000
   37.2590   31.2370   49.9100 C   0  0  0  0  0  0  0  0  0  0  0  0
   36.0160   30.8690   49.4050 C   0  0  0  0  0  0  0  0  0  0  0  0
   35.3010   29.8650   50.0880 C   0  0  0  0  0  0  0  0  0  0  0  0
   35.8740   29.3160   51.2070 N   0  0  0  0  0  0  0  0  0  0  0  0
   37.0740   29.7090   51.6490 C   0  0  0  0  0  0  0  0  0  0  0  0
   37.7820   30.6690   51.0110 N   0  0  0  0  0  0  0  0  0  0  0  0
   35.5760   31.3070   48.5260 H   0  0  0  0  0  0  0  0  0  0  0  0
   34.3290   29.5300   49.7530 H   0  0  0  0  0  0  0  0  0  0  0  0
   37.5270   29.2680   52.5400 H   0  0  0  0  0  0  0  0  0  0  0  0
   37.9990   32.2770   49.2000 C   0  0  0  0  0  0  0  0  0  0  0  0
   37.7340   33.4940   49.4080 O   0  0  0  0  0  0  0  0  0  0  0  0
   38.9990   31.9070   48.2910 O   0  0  0  0  0  0  0  0  0  0  0  0
   38.8140   32.2980   46.9260 C   0  0  0  0  0  0  0  0  0  0  0  0
   39.3410   31.4420   45.8370 C   0  0  0  0  0  0  0  0  0  0  0  0
   37.8810   31.4440   46.1700 C   0  0  0  0  0  0  0  0  0  0  0  0
  1  6  1  0  0  0  0
  2  1  2  0  0  0  0
  2  3  1  0  0  0  0
  3  4  2  0  0  0  0
  4  5  1  0  0  0  0
  5  9  1  0  0  0  0
  6  5  2  0  0  0  0
  7  2  1  0  0  0  0
  8  3  1  0  0  0  0
 10 11  2  0  0  0  0
 10  1  1  0  0  0  0
 12 10  1  0  0  0  0
 13 12  1  0  0  0  0
 14 15  1  0  0  0  0
 14 13  1  0  0  0  0
 15 13  1  0  0  0  0
M  END
>  <minimizedAffinity>
-4.15373468

>  <minimizedRMSD>
5.15521812

$$$$
