
 OpenBabel03252514043D

 39 43  0  0  1  0  0  0  0  0999 V2000
   33.2340   28.3370   47.8020 C   0  0  0  0  0  0  0  0  0  0  0  0
   34.3060   28.7960   48.3490 O   0  0  0  0  0  0  0  0  0  0  0  0
   30.7560   27.8370   48.4410 C   0  0  2  0  0  0  0  0  0  0  0  0
   31.5080   26.5990   48.2480 C   0  0  0  0  0  0  0  0  0  0  0  0
   32.2780   27.6820   48.7790 C   0  0  1  0  0  0  0  0  0  0  0  0
   30.5690   28.6130   47.7040 H   0  0  0  0  0  0  0  0  0  0  0  0
   31.2120   25.7180   48.8770 H   0  0  0  0  0  0  0  0  0  0  0  0
   31.6400   26.2620   47.1820 H   0  0  0  0  0  0  0  0  0  0  0  0
   32.4910   27.8610   49.8310 H   0  0  0  0  0  0  0  0  0  0  0  0
   29.9380   27.9350   49.7400 C   0  0  0  0  0  0  0  0  0  0  0  0
   30.4180   28.7520   50.3300 H   0  0  0  0  0  0  0  0  0  0  0  0
   30.0190   27.0030   50.3030 H   0  0  0  0  0  0  0  0  0  0  0  0
   26.4990   27.7890   48.5160 C   0  0  0  0  0  0  0  0  0  0  0  0
   26.0500   29.1100   48.7070 C   0  0  0  0  0  0  0  0  0  0  0  0
   26.9530   30.0400   49.2630 C   0  0  0  0  0  0  0  0  0  0  0  0
   28.2110   29.6030   49.5840 N   0  0  0  0  0  0  0  0  0  0  0  0
   28.5860   28.3370   49.3820 C   0  0  0  0  0  0  0  0  0  0  0  0
   27.7250   27.4290   48.8460 N   0  0  0  0  0  0  0  0  0  0  0  0
   25.7290   27.1560   48.0830 H   0  0  0  0  0  0  0  0  0  0  0  0
   25.1040   29.5620   48.4980 H   0  0  0  0  0  0  0  0  0  0  0  0
   26.7370   31.0650   49.4580 H   0  0  0  0  0  0  0  0  0  0  0  0
   33.0630   28.4690   46.4410 O   0  0  0  0  0  0  0  0  0  0  0  0
   32.1870   29.3280   45.8480 C   0  0  0  0  0  0  0  0  0  0  0  0
   32.3640   30.7840   45.7800 C   0  0  0  0  0  0  0  0  0  0  0  0
   31.4410   31.5570   45.1630 C   0  0  0  0  0  0  0  0  0  0  0  0
   30.2970   30.9540   44.5840 C   0  0  0  0  0  0  0  0  0  0  0  0
   30.5480   29.1320   44.9400 S   0  0  0  0  0  0  0  0  0  0  0  0
   33.2550   31.1840   46.2420 H   0  0  0  0  0  0  0  0  0  0  0  0
   31.5420   32.6270   45.0960 H   0  0  0  0  0  0  0  0  0  0  0  0
   29.2460   31.6420   43.9030 N   0  0  0  0  0  0  0  0  0  0  0  0
   29.3370   32.0010   42.6280 C   0  0  0  0  0  3  0  0  0  0  0  0
   28.1720   32.6130   42.3590 N   0  0  0  0  0  0  0  0  0  0  0  0
   27.3960   32.6180   43.4580 C   0  0  0  0  0  0  0  0  0  0  0  0
   26.1110   33.1340   43.6640 C   0  0  0  0  0  0  0  0  0  0  0  0
   25.5610   33.6350   42.8600 H   0  0  0  0  0  0  0  0  0  0  0  0
   25.5740   32.9850   44.9090 N   0  0  0  0  0  0  0  0  0  0  0  0
   26.2640   32.3660   45.8870 C   0  0  0  0  0  3  0  0  0  0  0  0
   27.5030   31.8720   45.6800 N   0  0  0  0  0  0  0  0  0  0  0  0
   28.0900   31.9830   44.4830 C   0  0  0  0  0  0  0  0  0  0  0  0
  1  2  2  0  0  0  0
  1  5  1  0  0  0  0
  3  6  1  6  0  0  0
  3  5  1  0  0  0  0
  3 10  1  0  0  0  0
  4  3  1  0  0  0  0
  4  5  1  0  0  0  0
  4  7  1  0  0  0  0
  5  9  1  1  0  0  0
  8  4  1  0  0  0  0
 10 12  1  0  0  0  0
 10 11  1  0  0  0  0
 13 14  2  0  0  0  0
 13 18  1  0  0  0  0
 14 15  1  0  0  0  0
 15 21  1  0  0  0  0
 15 16  2  0  0  0  0
 17 16  1  0  0  0  0
 17 10  1  0  0  0  0
 18 17  2  0  0  0  0
 19 13  1  0  0  0  0
 20 14  1  0  0  0  0
 22  1  1  0  0  0  0
 23 22  1  0  0  0  0
 24 23  2  0  0  0  0
 24 28  1  0  0  0  0
 25 24  1  0  0  0  0
 26 27  1  0  0  0  0
 26 25  2  0  0  0  0
 27 23  1  0  0  0  0
 29 25  1  0  0  0  0
 30 39  1  0  0  0  0
 30 26  1  0  0  0  0
 31 30  1  0  0  0  0
 32 31  2  0  0  0  0
 32 33  1  0  0  0  0
 33 34  2  0  0  0  0
 33 39  1  0  0  0  0
 34 36  1  0  0  0  0
 35 34  1  0  0  0  0
 36 37  2  0  0  0  0
 38 37  1  0  0  0  0
 39 38  2  0  0  0  0
M  END
>  <minimizedAffinity>
-5.0704689

>  <minimizedRMSD>
8.08786774

$$$$
