
 OpenBabel03252511503D

 42 46  0  0  1  0  0  0  0  0999 V2000
   35.5090   30.4030   47.3030 C   0  0  0  0  0  0  0  0  0  0  0  0
   36.6020   30.6040   48.1300 C   0  0  0  0  0  0  0  0  0  0  0  0
   36.7020   29.6600   49.2020 C   0  0  0  0  0  0  0  0  0  0  0  0
   35.7680   28.6810   49.3340 N   0  0  0  0  0  0  0  0  0  0  0  0
   34.7470   28.5600   48.4940 C   0  0  0  0  0  0  0  0  0  0  0  0
   34.6130   29.4200   47.4750 N   0  0  0  0  0  0  0  0  0  0  0  0
   35.4590   31.1280   46.5040 H   0  0  0  0  0  0  0  0  0  0  0  0
   37.4800   29.6570   49.9410 H   0  0  0  0  0  0  0  0  0  0  0  0
   37.6350   31.6100   48.0710 C   0  0  0  0  0  0  0  0  0  0  0  0
   37.5930   32.4320   49.1680 C   0  0  0  0  0  0  0  0  0  0  0  0
   38.5020   33.4810   49.3200 C   0  0  0  0  0  0  0  0  0  0  0  0
   39.4600   33.6950   48.3520 C   0  0  0  0  0  0  0  0  0  0  0  0
   39.4800   32.8590   47.2660 C   0  0  0  0  0  0  0  0  0  0  0  0
   40.4150   32.9860   46.2190 C   0  0  0  0  0  0  0  0  0  0  0  0
   40.3890   32.1210   45.1540 C   0  0  0  0  0  0  0  0  0  0  0  0
   39.4770   31.1170   45.0610 C   0  0  0  0  0  0  0  0  0  0  0  0
   38.5490   30.9720   46.0800 C   0  0  0  0  0  0  0  0  0  0  0  0
   38.5840   31.8380   47.1330 C   0  0  0  0  0  0  0  0  0  0  0  0
   36.9070   32.3870   50.0000 H   0  0  0  0  0  0  0  0  0  0  0  0
   38.5130   34.1580   50.1640 H   0  0  0  0  0  0  0  0  0  0  0  0
   40.2040   34.4620   48.3620 H   0  0  0  0  0  0  0  0  0  0  0  0
   41.1470   33.7810   46.2780 H   0  0  0  0  0  0  0  0  0  0  0  0
   41.1190   32.2440   44.3650 H   0  0  0  0  0  0  0  0  0  0  0  0
   39.4990   30.4520   44.1910 H   0  0  0  0  0  0  0  0  0  0  0  0
   37.8200   30.1520   45.9840 H   0  0  0  0  0  0  0  0  0  0  0  0
   33.7620   27.4560   48.6990 C   0  0  1  0  0  0  0  0  0  0  0  0
   32.3080   27.8080   48.8150 C   0  0  0  0  0  0  0  0  0  0  0  0
   32.8370   27.0750   47.5970 C   0  0  2  0  0  0  0  0  0  0  0  0
   34.0660   26.6670   49.4190 H   0  0  0  0  0  0  0  0  0  0  0  0
   31.9550   28.8380   48.6080 H   0  0  0  0  0  0  0  0  0  0  0  0
   31.6350   27.2330   49.4830 H   0  0  0  0  0  0  0  0  0  0  0  0
   32.9580   27.6610   46.6580 H   0  0  0  0  0  0  0  0  0  0  0  0
   32.4860   25.3290   47.3460 S   0  0  0  0  0  0  0  0  0  0  0  0
   30.8680   25.1960   46.5960 C   0  0  0  0  0  0  0  0  0  0  0  0
   30.5540   24.0860   45.8070 C   0  0  0  0  0  0  0  0  0  0  0  0
   31.3430   23.3480   45.6980 H   0  0  0  0  0  0  0  0  0  0  0  0
   29.3370   23.8750   45.1780 C   0  0  0  0  0  0  0  0  0  0  0  0
   28.4180   24.8610   45.3830 C   0  0  0  0  0  0  0  0  0  0  0  0
   27.4240   24.7950   44.9320 H   0  0  0  0  0  0  0  0  0  0  0  0
   28.6290   26.0040   46.1490 C   0  0  0  0  0  0  0  0  0  0  0  0
   27.8800   26.7720   46.2940 H   0  0  0  0  0  0  0  0  0  0  0  0
   29.8680   26.1340   46.7390 C   0  0  0  0  0  0  0  0  0  0  0  0
  1  6  2  0  0  0  0
  1  2  1  0  0  0  0
  2  3  2  0  0  0  0
  3  4  1  0  0  0  0
  3  8  1  0  0  0  0
  5 26  1  0  0  0  0
  5  4  2  0  0  0  0
  6  5  1  0  0  0  0
  7  1  1  0  0  0  0
  9  2  1  0  0  0  0
  9 10  1  0  0  0  0
 10 11  2  0  0  0  0
 10 19  1  0  0  0  0
 11 20  1  0  0  0  0
 12 21  1  0  0  0  0
 12 11  1  0  0  0  0
 13 12  2  0  0  0  0
 14 22  1  0  0  0  0
 14 13  1  0  0  0  0
 15 14  2  0  0  0  0
 16 15  1  0  0  0  0
 16 17  2  0  0  0  0
 17 18  1  0  0  0  0
 18 13  1  0  0  0  0
 18  9  2  0  0  0  0
 23 15  1  0  0  0  0
 24 16  1  0  0  0  0
 25 17  1  0  0  0  0
 26 27  1  0  0  0  0
 26 29  1  1  0  0  0
 27 31  1  0  0  0  0
 28 32  1  6  0  0  0
 28 26  1  0  0  0  0
 28 27  1  0  0  0  0
 30 27  1  0  0  0  0
 33 28  1  0  0  0  0
 34 42  1  0  0  0  0
 34 33  1  0  0  0  0
 35 34  2  0  0  0  0
 36 35  1  0  0  0  0
 37 38  2  0  0  0  0
 37 35  1  0  0  0  0
 38 40  1  0  0  0  0
 39 38  1  0  0  0  0
 40 41  1  0  0  0  0
 40 42  2  0  0  0  0
M  END
>  <minimizedAffinity>
-6.85452938

>  <minimizedRMSD>
0.963817239

$$$$
