
 OpenBabel03252514043D

 39 43  0  0  1  0  0  0  0  0999 V2000
   33.7640   27.4160   48.0100 C   0  0  0  0  0  0  0  0  0  0  0  0
   34.0690   26.1990   47.7170 O   0  0  0  0  0  0  0  0  0  0  0  0
   35.4140   29.3030   48.7250 C   0  0  2  0  0  0  0  0  0  0  0  0
   34.2120   29.3130   49.5570 C   0  0  0  0  0  0  0  0  0  0  0  0
   34.6130   28.0130   49.1130 C   0  0  1  0  0  0  0  0  0  0  0  0
   35.4690   29.4530   47.6510 H   0  0  0  0  0  0  0  0  0  0  0  0
   34.3330   29.6380   50.6250 H   0  0  0  0  0  0  0  0  0  0  0  0
   33.3100   29.8240   49.1170 H   0  0  0  0  0  0  0  0  0  0  0  0
   35.2160   27.3020   49.6750 H   0  0  0  0  0  0  0  0  0  0  0  0
   36.7560   29.3320   49.4750 C   0  0  0  0  0  0  0  0  0  0  0  0
   37.2950   28.4100   49.1520 H   0  0  0  0  0  0  0  0  0  0  0  0
   36.5820   29.2760   50.5520 H   0  0  0  0  0  0  0  0  0  0  0  0
   38.2960   32.6450   49.4260 C   0  0  0  0  0  0  0  0  0  0  0  0
   38.8730   32.6950   48.1420 C   0  0  0  0  0  0  0  0  0  0  0  0
   38.7190   31.5690   47.3060 C   0  0  0  0  0  0  0  0  0  0  0  0
   38.0200   30.4960   47.7910 N   0  0  0  0  0  0  0  0  0  0  0  0
   37.4920   30.5010   49.0190 C   0  0  0  0  0  0  0  0  0  0  0  0
   37.6330   31.5810   49.8370 N   0  0  0  0  0  0  0  0  0  0  0  0
   38.4720   33.5600   49.9870 H   0  0  0  0  0  0  0  0  0  0  0  0
   39.4340   33.4660   47.6590 H   0  0  0  0  0  0  0  0  0  0  0  0
   39.1060   31.4820   46.3170 H   0  0  0  0  0  0  0  0  0  0  0  0
   32.7350   28.0320   47.3330 O   0  0  0  0  0  0  0  0  0  0  0  0
   31.4460   28.1000   47.7720 C   0  0  0  0  0  0  0  0  0  0  0  0
   30.9790   27.5900   49.0680 C   0  0  0  0  0  0  0  0  0  0  0  0
   29.6780   27.7070   49.4200 C   0  0  0  0  0  0  0  0  0  0  0  0
   28.7650   28.3230   48.5300 C   0  0  0  0  0  0  0  0  0  0  0  0
   29.8380   28.7790   47.0640 S   0  0  0  0  0  0  0  0  0  0  0  0
   31.7230   27.1290   49.7010 H   0  0  0  0  0  0  0  0  0  0  0  0
   29.3050   27.3440   50.3620 H   0  0  0  0  0  0  0  0  0  0  0  0
   27.3680   28.5160   48.7680 N   0  0  0  0  0  0  0  0  0  0  0  0
   26.5660   27.5270   49.1450 C   0  0  0  0  0  3  0  0  0  0  0  0
   25.3550   28.0930   49.2650 N   0  0  0  0  0  0  0  0  0  0  0  0
   25.4320   29.4020   48.9630 C   0  0  0  0  0  0  0  0  0  0  0  0
   24.4430   30.3930   48.9460 C   0  0  0  0  0  0  0  0  0  0  0  0
   23.4030   30.1660   49.2040 H   0  0  0  0  0  0  0  0  0  0  0  0
   24.8320   31.6520   48.5920 N   0  0  0  0  0  0  0  0  0  0  0  0
   26.1160   31.9140   48.2770 C   0  0  0  0  0  3  0  0  0  0  0  0
   27.0630   30.9510   48.2970 N   0  0  0  0  0  0  0  0  0  0  0  0
   26.7520   29.6950   48.6340 C   0  0  0  0  0  0  0  0  0  0  0  0
  1  5  1  0  0  0  0
  2  1  2  0  0  0  0
  3  6  1  6  0  0  0
  3  5  1  0  0  0  0
  3 10  1  0  0  0  0
  3  4  1  0  0  0  0
  4  7  1  0  0  0  0
  5  4  1  0  0  0  0
  5  9  1  1  0  0  0
  8  4  1  0  0  0  0
 10 12  1  0  0  0  0
 11 10  1  0  0  0  0
 13 18  1  0  0  0  0
 13 19  1  0  0  0  0
 14 13  2  0  0  0  0
 15 16  2  0  0  0  0
 15 14  1  0  0  0  0
 16 17  1  0  0  0  0
 17 10  1  0  0  0  0
 17 18  2  0  0  0  0
 20 14  1  0  0  0  0
 21 15  1  0  0  0  0
 22 23  1  0  0  0  0
 22  1  1  0  0  0  0
 23 24  2  0  0  0  0
 24 25  1  0  0  0  0
 24 28  1  0  0  0  0
 25 29  1  0  0  0  0
 26 30  1  0  0  0  0
 26 25  2  0  0  0  0
 27 23  1  0  0  0  0
 27 26  1  0  0  0  0
 30 31  1  0  0  0  0
 31 32  2  0  0  0  0
 33 32  1  0  0  0  0
 34 33  1  0  0  0  0
 34 35  1  0  0  0  0
 36 34  2  0  0  0  0
 37 38  2  0  0  0  0
 37 36  1  0  0  0  0
 38 39  1  0  0  0  0
 39 30  1  0  0  0  0
 39 33  2  0  0  0  0
M  END
>  <minimizedAffinity>
-6.68061256

>  <minimizedRMSD>
1.988989

$$$$
