
 OpenBabel03252514013D

 25 27  0  0  1  0  0  0  0  0999 V2000
   35.3690   29.4250   49.0770 C   0  0  2  0  0  0  0  0  0  0  0  0
   34.2570   29.4460   50.0370 C   0  0  0  0  0  0  0  0  0  0  0  0
   34.5720   28.1560   49.4360 C   0  0  1  0  0  0  0  0  0  0  0  0
   35.3020   29.7170   48.0230 H   0  0  0  0  0  0  0  0  0  0  0  0
   34.5020   29.5810   51.1140 H   0  0  0  0  0  0  0  0  0  0  0  0
   33.3360   30.0000   49.7090 H   0  0  0  0  0  0  0  0  0  0  0  0
   35.2370   27.3590   49.8110 H   0  0  0  0  0  0  0  0  0  0  0  0
   36.7910   29.3770   49.6380 C   0  0  0  0  0  0  0  0  0  0  0  0
   36.7080   29.4770   50.7360 H   0  0  0  0  0  0  0  0  0  0  0  0
   37.2940   28.4340   49.3840 H   0  0  0  0  0  0  0  0  0  0  0  0
   38.3640   32.6780   49.4030 C   0  0  0  0  0  0  0  0  0  0  0  0
   38.8820   32.6840   48.0990 C   0  0  0  0  0  0  0  0  0  0  0  0
   38.6850   31.5420   47.3060 C   0  0  0  0  0  0  0  0  0  0  0  0
   37.9970   30.4890   47.8550 N   0  0  0  0  0  0  0  0  0  0  0  0
   37.5210   30.5270   49.1000 C   0  0  0  0  0  0  0  0  0  0  0  0
   37.7110   31.6270   49.8650 N   0  0  0  0  0  0  0  0  0  0  0  0
   38.5140   33.5560   50.0160 H   0  0  0  0  0  0  0  0  0  0  0  0
   39.4160   33.5020   47.6730 H   0  0  0  0  0  0  0  0  0  0  0  0
   39.0670   31.5100   46.3050 H   0  0  0  0  0  0  0  0  0  0  0  0
   33.5760   27.6680   48.4200 C   0  0  0  0  0  0  0  0  0  0  0  0
   34.0060   26.7030   47.6720 O   0  0  0  0  0  0  0  0  0  0  0  0
   32.2880   28.1420   48.2340 O   0  0  0  0  0  0  0  0  0  0  0  0
   31.1760   27.4090   48.6410 C   0  0  0  0  0  3  0  0  0  0  0  0
   30.2810   27.8560   49.7220 C   0  0  0  0  0  2  0  0  0  0  0  0
   29.7930   27.7520   48.2590 C   0  0  0  0  0  2  0  0  0  0  0  0
  1  4  1  6  0  0  0
  1  3  1  0  0  0  0
  1  8  1  0  0  0  0
  1  2  1  0  0  0  0
  2  5  1  0  0  0  0
  3  7  1  1  0  0  0
  3  2  1  0  0  0  0
  6  2  1  0  0  0  0
  8  9  1  0  0  0  0
 10  8  1  0  0  0  0
 11 16  1  0  0  0  0
 11 17  1  0  0  0  0
 12 11  2  0  0  0  0
 13 14  2  0  0  0  0
 13 12  1  0  0  0  0
 14 15  1  0  0  0  0
 15  8  1  0  0  0  0
 15 16  2  0  0  0  0
 18 12  1  0  0  0  0
 19 13  1  0  0  0  0
 20  3  1  0  0  0  0
 21 20  2  0  0  0  0
 22 20  1  0  0  0  0
 22 23  1  0  0  0  0
 23 24  1  0  0  0  0
 25 23  1  0  0  0  0
 25 24  1  0  0  0  0
M  END
>  <minimizedAffinity>
-4.87975454

>  <minimizedRMSD>
0.948034048

$$$$
