
 OpenBabel03252513333D

 22 24  0  0  0  0  0  0  0  0999 V2000
   36.6860   29.8700   49.5380 C   0  0  0  0  0  0  0  0  0  0  0  0
   37.5810   30.6400   48.8020 C   0  0  0  0  0  0  0  0  0  0  0  0
   37.2220   30.9840   47.4950 C   0  0  0  0  0  0  0  0  0  0  0  0
   36.0310   30.5550   47.0170 N   0  0  0  0  0  0  0  0  0  0  0  0
   35.1820   29.8060   47.7600 C   0  0  0  0  0  0  0  0  0  0  0  0
   35.5210   29.4770   49.0010 N   0  0  0  0  0  0  0  0  0  0  0  0
   38.5340   30.9800   49.1930 H   0  0  0  0  0  0  0  0  0  0  0  0
   34.2380   29.4630   47.3840 H   0  0  0  0  0  0  0  0  0  0  0  0
   38.1360   31.7720   46.7400 N   0  0  0  0  0  0  0  0  0  0  0  0
   39.0900   32.4750   47.3830 C   0  0  0  0  0  0  0  0  0  0  0  0
   39.8890   33.1800   46.5440 N   0  0  0  0  0  0  0  0  0  0  0  0
   39.4090   32.9020   45.3060 C   0  0  0  0  0  0  0  0  0  0  0  0
   39.7170   33.2530   44.0120 C   0  0  0  0  0  0  0  0  0  0  0  0
   40.5530   33.9300   43.8460 H   0  0  0  0  0  0  0  0  0  0  0  0
   38.9880   32.7600   42.9850 N   0  0  0  0  0  0  0  0  0  0  0  0
   37.9430   31.9160   43.1570 C   0  0  0  0  0  0  0  0  0  0  0  0
   37.6020   31.5400   44.4230 N   0  0  0  0  0  0  0  0  0  0  0  0
   38.3430   32.0440   45.4380 C   0  0  0  0  0  0  0  0  0  0  0  0
   37.0450   29.4830   50.9480 C   0  0  0  0  0  0  0  0  0  0  0  0
   35.8890   29.3030   51.6940 F   0  0  0  0  0  0  0  0  0  0  0  0
   37.8560   28.3910   50.9020 F   0  0  0  0  0  0  0  0  0  0  0  0
   37.7230   30.5760   51.4980 F   0  0  0  0  0  0  0  0  0  0  0  0
  1 19  1  0  0  0  0
  2  7  1  0  0  0  0
  2  1  2  0  0  0  0
  3  2  1  0  0  0  0
  4  3  2  0  0  0  0
  4  5  1  0  0  0  0
  5  6  2  0  0  0  0
  6  1  1  0  0  0  0
  8  5  1  0  0  0  0
  9 10  1  0  0  0  0
  9  3  1  0  0  0  0
 11 10  2  0  0  0  0
 12 18  1  0  0  0  0
 12 11  1  0  0  0  0
 13 12  2  0  0  0  0
 14 13  1  0  0  0  0
 15 16  2  0  0  0  0
 15 13  1  0  0  0  0
 16 17  1  0  0  0  0
 17 18  2  0  0  0  0
 18  9  1  0  0  0  0
 19 22  1  0  0  0  0
 19 20  1  0  0  0  0
 21 19  1  0  0  0  0
M  END
>  <minimizedAffinity>
-6.48872995

>  <minimizedRMSD>
3.05122399

$$$$
