
 OpenBabel03252514013D

 25 27  0  0  1  0  0  0  0  0999 V2000
   35.4500   29.4750   49.1360 C   0  0  2  0  0  0  0  0  0  0  0  0
   34.3730   29.5140   50.1350 C   0  0  0  0  0  0  0  0  0  0  0  0
   34.6590   28.2150   49.5390 C   0  0  1  0  0  0  0  0  0  0  0  0
   35.3470   29.7550   48.0820 H   0  0  0  0  0  0  0  0  0  0  0  0
   34.6580   29.6600   51.2010 H   0  0  0  0  0  0  0  0  0  0  0  0
   33.4450   30.0690   49.8340 H   0  0  0  0  0  0  0  0  0  0  0  0
   35.3340   27.4190   49.8990 H   0  0  0  0  0  0  0  0  0  0  0  0
   36.8910   29.4260   49.6460 C   0  0  0  0  0  0  0  0  0  0  0  0
   36.8470   29.5170   50.7470 H   0  0  0  0  0  0  0  0  0  0  0  0
   37.3860   28.4860   49.3670 H   0  0  0  0  0  0  0  0  0  0  0  0
   38.4140   32.7470   49.3680 C   0  0  0  0  0  0  0  0  0  0  0  0
   38.9210   32.7480   48.0590 C   0  0  0  0  0  0  0  0  0  0  0  0
   38.7330   31.5960   47.2780 C   0  0  0  0  0  0  0  0  0  0  0  0
   38.0650   30.5390   47.8420 N   0  0  0  0  0  0  0  0  0  0  0  0
   37.5990   30.5810   49.0910 C   0  0  0  0  0  0  0  0  0  0  0  0
   37.7810   31.6910   49.8440 N   0  0  0  0  0  0  0  0  0  0  0  0
   38.5580   33.6320   49.9710 H   0  0  0  0  0  0  0  0  0  0  0  0
   39.4390   33.5690   47.6210 H   0  0  0  0  0  0  0  0  0  0  0  0
   39.1060   31.5610   46.2740 H   0  0  0  0  0  0  0  0  0  0  0  0
   33.6250   27.7210   48.5650 C   0  0  0  0  0  0  0  0  0  0  0  0
   34.0950   26.9630   47.6270 O   0  0  0  0  0  0  0  0  0  0  0  0
   32.2680   27.9940   48.5950 O   0  0  0  0  0  0  0  0  0  0  0  0
   31.4670   27.8340   47.4660 C   0  0  0  0  0  3  0  0  0  0  0  0
   30.0900   28.3520   47.3880 C   0  0  0  0  0  2  0  0  0  0  0  0
   31.2170   28.9100   46.4890 C   0  0  0  0  0  2  0  0  0  0  0  0
  1  4  1  6  0  0  0
  1  3  1  0  0  0  0
  1  8  1  0  0  0  0
  1  2  1  0  0  0  0
  2  5  1  0  0  0  0
  3  7  1  1  0  0  0
  3  2  1  0  0  0  0
  6  2  1  0  0  0  0
  8  9  1  0  0  0  0
 10  8  1  0  0  0  0
 11 16  1  0  0  0  0
 11 17  1  0  0  0  0
 12 11  2  0  0  0  0
 13 14  2  0  0  0  0
 13 12  1  0  0  0  0
 14 15  1  0  0  0  0
 15  8  1  0  0  0  0
 15 16  2  0  0  0  0
 18 12  1  0  0  0  0
 19 13  1  0  0  0  0
 20 22  1  0  0  0  0
 20  3  1  0  0  0  0
 21 20  2  0  0  0  0
 23 22  1  0  0  0  0
 24 23  1  0  0  0  0
 25 24  1  0  0  0  0
 25 23  1  0  0  0  0
M  END
>  <minimizedAffinity>
-4.62190914

>  <minimizedRMSD>
0.298902929

$$$$
