
 OpenBabel03252513543D

 24 26  0  0  0  0  0  0  0  0999 V2000
   34.6570   28.3550   49.6500 C   0  0  0  0  0  0  0  0  0  0  0  0
   33.9000   28.6800   50.4120 H   0  0  0  0  0  0  0  0  0  0  0  0
   34.9210   27.3030   49.7530 H   0  0  0  0  0  0  0  0  0  0  0  0
   34.1590   28.6900   48.2850 C   0  0  0  0  0  0  0  0  0  0  0  0
   34.0220   30.0080   47.9880 N   0  0  0  0  0  0  0  0  0  0  0  0
   33.5800   30.3900   46.7820 C   0  0  0  0  0  0  0  0  0  0  0  0
   33.2620   29.4780   45.8400 N   0  0  0  0  0  0  0  0  0  0  0  0
   33.3800   28.1450   46.0850 C   0  0  0  0  0  0  0  0  0  0  0  0
   33.0590   27.1610   45.1410 C   0  0  0  0  0  0  0  0  0  0  0  0
   33.2100   25.8180   45.4870 C   0  0  0  0  0  0  0  0  0  0  0  0
   32.9260   25.1580   44.6640 H   0  0  0  0  0  0  0  0  0  0  0  0
   33.6640   25.4470   46.7310 C   0  0  0  0  0  0  0  0  0  0  0  0
   33.7470   24.3630   46.9100 H   0  0  0  0  0  0  0  0  0  0  0  0
   33.9790   26.4280   47.6590 C   0  0  0  0  0  0  0  0  0  0  0  0
   33.8350   27.7660   47.3270 C   0  0  0  0  0  0  0  0  0  0  0  0
   37.2880   30.2620   51.4160 C   0  0  0  0  0  0  0  0  0  0  0  0
   38.1250   30.6950   50.3790 C   0  0  0  0  0  0  0  0  0  0  0  0
   37.7870   30.3260   49.0760 C   0  0  0  0  0  0  0  0  0  0  0  0
   36.6550   29.5590   48.8790 N   0  0  0  0  0  0  0  0  0  0  0  0
   35.8690   29.1600   49.9140 C   0  0  0  0  0  0  0  0  0  0  0  0
   36.1930   29.5130   51.1600 N   0  0  0  0  0  0  0  0  0  0  0  0
   37.5220   30.5290   52.4330 H   0  0  0  0  0  0  0  0  0  0  0  0
   39.0030   31.2990   50.5910 H   0  0  0  0  0  0  0  0  0  0  0  0
   38.4020   30.6380   48.2690 H   0  0  0  0  0  0  0  0  0  0  0  0
  1  3  1  0  0  0  0
  1 20  1  0  0  0  0
  1  2  1  0  0  0  0
  4  1  1  0  0  0  0
  5  4  1  0  0  0  0
  6  5  2  0  0  0  0
  7  8  2  0  0  0  0
  7  6  1  0  0  0  0
  8 15  1  0  0  0  0
  9 10  2  0  0  0  0
  9  8  1  0  0  0  0
 10 12  1  0  0  0  0
 11 10  1  0  0  0  0
 12 13  1  0  0  0  0
 12 14  2  0  0  0  0
 15 14  1  0  0  0  0
 15  4  2  0  0  0  0
 16 22  1  0  0  0  0
 17 23  1  0  0  0  0
 17 16  2  0  0  0  0
 18 17  1  0  0  0  0
 19 18  2  0  0  0  0
 19 20  1  0  0  0  0
 20 21  2  0  0  0  0
 21 16  1  0  0  0  0
 24 18  1  0  0  0  0
M  END
>  <minimizedAffinity>
-4.79979849

>  <minimizedRMSD>
0.974451065

$$$$
