
 OpenBabel03252511043D

 40 43  0  0  0  0  0  0  0  0999 V2000
   39.3430   31.8490   45.7240 C   0  0  0  0  0  0  0  0  0  0  0  0
   40.6090   31.2990   45.5810 C   0  0  0  0  0  0  0  0  0  0  0  0
   40.9030   31.2510   44.2160 C   0  0  0  0  0  0  0  0  0  0  0  0
   39.7600   31.7910   43.6080 C   0  0  0  0  0  0  0  0  0  0  0  0
   38.8920   32.1180   44.5290 O   0  0  0  0  0  0  0  0  0  0  0  0
   41.2870   30.9550   46.3430 H   0  0  0  0  0  0  0  0  0  0  0  0
   41.7580   30.9050   43.6940 H   0  0  0  0  0  0  0  0  0  0  0  0
   37.1520   31.3570   48.5940 C   0  0  0  0  0  0  0  0  0  0  0  0
   37.5260   32.4190   49.4800 C   0  0  0  0  0  0  0  0  0  0  0  0
   38.5420   33.2850   49.0470 C   0  0  0  0  0  0  0  0  0  0  0  0
   39.1030   33.0530   47.8070 N   0  0  0  0  0  0  0  0  0  0  0  0
   38.7150   32.0480   47.0250 C   0  0  0  0  0  0  0  0  0  0  0  0
   37.7410   31.2010   47.4170 N   0  0  0  0  0  0  0  0  0  0  0  0
   37.0670   32.5750   50.4460 H   0  0  0  0  0  0  0  0  0  0  0  0
   38.8920   34.1170   49.6460 H   0  0  0  0  0  0  0  0  0  0  0  0
   36.1060   30.4780   49.0590 C   0  0  0  0  0  0  0  0  0  0  0  0
   34.9030   30.7100   48.7450 O   0  0  0  0  0  0  0  0  0  0  0  0
   36.4230   29.3780   49.8500 O   0  0  0  0  0  0  0  0  0  0  0  0
   36.4910   29.4350   51.2430 C   0  0  0  0  0  0  0  0  0  0  0  0
   37.6750   29.7120   51.9530 N   0  0  0  0  0  0  0  0  0  0  0  0
   35.3810   29.2130   51.7910 O   0  0  0  0  0  0  0  0  0  0  0  0
   38.4500   29.0450   52.1990 H   0  0  0  0  0  0  0  0  0  0  0  0
   38.1850   30.4990   52.4300 H   0  0  0  0  0  0  0  0  0  0  0  0
   39.5790   31.9560   42.1730 C   0  0  0  0  0  0  0  0  0  0  0  0
   40.0980   31.1290   41.2040 C   0  0  0  0  0  0  0  0  0  0  0  0
   39.6550   31.6940   40.0300 C   0  0  0  0  0  0  0  0  0  0  0  0
   38.9080   32.8050   40.2680 N   0  0  0  0  0  0  0  0  0  0  0  0
   38.8730   32.9470   41.5870 N   0  0  0  0  0  0  0  0  0  0  0  0
   40.7050   30.2500   41.3130 H   0  0  0  0  0  0  0  0  0  0  0  0
   39.8860   31.2890   39.0410 H   0  0  0  0  0  0  0  0  0  0  0  0
   36.7170   35.3110   37.7780 C   0  0  0  0  0  0  0  0  0  0  0  0
   38.0030   35.0350   37.3930 C   0  0  0  0  0  0  0  0  0  0  0  0
   38.7870   34.2100   38.1740 C   0  0  0  0  0  0  0  0  0  0  0  0
   38.2730   33.6690   39.3340 C   0  0  0  0  0  0  0  0  0  0  0  0
   36.9600   33.9570   39.7160 C   0  0  0  0  0  0  0  0  0  0  0  0
   36.1650   34.7900   38.9280 C   0  0  0  0  0  0  0  0  0  0  0  0
   34.4790   35.6820   36.6530 H   0  0  0  0  0  0  0  0  0  0  0  0
   35.6830   36.3560   36.8140 S   0  0  0  0  0  0  0  0  0  0  0  0
   35.3340   37.5740   37.6530 O   0  0  0  0  0  0  0  0  0  0  0  0
   36.3040   36.7370   35.5170 O   0  0  0  0  0  0  0  0  0  0  0  0
  1 12  1  0  0  0  0
  2  1  2  0  0  0  0
  2  6  1  0  0  0  0
  3  2  1  0  0  0  0
  4  3  2  0  0  0  0
  4  5  1  0  0  0  0
  5  1  1  0  0  0  0
  7  3  1  0  0  0  0
  8 16  1  0  0  0  0
  8  9  1  0  0  0  0
  9 14  1  0  0  0  0
 10  9  2  0  0  0  0
 10 15  1  0  0  0  0
 11 10  1  0  0  0  0
 12 13  1  0  0  0  0
 12 11  2  0  0  0  0
 13  8  2  0  0  0  0
 16 18  1  0  0  0  0
 17 16  2  0  0  0  0
 18 19  1  0  0  0  0
 19 21  2  0  0  0  0
 19 20  1  0  0  0  0
 20 22  1  0  0  0  0
 20 23  1  0  0  0  0
 24  4  1  0  0  0  0
 25 29  1  0  0  0  0
 25 24  1  0  0  0  0
 26 27  1  0  0  0  0
 26 25  2  0  0  0  0
 27 28  1  0  0  0  0
 28 24  2  0  0  0  0
 30 26  1  0  0  0  0
 31 36  1  0  0  0  0
 32 31  2  0  0  0  0
 32 33  1  0  0  0  0
 33 34  2  0  0  0  0
 34 35  1  0  0  0  0
 34 27  1  0  0  0  0
 36 35  2  0  0  0  0
 37 38  1  0  0  0  0
 38 39  2  0  0  0  0
 38 31  1  0  0  0  0
 40 38  2  0  0  0  0
M  END
>  <minimizedAffinity>
-5.92695093

>  <minimizedRMSD>
1.05680537

$$$$
