
 OpenBabel03252511403D

 34 36  0  0  1  0  0  0  0  0999 V2000
   35.6560   29.1600   48.8630 C   0  0  0  0  0  0  0  0  0  0  0  0
   35.3700   28.2370   49.4490 H   0  0  0  0  0  0  0  0  0  0  0  0
   36.6340   28.8060   48.3950 H   0  0  0  0  0  0  0  0  0  0  0  0
   34.7850   29.4590   47.7830 C   0  0  0  0  0  0  0  0  0  0  0  0
   34.7940   30.1910   46.6350 C   0  0  0  0  0  0  0  0  0  0  0  0
   33.6250   30.1010   45.9460 N   0  0  0  0  0  0  0  0  0  0  0  0
   32.8160   29.2900   46.6530 C   0  0  0  0  0  0  0  0  0  0  0  0
   33.5420   28.9180   47.7570 N   0  0  0  0  0  0  0  0  0  0  0  0
   35.6960   30.7680   46.3620 H   0  0  0  0  0  0  0  0  0  0  0  0
   31.8320   29.0280   46.3690 H   0  0  0  0  0  0  0  0  0  0  0  0
   32.9030   27.9950   48.7210 C   0  0  0  0  0  0  0  0  0  0  0  0
   31.9180   28.3530   48.9980 H   0  0  0  0  0  0  0  0  0  0  0  0
   33.5690   27.9640   49.6080 H   0  0  0  0  0  0  0  0  0  0  0  0
   32.8730   26.6690   48.0530 C   0  0  0  0  0  0  0  0  0  0  0  0
   31.6410   26.0090   47.9540 C   0  0  0  0  0  0  0  0  0  0  0  0
   31.7940   24.8100   47.3200 N   0  0  0  0  0  0  0  0  0  0  0  0
   33.1220   24.7360   47.0280 C   0  0  0  0  0  0  0  0  0  0  0  0
   33.7480   25.8380   47.4660 N   0  0  0  0  0  0  0  0  0  0  0  0
   34.7330   26.1050   47.4140 H   0  0  0  0  0  0  0  0  0  0  0  0
   36.0160   30.1960   49.8160 C   0  0  2  0  0  0  0  0  0  0  0  0
   35.1910   30.8270   50.1870 H   0  0  0  0  0  0  0  0  0  0  0  0
   37.0640   31.1490   49.2920 C   0  0  0  0  0  0  0  0  0  0  0  0
   37.1040   32.4250   49.8340 C   0  0  0  0  0  0  0  0  0  0  0  0
   38.0880   33.2780   49.2840 C   0  0  0  0  0  0  0  0  0  0  0  0
   38.9040   32.8250   48.3020 N   0  0  0  0  0  0  0  0  0  0  0  0
   38.8300   31.5530   47.7940 C   0  0  0  0  0  0  0  0  0  0  0  0
   37.8920   30.7160   48.3070 N   0  0  0  0  0  0  0  0  0  0  0  0
   36.4390   32.7310   50.6060 H   0  0  0  0  0  0  0  0  0  0  0  0
   38.1780   34.2870   49.6550 H   0  0  0  0  0  0  0  0  0  0  0  0
   39.5070   31.2710   47.0220 H   0  0  0  0  0  0  0  0  0  0  0  0
   36.6320   29.4840   51.0810 C   0  0  0  0  0  0  0  0  0  0  0  0
   36.6420   30.2320   51.8770 H   0  0  0  0  0  0  0  0  0  0  0  0
   37.6300   29.0940   50.7970 H   0  0  0  0  0  0  0  0  0  0  0  0
   35.8970   28.6720   51.2630 H   0  0  0  0  0  0  0  0  0  0  0  0
  1  2  1  0  0  0  0
  1 20  1  0  0  0  0
  3  1  1  0  0  0  0
  4  1  1  0  0  0  0
  5  4  2  0  0  0  0
  6  5  1  0  0  0  0
  6  7  2  0  0  0  0
  7  8  1  0  0  0  0
  8  4  1  0  0  0  0
  8 11  1  0  0  0  0
  9  5  1  0  0  0  0
 10  7  1  0  0  0  0
 11 12  1  0  0  0  0
 11 13  1  0  0  0  0
 14 11  1  0  0  0  0
 15 14  2  0  0  0  0
 16 15  1  0  0  0  0
 17 16  2  0  0  0  0
 17 18  1  0  0  0  0
 18 14  1  0  0  0  0
 19 18  1  0  0  0  0
 20 21  1  1  0  0  0
 20 31  1  0  0  0  0
 22 20  1  0  0  0  0
 22 23  1  0  0  0  0
 23 28  1  0  0  0  0
 24 29  1  0  0  0  0
 24 23  2  0  0  0  0
 25 24  1  0  0  0  0
 26 25  2  0  0  0  0
 26 27  1  0  0  0  0
 27 22  2  0  0  0  0
 30 26  1  0  0  0  0
 31 34  1  0  0  0  0
 31 32  1  0  0  0  0
 33 31  1  0  0  0  0
M  END
>  <minimizedAffinity>
-4.88100481

>  <minimizedRMSD>
0.578719139

$$$$
