
 OpenBabel03252512563D

 23 25  0  0  0  0  0  0  0  0999 V2000
   38.3830   31.5810   48.1850 C   0  0  0  0  0  0  0  0  0  0  0  0
   39.0320   32.7720   48.2190 N   0  0  0  0  0  0  0  0  0  0  0  0
   39.5140   33.0370   47.0330 O   0  0  0  0  0  0  0  0  0  0  0  0
   39.1990   32.0600   46.2370 C   0  0  0  0  0  0  0  0  0  0  0  0
   38.4830   31.1140   46.9170 N   0  0  0  0  0  0  0  0  0  0  0  0
   39.5160   31.9220   44.8500 N   0  0  0  0  0  0  0  0  0  0  0  0
   39.0330   32.7420   43.9260 N   0  0  0  0  0  0  0  0  0  0  0  0
   39.4960   32.3750   42.7050 C   0  0  0  0  0  0  0  0  0  0  0  0
   40.3040   31.2670   42.9220 C   0  0  0  0  0  0  0  0  0  0  0  0
   40.3040   30.9980   44.2740 C   0  0  0  0  0  0  0  0  0  0  0  0
   39.2130   32.9260   41.8150 H   0  0  0  0  0  0  0  0  0  0  0  0
   40.8110   30.7600   42.1130 H   0  0  0  0  0  0  0  0  0  0  0  0
   40.8390   30.1950   44.7640 H   0  0  0  0  0  0  0  0  0  0  0  0
   37.2910   30.1020   51.4540 C   0  0  0  0  0  0  0  0  0  0  0  0
   38.0410   30.8710   50.5570 C   0  0  0  0  0  0  0  0  0  0  0  0
   37.6710   30.8180   49.2090 C   0  0  0  0  0  0  0  0  0  0  0  0
   36.6140   30.0340   48.8230 N   0  0  0  0  0  0  0  0  0  0  0  0
   35.9300   29.3160   49.7260 C   0  0  0  0  0  0  0  0  0  0  0  0
   36.2540   29.3390   51.0350 N   0  0  0  0  0  0  0  0  0  0  0  0
   37.6190   30.1820   52.4660 H   0  0  0  0  0  0  0  0  0  0  0  0
   38.8650   31.4920   50.8090 H   0  0  0  0  0  0  0  0  0  0  0  0
   34.5410   28.2710   49.3030 S   0  0  0  0  0  0  0  0  0  0  0  0
   35.0090   27.1350   48.6540 H   0  0  0  0  0  0  0  0  0  0  0  0
  1  2  2  0  0  0  0
  1 16  1  0  0  0  0
  3  2  1  0  0  0  0
  4  5  2  0  0  0  0
  4  3  1  0  0  0  0
  5  1  1  0  0  0  0
  6  4  1  0  0  0  0
  7  6  1  0  0  0  0
  8  9  1  0  0  0  0
  8  7  2  0  0  0  0
  9 10  2  0  0  0  0
 10 13  1  0  0  0  0
 10  6  1  0  0  0  0
 11  8  1  0  0  0  0
 12  9  1  0  0  0  0
 14 20  1  0  0  0  0
 15 21  1  0  0  0  0
 15 14  2  0  0  0  0
 16 15  1  0  0  0  0
 17 16  2  0  0  0  0
 17 18  1  0  0  0  0
 18 19  2  0  0  0  0
 19 14  1  0  0  0  0
 22 18  1  0  0  0  0
 23 22  1  0  0  0  0
M  END
>  <minimizedAffinity>
-5.91019154

>  <minimizedRMSD>
0.207774043

$$$$
