
 OpenBabel03252514023D

 27 29  0  0  1  0  0  0  0  0999 V2000
   35.4070   29.3680   48.8910 C   0  0  2  0  0  0  0  0  0  0  0  0
   34.2490   29.4730   49.7880 C   0  0  0  0  0  0  0  0  0  0  0  0
   34.5730   28.1390   49.3100 C   0  0  1  0  0  0  0  0  0  0  0  0
   35.3680   29.5720   47.8190 H   0  0  0  0  0  0  0  0  0  0  0  0
   34.4770   29.8200   50.8230 H   0  0  0  0  0  0  0  0  0  0  0  0
   33.3200   29.9920   49.4030 H   0  0  0  0  0  0  0  0  0  0  0  0
   35.1900   27.4050   49.8500 H   0  0  0  0  0  0  0  0  0  0  0  0
   36.7920   29.3640   49.5440 C   0  0  0  0  0  0  0  0  0  0  0  0
   37.3220   28.4150   49.3250 H   0  0  0  0  0  0  0  0  0  0  0  0
   36.6420   29.4270   50.6330 H   0  0  0  0  0  0  0  0  0  0  0  0
   38.2090   32.7410   49.4830 C   0  0  0  0  0  0  0  0  0  0  0  0
   38.8310   32.8010   48.2260 C   0  0  0  0  0  0  0  0  0  0  0  0
   38.7520   31.6620   47.4060 C   0  0  0  0  0  0  0  0  0  0  0  0
   38.0710   30.5580   47.8830 N   0  0  0  0  0  0  0  0  0  0  0  0
   37.4990   30.5610   49.0900 C   0  0  0  0  0  0  0  0  0  0  0  0
   37.5740   31.6570   49.8800 N   0  0  0  0  0  0  0  0  0  0  0  0
   38.2610   33.6040   50.1220 H   0  0  0  0  0  0  0  0  0  0  0  0
   39.3380   33.6870   47.9280 H   0  0  0  0  0  0  0  0  0  0  0  0
   39.2190   31.6700   46.4300 H   0  0  0  0  0  0  0  0  0  0  0  0
   33.6390   27.5630   48.2850 C   0  0  0  0  0  0  0  0  0  0  0  0
   33.9180   26.3560   47.9180 O   0  0  0  0  0  0  0  0  0  0  0  0
   32.5430   28.2160   47.7440 O   0  0  0  0  0  0  0  0  0  0  0  0
   32.3890   28.4110   46.3700 C   0  0  0  0  0  3  0  0  0  0  0  0
   31.6040   29.6330   46.0050 C   0  0  0  0  0  2  0  0  0  0  0  0
   32.6510   30.7200   46.1360 C   0  0  0  0  0  2  0  0  0  0  0  0
   33.7920   30.1330   45.3570 C   0  0  0  0  0  2  0  0  0  0  0  0
   33.7410   28.6700   45.7380 C   0  0  0  0  0  2  0  0  0  0  0  0
  1  4  1  6  0  0  0
  1  3  1  0  0  0  0
  1  8  1  0  0  0  0
  1  2  1  0  0  0  0
  2  5  1  0  0  0  0
  3  2  1  0  0  0  0
  3  7  1  1  0  0  0
  6  2  1  0  0  0  0
  8 10  1  0  0  0  0
  9  8  1  0  0  0  0
 11 16  1  0  0  0  0
 11 17  1  0  0  0  0
 12 11  2  0  0  0  0
 13 14  2  0  0  0  0
 13 12  1  0  0  0  0
 14 15  1  0  0  0  0
 15  8  1  0  0  0  0
 15 16  2  0  0  0  0
 18 12  1  0  0  0  0
 19 13  1  0  0  0  0
 20  3  1  0  0  0  0
 21 20  2  0  0  0  0
 22 20  1  0  0  0  0
 23 22  1  0  0  0  0
 24 25  1  0  0  0  0
 24 23  1  0  0  0  0
 26 27  1  0  0  0  0
 26 25  1  0  0  0  0
 27 23  1  0  0  0  0
M  END
>  <minimizedAffinity>
-4.83567715

>  <minimizedRMSD>
1.72785485

$$$$
