
 OpenBabel03252512053D

 34 36  0  0  0  0  0  0  0  0999 V2000
   37.5100   32.2170   49.5240 C   0  0  0  0  0  0  0  0  0  0  0  0
   36.6230   32.8300   49.4400 H   0  0  0  0  0  0  0  0  0  0  0  0
   38.2530   32.8680   50.0900 H   0  0  0  0  0  0  0  0  0  0  0  0
   38.1760   31.9000   48.2140 C   0  0  0  0  0  0  0  0  0  0  0  0
   38.0430   30.6820   47.6140 C   0  0  0  0  0  0  0  0  0  0  0  0
   38.6840   30.3940   46.4250 C   0  0  0  0  0  0  0  0  0  0  0  0
   39.4530   31.3720   45.8740 N   0  0  0  0  0  0  0  0  0  0  0  0
   39.5830   32.5580   46.4560 C   0  0  0  0  0  0  0  0  0  0  0  0
   38.9630   32.8580   47.6210 N   0  0  0  0  0  0  0  0  0  0  0  0
   37.4510   29.8940   48.0030 H   0  0  0  0  0  0  0  0  0  0  0  0
   38.6120   29.4460   45.9120 H   0  0  0  0  0  0  0  0  0  0  0  0
   40.4160   33.6260   45.8380 C   0  0  0  0  0  0  0  0  0  0  0  0
   41.4930   33.4500   45.9900 H   0  0  0  0  0  0  0  0  0  0  0  0
   40.1300   34.6040   46.2820 H   0  0  0  0  0  0  0  0  0  0  0  0
   40.0880   33.7510   44.3450 C   0  0  0  0  0  0  0  0  0  0  0  0
   39.7000   34.7340   44.0720 H   0  0  0  0  0  0  0  0  0  0  0  0
   40.9850   33.4220   43.7920 H   0  0  0  0  0  0  0  0  0  0  0  0
   39.2790   33.0220   44.0930 H   0  0  0  0  0  0  0  0  0  0  0  0
   37.3710   30.9040   50.2260 C   0  0  0  0  0  0  0  0  0  0  0  0
   37.2410   31.1740   51.3270 H   0  0  0  0  0  0  0  0  0  0  0  0
   38.3430   30.3690   50.2360 H   0  0  0  0  0  0  0  0  0  0  0  0
   36.2300   28.7910   49.7530 C   0  0  0  0  0  0  0  0  0  0  0  0
   36.2060   30.1800   49.8340 C   0  0  0  0  0  0  0  0  0  0  0  0
   35.0380   30.8190   49.5430 C   0  0  0  0  0  0  0  0  0  0  0  0
   33.9180   30.1210   49.1820 N   0  0  0  0  0  0  0  0  0  0  0  0
   33.9610   28.7740   49.1090 C   0  0  0  0  0  0  0  0  0  0  0  0
   35.0920   28.1440   49.3890 N   0  0  0  0  0  0  0  0  0  0  0  0
   37.1470   28.2900   49.9810 H   0  0  0  0  0  0  0  0  0  0  0  0
   34.8230   31.8750   49.5430 H   0  0  0  0  0  0  0  0  0  0  0  0
   32.8420   27.9060   48.7390 C   0  0  0  0  0  0  0  0  0  0  0  0
   31.5360   27.8520   49.1140 C   0  0  0  0  0  0  0  0  0  0  0  0
   30.7010   26.9310   48.6070 C   0  0  0  0  0  0  0  0  0  0  0  0
   31.2700   26.0200   47.6560 C   0  0  0  0  0  0  0  0  0  0  0  0
   33.0670   26.6230   47.5850 S   0  0  0  0  0  0  0  0  0  0  0  0
  1  3  1  0  0  0  0
  1 19  1  0  0  0  0
  2  1  1  0  0  0  0
  4  1  1  0  0  0  0
  5 10  1  0  0  0  0
  5  4  2  0  0  0  0
  6  5  1  0  0  0  0
  7  6  2  0  0  0  0
  7  8  1  0  0  0  0
  8  9  2  0  0  0  0
  9  4  1  0  0  0  0
 11  6  1  0  0  0  0
 12 13  1  0  0  0  0
 12 14  1  0  0  0  0
 12  8  1  0  0  0  0
 15 12  1  0  0  0  0
 16 15  1  0  0  0  0
 17 15  1  0  0  0  0
 18 15  1  0  0  0  0
 19 21  1  0  0  0  0
 19 20  1  0  0  0  0
 22 23  1  0  0  0  0
 22 28  1  0  0  0  0
 23 19  1  0  0  0  0
 24 29  1  0  0  0  0
 24 23  2  0  0  0  0
 25 24  1  0  0  0  0
 26 25  2  0  0  0  0
 26 27  1  0  0  0  0
 27 22  2  0  0  0  0
 30 26  1  0  0  0  0
 30 31  2  0  0  0  0
 32 31  1  0  0  0  0
 33 32  2  0  0  0  0
 34 33  1  0  0  0  0
 34 30  1  0  0  0  0
M  END
>  <minimizedAffinity>
-5.33087301

>  <minimizedRMSD>
1.76674283

$$$$
