
 OpenBabel03252514013D

 27 29  0  0  1  0  0  0  0  0999 V2000
   35.4510   29.5090   49.1420 C   0  0  2  0  0  0  0  0  0  0  0  0
   34.4920   29.4870   50.2540 C   0  0  0  0  0  0  0  0  0  0  0  0
   34.6850   28.2320   49.5470 C   0  0  1  0  0  0  0  0  0  0  0  0
   35.2090   29.8580   48.1360 H   0  0  0  0  0  0  0  0  0  0  0  0
   34.9250   29.6890   51.2620 H   0  0  0  0  0  0  0  0  0  0  0  0
   33.5190   30.0510   50.1330 H   0  0  0  0  0  0  0  0  0  0  0  0
   35.3770   27.4330   49.8500 H   0  0  0  0  0  0  0  0  0  0  0  0
   36.9360   29.4190   49.5040 C   0  0  0  0  0  0  0  0  0  0  0  0
   37.3830   28.4970   49.0820 H   0  0  0  0  0  0  0  0  0  0  0  0
   37.0040   29.3600   50.6020 H   0  0  0  0  0  0  0  0  0  0  0  0
   38.0830   32.8970   49.4100 C   0  0  0  0  0  0  0  0  0  0  0  0
   38.7850   32.9650   48.1970 C   0  0  0  0  0  0  0  0  0  0  0  0
   38.8550   31.7980   47.4180 C   0  0  0  0  0  0  0  0  0  0  0  0
   38.2310   30.6580   47.8890 N   0  0  0  0  0  0  0  0  0  0  0  0
   37.5770   30.6550   49.0530 C   0  0  0  0  0  0  0  0  0  0  0  0
   37.5090   31.7780   49.8050 N   0  0  0  0  0  0  0  0  0  0  0  0
   38.0210   33.7820   50.0180 H   0  0  0  0  0  0  0  0  0  0  0  0
   39.2410   33.8800   47.9000 H   0  0  0  0  0  0  0  0  0  0  0  0
   39.3880   31.8120   46.4750 H   0  0  0  0  0  0  0  0  0  0  0  0
   33.5560   27.7990   48.6560 C   0  0  0  0  0  0  0  0  0  0  0  0
   33.9050   27.0360   47.6740 O   0  0  0  0  0  0  0  0  0  0  0  0
   32.2250   28.1470   48.8260 O   0  0  0  0  0  0  0  0  0  0  0  0
   31.1800   27.3930   48.2880 C   0  0  0  0  0  3  0  0  0  0  0  0
   30.1290   26.9990   49.2810 C   0  0  0  0  0  2  0  0  0  0  0  0
   29.2980   28.2630   49.3630 C   0  0  0  0  0  2  0  0  0  0  0  0
   29.0760   28.5700   47.9110 C   0  0  0  0  0  2  0  0  0  0  0  0
   30.4100   28.2290   47.2870 C   0  0  0  0  0  2  0  0  0  0  0  0
  1  4  1  6  0  0  0
  1  8  1  0  0  0  0
  1  3  1  0  0  0  0
  1  2  1  0  0  0  0
  2  5  1  0  0  0  0
  3  7  1  1  0  0  0
  3  2  1  0  0  0  0
  6  2  1  0  0  0  0
  8 10  1  0  0  0  0
  9  8  1  0  0  0  0
 11 16  1  0  0  0  0
 11 17  1  0  0  0  0
 12 11  2  0  0  0  0
 13 14  2  0  0  0  0
 13 12  1  0  0  0  0
 14 15  1  0  0  0  0
 15  8  1  0  0  0  0
 15 16  2  0  0  0  0
 18 12  1  0  0  0  0
 19 13  1  0  0  0  0
 20 22  1  0  0  0  0
 20  3  1  0  0  0  0
 21 20  2  0  0  0  0
 23 22  1  0  0  0  0
 23 24  1  0  0  0  0
 24 25  1  0  0  0  0
 26 25  1  0  0  0  0
 27 26  1  0  0  0  0
 27 23  1  0  0  0  0
M  END
>  <minimizedAffinity>
-5.20721769

>  <minimizedRMSD>
0.8948735

$$$$
