
 OpenBabel03252510083D

 32 34  0  0  0  0  0  0  0  0999 V2000
   39.2300   32.3560   46.1360 C   0  0  0  0  0  0  0  0  0  0  0  0
   37.6930   32.5800   49.5980 C   0  0  0  0  0  0  0  0  0  0  0  0
   38.5370   32.8630   48.5220 C   0  0  0  0  0  0  0  0  0  0  0  0
   38.4020   32.1540   47.3400 C   0  0  0  0  0  0  0  0  0  0  0  0
   37.4180   31.1910   47.2990 N   0  0  0  0  0  0  0  0  0  0  0  0
   36.6080   30.9260   48.3430 C   0  0  0  0  0  0  0  0  0  0  0  0
   36.7400   31.6170   49.4930 N   0  0  0  0  0  0  0  0  0  0  0  0
   37.8690   33.1820   50.4810 H   0  0  0  0  0  0  0  0  0  0  0  0
   39.3150   33.6030   48.5150 H   0  0  0  0  0  0  0  0  0  0  0  0
   35.8600   30.1530   48.2270 H   0  0  0  0  0  0  0  0  0  0  0  0
   40.1030   31.0940   45.9920 C   0  0  0  0  0  0  0  0  0  0  0  0
   39.4630   30.2590   45.6200 H   0  0  0  0  0  0  0  0  0  0  0  0
   40.5350   30.7930   46.9580 H   0  0  0  0  0  0  0  0  0  0  0  0
   40.8350   31.2780   45.1970 H   0  0  0  0  0  0  0  0  0  0  0  0
   40.0970   33.5520   46.1910 C   0  0  0  0  0  0  0  0  0  0  0  0
   40.7260   33.6020   47.0890 H   0  0  0  0  0  0  0  0  0  0  0  0
   40.6740   33.6030   45.2460 H   0  0  0  0  0  0  0  0  0  0  0  0
   39.4320   34.4560   46.2070 H   0  0  0  0  0  0  0  0  0  0  0  0
   38.3270   32.4230   44.9530 C   0  0  0  0  0  0  0  0  0  0  0  0
   37.3160   32.0430   45.2050 H   0  0  0  0  0  0  0  0  0  0  0  0
   38.1510   33.5170   44.7400 H   0  0  0  0  0  0  0  0  0  0  0  0
   38.8760   31.7520   43.7310 C   0  0  0  0  0  0  0  0  0  0  0  0
   39.4900   32.5520   42.7050 C   0  0  0  0  0  0  0  0  0  0  0  0
   39.9520   31.2400   41.5130 S   0  0  0  0  0  0  0  0  0  0  0  0
   39.2390   29.8710   42.6090 C   0  0  0  0  0  0  0  0  0  0  0  0
   38.8550   30.4610   43.4890 N   0  0  0  0  0  0  0  0  0  0  0  0
   39.6100   33.5880   42.6960 H   0  0  0  0  0  0  0  0  0  0  0  0
   39.3510   28.5160   42.0910 C   0  0  0  0  0  0  0  0  0  0  0  0
   39.0190   27.3030   42.5270 C   0  0  0  0  0  0  0  0  0  0  0  0
   39.2590   26.1980   41.7980 C   0  0  0  0  0  0  0  0  0  0  0  0
   39.9100   26.4580   40.5000 C   0  0  0  0  0  0  0  0  0  0  0  0
   40.0860   28.3460   40.5280 S   0  0  0  0  0  0  0  0  0  0  0  0
  1 15  1  0  0  0  0
  1  4  1  0  0  0  0
  2  8  1  0  0  0  0
  3  2  2  0  0  0  0
  4  3  1  0  0  0  0
  5  4  2  0  0  0  0
  5  6  1  0  0  0  0
  6  7  2  0  0  0  0
  7  2  1  0  0  0  0
  9  3  1  0  0  0  0
 10  6  1  0  0  0  0
 11  1  1  0  0  0  0
 11 13  1  0  0  0  0
 12 11  1  0  0  0  0
 14 11  1  0  0  0  0
 15 18  1  0  0  0  0
 15 16  1  0  0  0  0
 17 15  1  0  0  0  0
 19 20  1  0  0  0  0
 19  1  1  0  0  0  0
 21 19  1  0  0  0  0
 22 19  1  0  0  0  0
 23 22  2  0  0  0  0
 24 25  1  0  0  0  0
 24 23  1  0  0  0  0
 25 26  2  0  0  0  0
 26 22  1  0  0  0  0
 27 23  1  0  0  0  0
 28 29  2  0  0  0  0
 28 25  1  0  0  0  0
 30 29  1  0  0  0  0
 31 32  1  0  0  0  0
 31 30  2  0  0  0  0
 32 28  1  0  0  0  0
M  END
>  <minimizedAffinity>
-4.95853329

>  <minimizedRMSD>
0.681163907

$$$$
