
 OpenBabel03252514043D

 34 37  0  0  1  0  0  0  0  0999 V2000
   35.2460   29.2120   48.6700 C   0  0  2  0  0  0  0  0  0  0  0  0
   34.0360   29.1650   49.4830 C   0  0  0  0  0  0  0  0  0  0  0  0
   34.4810   27.8870   49.0000 C   0  0  1  0  0  0  0  0  0  0  0  0
   35.2970   29.5170   47.6280 H   0  0  0  0  0  0  0  0  0  0  0  0
   34.1570   29.4010   50.5820 H   0  0  0  0  0  0  0  0  0  0  0  0
   33.1260   29.6700   49.0640 H   0  0  0  0  0  0  0  0  0  0  0  0
   35.1050   27.1490   49.5000 H   0  0  0  0  0  0  0  0  0  0  0  0
   36.5800   29.2570   49.4330 C   0  0  0  0  0  0  0  0  0  0  0  0
   37.1670   28.3540   49.2320 H   0  0  0  0  0  0  0  0  0  0  0  0
   36.3650   29.2520   50.5190 H   0  0  0  0  0  0  0  0  0  0  0  0
   37.6650   32.7460   49.5530 C   0  0  0  0  0  0  0  0  0  0  0  0
   38.5100   32.8420   48.4360 C   0  0  0  0  0  0  0  0  0  0  0  0
   38.6950   31.6840   47.6470 C   0  0  0  0  0  0  0  0  0  0  0  0
   38.0430   30.5360   48.0150 N   0  0  0  0  0  0  0  0  0  0  0  0
   37.2420   30.5080   49.1030 C   0  0  0  0  0  0  0  0  0  0  0  0
   37.0630   31.6150   49.8590 N   0  0  0  0  0  0  0  0  0  0  0  0
   37.5980   33.6880   50.0820 H   0  0  0  0  0  0  0  0  0  0  0  0
   39.0550   33.7110   48.0880 H   0  0  0  0  0  0  0  0  0  0  0  0
   39.3090   31.6190   46.7740 H   0  0  0  0  0  0  0  0  0  0  0  0
   33.6560   27.3080   47.8650 C   0  0  0  0  0  0  0  0  0  0  0  0
   34.0810   26.1480   47.4790 O   0  0  0  0  0  0  0  0  0  0  0  0
   32.5470   27.8900   47.2570 O   0  0  0  0  0  0  0  0  0  0  0  0
   31.3030   27.9210   47.8230 C   0  0  0  0  0  0  0  0  0  0  0  0
   30.9010   27.1770   49.0380 C   0  0  0  0  0  0  0  0  0  0  0  0
   29.6320   27.3080   49.4800 C   0  0  0  0  0  0  0  0  0  0  0  0
   28.7070   28.1310   48.8090 C   0  0  0  0  0  0  0  0  0  0  0  0
   29.6890   28.8100   47.3990 S   0  0  0  0  0  0  0  0  0  0  0  0
   31.6330   26.5720   49.5050 H   0  0  0  0  0  0  0  0  0  0  0  0
   29.2350   26.8150   50.3490 H   0  0  0  0  0  0  0  0  0  0  0  0
   27.3670   28.4650   49.0120 C   0  0  0  0  0  0  0  0  0  0  0  0
   26.5710   29.1020   48.1350 C   0  0  0  0  0  3  0  0  0  0  0  0
   25.2690   29.3730   48.4530 C   0  0  0  0  0  3  0  0  0  0  0  0
   24.8440   28.9260   49.7710 C   0  0  0  0  0  3  0  0  0  0  0  0
   26.4440   28.1380   50.4170 S   0  0  0  0  0  0  0  0  0  0  0  0
  1  4  1  6  0  0  0
  1  3  1  0  0  0  0
  1  8  1  0  0  0  0
  1  2  1  0  0  0  0
  2  5  1  0  0  0  0
  3  2  1  0  0  0  0
  3  7  1  1  0  0  0
  6  2  1  0  0  0  0
  8 10  1  0  0  0  0
  9  8  1  0  0  0  0
 11 16  1  0  0  0  0
 11 17  1  0  0  0  0
 12 11  2  0  0  0  0
 13 14  2  0  0  0  0
 13 12  1  0  0  0  0
 14 15  1  0  0  0  0
 15  8  1  0  0  0  0
 15 16  2  0  0  0  0
 18 12  1  0  0  0  0
 19 13  1  0  0  0  0
 20  3  1  0  0  0  0
 21 20  2  0  0  0  0
 22 23  1  0  0  0  0
 22 20  1  0  0  0  0
 23 24  2  0  0  0  0
 24 25  1  0  0  0  0
 24 28  1  0  0  0  0
 25 29  1  0  0  0  0
 26 30  1  0  0  0  0
 26 25  2  0  0  0  0
 27 23  1  0  0  0  0
 27 26  1  0  0  0  0
 30 34  1  0  0  0  0
 31 32  1  0  0  0  0
 31 30  2  0  0  0  0
 32 33  2  0  0  0  0
 33 34  1  0  0  0  0
M  END
>  <minimizedAffinity>
-5.895154

>  <minimizedRMSD>
1.55221796

$$$$
