
 OpenBabel03252514023D

 27 29  0  0  1  0  0  0  0  0999 V2000
   35.3700   29.4120   49.0820 C   0  0  2  0  0  0  0  0  0  0  0  0
   34.2710   29.3380   50.0530 C   0  0  0  0  0  0  0  0  0  0  0  0
   34.6030   28.1030   49.3620 C   0  0  1  0  0  0  0  0  0  0  0  0
   35.2540   29.7710   48.0570 H   0  0  0  0  0  0  0  0  0  0  0  0
   34.5560   29.5370   51.1130 H   0  0  0  0  0  0  0  0  0  0  0  0
   33.3040   29.8710   49.8080 H   0  0  0  0  0  0  0  0  0  0  0  0
   35.2760   27.3220   49.7470 H   0  0  0  0  0  0  0  0  0  0  0  0
   36.7950   29.3670   49.6410 C   0  0  0  0  0  0  0  0  0  0  0  0
   37.2710   28.3930   49.4110 H   0  0  0  0  0  0  0  0  0  0  0  0
   36.7210   29.4610   50.7360 H   0  0  0  0  0  0  0  0  0  0  0  0
   38.3520   32.6740   49.4060 C   0  0  0  0  0  0  0  0  0  0  0  0
   38.8710   32.6870   48.1020 C   0  0  0  0  0  0  0  0  0  0  0  0
   38.6760   31.5420   47.3120 C   0  0  0  0  0  0  0  0  0  0  0  0
   37.9860   30.4770   47.8610 N   0  0  0  0  0  0  0  0  0  0  0  0
   37.5160   30.5240   49.1100 C   0  0  0  0  0  0  0  0  0  0  0  0
   37.7030   31.6260   49.8730 N   0  0  0  0  0  0  0  0  0  0  0  0
   38.4940   33.5430   50.0240 H   0  0  0  0  0  0  0  0  0  0  0  0
   39.3920   33.5450   47.7480 H   0  0  0  0  0  0  0  0  0  0  0  0
   39.0620   31.5150   46.3010 H   0  0  0  0  0  0  0  0  0  0  0  0
   33.6210   27.6480   48.3210 C   0  0  0  0  0  0  0  0  0  0  0  0
   34.0730   27.6600   47.1110 O   0  0  0  0  0  0  0  0  0  0  0  0
   32.3250   27.2260   48.5730 O   0  0  0  0  0  0  0  0  0  0  0  0
   31.2290   28.0880   48.4980 C   0  0  0  0  0  3  0  0  0  0  0  0
   30.4080   27.9330   47.2530 C   0  0  0  0  0  2  0  0  0  0  0  0
   29.5560   26.7280   47.5970 C   0  0  0  0  0  2  0  0  0  0  0  0
   29.0430   27.1030   48.9570 C   0  0  0  0  0  2  0  0  0  0  0  0
   30.2450   27.7590   49.6010 C   0  0  0  0  0  2  0  0  0  0  0  0
  1  4  1  6  0  0  0
  1  3  1  0  0  0  0
  1  8  1  0  0  0  0
  1  2  1  0  0  0  0
  2  5  1  0  0  0  0
  3  7  1  1  0  0  0
  3  2  1  0  0  0  0
  6  2  1  0  0  0  0
  8 10  1  0  0  0  0
  9  8  1  0  0  0  0
 11 16  1  0  0  0  0
 11 17  1  0  0  0  0
 12 11  2  0  0  0  0
 13 14  2  0  0  0  0
 13 12  1  0  0  0  0
 14 15  1  0  0  0  0
 15  8  1  0  0  0  0
 15 16  2  0  0  0  0
 18 12  1  0  0  0  0
 19 13  1  0  0  0  0
 20 22  1  0  0  0  0
 20  3  1  0  0  0  0
 21 20  2  0  0  0  0
 23 22  1  0  0  0  0
 23 27  1  0  0  0  0
 24 25  1  0  0  0  0
 24 23  1  0  0  0  0
 25 26  1  0  0  0  0
 26 27  1  0  0  0  0
M  END
>  <minimizedAffinity>
-5.01400709

>  <minimizedRMSD>
1.19730043

$$$$
