
 OpenBabel03252514023D

 27 29  0  0  1  0  0  0  0  0999 V2000
   35.2340   29.4810   49.0880 C   0  0  2  0  0  0  0  0  0  0  0  0
   34.1030   29.3140   50.0100 C   0  0  0  0  0  0  0  0  0  0  0  0
   34.5130   28.1290   49.2740 C   0  0  1  0  0  0  0  0  0  0  0  0
   35.1420   29.8860   48.0780 H   0  0  0  0  0  0  0  0  0  0  0  0
   34.3400   29.4720   51.0880 H   0  0  0  0  0  0  0  0  0  0  0  0
   33.1250   29.8190   49.7520 H   0  0  0  0  0  0  0  0  0  0  0  0
   35.2030   27.3590   49.6470 H   0  0  0  0  0  0  0  0  0  0  0  0
   36.6380   29.4650   49.7000 C   0  0  0  0  0  0  0  0  0  0  0  0
   37.1440   28.5030   49.4860 H   0  0  0  0  0  0  0  0  0  0  0  0
   36.5200   29.5540   50.7920 H   0  0  0  0  0  0  0  0  0  0  0  0
   37.9330   32.8810   49.4280 C   0  0  0  0  0  0  0  0  0  0  0  0
   38.6990   32.8360   48.2530 C   0  0  0  0  0  0  0  0  0  0  0  0
   38.7590   31.6140   47.5620 C   0  0  0  0  0  0  0  0  0  0  0  0
   38.0640   30.5360   48.0760 N   0  0  0  0  0  0  0  0  0  0  0  0
   37.3520   30.6400   49.2010 C   0  0  0  0  0  0  0  0  0  0  0  0
   37.2920   31.8160   49.8680 N   0  0  0  0  0  0  0  0  0  0  0  0
   37.8770   33.8090   49.9690 H   0  0  0  0  0  0  0  0  0  0  0  0
   39.2070   33.7090   47.9190 H   0  0  0  0  0  0  0  0  0  0  0  0
   39.3400   31.5410   46.6510 H   0  0  0  0  0  0  0  0  0  0  0  0
   33.5910   27.6880   48.1740 C   0  0  0  0  0  0  0  0  0  0  0  0
   34.0120   26.6750   47.4910 O   0  0  0  0  0  0  0  0  0  0  0  0
   32.3700   28.2700   47.8710 O   0  0  0  0  0  0  0  0  0  0  0  0
   31.2070   27.5190   47.6890 C   0  0  0  0  0  3  0  0  0  0  0  0
   30.7690   26.7600   48.9050 C   0  0  0  0  0  2  0  0  0  0  0  0
   30.0580   27.8380   49.6980 C   0  0  0  0  0  2  0  0  0  0  0  0
   29.1630   28.4370   48.6540 C   0  0  0  0  0  2  0  0  0  0  0  0
   30.0390   28.4440   47.4220 C   0  0  0  0  0  2  0  0  0  0  0  0
  1  4  1  6  0  0  0
  1  3  1  0  0  0  0
  1  8  1  0  0  0  0
  1  2  1  0  0  0  0
  2  5  1  0  0  0  0
  3  7  1  1  0  0  0
  3  2  1  0  0  0  0
  6  2  1  0  0  0  0
  8 10  1  0  0  0  0
  9  8  1  0  0  0  0
 11 16  1  0  0  0  0
 11 17  1  0  0  0  0
 12 11  2  0  0  0  0
 13 14  2  0  0  0  0
 13 12  1  0  0  0  0
 14 15  1  0  0  0  0
 15  8  1  0  0  0  0
 15 16  2  0  0  0  0
 18 12  1  0  0  0  0
 19 13  1  0  0  0  0
 20  3  1  0  0  0  0
 21 20  2  0  0  0  0
 22 20  1  0  0  0  0
 23 22  1  0  0  0  0
 23 24  1  0  0  0  0
 24 25  1  0  0  0  0
 26 25  1  0  0  0  0
 27 23  1  0  0  0  0
 27 26  1  0  0  0  0
M  END
>  <minimizedAffinity>
-5.21778917

>  <minimizedRMSD>
0.566615939

$$$$
