
 OpenBabel03252514013D

 27 29  0  0  1  0  0  0  0  0999 V2000
   35.4480   29.5070   49.1380 C   0  0  2  0  0  0  0  0  0  0  0  0
   34.4830   29.4880   50.2450 C   0  0  0  0  0  0  0  0  0  0  0  0
   34.6800   28.2310   49.5430 C   0  0  1  0  0  0  0  0  0  0  0  0
   35.2120   29.8530   48.1300 H   0  0  0  0  0  0  0  0  0  0  0  0
   34.9100   29.6950   51.2540 H   0  0  0  0  0  0  0  0  0  0  0  0
   33.5110   30.0520   50.1160 H   0  0  0  0  0  0  0  0  0  0  0  0
   35.3710   27.4330   49.8530 H   0  0  0  0  0  0  0  0  0  0  0  0
   36.9310   29.4190   49.5090 C   0  0  0  0  0  0  0  0  0  0  0  0
   37.3810   28.4960   49.0930 H   0  0  0  0  0  0  0  0  0  0  0  0
   36.9920   29.3640   50.6080 H   0  0  0  0  0  0  0  0  0  0  0  0
   38.0860   32.8940   49.4110 C   0  0  0  0  0  0  0  0  0  0  0  0
   38.7870   32.9600   48.1970 C   0  0  0  0  0  0  0  0  0  0  0  0
   38.8530   31.7920   47.4190 C   0  0  0  0  0  0  0  0  0  0  0  0
   38.2270   30.6540   47.8920 N   0  0  0  0  0  0  0  0  0  0  0  0
   37.5740   30.6530   49.0570 C   0  0  0  0  0  0  0  0  0  0  0  0
   37.5100   31.7760   49.8080 N   0  0  0  0  0  0  0  0  0  0  0  0
   38.0270   33.7790   50.0190 H   0  0  0  0  0  0  0  0  0  0  0  0
   39.2440   33.8740   47.8990 H   0  0  0  0  0  0  0  0  0  0  0  0
   39.3840   31.8040   46.4760 H   0  0  0  0  0  0  0  0  0  0  0  0
   33.5560   27.7950   48.6470 C   0  0  0  0  0  0  0  0  0  0  0  0
   33.9070   27.0070   47.6850 O   0  0  0  0  0  0  0  0  0  0  0  0
   32.2280   28.1620   48.7930 O   0  0  0  0  0  0  0  0  0  0  0  0
   31.1790   27.4020   48.2740 C   0  0  0  0  0  3  0  0  0  0  0  0
   30.1500   26.9980   49.2850 C   0  0  0  0  0  2  0  0  0  0  0  0
   29.3100   28.2560   49.3850 C   0  0  0  0  0  2  0  0  0  0  0  0
   29.0600   28.5640   47.9380 C   0  0  0  0  0  2  0  0  0  0  0  0
   30.3850   28.2330   47.2890 C   0  0  0  0  0  2  0  0  0  0  0  0
  1  4  1  6  0  0  0
  1  8  1  0  0  0  0
  1  3  1  0  0  0  0
  1  2  1  0  0  0  0
  2  5  1  0  0  0  0
  3  7  1  1  0  0  0
  3  2  1  0  0  0  0
  6  2  1  0  0  0  0
  8 10  1  0  0  0  0
  9  8  1  0  0  0  0
 11 16  1  0  0  0  0
 11 17  1  0  0  0  0
 12 11  2  0  0  0  0
 13 14  2  0  0  0  0
 13 12  1  0  0  0  0
 14 15  1  0  0  0  0
 15  8  1  0  0  0  0
 15 16  2  0  0  0  0
 18 12  1  0  0  0  0
 19 13  1  0  0  0  0
 20 22  1  0  0  0  0
 20  3  1  0  0  0  0
 21 20  2  0  0  0  0
 23 22  1  0  0  0  0
 23 24  1  0  0  0  0
 24 25  1  0  0  0  0
 26 25  1  0  0  0  0
 27 26  1  0  0  0  0
 27 23  1  0  0  0  0
M  END
>  <minimizedAffinity>
-5.20369148

>  <minimizedRMSD>
1.07871819

$$$$
