
 OpenBabel03252512053D

 36 38  0  0  0  0  0  0  0  0999 V2000
   37.5140   32.2170   49.5030 C   0  0  0  0  0  0  0  0  0  0  0  0
   36.6220   32.8190   49.4120 H   0  0  0  0  0  0  0  0  0  0  0  0
   38.2840   32.8700   50.0240 H   0  0  0  0  0  0  0  0  0  0  0  0
   38.1810   31.8840   48.1960 C   0  0  0  0  0  0  0  0  0  0  0  0
   38.0410   30.6640   47.6030 C   0  0  0  0  0  0  0  0  0  0  0  0
   38.6820   30.3960   46.4130 C   0  0  0  0  0  0  0  0  0  0  0  0
   39.4440   31.3660   45.8580 N   0  0  0  0  0  0  0  0  0  0  0  0
   39.5820   32.5610   46.4360 C   0  0  0  0  0  0  0  0  0  0  0  0
   38.9640   32.8380   47.5940 N   0  0  0  0  0  0  0  0  0  0  0  0
   37.4480   29.8880   48.0140 H   0  0  0  0  0  0  0  0  0  0  0  0
   38.5800   29.4390   45.9390 H   0  0  0  0  0  0  0  0  0  0  0  0
   40.4240   33.6180   45.8130 C   0  0  0  0  0  0  0  0  0  0  0  0
   41.5000   33.4520   45.9720 H   0  0  0  0  0  0  0  0  0  0  0  0
   40.2000   34.6070   46.3100 H   0  0  0  0  0  0  0  0  0  0  0  0
   40.0880   33.7510   44.3240 C   0  0  0  0  0  0  0  0  0  0  0  0
   39.6710   34.7560   44.1050 H   0  0  0  0  0  0  0  0  0  0  0  0
   40.9810   33.5190   43.7000 H   0  0  0  0  0  0  0  0  0  0  0  0
   39.2820   33.0330   44.0390 H   0  0  0  0  0  0  0  0  0  0  0  0
   37.3880   30.9140   50.2280 C   0  0  0  0  0  0  0  0  0  0  0  0
   38.3740   30.3800   50.2310 H   0  0  0  0  0  0  0  0  0  0  0  0
   37.2810   31.2080   51.3220 H   0  0  0  0  0  0  0  0  0  0  0  0
   36.2410   28.7930   49.8070 C   0  0  0  0  0  0  0  0  0  0  0  0
   36.2310   30.1800   49.8710 C   0  0  0  0  0  0  0  0  0  0  0  0
   35.0540   30.8040   49.5890 C   0  0  0  0  0  0  0  0  0  0  0  0
   33.9260   30.0940   49.2580 N   0  0  0  0  0  0  0  0  0  0  0  0
   33.9700   28.7480   49.2070 C   0  0  0  0  0  0  0  0  0  0  0  0
   35.1080   28.1280   49.4770 N   0  0  0  0  0  0  0  0  0  0  0  0
   37.1350   28.2180   50.0170 H   0  0  0  0  0  0  0  0  0  0  0  0
   34.8240   31.8560   49.5710 H   0  0  0  0  0  0  0  0  0  0  0  0
   32.7950   27.9550   48.8600 C   0  0  0  0  0  0  0  0  0  0  0  0
   32.9000   26.9310   47.9300 C   0  0  0  0  0  0  0  0  0  0  0  0
   31.8470   26.1080   47.5210 C   0  0  0  0  0  0  0  0  0  0  0  0
   30.6710   26.3940   48.1210 N   0  0  0  0  0  0  0  0  0  0  0  0
   30.5370   27.3750   49.0210 C   0  0  0  0  0  0  0  0  0  0  0  0
   29.5320   27.5100   49.4380 H   0  0  0  0  0  0  0  0  0  0  0  0
   31.5740   28.1550   49.3970 N   0  0  0  0  0  0  0  0  0  0  0  0
  1  3  1  0  0  0  0
  1 19  1  0  0  0  0
  2  1  1  0  0  0  0
  4  1  1  0  0  0  0
  5 10  1  0  0  0  0
  5  4  1  0  0  0  0
  6  5  2  0  0  0  0
  7  6  1  0  0  0  0
  7  8  2  0  0  0  0
  8  9  1  0  0  0  0
  9  4  2  0  0  0  0
 11  6  1  0  0  0  0
 12 13  1  0  0  0  0
 12 14  1  0  0  0  0
 12  8  1  0  0  0  0
 15 12  1  0  0  0  0
 16 15  1  0  0  0  0
 17 15  1  0  0  0  0
 18 15  1  0  0  0  0
 19 20  1  0  0  0  0
 19 21  1  0  0  0  0
 22 23  1  0  0  0  0
 22 28  1  0  0  0  0
 23 19  1  0  0  0  0
 24 23  2  0  0  0  0
 25 24  1  0  0  0  0
 26 25  2  0  0  0  0
 26 27  1  0  0  0  0
 27 22  2  0  0  0  0
 29 24  1  0  0  0  0
 30 26  1  0  0  0  0
 30 36  1  0  0  0  0
 31 30  2  0  0  0  0
 32 31  1  0  0  0  0
 32 33  2  0  0  0  0
 33 34  1  0  0  0  0
 34 36  2  0  0  0  0
 34 35  1  0  0  0  0
M  END
>  <minimizedAffinity>
-5.38180828

>  <minimizedRMSD>
1.74499583

$$$$
