
 OpenBabel03252512213D

 23 25  0  0  0  0  0  0  0  0999 V2000
   35.3190   29.6320   48.5750 C   0  0  0  0  0  0  0  0  0  0  0  0
   34.9660   28.4780   49.3230 C   0  0  0  0  0  0  0  0  0  0  0  0
   33.8230   27.8650   48.9010 C   0  0  0  0  0  0  0  0  0  0  0  0
   33.1170   28.3390   47.8670 C   0  0  0  0  0  0  0  0  0  0  0  0
   34.0230   29.7840   47.3310 S   0  0  0  0  0  0  0  0  0  0  0  0
   35.5960   28.1670   50.1430 H   0  0  0  0  0  0  0  0  0  0  0  0
   33.4650   26.9580   49.4190 H   0  0  0  0  0  0  0  0  0  0  0  0
   38.2350   31.1880   50.2420 C   0  0  0  0  0  0  0  0  0  0  0  0
   38.7300   32.0420   49.2230 C   0  0  0  0  0  0  0  0  0  0  0  0
   38.0520   32.0620   48.0000 C   0  0  0  0  0  0  0  0  0  0  0  0
   36.9490   31.2660   47.8310 N   0  0  0  0  0  0  0  0  0  0  0  0
   36.5200   30.4700   48.8340 C   0  0  0  0  0  0  0  0  0  0  0  0
   37.1420   30.4170   50.0360 N   0  0  0  0  0  0  0  0  0  0  0  0
   38.7400   31.1590   51.1870 H   0  0  0  0  0  0  0  0  0  0  0  0
   39.5980   32.6580   49.3800 H   0  0  0  0  0  0  0  0  0  0  0  0
   38.3830   32.6940   47.1840 H   0  0  0  0  0  0  0  0  0  0  0  0
   31.8900   27.8350   47.2760 C   0  0  0  0  0  0  0  0  0  0  0  0
   30.9380   28.6400   46.6540 C   0  0  0  0  0  0  0  0  0  0  0  0
   29.8050   28.0490   46.1250 C   0  0  0  0  0  0  0  0  0  0  0  0
   29.6230   26.7140   46.2070 N   0  0  0  0  0  0  0  0  0  0  0  0
   30.5480   25.9540   46.8080 C   0  0  0  0  0  0  0  0  0  0  0  0
   30.4280   24.8810   46.8890 H   0  0  0  0  0  0  0  0  0  0  0  0
   31.6720   26.5100   47.3370 N   0  0  0  0  0  0  0  0  0  0  0  0
  1 12  1  0  0  0  0
  1  2  2  0  0  0  0
  2  6  1  0  0  0  0
  3  2  1  0  0  0  0
  3  7  1  0  0  0  0
  4  3  2  0  0  0  0
  5  4  1  0  0  0  0
  5  1  1  0  0  0  0
  8 14  1  0  0  0  0
  9 15  1  0  0  0  0
  9  8  2  0  0  0  0
 10  9  1  0  0  0  0
 11 10  2  0  0  0  0
 11 12  1  0  0  0  0
 12 13  2  0  0  0  0
 13  8  1  0  0  0  0
 16 10  1  0  0  0  0
 17 23  1  0  0  0  0
 17  4  1  0  0  0  0
 18 17  2  0  0  0  0
 19 20  2  0  0  0  0
 19 18  1  0  0  0  0
 20 21  1  0  0  0  0
 21 22  1  0  0  0  0
 21 23  2  0  0  0  0
M  END
>  <minimizedAffinity>
-4.49862671

>  <minimizedRMSD>
1.13149965

$$$$
