
 OpenBabel03252513533D

 41 43  0  0  1  0  0  0  0  0999 V2000
   36.8960   30.5080   45.9640 C   0  0  0  0  0  0  0  0  0  0  0  0
   37.8340   30.3280   46.7790 O   0  0  0  0  0  0  0  0  0  0  0  0
   37.2450   31.2630   44.7980 N   0  0  0  0  0  0  0  0  0  0  0  0
   36.7750   30.7510   43.5330 C   0  0  0  0  0  0  0  0  0  0  0  0
   37.5290   31.3640   42.3730 C   0  0  0  0  0  0  0  0  0  0  0  0
   38.8300   31.5720   42.8000 O   0  0  0  0  0  0  0  0  0  0  0  0
   38.7960   32.7280   43.5950 C   0  0  0  0  0  0  0  0  0  0  0  0
   38.0360   32.4880   44.8770 C   0  0  2  0  0  0  0  0  0  0  0  0
   37.0150   29.6550   43.5210 H   0  0  0  0  0  0  0  0  0  0  0  0
   35.6760   30.8330   43.4330 H   0  0  0  0  0  0  0  0  0  0  0  0
   37.0340   32.2980   42.0120 H   0  0  0  0  0  0  0  0  0  0  0  0
   37.4920   30.6310   41.5250 H   0  0  0  0  0  0  0  0  0  0  0  0
   39.8220   33.1000   43.7690 H   0  0  0  0  0  0  0  0  0  0  0  0
   38.2420   33.5500   43.0620 H   0  0  0  0  0  0  0  0  0  0  0  0
   37.3980   33.3190   45.1700 H   0  0  0  0  0  0  0  0  0  0  0  0
   33.8850   29.1600   47.7800 C   0  0  0  0  0  0  0  0  0  0  0  0
   35.1980   29.6940   47.5500 C   0  0  0  0  0  0  0  0  0  0  0  0
   35.5730   29.9650   46.2370 C   0  0  0  0  0  0  0  0  0  0  0  0
   34.6610   29.7000   45.2670 N   0  0  0  0  0  0  0  0  0  0  0  0
   33.4540   29.2040   45.5250 C   0  0  0  0  0  0  0  0  0  0  0  0
   33.0720   28.9400   46.7550 N   0  0  0  0  0  0  0  0  0  0  0  0
   35.8540   29.8710   48.4000 H   0  0  0  0  0  0  0  0  0  0  0  0
   32.5940   28.9820   44.3190 C   0  0  0  0  0  0  0  0  0  0  0  0
   32.5130   30.1580   43.5630 F   0  0  0  0  0  0  0  0  0  0  0  0
   33.1830   28.0570   43.4870 F   0  0  0  0  0  0  0  0  0  0  0  0
   31.3340   28.5040   44.6520 F   0  0  0  0  0  0  0  0  0  0  0  0
   33.5320   28.8980   49.1000 O   0  0  0  0  0  0  0  0  0  0  0  0
   34.0390   29.5740   50.2020 C   0  0  0  0  0  0  0  0  0  0  0  0
   35.0280   28.8820   50.8610 F   0  0  0  0  0  0  0  0  0  0  0  0
   34.4250   30.8730   49.9540 F   0  0  0  0  0  0  0  0  0  0  0  0
   32.9520   29.6730   51.1010 F   0  0  0  0  0  0  0  0  0  0  0  0
   39.0260   32.2400   45.8370 O   0  0  0  0  0  0  0  0  0  0  0  0
   39.1760   32.8650   47.0480 C   0  0  0  0  0  0  0  0  0  0  0  0
   40.1120   33.9050   47.0320 C   0  0  0  0  0  0  0  0  0  0  0  0
   40.6950   34.2270   46.1630 H   0  0  0  0  0  0  0  0  0  0  0  0
   40.3680   34.6270   48.1880 C   0  0  0  0  0  0  0  0  0  0  0  0
   39.7070   34.3420   49.3800 C   0  0  0  0  0  0  0  0  0  0  0  0
   39.8880   34.8900   50.2960 H   0  0  0  0  0  0  0  0  0  0  0  0
   38.7870   33.3180   49.3860 C   0  0  0  0  0  0  0  0  0  0  0  0
   38.2290   33.0360   50.2900 H   0  0  0  0  0  0  0  0  0  0  0  0
   38.5400   32.6100   48.2500 C   0  0  0  0  0  0  0  0  0  0  0  0
  1 18  1  0  0  0  0
  1  2  2  0  0  0  0
  3  8  1  0  0  0  0
  3  1  1  0  0  0  0
  4  3  1  0  0  0  0
  5  6  1  0  0  0  0
  5  4  1  0  0  0  0
  6  7  1  0  0  0  0
  7 13  1  0  0  0  0
  7  8  1  0  0  0  0
  8 15  1  1  0  0  0
  8 32  1  0  0  0  0
  9  4  1  0  0  0  0
 10  4  1  0  0  0  0
 11  5  1  0  0  0  0
 12  5  1  0  0  0  0
 14  7  1  0  0  0  0
 16 27  1  0  0  0  0
 17 16  1  0  0  0  0
 17 22  1  0  0  0  0
 18 17  2  0  0  0  0
 19 20  2  0  0  0  0
 19 18  1  0  0  0  0
 20 21  1  0  0  0  0
 21 16  2  0  0  0  0
 23 26  1  0  0  0  0
 23 20  1  0  0  0  0
 24 23  1  0  0  0  0
 25 23  1  0  0  0  0
 27 28  1  0  0  0  0
 28 29  1  0  0  0  0
 28 31  1  0  0  0  0
 30 28  1  0  0  0  0
 32 33  1  0  0  0  0
 33 41  1  0  0  0  0
 34 33  2  0  0  0  0
 34 36  1  0  0  0  0
 35 34  1  0  0  0  0
 36 37  2  0  0  0  0
 37 39  1  0  0  0  0
 37 38  1  0  0  0  0
 39 40  1  0  0  0  0
 41 39  2  0  0  0  0
M  END
>  <minimizedAffinity>
-5.81336927

>  <minimizedRMSD>
2.01248217

$$$$
