
 OpenBabel03252513503D

 24 25  0  0  0  0  0  0  0  0999 V2000
   34.9550   29.4100   48.0580 C   0  0  0  0  0  0  0  0  0  0  0  0
   36.2350   30.0450   48.1940 C   0  0  0  0  0  0  0  0  0  0  0  0
   36.8340   30.5790   47.0510 C   0  0  0  0  0  0  0  0  0  0  0  0
   36.1560   30.4580   45.8860 N   0  0  0  0  0  0  0  0  0  0  0  0
   34.9640   29.8610   45.7890 C   0  0  0  0  0  0  0  0  0  0  0  0
   34.3790   29.3500   46.8540 N   0  0  0  0  0  0  0  0  0  0  0  0
   36.7140   30.1010   49.1700 H   0  0  0  0  0  0  0  0  0  0  0  0
   38.1300   31.2290   47.1500 C   0  0  0  0  0  0  0  0  0  0  0  0
   38.5780   31.5620   48.2690 O   0  0  0  0  0  0  0  0  0  0  0  0
   38.9820   31.5380   46.0520 N   0  0  0  0  0  0  0  0  0  0  0  0
   39.1540   30.4910   45.0620 C   0  0  0  0  0  0  0  0  0  0  0  0
   40.3590   30.7420   44.1860 C   0  0  0  0  0  0  0  0  0  0  0  0
   41.3280   31.3500   44.9900 O   0  0  0  0  0  0  0  0  0  0  0  0
   40.9250   32.7000   45.0980 C   0  0  0  0  0  0  0  0  0  0  0  0
   39.6580   32.8280   45.9040 C   0  0  0  0  0  0  0  0  0  0  0  0
   34.3800   29.8270   44.4250 C   0  0  0  0  0  0  0  0  0  0  0  0
   34.3130   31.1210   43.8950 F   0  0  0  0  0  0  0  0  0  0  0  0
   35.2160   29.1210   43.5810 F   0  0  0  0  0  0  0  0  0  0  0  0
   33.1450   29.2010   44.3870 F   0  0  0  0  0  0  0  0  0  0  0  0
   34.3780   28.8890   49.1990 O   0  0  0  0  0  0  0  0  0  0  0  0
   34.1650   29.5990   50.3720 C   0  0  0  0  0  0  0  0  0  0  0  0
   34.9920   29.2030   51.4160 F   0  0  0  0  0  0  0  0  0  0  0  0
   34.1930   30.9540   50.2320 F   0  0  0  0  0  0  0  0  0  0  0  0
   32.8530   29.2590   50.7610 F   0  0  0  0  0  0  0  0  0  0  0  0
  1  2  1  0  0  0  0
  1 20  1  0  0  0  0
  2  7  1  0  0  0  0
  3  8  1  0  0  0  0
  3  2  2  0  0  0  0
  4  3  1  0  0  0  0
  5  4  2  0  0  0  0
  5  6  1  0  0  0  0
  6  1  2  0  0  0  0
  8  9  2  0  0  0  0
 10  8  1  0  0  0  0
 11 10  1  0  0  0  0
 12 13  1  0  0  0  0
 12 11  1  0  0  0  0
 13 14  1  0  0  0  0
 14 15  1  0  0  0  0
 15 10  1  0  0  0  0
 16  5  1  0  0  0  0
 17 16  1  0  0  0  0
 18 16  1  0  0  0  0
 19 16  1  0  0  0  0
 20 21  1  0  0  0  0
 21 24  1  0  0  0  0
 21 22  1  0  0  0  0
 23 21  1  0  0  0  0
M  END
>  <minimizedAffinity>
-5.18375778

>  <minimizedRMSD>
4.04158783

$$$$
