
 OpenBabel03252513443D

 20 21  0  0  0  0  0  0  0  0999 V2000
   37.1410   30.4490   49.2920 C   0  0  0  0  0  0  0  0  0  0  0  0
   37.0010   31.5990   50.1040 C   0  0  0  0  0  0  0  0  0  0  0  0
   37.6000   32.7900   49.6700 C   0  0  0  0  0  0  0  0  0  0  0  0
   38.2840   32.7840   48.4960 N   0  0  0  0  0  0  0  0  0  0  0  0
   38.3820   31.6580   47.7690 C   0  0  0  0  0  0  0  0  0  0  0  0
   37.8300   30.5130   48.1460 N   0  0  0  0  0  0  0  0  0  0  0  0
   36.4560   31.6050   51.0400 H   0  0  0  0  0  0  0  0  0  0  0  0
   37.5400   33.7120   50.2300 H   0  0  0  0  0  0  0  0  0  0  0  0
   39.1260   31.6490   46.4910 C   0  0  0  0  0  0  0  0  0  0  0  0
   39.8720   32.7320   46.0770 C   0  0  0  0  0  0  0  0  0  0  0  0
   40.5710   32.7420   44.8930 C   0  0  0  0  0  0  0  0  0  0  0  0
   40.5170   31.6440   44.1110 N   0  0  0  0  0  0  0  0  0  0  0  0
   39.7860   30.5690   44.5040 C   0  0  0  0  0  0  0  0  0  0  0  0
   39.6600   29.6380   43.9760 H   0  0  0  0  0  0  0  0  0  0  0  0
   39.1230   30.5920   45.6540 N   0  0  0  0  0  0  0  0  0  0  0  0
   36.5540   29.2890   49.7220 O   0  0  0  0  0  0  0  0  0  0  0  0
   35.2580   29.1930   50.2540 C   0  0  0  0  0  0  0  0  0  0  0  0
   35.2340   29.1490   51.6330 F   0  0  0  0  0  0  0  0  0  0  0  0
   34.3830   30.1330   49.7830 F   0  0  0  0  0  0  0  0  0  0  0  0
   34.7660   27.9470   49.8220 F   0  0  0  0  0  0  0  0  0  0  0  0
  1 16  1  0  0  0  0
  1  2  1  0  0  0  0
  2  7  1  0  0  0  0
  3  2  2  0  0  0  0
  3  8  1  0  0  0  0
  4  3  1  0  0  0  0
  5  6  1  0  0  0  0
  5  4  2  0  0  0  0
  6  1  2  0  0  0  0
  9  5  1  0  0  0  0
 10  9  1  0  0  0  0
 11 10  2  0  0  0  0
 12 13  2  0  0  0  0
 12 11  1  0  0  0  0
 13 15  1  0  0  0  0
 14 13  1  0  0  0  0
 15  9  2  0  0  0  0
 16 17  1  0  0  0  0
 17 18  1  0  0  0  0
 19 17  1  0  0  0  0
 20 17  1  0  0  0  0
M  END
>  <minimizedAffinity>
-5.92124319

>  <minimizedRMSD>
1.79074323

$$$$
