
 OpenBabel03252514043D

 36 39  0  0  1  0  0  0  0  0999 V2000
   35.2500   29.1410   48.5280 C   0  0  2  0  0  0  0  0  0  0  0  0
   34.0020   29.3750   49.2490 C   0  0  0  0  0  0  0  0  0  0  0  0
   34.3210   27.9930   49.0470 C   0  0  1  0  0  0  0  0  0  0  0  0
   35.3210   29.2210   47.4440 H   0  0  0  0  0  0  0  0  0  0  0  0
   33.1760   29.9130   48.7020 H   0  0  0  0  0  0  0  0  0  0  0  0
   34.0800   29.7850   50.2880 H   0  0  0  0  0  0  0  0  0  0  0  0
   34.8230   27.3370   49.7580 H   0  0  0  0  0  0  0  0  0  0  0  0
   36.5360   29.2030   49.3700 C   0  0  0  0  0  0  0  0  0  0  0  0
   37.1070   28.2970   49.0750 H   0  0  0  0  0  0  0  0  0  0  0  0
   36.2820   29.1700   50.4430 H   0  0  0  0  0  0  0  0  0  0  0  0
   37.5510   32.7020   49.6100 C   0  0  0  0  0  0  0  0  0  0  0  0
   38.4470   32.8360   48.5250 C   0  0  0  0  0  0  0  0  0  0  0  0
   38.6850   31.6950   47.7230 C   0  0  0  0  0  0  0  0  0  0  0  0
   38.0320   30.5340   48.0470 N   0  0  0  0  0  0  0  0  0  0  0  0
   37.1950   30.4640   49.0830 C   0  0  0  0  0  0  0  0  0  0  0  0
   36.9630   31.5560   49.8580 N   0  0  0  0  0  0  0  0  0  0  0  0
   37.4320   33.6250   50.1660 H   0  0  0  0  0  0  0  0  0  0  0  0
   38.9420   33.7720   48.3030 H   0  0  0  0  0  0  0  0  0  0  0  0
   39.3680   31.7810   46.8890 H   0  0  0  0  0  0  0  0  0  0  0  0
   33.5020   27.2770   47.9930 C   0  0  0  0  0  0  0  0  0  0  0  0
   33.8650   26.0490   47.8170 O   0  0  0  0  0  0  0  0  0  0  0  0
   32.4520   27.8160   47.2620 O   0  0  0  0  0  0  0  0  0  0  0  0
   31.2150   28.0640   47.7730 C   0  0  0  0  0  0  0  0  0  0  0  0
   30.7580   27.6290   49.1040 C   0  0  0  0  0  0  0  0  0  0  0  0
   29.5050   27.9280   49.5260 C   0  0  0  0  0  0  0  0  0  0  0  0
   28.6400   28.6630   48.6730 C   0  0  0  0  0  0  0  0  0  0  0  0
   29.6750   28.9560   47.1530 S   0  0  0  0  0  0  0  0  0  0  0  0
   31.4560   27.0730   49.7100 H   0  0  0  0  0  0  0  0  0  0  0  0
   29.1110   27.6430   50.4830 H   0  0  0  0  0  0  0  0  0  0  0  0
   27.3620   29.0980   48.8250 C   0  0  0  0  0  0  0  0  0  0  0  0
   26.3310   28.2660   49.2180 C   0  0  0  0  0  3  0  0  0  0  0  0
   25.0280   28.6980   49.3770 C   0  0  0  0  0  3  0  0  0  0  0  0
   24.7910   30.0090   49.1240 N   0  0  0  0  0  0  0  0  0  0  0  0
   25.7730   30.8490   48.7390 C   0  0  0  0  0  0  0  0  0  0  0  0
   25.5260   31.8810   48.5530 H   0  0  0  0  0  0  0  0  0  0  0  0
   27.0310   30.3810   48.5990 N   0  0  0  0  0  0  0  0  0  0  0  0
  1  4  1  6  0  0  0
  1  3  1  0  0  0  0
  1  2  1  0  0  0  0
  1  8  1  0  0  0  0
  2  6  1  0  0  0  0
  3  2  1  0  0  0  0
  3  7  1  1  0  0  0
  5  2  1  0  0  0  0
  8 10  1  0  0  0  0
  9  8  1  0  0  0  0
 11 16  1  0  0  0  0
 11 17  1  0  0  0  0
 12 11  2  0  0  0  0
 13 14  2  0  0  0  0
 13 12  1  0  0  0  0
 14 15  1  0  0  0  0
 15  8  1  0  0  0  0
 15 16  2  0  0  0  0
 18 12  1  0  0  0  0
 19 13  1  0  0  0  0
 20  3  1  0  0  0  0
 21 20  2  0  0  0  0
 22 23  1  0  0  0  0
 22 20  1  0  0  0  0
 23 24  2  0  0  0  0
 24 25  1  0  0  0  0
 24 28  1  0  0  0  0
 25 29  1  0  0  0  0
 26 30  1  0  0  0  0
 26 25  2  0  0  0  0
 27 23  1  0  0  0  0
 27 26  1  0  0  0  0
 30 31  1  0  0  0  0
 31 32  2  0  0  0  0
 33 32  1  0  0  0  0
 34 33  2  0  0  0  0
 35 34  1  0  0  0  0
 36 34  1  0  0  0  0
 36 30  2  0  0  0  0
M  END
>  <minimizedAffinity>
-6.50104332

>  <minimizedRMSD>
1.89714313

$$$$
