
 OpenBabel03252514023D

 31 33  0  0  1  0  0  0  0  0999 V2000
   35.5530   29.5020   49.0210 C   0  0  2  0  0  0  0  0  0  0  0  0
   34.5190   29.7080   50.0440 C   0  0  0  0  0  0  0  0  0  0  0  0
   34.7390   28.3340   49.6090 C   0  0  1  0  0  0  0  0  0  0  0  0
   35.3490   29.7090   47.9710 H   0  0  0  0  0  0  0  0  0  0  0  0
   34.8930   29.9480   51.0770 H   0  0  0  0  0  0  0  0  0  0  0  0
   33.5490   30.2120   49.8550 H   0  0  0  0  0  0  0  0  0  0  0  0
   35.4040   27.5650   50.0430 H   0  0  0  0  0  0  0  0  0  0  0  0
   37.0060   29.4710   49.4900 C   0  0  0  0  0  0  0  0  0  0  0  0
   36.9810   29.4810   50.5970 H   0  0  0  0  0  0  0  0  0  0  0  0
   37.4570   28.5460   49.1120 H   0  0  0  0  0  0  0  0  0  0  0  0
   38.2500   32.9170   49.3570 C   0  0  0  0  0  0  0  0  0  0  0  0
   38.8760   32.9740   48.1020 C   0  0  0  0  0  0  0  0  0  0  0  0
   38.8630   31.8160   47.3090 C   0  0  0  0  0  0  0  0  0  0  0  0
   38.2380   30.6940   47.8090 N   0  0  0  0  0  0  0  0  0  0  0  0
   37.6570   30.6930   49.0100 C   0  0  0  0  0  0  0  0  0  0  0  0
   37.6660   31.8070   49.7780 N   0  0  0  0  0  0  0  0  0  0  0  0
   38.2560   33.8040   49.9750 H   0  0  0  0  0  0  0  0  0  0  0  0
   39.3430   33.9040   47.7940 H   0  0  0  0  0  0  0  0  0  0  0  0
   39.3380   31.8650   46.3620 H   0  0  0  0  0  0  0  0  0  0  0  0
   33.6480   27.7620   48.7450 C   0  0  0  0  0  0  0  0  0  0  0  0
   34.0680   26.9950   47.7890 O   0  0  0  0  0  0  0  0  0  0  0  0
   32.2850   27.9710   48.8880 O   0  0  0  0  0  0  0  0  0  0  0  0
   31.4410   27.8460   47.7940 C   0  0  0  0  0  0  0  0  0  0  0  0
   31.3770   28.6310   46.6590 C   0  0  0  0  0  0  0  0  0  0  0  0
   32.0810   29.4350   46.6440 H   0  0  0  0  0  0  0  0  0  0  0  0
   30.4470   28.3230   45.6750 C   0  0  0  0  0  3  0  0  0  0  0  0
   29.5990   27.2460   45.8350 C   0  0  0  0  0  0  0  0  0  0  0  0
   28.8670   27.0120   45.0500 H   0  0  0  0  0  0  0  0  0  0  0  0
   29.6460   26.4430   46.9680 C   0  0  0  0  0  0  0  0  0  0  0  0
   28.9610   25.5970   47.0630 H   0  0  0  0  0  0  0  0  0  0  0  0
   30.5840   26.7550   47.9580 C   0  0  0  0  0  3  0  0  0  0  0  0
  1  4  1  6  0  0  0
  1  8  1  0  0  0  0
  1  3  1  0  0  0  0
  1  2  1  0  0  0  0
  2  5  1  0  0  0  0
  3  7  1  1  0  0  0
  3  2  1  0  0  0  0
  6  2  1  0  0  0  0
  8  9  1  0  0  0  0
 10  8  1  0  0  0  0
 11 16  1  0  0  0  0
 11 17  1  0  0  0  0
 12 11  2  0  0  0  0
 13 14  2  0  0  0  0
 13 12  1  0  0  0  0
 14 15  1  0  0  0  0
 15  8  1  0  0  0  0
 15 16  2  0  0  0  0
 18 12  1  0  0  0  0
 19 13  1  0  0  0  0
 20 22  1  0  0  0  0
 20  3  1  0  0  0  0
 21 20  2  0  0  0  0
 23 31  1  0  0  0  0
 23 22  1  0  0  0  0
 24 23  2  0  0  0  0
 25 24  1  0  0  0  0
 26 27  2  0  0  0  0
 26 24  1  0  0  0  0
 27 29  1  0  0  0  0
 28 27  1  0  0  0  0
 29 30  1  0  0  0  0
 29 31  2  0  0  0  0
M  END
>  <minimizedAffinity>
-4.93251514

>  <minimizedRMSD>
0.494534403

$$$$
