
 OpenBabel03252513063D

 35 37  0  0  0  0  0  0  0  0999 V2000
   34.4610   29.0630   45.3320 C   0  0  0  0  0  0  0  0  0  0  0  0
   34.9160   28.0510   45.3670 H   0  0  0  0  0  0  0  0  0  0  0  0
   33.4090   28.9760   45.7360 H   0  0  0  0  0  0  0  0  0  0  0  0
   34.0490   29.1720   41.5800 C   0  0  0  0  0  0  0  0  0  0  0  0
   34.1550   28.6710   42.8820 C   0  0  0  0  0  0  0  0  0  0  0  0
   34.3370   29.5300   43.9590 C   0  0  0  0  0  0  0  0  0  0  0  0
   34.4060   30.8750   43.6890 N   0  0  0  0  0  0  0  0  0  0  0  0
   34.3030   31.3150   42.4510 C   0  0  0  0  0  0  0  0  0  0  0  0
   34.1300   30.5190   41.4010 N   0  0  0  0  0  0  0  0  0  0  0  0
   33.9100   28.4960   40.7710 H   0  0  0  0  0  0  0  0  0  0  0  0
   34.1000   27.6280   43.0900 H   0  0  0  0  0  0  0  0  0  0  0  0
   34.3870   32.7670   42.2280 C   0  0  0  0  0  0  0  0  0  0  0  0
   33.5090   33.6510   42.8210 C   0  0  0  0  0  0  0  0  0  0  0  0
   33.6210   35.0250   42.5830 C   0  0  0  0  0  0  0  0  0  0  0  0
   34.6030   35.4380   41.7660 N   0  0  0  0  0  0  0  0  0  0  0  0
   35.4700   34.6060   41.1770 C   0  0  0  0  0  0  0  0  0  0  0  0
   36.2760   34.8850   40.5130 H   0  0  0  0  0  0  0  0  0  0  0  0
   35.3320   33.2940   41.4280 N   0  0  0  0  0  0  0  0  0  0  0  0
   35.2090   29.9480   46.2370 C   0  0  0  0  0  0  0  0  0  0  0  0
   34.8440   31.0010   46.1090 H   0  0  0  0  0  0  0  0  0  0  0  0
   36.2690   29.9750   45.8640 H   0  0  0  0  0  0  0  0  0  0  0  0
   35.2270   29.6700   47.6190 N   0  0  0  0  0  0  0  0  0  0  0  0
   34.5110   28.7940   48.3140 C   0  0  0  0  0  0  0  0  0  0  0  0
   34.6010   28.5950   49.6670 C   0  0  0  0  0  0  0  0  0  0  0  0
   35.4950   29.3420   50.3990 C   0  0  0  0  0  0  0  0  0  0  0  0
   35.6320   29.2160   51.6270 O   0  0  0  0  0  0  0  0  0  0  0  0
   36.2090   30.2100   49.7240 N   0  0  0  0  0  0  0  0  0  0  0  0
   36.1040   30.3890   48.4020 C   0  0  0  0  0  0  0  0  0  0  0  0
   36.8410   31.2510   47.8650 O   0  0  0  0  0  0  0  0  0  0  0  0
   33.8000   28.2010   47.7220 H   0  0  0  0  0  0  0  0  0  0  0  0
   33.9710   27.8530   50.1400 H   0  0  0  0  0  0  0  0  0  0  0  0
   37.1680   31.0200   50.4720 C   0  0  0  0  0  0  0  0  0  0  0  0
   38.4390   30.8340   49.9590 F   0  0  0  0  0  0  0  0  0  0  0  0
   37.1860   30.5150   51.7770 F   0  0  0  0  0  0  0  0  0  0  0  0
   36.7650   32.3180   50.4410 F   0  0  0  0  0  0  0  0  0  0  0  0
  1  2  1  0  0  0  0
  1  3  1  0  0  0  0
  1 19  1  0  0  0  0
  4  5  1  0  0  0  0
  5 11  1  0  0  0  0
  5  6  2  0  0  0  0
  6  1  1  0  0  0  0
  7  6  1  0  0  0  0
  8  7  2  0  0  0  0
  9  4  2  0  0  0  0
  9  8  1  0  0  0  0
 10  4  1  0  0  0  0
 12  8  1  0  0  0  0
 12 13  1  0  0  0  0
 14 13  2  0  0  0  0
 15 14  1  0  0  0  0
 16 18  1  0  0  0  0
 16 15  2  0  0  0  0
 17 16  1  0  0  0  0
 18 12  2  0  0  0  0
 19 22  1  0  0  0  0
 20 19  1  0  0  0  0
 21 19  1  0  0  0  0
 22 23  1  0  0  0  0
 22 28  1  0  0  0  0
 23 24  2  0  0  0  0
 24 31  1  0  0  0  0
 24 25  1  0  0  0  0
 25 26  2  0  0  0  0
 27 25  1  0  0  0  0
 27 32  1  0  0  0  0
 28 27  1  0  0  0  0
 29 28  2  0  0  0  0
 30 23  1  0  0  0  0
 32 34  1  0  0  0  0
 33 32  1  0  0  0  0
 35 32  1  0  0  0  0
M  END
>  <minimizedAffinity>
-5.59933853

>  <minimizedRMSD>
9.42104053

$$$$
