
 OpenBabel03252514043D

 36 39  0  0  1  0  0  0  0  0999 V2000
   35.8130   29.6430   48.8960 C   0  0  2  0  0  0  0  0  0  0  0  0
   34.7440   30.1030   49.7760 C   0  0  0  0  0  0  0  0  0  0  0  0
   34.9080   28.6810   49.7350 C   0  0  1  0  0  0  0  0  0  0  0  0
   35.6890   29.5660   47.8160 H   0  0  0  0  0  0  0  0  0  0  0  0
   33.8760   30.6470   49.3030 H   0  0  0  0  0  0  0  0  0  0  0  0
   35.0450   30.6390   50.7110 H   0  0  0  0  0  0  0  0  0  0  0  0
   35.4790   28.0780   50.4410 H   0  0  0  0  0  0  0  0  0  0  0  0
   37.2340   29.6810   49.4850 C   0  0  0  0  0  0  0  0  0  0  0  0
   37.6970   28.7250   49.1620 H   0  0  0  0  0  0  0  0  0  0  0  0
   37.1810   29.7360   50.5850 H   0  0  0  0  0  0  0  0  0  0  0  0
   38.6000   33.0640   49.3430 C   0  0  0  0  0  0  0  0  0  0  0  0
   39.1270   33.1280   48.0340 C   0  0  0  0  0  0  0  0  0  0  0  0
   38.9980   31.9800   47.2160 C   0  0  0  0  0  0  0  0  0  0  0  0
   38.3690   30.8820   47.7440 N   0  0  0  0  0  0  0  0  0  0  0  0
   37.8890   30.8780   48.9880 C   0  0  0  0  0  0  0  0  0  0  0  0
   38.0110   31.9770   49.7790 N   0  0  0  0  0  0  0  0  0  0  0  0
   38.7460   33.9870   49.8940 H   0  0  0  0  0  0  0  0  0  0  0  0
   39.6160   34.0150   47.6550 H   0  0  0  0  0  0  0  0  0  0  0  0
   39.3950   32.0120   46.2110 H   0  0  0  0  0  0  0  0  0  0  0  0
   33.8540   27.9190   48.9590 C   0  0  0  0  0  0  0  0  0  0  0  0
   32.6470   28.2380   49.2970 O   0  0  0  0  0  0  0  0  0  0  0  0
   34.0850   26.9730   47.9690 O   0  0  0  0  0  0  0  0  0  0  0  0
   33.1000   26.3500   47.2650 C   0  0  0  0  0  0  0  0  0  0  0  0
   32.4470   26.9080   46.0680 C   0  0  0  0  0  0  0  0  0  0  0  0
   31.4760   26.2080   45.4320 C   0  0  0  0  0  0  0  0  0  0  0  0
   31.0950   24.9350   45.9320 C   0  0  0  0  0  0  0  0  0  0  0  0
   32.1940   24.7050   47.4180 S   0  0  0  0  0  0  0  0  0  0  0  0
   32.7750   27.8800   45.7320 H   0  0  0  0  0  0  0  0  0  0  0  0
   30.9620   26.5560   44.5560 H   0  0  0  0  0  0  0  0  0  0  0  0
   30.1750   24.0280   45.5120 C   0  0  0  0  0  0  0  0  0  0  0  0
   30.2570   22.6830   45.8160 C   0  0  0  0  0  3  0  0  0  0  0  0
   29.3260   21.7520   45.3930 C   0  0  0  0  0  3  0  0  0  0  0  0
   28.2980   22.2240   44.6450 N   0  0  0  0  0  0  0  0  0  0  0  0
   28.1870   23.5290   44.3290 C   0  0  0  0  0  0  0  0  0  0  0  0
   27.3490   23.8470   43.7310 H   0  0  0  0  0  0  0  0  0  0  0  0
   29.1210   24.4020   44.7650 N   0  0  0  0  0  0  0  0  0  0  0  0
  1  4  1  6  0  0  0
  1  8  1  0  0  0  0
  1  3  1  0  0  0  0
  1  2  1  0  0  0  0
  2  6  1  0  0  0  0
  3  2  1  0  0  0  0
  3  7  1  1  0  0  0
  5  2  1  0  0  0  0
  8 10  1  0  0  0  0
  9  8  1  0  0  0  0
 11 16  1  0  0  0  0
 11 17  1  0  0  0  0
 12 11  2  0  0  0  0
 13 14  2  0  0  0  0
 13 12  1  0  0  0  0
 14 15  1  0  0  0  0
 15  8  1  0  0  0  0
 15 16  2  0  0  0  0
 18 12  1  0  0  0  0
 19 13  1  0  0  0  0
 20 21  2  0  0  0  0
 20  3  1  0  0  0  0
 22 20  1  0  0  0  0
 23 27  1  0  0  0  0
 23 22  1  0  0  0  0
 24 23  2  0  0  0  0
 25 26  2  0  0  0  0
 25 24  1  0  0  0  0
 26 27  1  0  0  0  0
 28 24  1  0  0  0  0
 29 25  1  0  0  0  0
 30 31  1  0  0  0  0
 30 26  1  0  0  0  0
 32 31  2  0  0  0  0
 33 32  1  0  0  0  0
 34 33  2  0  0  0  0
 34 36  1  0  0  0  0
 35 34  1  0  0  0  0
 36 30  2  0  0  0  0
M  END
>  <minimizedAffinity>
-5.00926447

>  <minimizedRMSD>
3.59413242

$$$$
