
 OpenBabel03252512083D

 42 44  0  0  0  0  0  0  0  0999 V2000
   36.8110   30.6450   50.1060 C   0  0  0  0  0  0  0  0  0  0  0  0
   37.7550   30.0890   50.0700 H   0  0  0  0  0  0  0  0  0  0  0  0
   36.6210   30.8530   51.1980 H   0  0  0  0  0  0  0  0  0  0  0  0
   35.6370   28.5150   49.7850 C   0  0  0  0  0  0  0  0  0  0  0  0
   35.7370   29.8980   49.5710 C   0  0  0  0  0  0  0  0  0  0  0  0
   34.7620   30.4850   48.8020 C   0  0  0  0  0  0  0  0  0  0  0  0
   33.7560   29.7370   48.2790 N   0  0  0  0  0  0  0  0  0  0  0  0
   33.6800   28.4230   48.4940 C   0  0  0  0  0  0  0  0  0  0  0  0
   34.6010   27.8530   49.2270 N   0  0  0  0  0  0  0  0  0  0  0  0
   36.3590   27.9900   50.3750 H   0  0  0  0  0  0  0  0  0  0  0  0
   34.6890   31.5260   48.5440 H   0  0  0  0  0  0  0  0  0  0  0  0
   32.5900   27.6200   47.9280 C   0  0  0  0  0  0  0  0  0  0  0  0
   32.5510   27.3420   46.7060 O   0  0  0  0  0  0  0  0  0  0  0  0
   31.5640   27.1420   48.7270 O   0  0  0  0  0  0  0  0  0  0  0  0
   27.9110   29.0710   48.9190 C   0  0  0  0  0  0  0  0  0  0  0  0
   28.5820   28.9910   47.7200 C   0  0  0  0  0  0  0  0  0  0  0  0
   29.7990   28.3330   47.7250 C   0  0  0  0  0  0  0  0  0  0  0  0
   30.3430   27.7660   48.8760 C   0  0  0  0  0  0  0  0  0  0  0  0
   29.6250   27.8720   50.0690 C   0  0  0  0  0  0  0  0  0  0  0  0
   28.4130   28.5230   50.0940 C   0  0  0  0  0  0  0  0  0  0  0  0
   26.1810   30.5860   50.1100 H   0  0  0  0  0  0  0  0  0  0  0  0
   26.3870   29.8880   48.9480 S   0  0  0  0  0  0  0  0  0  0  0  0
   26.3140   30.8310   47.7960 O   0  0  0  0  0  0  0  0  0  0  0  0
   25.2410   28.9040   48.8600 O   0  0  0  0  0  0  0  0  0  0  0  0
   36.9970   31.9480   49.4390 C   0  0  0  0  0  0  0  0  0  0  0  0
   36.1240   32.5670   49.2570 H   0  0  0  0  0  0  0  0  0  0  0  0
   37.6460   32.5660   50.1380 H   0  0  0  0  0  0  0  0  0  0  0  0
   37.8410   31.7350   48.2420 C   0  0  0  0  0  0  0  0  0  0  0  0
   37.8650   30.5250   47.6400 C   0  0  0  0  0  0  0  0  0  0  0  0
   38.6990   30.3190   46.5410 C   0  0  0  0  0  0  0  0  0  0  0  0
   39.4600   31.3640   46.1150 N   0  0  0  0  0  0  0  0  0  0  0  0
   39.4170   32.5360   46.7170 C   0  0  0  0  0  0  0  0  0  0  0  0
   38.6210   32.7550   47.7800 N   0  0  0  0  0  0  0  0  0  0  0  0
   37.4030   29.5800   47.7500 H   0  0  0  0  0  0  0  0  0  0  0  0
   38.8780   29.4350   45.9120 H   0  0  0  0  0  0  0  0  0  0  0  0
   40.2330   33.6690   46.2240 C   0  0  0  0  0  0  0  0  0  0  0  0
   41.2750   33.6480   46.5460 H   0  0  0  0  0  0  0  0  0  0  0  0
   39.7960   34.6340   46.5620 H   0  0  0  0  0  0  0  0  0  0  0  0
   40.1460   33.7430   44.6830 C   0  0  0  0  0  0  0  0  0  0  0  0
   39.1200   33.9520   44.3740 H   0  0  0  0  0  0  0  0  0  0  0  0
   40.9040   34.4750   44.3510 H   0  0  0  0  0  0  0  0  0  0  0  0
   40.4010   32.6880   44.3710 H   0  0  0  0  0  0  0  0  0  0  0  0
  1  3  1  0  0  0  0
  2  1  1  0  0  0  0
  4 10  1  0  0  0  0
  5  4  1  0  0  0  0
  5  1  1  0  0  0  0
  6  5  2  0  0  0  0
  7  8  2  0  0  0  0
  7  6  1  0  0  0  0
  8  9  1  0  0  0  0
  9  4  2  0  0  0  0
 11  6  1  0  0  0  0
 12  8  1  0  0  0  0
 12 14  1  0  0  0  0
 13 12  2  0  0  0  0
 14 18  1  0  0  0  0
 15 22  1  0  0  0  0
 15 20  1  0  0  0  0
 16 17  1  0  0  0  0
 16 15  2  0  0  0  0
 17 18  2  0  0  0  0
 18 19  1  0  0  0  0
 19 20  2  0  0  0  0
 22 21  1  0  0  0  0
 23 22  2  0  0  0  0
 24 22  2  0  0  0  0
 25  1  1  0  0  0  0
 25 27  1  0  0  0  0
 26 25  1  0  0  0  0
 28 25  1  0  0  0  0
 29 34  1  0  0  0  0
 29 28  2  0  0  0  0
 30 29  1  0  0  0  0
 31 30  2  0  0  0  0
 31 32  1  0  0  0  0
 32 33  2  0  0  0  0
 33 28  1  0  0  0  0
 35 30  1  0  0  0  0
 36 37  1  0  0  0  0
 36 38  1  0  0  0  0
 36 32  1  0  0  0  0
 39 36  1  0  0  0  0
 40 39  1  0  0  0  0
 41 39  1  0  0  0  0
 42 39  1  0  0  0  0
M  END
>  <minimizedAffinity>
-6.21669579

>  <minimizedRMSD>
1.81595397

$$$$
