
 OpenBabel03252511133D

 19 19  0  0  0  0  0  0  0  0999 V2000
   37.0150   30.0560   50.4280 C   0  0  0  0  0  0  0  0  0  0  0  0
   37.2500   30.2740   51.6390 O   0  0  0  0  0  0  0  0  0  0  0  0
   36.0940   29.0010   50.1120 N   0  0  0  0  0  0  0  0  0  0  0  0
   34.7880   29.3600   49.6840 C   0  0  0  0  0  0  0  0  0  0  0  0
   34.3680   30.5720   49.5580 N   0  0  0  0  0  0  0  0  0  0  0  0
   33.8930   28.2950   49.3770 N   0  0  0  0  0  0  0  0  0  0  0  0
   36.4030   28.0060   50.2040 H   0  0  0  0  0  0  0  0  0  0  0  0
   33.4000   30.7960   49.2400 H   0  0  0  0  0  0  0  0  0  0  0  0
   33.4410   27.7390   48.6160 H   0  0  0  0  0  0  0  0  0  0  0  0
   33.5160   27.8780   50.2560 H   0  0  0  0  0  0  0  0  0  0  0  0
   37.6060   30.7900   49.3180 C   0  0  0  0  0  0  0  0  0  0  0  0
   38.2150   32.0120   49.6310 C   0  0  0  0  0  0  0  0  0  0  0  0
   38.7900   32.7310   48.5670 C   0  0  0  0  0  0  0  0  0  0  0  0
   38.7250   32.2140   47.3180 N   0  0  0  0  0  0  0  0  0  0  0  0
   38.1220   31.0270   47.0730 C   0  0  0  0  0  0  0  0  0  0  0  0
   37.5600   30.3060   48.0590 N   0  0  0  0  0  0  0  0  0  0  0  0
   38.2510   32.3980   50.6380 H   0  0  0  0  0  0  0  0  0  0  0  0
   39.2600   33.6720   48.8040 H   0  0  0  0  0  0  0  0  0  0  0  0
   38.0630   30.5990   46.0720 H   0  0  0  0  0  0  0  0  0  0  0  0
  1  2  2  0  0  0  0
  3  7  1  0  0  0  0
  3  1  1  0  0  0  0
  4  3  1  0  0  0  0
  5  4  2  0  0  0  0
  6  4  1  0  0  0  0
  6 10  1  0  0  0  0
  8  5  1  0  0  0  0
  9  6  1  0  0  0  0
 11 12  1  0  0  0  0
 11  1  1  0  0  0  0
 12 17  1  0  0  0  0
 13 18  1  0  0  0  0
 13 12  2  0  0  0  0
 14 13  1  0  0  0  0
 15 14  2  0  0  0  0
 15 16  1  0  0  0  0
 16 11  2  0  0  0  0
 19 15  1  0  0  0  0
M  END
>  <minimizedAffinity>
-4.68335485

>  <minimizedRMSD>
1.30429375

$$$$
