
 OpenBabel03252514023D

 32 34  0  0  1  0  0  0  0  0999 V2000
   35.4750   29.4620   49.1570 C   0  0  2  0  0  0  0  0  0  0  0  0
   34.4960   29.4570   50.2530 C   0  0  0  0  0  0  0  0  0  0  0  0
   34.6850   28.1960   49.5480 C   0  0  1  0  0  0  0  0  0  0  0  0
   35.2160   29.8290   48.1610 H   0  0  0  0  0  0  0  0  0  0  0  0
   34.9190   29.5710   51.2750 H   0  0  0  0  0  0  0  0  0  0  0  0
   33.5330   30.0380   50.1580 H   0  0  0  0  0  0  0  0  0  0  0  0
   35.3300   27.3570   49.7920 H   0  0  0  0  0  0  0  0  0  0  0  0
   36.9520   29.3500   49.5350 C   0  0  0  0  0  0  0  0  0  0  0  0
   37.4190   28.4350   49.1230 H   0  0  0  0  0  0  0  0  0  0  0  0
   36.9990   29.3560   50.6370 H   0  0  0  0  0  0  0  0  0  0  0  0
   38.3880   32.7200   49.3850 C   0  0  0  0  0  0  0  0  0  0  0  0
   38.9020   32.7780   48.0800 C   0  0  0  0  0  0  0  0  0  0  0  0
   38.7490   31.6490   47.2590 C   0  0  0  0  0  0  0  0  0  0  0  0
   38.1050   30.5560   47.7820 N   0  0  0  0  0  0  0  0  0  0  0  0
   37.6310   30.5440   49.0290 C   0  0  0  0  0  0  0  0  0  0  0  0
   37.7770   31.6300   49.8240 N   0  0  0  0  0  0  0  0  0  0  0  0
   38.5520   33.6240   49.9340 H   0  0  0  0  0  0  0  0  0  0  0  0
   39.4040   33.6130   47.6550 H   0  0  0  0  0  0  0  0  0  0  0  0
   39.1190   31.6220   46.2430 H   0  0  0  0  0  0  0  0  0  0  0  0
   33.5600   27.7850   48.6510 C   0  0  0  0  0  0  0  0  0  0  0  0
   33.8960   27.0140   47.6780 O   0  0  0  0  0  0  0  0  0  0  0  0
   32.2350   28.1390   48.7780 O   0  0  0  0  0  0  0  0  0  0  0  0
   29.2700   27.2120   46.0720 C   0  0  0  0  0  0  0  0  0  0  0  0
   29.4500   26.4160   47.1700 C   0  0  0  0  0  3  0  0  0  0  0  0
   30.4430   26.7090   48.0960 C   0  0  0  0  0  3  0  0  0  0  0  0
   31.2520   27.8160   47.8990 C   0  0  0  0  0  0  0  0  0  0  0  0
   31.0800   28.6300   46.7910 C   0  0  0  0  0  3  0  0  0  0  0  0
   30.0820   28.2990   45.9000 C   0  0  0  0  0  3  0  0  0  0  0  0
   26.7990   26.9880   45.6630 H   0  0  0  0  0  0  0  0  0  0  0  0
   27.9870   26.7250   44.9960 S   0  0  0  0  0  0  0  0  0  0  0  0
   28.0330   25.2690   44.6910 O   0  0  0  0  0  0  0  0  0  0  0  0
   27.9910   27.5660   43.7650 O   0  0  0  0  0  0  0  0  0  0  0  0
  1  4  1  6  0  0  0
  1  8  1  0  0  0  0
  1  3  1  0  0  0  0
  1  2  1  0  0  0  0
  2  5  1  0  0  0  0
  3  7  1  1  0  0  0
  3  2  1  0  0  0  0
  6  2  1  0  0  0  0
  8 10  1  0  0  0  0
  9  8  1  0  0  0  0
 11 16  1  0  0  0  0
 11 17  1  0  0  0  0
 12 11  2  0  0  0  0
 13 14  2  0  0  0  0
 13 12  1  0  0  0  0
 14 15  1  0  0  0  0
 15  8  1  0  0  0  0
 15 16  2  0  0  0  0
 18 12  1  0  0  0  0
 19 13  1  0  0  0  0
 20 22  1  0  0  0  0
 20  3  1  0  0  0  0
 21 20  2  0  0  0  0
 23 24  1  0  0  0  0
 24 25  2  0  0  0  0
 26 25  1  0  0  0  0
 26 22  1  0  0  0  0
 27 26  2  0  0  0  0
 28 23  2  0  0  0  0
 28 27  1  0  0  0  0
 30 29  1  0  0  0  0
 30 23  1  0  0  0  0
 31 30  2  0  0  0  0
 32 30  2  0  0  0  0
M  END
>  <minimizedAffinity>
-5.03245544

>  <minimizedRMSD>
0.450701952

$$$$
