
 OpenBabel03252510353D

 30 33  0  0  0  0  0  0  0  0999 V2000
   36.8960   31.3940   48.6060 C   0  0  0  0  0  0  0  0  0  0  0  0
   37.1200   32.1760   49.7160 C   0  0  0  0  0  0  0  0  0  0  0  0
   38.2300   33.0330   49.6670 C   0  0  0  0  0  0  0  0  0  0  0  0
   39.0520   33.1160   48.6140 N   0  0  0  0  0  0  0  0  0  0  0  0
   38.7780   32.3200   47.5520 C   0  0  0  0  0  0  0  0  0  0  0  0
   37.7150   31.4720   47.5500 N   0  0  0  0  0  0  0  0  0  0  0  0
   39.6320   32.3740   46.3990 N   0  0  0  0  0  0  0  0  0  0  0  0
   40.1430   33.3330   45.6210 C   0  0  0  0  0  0  0  0  0  0  0  0
   40.8880   32.7440   44.6760 N   0  0  0  0  0  0  0  0  0  0  0  0
   40.8250   31.4010   44.8900 C   0  0  0  0  0  0  0  0  0  0  0  0
   40.0290   31.1570   45.9820 N   0  0  0  0  0  0  0  0  0  0  0  0
   36.4710   32.1310   50.5850 H   0  0  0  0  0  0  0  0  0  0  0  0
   38.4010   33.6510   50.5520 H   0  0  0  0  0  0  0  0  0  0  0  0
   39.8650   34.3450   45.8980 H   0  0  0  0  0  0  0  0  0  0  0  0
   41.3180   30.6170   44.3030 H   0  0  0  0  0  0  0  0  0  0  0  0
   35.2080   30.0270   49.7010 C   0  0  0  0  0  0  0  0  0  0  0  0
   35.7910   30.4740   48.5320 C   0  0  0  0  0  0  0  0  0  0  0  0
   35.2560   29.9910   47.3420 C   0  0  0  0  0  0  0  0  0  0  0  0
   34.2090   29.1220   47.3850 N   0  0  0  0  0  0  0  0  0  0  0  0
   33.6680   28.7110   48.5480 C   0  0  0  0  0  0  0  0  0  0  0  0
   34.1660   29.1620   49.7110 N   0  0  0  0  0  0  0  0  0  0  0  0
   35.6180   30.3990   50.6510 H   0  0  0  0  0  0  0  0  0  0  0  0
   35.7170   30.3450   46.4390 H   0  0  0  0  0  0  0  0  0  0  0  0
   32.5470   27.7780   48.5050 C   0  0  0  0  0  0  0  0  0  0  0  0
   32.6010   26.6270   47.7470 C   0  0  0  0  0  0  0  0  0  0  0  0
   31.5190   25.7500   47.7200 C   0  0  0  0  0  0  0  0  0  0  0  0
   30.4400   26.1480   48.5020 C   0  0  0  0  0  0  0  0  0  0  0  0
   29.5700   25.4990   48.5160 H   0  0  0  0  0  0  0  0  0  0  0  0
   30.3650   27.2940   49.2670 C   0  0  0  0  0  0  0  0  0  0  0  0
   31.4520   28.1070   49.2510 N   0  0  0  0  0  0  0  0  0  0  0  0
  1  2  1  0  0  0  0
  2 12  1  0  0  0  0
  3  2  2  0  0  0  0
  3 13  1  0  0  0  0
  4  3  1  0  0  0  0
  5  4  2  0  0  0  0
  6  5  1  0  0  0  0
  6  1  2  0  0  0  0
  7  5  1  0  0  0  0
  8 14  1  0  0  0  0
  8  7  1  0  0  0  0
  9 10  1  0  0  0  0
  9  8  2  0  0  0  0
 10 11  2  0  0  0  0
 11  7  1  0  0  0  0
 15 10  1  0  0  0  0
 16 21  1  0  0  0  0
 16 22  1  0  0  0  0
 17  1  1  0  0  0  0
 17 16  2  0  0  0  0
 18 19  2  0  0  0  0
 18 17  1  0  0  0  0
 19 20  1  0  0  0  0
 20 21  2  0  0  0  0
 23 18  1  0  0  0  0
 24 20  1  0  0  0  0
 24 30  1  0  0  0  0
 25 24  2  0  0  0  0
 26 25  1  0  0  0  0
 26 27  2  0  0  0  0
 27 28  1  0  0  0  0
 27 29  1  0  0  0  0
 30 29  2  0  0  0  0
M  END
>  <minimizedAffinity>
-6.49302959

>  <minimizedRMSD>
0.701370239

$$$$
