
 OpenBabel03252512523D

 21 23  0  0  0  0  0  0  0  0999 V2000
   38.3910   31.4920   48.1820 C   0  0  0  0  0  0  0  0  0  0  0  0
   39.0150   32.6970   48.1990 N   0  0  0  0  0  0  0  0  0  0  0  0
   39.4520   32.9820   47.0150 O   0  0  0  0  0  0  0  0  0  0  0  0
   39.1310   31.9860   46.2140 C   0  0  0  0  0  0  0  0  0  0  0  0
   38.4700   31.0460   46.9130 N   0  0  0  0  0  0  0  0  0  0  0  0
   37.3200   30.1240   51.5170 C   0  0  0  0  0  0  0  0  0  0  0  0
   38.0040   30.9000   50.5860 C   0  0  0  0  0  0  0  0  0  0  0  0
   37.7350   30.7320   49.2400 C   0  0  0  0  0  0  0  0  0  0  0  0
   36.7970   29.8010   48.8580 N   0  0  0  0  0  0  0  0  0  0  0  0
   36.1510   29.0630   49.8060 C   0  0  0  0  0  0  0  0  0  0  0  0
   36.4000   29.2140   51.1140 N   0  0  0  0  0  0  0  0  0  0  0  0
   37.5330   30.2590   52.5680 H   0  0  0  0  0  0  0  0  0  0  0  0
   38.7380   31.6290   50.8850 H   0  0  0  0  0  0  0  0  0  0  0  0
   35.4390   28.3680   49.3700 H   0  0  0  0  0  0  0  0  0  0  0  0
   39.4280   31.8790   44.7710 C   0  0  0  0  0  0  0  0  0  0  0  0
   40.1140   30.7870   44.2550 C   0  0  0  0  0  0  0  0  0  0  0  0
   40.3740   30.7210   42.8930 C   0  0  0  0  0  0  0  0  0  0  0  0
   39.9290   31.7610   42.1060 C   0  0  0  0  0  0  0  0  0  0  0  0
   40.1310   31.7080   41.0600 H   0  0  0  0  0  0  0  0  0  0  0  0
   39.2470   32.8420   42.6340 C   0  0  0  0  0  0  0  0  0  0  0  0
   39.0140   32.8680   43.9570 N   0  0  0  0  0  0  0  0  0  0  0  0
  1  2  2  0  0  0  0
  1  8  1  0  0  0  0
  3  2  1  0  0  0  0
  4  5  2  0  0  0  0
  4  3  1  0  0  0  0
  5  1  1  0  0  0  0
  6 12  1  0  0  0  0
  7 13  1  0  0  0  0
  7  6  2  0  0  0  0
  8  7  1  0  0  0  0
  9  8  2  0  0  0  0
  9 10  1  0  0  0  0
 10 11  2  0  0  0  0
 11  6  1  0  0  0  0
 14 10  1  0  0  0  0
 15  4  1  0  0  0  0
 16 15  1  0  0  0  0
 17 16  2  0  0  0  0
 18 20  2  0  0  0  0
 18 17  1  0  0  0  0
 19 18  1  0  0  0  0
 20 21  1  0  0  0  0
 21 15  2  0  0  0  0
M  END
>  <minimizedAffinity>
-5.55998039

>  <minimizedRMSD>
0.720279455

$$$$
