
 OpenBabel03252513513D

 38 40  0  0  1  0  0  0  0  0999 V2000
   35.4800   30.1860   45.9470 C   0  0  0  0  0  0  0  0  0  0  0  0
   34.9120   29.9490   47.0200 O   0  0  0  0  0  0  0  0  0  0  0  0
   34.7080   29.9310   44.7840 N   0  0  0  0  0  0  0  0  0  0  0  0
   34.7550   30.9790   43.7640 C   0  0  0  0  0  0  0  0  0  0  0  0
   33.6430   30.8140   42.7630 C   0  0  0  0  0  0  0  0  0  0  0  0
   32.5250   30.3590   43.4880 O   0  0  0  0  0  0  0  0  0  0  0  0
   32.7560   28.9890   43.6580 C   0  0  0  0  0  0  0  0  0  0  0  0
   33.9300   28.7230   44.5940 C   0  0  2  0  0  0  0  0  0  0  0  0
   34.7470   31.9800   44.2330 H   0  0  0  0  0  0  0  0  0  0  0  0
   35.7150   30.8630   43.2210 H   0  0  0  0  0  0  0  0  0  0  0  0
   33.3630   31.8340   42.4120 H   0  0  0  0  0  0  0  0  0  0  0  0
   33.8680   30.1030   41.9650 H   0  0  0  0  0  0  0  0  0  0  0  0
   31.8620   28.5310   44.1190 H   0  0  0  0  0  0  0  0  0  0  0  0
   32.8950   28.5150   42.6640 H   0  0  0  0  0  0  0  0  0  0  0  0
   34.5800   28.0000   44.0720 H   0  0  0  0  0  0  0  0  0  0  0  0
   38.6510   31.9530   47.0010 C   0  0  0  0  0  0  0  0  0  0  0  0
   37.2950   31.4890   47.0180 C   0  0  0  0  0  0  0  0  0  0  0  0
   36.8520   30.6870   45.9780 C   0  0  0  0  0  0  0  0  0  0  0  0
   37.7550   30.3940   45.0000 N   0  0  0  0  0  0  0  0  0  0  0  0
   39.0150   30.8420   45.0110 C   0  0  0  0  0  0  0  0  0  0  0  0
   39.4470   31.6070   45.9970 N   0  0  0  0  0  0  0  0  0  0  0  0
   36.6490   31.7660   47.8260 H   0  0  0  0  0  0  0  0  0  0  0  0
   39.8510   30.4200   43.8620 C   0  0  0  0  0  0  0  0  0  0  0  0
   39.6740   29.0610   43.6130 F   0  0  0  0  0  0  0  0  0  0  0  0
   39.4250   31.0650   42.7230 F   0  0  0  0  0  0  0  0  0  0  0  0
   41.1890   30.7340   44.0260 F   0  0  0  0  0  0  0  0  0  0  0  0
   39.0670   32.7510   48.0490 O   0  0  0  0  0  0  0  0  0  0  0  0
   38.6020   32.6510   49.3560 C   0  0  0  0  0  0  0  0  0  0  0  0
   37.2920   33.1140   49.5140 F   0  0  0  0  0  0  0  0  0  0  0  0
   38.7430   31.4160   49.9170 F   0  0  0  0  0  0  0  0  0  0  0  0
   39.4250   33.5280   50.0910 F   0  0  0  0  0  0  0  0  0  0  0  0
   33.4410   28.1040   45.8510 C   0  0  0  0  0  0  0  0  0  0  0  0
   33.9750   27.0190   46.5030 C   0  0  0  0  0  0  0  0  0  0  0  0
   33.4670   26.4860   47.6630 C   0  0  0  0  0  0  0  0  0  0  0  0
   32.3620   27.0320   48.2450 C   0  0  0  0  0  0  0  0  0  0  0  0
   31.9490   26.6380   49.1420 H   0  0  0  0  0  0  0  0  0  0  0  0
   31.8520   28.1060   47.5790 C   0  0  0  0  0  0  0  0  0  0  0  0
   32.3360   28.6230   46.4630 N   0  0  0  0  0  0  0  0  0  0  0  0
  1 18  1  0  0  0  0
  1  2  2  0  0  0  0
  3  1  1  0  0  0  0
  4  9  1  0  0  0  0
  4  3  1  0  0  0  0
  5  6  1  0  0  0  0
  5  4  1  0  0  0  0
  6  7  1  0  0  0  0
  7 13  1  0  0  0  0
  7  8  1  0  0  0  0
  8 15  1  6  0  0  0
  8  3  1  0  0  0  0
  8 32  1  0  0  0  0
 10  4  1  0  0  0  0
 11  5  1  0  0  0  0
 12  5  1  0  0  0  0
 14  7  1  0  0  0  0
 16 17  1  0  0  0  0
 16 27  1  0  0  0  0
 17 22  1  0  0  0  0
 18 17  2  0  0  0  0
 19 20  2  0  0  0  0
 19 18  1  0  0  0  0
 20 21  1  0  0  0  0
 21 16  2  0  0  0  0
 23 26  1  0  0  0  0
 23 20  1  0  0  0  0
 24 23  1  0  0  0  0
 25 23  1  0  0  0  0
 27 28  1  0  0  0  0
 28 29  1  0  0  0  0
 28 30  1  0  0  0  0
 28 31  1  0  0  0  0
 32 38  2  0  0  0  0
 32 33  1  0  0  0  0
 33 34  2  0  0  0  0
 34 35  1  0  0  0  0
 35 36  1  0  0  0  0
 37 35  2  0  0  0  0
 38 37  1  0  0  0  0
M  END
>  <minimizedAffinity>
-5.8016305

>  <minimizedRMSD>
6.79342127

$$$$
