
 OpenBabel03252513483D

 23 24  0  0  0  0  0  0  0  0999 V2000
   37.3000   31.2350   44.7130 C   0  0  0  0  0  0  0  0  0  0  0  0
   36.9290   30.6920   45.9710 C   0  0  0  0  0  0  0  0  0  0  0  0
   37.6790   31.0380   47.0800 C   0  0  0  0  0  0  0  0  0  0  0  0
   38.7190   31.8730   46.8970 N   0  0  0  0  0  0  0  0  0  0  0  0
   39.0570   32.3820   45.6920 C   0  0  0  0  0  0  0  0  0  0  0  0
   38.3460   32.0570   44.6210 N   0  0  0  0  0  0  0  0  0  0  0  0
   36.1030   30.0330   46.0910 H   0  0  0  0  0  0  0  0  0  0  0  0
   37.4150   30.5580   48.4320 C   0  0  0  0  0  0  0  0  0  0  0  0
   38.0760   31.0400   49.5400 C   0  0  0  0  0  0  0  0  0  0  0  0
   37.8360   30.5940   50.8330 C   0  0  0  0  0  0  0  0  0  0  0  0
   36.8740   29.6000   51.0360 C   0  0  0  0  0  0  0  0  0  0  0  0
   36.7180   29.2830   52.0450 H   0  0  0  0  0  0  0  0  0  0  0  0
   36.2450   29.1510   49.9140 C   0  0  0  0  0  0  0  0  0  0  0  0
   36.4990   29.6030   48.6770 N   0  0  0  0  0  0  0  0  0  0  0  0
   40.2360   33.2880   45.6800 C   0  0  0  0  0  0  0  0  0  0  0  0
   40.3460   33.9320   46.9220 F   0  0  0  0  0  0  0  0  0  0  0  0
   41.3870   32.5630   45.5300 F   0  0  0  0  0  0  0  0  0  0  0  0
   40.1680   34.2190   44.6530 F   0  0  0  0  0  0  0  0  0  0  0  0
   36.5400   30.8770   43.6180 O   0  0  0  0  0  0  0  0  0  0  0  0
   35.4350   31.5720   43.1420 C   0  0  0  0  0  0  0  0  0  0  0  0
   34.2610   31.2400   43.8150 F   0  0  0  0  0  0  0  0  0  0  0  0
   35.5980   32.9360   43.0970 F   0  0  0  0  0  0  0  0  0  0  0  0
   35.2610   31.1530   41.8220 F   0  0  0  0  0  0  0  0  0  0  0  0
  1  2  1  0  0  0  0
  2  7  1  0  0  0  0
  2  3  2  0  0  0  0
  3  8  1  0  0  0  0
  4  3  1  0  0  0  0
  5  4  2  0  0  0  0
  6  1  2  0  0  0  0
  6  5  1  0  0  0  0
  8 14  2  0  0  0  0
  8  9  1  0  0  0  0
  9 10  2  0  0  0  0
 10 11  1  0  0  0  0
 11 12  1  0  0  0  0
 13 11  2  0  0  0  0
 14 13  1  0  0  0  0
 15  5  1  0  0  0  0
 15 16  1  0  0  0  0
 17 15  1  0  0  0  0
 18 15  1  0  0  0  0
 19  1  1  0  0  0  0
 20 19  1  0  0  0  0
 20 21  1  0  0  0  0
 22 20  1  0  0  0  0
 23 20  1  0  0  0  0
M  END
>  <minimizedAffinity>
-6.02116203

>  <minimizedRMSD>
5.24248314

$$$$
