
 OpenBabel03252514023D

 32 35  0  0  1  0  0  0  0  0999 V2000
   35.3370   29.4480   49.0260 C   0  0  2  0  0  0  0  0  0  0  0  0
   34.2200   29.4180   49.9780 C   0  0  0  0  0  0  0  0  0  0  0  0
   34.5760   28.1490   49.3610 C   0  0  1  0  0  0  0  0  0  0  0  0
   35.2310   29.8300   48.0030 H   0  0  0  0  0  0  0  0  0  0  0  0
   33.2350   29.9020   49.7100 H   0  0  0  0  0  0  0  0  0  0  0  0
   34.4710   29.6270   51.0460 H   0  0  0  0  0  0  0  0  0  0  0  0
   35.2370   27.3620   49.7330 H   0  0  0  0  0  0  0  0  0  0  0  0
   36.7560   29.4260   49.5940 C   0  0  0  0  0  0  0  0  0  0  0  0
   36.6560   29.4540   50.6960 H   0  0  0  0  0  0  0  0  0  0  0  0
   37.2740   28.4990   49.3210 H   0  0  0  0  0  0  0  0  0  0  0  0
   37.9400   32.8900   49.4380 C   0  0  0  0  0  0  0  0  0  0  0  0
   38.7120   32.9050   48.2650 C   0  0  0  0  0  0  0  0  0  0  0  0
   38.8160   31.7090   47.5340 C   0  0  0  0  0  0  0  0  0  0  0  0
   38.1620   30.5990   48.0070 N   0  0  0  0  0  0  0  0  0  0  0  0
   37.4380   30.6360   49.1310 C   0  0  0  0  0  0  0  0  0  0  0  0
   37.3360   31.7870   49.8360 N   0  0  0  0  0  0  0  0  0  0  0  0
   37.9310   33.8600   49.9150 H   0  0  0  0  0  0  0  0  0  0  0  0
   39.2570   33.7290   47.8240 H   0  0  0  0  0  0  0  0  0  0  0  0
   39.3950   31.6350   46.6150 H   0  0  0  0  0  0  0  0  0  0  0  0
   33.6040   27.6420   48.3340 C   0  0  0  0  0  0  0  0  0  0  0  0
   33.9180   26.5020   47.8050 O   0  0  0  0  0  0  0  0  0  0  0  0
   32.4390   28.2710   47.9320 O   0  0  0  0  0  0  0  0  0  0  0  0
   31.1760   27.8290   48.2960 C   0  0  0  0  0  0  0  0  0  0  0  0
   30.5730   27.6600   49.5420 C   0  0  0  0  0  3  0  0  0  0  0  0
   29.3210   27.1990   49.3580 N   0  0  0  0  0  0  0  0  0  0  0  0
   29.1060   27.0680   48.0330 C   0  0  0  0  0  0  0  0  0  0  0  0
   27.9490   26.6240   47.3820 C   0  0  0  0  0  3  0  0  0  0  0  0
   27.9550   26.5710   45.9960 C   0  0  0  0  0  3  0  0  0  0  0  0
   29.0910   26.9540   45.2870 C   0  0  0  0  0  3  0  0  0  0  0  0
   30.2160   27.3880   45.9530 C   0  0  0  0  0  3  0  0  0  0  0  0
   30.2390   27.4520   47.3470 C   0  0  0  0  0  0  0  0  0  0  0  0
   28.6610   26.9910   50.1520 H   0  0  0  0  0  0  0  0  0  0  0  0
  1  4  1  6  0  0  0
  1  3  1  0  0  0  0
  1  8  1  0  0  0  0
  1  2  1  0  0  0  0
  2  6  1  0  0  0  0
  3  7  1  1  0  0  0
  3  2  1  0  0  0  0
  5  2  1  0  0  0  0
  8  9  1  0  0  0  0
 10  8  1  0  0  0  0
 11 16  1  0  0  0  0
 11 17  1  0  0  0  0
 12 11  2  0  0  0  0
 13 14  2  0  0  0  0
 13 12  1  0  0  0  0
 14 15  1  0  0  0  0
 15  8  1  0  0  0  0
 15 16  2  0  0  0  0
 18 12  1  0  0  0  0
 19 13  1  0  0  0  0
 20  3  1  0  0  0  0
 21 20  2  0  0  0  0
 22 23  1  0  0  0  0
 22 20  1  0  0  0  0
 23 24  2  0  0  0  0
 25 24  1  0  0  0  0
 25 32  1  0  0  0  0
 26 25  1  0  0  0  0
 27 26  1  0  0  0  0
 28 27  2  0  0  0  0
 29 30  2  0  0  0  0
 29 28  1  0  0  0  0
 30 31  1  0  0  0  0
 31 26  2  0  0  0  0
 31 23  1  0  0  0  0
M  END
>  <minimizedAffinity>
-5.66299248

>  <minimizedRMSD>
1.86791039

$$$$
