
 OpenBabel03252514023D

 32 35  0  0  1  0  0  0  0  0999 V2000
   35.4900   29.4860   49.1800 C   0  0  2  0  0  0  0  0  0  0  0  0
   34.4960   29.4870   50.2600 C   0  0  0  0  0  0  0  0  0  0  0  0
   34.7120   28.2160   49.5830 C   0  0  1  0  0  0  0  0  0  0  0  0
   35.2810   29.8960   48.1840 H   0  0  0  0  0  0  0  0  0  0  0  0
   33.5110   30.0220   50.1230 H   0  0  0  0  0  0  0  0  0  0  0  0
   34.8840   29.6590   51.2930 H   0  0  0  0  0  0  0  0  0  0  0  0
   35.3740   27.3910   49.8590 H   0  0  0  0  0  0  0  0  0  0  0  0
   36.9650   29.3840   49.5700 C   0  0  0  0  0  0  0  0  0  0  0  0
   37.0000   29.3950   50.6760 H   0  0  0  0  0  0  0  0  0  0  0  0
   37.3990   28.4390   49.2240 H   0  0  0  0  0  0  0  0  0  0  0  0
   38.4130   32.7440   49.3710 C   0  0  0  0  0  0  0  0  0  0  0  0
   38.9170   32.7910   48.0620 C   0  0  0  0  0  0  0  0  0  0  0  0
   38.7510   31.6530   47.2540 C   0  0  0  0  0  0  0  0  0  0  0  0
   38.1090   30.5640   47.7900 N   0  0  0  0  0  0  0  0  0  0  0  0
   37.6450   30.5690   49.0440 C   0  0  0  0  0  0  0  0  0  0  0  0
   37.8050   31.6650   49.8230 N   0  0  0  0  0  0  0  0  0  0  0  0
   38.5970   33.6700   49.8970 H   0  0  0  0  0  0  0  0  0  0  0  0
   39.4330   33.6020   47.5640 H   0  0  0  0  0  0  0  0  0  0  0  0
   39.1120   31.6060   46.2290 H   0  0  0  0  0  0  0  0  0  0  0  0
   33.5990   27.7800   48.6740 C   0  0  0  0  0  0  0  0  0  0  0  0
   33.9610   26.9880   47.7130 O   0  0  0  0  0  0  0  0  0  0  0  0
   32.2670   28.1360   48.7840 O   0  0  0  0  0  0  0  0  0  0  0  0
   31.2890   27.6910   47.9070 C   0  0  0  0  0  0  0  0  0  0  0  0
   30.4550   26.5740   47.9320 C   0  0  0  0  0  3  0  0  0  0  0  0
   29.6730   26.5930   46.8340 N   0  0  0  0  0  0  0  0  0  0  0  0
   29.9840   27.6860   46.1100 C   0  0  0  0  0  0  0  0  0  0  0  0
   29.4270   28.1090   44.8970 C   0  0  0  0  0  3  0  0  0  0  0  0
   29.9080   29.2800   44.3270 C   0  0  0  0  0  3  0  0  0  0  0  0
   30.9170   30.0010   44.9590 C   0  0  0  0  0  3  0  0  0  0  0  0
   31.4480   29.5620   46.1520 C   0  0  0  0  0  3  0  0  0  0  0  0
   30.9840   28.3900   46.7490 C   0  0  0  0  0  0  0  0  0  0  0  0
   28.9560   25.8510   46.6260 H   0  0  0  0  0  0  0  0  0  0  0  0
  1  4  1  6  0  0  0
  1  8  1  0  0  0  0
  1  3  1  0  0  0  0
  1  2  1  0  0  0  0
  2  6  1  0  0  0  0
  3  7  1  1  0  0  0
  3  2  1  0  0  0  0
  5  2  1  0  0  0  0
  8  9  1  0  0  0  0
 10  8  1  0  0  0  0
 11 16  1  0  0  0  0
 11 17  1  0  0  0  0
 12 11  2  0  0  0  0
 13 14  2  0  0  0  0
 13 12  1  0  0  0  0
 14 15  1  0  0  0  0
 15  8  1  0  0  0  0
 15 16  2  0  0  0  0
 18 12  1  0  0  0  0
 19 13  1  0  0  0  0
 20 22  1  0  0  0  0
 20  3  1  0  0  0  0
 21 20  2  0  0  0  0
 23 24  2  0  0  0  0
 23 22  1  0  0  0  0
 25 24  1  0  0  0  0
 26 31  1  0  0  0  0
 26 25  1  0  0  0  0
 27 26  2  0  0  0  0
 28 27  1  0  0  0  0
 28 29  2  0  0  0  0
 29 30  1  0  0  0  0
 30 31  2  0  0  0  0
 31 23  1  0  0  0  0
 32 25  1  0  0  0  0
M  END
>  <minimizedAffinity>
-5.17224884

>  <minimizedRMSD>
0.526827693

$$$$
