
 OpenBabel03252511413D

 31 33  0  0  1  0  0  0  0  0999 V2000
   35.6670   29.1070   48.9490 C   0  0  0  0  0  0  0  0  0  0  0  0
   35.3980   28.1760   49.5200 H   0  0  0  0  0  0  0  0  0  0  0  0
   36.6730   28.7880   48.5150 H   0  0  0  0  0  0  0  0  0  0  0  0
   34.8430   29.3680   47.8240 C   0  0  0  0  0  0  0  0  0  0  0  0
   34.9240   30.0250   46.6260 C   0  0  0  0  0  0  0  0  0  0  0  0
   33.7770   29.9340   45.9120 N   0  0  0  0  0  0  0  0  0  0  0  0
   32.9220   29.2120   46.6320 C   0  0  0  0  0  0  0  0  0  0  0  0
   33.5670   28.8690   47.7900 N   0  0  0  0  0  0  0  0  0  0  0  0
   35.8610   30.5440   46.3590 H   0  0  0  0  0  0  0  0  0  0  0  0
   31.9150   28.9580   46.3390 H   0  0  0  0  0  0  0  0  0  0  0  0
   32.8620   28.0560   48.7940 C   0  0  0  0  0  0  0  0  0  0  0  0
   32.9160   28.5180   49.7970 H   0  0  0  0  0  0  0  0  0  0  0  0
   33.3740   27.0780   48.9240 H   0  0  0  0  0  0  0  0  0  0  0  0
   31.4420   27.7770   48.4480 C   0  0  0  0  0  0  0  0  0  0  0  0
   30.4090   27.7500   49.5410 C   0  0  0  0  0  0  0  0  0  0  0  0
   30.7310   26.5270   48.6980 C   0  0  0  0  0  0  0  0  0  0  0  0
   35.9840   30.1770   49.8790 C   0  0  2  0  0  0  0  0  0  0  0  0
   35.1630   30.8110   50.2450 H   0  0  0  0  0  0  0  0  0  0  0  0
   37.0380   31.1190   49.3400 C   0  0  0  0  0  0  0  0  0  0  0  0
   37.0630   32.4100   49.8580 C   0  0  0  0  0  0  0  0  0  0  0  0
   38.0460   33.2550   49.3070 C   0  0  0  0  0  0  0  0  0  0  0  0
   38.8760   32.7880   48.3460 N   0  0  0  0  0  0  0  0  0  0  0  0
   38.8180   31.4980   47.8600 C   0  0  0  0  0  0  0  0  0  0  0  0
   37.8780   30.6620   48.3760 N   0  0  0  0  0  0  0  0  0  0  0  0
   36.3860   32.7290   50.6160 H   0  0  0  0  0  0  0  0  0  0  0  0
   38.1330   34.2690   49.6520 H   0  0  0  0  0  0  0  0  0  0  0  0
   39.5040   31.2010   47.1040 H   0  0  0  0  0  0  0  0  0  0  0  0
   36.5790   29.5170   51.1810 C   0  0  0  0  0  0  0  0  0  0  0  0
   37.3790   30.1890   51.5450 H   0  0  0  0  0  0  0  0  0  0  0  0
   36.9920   28.5420   50.8970 H   0  0  0  0  0  0  0  0  0  0  0  0
   35.7440   29.3930   51.9020 H   0  0  0  0  0  0  0  0  0  0  0  0
  1  2  1  0  0  0  0
  1 17  1  0  0  0  0
  3  1  1  0  0  0  0
  4  1  1  0  0  0  0
  5  4  2  0  0  0  0
  6  5  1  0  0  0  0
  6  7  2  0  0  0  0
  7  8  1  0  0  0  0
  8  4  1  0  0  0  0
  8 11  1  0  0  0  0
  9  5  1  0  0  0  0
 10  7  1  0  0  0  0
 11 13  1  0  0  0  0
 11 12  1  0  0  0  0
 14 16  1  0  0  0  0
 14 11  1  0  0  0  0
 14 15  1  0  0  0  0
 16 15  1  0  0  0  0
 17 18  1  1  0  0  0
 17 28  1  0  0  0  0
 19 20  1  0  0  0  0
 19 17  1  0  0  0  0
 20 25  1  0  0  0  0
 21 26  1  0  0  0  0
 21 20  2  0  0  0  0
 22 21  1  0  0  0  0
 23 22  2  0  0  0  0
 23 24  1  0  0  0  0
 24 19  2  0  0  0  0
 27 23  1  0  0  0  0
 28 29  1  0  0  0  0
 28 31  1  0  0  0  0
 30 28  1  0  0  0  0
M  END
>  <minimizedAffinity>
-5.05063152

>  <minimizedRMSD>
1.03109384

$$$$
