
 OpenBabel03252514023D

 32 35  0  0  1  0  0  0  0  0999 V2000
   35.4900   29.4850   49.1810 C   0  0  2  0  0  0  0  0  0  0  0  0
   34.4960   29.4860   50.2600 C   0  0  0  0  0  0  0  0  0  0  0  0
   34.7120   28.2160   49.5830 C   0  0  1  0  0  0  0  0  0  0  0  0
   35.2800   29.8960   48.1850 H   0  0  0  0  0  0  0  0  0  0  0  0
   33.5110   30.0220   50.1230 H   0  0  0  0  0  0  0  0  0  0  0  0
   34.8840   29.6580   51.2930 H   0  0  0  0  0  0  0  0  0  0  0  0
   35.3730   27.3910   49.8590 H   0  0  0  0  0  0  0  0  0  0  0  0
   36.9640   29.3840   49.5710 C   0  0  0  0  0  0  0  0  0  0  0  0
   37.0000   29.3950   50.6770 H   0  0  0  0  0  0  0  0  0  0  0  0
   37.3990   28.4380   49.2240 H   0  0  0  0  0  0  0  0  0  0  0  0
   38.4130   32.7440   49.3710 C   0  0  0  0  0  0  0  0  0  0  0  0
   38.9170   32.7900   48.0620 C   0  0  0  0  0  0  0  0  0  0  0  0
   38.7510   31.6520   47.2540 C   0  0  0  0  0  0  0  0  0  0  0  0
   38.1080   30.5630   47.7900 N   0  0  0  0  0  0  0  0  0  0  0  0
   37.6450   30.5680   49.0440 C   0  0  0  0  0  0  0  0  0  0  0  0
   37.8050   31.6650   49.8230 N   0  0  0  0  0  0  0  0  0  0  0  0
   38.5970   33.6700   49.8970 H   0  0  0  0  0  0  0  0  0  0  0  0
   39.4330   33.6010   47.5640 H   0  0  0  0  0  0  0  0  0  0  0  0
   39.1120   31.6050   46.2290 H   0  0  0  0  0  0  0  0  0  0  0  0
   33.5990   27.7790   48.6740 C   0  0  0  0  0  0  0  0  0  0  0  0
   33.9610   26.9890   47.7130 O   0  0  0  0  0  0  0  0  0  0  0  0
   32.2660   28.1350   48.7850 O   0  0  0  0  0  0  0  0  0  0  0  0
   31.2890   27.6910   47.9060 C   0  0  0  0  0  0  0  0  0  0  0  0
   30.4540   26.5740   47.9310 C   0  0  0  0  0  3  0  0  0  0  0  0
   29.6740   26.5930   46.8340 N   0  0  0  0  0  0  0  0  0  0  0  0
   29.9840   27.6870   46.1090 C   0  0  0  0  0  0  0  0  0  0  0  0
   29.4280   28.1100   44.8960 C   0  0  0  0  0  3  0  0  0  0  0  0
   29.9090   29.2800   44.3260 C   0  0  0  0  0  3  0  0  0  0  0  0
   30.9190   30.0010   44.9590 C   0  0  0  0  0  3  0  0  0  0  0  0
   31.4480   29.5620   46.1530 C   0  0  0  0  0  3  0  0  0  0  0  0
   30.9840   28.3890   46.7490 C   0  0  0  0  0  0  0  0  0  0  0  0
   28.9550   25.8520   46.6240 H   0  0  0  0  0  0  0  0  0  0  0  0
  1  4  1  6  0  0  0
  1  8  1  0  0  0  0
  1  3  1  0  0  0  0
  1  2  1  0  0  0  0
  2  6  1  0  0  0  0
  3  7  1  1  0  0  0
  3  2  1  0  0  0  0
  5  2  1  0  0  0  0
  8  9  1  0  0  0  0
 10  8  1  0  0  0  0
 11 16  1  0  0  0  0
 11 17  1  0  0  0  0
 12 11  2  0  0  0  0
 13 14  2  0  0  0  0
 13 12  1  0  0  0  0
 14 15  1  0  0  0  0
 15  8  1  0  0  0  0
 15 16  2  0  0  0  0
 18 12  1  0  0  0  0
 19 13  1  0  0  0  0
 20 22  1  0  0  0  0
 20  3  1  0  0  0  0
 21 20  2  0  0  0  0
 23 24  2  0  0  0  0
 23 22  1  0  0  0  0
 25 24  1  0  0  0  0
 26 31  1  0  0  0  0
 26 25  1  0  0  0  0
 27 26  2  0  0  0  0
 28 27  1  0  0  0  0
 28 29  2  0  0  0  0
 29 30  1  0  0  0  0
 30 31  2  0  0  0  0
 31 23  1  0  0  0  0
 32 25  1  0  0  0  0
M  END
>  <minimizedAffinity>
-5.17222261

>  <minimizedRMSD>
0.390778154

$$$$
