
 OpenBabel03252511423D

 33 35  0  0  1  0  0  0  0  0999 V2000
   36.3260   31.0840   48.2090 C   0  0  1  0  0  0  0  0  0  0  0  0
   35.5730   31.8620   47.9920 H   0  0  0  0  0  0  0  0  0  0  0  0
   37.6320   31.3590   47.5070 C   0  0  0  0  0  0  0  0  0  0  0  0
   38.3480   32.4810   47.8690 C   0  0  0  0  0  0  0  0  0  0  0  0
   39.5550   32.6920   47.1540 C   0  0  0  0  0  0  0  0  0  0  0  0
   39.9270   31.8230   46.1960 N   0  0  0  0  0  0  0  0  0  0  0  0
   39.1900   30.7080   45.8550 C   0  0  0  0  0  0  0  0  0  0  0  0
   38.0330   30.4890   46.5280 N   0  0  0  0  0  0  0  0  0  0  0  0
   37.9670   33.1070   48.6410 H   0  0  0  0  0  0  0  0  0  0  0  0
   40.1240   33.5480   47.4130 H   0  0  0  0  0  0  0  0  0  0  0  0
   39.5660   30.0800   45.0840 H   0  0  0  0  0  0  0  0  0  0  0  0
   35.8520   29.7360   48.0130 C   0  0  0  0  0  0  0  0  0  0  0  0
   36.7190   29.1590   47.5480 H   0  0  0  0  0  0  0  0  0  0  0  0
   35.7840   29.2030   49.0110 H   0  0  0  0  0  0  0  0  0  0  0  0
   34.7530   29.4930   47.1620 C   0  0  0  0  0  0  0  0  0  0  0  0
   34.4040   29.7230   45.8610 C   0  0  0  0  0  0  0  0  0  0  0  0
   33.1720   29.2340   45.5660 N   0  0  0  0  0  0  0  0  0  0  0  0
   32.6750   28.6690   46.6630 C   0  0  0  0  0  0  0  0  0  0  0  0
   33.6440   28.8320   47.6270 N   0  0  0  0  0  0  0  0  0  0  0  0
   35.0980   30.2520   45.1870 H   0  0  0  0  0  0  0  0  0  0  0  0
   31.7250   28.1800   46.8040 H   0  0  0  0  0  0  0  0  0  0  0  0
   33.4170   28.3090   49.0040 C   0  0  0  0  0  0  0  0  0  0  0  0
   33.9470   28.9700   49.7030 H   0  0  0  0  0  0  0  0  0  0  0  0
   33.8220   27.2920   49.0130 H   0  0  0  0  0  0  0  0  0  0  0  0
   32.0220   28.3340   49.3330 N   0  0  0  0  0  0  0  0  0  0  0  0
   31.6690   29.3140   49.3160 H   0  0  0  0  0  0  0  0  0  0  0  0
   31.4390   27.6790   48.7660 H   0  0  0  0  0  0  0  0  0  0  0  0
   36.6070   31.2600   49.7620 C   0  0  0  0  0  0  0  0  0  0  0  0
   35.6990   31.6770   50.2040 H   0  0  0  0  0  0  0  0  0  0  0  0
   37.4270   32.0010   49.7910 H   0  0  0  0  0  0  0  0  0  0  0  0
   37.0430   29.9600   50.3470 C   0  0  0  0  0  0  0  0  0  0  0  0
   37.4980   29.9050   51.7980 C   0  0  0  0  0  0  0  0  0  0  0  0
   36.1090   29.4460   51.4410 C   0  0  0  0  0  0  0  0  0  0  0  0
  1  2  1  6  0  0  0
  1 28  1  0  0  0  0
  3  4  1  0  0  0  0
  3  1  1  0  0  0  0
  4  9  1  0  0  0  0
  5 10  1  0  0  0  0
  5  4  2  0  0  0  0
  6  5  1  0  0  0  0
  7  6  2  0  0  0  0
  7  8  1  0  0  0  0
  8  3  2  0  0  0  0
 11  7  1  0  0  0  0
 12  1  1  0  0  0  0
 12 14  1  0  0  0  0
 13 12  1  0  0  0  0
 15 19  1  0  0  0  0
 15 12  1  0  0  0  0
 16 15  2  0  0  0  0
 17 16  1  0  0  0  0
 17 18  2  0  0  0  0
 18 21  1  0  0  0  0
 18 19  1  0  0  0  0
 19 22  1  0  0  0  0
 20 16  1  0  0  0  0
 22 24  1  0  0  0  0
 22 25  1  0  0  0  0
 22 23  1  0  0  0  0
 26 25  1  0  0  0  0
 27 25  1  0  0  0  0
 28 30  1  0  0  0  0
 28 29  1  0  0  0  0
 28 31  1  0  0  0  0
 31 33  1  0  0  0  0
 31 32  1  0  0  0  0
 33 32  1  0  0  0  0
M  END
>  <minimizedAffinity>
-5.00829363

>  <minimizedRMSD>
1.77737498

$$$$
