
 OpenBabel03252514043D

 35 38  0  0  1  0  0  0  0  0999 V2000
   35.2260   29.1430   48.5110 C   0  0  2  0  0  0  0  0  0  0  0  0
   33.9760   29.4700   49.1900 C   0  0  0  0  0  0  0  0  0  0  0  0
   34.2430   28.0660   49.0760 C   0  0  1  0  0  0  0  0  0  0  0  0
   35.3600   29.1030   47.4280 H   0  0  0  0  0  0  0  0  0  0  0  0
   33.1590   29.9770   48.6160 H   0  0  0  0  0  0  0  0  0  0  0  0
   34.0670   29.9400   50.2140 H   0  0  0  0  0  0  0  0  0  0  0  0
   34.7090   27.4070   49.8070 H   0  0  0  0  0  0  0  0  0  0  0  0
   36.5010   29.2030   49.3690 C   0  0  0  0  0  0  0  0  0  0  0  0
   36.2360   29.0810   50.4400 H   0  0  0  0  0  0  0  0  0  0  0  0
   37.1230   28.3260   49.0210 H   0  0  0  0  0  0  0  0  0  0  0  0
   37.5540   32.6910   49.6070 C   0  0  0  0  0  0  0  0  0  0  0  0
   38.4470   32.8200   48.5320 C   0  0  0  0  0  0  0  0  0  0  0  0
   38.6770   31.6810   47.7280 C   0  0  0  0  0  0  0  0  0  0  0  0
   38.0160   30.5210   48.0430 N   0  0  0  0  0  0  0  0  0  0  0  0
   37.1770   30.4550   49.0790 C   0  0  0  0  0  0  0  0  0  0  0  0
   36.9500   31.5480   49.8600 N   0  0  0  0  0  0  0  0  0  0  0  0
   37.4560   33.6060   50.1440 H   0  0  0  0  0  0  0  0  0  0  0  0
   39.0050   33.6690   48.2070 H   0  0  0  0  0  0  0  0  0  0  0  0
   39.3270   31.6250   46.8770 H   0  0  0  0  0  0  0  0  0  0  0  0
   33.4130   27.3280   48.0430 C   0  0  0  0  0  0  0  0  0  0  0  0
   33.7940   26.1050   47.8680 O   0  0  0  0  0  0  0  0  0  0  0  0
   32.3370   27.8380   47.3210 O   0  0  0  0  0  0  0  0  0  0  0  0
   31.1030   28.0680   47.8710 C   0  0  0  0  0  0  0  0  0  0  0  0
   30.6790   27.6490   49.2280 C   0  0  0  0  0  0  0  0  0  0  0  0
   29.4250   27.9570   49.6180 C   0  0  0  0  0  0  0  0  0  0  0  0
   28.5390   28.6490   48.7790 C   0  0  0  0  0  0  0  0  0  0  0  0
   29.5350   28.9280   47.2360 S   0  0  0  0  0  0  0  0  0  0  0  0
   31.4060   27.1230   49.8190 H   0  0  0  0  0  0  0  0  0  0  0  0
   29.0370   27.6900   50.5850 H   0  0  0  0  0  0  0  0  0  0  0  0
   27.2420   29.0850   48.9080 C   0  0  0  0  0  0  0  0  0  0  0  0
   26.9330   30.4780   48.6930 C   0  0  0  0  0  3  0  0  0  0  0  0
   25.1410   30.5170   48.9780 S   0  0  0  0  0  0  0  0  0  0  0  0
   25.0920   28.6510   49.3410 C   0  0  0  0  0  0  0  0  0  0  0  0
   24.1940   27.9460   49.6220 H   0  0  0  0  0  0  0  0  0  0  0  0
   26.1750   28.3750   49.2170 N   0  0  0  0  0  0  0  0  0  0  0  0
  1  4  1  6  0  0  0
  1  3  1  0  0  0  0
  1  2  1  0  0  0  0
  1  8  1  0  0  0  0
  2  6  1  0  0  0  0
  3  2  1  0  0  0  0
  3  7  1  1  0  0  0
  5  2  1  0  0  0  0
  8  9  1  0  0  0  0
 10  8  1  0  0  0  0
 11 16  1  0  0  0  0
 11 17  1  0  0  0  0
 12 11  2  0  0  0  0
 13 14  2  0  0  0  0
 13 12  1  0  0  0  0
 14 15  1  0  0  0  0
 15  8  1  0  0  0  0
 15 16  2  0  0  0  0
 18 12  1  0  0  0  0
 19 13  1  0  0  0  0
 20  3  1  0  0  0  0
 21 20  2  0  0  0  0
 22 23  1  0  0  0  0
 22 20  1  0  0  0  0
 23 24  2  0  0  0  0
 24 25  1  0  0  0  0
 24 28  1  0  0  0  0
 25 29  1  0  0  0  0
 26 30  1  0  0  0  0
 26 25  2  0  0  0  0
 27 23  1  0  0  0  0
 27 26  1  0  0  0  0
 30 35  1  0  0  0  0
 31 30  2  0  0  0  0
 31 32  1  0  0  0  0
 32 33  1  0  0  0  0
 33 34  1  0  0  0  0
 35 33  2  0  0  0  0
M  END
>  <minimizedAffinity>
-6.03199434

>  <minimizedRMSD>
1.7523483

$$$$
