
 OpenBabel03252512343D

 39 42  0  0  1  0  0  0  0  0999 V2000
   31.8500   27.9030   46.9960 C   0  0  2  0  0  0  0  0  0  0  0  0
   32.0220   26.8250   46.7240 H   0  0  0  0  0  0  0  0  0  0  0  0
   35.1830   29.5220   48.6670 C   0  0  0  0  0  0  0  0  0  0  0  0
   34.7810   28.3420   49.2810 C   0  0  0  0  0  0  0  0  0  0  0  0
   33.6590   27.7510   48.7790 C   0  0  0  0  0  0  0  0  0  0  0  0
   33.0430   28.3180   47.7710 C   0  0  0  0  0  0  0  0  0  0  0  0
   33.9780   29.8310   47.3560 S   0  0  0  0  0  0  0  0  0  0  0  0
   35.3770   27.9520   50.1250 H   0  0  0  0  0  0  0  0  0  0  0  0
   33.2660   26.8180   49.1970 H   0  0  0  0  0  0  0  0  0  0  0  0
   38.0570   30.8730   50.5250 C   0  0  0  0  0  0  0  0  0  0  0  0
   38.5880   31.8220   49.6370 C   0  0  0  0  0  0  0  0  0  0  0  0
   37.9450   31.9840   48.4200 C   0  0  0  0  0  0  0  0  0  0  0  0
   36.8520   31.2360   48.1370 N   0  0  0  0  0  0  0  0  0  0  0  0
   36.3920   30.3430   49.0290 C   0  0  0  0  0  0  0  0  0  0  0  0
   36.9540   30.1060   50.2620 N   0  0  0  0  0  0  0  0  0  0  0  0
   38.5260   30.7100   51.4900 H   0  0  0  0  0  0  0  0  0  0  0  0
   39.4670   32.3650   49.9650 H   0  0  0  0  0  0  0  0  0  0  0  0
   38.3540   32.7160   47.7340 H   0  0  0  0  0  0  0  0  0  0  0  0
   31.6780   28.7350   45.8280 C   0  0  0  0  0  0  0  0  0  0  0  0
   32.5990   29.3330   45.5660 H   0  0  0  0  0  0  0  0  0  0  0  0
   31.3270   28.1860   44.9210 H   0  0  0  0  0  0  0  0  0  0  0  0
   30.8940   29.5020   46.0190 H   0  0  0  0  0  0  0  0  0  0  0  0
   30.6670   27.8490   47.9520 C   0  0  0  0  0  0  0  0  0  0  0  0
   30.0200   28.7340   47.6980 H   0  0  0  0  0  0  0  0  0  0  0  0
   31.0000   28.0080   48.9980 H   0  0  0  0  0  0  0  0  0  0  0  0
   29.9590   26.6990   47.8700 O   0  0  0  0  0  0  0  0  0  0  0  0
   29.2350   26.3430   46.7500 C   0  0  0  0  0  0  0  0  0  0  0  0
   29.0490   25.2540   45.9450 C   0  0  0  0  0  0  0  0  0  0  0  0
   28.1480   25.6520   44.9850 C   0  0  0  0  0  0  0  0  0  0  0  0
   27.8110   26.9780   45.2370 C   0  0  0  0  0  0  0  0  0  0  0  0
   28.5020   27.3120   46.3030 O   0  0  0  0  0  0  0  0  0  0  0  0
   29.5770   24.3580   46.1630 H   0  0  0  0  0  0  0  0  0  0  0  0
   27.7970   25.0160   44.2020 H   0  0  0  0  0  0  0  0  0  0  0  0
   26.8680   27.8070   44.4480 C   0  0  0  0  0  0  0  0  0  0  0  0
   27.1820   29.1030   44.0520 C   0  0  0  0  0  0  0  0  0  0  0  0
   25.6730   29.6250   43.1230 S   0  0  0  0  0  0  0  0  0  0  0  0
   24.8710   27.9360   43.4550 C   0  0  0  0  0  0  0  0  0  0  0  0
   23.8500   27.4890   43.1630 H   0  0  0  0  0  0  0  0  0  0  0  0
   25.6630   27.3920   44.0550 N   0  0  0  0  0  0  0  0  0  0  0  0
  1  2  1  6  0  0  0
  1  6  1  0  0  0  0
  1 23  1  0  0  0  0
  3 14  1  0  0  0  0
  3  4  2  0  0  0  0
  4  8  1  0  0  0  0
  5  9  1  0  0  0  0
  5  4  1  0  0  0  0
  6  5  2  0  0  0  0
  7  6  1  0  0  0  0
  7  3  1  0  0  0  0
 10 16  1  0  0  0  0
 11 17  1  0  0  0  0
 11 10  2  0  0  0  0
 12 11  1  0  0  0  0
 13 12  2  0  0  0  0
 13 14  1  0  0  0  0
 14 15  2  0  0  0  0
 15 10  1  0  0  0  0
 18 12  1  0  0  0  0
 19 22  1  0  0  0  0
 19  1  1  0  0  0  0
 20 19  1  0  0  0  0
 21 19  1  0  0  0  0
 23 25  1  0  0  0  0
 24 23  1  0  0  0  0
 26 23  1  0  0  0  0
 27 26  1  0  0  0  0
 28 32  1  0  0  0  0
 28 27  2  0  0  0  0
 29 30  2  0  0  0  0
 29 28  1  0  0  0  0
 30 31  1  0  0  0  0
 31 27  1  0  0  0  0
 33 29  1  0  0  0  0
 34 30  1  0  0  0  0
 35 34  2  0  0  0  0
 36 37  1  0  0  0  0
 36 35  1  0  0  0  0
 37 39  2  0  0  0  0
 38 37  1  0  0  0  0
 39 34  1  0  0  0  0
M  END
>  <minimizedAffinity>
-5.03101826

>  <minimizedRMSD>
0.287051171

$$$$
