
 OpenBabel03252514013D

 32 35  0  0  1  0  0  0  0  0999 V2000
   35.6190   29.7530   49.6250 C   0  0  2  0  0  0  0  0  0  0  0  0
   34.8340   29.1700   50.7200 C   0  0  0  0  0  0  0  0  0  0  0  0
   34.8520   28.4240   49.4700 C   0  0  1  0  0  0  0  0  0  0  0  0
   35.2610   30.6000   49.0280 H   0  0  0  0  0  0  0  0  0  0  0  0
   33.8730   29.6620   51.0520 H   0  0  0  0  0  0  0  0  0  0  0  0
   35.4080   28.8130   51.6090 H   0  0  0  0  0  0  0  0  0  0  0  0
   35.5030   27.5990   49.1680 H   0  0  0  0  0  0  0  0  0  0  0  0
   37.1310   29.5260   49.6360 C   0  0  0  0  0  0  0  0  0  0  0  0
   37.4250   29.4020   50.6950 H   0  0  0  0  0  0  0  0  0  0  0  0
   37.3950   28.6080   49.0980 H   0  0  0  0  0  0  0  0  0  0  0  0
   38.4010   32.9530   49.3590 C   0  0  0  0  0  0  0  0  0  0  0  0
   38.9440   32.9820   48.0650 C   0  0  0  0  0  0  0  0  0  0  0  0
   38.8650   31.8100   47.2940 C   0  0  0  0  0  0  0  0  0  0  0  0
   38.2660   30.7060   47.8490 N   0  0  0  0  0  0  0  0  0  0  0  0
   37.7630   30.7280   49.0880 C   0  0  0  0  0  0  0  0  0  0  0  0
   37.8380   31.8580   49.8310 N   0  0  0  0  0  0  0  0  0  0  0  0
   38.5180   33.9050   49.8570 H   0  0  0  0  0  0  0  0  0  0  0  0
   39.4300   33.8030   47.5540 H   0  0  0  0  0  0  0  0  0  0  0  0
   39.2620   31.7470   46.2830 H   0  0  0  0  0  0  0  0  0  0  0  0
   33.5720   28.4620   48.6850 C   0  0  0  0  0  0  0  0  0  0  0  0
   33.6710   28.9990   47.5100 O   0  0  0  0  0  0  0  0  0  0  0  0
   32.3450   27.9760   49.1000 O   0  0  0  0  0  0  0  0  0  0  0  0
   31.3660   27.5420   48.2180 C   0  0  0  0  0  0  0  0  0  0  0  0
   30.1990   28.1460   47.7520 C   0  0  0  0  0  3  0  0  0  0  0  0
   29.5860   27.3010   46.9010 N   0  0  0  0  0  0  0  0  0  0  0  0
   30.3240   26.1770   46.8090 C   0  0  0  0  0  0  0  0  0  0  0  0
   30.0710   25.0330   46.0420 C   0  0  0  0  0  3  0  0  0  0  0  0
   30.9800   23.9880   46.1050 C   0  0  0  0  0  3  0  0  0  0  0  0
   32.1090   24.0900   46.9130 C   0  0  0  0  0  3  0  0  0  0  0  0
   32.3340   25.2270   47.6580 C   0  0  0  0  0  3  0  0  0  0  0  0
   31.4370   26.2950   47.6150 C   0  0  0  0  0  0  0  0  0  0  0  0
   28.6790   27.5310   46.4150 H   0  0  0  0  0  0  0  0  0  0  0  0
  1  4  1  6  0  0  0
  1  8  1  0  0  0  0
  1  2  1  0  0  0  0
  2  5  1  0  0  0  0
  2  6  1  0  0  0  0
  3  7  1  6  0  0  0
  3  1  1  0  0  0  0
  3  2  1  0  0  0  0
  8  9  1  0  0  0  0
 10  8  1  0  0  0  0
 11 16  1  0  0  0  0
 11 17  1  0  0  0  0
 12 11  2  0  0  0  0
 13 14  2  0  0  0  0
 13 12  1  0  0  0  0
 14 15  1  0  0  0  0
 15  8  1  0  0  0  0
 15 16  2  0  0  0  0
 18 12  1  0  0  0  0
 19 13  1  0  0  0  0
 20 22  1  0  0  0  0
 20  3  1  0  0  0  0
 21 20  2  0  0  0  0
 23 22  1  0  0  0  0
 24 23  2  0  0  0  0
 25 24  1  0  0  0  0
 26 25  1  0  0  0  0
 26 31  1  0  0  0  0
 27 28  1  0  0  0  0
 27 26  2  0  0  0  0
 28 29  2  0  0  0  0
 29 30  1  0  0  0  0
 31 30  2  0  0  0  0
 31 23  1  0  0  0  0
 32 25  1  0  0  0  0
M  END
>  <minimizedAffinity>
-5.34215164

>  <minimizedRMSD>
0.816593111

$$$$
