
 OpenBabel03252514053D

 35 38  0  0  1  0  0  0  0  0999 V2000
   35.2420   29.1360   48.5430 C   0  0  2  0  0  0  0  0  0  0  0  0
   33.9950   29.3680   49.2660 C   0  0  0  0  0  0  0  0  0  0  0  0
   34.3180   27.9860   49.0620 C   0  0  1  0  0  0  0  0  0  0  0  0
   35.3530   29.1660   47.4580 H   0  0  0  0  0  0  0  0  0  0  0  0
   33.1460   29.8730   48.7400 H   0  0  0  0  0  0  0  0  0  0  0  0
   34.0900   29.7800   50.3140 H   0  0  0  0  0  0  0  0  0  0  0  0
   34.8270   27.3050   49.7430 H   0  0  0  0  0  0  0  0  0  0  0  0
   36.5330   29.1990   49.3780 C   0  0  0  0  0  0  0  0  0  0  0  0
   36.2890   29.0700   50.4530 H   0  0  0  0  0  0  0  0  0  0  0  0
   37.1540   28.3290   49.0140 H   0  0  0  0  0  0  0  0  0  0  0  0
   37.5530   32.6970   49.6060 C   0  0  0  0  0  0  0  0  0  0  0  0
   38.4390   32.8340   48.5260 C   0  0  0  0  0  0  0  0  0  0  0  0
   38.6770   31.6950   47.7230 C   0  0  0  0  0  0  0  0  0  0  0  0
   38.0290   30.5300   48.0440 N   0  0  0  0  0  0  0  0  0  0  0  0
   37.1950   30.4580   49.0830 C   0  0  0  0  0  0  0  0  0  0  0  0
   36.9600   31.5490   49.8630 N   0  0  0  0  0  0  0  0  0  0  0  0
   37.4480   33.6130   50.1410 H   0  0  0  0  0  0  0  0  0  0  0  0
   38.9870   33.6880   48.1970 H   0  0  0  0  0  0  0  0  0  0  0  0
   39.3240   31.6450   46.8700 H   0  0  0  0  0  0  0  0  0  0  0  0
   33.4960   27.2760   48.0040 C   0  0  0  0  0  0  0  0  0  0  0  0
   33.8750   26.0560   47.8030 O   0  0  0  0  0  0  0  0  0  0  0  0
   32.4290   27.8070   47.2830 O   0  0  0  0  0  0  0  0  0  0  0  0
   31.1940   28.0390   47.8280 C   0  0  0  0  0  0  0  0  0  0  0  0
   30.7540   27.5930   49.1720 C   0  0  0  0  0  0  0  0  0  0  0  0
   29.5010   27.9070   49.5590 C   0  0  0  0  0  0  0  0  0  0  0  0
   28.6310   28.6310   48.7300 C   0  0  0  0  0  0  0  0  0  0  0  0
   29.6420   28.9340   47.2030 S   0  0  0  0  0  0  0  0  0  0  0  0
   31.4700   27.0440   49.7560 H   0  0  0  0  0  0  0  0  0  0  0  0
   29.1020   27.6230   50.5170 H   0  0  0  0  0  0  0  0  0  0  0  0
   27.3380   29.0800   48.8600 C   0  0  0  0  0  0  0  0  0  0  0  0
   27.0500   30.4830   48.6920 C   0  0  0  0  0  3  0  0  0  0  0  0
   25.2570   30.5380   48.9570 S   0  0  0  0  0  0  0  0  0  0  0  0
   25.1770   28.6600   49.2530 C   0  0  0  0  0  0  0  0  0  0  0  0
   24.2660   27.9600   49.4980 H   0  0  0  0  0  0  0  0  0  0  0  0
   26.2580   28.3740   49.1310 N   0  0  0  0  0  0  0  0  0  0  0  0
  1  4  1  6  0  0  0
  1  3  1  0  0  0  0
  1  2  1  0  0  0  0
  1  8  1  0  0  0  0
  2  6  1  0  0  0  0
  3  2  1  0  0  0  0
  3  7  1  1  0  0  0
  5  2  1  0  0  0  0
  8  9  1  0  0  0  0
 10  8  1  0  0  0  0
 11 16  1  0  0  0  0
 11 17  1  0  0  0  0
 12 11  2  0  0  0  0
 13 14  2  0  0  0  0
 13 12  1  0  0  0  0
 14 15  1  0  0  0  0
 15  8  1  0  0  0  0
 15 16  2  0  0  0  0
 18 12  1  0  0  0  0
 19 13  1  0  0  0  0
 20  3  1  0  0  0  0
 21 20  2  0  0  0  0
 22 23  1  0  0  0  0
 22 20  1  0  0  0  0
 23 24  2  0  0  0  0
 24 25  1  0  0  0  0
 24 28  1  0  0  0  0
 25 29  1  0  0  0  0
 26 30  1  0  0  0  0
 26 25  2  0  0  0  0
 27 23  1  0  0  0  0
 27 26  1  0  0  0  0
 30 35  1  0  0  0  0
 31 30  2  0  0  0  0
 31 32  1  0  0  0  0
 32 33  1  0  0  0  0
 33 34  1  0  0  0  0
 35 33  2  0  0  0  0
M  END
>  <minimizedAffinity>
-6.02983046

>  <minimizedRMSD>
1.73176789

$$$$
