
 OpenBabel03252514023D

 32 35  0  0  1  0  0  0  0  0999 V2000
   35.6380   29.7720   49.6860 C   0  0  2  0  0  0  0  0  0  0  0  0
   34.8290   29.1920   50.7660 C   0  0  0  0  0  0  0  0  0  0  0  0
   34.8770   28.4400   49.5200 C   0  0  1  0  0  0  0  0  0  0  0  0
   35.2910   30.6160   49.0770 H   0  0  0  0  0  0  0  0  0  0  0  0
   33.8600   29.6830   51.0740 H   0  0  0  0  0  0  0  0  0  0  0  0
   35.3850   28.8410   51.6690 H   0  0  0  0  0  0  0  0  0  0  0  0
   35.5370   27.6160   49.2370 H   0  0  0  0  0  0  0  0  0  0  0  0
   37.1500   29.5500   49.7310 C   0  0  0  0  0  0  0  0  0  0  0  0
   37.4360   29.5470   50.8000 H   0  0  0  0  0  0  0  0  0  0  0  0
   37.4170   28.5770   49.3030 H   0  0  0  0  0  0  0  0  0  0  0  0
   38.5860   32.8690   49.1380 C   0  0  0  0  0  0  0  0  0  0  0  0
   38.9700   32.8070   47.7890 C   0  0  0  0  0  0  0  0  0  0  0  0
   38.7270   31.6110   47.0920 C   0  0  0  0  0  0  0  0  0  0  0  0
   38.1320   30.5750   47.7680 N   0  0  0  0  0  0  0  0  0  0  0  0
   37.7840   30.6830   49.0540 C   0  0  0  0  0  0  0  0  0  0  0  0
   38.0170   31.8350   49.7260 N   0  0  0  0  0  0  0  0  0  0  0  0
   38.8200   33.8310   49.5710 H   0  0  0  0  0  0  0  0  0  0  0  0
   39.4410   33.5710   47.1850 H   0  0  0  0  0  0  0  0  0  0  0  0
   38.9940   31.4800   46.0460 H   0  0  0  0  0  0  0  0  0  0  0  0
   33.6160   28.4700   48.7060 C   0  0  0  0  0  0  0  0  0  0  0  0
   33.7460   28.9760   47.5210 O   0  0  0  0  0  0  0  0  0  0  0  0
   32.3750   28.0080   49.1070 O   0  0  0  0  0  0  0  0  0  0  0  0
   31.4050   27.5730   48.2150 C   0  0  0  0  0  0  0  0  0  0  0  0
   30.2530   28.1840   47.7210 C   0  0  0  0  0  3  0  0  0  0  0  0
   29.6450   27.3360   46.8700 N   0  0  0  0  0  0  0  0  0  0  0  0
   30.3710   26.2010   46.8060 C   0  0  0  0  0  0  0  0  0  0  0  0
   30.1180   25.0500   46.0510 C   0  0  0  0  0  3  0  0  0  0  0  0
   31.0130   23.9950   46.1430 C   0  0  0  0  0  3  0  0  0  0  0  0
   32.1290   24.0960   46.9690 C   0  0  0  0  0  3  0  0  0  0  0  0
   32.3550   25.2400   47.7020 C   0  0  0  0  0  3  0  0  0  0  0  0
   31.4720   26.3170   47.6300 C   0  0  0  0  0  0  0  0  0  0  0  0
   28.7500   27.5690   46.3660 H   0  0  0  0  0  0  0  0  0  0  0  0
  1  4  1  6  0  0  0
  1  8  1  0  0  0  0
  1  2  1  0  0  0  0
  2  5  1  0  0  0  0
  2  6  1  0  0  0  0
  3  7  1  6  0  0  0
  3  1  1  0  0  0  0
  3  2  1  0  0  0  0
  8  9  1  0  0  0  0
 10  8  1  0  0  0  0
 11 17  1  0  0  0  0
 11 16  1  0  0  0  0
 12 11  2  0  0  0  0
 13 14  2  0  0  0  0
 13 12  1  0  0  0  0
 14 15  1  0  0  0  0
 15 16  2  0  0  0  0
 15  8  1  0  0  0  0
 18 12  1  0  0  0  0
 19 13  1  0  0  0  0
 20 22  1  0  0  0  0
 20  3  1  0  0  0  0
 21 20  2  0  0  0  0
 23 22  1  0  0  0  0
 24 23  2  0  0  0  0
 25 24  1  0  0  0  0
 26 25  1  0  0  0  0
 26 31  1  0  0  0  0
 27 28  1  0  0  0  0
 27 26  2  0  0  0  0
 28 29  2  0  0  0  0
 29 30  1  0  0  0  0
 31 30  2  0  0  0  0
 31 23  1  0  0  0  0
 32 25  1  0  0  0  0
M  END
>  <minimizedAffinity>
-5.34755135

>  <minimizedRMSD>
0.739090502

$$$$
