
 OpenBabel03252512303D

 36 39  0  0  1  0  0  0  0  0999 V2000
   31.6390   28.0400   47.0120 C   0  0  2  0  0  0  0  0  0  0  0  0
   31.8250   27.0450   46.5310 H   0  0  0  0  0  0  0  0  0  0  0  0
   35.1060   29.4970   48.6090 C   0  0  0  0  0  0  0  0  0  0  0  0
   34.7170   28.2690   49.1510 C   0  0  0  0  0  0  0  0  0  0  0  0
   33.5750   27.7260   48.6750 C   0  0  0  0  0  0  0  0  0  0  0  0
   32.8960   28.3660   47.7410 C   0  0  0  0  0  0  0  0  0  0  0  0
   33.8260   29.8920   47.3990 S   0  0  0  0  0  0  0  0  0  0  0  0
   35.3650   27.8300   49.9270 H   0  0  0  0  0  0  0  0  0  0  0  0
   33.1890   26.7770   49.0300 H   0  0  0  0  0  0  0  0  0  0  0  0
   38.0020   30.8050   50.4500 C   0  0  0  0  0  0  0  0  0  0  0  0
   38.5450   31.7530   49.5720 C   0  0  0  0  0  0  0  0  0  0  0  0
   37.9070   31.9250   48.3700 C   0  0  0  0  0  0  0  0  0  0  0  0
   36.8010   31.1860   48.0880 N   0  0  0  0  0  0  0  0  0  0  0  0
   36.3250   30.2960   48.9580 C   0  0  0  0  0  0  0  0  0  0  0  0
   36.8890   30.0420   50.1970 N   0  0  0  0  0  0  0  0  0  0  0  0
   38.5120   30.6650   51.4140 H   0  0  0  0  0  0  0  0  0  0  0  0
   39.4200   32.2850   49.8860 H   0  0  0  0  0  0  0  0  0  0  0  0
   38.2900   32.6460   47.6620 H   0  0  0  0  0  0  0  0  0  0  0  0
   31.3280   29.0930   46.0430 C   0  0  0  0  0  0  0  0  0  0  0  0
   32.0960   29.8930   46.0350 H   0  0  0  0  0  0  0  0  0  0  0  0
   31.2010   28.7440   44.9890 H   0  0  0  0  0  0  0  0  0  0  0  0
   30.3600   29.5860   46.3160 H   0  0  0  0  0  0  0  0  0  0  0  0
   30.5590   27.7930   48.0410 C   0  0  0  0  0  0  0  0  0  0  0  0
   30.1300   28.8100   48.2840 H   0  0  0  0  0  0  0  0  0  0  0  0
   30.9750   27.4490   49.0210 H   0  0  0  0  0  0  0  0  0  0  0  0
   29.5710   26.9820   47.6160 O   0  0  0  0  0  0  0  0  0  0  0  0
   28.2980   27.4380   47.3230 C   0  0  0  0  0  0  0  0  0  0  0  0
   27.1960   27.9470   47.9790 C   0  0  0  0  0  0  0  0  0  0  0  0
   26.2090   28.2170   47.1080 N   0  0  0  0  0  0  0  0  0  0  0  0
   26.6290   27.8990   45.8700 C   0  0  0  0  0  0  0  0  0  0  0  0
   25.9150   28.0260   44.6970 C   0  0  0  0  0  0  0  0  0  0  0  0
   26.5230   27.6430   43.5210 C   0  0  0  0  0  0  0  0  0  0  0  0
   27.8060   27.1540   43.5740 C   0  0  0  0  0  0  0  0  0  0  0  0
   28.4870   27.0410   44.7630 C   0  0  0  0  0  0  0  0  0  0  0  0
   27.9290   27.4100   45.9750 C   0  0  0  0  0  0  0  0  0  0  0  0
   25.2940   28.6130   47.4300 H   0  0  0  0  0  0  0  0  0  0  0  0
  1  2  1  6  0  0  0
  1  6  1  0  0  0  0
  1 23  1  0  0  0  0
  3 14  1  0  0  0  0
  3  4  2  0  0  0  0
  4  8  1  0  0  0  0
  5  9  1  0  0  0  0
  5  4  1  0  0  0  0
  6  5  2  0  0  0  0
  7  6  1  0  0  0  0
  7  3  1  0  0  0  0
 10 16  1  0  0  0  0
 11 17  1  0  0  0  0
 11 10  2  0  0  0  0
 12 11  1  0  0  0  0
 13 12  2  0  0  0  0
 13 14  1  0  0  0  0
 14 15  2  0  0  0  0
 15 10  1  0  0  0  0
 18 12  1  0  0  0  0
 19 22  1  0  0  0  0
 19  1  1  0  0  0  0
 20 19  1  0  0  0  0
 21 19  1  0  0  0  0
 23 24  1  0  0  0  0
 23 25  1  0  0  0  0
 26 23  1  0  0  0  0
 27 26  1  0  0  0  0
 27 28  2  0  0  0  0
 29 36  1  0  0  0  0
 29 28  1  0  0  0  0
 30 35  1  0  0  0  0
 30 29  1  0  0  0  0
 31 30  2  0  0  0  0
 32 33  2  0  0  0  0
 32 31  1  0  0  0  0
 33 34  1  0  0  0  0
 34 35  2  0  0  0  0
 35 27  1  0  0  0  0
M  END
>  <minimizedAffinity>
-5.55915546

>  <minimizedRMSD>
2.16193533

$$$$
