
 OpenBabel03252514043D

 35 38  0  0  1  0  0  0  0  0999 V2000
   35.2830   29.1790   48.5820 C   0  0  2  0  0  0  0  0  0  0  0  0
   34.0480   29.3140   49.3480 C   0  0  0  0  0  0  0  0  0  0  0  0
   34.4180   27.9620   49.0490 C   0  0  1  0  0  0  0  0  0  0  0  0
   35.3640   29.2810   47.4980 H   0  0  0  0  0  0  0  0  0  0  0  0
   33.1660   29.8170   48.8750 H   0  0  0  0  0  0  0  0  0  0  0  0
   34.1550   29.6640   50.4170 H   0  0  0  0  0  0  0  0  0  0  0  0
   34.9720   27.2610   49.6720 H   0  0  0  0  0  0  0  0  0  0  0  0
   36.5930   29.2420   49.3880 C   0  0  0  0  0  0  0  0  0  0  0  0
   36.3710   29.1250   50.4680 H   0  0  0  0  0  0  0  0  0  0  0  0
   37.1990   28.3640   49.0180 H   0  0  0  0  0  0  0  0  0  0  0  0
   37.6430   32.7340   49.5600 C   0  0  0  0  0  0  0  0  0  0  0  0
   38.5030   32.8550   48.4560 C   0  0  0  0  0  0  0  0  0  0  0  0
   38.7110   31.7080   47.6570 C   0  0  0  0  0  0  0  0  0  0  0  0
   38.0640   30.5500   48.0040 N   0  0  0  0  0  0  0  0  0  0  0  0
   37.2560   30.4930   49.0650 C   0  0  0  0  0  0  0  0  0  0  0  0
   37.0490   31.5920   49.8420 N   0  0  0  0  0  0  0  0  0  0  0  0
   37.5590   33.6550   50.0900 H   0  0  0  0  0  0  0  0  0  0  0  0
   39.0490   33.7020   48.1070 H   0  0  0  0  0  0  0  0  0  0  0  0
   39.3360   31.6460   46.7880 H   0  0  0  0  0  0  0  0  0  0  0  0
   33.5970   27.2870   47.9670 C   0  0  0  0  0  0  0  0  0  0  0  0
   33.9660   26.0690   47.7380 O   0  0  0  0  0  0  0  0  0  0  0  0
   32.5400   27.8460   47.2540 O   0  0  0  0  0  0  0  0  0  0  0  0
   31.2960   28.0530   47.7900 C   0  0  0  0  0  0  0  0  0  0  0  0
   30.8450   27.5690   49.1170 C   0  0  0  0  0  0  0  0  0  0  0  0
   29.5850   27.8620   49.4970 C   0  0  0  0  0  0  0  0  0  0  0  0
   28.7170   28.5980   48.6760 C   0  0  0  0  0  0  0  0  0  0  0  0
   29.7430   28.9490   47.1690 S   0  0  0  0  0  0  0  0  0  0  0  0
   31.5580   27.0120   49.6960 H   0  0  0  0  0  0  0  0  0  0  0  0
   29.1770   27.5500   50.4420 H   0  0  0  0  0  0  0  0  0  0  0  0
   27.4190   29.0330   48.8020 C   0  0  0  0  0  0  0  0  0  0  0  0
   26.3850   28.0950   49.1660 C   0  0  0  0  0  3  0  0  0  0  0  0
   24.9090   29.1500   49.1920 S   0  0  0  0  0  0  0  0  0  0  0  0
   25.9180   30.6880   48.7090 C   0  0  0  0  0  0  0  0  0  0  0  0
   25.5850   31.8020   48.5340 H   0  0  0  0  0  0  0  0  0  0  0  0
   26.9530   30.2540   48.6270 N   0  0  0  0  0  0  0  0  0  0  0  0
  1  4  1  6  0  0  0
  1  3  1  0  0  0  0
  1  2  1  0  0  0  0
  1  8  1  0  0  0  0
  2  6  1  0  0  0  0
  3  2  1  0  0  0  0
  3  7  1  1  0  0  0
  5  2  1  0  0  0  0
  8  9  1  0  0  0  0
 10  8  1  0  0  0  0
 11 16  1  0  0  0  0
 11 17  1  0  0  0  0
 12 11  2  0  0  0  0
 13 14  2  0  0  0  0
 13 12  1  0  0  0  0
 14 15  1  0  0  0  0
 15  8  1  0  0  0  0
 15 16  2  0  0  0  0
 18 12  1  0  0  0  0
 19 13  1  0  0  0  0
 20  3  1  0  0  0  0
 21 20  2  0  0  0  0
 22 23  1  0  0  0  0
 22 20  1  0  0  0  0
 23 24  2  0  0  0  0
 24 25  1  0  0  0  0
 24 28  1  0  0  0  0
 25 29  1  0  0  0  0
 26 30  1  0  0  0  0
 26 25  2  0  0  0  0
 27 23  1  0  0  0  0
 27 26  1  0  0  0  0
 30 31  2  0  0  0  0
 31 32  1  0  0  0  0
 33 32  1  0  0  0  0
 34 33  1  0  0  0  0
 35 33  2  0  0  0  0
 35 30  1  0  0  0  0
M  END
>  <minimizedAffinity>
-6.1495142

>  <minimizedRMSD>
1.69872212

$$$$
