
 OpenBabel03252510473D

 35 38  0  0  1  0  0  0  0  0999 V2000
   37.5390   31.3860   48.6400 N   0  0  0  0  0  0  0  0  0  0  0  0
   38.3900   31.6600   49.7850 C   0  0  0  0  0  0  0  0  0  0  0  0
   38.7220   33.1150   49.5730 C   0  0  0  0  0  0  0  0  0  0  0  0
   39.0620   33.0940   48.1030 C   0  0  0  0  0  0  0  0  0  0  0  0
   37.8920   32.2960   47.5850 C   0  0  1  0  0  0  0  0  0  0  0  0
   39.3360   31.0910   49.6640 H   0  0  0  0  0  0  0  0  0  0  0  0
   37.8500   31.4330   50.7020 H   0  0  0  0  0  0  0  0  0  0  0  0
   37.9170   33.8140   49.7840 H   0  0  0  0  0  0  0  0  0  0  0  0
   39.6750   33.3180   50.1300 H   0  0  0  0  0  0  0  0  0  0  0  0
   38.9830   34.1240   47.7180 H   0  0  0  0  0  0  0  0  0  0  0  0
   40.0370   32.6520   47.8870 H   0  0  0  0  0  0  0  0  0  0  0  0
   37.0520   33.0010   47.4980 H   0  0  0  0  0  0  0  0  0  0  0  0
   36.4380   29.2910   49.3980 C   0  0  0  0  0  0  0  0  0  0  0  0
   36.5330   30.4080   48.5390 C   0  0  0  0  0  0  0  0  0  0  0  0
   35.5730   30.5680   47.5140 C   0  0  0  0  0  0  0  0  0  0  0  0
   34.5910   29.6280   47.4040 N   0  0  0  0  0  0  0  0  0  0  0  0
   34.5280   28.5600   48.2530 C   0  0  0  0  0  0  0  0  0  0  0  0
   35.4420   28.3970   49.2360 N   0  0  0  0  0  0  0  0  0  0  0  0
   37.2170   29.2600   50.1450 H   0  0  0  0  0  0  0  0  0  0  0  0
   35.5600   31.3710   46.8210 H   0  0  0  0  0  0  0  0  0  0  0  0
   33.7860   27.7980   48.2120 H   0  0  0  0  0  0  0  0  0  0  0  0
   38.2780   31.6570   46.3280 C   0  0  0  0  0  0  0  0  0  0  0  0
   38.9570   30.4480   46.1120 C   0  0  0  0  0  0  0  0  0  0  0  0
   39.2320   30.0330   44.8390 C   0  0  0  0  0  0  0  0  0  0  0  0
   38.8500   30.7850   43.8150 N   0  0  0  0  0  0  0  0  0  0  0  0
   38.2030   31.9410   43.9860 C   0  0  0  0  0  0  0  0  0  0  0  0
   37.9330   32.3480   45.2470 N   0  0  0  0  0  0  0  0  0  0  0  0
   39.2060   29.9380   47.0320 H   0  0  0  0  0  0  0  0  0  0  0  0
   39.7590   29.0900   44.7230 H   0  0  0  0  0  0  0  0  0  0  0  0
   37.8180   32.7090   42.8050 C   0  0  0  0  0  0  0  0  0  0  0  0
   36.5920   33.0030   42.2640 C   0  0  0  0  0  0  0  0  0  0  0  0
   36.8400   33.7640   41.1440 C   0  0  0  0  0  0  0  0  0  0  0  0
   38.2180   33.8870   41.0730 C   0  0  0  0  0  0  0  0  0  0  0  0
   38.7930   34.4260   40.3140 H   0  0  0  0  0  0  0  0  0  0  0  0
   38.7710   33.2430   42.0830 O   0  0  0  0  0  0  0  0  0  0  0  0
  1  2  1  0  0  0  0
  2  7  1  0  0  0  0
  3  8  1  0  0  0  0
  3  2  1  0  0  0  0
  3  9  1  0  0  0  0
  4  3  1  0  0  0  0
  5 12  1  6  0  0  0
  5  4  1  0  0  0  0
  5  1  1  0  0  0  0
  6  2  1  0  0  0  0
 10  4  1  0  0  0  0
 11  4  1  0  0  0  0
 13 19  1  0  0  0  0
 14  1  1  0  0  0  0
 14 13  2  0  0  0  0
 15 14  1  0  0  0  0
 16 15  2  0  0  0  0
 16 17  1  0  0  0  0
 17 18  2  0  0  0  0
 18 13  1  0  0  0  0
 20 15  1  0  0  0  0
 21 17  1  0  0  0  0
 22  5  1  0  0  0  0
 23 22  1  0  0  0  0
 23 28  1  0  0  0  0
 24 23  2  0  0  0  0
 25 26  2  0  0  0  0
 25 24  1  0  0  0  0
 26 27  1  0  0  0  0
 27 22  2  0  0  0  0
 29 24  1  0  0  0  0
 30 26  1  0  0  0  0
 31 30  2  0  0  0  0
 32 31  1  0  0  0  0
 33 32  2  0  0  0  0
 33 35  1  0  0  0  0
 34 33  1  0  0  0  0
 35 30  1  0  0  0  0
M  END
>  <minimizedAffinity>
-5.72740746

>  <minimizedRMSD>
0.568078518

$$$$
