
 OpenBabel03252511463D

 38 42  0  0  1  0  0  0  0  0999 V2000
   35.6140   30.4380   47.3780 C   0  0  0  0  0  0  0  0  0  0  0  0
   36.6830   30.6620   48.2270 C   0  0  0  0  0  0  0  0  0  0  0  0
   36.8090   29.7050   49.2840 C   0  0  0  0  0  0  0  0  0  0  0  0
   35.9170   28.6840   49.3880 N   0  0  0  0  0  0  0  0  0  0  0  0
   34.9100   28.5380   48.5250 C   0  0  0  0  0  0  0  0  0  0  0  0
   34.7580   29.4140   47.5200 N   0  0  0  0  0  0  0  0  0  0  0  0
   35.5490   31.1780   46.5920 H   0  0  0  0  0  0  0  0  0  0  0  0
   37.5750   29.7050   50.0490 H   0  0  0  0  0  0  0  0  0  0  0  0
   37.6830   31.7100   48.2090 C   0  0  0  0  0  0  0  0  0  0  0  0
   37.6210   32.4820   49.3310 C   0  0  0  0  0  0  0  0  0  0  0  0
   38.4940   33.5580   49.5280 C   0  0  0  0  0  0  0  0  0  0  0  0
   39.4390   33.8430   48.5600 C   0  0  0  0  0  0  0  0  0  0  0  0
   39.4920   33.0510   47.4210 C   0  0  0  0  0  0  0  0  0  0  0  0
   40.4070   33.2590   46.3930 C   0  0  0  0  0  0  0  0  0  0  0  0
   40.4020   32.4320   45.2920 C   0  0  0  0  0  0  0  0  0  0  0  0
   39.5180   31.3930   45.1590 C   0  0  0  0  0  0  0  0  0  0  0  0
   38.6080   31.1810   46.1760 C   0  0  0  0  0  0  0  0  0  0  0  0
   38.6270   32.0150   47.2670 C   0  0  0  0  0  0  0  0  0  0  0  0
   36.9410   32.3770   50.1610 H   0  0  0  0  0  0  0  0  0  0  0  0
   38.4810   34.1950   50.4020 H   0  0  0  0  0  0  0  0  0  0  0  0
   40.1570   34.6420   48.6070 H   0  0  0  0  0  0  0  0  0  0  0  0
   41.0980   34.0820   46.5100 H   0  0  0  0  0  0  0  0  0  0  0  0
   41.1340   32.6370   44.5220 H   0  0  0  0  0  0  0  0  0  0  0  0
   39.5340   30.7510   44.2750 H   0  0  0  0  0  0  0  0  0  0  0  0
   37.9030   30.3440   46.0610 H   0  0  0  0  0  0  0  0  0  0  0  0
   33.9660   27.4000   48.7010 C   0  0  1  0  0  0  0  0  0  0  0  0
   32.5080   27.6300   48.5200 C   0  0  0  0  0  0  0  0  0  0  0  0
   33.2700   26.8300   47.4990 C   0  0  2  0  0  0  0  0  0  0  0  0
   34.2290   26.6880   49.5100 H   0  0  0  0  0  0  0  0  0  0  0  0
   31.7630   27.0640   49.1230 H   0  0  0  0  0  0  0  0  0  0  0  0
   32.1780   28.6520   48.2350 H   0  0  0  0  0  0  0  0  0  0  0  0
   33.4950   27.3860   46.5420 H   0  0  0  0  0  0  0  0  0  0  0  0
   33.1890   25.3680   47.4430 C   0  0  0  0  0  0  0  0  0  0  0  0
   34.1990   24.4970   47.1000 C   0  0  0  0  0  0  0  0  0  0  0  0
   33.6220   23.2430   47.1990 C   0  0  0  0  0  0  0  0  0  0  0  0
   32.2900   23.4040   47.5950 C   0  0  0  0  0  0  0  0  0  0  0  0
   31.5770   22.6080   47.7590 H   0  0  0  0  0  0  0  0  0  0  0  0
   32.0950   24.6990   47.7230 O   0  0  0  0  0  0  0  0  0  0  0  0
  1  6  2  0  0  0  0
  1  2  1  0  0  0  0
  2  3  2  0  0  0  0
  3  4  1  0  0  0  0
  3  8  1  0  0  0  0
  5 26  1  0  0  0  0
  5  4  2  0  0  0  0
  6  5  1  0  0  0  0
  7  1  1  0  0  0  0
  9  2  1  0  0  0  0
  9 10  1  0  0  0  0
 10 11  2  0  0  0  0
 10 19  1  0  0  0  0
 11 20  1  0  0  0  0
 12 21  1  0  0  0  0
 12 11  1  0  0  0  0
 13 12  2  0  0  0  0
 14 22  1  0  0  0  0
 14 13  1  0  0  0  0
 15 14  2  0  0  0  0
 16 15  1  0  0  0  0
 16 17  2  0  0  0  0
 17 18  1  0  0  0  0
 18 13  1  0  0  0  0
 18  9  2  0  0  0  0
 23 15  1  0  0  0  0
 24 16  1  0  0  0  0
 25 17  1  0  0  0  0
 26 29  1  1  0  0  0
 27 26  1  0  0  0  0
 27 30  1  0  0  0  0
 28 32  1  6  0  0  0
 28 27  1  0  0  0  0
 28 26  1  0  0  0  0
 31 27  1  0  0  0  0
 33 28  1  0  0  0  0
 33 38  1  0  0  0  0
 34 35  1  0  0  0  0
 34 33  2  0  0  0  0
 35 36  2  0  0  0  0
 36 38  1  0  0  0  0
 36 37  1  0  0  0  0
M  END
>  <minimizedAffinity>
-6.86271811

>  <minimizedRMSD>
0.818047106

$$$$
