
 OpenBabel03252513223D

 18 19  0  0  0  0  0  0  0  0999 V2000
   35.3800   29.1260   50.3730 C   0  0  0  0  0  0  0  0  0  0  0  0
   36.1380   30.1630   49.7820 C   0  0  0  0  0  0  0  0  0  0  0  0
   35.8000   30.5190   48.4730 C   0  0  0  0  0  0  0  0  0  0  0  0
   34.7790   29.8730   47.8270 N   0  0  0  0  0  0  0  0  0  0  0  0
   34.0860   28.8800   48.4560 C   0  0  0  0  0  0  0  0  0  0  0  0
   34.3920   28.5210   49.7110 N   0  0  0  0  0  0  0  0  0  0  0  0
   35.7130   28.9210   51.3850 H   0  0  0  0  0  0  0  0  0  0  0  0
   36.3300   31.3050   47.9380 H   0  0  0  0  0  0  0  0  0  0  0  0
   32.9910   28.1630   47.8090 C   0  0  0  0  0  0  0  0  0  0  0  0
   31.9590   27.6190   48.5550 C   0  0  0  0  0  0  0  0  0  0  0  0
   31.0860   27.0110   47.6500 C   0  0  0  0  0  0  0  0  0  0  0  0
   31.6530   27.2300   46.3910 C   0  0  0  0  0  0  0  0  0  0  0  0
   31.2110   26.8770   45.4660 H   0  0  0  0  0  0  0  0  0  0  0  0
   32.7800   27.9170   46.5340 O   0  0  0  0  0  0  0  0  0  0  0  0
   37.2390   30.8590   50.4770 C   0  0  0  0  0  0  0  0  0  0  0  0
   38.4770   30.5870   49.9700 F   0  0  0  0  0  0  0  0  0  0  0  0
   37.2720   30.5600   51.8140 F   0  0  0  0  0  0  0  0  0  0  0  0
   37.0480   32.2430   50.3500 F   0  0  0  0  0  0  0  0  0  0  0  0
  1  7  1  0  0  0  0
  2  1  1  0  0  0  0
  2 15  1  0  0  0  0
  3  2  2  0  0  0  0
  4  5  2  0  0  0  0
  4  3  1  0  0  0  0
  5  6  1  0  0  0  0
  6  1  2  0  0  0  0
  8  3  1  0  0  0  0
  9  5  1  0  0  0  0
  9 10  2  0  0  0  0
 11 10  1  0  0  0  0
 12 14  1  0  0  0  0
 12 11  2  0  0  0  0
 13 12  1  0  0  0  0
 14  9  1  0  0  0  0
 15 17  1  0  0  0  0
 16 15  1  0  0  0  0
 18 15  1  0  0  0  0
M  END
>  <minimizedAffinity>
-4.82135105

>  <minimizedRMSD>
0.624325573

$$$$
