
 OpenBabel03252513533D

 42 45  0  0  1  0  0  0  0  0999 V2000
   37.6940   31.3600   44.7020 C   0  0  0  0  0  0  0  0  0  0  0  0
   37.8990   32.5820   44.5740 O   0  0  0  0  0  0  0  0  0  0  0  0
   38.1300   30.5580   43.5990 N   0  0  0  0  0  0  0  0  0  0  0  0
   38.8640   29.3470   43.9470 C   0  0  0  0  0  0  0  0  0  0  0  0
   39.6160   28.8080   42.7500 C   0  0  0  0  0  0  0  0  0  0  0  0
   40.0430   29.9130   42.0220 O   0  0  0  0  0  0  0  0  0  0  0  0
   38.9270   30.3470   41.2970 C   0  0  0  0  0  0  0  0  0  0  0  0
   37.8630   30.9200   42.2060 C   0  0  2  0  0  0  0  0  0  0  0  0
   38.1190   28.6060   44.3400 H   0  0  0  0  0  0  0  0  0  0  0  0
   39.5950   29.5060   44.7590 H   0  0  0  0  0  0  0  0  0  0  0  0
   39.0340   28.1240   42.1230 H   0  0  0  0  0  0  0  0  0  0  0  0
   40.5280   28.2740   43.0840 H   0  0  0  0  0  0  0  0  0  0  0  0
   39.2320   31.0730   40.5050 H   0  0  0  0  0  0  0  0  0  0  0  0
   38.5510   29.4440   40.7660 H   0  0  0  0  0  0  0  0  0  0  0  0
   36.9110   30.5350   41.8540 H   0  0  0  0  0  0  0  0  0  0  0  0
   37.1460   30.2090   48.2500 C   0  0  0  0  0  0  0  0  0  0  0  0
   37.8010   30.7220   47.0780 C   0  0  0  0  0  0  0  0  0  0  0  0
   37.0540   30.8420   45.9060 C   0  0  0  0  0  0  0  0  0  0  0  0
   35.7540   30.4640   45.9570 N   0  0  0  0  0  0  0  0  0  0  0  0
   35.1810   29.9940   47.0590 C   0  0  0  0  0  0  0  0  0  0  0  0
   35.8670   29.8690   48.1890 N   0  0  0  0  0  0  0  0  0  0  0  0
   38.8260   31.0070   47.0870 H   0  0  0  0  0  0  0  0  0  0  0  0
   33.7390   29.6300   46.9180 C   0  0  0  0  0  0  0  0  0  0  0  0
   32.9690   30.7710   46.7060 F   0  0  0  0  0  0  0  0  0  0  0  0
   33.5630   28.8550   45.7900 F   0  0  0  0  0  0  0  0  0  0  0  0
   33.2610   28.8890   47.9850 F   0  0  0  0  0  0  0  0  0  0  0  0
   37.8950   30.0940   49.4070 O   0  0  0  0  0  0  0  0  0  0  0  0
   37.9300   31.0490   50.4250 C   0  0  0  0  0  0  0  0  0  0  0  0
   39.1310   31.7310   50.4870 F   0  0  0  0  0  0  0  0  0  0  0  0
   36.8770   31.9180   50.4280 F   0  0  0  0  0  0  0  0  0  0  0  0
   37.8180   30.2920   51.6180 F   0  0  0  0  0  0  0  0  0  0  0  0
   38.0500   32.3010   42.1570 O   0  0  0  0  0  0  0  0  0  0  0  0
   37.6070   33.0550   41.0890 C   0  0  0  0  0  0  0  0  0  0  0  0
   38.2780   33.6720   40.0570 C   0  0  0  0  0  0  0  0  0  0  0  0
   37.6170   34.3870   39.0820 C   0  0  0  0  0  0  0  0  0  0  0  0
   36.2530   34.5210   39.0880 C   0  0  0  0  0  0  0  0  0  0  0  0
   35.5570   33.9130   40.1110 C   0  0  0  0  0  0  0  0  0  0  0  0
   34.1870   34.0840   40.0640 C   0  0  0  0  0  0  0  0  0  0  0  0
   33.4180   33.5090   41.0490 C   0  0  0  0  0  0  0  0  0  0  0  0
   34.0190   32.7810   42.0520 C   0  0  0  0  0  0  0  0  0  0  0  0
   35.3860   32.6400   42.0560 C   0  0  0  0  0  0  0  0  0  0  0  0
   36.2120   33.1850   41.1070 C   0  0  0  0  0  0  0  0  0  0  0  0
  1 18  1  0  0  0  0
  2  1  2  0  0  0  0
  3  4  1  0  0  0  0
  3  1  1  0  0  0  0
  4  9  1  0  0  0  0
  4 10  1  0  0  0  0
  5 12  1  0  0  0  0
  5  4  1  0  0  0  0
  6  5  1  0  0  0  0
  7  6  1  0  0  0  0
  7  8  1  0  0  0  0
  8 15  1  6  0  0  0
  8  3  1  0  0  0  0
 11  5  1  0  0  0  0
 13  7  1  0  0  0  0
 14  7  1  0  0  0  0
 16 27  1  0  0  0  0
 17 22  1  0  0  0  0
 17 16  2  0  0  0  0
 18 19  2  0  0  0  0
 18 17  1  0  0  0  0
 19 20  1  0  0  0  0
 20 21  2  0  0  0  0
 21 16  1  0  0  0  0
 23 20  1  0  0  0  0
 23 26  1  0  0  0  0
 24 23  1  0  0  0  0
 25 23  1  0  0  0  0
 27 28  1  0  0  0  0
 28 30  1  0  0  0  0
 28 29  1  0  0  0  0
 28 31  1  0  0  0  0
 32  8  1  0  0  0  0
 33 42  1  0  0  0  0
 33 32  1  0  0  0  0
 34 33  2  0  0  0  0
 35 36  2  0  0  0  0
 35 34  1  0  0  0  0
 36 37  1  0  0  0  0
 37 42  1  0  0  0  0
 38 37  2  0  0  0  0
 38 39  1  0  0  0  0
 39 40  2  0  0  0  0
 40 41  1  0  0  0  0
 42 41  2  0  0  0  0
M  END
>  <minimizedAffinity>
-6.3518796

>  <minimizedRMSD>
5.14859533

$$$$
