
 OpenBabel03252514043D

 35 38  0  0  1  0  0  0  0  0999 V2000
   35.2320   29.1770   48.5890 C   0  0  2  0  0  0  0  0  0  0  0  0
   34.0140   29.3500   49.3730 C   0  0  0  0  0  0  0  0  0  0  0  0
   34.3420   27.9870   49.0800 C   0  0  1  0  0  0  0  0  0  0  0  0
   35.2300   29.3950   47.5260 H   0  0  0  0  0  0  0  0  0  0  0  0
   33.1170   29.8370   48.8870 H   0  0  0  0  0  0  0  0  0  0  0  0
   34.1340   29.7530   50.4070 H   0  0  0  0  0  0  0  0  0  0  0  0
   34.8820   27.3050   49.7370 H   0  0  0  0  0  0  0  0  0  0  0  0
   36.5530   29.2120   49.3750 C   0  0  0  0  0  0  0  0  0  0  0  0
   37.1720   28.3100   49.1280 H   0  0  0  0  0  0  0  0  0  0  0  0
   36.3280   29.1630   50.4520 H   0  0  0  0  0  0  0  0  0  0  0  0
   37.5690   32.7120   49.6010 C   0  0  0  0  0  0  0  0  0  0  0  0
   38.4570   32.8490   48.5200 C   0  0  0  0  0  0  0  0  0  0  0  0
   38.6920   31.7070   47.7180 C   0  0  0  0  0  0  0  0  0  0  0  0
   38.0450   30.5430   48.0420 N   0  0  0  0  0  0  0  0  0  0  0  0
   37.2130   30.4740   49.0810 C   0  0  0  0  0  0  0  0  0  0  0  0
   36.9830   31.5680   49.8550 N   0  0  0  0  0  0  0  0  0  0  0  0
   37.4550   33.6370   50.1530 H   0  0  0  0  0  0  0  0  0  0  0  0
   39.0060   33.7340   48.2010 H   0  0  0  0  0  0  0  0  0  0  0  0
   39.3530   31.6870   46.8580 H   0  0  0  0  0  0  0  0  0  0  0  0
   33.4890   27.3210   48.0180 C   0  0  0  0  0  0  0  0  0  0  0  0
   33.8260   26.0890   47.8030 O   0  0  0  0  0  0  0  0  0  0  0  0
   32.4360   27.9080   47.3150 O   0  0  0  0  0  0  0  0  0  0  0  0
   31.1860   28.0750   47.8510 C   0  0  0  0  0  0  0  0  0  0  0  0
   30.7560   27.6090   49.1920 C   0  0  0  0  0  0  0  0  0  0  0  0
   29.4860   27.8550   49.5660 C   0  0  0  0  0  0  0  0  0  0  0  0
   28.5780   28.5310   48.7300 C   0  0  0  0  0  0  0  0  0  0  0  0
   29.5940   28.8830   47.2140 S   0  0  0  0  0  0  0  0  0  0  0  0
   31.4950   27.1010   49.7820 H   0  0  0  0  0  0  0  0  0  0  0  0
   29.0970   27.5490   50.5220 H   0  0  0  0  0  0  0  0  0  0  0  0
   27.2610   28.9030   48.8620 C   0  0  0  0  0  0  0  0  0  0  0  0
   26.7450   30.1790   48.8190 C   0  0  0  0  0  3  0  0  0  0  0  0
   25.3610   30.0620   49.0000 C   0  0  0  0  0  3  0  0  0  0  0  0
   25.1370   28.6880   49.1430 C   0  0  0  0  0  0  0  0  0  0  0  0
   24.1590   28.2120   49.3030 H   0  0  0  0  0  0  0  0  0  0  0  0
   26.2820   28.0550   49.0530 O   0  0  0  0  0  0  0  0  0  0  0  0
  1  4  1  6  0  0  0
  1  3  1  0  0  0  0
  1  2  1  0  0  0  0
  1  8  1  0  0  0  0
  2  6  1  0  0  0  0
  3  2  1  0  0  0  0
  3  7  1  1  0  0  0
  5  2  1  0  0  0  0
  8 10  1  0  0  0  0
  9  8  1  0  0  0  0
 11 16  1  0  0  0  0
 11 17  1  0  0  0  0
 12 11  2  0  0  0  0
 13 14  2  0  0  0  0
 13 12  1  0  0  0  0
 14 15  1  0  0  0  0
 15  8  1  0  0  0  0
 15 16  2  0  0  0  0
 18 12  1  0  0  0  0
 19 13  1  0  0  0  0
 20  3  1  0  0  0  0
 21 20  2  0  0  0  0
 22 23  1  0  0  0  0
 22 20  1  0  0  0  0
 23 24  2  0  0  0  0
 24 25  1  0  0  0  0
 24 28  1  0  0  0  0
 25 29  1  0  0  0  0
 26 30  1  0  0  0  0
 26 25  2  0  0  0  0
 27 23  1  0  0  0  0
 27 26  1  0  0  0  0
 30 35  1  0  0  0  0
 31 30  2  0  0  0  0
 31 32  1  0  0  0  0
 32 33  2  0  0  0  0
 33 34  1  0  0  0  0
 35 33  1  0  0  0  0
M  END
>  <minimizedAffinity>
-6.24418259

>  <minimizedRMSD>
1.59662664

$$$$
