
 OpenBabel03252514043D

 35 38  0  0  1  0  0  0  0  0999 V2000
   35.2770   29.2510   48.6890 C   0  0  2  0  0  0  0  0  0  0  0  0
   34.1000   29.3180   49.5480 C   0  0  0  0  0  0  0  0  0  0  0  0
   34.4530   27.9960   49.1270 C   0  0  1  0  0  0  0  0  0  0  0  0
   35.2080   29.5550   47.6490 H   0  0  0  0  0  0  0  0  0  0  0  0
   33.1630   29.8110   49.1530 H   0  0  0  0  0  0  0  0  0  0  0  0
   34.2660   29.6410   50.6040 H   0  0  0  0  0  0  0  0  0  0  0  0
   35.0490   27.2820   49.6950 H   0  0  0  0  0  0  0  0  0  0  0  0
   36.6390   29.2700   49.4020 C   0  0  0  0  0  0  0  0  0  0  0  0
   37.2290   28.3560   49.1290 H   0  0  0  0  0  0  0  0  0  0  0  0
   36.4700   29.2320   50.4910 H   0  0  0  0  0  0  0  0  0  0  0  0
   37.7160   32.7560   49.5440 C   0  0  0  0  0  0  0  0  0  0  0  0
   38.5520   32.8690   48.4200 C   0  0  0  0  0  0  0  0  0  0  0  0
   38.7320   31.7160   47.6200 C   0  0  0  0  0  0  0  0  0  0  0  0
   38.0840   30.5650   47.9860 N   0  0  0  0  0  0  0  0  0  0  0  0
   37.3020   30.5180   49.0640 C   0  0  0  0  0  0  0  0  0  0  0  0
   37.1250   31.6230   49.8370 N   0  0  0  0  0  0  0  0  0  0  0  0
   37.6410   33.6880   50.0910 H   0  0  0  0  0  0  0  0  0  0  0  0
   39.0980   33.7420   48.0660 H   0  0  0  0  0  0  0  0  0  0  0  0
   39.3510   31.6770   46.7300 H   0  0  0  0  0  0  0  0  0  0  0  0
   33.5620   27.3880   48.0610 C   0  0  0  0  0  0  0  0  0  0  0  0
   33.8890   26.1690   47.7690 O   0  0  0  0  0  0  0  0  0  0  0  0
   32.4860   28.0120   47.4280 O   0  0  0  0  0  0  0  0  0  0  0  0
   31.2320   28.0690   47.9780 C   0  0  0  0  0  0  0  0  0  0  0  0
   30.8600   27.5730   49.3250 C   0  0  0  0  0  0  0  0  0  0  0  0
   29.5760   27.7070   49.7130 C   0  0  0  0  0  0  0  0  0  0  0  0
   28.6030   28.2940   48.8840 C   0  0  0  0  0  0  0  0  0  0  0  0
   29.5670   28.7280   47.3550 S   0  0  0  0  0  0  0  0  0  0  0  0
   31.6480   27.1360   49.9090 H   0  0  0  0  0  0  0  0  0  0  0  0
   29.2270   27.3720   50.6740 H   0  0  0  0  0  0  0  0  0  0  0  0
   27.2590   28.5480   49.0290 C   0  0  0  0  0  0  0  0  0  0  0  0
   26.4780   28.3090   50.1380 C   0  0  0  0  0  3  0  0  0  0  0  0
   25.1810   28.7290   49.8170 C   0  0  0  0  0  3  0  0  0  0  0  0
   25.2760   29.2040   48.5040 C   0  0  0  0  0  0  0  0  0  0  0  0
   24.4480   29.6200   47.9110 H   0  0  0  0  0  0  0  0  0  0  0  0
   26.5150   29.0750   48.0900 O   0  0  0  0  0  0  0  0  0  0  0  0
  1  4  1  6  0  0  0
  1  3  1  0  0  0  0
  1  8  1  0  0  0  0
  1  2  1  0  0  0  0
  2  6  1  0  0  0  0
  3  2  1  0  0  0  0
  3  7  1  1  0  0  0
  5  2  1  0  0  0  0
  8 10  1  0  0  0  0
  9  8  1  0  0  0  0
 11 16  1  0  0  0  0
 11 17  1  0  0  0  0
 12 11  2  0  0  0  0
 13 14  2  0  0  0  0
 13 12  1  0  0  0  0
 14 15  1  0  0  0  0
 15  8  1  0  0  0  0
 15 16  2  0  0  0  0
 18 12  1  0  0  0  0
 19 13  1  0  0  0  0
 20  3  1  0  0  0  0
 21 20  2  0  0  0  0
 22 23  1  0  0  0  0
 22 20  1  0  0  0  0
 23 24  2  0  0  0  0
 24 25  1  0  0  0  0
 24 28  1  0  0  0  0
 25 29  1  0  0  0  0
 26 30  1  0  0  0  0
 26 25  2  0  0  0  0
 27 23  1  0  0  0  0
 27 26  1  0  0  0  0
 30 31  2  0  0  0  0
 32 31  1  0  0  0  0
 33 32  2  0  0  0  0
 34 33  1  0  0  0  0
 35 33  1  0  0  0  0
 35 30  1  0  0  0  0
M  END
>  <minimizedAffinity>
-6.15004015

>  <minimizedRMSD>
1.44693065

$$$$
