
 OpenBabel03252513443D

 19 20  0  0  0  0  0  0  0  0999 V2000
   37.2820   30.5280   49.1540 C   0  0  0  0  0  0  0  0  0  0  0  0
   37.0480   31.6650   49.9590 C   0  0  0  0  0  0  0  0  0  0  0  0
   37.6470   32.8700   49.6120 C   0  0  0  0  0  0  0  0  0  0  0  0
   38.4420   32.8990   48.4950 N   0  0  0  0  0  0  0  0  0  0  0  0
   38.6380   31.8010   47.7610 C   0  0  0  0  0  0  0  0  0  0  0  0
   38.0740   30.6200   48.0690 N   0  0  0  0  0  0  0  0  0  0  0  0
   36.3990   31.5630   50.8370 H   0  0  0  0  0  0  0  0  0  0  0  0
   37.4870   33.7450   50.2030 H   0  0  0  0  0  0  0  0  0  0  0  0
   39.4700   31.7570   46.5620 C   0  0  0  0  0  0  0  0  0  0  0  0
   39.9080   32.9500   46.0250 C   0  0  0  0  0  0  0  0  0  0  0  0
   40.6720   32.6210   44.9030 C   0  0  0  0  0  0  0  0  0  0  0  0
   40.6460   31.2230   44.8330 C   0  0  0  0  0  0  0  0  0  0  0  0
   41.0190   30.4010   44.2320 H   0  0  0  0  0  0  0  0  0  0  0  0
   39.9240   30.7670   45.8350 O   0  0  0  0  0  0  0  0  0  0  0  0
   36.6820   29.3590   49.5200 O   0  0  0  0  0  0  0  0  0  0  0  0
   35.4280   29.2560   50.1410 C   0  0  0  0  0  0  0  0  0  0  0  0
   35.5230   29.2440   51.5280 F   0  0  0  0  0  0  0  0  0  0  0  0
   34.5400   30.2120   49.7420 F   0  0  0  0  0  0  0  0  0  0  0  0
   34.9030   28.0250   49.7610 F   0  0  0  0  0  0  0  0  0  0  0  0
  1 15  1  0  0  0  0
  1  2  1  0  0  0  0
  2  7  1  0  0  0  0
  3  2  2  0  0  0  0
  3  8  1  0  0  0  0
  4  3  1  0  0  0  0
  5  6  1  0  0  0  0
  5  4  2  0  0  0  0
  6  1  2  0  0  0  0
  9  5  1  0  0  0  0
 10  9  2  0  0  0  0
 11 10  1  0  0  0  0
 12 11  2  0  0  0  0
 12 14  1  0  0  0  0
 13 12  1  0  0  0  0
 14  9  1  0  0  0  0
 15 16  1  0  0  0  0
 16 17  1  0  0  0  0
 18 16  1  0  0  0  0
 19 16  1  0  0  0  0
M  END
>  <minimizedAffinity>
-5.95196867

>  <minimizedRMSD>
1.69004071

$$$$
