
 OpenBabel03252514023D

 32 35  0  0  1  0  0  0  0  0999 V2000
   35.4360   29.4600   49.1250 C   0  0  2  0  0  0  0  0  0  0  0  0
   34.3960   29.4400   50.1630 C   0  0  0  0  0  0  0  0  0  0  0  0
   34.6490   28.1810   49.4710 C   0  0  1  0  0  0  0  0  0  0  0  0
   35.2590   29.9130   48.1560 H   0  0  0  0  0  0  0  0  0  0  0  0
   33.4280   29.9900   50.0090 H   0  0  0  0  0  0  0  0  0  0  0  0
   34.6780   29.4710   51.2510 H   0  0  0  0  0  0  0  0  0  0  0  0
   35.3110   27.3480   49.7280 H   0  0  0  0  0  0  0  0  0  0  0  0
   36.8890   29.3760   49.5890 C   0  0  0  0  0  0  0  0  0  0  0  0
   36.8780   29.4300   50.6890 H   0  0  0  0  0  0  0  0  0  0  0  0
   37.3550   28.4230   49.2680 H   0  0  0  0  0  0  0  0  0  0  0  0
   38.3970   32.7120   49.3810 C   0  0  0  0  0  0  0  0  0  0  0  0
   38.9080   32.7340   48.0740 C   0  0  0  0  0  0  0  0  0  0  0  0
   38.7320   31.5980   47.2720 C   0  0  0  0  0  0  0  0  0  0  0  0
   38.0640   30.5220   47.8150 N   0  0  0  0  0  0  0  0  0  0  0  0
   37.5940   30.5460   49.0630 C   0  0  0  0  0  0  0  0  0  0  0  0
   37.7660   31.6440   49.8360 N   0  0  0  0  0  0  0  0  0  0  0  0
   38.4930   33.5430   50.0510 H   0  0  0  0  0  0  0  0  0  0  0  0
   39.4150   33.6350   47.7530 H   0  0  0  0  0  0  0  0  0  0  0  0
   39.1210   31.6210   46.2850 H   0  0  0  0  0  0  0  0  0  0  0  0
   33.5760   27.7570   48.5080 C   0  0  0  0  0  0  0  0  0  0  0  0
   33.9330   26.8210   47.6910 O   0  0  0  0  0  0  0  0  0  0  0  0
   32.2900   28.2650   48.4430 O   0  0  0  0  0  0  0  0  0  0  0  0
   31.3190   27.7930   47.6110 C   0  0  0  0  0  0  0  0  0  0  0  0
   30.5630   26.6440   47.8130 C   0  0  0  0  0  3  0  0  0  0  0  0
   29.6000   26.2880   46.8650 C   0  0  0  0  0  3  0  0  0  0  0  0
   29.3940   27.0620   45.7400 C   0  0  0  0  0  3  0  0  0  0  0  0
   30.1410   28.2130   45.5240 C   0  0  0  0  0  0  0  0  0  0  0  0
   29.9070   28.9550   44.3950 C   0  0  0  0  0  3  0  0  0  0  0  0
   30.6540   30.1120   44.1720 C   0  0  0  0  0  3  0  0  0  0  0  0
   31.6250   30.5000   45.0960 C   0  0  0  0  0  3  0  0  0  0  0  0
   31.8080   29.7120   46.2040 C   0  0  0  0  0  3  0  0  0  0  0  0
   31.0900   28.5550   46.4680 C   0  0  0  0  0  0  0  0  0  0  0  0
  1  4  1  6  0  0  0
  1  3  1  0  0  0  0
  1  8  1  0  0  0  0
  1  2  1  0  0  0  0
  2  6  1  0  0  0  0
  3  7  1  1  0  0  0
  3  2  1  0  0  0  0
  5  2  1  0  0  0  0
  8  9  1  0  0  0  0
 10  8  1  0  0  0  0
 11 16  1  0  0  0  0
 11 17  1  0  0  0  0
 12 11  2  0  0  0  0
 13 14  2  0  0  0  0
 13 12  1  0  0  0  0
 14 15  1  0  0  0  0
 15  8  1  0  0  0  0
 15 16  2  0  0  0  0
 18 12  1  0  0  0  0
 19 13  1  0  0  0  0
 20  3  1  0  0  0  0
 21 20  2  0  0  0  0
 22 20  1  0  0  0  0
 23 24  1  0  0  0  0
 23 22  1  0  0  0  0
 25 24  2  0  0  0  0
 26 25  1  0  0  0  0
 27 26  2  0  0  0  0
 27 32  1  0  0  0  0
 28 27  1  0  0  0  0
 29 28  2  0  0  0  0
 29 30  1  0  0  0  0
 30 31  2  0  0  0  0
 31 32  1  0  0  0  0
 32 23  2  0  0  0  0
M  END
>  <minimizedAffinity>
-5.25234079

>  <minimizedRMSD>
0.517584085

$$$$
