
 OpenBabel03252514023D

 32 35  0  0  1  0  0  0  0  0999 V2000
   35.4850   29.5160   49.1700 C   0  0  2  0  0  0  0  0  0  0  0  0
   34.4500   29.4710   50.2120 C   0  0  0  0  0  0  0  0  0  0  0  0
   34.7350   28.2170   49.5240 C   0  0  1  0  0  0  0  0  0  0  0  0
   35.2920   29.9600   48.2000 H   0  0  0  0  0  0  0  0  0  0  0  0
   33.4660   29.9940   50.0590 H   0  0  0  0  0  0  0  0  0  0  0  0
   34.7350   29.5140   51.2990 H   0  0  0  0  0  0  0  0  0  0  0  0
   35.4210   27.4030   49.7820 H   0  0  0  0  0  0  0  0  0  0  0  0
   36.9420   29.4740   49.6280 C   0  0  0  0  0  0  0  0  0  0  0  0
   36.9350   29.5650   50.7260 H   0  0  0  0  0  0  0  0  0  0  0  0
   37.4240   28.5200   49.3370 H   0  0  0  0  0  0  0  0  0  0  0  0
   38.3350   32.8480   49.2810 C   0  0  0  0  0  0  0  0  0  0  0  0
   38.8900   32.8170   47.9920 C   0  0  0  0  0  0  0  0  0  0  0  0
   38.7840   31.6310   47.2510 C   0  0  0  0  0  0  0  0  0  0  0  0
   38.1360   30.5640   47.8320 N   0  0  0  0  0  0  0  0  0  0  0  0
   37.6220   30.6390   49.0610 C   0  0  0  0  0  0  0  0  0  0  0  0
   37.7280   31.7840   49.7750 N   0  0  0  0  0  0  0  0  0  0  0  0
   38.3790   33.7180   49.9050 H   0  0  0  0  0  0  0  0  0  0  0  0
   39.3760   33.7160   47.6380 H   0  0  0  0  0  0  0  0  0  0  0  0
   39.2060   31.6150   46.2770 H   0  0  0  0  0  0  0  0  0  0  0  0
   33.6700   27.7590   48.5660 C   0  0  0  0  0  0  0  0  0  0  0  0
   34.0570   26.8450   47.7380 O   0  0  0  0  0  0  0  0  0  0  0  0
   32.3650   28.2170   48.5180 O   0  0  0  0  0  0  0  0  0  0  0  0
   31.4370   27.7950   47.6130 C   0  0  0  0  0  0  0  0  0  0  0  0
   30.6710   26.6390   47.7150 C   0  0  0  0  0  3  0  0  0  0  0  0
   29.7560   26.3400   46.7010 C   0  0  0  0  0  3  0  0  0  0  0  0
   29.6070   27.1750   45.6120 C   0  0  0  0  0  3  0  0  0  0  0  0
   30.3650   28.3330   45.4970 C   0  0  0  0  0  0  0  0  0  0  0  0
   30.1880   29.1370   44.3990 C   0  0  0  0  0  3  0  0  0  0  0  0
   30.9470   30.3020   44.2780 C   0  0  0  0  0  3  0  0  0  0  0  0
   31.8700   30.6350   45.2690 C   0  0  0  0  0  3  0  0  0  0  0  0
   31.9970   29.7860   46.3410 C   0  0  0  0  0  3  0  0  0  0  0  0
   31.2660   28.6190   46.5040 C   0  0  0  0  0  0  0  0  0  0  0  0
  1  4  1  6  0  0  0
  1  3  1  0  0  0  0
  1  8  1  0  0  0  0
  1  2  1  0  0  0  0
  2  6  1  0  0  0  0
  3  7  1  1  0  0  0
  3  2  1  0  0  0  0
  5  2  1  0  0  0  0
  8  9  1  0  0  0  0
 10  8  1  0  0  0  0
 11 16  1  0  0  0  0
 11 17  1  0  0  0  0
 12 11  2  0  0  0  0
 13 14  2  0  0  0  0
 13 12  1  0  0  0  0
 14 15  1  0  0  0  0
 15  8  1  0  0  0  0
 15 16  2  0  0  0  0
 18 12  1  0  0  0  0
 19 13  1  0  0  0  0
 20  3  1  0  0  0  0
 21 20  2  0  0  0  0
 22 20  1  0  0  0  0
 23 24  1  0  0  0  0
 23 22  1  0  0  0  0
 25 24  2  0  0  0  0
 26 25  1  0  0  0  0
 27 26  2  0  0  0  0
 27 32  1  0  0  0  0
 28 27  1  0  0  0  0
 29 28  2  0  0  0  0
 29 30  1  0  0  0  0
 30 31  2  0  0  0  0
 31 32  1  0  0  0  0
 32 23  2  0  0  0  0
M  END
>  <minimizedAffinity>
-5.2401166

>  <minimizedRMSD>
0.235146016

$$$$
