
 OpenBabel03252514043D

 35 38  0  0  1  0  0  0  0  0999 V2000
   35.2680   29.2620   48.7020 C   0  0  2  0  0  0  0  0  0  0  0  0
   34.0940   29.3120   49.5670 C   0  0  0  0  0  0  0  0  0  0  0  0
   34.4520   27.9970   49.1260 C   0  0  1  0  0  0  0  0  0  0  0  0
   35.1950   29.5780   47.6660 H   0  0  0  0  0  0  0  0  0  0  0  0
   33.1530   29.8060   49.1810 H   0  0  0  0  0  0  0  0  0  0  0  0
   34.2620   29.6210   50.6260 H   0  0  0  0  0  0  0  0  0  0  0  0
   35.0530   27.2780   49.6830 H   0  0  0  0  0  0  0  0  0  0  0  0
   36.6330   29.2770   49.4110 C   0  0  0  0  0  0  0  0  0  0  0  0
   37.2190   28.3610   49.1370 H   0  0  0  0  0  0  0  0  0  0  0  0
   36.4680   29.2400   50.5000 H   0  0  0  0  0  0  0  0  0  0  0  0
   37.7160   32.7610   49.5430 C   0  0  0  0  0  0  0  0  0  0  0  0
   38.5540   32.8690   48.4190 C   0  0  0  0  0  0  0  0  0  0  0  0
   38.7310   31.7130   47.6220 C   0  0  0  0  0  0  0  0  0  0  0  0
   38.0810   30.5650   47.9920 N   0  0  0  0  0  0  0  0  0  0  0  0
   37.2980   30.5230   49.0700 C   0  0  0  0  0  0  0  0  0  0  0  0
   37.1240   31.6310   49.8390 N   0  0  0  0  0  0  0  0  0  0  0  0
   37.6440   33.6950   50.0880 H   0  0  0  0  0  0  0  0  0  0  0  0
   39.1020   33.7400   48.0630 H   0  0  0  0  0  0  0  0  0  0  0  0
   39.3510   31.6710   46.7330 H   0  0  0  0  0  0  0  0  0  0  0  0
   33.5600   27.3990   48.0560 C   0  0  0  0  0  0  0  0  0  0  0  0
   33.8920   26.1860   47.7450 O   0  0  0  0  0  0  0  0  0  0  0  0
   32.4780   28.0260   47.4360 O   0  0  0  0  0  0  0  0  0  0  0  0
   31.2210   28.0520   47.9820 C   0  0  0  0  0  0  0  0  0  0  0  0
   30.8520   27.5190   49.3150 C   0  0  0  0  0  0  0  0  0  0  0  0
   29.5650   27.6260   49.7020 C   0  0  0  0  0  0  0  0  0  0  0  0
   28.5870   28.2190   48.8830 C   0  0  0  0  0  0  0  0  0  0  0  0
   29.5490   28.7020   47.3690 S   0  0  0  0  0  0  0  0  0  0  0  0
   31.6440   27.0800   49.8920 H   0  0  0  0  0  0  0  0  0  0  0  0
   29.2170   27.2640   50.6540 H   0  0  0  0  0  0  0  0  0  0  0  0
   27.2390   28.4500   49.0300 C   0  0  0  0  0  0  0  0  0  0  0  0
   26.3260   28.7250   48.0370 C   0  0  0  0  0  3  0  0  0  0  0  0
   25.0830   28.8860   48.6630 C   0  0  0  0  0  3  0  0  0  0  0  0
   25.3440   28.6910   50.0250 C   0  0  0  0  0  0  0  0  0  0  0  0
   24.6000   28.7410   50.8330 H   0  0  0  0  0  0  0  0  0  0  0  0
   26.6210   28.4400   50.1840 O   0  0  0  0  0  0  0  0  0  0  0  0
  1  4  1  6  0  0  0
  1  3  1  0  0  0  0
  1  8  1  0  0  0  0
  1  2  1  0  0  0  0
  2  6  1  0  0  0  0
  3  2  1  0  0  0  0
  3  7  1  1  0  0  0
  5  2  1  0  0  0  0
  8 10  1  0  0  0  0
  9  8  1  0  0  0  0
 11 16  1  0  0  0  0
 11 17  1  0  0  0  0
 12 11  2  0  0  0  0
 13 14  2  0  0  0  0
 13 12  1  0  0  0  0
 14 15  1  0  0  0  0
 15  8  1  0  0  0  0
 15 16  2  0  0  0  0
 18 12  1  0  0  0  0
 19 13  1  0  0  0  0
 20  3  1  0  0  0  0
 21 20  2  0  0  0  0
 22 23  1  0  0  0  0
 22 20  1  0  0  0  0
 23 24  2  0  0  0  0
 24 25  1  0  0  0  0
 24 28  1  0  0  0  0
 25 29  1  0  0  0  0
 26 30  1  0  0  0  0
 26 25  2  0  0  0  0
 27 23  1  0  0  0  0
 27 26  1  0  0  0  0
 30 35  1  0  0  0  0
 31 32  1  0  0  0  0
 31 30  2  0  0  0  0
 32 33  2  0  0  0  0
 33 35  1  0  0  0  0
 33 34  1  0  0  0  0
M  END
>  <minimizedAffinity>
-6.08972216

>  <minimizedRMSD>
1.34915316

$$$$
