
 OpenBabel03252514053D

 35 38  0  0  1  0  0  0  0  0999 V2000
   35.2430   29.1920   48.6050 C   0  0  2  0  0  0  0  0  0  0  0  0
   34.0290   29.3080   49.4060 C   0  0  0  0  0  0  0  0  0  0  0  0
   34.3850   27.9650   49.0590 C   0  0  1  0  0  0  0  0  0  0  0  0
   35.2260   29.4490   47.5510 H   0  0  0  0  0  0  0  0  0  0  0  0
   33.1170   29.7930   48.9470 H   0  0  0  0  0  0  0  0  0  0  0  0
   34.1510   29.6760   50.4530 H   0  0  0  0  0  0  0  0  0  0  0  0
   34.9460   27.2710   49.6850 H   0  0  0  0  0  0  0  0  0  0  0  0
   36.5710   29.2270   49.3790 C   0  0  0  0  0  0  0  0  0  0  0  0
   37.1850   28.3220   49.1320 H   0  0  0  0  0  0  0  0  0  0  0  0
   36.3550   29.1860   50.4590 H   0  0  0  0  0  0  0  0  0  0  0  0
   37.6000   32.7260   49.5770 C   0  0  0  0  0  0  0  0  0  0  0  0
   38.4780   32.8540   48.4870 C   0  0  0  0  0  0  0  0  0  0  0  0
   38.7020   31.7070   47.6890 C   0  0  0  0  0  0  0  0  0  0  0  0
   38.0540   30.5470   48.0250 N   0  0  0  0  0  0  0  0  0  0  0  0
   37.2310   30.4860   49.0720 C   0  0  0  0  0  0  0  0  0  0  0  0
   37.0120   31.5850   49.8420 N   0  0  0  0  0  0  0  0  0  0  0  0
   37.4930   33.6540   50.1250 H   0  0  0  0  0  0  0  0  0  0  0  0
   39.0260   33.7350   48.1570 H   0  0  0  0  0  0  0  0  0  0  0  0
   39.3550   31.6800   46.8230 H   0  0  0  0  0  0  0  0  0  0  0  0
   33.5360   27.3200   47.9810 C   0  0  0  0  0  0  0  0  0  0  0  0
   33.8680   26.0890   47.7510 O   0  0  0  0  0  0  0  0  0  0  0  0
   32.4910   27.9230   47.2800 O   0  0  0  0  0  0  0  0  0  0  0  0
   31.2360   28.0790   47.8060 C   0  0  0  0  0  0  0  0  0  0  0  0
   30.7930   27.5920   49.1340 C   0  0  0  0  0  0  0  0  0  0  0  0
   29.5180   27.8300   49.4990 C   0  0  0  0  0  0  0  0  0  0  0  0
   28.6180   28.5160   48.6640 C   0  0  0  0  0  0  0  0  0  0  0  0
   29.6480   28.8940   47.1640 S   0  0  0  0  0  0  0  0  0  0  0  0
   31.5270   27.0760   49.7240 H   0  0  0  0  0  0  0  0  0  0  0  0
   29.1200   27.5090   50.4460 H   0  0  0  0  0  0  0  0  0  0  0  0
   27.2990   28.8840   48.7890 C   0  0  0  0  0  0  0  0  0  0  0  0
   26.2050   28.0540   48.8970 C   0  0  0  0  0  3  0  0  0  0  0  0
   25.0780   28.8800   49.0000 C   0  0  0  0  0  3  0  0  0  0  0  0
   25.5870   30.1830   48.9450 C   0  0  0  0  0  0  0  0  0  0  0  0
   24.9910   31.1060   48.9970 H   0  0  0  0  0  0  0  0  0  0  0  0
   26.8920   30.1280   48.8200 O   0  0  0  0  0  0  0  0  0  0  0  0
  1  4  1  6  0  0  0
  1  3  1  0  0  0  0
  1  8  1  0  0  0  0
  1  2  1  0  0  0  0
  2  6  1  0  0  0  0
  3  2  1  0  0  0  0
  3  7  1  1  0  0  0
  5  2  1  0  0  0  0
  8 10  1  0  0  0  0
  9  8  1  0  0  0  0
 11 16  1  0  0  0  0
 11 17  1  0  0  0  0
 12 11  2  0  0  0  0
 13 14  2  0  0  0  0
 13 12  1  0  0  0  0
 14 15  1  0  0  0  0
 15  8  1  0  0  0  0
 15 16  2  0  0  0  0
 18 12  1  0  0  0  0
 19 13  1  0  0  0  0
 20  3  1  0  0  0  0
 21 20  2  0  0  0  0
 22 23  1  0  0  0  0
 22 20  1  0  0  0  0
 23 24  2  0  0  0  0
 24 25  1  0  0  0  0
 24 28  1  0  0  0  0
 25 29  1  0  0  0  0
 26 30  1  0  0  0  0
 26 25  2  0  0  0  0
 27 23  1  0  0  0  0
 27 26  1  0  0  0  0
 30 35  1  0  0  0  0
 30 31  2  0  0  0  0
 31 32  1  0  0  0  0
 33 34  1  0  0  0  0
 33 32  2  0  0  0  0
 35 33  1  0  0  0  0
M  END
>  <minimizedAffinity>
-6.29431343

>  <minimizedRMSD>
1.58496201

$$$$
