
 OpenBabel03252511533D

 22 23  0  0  0  0  0  0  0  0999 V2000
   36.8250   30.8880   47.8780 N   0  0  0  0  0  0  0  0  0  0  0  0
   37.3400   30.7590   46.6330 C   0  0  0  0  0  0  0  0  0  0  0  0
   38.4320   31.5210   46.2520 C   0  0  0  0  0  0  0  0  0  0  0  0
   38.9070   32.3720   47.2150 C   0  0  0  0  0  0  0  0  0  0  0  0
   39.9120   33.0920   46.9030 O   0  0  0  0  0  0  0  0  0  0  0  0
   38.4280   32.5370   48.4660 N   0  0  0  0  0  0  0  0  0  0  0  0
   37.3610   31.7540   48.7530 C   0  0  0  0  0  0  0  0  0  0  0  0
   36.8510   31.8430   49.8920 O   0  0  0  0  0  0  0  0  0  0  0  0
   36.9240   30.0640   45.9050 H   0  0  0  0  0  0  0  0  0  0  0  0
   38.8940   31.4700   45.2790 H   0  0  0  0  0  0  0  0  0  0  0  0
   35.9940   29.0890   49.1680 C   0  0  0  0  0  0  0  0  0  0  0  0
   35.7190   30.0860   48.2080 C   0  0  0  0  0  0  0  0  0  0  0  0
   34.4350   30.1680   47.7090 C   0  0  0  0  0  0  0  0  0  0  0  0
   33.4990   29.2930   48.1580 N   0  0  0  0  0  0  0  0  0  0  0  0
   33.7740   28.3420   49.0790 C   0  0  0  0  0  0  0  0  0  0  0  0
   35.0240   28.2570   49.5700 N   0  0  0  0  0  0  0  0  0  0  0  0
   36.9780   28.9560   49.6120 H   0  0  0  0  0  0  0  0  0  0  0  0
   34.2710   30.9290   46.9900 H   0  0  0  0  0  0  0  0  0  0  0  0
   32.9800   27.6780   49.3930 H   0  0  0  0  0  0  0  0  0  0  0  0
   39.0090   33.4690   49.4080 C   0  0  0  0  0  0  0  0  0  0  0  0
   39.6230   34.6630   48.7450 C   0  0  0  0  0  0  0  0  0  0  0  0
   39.0850   34.8020   47.7620 H   0  0  0  0  0  0  0  0  0  0  0  0
  1 12  1  0  0  0  0
  1  7  1  0  0  0  0
  2  1  1  0  0  0  0
  3  2  2  0  0  0  0
  3  4  1  0  0  0  0
  4  6  1  0  0  0  0
  5  4  2  0  0  0  0
  6  7  1  0  0  0  0
  6 20  1  0  0  0  0
  7  8  2  0  0  0  0
  9  2  1  0  0  0  0
 10  3  1  0  0  0  0
 11 16  1  0  0  0  0
 11 17  1  0  0  0  0
 12 11  2  0  0  0  0
 13 14  2  0  0  0  0
 13 12  1  0  0  0  0
 14 15  1  0  0  0  0
 15 19  1  0  0  0  0
 15 16  2  0  0  0  0
 18 13  1  0  0  0  0
 21 20  1  0  0  0  0
 22 21  1  0  0  0  0
M  END
>  <minimizedAffinity>
-4.89439297

>  <minimizedRMSD>
1.83293271

$$$$
