
 OpenBabel03252512053D

 36 37  0  0  0  0  0  0  0  0999 V2000
   37.3310   32.0050   49.7050 C   0  0  0  0  0  0  0  0  0  0  0  0
   36.5000   32.7020   49.6480 H   0  0  0  0  0  0  0  0  0  0  0  0
   38.1020   32.5340   50.3520 H   0  0  0  0  0  0  0  0  0  0  0  0
   38.0260   31.7920   48.4150 C   0  0  0  0  0  0  0  0  0  0  0  0
   37.9230   30.6040   47.7810 C   0  0  0  0  0  0  0  0  0  0  0  0
   38.6190   30.3950   46.5880 C   0  0  0  0  0  0  0  0  0  0  0  0
   39.3790   31.4190   46.1100 N   0  0  0  0  0  0  0  0  0  0  0  0
   39.4610   32.5750   46.7480 C   0  0  0  0  0  0  0  0  0  0  0  0
   38.8000   32.7940   47.8990 N   0  0  0  0  0  0  0  0  0  0  0  0
   37.4290   29.6790   47.9170 H   0  0  0  0  0  0  0  0  0  0  0  0
   38.6820   29.5360   45.9260 H   0  0  0  0  0  0  0  0  0  0  0  0
   40.2720   33.6820   46.1960 C   0  0  0  0  0  0  0  0  0  0  0  0
   39.8460   34.6620   46.5260 H   0  0  0  0  0  0  0  0  0  0  0  0
   41.3160   33.6520   46.5030 H   0  0  0  0  0  0  0  0  0  0  0  0
   40.1240   33.7230   44.6580 C   0  0  0  0  0  0  0  0  0  0  0  0
   40.0270   34.7400   44.2770 H   0  0  0  0  0  0  0  0  0  0  0  0
   40.9730   33.1990   44.1810 H   0  0  0  0  0  0  0  0  0  0  0  0
   39.1870   33.1700   44.4310 H   0  0  0  0  0  0  0  0  0  0  0  0
   37.1040   30.6870   50.3280 C   0  0  0  0  0  0  0  0  0  0  0  0
   38.0170   30.0830   50.2120 H   0  0  0  0  0  0  0  0  0  0  0  0
   37.0120   30.8380   51.4430 H   0  0  0  0  0  0  0  0  0  0  0  0
   35.8990   28.6320   49.7390 C   0  0  0  0  0  0  0  0  0  0  0  0
   35.9580   30.0320   49.8290 C   0  0  0  0  0  0  0  0  0  0  0  0
   34.8600   30.7300   49.3890 C   0  0  0  0  0  0  0  0  0  0  0  0
   33.7760   30.0780   48.8920 N   0  0  0  0  0  0  0  0  0  0  0  0
   33.7440   28.7430   48.8160 C   0  0  0  0  0  0  0  0  0  0  0  0
   34.7830   28.0650   49.2320 N   0  0  0  0  0  0  0  0  0  0  0  0
   36.7180   28.0130   50.0630 H   0  0  0  0  0  0  0  0  0  0  0  0
   34.7370   31.8010   49.3890 H   0  0  0  0  0  0  0  0  0  0  0  0
   32.5740   28.0400   48.2790 C   0  0  0  0  0  0  0  0  0  0  0  0
   32.2910   28.0770   47.0600 O   0  0  0  0  0  0  0  0  0  0  0  0
   31.7370   27.3080   49.1090 O   0  0  0  0  0  0  0  0  0  0  0  0
   30.4260   27.6930   49.3570 C   0  0  0  0  0  0  0  0  0  0  0  0
   29.4920   27.0900   48.7860 O   0  0  0  0  0  0  0  0  0  0  0  0
   30.2280   28.7460   50.2430 O   0  0  0  0  0  0  0  0  0  0  0  0
   29.2490   28.9110   50.5230 H   0  0  0  0  0  0  0  0  0  0  0  0
  1 19  1  0  0  0  0
  1  3  1  0  0  0  0
  2  1  1  0  0  0  0
  4  1  1  0  0  0  0
  5 10  1  0  0  0  0
  5  4  2  0  0  0  0
  6  5  1  0  0  0  0
  7  6  2  0  0  0  0
  7  8  1  0  0  0  0
  8  9  2  0  0  0  0
  9  4  1  0  0  0  0
 11  6  1  0  0  0  0
 12 14  1  0  0  0  0
 12 13  1  0  0  0  0
 12  8  1  0  0  0  0
 15 12  1  0  0  0  0
 16 15  1  0  0  0  0
 17 15  1  0  0  0  0
 18 15  1  0  0  0  0
 19 21  1  0  0  0  0
 20 19  1  0  0  0  0
 22 23  1  0  0  0  0
 22 28  1  0  0  0  0
 23 19  1  0  0  0  0
 24 29  1  0  0  0  0
 24 23  2  0  0  0  0
 25 24  1  0  0  0  0
 26 25  2  0  0  0  0
 26 27  1  0  0  0  0
 27 22  2  0  0  0  0
 30 26  1  0  0  0  0
 30 32  1  0  0  0  0
 31 30  2  0  0  0  0
 32 33  1  0  0  0  0
 33 35  1  0  0  0  0
 34 33  2  0  0  0  0
 35 36  1  0  0  0  0
M  END
>  <minimizedAffinity>
-5.29811144

>  <minimizedRMSD>
1.00031304

$$$$
