
 OpenBabel03252513403D

 14 14  0  0  0  0  0  0  0  0999 V2000
   37.2710   31.5130   49.1570 C   0  0  0  0  0  0  0  0  0  0  0  0
   38.2960   32.4800   49.3350 C   0  0  0  0  0  0  0  0  0  0  0  0
   38.9530   32.9160   48.1810 C   0  0  0  0  0  0  0  0  0  0  0  0
   38.5780   32.3960   46.9750 N   0  0  0  0  0  0  0  0  0  0  0  0
   37.6010   31.4840   46.8620 C   0  0  0  0  0  0  0  0  0  0  0  0
   36.9450   31.0390   47.9450 N   0  0  0  0  0  0  0  0  0  0  0  0
   38.5180   32.8270   50.3230 H   0  0  0  0  0  0  0  0  0  0  0  0
   39.7400   33.6530   48.2850 H   0  0  0  0  0  0  0  0  0  0  0  0
   37.3050   31.0730   45.9020 H   0  0  0  0  0  0  0  0  0  0  0  0
   36.6030   31.0650   50.2920 O   0  0  0  0  0  0  0  0  0  0  0  0
   37.1430   29.9570   50.9650 C   0  0  0  0  0  0  0  0  0  0  0  0
   37.0640   28.8160   50.4410 O   0  0  0  0  0  0  0  0  0  0  0  0
   37.7940   29.8750   52.1880 O   0  0  0  0  0  0  0  0  0  0  0  0
   37.3860   29.3290   52.9610 H   0  0  0  0  0  0  0  0  0  0  0  0
  1  2  1  0  0  0  0
  1 10  1  0  0  0  0
  2  7  1  0  0  0  0
  3  8  1  0  0  0  0
  3  2  2  0  0  0  0
  4  3  1  0  0  0  0
  5  4  2  0  0  0  0
  5  6  1  0  0  0  0
  6  1  2  0  0  0  0
  9  5  1  0  0  0  0
 10 11  1  0  0  0  0
 11 13  1  0  0  0  0
 12 11  2  0  0  0  0
 13 14  1  0  0  0  0
M  END
>  <minimizedAffinity>
-3.80222988

>  <minimizedRMSD>
2.61595488

$$$$
