
 OpenBabel03252510103D

 43 46  0  0  1  0  0  0  0  0999 V2000
   37.9820   32.2650   45.0120 C   0  0  0  0  0  0  0  0  0  0  0  0
   37.0990   31.6230   45.3080 H   0  0  0  0  0  0  0  0  0  0  0  0
   37.5730   33.2860   44.9990 H   0  0  0  0  0  0  0  0  0  0  0  0
   38.4730   31.8260   43.6700 C   0  0  0  0  0  0  0  0  0  0  0  0
   38.6720   32.8070   42.6560 C   0  0  0  0  0  0  0  0  0  0  0  0
   39.2570   31.7530   41.2690 S   0  0  0  0  0  0  0  0  0  0  0  0
   39.1260   30.1780   42.3120 C   0  0  0  0  0  0  0  0  0  0  0  0
   38.7570   30.6050   43.2830 N   0  0  0  0  0  0  0  0  0  0  0  0
   39.4270   28.8150   41.9230 N   0  0  0  0  0  0  0  0  0  0  0  0
   39.2970   27.7460   42.6830 C   0  0  0  0  0  0  0  0  0  0  0  0
   39.6710   26.6610   41.9700 N   0  0  0  0  0  0  0  0  0  0  0  0
   40.0270   27.1250   40.7620 C   0  0  0  0  0  0  0  0  0  0  0  0
   40.4910   26.3990   39.6640 C   0  0  0  0  0  0  0  0  0  0  0  0
   40.7880   27.1030   38.5420 N   0  0  0  0  0  0  0  0  0  0  0  0
   40.6360   28.4480   38.5100 C   0  0  0  0  0  0  0  0  0  0  0  0
   40.1910   29.1830   39.5560 N   0  0  0  0  0  0  0  0  0  0  0  0
   39.8830   28.5170   40.6920 C   0  0  0  0  0  0  0  0  0  0  0  0
   38.5580   33.8470   42.5880 H   0  0  0  0  0  0  0  0  0  0  0  0
   38.9390   27.8200   43.7010 H   0  0  0  0  0  0  0  0  0  0  0  0
   40.8880   28.9740   37.5850 H   0  0  0  0  0  0  0  0  0  0  0  0
   40.6440   24.9770   39.7160 N   0  0  0  0  0  0  0  0  0  0  0  0
   39.9140   24.3970   40.1460 H   0  0  0  0  0  0  0  0  0  0  0  0
   41.5580   24.6930   39.2740 H   0  0  0  0  0  0  0  0  0  0  0  0
   38.9900   32.1430   46.0880 C   0  0  1  0  0  0  0  0  0  0  0  0
   37.8220   32.8600   49.6360 C   0  0  0  0  0  0  0  0  0  0  0  0
   38.5500   32.9700   48.4510 C   0  0  0  0  0  0  0  0  0  0  0  0
   38.2940   32.1260   47.3880 C   0  0  0  0  0  0  0  0  0  0  0  0
   37.2890   31.1810   47.5770 N   0  0  0  0  0  0  0  0  0  0  0  0
   36.6010   31.0920   48.7260 C   0  0  0  0  0  0  0  0  0  0  0  0
   36.8470   31.9050   49.7510 N   0  0  0  0  0  0  0  0  0  0  0  0
   38.1320   33.5910   50.3870 H   0  0  0  0  0  0  0  0  0  0  0  0
   39.3330   33.7050   48.2980 H   0  0  0  0  0  0  0  0  0  0  0  0
   35.8290   30.3430   48.8300 H   0  0  0  0  0  0  0  0  0  0  0  0
   39.6600   30.7600   45.9560 C   0  0  0  0  0  0  0  0  0  0  0  0
   40.3460   30.6070   46.8150 H   0  0  0  0  0  0  0  0  0  0  0  0
   40.1510   30.6900   44.9840 H   0  0  0  0  0  0  0  0  0  0  0  0
   38.8320   30.0180   45.9780 H   0  0  0  0  0  0  0  0  0  0  0  0
   40.0460   33.1600   45.9790 C   0  0  0  0  0  0  0  0  0  0  0  0
   39.7370   33.9550   45.2400 H   0  0  0  0  0  0  0  0  0  0  0  0
   40.3720   33.6110   46.9280 H   0  0  0  0  0  0  0  0  0  0  0  0
   41.2360   32.5600   45.4070 N   0  0  0  0  0  0  0  0  0  0  0  0
   41.6010   33.2620   44.7030 H   0  0  0  0  0  0  0  0  0  0  0  0
   41.9780   32.5700   46.1640 H   0  0  0  0  0  0  0  0  0  0  0  0
  1  2  1  0  0  0  0
  3  1  1  0  0  0  0
  4  1  1  0  0  0  0
  5  4  2  0  0  0  0
  6  7  1  0  0  0  0
  6  5  1  0  0  0  0
  7  8  2  0  0  0  0
  8  4  1  0  0  0  0
  9  7  1  0  0  0  0
  9 10  1  0  0  0  0
 10 19  1  0  0  0  0
 11 10  2  0  0  0  0
 12 11  1  0  0  0  0
 13 21  1  0  0  0  0
 13 12  2  0  0  0  0
 14 13  1  0  0  0  0
 15 14  2  0  0  0  0
 15 16  1  0  0  0  0
 16 17  2  0  0  0  0
 17 12  1  0  0  0  0
 17  9  1  0  0  0  0
 18  5  1  0  0  0  0
 20 15  1  0  0  0  0
 21 22  1  0  0  0  0
 23 21  1  0  0  0  0
 24  1  1  6  0  0  0
 24 27  1  0  0  0  0
 25 30  1  0  0  0  0
 25 31  1  0  0  0  0
 26 25  2  0  0  0  0
 27 28  2  0  0  0  0
 27 26  1  0  0  0  0
 28 29  1  0  0  0  0
 29 33  1  0  0  0  0
 29 30  2  0  0  0  0
 32 26  1  0  0  0  0
 34 37  1  0  0  0  0
 34 24  1  0  0  0  0
 34 35  1  0  0  0  0
 36 34  1  0  0  0  0
 38 24  1  0  0  0  0
 38 40  1  0  0  0  0
 39 38  1  0  0  0  0
 41 38  1  0  0  0  0
 41 43  1  0  0  0  0
 42 41  1  0  0  0  0
M  END
>  <minimizedAffinity>
-5.69242907

>  <minimizedRMSD>
0.405676395

$$$$
