
 OpenBabel03252509573D

 40 43  0  0  0  0  0  0  0  0999 V2000
   33.3950   30.3710   44.1760 C   0  0  0  0  0  0  0  0  0  0  0  0
   33.6330   31.3810   43.2190 C   0  0  0  0  0  0  0  0  0  0  0  0
   32.5250   31.9370   42.5660 C   0  0  0  0  0  0  0  0  0  0  0  0
   31.2860   31.4610   42.8990 N   0  0  0  0  0  0  0  0  0  0  0  0
   31.1000   30.4950   43.8180 C   0  0  0  0  0  0  0  0  0  0  0  0
   32.1400   29.9710   44.4340 N   0  0  0  0  0  0  0  0  0  0  0  0
   29.7700   30.0680   44.0940 N   0  0  0  0  0  0  0  0  0  0  0  0
   28.8330   30.0000   43.1430 C   0  0  0  0  0  0  0  0  0  0  0  0
   27.5370   29.5820   43.4110 C   0  0  0  0  0  0  0  0  0  0  0  0
   27.2960   29.2490   44.7190 C   0  0  0  0  0  0  0  0  0  0  0  0
   26.1490   28.8580   45.0640 O   0  0  0  0  0  0  0  0  0  0  0  0
   28.2000   29.3010   45.7100 N   0  0  0  0  0  0  0  0  0  0  0  0
   29.4480   29.7180   45.3750 C   0  0  0  0  0  0  0  0  0  0  0  0
   30.3140   29.7760   46.2810 O   0  0  0  0  0  0  0  0  0  0  0  0
   34.2640   29.9520   44.6730 H   0  0  0  0  0  0  0  0  0  0  0  0
   34.6240   31.7400   42.9730 H   0  0  0  0  0  0  0  0  0  0  0  0
   32.6680   32.7060   41.8340 H   0  0  0  0  0  0  0  0  0  0  0  0
   29.0760   30.2730   42.1230 H   0  0  0  0  0  0  0  0  0  0  0  0
   27.4990   27.7790   49.5530 C   0  0  0  0  0  0  0  0  0  0  0  0
   27.3700   29.1290   49.3610 C   0  0  0  0  0  0  0  0  0  0  0  0
   27.5770   29.7250   48.1440 C   0  0  0  0  0  0  0  0  0  0  0  0
   27.9300   28.9490   47.0630 C   0  0  0  0  0  0  0  0  0  0  0  0
   28.0690   27.5680   47.2280 C   0  0  0  0  0  0  0  0  0  0  0  0
   27.8510   26.9810   48.4850 C   0  0  0  0  0  0  0  0  0  0  0  0
   27.0970   29.8170   50.1560 H   0  0  0  0  0  0  0  0  0  0  0  0
   27.5040   30.7550   47.8920 H   0  0  0  0  0  0  0  0  0  0  0  0
   28.3410   26.8320   46.4680 H   0  0  0  0  0  0  0  0  0  0  0  0
   27.9480   25.9180   48.6510 H   0  0  0  0  0  0  0  0  0  0  0  0
   27.2270   27.0700   51.1110 S   0  0  0  0  0  0  0  0  0  0  0  0
   28.4360   27.0500   51.9750 O   0  0  0  0  0  0  0  0  0  0  0  0
   26.1210   27.8470   51.7900 O   0  0  0  0  0  0  0  0  0  0  0  0
   26.7530   25.7860   50.9390 H   0  0  0  0  0  0  0  0  0  0  0  0
   26.4620   29.4850   42.4130 C   0  0  0  0  0  0  0  0  0  0  0  0
   25.5230   29.7690   42.8930 H   0  0  0  0  0  0  0  0  0  0  0  0
   26.7000   30.1930   41.5680 H   0  0  0  0  0  0  0  0  0  0  0  0
   26.3530   28.1160   41.7780 C   0  0  0  0  0  0  0  0  0  0  0  0
   27.4820   27.2170   42.2890 C   0  0  0  0  0  0  0  0  0  0  0  0
   26.8300   25.8350   42.1750 C   0  0  0  0  0  0  0  0  0  0  0  0
   25.4600   26.1120   42.7530 C   0  0  0  0  0  0  0  0  0  0  0  0
   25.0820   27.4180   42.1300 C   0  0  0  0  0  0  0  0  0  0  0  0
  1  6  1  0  0  0  0
  1 15  1  0  0  0  0
  2  1  2  0  0  0  0
  3  4  2  0  0  0  0
  3  2  1  0  0  0  0
  4  5  1  0  0  0  0
  5  7  1  0  0  0  0
  5  6  2  0  0  0  0
  7 13  1  0  0  0  0
  8  9  2  0  0  0  0
  8  7  1  0  0  0  0
  9 10  1  0  0  0  0
 10 11  2  0  0  0  0
 10 12  1  0  0  0  0
 12 22  1  0  0  0  0
 13 12  1  0  0  0  0
 13 14  2  0  0  0  0
 16  2  1  0  0  0  0
 17  3  1  0  0  0  0
 18  8  1  0  0  0  0
 19 29  1  0  0  0  0
 20 19  1  0  0  0  0
 20 25  1  0  0  0  0
 21 20  2  0  0  0  0
 22 23  2  0  0  0  0
 22 21  1  0  0  0  0
 23 24  1  0  0  0  0
 24 28  1  0  0  0  0
 24 19  2  0  0  0  0
 26 21  1  0  0  0  0
 27 23  1  0  0  0  0
 29 31  2  0  0  0  0
 29 30  2  0  0  0  0
 32 29  1  0  0  0  0
 33 34  1  0  0  0  0
 33  9  1  0  0  0  0
 35 33  1  0  0  0  0
 36 40  1  0  0  0  0
 36 37  1  0  0  0  0
 36 33  1  0  0  0  0
 38 37  1  0  0  0  0
 38 39  1  0  0  0  0
 40 39  1  0  0  0  0
M  END
>  <minimizedAffinity>
-4.6502142

>  <minimizedRMSD>
0.560359538

$$$$
