
 OpenBabel03252513393D

 31 33  0  0  0  0  0  0  0  0999 V2000
   36.8060   29.9610   49.7740 C   0  0  0  0  0  0  0  0  0  0  0  0
   37.9470   30.5070   49.2270 C   0  0  0  0  0  0  0  0  0  0  0  0
   37.9000   30.9340   47.9010 C   0  0  0  0  0  0  0  0  0  0  0  0
   36.7610   30.7970   47.2240 N   0  0  0  0  0  0  0  0  0  0  0  0
   35.6330   30.2530   47.7780 C   0  0  0  0  0  0  0  0  0  0  0  0
   35.6990   29.8460   49.0640 N   0  0  0  0  0  0  0  0  0  0  0  0
   39.0160   31.4970   47.2690 N   0  0  0  0  0  0  0  0  0  0  0  0
   38.9260   32.2820   46.1140 C   0  0  0  0  0  0  0  0  0  0  0  0
   37.7880   32.4100   45.5510 N   0  0  0  0  0  0  0  0  0  0  0  0
   40.0650   32.9240   45.5720 N   0  0  0  0  0  0  0  0  0  0  0  0
   37.7280   32.8210   44.5810 H   0  0  0  0  0  0  0  0  0  0  0  0
   38.8480   30.6120   49.7730 H   0  0  0  0  0  0  0  0  0  0  0  0
   39.9370   31.3160   47.6880 H   0  0  0  0  0  0  0  0  0  0  0  0
   40.7700   32.2670   45.1610 H   0  0  0  0  0  0  0  0  0  0  0  0
   39.9690   33.9590   45.6950 H   0  0  0  0  0  0  0  0  0  0  0  0
   34.3040   29.9580   47.2200 C   0  0  0  0  0  0  0  0  0  0  0  0
   33.5620   30.8910   46.6090 N   0  0  0  0  0  0  0  0  0  0  0  0
   32.3730   30.6960   46.1020 C   0  0  0  0  0  0  0  0  0  0  0  0
   31.7680   29.5000   46.1530 N   0  0  0  0  0  0  0  0  0  0  0  0
   32.4100   28.4630   46.7470 C   0  0  0  0  0  0  0  0  0  0  0  0
   31.8110   27.2290   46.8310 C   0  0  0  0  0  0  0  0  0  0  0  0
   32.4550   26.1820   47.4540 C   0  0  0  0  0  0  0  0  0  0  0  0
   31.9020   25.2530   47.4670 H   0  0  0  0  0  0  0  0  0  0  0  0
   33.7250   26.4320   47.9860 C   0  0  0  0  0  0  0  0  0  0  0  0
   34.1930   25.5870   48.4660 H   0  0  0  0  0  0  0  0  0  0  0  0
   34.2560   27.6940   47.8610 C   0  0  0  0  0  0  0  0  0  0  0  0
   33.6520   28.7510   47.2540 C   0  0  0  0  0  0  0  0  0  0  0  0
   36.8330   29.4810   51.2020 C   0  0  0  0  0  0  0  0  0  0  0  0
   35.5520   29.1370   51.5990 F   0  0  0  0  0  0  0  0  0  0  0  0
   37.7220   28.4530   51.2940 F   0  0  0  0  0  0  0  0  0  0  0  0
   37.2580   30.5510   51.9730 F   0  0  0  0  0  0  0  0  0  0  0  0
  1 28  1  0  0  0  0
  2 12  1  0  0  0  0
  2  1  1  0  0  0  0
  3  2  2  0  0  0  0
  4  5  2  0  0  0  0
  4  3  1  0  0  0  0
  5  6  1  0  0  0  0
  6  1  2  0  0  0  0
  7 13  1  0  0  0  0
  7  3  1  0  0  0  0
  8  7  1  0  0  0  0
  9  8  2  0  0  0  0
 10 15  1  0  0  0  0
 10  8  1  0  0  0  0
 11  9  1  0  0  0  0
 14 10  1  0  0  0  0
 16 27  1  0  0  0  0
 16  5  1  0  0  0  0
 17 16  2  0  0  0  0
 18 19  2  0  0  0  0
 18 17  1  0  0  0  0
 19 20  1  0  0  0  0
 20 21  2  0  0  0  0
 20 27  1  0  0  0  0
 21 22  1  0  0  0  0
 22 23  1  0  0  0  0
 22 24  2  0  0  0  0
 24 25  1  0  0  0  0
 26 24  1  0  0  0  0
 27 26  2  0  0  0  0
 28 30  1  0  0  0  0
 28 29  1  0  0  0  0
 28 31  1  0  0  0  0
M  END
>  <minimizedAffinity>
-7.29508257

>  <minimizedRMSD>
0.48963517

$$$$
