
 OpenBabel03252511463D

 44 49  0  0  1  0  0  0  0  0999 V2000
   34.1640   30.2490   47.5310 C   0  0  0  0  0  0  0  0  0  0  0  0
   35.3840   30.0290   48.1440 C   0  0  0  0  0  0  0  0  0  0  0  0
   35.4750   28.8210   48.9020 C   0  0  0  0  0  0  0  0  0  0  0  0
   34.3980   27.9900   48.9750 N   0  0  0  0  0  0  0  0  0  0  0  0
   33.2430   28.2830   48.3450 C   0  0  0  0  0  0  0  0  0  0  0  0
   33.1340   29.3980   47.6350 N   0  0  0  0  0  0  0  0  0  0  0  0
   34.1270   31.1630   46.9700 H   0  0  0  0  0  0  0  0  0  0  0  0
   36.3850   28.5750   49.4070 H   0  0  0  0  0  0  0  0  0  0  0  0
   36.5770   30.8500   48.1300 C   0  0  0  0  0  0  0  0  0  0  0  0
   36.7990   31.4250   49.3610 C   0  0  0  0  0  0  0  0  0  0  0  0
   37.8950   32.2560   49.5930 C   0  0  0  0  0  0  0  0  0  0  0  0
   38.7850   32.5050   48.5450 C   0  0  0  0  0  0  0  0  0  0  0  0
   38.5430   31.9210   47.3280 C   0  0  0  0  0  0  0  0  0  0  0  0
   39.3810   32.1180   46.2410 C   0  0  0  0  0  0  0  0  0  0  0  0
   39.0890   31.4970   45.0230 C   0  0  0  0  0  0  0  0  0  0  0  0
   37.9860   30.6870   44.8590 C   0  0  0  0  0  0  0  0  0  0  0  0
   37.1510   30.4880   45.9340 C   0  0  0  0  0  0  0  0  0  0  0  0
   37.4670   31.1110   47.1130 C   0  0  0  0  0  0  0  0  0  0  0  0
   36.1910   31.3120   50.2470 H   0  0  0  0  0  0  0  0  0  0  0  0
   38.1010   32.7260   50.5470 H   0  0  0  0  0  0  0  0  0  0  0  0
   39.6420   33.1430   48.6890 H   0  0  0  0  0  0  0  0  0  0  0  0
   40.2550   32.7480   46.3370 H   0  0  0  0  0  0  0  0  0  0  0  0
   39.7910   31.6980   44.2160 H   0  0  0  0  0  0  0  0  0  0  0  0
   37.8130   30.2360   43.8960 H   0  0  0  0  0  0  0  0  0  0  0  0
   36.2790   29.8480   45.8050 H   0  0  0  0  0  0  0  0  0  0  0  0
   32.1110   27.3100   48.4830 C   0  0  1  0  0  0  0  0  0  0  0  0
   30.8540   27.6110   47.7450 C   0  0  0  0  0  0  0  0  0  0  0  0
   31.7230   26.4690   47.2910 C   0  0  1  0  0  0  0  0  0  0  0  0
   32.0520   26.7600   49.4410 H   0  0  0  0  0  0  0  0  0  0  0  0
   30.8690   28.5590   47.1290 H   0  0  0  0  0  0  0  0  0  0  0  0
   29.8920   27.4030   48.2390 H   0  0  0  0  0  0  0  0  0  0  0  0
   31.2910   25.4770   47.4520 H   0  0  0  0  0  0  0  0  0  0  0  0
   32.6430   26.6010   46.1370 C   0  0  0  0  0  0  0  0  0  0  0  0
   32.4870   27.6780   45.3130 N   0  0  0  0  0  0  0  0  0  0  0  0
   33.3560   27.8530   44.2730 C   0  0  0  0  0  0  0  0  0  0  0  0
   34.3860   26.9970   44.0070 N   0  0  0  0  0  0  0  0  0  0  0  0
   34.5650   25.9180   44.8060 C   0  0  0  0  0  0  0  0  0  0  0  0
   35.5780   25.0110   44.5780 C   0  0  0  0  0  0  0  0  0  0  0  0
   35.6840   23.9130   45.4360 C   0  0  0  0  0  0  0  0  0  0  0  0
   36.4970   23.2010   45.2390 H   0  0  0  0  0  0  0  0  0  0  0  0
   34.7940   23.7350   46.4970 C   0  0  0  0  0  0  0  0  0  0  0  0
   34.9870   22.8510   47.0790 H   0  0  0  0  0  0  0  0  0  0  0  0
   33.7880   24.6640   46.7000 C   0  0  0  0  0  0  0  0  0  0  0  0
   33.6820   25.7540   45.8520 C   0  0  0  0  0  0  0  0  0  0  0  0
  1  6  2  0  0  0  0
  1  2  1  0  0  0  0
  2  3  2  0  0  0  0
  3  4  1  0  0  0  0
  3  8  1  0  0  0  0
  5 26  1  0  0  0  0
  5  4  2  0  0  0  0
  6  5  1  0  0  0  0
  7  1  1  0  0  0  0
  9  2  1  0  0  0  0
  9 10  1  0  0  0  0
 10 11  2  0  0  0  0
 10 19  1  0  0  0  0
 11 20  1  0  0  0  0
 12 21  1  0  0  0  0
 12 11  1  0  0  0  0
 13 12  2  0  0  0  0
 14 22  1  0  0  0  0
 14 13  1  0  0  0  0
 15 14  2  0  0  0  0
 16 15  1  0  0  0  0
 16 17  2  0  0  0  0
 17 18  1  0  0  0  0
 18 13  1  0  0  0  0
 18  9  2  0  0  0  0
 23 15  1  0  0  0  0
 24 16  1  0  0  0  0
 25 17  1  0  0  0  0
 26 29  1  1  0  0  0
 27 31  1  0  0  0  0
 27 26  1  0  0  0  0
 28 32  1  1  0  0  0
 28 27  1  0  0  0  0
 28 26  1  0  0  0  0
 30 27  1  0  0  0  0
 33 28  1  0  0  0  0
 34 33  2  0  0  0  0
 35 34  1  0  0  0  0
 36 35  2  0  0  0  0
 36 37  1  0  0  0  0
 37 44  1  0  0  0  0
 38 37  2  0  0  0  0
 38 39  1  0  0  0  0
 39 41  2  0  0  0  0
 40 39  1  0  0  0  0
 41 43  1  0  0  0  0
 41 42  1  0  0  0  0
 44 33  1  0  0  0  0
 44 43  2  0  0  0  0
M  END
>  <minimizedAffinity>
-6.65493059

>  <minimizedRMSD>
2.06457019

$$$$
