
 OpenBabel03252514043D

 41 45  0  0  1  0  0  0  0  0999 V2000
   33.2170   27.4930   47.9720 C   0  0  0  0  0  0  0  0  0  0  0  0
   33.7590   26.3250   47.8430 O   0  0  0  0  0  0  0  0  0  0  0  0
   35.2720   29.0720   48.2780 C   0  0  2  0  0  0  0  0  0  0  0  0
   34.0220   29.7870   48.5180 C   0  0  0  0  0  0  0  0  0  0  0  0
   33.9980   28.4070   48.8970 C   0  0  1  0  0  0  0  0  0  0  0  0
   35.5500   28.7430   47.2730 H   0  0  0  0  0  0  0  0  0  0  0  0
   34.0460   30.5940   49.3060 H   0  0  0  0  0  0  0  0  0  0  0  0
   33.4220   30.1500   47.6310 H   0  0  0  0  0  0  0  0  0  0  0  0
   34.1720   28.0090   49.8930 H   0  0  0  0  0  0  0  0  0  0  0  0
   36.3630   29.2320   49.3520 C   0  0  0  0  0  0  0  0  0  0  0  0
   37.0430   28.3400   49.3280 H   0  0  0  0  0  0  0  0  0  0  0  0
   35.8920   29.2700   50.3470 H   0  0  0  0  0  0  0  0  0  0  0  0
   37.5470   32.6780   49.6010 C   0  0  0  0  0  0  0  0  0  0  0  0
   38.4530   32.7700   48.5190 C   0  0  0  0  0  0  0  0  0  0  0  0
   38.6380   31.6200   47.7150 C   0  0  0  0  0  0  0  0  0  0  0  0
   37.9310   30.4870   48.0310 N   0  0  0  0  0  0  0  0  0  0  0  0
   37.0810   30.4640   49.0770 C   0  0  0  0  0  0  0  0  0  0  0  0
   36.9020   31.5630   49.8490 N   0  0  0  0  0  0  0  0  0  0  0  0
   37.3740   33.5290   50.2400 H   0  0  0  0  0  0  0  0  0  0  0  0
   38.9830   33.6680   48.3080 H   0  0  0  0  0  0  0  0  0  0  0  0
   39.3280   31.6740   46.8850 H   0  0  0  0  0  0  0  0  0  0  0  0
   32.0350   27.7980   47.2990 O   0  0  0  0  0  0  0  0  0  0  0  0
   30.8540   28.0630   47.9320 C   0  0  0  0  0  0  0  0  0  0  0  0
   30.5970   27.8540   49.3880 C   0  0  0  0  0  0  0  0  0  0  0  0
   29.3710   28.1690   49.8590 C   0  0  0  0  0  0  0  0  0  0  0  0
   28.3630   28.6760   49.0300 C   0  0  0  0  0  0  0  0  0  0  0  0
   29.1850   28.7330   47.3760 S   0  0  0  0  0  0  0  0  0  0  0  0
   31.4510   27.4620   49.9160 H   0  0  0  0  0  0  0  0  0  0  0  0
   29.2500   27.9580   50.9000 H   0  0  0  0  0  0  0  0  0  0  0  0
   27.0490   29.0500   49.0870 C   0  0  0  0  0  0  0  0  0  0  0  0
   26.1430   28.3070   49.7990 N   0  0  0  0  0  0  0  0  0  0  0  0
   24.8770   28.6190   50.0090 C   0  0  0  0  0  3  0  0  0  0  0  0
   24.3570   29.7410   49.5160 N   0  0  0  0  0  0  0  0  0  0  0  0
   25.1070   30.5900   48.7870 C   0  0  0  0  0  0  0  0  0  0  0  0
   24.5900   31.7370   48.2400 C   0  0  0  0  0  3  0  0  0  0  0  0
   25.3720   32.5680   47.4670 C   0  0  0  0  0  0  0  0  0  0  0  0
   24.8470   33.4270   47.1040 H   0  0  0  0  0  0  0  0  0  0  0  0
   26.6840   32.1790   47.2830 C   0  0  0  0  0  0  0  0  0  0  0  0
   27.2540   32.8760   46.6610 H   0  0  0  0  0  0  0  0  0  0  0  0
   27.1670   31.0230   47.8470 C   0  0  0  0  0  3  0  0  0  0  0  0
   26.4090   30.1770   48.6240 C   0  0  0  0  0  0  0  0  0  0  0  0
  1  5  1  0  0  0  0
  2  1  2  0  0  0  0
  3  6  1  6  0  0  0
  3  4  1  0  0  0  0
  3  5  1  0  0  0  0
  3 10  1  0  0  0  0
  4  5  1  0  0  0  0
  4  7  1  0  0  0  0
  5  9  1  1  0  0  0
  8  4  1  0  0  0  0
 10 12  1  0  0  0  0
 11 10  1  0  0  0  0
 13 18  1  0  0  0  0
 13 19  1  0  0  0  0
 14 13  2  0  0  0  0
 15 16  2  0  0  0  0
 15 14  1  0  0  0  0
 16 17  1  0  0  0  0
 17 10  1  0  0  0  0
 17 18  2  0  0  0  0
 20 14  1  0  0  0  0
 21 15  1  0  0  0  0
 22 23  1  0  0  0  0
 22  1  1  0  0  0  0
 23 24  2  0  0  0  0
 24 25  1  0  0  0  0
 24 28  1  0  0  0  0
 25 29  1  0  0  0  0
 26 30  1  0  0  0  0
 26 25  2  0  0  0  0
 27 23  1  0  0  0  0
 27 26  1  0  0  0  0
 30 31  1  0  0  0  0
 31 32  2  0  0  0  0
 33 32  1  0  0  0  0
 34 33  2  0  0  0  0
 35 34  1  0  0  0  0
 36 35  2  0  0  0  0
 37 36  1  0  0  0  0
 38 36  1  0  0  0  0
 38 40  2  0  0  0  0
 39 38  1  0  0  0  0
 40 41  1  0  0  0  0
 41 34  1  0  0  0  0
 41 30  2  0  0  0  0
M  END
>  <minimizedAffinity>
-6.32965231

>  <minimizedRMSD>
2.83703279

$$$$
