
 OpenBabel03252514023D

 30 32  0  0  1  0  0  0  0  0999 V2000
   35.5320   29.5010   49.1520 C   0  0  2  0  0  0  0  0  0  0  0  0
   34.5050   29.5680   50.2030 C   0  0  0  0  0  0  0  0  0  0  0  0
   34.7450   28.2590   49.6190 C   0  0  1  0  0  0  0  0  0  0  0  0
   35.3720   29.7460   48.1150 H   0  0  0  0  0  0  0  0  0  0  0  0
   33.5780   30.1500   49.9230 H   0  0  0  0  0  0  0  0  0  0  0  0
   34.7960   29.8200   51.2550 H   0  0  0  0  0  0  0  0  0  0  0  0
   35.4170   27.4910   50.0370 H   0  0  0  0  0  0  0  0  0  0  0  0
   36.9900   29.4660   49.6100 C   0  0  0  0  0  0  0  0  0  0  0  0
   36.9930   29.5450   50.7150 H   0  0  0  0  0  0  0  0  0  0  0  0
   37.4700   28.4930   49.3660 H   0  0  0  0  0  0  0  0  0  0  0  0
   38.3920   32.8330   49.2760 C   0  0  0  0  0  0  0  0  0  0  0  0
   38.9120   32.8330   47.9720 C   0  0  0  0  0  0  0  0  0  0  0  0
   38.7700   31.6560   47.2170 C   0  0  0  0  0  0  0  0  0  0  0  0
   38.1400   30.5920   47.7950 N   0  0  0  0  0  0  0  0  0  0  0  0
   37.6600   30.6390   49.0430 C   0  0  0  0  0  0  0  0  0  0  0  0
   37.7900   31.7660   49.7790 N   0  0  0  0  0  0  0  0  0  0  0  0
   38.5200   33.7490   49.8200 H   0  0  0  0  0  0  0  0  0  0  0  0
   39.4130   33.6720   47.5060 H   0  0  0  0  0  0  0  0  0  0  0  0
   39.1360   31.5590   46.2080 H   0  0  0  0  0  0  0  0  0  0  0  0
   33.6720   27.7410   48.7070 C   0  0  0  0  0  0  0  0  0  0  0  0
   34.1010   26.9960   47.7450 O   0  0  0  0  0  0  0  0  0  0  0  0
   32.3170   27.9960   48.8390 O   0  0  0  0  0  0  0  0  0  0  0  0
   31.4520   27.8420   47.7920 C   0  0  0  0  0  0  0  0  0  0  0  0
   30.6060   26.7400   47.9610 C   0  0  0  0  0  3  0  0  0  0  0  0
   29.6560   26.4340   46.9820 C   0  0  0  0  0  0  0  0  0  0  0  0
   28.9860   25.5890   47.0820 H   0  0  0  0  0  0  0  0  0  0  0  0
   29.5570   27.2190   45.8500 C   0  0  0  0  0  3  0  0  0  0  0  0
   30.3930   28.3090   45.6810 C   0  0  0  0  0  0  0  0  0  0  0  0
   30.3850   28.9750   44.8320 H   0  0  0  0  0  0  0  0  0  0  0  0
   31.3300   28.5990   46.6630 C   0  0  0  0  0  3  0  0  0  0  0  0
  1  4  1  6  0  0  0
  1  8  1  0  0  0  0
  1  3  1  0  0  0  0
  1  2  1  0  0  0  0
  2  6  1  0  0  0  0
  3  7  1  1  0  0  0
  3  2  1  0  0  0  0
  5  2  1  0  0  0  0
  8  9  1  0  0  0  0
 10  8  1  0  0  0  0
 11 16  1  0  0  0  0
 11 17  1  0  0  0  0
 12 11  2  0  0  0  0
 13 14  2  0  0  0  0
 13 12  1  0  0  0  0
 14 15  1  0  0  0  0
 15  8  1  0  0  0  0
 15 16  2  0  0  0  0
 18 12  1  0  0  0  0
 19 13  1  0  0  0  0
 20 22  1  0  0  0  0
 20  3  1  0  0  0  0
 21 20  2  0  0  0  0
 23 24  1  0  0  0  0
 23 22  1  0  0  0  0
 25 26  1  0  0  0  0
 25 24  2  0  0  0  0
 27 25  1  0  0  0  0
 28 27  2  0  0  0  0
 28 30  1  0  0  0  0
 29 28  1  0  0  0  0
 30 23  2  0  0  0  0
M  END
>  <minimizedAffinity>
-4.93669558

>  <minimizedRMSD>
0.332540303

$$$$
