
 OpenBabel03252514023D

 30 32  0  0  1  0  0  0  0  0999 V2000
   35.5510   29.4990   49.0890 C   0  0  2  0  0  0  0  0  0  0  0  0
   34.5490   29.6050   50.1600 C   0  0  0  0  0  0  0  0  0  0  0  0
   34.7580   28.2790   49.6020 C   0  0  1  0  0  0  0  0  0  0  0  0
   35.3730   29.7220   48.0510 H   0  0  0  0  0  0  0  0  0  0  0  0
   33.6250   30.1940   49.8860 H   0  0  0  0  0  0  0  0  0  0  0  0
   34.8660   29.8770   51.2000 H   0  0  0  0  0  0  0  0  0  0  0  0
   35.4280   27.5120   50.0230 H   0  0  0  0  0  0  0  0  0  0  0  0
   37.0190   29.4520   49.5170 C   0  0  0  0  0  0  0  0  0  0  0  0
   37.0420   29.4460   50.6250 H   0  0  0  0  0  0  0  0  0  0  0  0
   37.5090   28.5090   49.1890 H   0  0  0  0  0  0  0  0  0  0  0  0
   38.2320   32.9050   49.3660 C   0  0  0  0  0  0  0  0  0  0  0  0
   38.8580   32.9680   48.1110 C   0  0  0  0  0  0  0  0  0  0  0  0
   38.8530   31.8030   47.3250 C   0  0  0  0  0  0  0  0  0  0  0  0
   38.2440   30.6900   47.8280 N   0  0  0  0  0  0  0  0  0  0  0  0
   37.6590   30.6770   49.0310 C   0  0  0  0  0  0  0  0  0  0  0  0
   37.6580   31.7920   49.7960 N   0  0  0  0  0  0  0  0  0  0  0  0
   38.2580   33.8140   49.9360 H   0  0  0  0  0  0  0  0  0  0  0  0
   39.3430   33.8470   47.7060 H   0  0  0  0  0  0  0  0  0  0  0  0
   39.3070   31.7530   46.3490 H   0  0  0  0  0  0  0  0  0  0  0  0
   33.6580   27.7570   48.7250 C   0  0  0  0  0  0  0  0  0  0  0  0
   34.0580   27.0050   47.7550 O   0  0  0  0  0  0  0  0  0  0  0  0
   32.3070   28.0130   48.8950 O   0  0  0  0  0  0  0  0  0  0  0  0
   31.4100   27.8380   47.8790 C   0  0  0  0  0  0  0  0  0  0  0  0
   30.5310   26.7770   48.1260 C   0  0  0  0  0  3  0  0  0  0  0  0
   29.5450   26.4560   47.1890 C   0  0  0  0  0  0  0  0  0  0  0  0
   28.8490   25.6400   47.3480 H   0  0  0  0  0  0  0  0  0  0  0  0
   29.4400   27.1880   46.0220 C   0  0  0  0  0  3  0  0  0  0  0  0
   30.3080   28.2380   45.7770 C   0  0  0  0  0  0  0  0  0  0  0  0
   30.2990   28.8600   44.8960 H   0  0  0  0  0  0  0  0  0  0  0  0
   31.2820   28.5430   46.7190 C   0  0  0  0  0  3  0  0  0  0  0  0
  1  4  1  6  0  0  0
  1  8  1  0  0  0  0
  1  3  1  0  0  0  0
  1  2  1  0  0  0  0
  2  6  1  0  0  0  0
  3  7  1  1  0  0  0
  3  2  1  0  0  0  0
  5  2  1  0  0  0  0
  8  9  1  0  0  0  0
 10  8  1  0  0  0  0
 11 16  1  0  0  0  0
 11 17  1  0  0  0  0
 12 11  2  0  0  0  0
 13 14  2  0  0  0  0
 13 12  1  0  0  0  0
 14 15  1  0  0  0  0
 15  8  1  0  0  0  0
 15 16  2  0  0  0  0
 18 12  1  0  0  0  0
 19 13  1  0  0  0  0
 20 22  1  0  0  0  0
 20  3  1  0  0  0  0
 21 20  2  0  0  0  0
 23 24  1  0  0  0  0
 23 22  1  0  0  0  0
 25 26  1  0  0  0  0
 25 24  2  0  0  0  0
 27 25  1  0  0  0  0
 28 27  2  0  0  0  0
 28 30  1  0  0  0  0
 29 28  1  0  0  0  0
 30 23  2  0  0  0  0
M  END
>  <minimizedAffinity>
-4.96099806

>  <minimizedRMSD>
0.353695005

$$$$
