
 OpenBabel03252513543D

 17 18  0  0  0  0  0  0  0  0999 V2000
   35.0860   30.3840   48.7730 C   0  0  0  0  0  0  0  0  0  0  0  0
   35.5640   30.2880   50.0940 C   0  0  0  0  0  0  0  0  0  0  0  0
   36.9590   30.2920   50.2900 C   0  0  0  0  0  0  0  0  0  0  0  0
   37.7620   30.3900   49.1910 N   0  0  0  0  0  0  0  0  0  0  0  0
   37.2800   30.4820   47.9460 C   0  0  0  0  0  0  0  0  0  0  0  0
   35.9400   30.4770   47.7470 N   0  0  0  0  0  0  0  0  0  0  0  0
   34.0110   30.3790   48.6490 H   0  0  0  0  0  0  0  0  0  0  0  0
   34.9330   30.2080   50.9770 H   0  0  0  0  0  0  0  0  0  0  0  0
   37.3760   30.2210   51.2830 H   0  0  0  0  0  0  0  0  0  0  0  0
   38.2220   30.5840   46.8100 C   0  0  0  0  0  0  0  0  0  0  0  0
   38.0210   29.8080   46.0480 H   0  0  0  0  0  0  0  0  0  0  0  0
   39.2260   30.3340   47.2290 H   0  0  0  0  0  0  0  0  0  0  0  0
   38.3160   31.9620   46.2460 C   0  0  0  0  0  0  0  0  0  0  0  0
   38.0740   32.0300   44.7680 C   0  0  0  0  0  0  0  0  0  0  0  0
   39.0660   33.0010   44.1710 C   0  0  0  0  0  0  0  0  0  0  0  0
   39.9530   33.4790   45.3000 C   0  0  0  0  0  0  0  0  0  0  0  0
   39.7270   32.4630   46.4010 C   0  0  0  0  0  0  0  0  0  0  0  0
  1  2  1  0  0  0  0
  2  3  2  0  0  0  0
  2  8  1  0  0  0  0
  3  9  1  0  0  0  0
  4  3  1  0  0  0  0
  5  4  2  0  0  0  0
  6  5  1  0  0  0  0
  6  1  2  0  0  0  0
  7  1  1  0  0  0  0
 10 12  1  0  0  0  0
 10  5  1  0  0  0  0
 11 10  1  0  0  0  0
 13 17  1  0  0  0  0
 13 10  1  0  0  0  0
 14 13  1  0  0  0  0
 15 14  1  0  0  0  0
 15 16  1  0  0  0  0
 16 17  1  0  0  0  0
M  END
>  <minimizedAffinity>
-4.11752462

>  <minimizedRMSD>
6.78718758

$$$$
