
 OpenBabel03252514023D

 30 32  0  0  1  0  0  0  0  0999 V2000
   35.4740   29.4420   49.1130 C   0  0  2  0  0  0  0  0  0  0  0  0
   34.4730   29.5320   50.1870 C   0  0  0  0  0  0  0  0  0  0  0  0
   34.6550   28.2220   49.5820 C   0  0  1  0  0  0  0  0  0  0  0  0
   35.3020   29.7060   48.0840 H   0  0  0  0  0  0  0  0  0  0  0  0
   33.5610   30.1480   49.9320 H   0  0  0  0  0  0  0  0  0  0  0  0
   34.7940   29.7600   51.2350 H   0  0  0  0  0  0  0  0  0  0  0  0
   35.3080   27.4270   49.9760 H   0  0  0  0  0  0  0  0  0  0  0  0
   36.9400   29.3510   49.5410 C   0  0  0  0  0  0  0  0  0  0  0  0
   36.9640   29.3610   50.6490 H   0  0  0  0  0  0  0  0  0  0  0  0
   37.3950   28.3860   49.2280 H   0  0  0  0  0  0  0  0  0  0  0  0
   38.3810   32.7140   49.3800 C   0  0  0  0  0  0  0  0  0  0  0  0
   38.9000   32.7760   48.0770 C   0  0  0  0  0  0  0  0  0  0  0  0
   38.7430   31.6420   47.2610 C   0  0  0  0  0  0  0  0  0  0  0  0
   38.1010   30.5570   47.7850 N   0  0  0  0  0  0  0  0  0  0  0  0
   37.6220   30.5440   49.0350 C   0  0  0  0  0  0  0  0  0  0  0  0
   37.7670   31.6290   49.8280 N   0  0  0  0  0  0  0  0  0  0  0  0
   38.5210   33.5990   49.9710 H   0  0  0  0  0  0  0  0  0  0  0  0
   39.4100   33.6330   47.6550 H   0  0  0  0  0  0  0  0  0  0  0  0
   39.1060   31.5930   46.2490 H   0  0  0  0  0  0  0  0  0  0  0  0
   33.5460   27.7540   48.6870 C   0  0  0  0  0  0  0  0  0  0  0  0
   33.9360   27.0650   47.6670 O   0  0  0  0  0  0  0  0  0  0  0  0
   32.1970   27.9970   48.8870 O   0  0  0  0  0  0  0  0  0  0  0  0
   31.2840   27.8520   47.8800 C   0  0  0  0  0  0  0  0  0  0  0  0
   30.4470   26.7480   48.0800 C   0  0  0  0  0  3  0  0  0  0  0  0
   29.4510   26.4490   47.1470 C   0  0  0  0  0  0  0  0  0  0  0  0
   28.7870   25.6020   47.2690 H   0  0  0  0  0  0  0  0  0  0  0  0
   29.2960   27.2460   46.0280 C   0  0  0  0  0  3  0  0  0  0  0  0
   30.1230   28.3380   45.8280 C   0  0  0  0  0  0  0  0  0  0  0  0
   30.0740   29.0110   44.9880 H   0  0  0  0  0  0  0  0  0  0  0  0
   31.1060   28.6190   46.7670 C   0  0  0  0  0  3  0  0  0  0  0  0
  1  4  1  6  0  0  0
  1  8  1  0  0  0  0
  1  3  1  0  0  0  0
  1  2  1  0  0  0  0
  2  6  1  0  0  0  0
  3  7  1  1  0  0  0
  3  2  1  0  0  0  0
  5  2  1  0  0  0  0
  8  9  1  0  0  0  0
 10  8  1  0  0  0  0
 11 16  1  0  0  0  0
 11 17  1  0  0  0  0
 12 11  2  0  0  0  0
 13 14  2  0  0  0  0
 13 12  1  0  0  0  0
 14 15  1  0  0  0  0
 15  8  1  0  0  0  0
 15 16  2  0  0  0  0
 18 12  1  0  0  0  0
 19 13  1  0  0  0  0
 20 22  1  0  0  0  0
 20  3  1  0  0  0  0
 21 20  2  0  0  0  0
 23 24  1  0  0  0  0
 23 22  1  0  0  0  0
 25 26  1  0  0  0  0
 25 24  2  0  0  0  0
 27 25  1  0  0  0  0
 28 27  2  0  0  0  0
 28 30  1  0  0  0  0
 29 28  1  0  0  0  0
 30 23  2  0  0  0  0
M  END
>  <minimizedAffinity>
-4.9857049

>  <minimizedRMSD>
0.570915222

$$$$
