
 OpenBabel03252514023D

 30 32  0  0  1  0  0  0  0  0999 V2000
   35.5510   29.4990   49.0880 C   0  0  2  0  0  0  0  0  0  0  0  0
   34.5490   29.6060   50.1590 C   0  0  0  0  0  0  0  0  0  0  0  0
   34.7570   28.2790   49.6010 C   0  0  1  0  0  0  0  0  0  0  0  0
   35.3730   29.7220   48.0500 H   0  0  0  0  0  0  0  0  0  0  0  0
   33.6240   30.1940   49.8850 H   0  0  0  0  0  0  0  0  0  0  0  0
   34.8660   29.8780   51.1990 H   0  0  0  0  0  0  0  0  0  0  0  0
   35.4270   27.5120   50.0230 H   0  0  0  0  0  0  0  0  0  0  0  0
   37.0190   29.4520   49.5160 C   0  0  0  0  0  0  0  0  0  0  0  0
   37.0410   29.4460   50.6240 H   0  0  0  0  0  0  0  0  0  0  0  0
   37.5090   28.5100   49.1880 H   0  0  0  0  0  0  0  0  0  0  0  0
   38.2300   32.9050   49.3660 C   0  0  0  0  0  0  0  0  0  0  0  0
   38.8580   32.9690   48.1120 C   0  0  0  0  0  0  0  0  0  0  0  0
   38.8540   31.8030   47.3250 C   0  0  0  0  0  0  0  0  0  0  0  0
   38.2450   30.6900   47.8280 N   0  0  0  0  0  0  0  0  0  0  0  0
   37.6590   30.6770   49.0310 C   0  0  0  0  0  0  0  0  0  0  0  0
   37.6560   31.7920   49.7960 N   0  0  0  0  0  0  0  0  0  0  0  0
   38.2550   33.8150   49.9360 H   0  0  0  0  0  0  0  0  0  0  0  0
   39.3430   33.8470   47.7070 H   0  0  0  0  0  0  0  0  0  0  0  0
   39.3090   31.7530   46.3510 H   0  0  0  0  0  0  0  0  0  0  0  0
   33.6580   27.7570   48.7250 C   0  0  0  0  0  0  0  0  0  0  0  0
   34.0570   27.0040   47.7550 O   0  0  0  0  0  0  0  0  0  0  0  0
   32.3070   28.0140   48.8940 O   0  0  0  0  0  0  0  0  0  0  0  0
   31.4100   27.8390   47.8780 C   0  0  0  0  0  0  0  0  0  0  0  0
   30.5310   26.7760   48.1260 C   0  0  0  0  0  3  0  0  0  0  0  0
   29.5440   26.4560   47.1890 C   0  0  0  0  0  0  0  0  0  0  0  0
   28.8490   25.6400   47.3490 H   0  0  0  0  0  0  0  0  0  0  0  0
   29.4390   27.1880   46.0230 C   0  0  0  0  0  3  0  0  0  0  0  0
   30.3060   28.2380   45.7760 C   0  0  0  0  0  0  0  0  0  0  0  0
   30.2960   28.8620   44.8960 H   0  0  0  0  0  0  0  0  0  0  0  0
   31.2800   28.5430   46.7190 C   0  0  0  0  0  3  0  0  0  0  0  0
  1  4  1  6  0  0  0
  1  8  1  0  0  0  0
  1  3  1  0  0  0  0
  1  2  1  0  0  0  0
  2  6  1  0  0  0  0
  3  7  1  1  0  0  0
  3  2  1  0  0  0  0
  5  2  1  0  0  0  0
  8  9  1  0  0  0  0
 10  8  1  0  0  0  0
 11 16  1  0  0  0  0
 11 17  1  0  0  0  0
 12 11  2  0  0  0  0
 13 14  2  0  0  0  0
 13 12  1  0  0  0  0
 14 15  1  0  0  0  0
 15  8  1  0  0  0  0
 15 16  2  0  0  0  0
 18 12  1  0  0  0  0
 19 13  1  0  0  0  0
 20 22  1  0  0  0  0
 20  3  1  0  0  0  0
 21 20  2  0  0  0  0
 23 24  1  0  0  0  0
 23 22  1  0  0  0  0
 25 26  1  0  0  0  0
 25 24  2  0  0  0  0
 27 25  1  0  0  0  0
 28 27  2  0  0  0  0
 28 30  1  0  0  0  0
 29 28  1  0  0  0  0
 30 23  2  0  0  0  0
M  END
>  <minimizedAffinity>
-4.96068335

>  <minimizedRMSD>
0.778950453

$$$$
