
 OpenBabel03252514023D

 30 32  0  0  1  0  0  0  0  0999 V2000
   35.4910   29.4770   49.1710 C   0  0  2  0  0  0  0  0  0  0  0  0
   34.4580   29.4870   50.2190 C   0  0  0  0  0  0  0  0  0  0  0  0
   34.7010   28.2110   49.5650 C   0  0  1  0  0  0  0  0  0  0  0  0
   35.3370   29.7790   48.1500 H   0  0  0  0  0  0  0  0  0  0  0  0
   33.5330   30.0840   49.9650 H   0  0  0  0  0  0  0  0  0  0  0  0
   34.7430   29.6800   51.2850 H   0  0  0  0  0  0  0  0  0  0  0  0
   35.3700   27.4210   49.9440 H   0  0  0  0  0  0  0  0  0  0  0  0
   36.9460   29.4150   49.6360 C   0  0  0  0  0  0  0  0  0  0  0  0
   36.9450   29.4800   50.7420 H   0  0  0  0  0  0  0  0  0  0  0  0
   37.4130   28.4380   49.3820 H   0  0  0  0  0  0  0  0  0  0  0  0
   38.4180   32.7570   49.3600 C   0  0  0  0  0  0  0  0  0  0  0  0
   38.9240   32.7750   48.0500 C   0  0  0  0  0  0  0  0  0  0  0  0
   38.7470   31.6180   47.2710 C   0  0  0  0  0  0  0  0  0  0  0  0
   38.1010   30.5560   47.8330 N   0  0  0  0  0  0  0  0  0  0  0  0
   37.6350   30.5850   49.0870 C   0  0  0  0  0  0  0  0  0  0  0  0
   37.7980   31.6920   49.8460 N   0  0  0  0  0  0  0  0  0  0  0  0
   38.5730   33.6580   49.9220 H   0  0  0  0  0  0  0  0  0  0  0  0
   39.4380   33.6130   47.5970 H   0  0  0  0  0  0  0  0  0  0  0  0
   39.0990   31.5360   46.2560 H   0  0  0  0  0  0  0  0  0  0  0  0
   33.6330   27.7460   48.6190 C   0  0  0  0  0  0  0  0  0  0  0  0
   34.0610   27.0120   47.6480 O   0  0  0  0  0  0  0  0  0  0  0  0
   32.2820   28.0360   48.7300 O   0  0  0  0  0  0  0  0  0  0  0  0
   31.3770   27.6050   47.8010 C   0  0  0  0  0  0  0  0  0  0  0  0
   31.1360   28.5670   46.8130 C   0  0  0  0  0  3  0  0  0  0  0  0
   30.2340   28.2940   45.7800 C   0  0  0  0  0  0  0  0  0  0  0  0
   30.0230   29.0150   44.9990 H   0  0  0  0  0  0  0  0  0  0  0  0
   29.5850   27.0750   45.7370 C   0  0  0  0  0  3  0  0  0  0  0  0
   29.8240   26.1230   46.7130 C   0  0  0  0  0  0  0  0  0  0  0  0
   29.3640   25.1480   46.7580 H   0  0  0  0  0  0  0  0  0  0  0  0
   30.7220   26.4120   47.7320 C   0  0  0  0  0  3  0  0  0  0  0  0
  1  4  1  6  0  0  0
  1  3  1  0  0  0  0
  1  8  1  0  0  0  0
  1  2  1  0  0  0  0
  2  6  1  0  0  0  0
  3  7  1  1  0  0  0
  3  2  1  0  0  0  0
  5  2  1  0  0  0  0
  8  9  1  0  0  0  0
 10  8  1  0  0  0  0
 11 16  1  0  0  0  0
 11 17  1  0  0  0  0
 12 11  2  0  0  0  0
 13 14  2  0  0  0  0
 13 12  1  0  0  0  0
 14 15  1  0  0  0  0
 15  8  1  0  0  0  0
 15 16  2  0  0  0  0
 18 12  1  0  0  0  0
 19 13  1  0  0  0  0
 20 22  1  0  0  0  0
 20  3  1  0  0  0  0
 21 20  2  0  0  0  0
 23 22  1  0  0  0  0
 24 23  2  0  0  0  0
 25 24  1  0  0  0  0
 26 25  1  0  0  0  0
 27 25  2  0  0  0  0
 27 28  1  0  0  0  0
 28 29  1  0  0  0  0
 28 30  2  0  0  0  0
 30 23  1  0  0  0  0
M  END
>  <minimizedAffinity>
-4.92529392

>  <minimizedRMSD>
0.375274837

$$$$
