
 OpenBabel03252514023D

 30 32  0  0  1  0  0  0  0  0999 V2000
   35.4960   29.5130   49.1830 C   0  0  2  0  0  0  0  0  0  0  0  0
   34.4700   29.5010   50.2370 C   0  0  0  0  0  0  0  0  0  0  0  0
   34.7270   28.2340   49.5730 C   0  0  1  0  0  0  0  0  0  0  0  0
   35.3320   29.8200   48.1650 H   0  0  0  0  0  0  0  0  0  0  0  0
   33.5360   30.0870   49.9930 H   0  0  0  0  0  0  0  0  0  0  0  0
   34.7590   29.6910   51.3030 H   0  0  0  0  0  0  0  0  0  0  0  0
   35.4090   27.4510   49.9420 H   0  0  0  0  0  0  0  0  0  0  0  0
   36.9560   29.4680   49.6380 C   0  0  0  0  0  0  0  0  0  0  0  0
   36.9620   29.5510   50.7440 H   0  0  0  0  0  0  0  0  0  0  0  0
   37.4270   28.4900   49.3970 H   0  0  0  0  0  0  0  0  0  0  0  0
   38.3650   32.8290   49.2810 C   0  0  0  0  0  0  0  0  0  0  0  0
   38.9000   32.8140   47.9830 C   0  0  0  0  0  0  0  0  0  0  0  0
   38.7650   31.6280   47.2400 C   0  0  0  0  0  0  0  0  0  0  0  0
   38.1270   30.5720   47.8240 N   0  0  0  0  0  0  0  0  0  0  0  0
   37.6330   30.6340   49.0660 C   0  0  0  0  0  0  0  0  0  0  0  0
   37.7560   31.7690   49.7900 N   0  0  0  0  0  0  0  0  0  0  0  0
   38.4880   33.7520   49.8160 H   0  0  0  0  0  0  0  0  0  0  0  0
   39.4070   33.6470   47.5140 H   0  0  0  0  0  0  0  0  0  0  0  0
   39.1420   31.5200   46.2380 H   0  0  0  0  0  0  0  0  0  0  0  0
   33.6590   27.7600   48.6310 C   0  0  0  0  0  0  0  0  0  0  0  0
   34.0890   27.0250   47.6610 O   0  0  0  0  0  0  0  0  0  0  0  0
   32.3080   28.0440   48.7430 O   0  0  0  0  0  0  0  0  0  0  0  0
   31.4030   27.6060   47.8160 C   0  0  0  0  0  0  0  0  0  0  0  0
   31.1670   28.5600   46.8180 C   0  0  0  0  0  3  0  0  0  0  0  0
   30.2670   28.2800   45.7850 C   0  0  0  0  0  0  0  0  0  0  0  0
   30.0610   28.9950   44.9970 H   0  0  0  0  0  0  0  0  0  0  0  0
   29.6140   27.0630   45.7540 C   0  0  0  0  0  3  0  0  0  0  0  0
   29.8460   26.1200   46.7390 C   0  0  0  0  0  0  0  0  0  0  0  0
   29.3810   25.1480   46.7940 H   0  0  0  0  0  0  0  0  0  0  0  0
   30.7440   26.4150   47.7570 C   0  0  0  0  0  3  0  0  0  0  0  0
  1  4  1  6  0  0  0
  1  3  1  0  0  0  0
  1  8  1  0  0  0  0
  1  2  1  0  0  0  0
  2  6  1  0  0  0  0
  3  7  1  1  0  0  0
  3  2  1  0  0  0  0
  5  2  1  0  0  0  0
  8  9  1  0  0  0  0
 10  8  1  0  0  0  0
 11 16  1  0  0  0  0
 11 17  1  0  0  0  0
 12 11  2  0  0  0  0
 13 14  2  0  0  0  0
 13 12  1  0  0  0  0
 14 15  1  0  0  0  0
 15  8  1  0  0  0  0
 15 16  2  0  0  0  0
 18 12  1  0  0  0  0
 19 13  1  0  0  0  0
 20 22  1  0  0  0  0
 20  3  1  0  0  0  0
 21 20  2  0  0  0  0
 23 22  1  0  0  0  0
 24 23  2  0  0  0  0
 25 24  1  0  0  0  0
 26 25  1  0  0  0  0
 27 25  2  0  0  0  0
 27 28  1  0  0  0  0
 28 29  1  0  0  0  0
 28 30  2  0  0  0  0
 30 23  1  0  0  0  0
M  END
>  <minimizedAffinity>
-4.92900991

>  <minimizedRMSD>
0.333176106

$$$$
