
 OpenBabel03252513223D

 24 26  0  0  0  0  0  0  0  0999 V2000
   35.5730   29.2300   50.5510 C   0  0  0  0  0  0  0  0  0  0  0  0
   36.1810   30.2120   49.7720 C   0  0  0  0  0  0  0  0  0  0  0  0
   35.6090   30.4590   48.5280 C   0  0  0  0  0  0  0  0  0  0  0  0
   34.5100   29.7520   48.1380 N   0  0  0  0  0  0  0  0  0  0  0  0
   33.9530   28.8180   48.9080 C   0  0  0  0  0  0  0  0  0  0  0  0
   34.4970   28.5810   50.0940 N   0  0  0  0  0  0  0  0  0  0  0  0
   36.0520   29.0720   51.5060 H   0  0  0  0  0  0  0  0  0  0  0  0
   35.9690   31.1880   47.8190 H   0  0  0  0  0  0  0  0  0  0  0  0
   32.7900   27.9500   48.6990 C   0  0  0  0  0  0  0  0  0  0  0  0
   31.5750   28.1380   49.2440 N   0  0  0  0  0  0  0  0  0  0  0  0
   30.5100   27.3570   49.0620 C   0  0  0  0  0  0  0  0  0  0  0  0
   30.5860   26.2700   48.2760 N   0  0  0  0  0  0  0  0  0  0  0  0
   31.7650   25.9680   47.6650 C   0  0  0  0  0  0  0  0  0  0  0  0
   31.8070   24.8600   46.8760 C   0  0  0  0  0  0  0  0  0  0  0  0
   32.9770   24.5200   46.2400 C   0  0  0  0  0  0  0  0  0  0  0  0
   32.9510   23.6410   45.6350 H   0  0  0  0  0  0  0  0  0  0  0  0
   34.0820   25.3490   46.4430 C   0  0  0  0  0  0  0  0  0  0  0  0
   34.9670   25.0330   45.9190 H   0  0  0  0  0  0  0  0  0  0  0  0
   33.9560   26.4400   47.2470 C   0  0  0  0  0  0  0  0  0  0  0  0
   32.8120   26.8260   47.9060 C   0  0  0  0  0  0  0  0  0  0  0  0
   37.3710   30.9950   50.1850 C   0  0  0  0  0  0  0  0  0  0  0  0
   38.4420   30.8820   49.3770 F   0  0  0  0  0  0  0  0  0  0  0  0
   37.7560   30.6290   51.4650 F   0  0  0  0  0  0  0  0  0  0  0  0
   37.0240   32.3580   50.2330 F   0  0  0  0  0  0  0  0  0  0  0  0
  1  7  1  0  0  0  0
  2 21  1  0  0  0  0
  2  1  2  0  0  0  0
  3  2  1  0  0  0  0
  4  3  2  0  0  0  0
  4  5  1  0  0  0  0
  5  6  2  0  0  0  0
  6  1  1  0  0  0  0
  8  3  1  0  0  0  0
  9  5  1  0  0  0  0
  9 10  1  0  0  0  0
 11 10  2  0  0  0  0
 12 11  1  0  0  0  0
 13 20  1  0  0  0  0
 13 12  2  0  0  0  0
 14 13  1  0  0  0  0
 15 17  1  0  0  0  0
 15 14  2  0  0  0  0
 16 15  1  0  0  0  0
 17 19  2  0  0  0  0
 18 17  1  0  0  0  0
 19 20  1  0  0  0  0
 20  9  2  0  0  0  0
 21 24  1  0  0  0  0
 21 23  1  0  0  0  0
 22 21  1  0  0  0  0
M  END
>  <minimizedAffinity>
-5.5869751

>  <minimizedRMSD>
1.73030579

$$$$
