
 OpenBabel03252514043D

 41 45  0  0  1  0  0  0  0  0999 V2000
   33.2040   27.5070   47.9630 C   0  0  0  0  0  0  0  0  0  0  0  0
   33.7700   26.3480   47.8490 O   0  0  0  0  0  0  0  0  0  0  0  0
   35.2830   29.0530   48.2720 C   0  0  2  0  0  0  0  0  0  0  0  0
   34.0440   29.8070   48.4230 C   0  0  0  0  0  0  0  0  0  0  0  0
   33.9690   28.4500   48.8710 C   0  0  1  0  0  0  0  0  0  0  0  0
   35.5940   28.6640   47.2980 H   0  0  0  0  0  0  0  0  0  0  0  0
   34.0560   30.6540   49.1680 H   0  0  0  0  0  0  0  0  0  0  0  0
   33.4890   30.1360   47.4940 H   0  0  0  0  0  0  0  0  0  0  0  0
   34.0940   28.1010   49.8930 H   0  0  0  0  0  0  0  0  0  0  0  0
   36.3340   29.2440   49.3810 C   0  0  0  0  0  0  0  0  0  0  0  0
   37.0160   28.3540   49.4060 H   0  0  0  0  0  0  0  0  0  0  0  0
   35.8270   29.3070   50.3570 H   0  0  0  0  0  0  0  0  0  0  0  0
   37.5360   32.6850   49.6100 C   0  0  0  0  0  0  0  0  0  0  0  0
   38.4450   32.7650   48.5300 C   0  0  0  0  0  0  0  0  0  0  0  0
   38.6260   31.6080   47.7350 C   0  0  0  0  0  0  0  0  0  0  0  0
   37.9130   30.4820   48.0560 N   0  0  0  0  0  0  0  0  0  0  0  0
   37.0600   30.4710   49.0990 C   0  0  0  0  0  0  0  0  0  0  0  0
   36.8830   31.5760   49.8630 N   0  0  0  0  0  0  0  0  0  0  0  0
   37.3650   33.5420   50.2430 H   0  0  0  0  0  0  0  0  0  0  0  0
   38.9810   33.6590   48.3140 H   0  0  0  0  0  0  0  0  0  0  0  0
   39.3190   31.6540   46.9060 H   0  0  0  0  0  0  0  0  0  0  0  0
   32.0130   27.7760   47.2920 O   0  0  0  0  0  0  0  0  0  0  0  0
   30.8350   28.0500   47.9260 C   0  0  0  0  0  0  0  0  0  0  0  0
   30.5810   27.8520   49.3840 C   0  0  0  0  0  0  0  0  0  0  0  0
   29.3580   28.1740   49.8560 C   0  0  0  0  0  0  0  0  0  0  0  0
   28.3490   28.6780   49.0270 C   0  0  0  0  0  0  0  0  0  0  0  0
   29.1670   28.7210   47.3700 S   0  0  0  0  0  0  0  0  0  0  0  0
   31.4360   27.4610   49.9120 H   0  0  0  0  0  0  0  0  0  0  0  0
   29.2400   27.9720   50.8990 H   0  0  0  0  0  0  0  0  0  0  0  0
   27.0370   29.0570   49.0850 C   0  0  0  0  0  0  0  0  0  0  0  0
   26.1290   28.3190   49.8000 N   0  0  0  0  0  0  0  0  0  0  0  0
   24.8640   28.6340   50.0110 C   0  0  0  0  0  3  0  0  0  0  0  0
   24.3480   29.7580   49.5170 N   0  0  0  0  0  0  0  0  0  0  0  0
   25.0980   30.6030   48.7840 C   0  0  0  0  0  0  0  0  0  0  0  0
   24.5850   31.7500   48.2370 C   0  0  0  0  0  3  0  0  0  0  0  0
   25.3690   32.5780   47.4620 C   0  0  0  0  0  0  0  0  0  0  0  0
   24.8460   33.4380   47.0980 H   0  0  0  0  0  0  0  0  0  0  0  0
   26.6790   32.1840   47.2760 C   0  0  0  0  0  0  0  0  0  0  0  0
   27.2510   32.8780   46.6520 H   0  0  0  0  0  0  0  0  0  0  0  0
   27.1570   31.0270   47.8420 C   0  0  0  0  0  3  0  0  0  0  0  0
   26.4000   30.1850   48.6210 C   0  0  0  0  0  0  0  0  0  0  0  0
  1  5  1  0  0  0  0
  2  1  2  0  0  0  0
  3  6  1  6  0  0  0
  3  4  1  0  0  0  0
  3  5  1  0  0  0  0
  3 10  1  0  0  0  0
  4  5  1  0  0  0  0
  4  7  1  0  0  0  0
  5  9  1  1  0  0  0
  8  4  1  0  0  0  0
 10 11  1  0  0  0  0
 10 12  1  0  0  0  0
 13 18  1  0  0  0  0
 13 19  1  0  0  0  0
 14 13  2  0  0  0  0
 15 16  2  0  0  0  0
 15 14  1  0  0  0  0
 16 17  1  0  0  0  0
 17 10  1  0  0  0  0
 17 18  2  0  0  0  0
 20 14  1  0  0  0  0
 21 15  1  0  0  0  0
 22 23  1  0  0  0  0
 22  1  1  0  0  0  0
 23 24  2  0  0  0  0
 24 25  1  0  0  0  0
 24 28  1  0  0  0  0
 25 29  1  0  0  0  0
 26 30  1  0  0  0  0
 26 25  2  0  0  0  0
 27 23  1  0  0  0  0
 27 26  1  0  0  0  0
 30 31  1  0  0  0  0
 31 32  2  0  0  0  0
 33 32  1  0  0  0  0
 34 33  2  0  0  0  0
 35 34  1  0  0  0  0
 36 35  2  0  0  0  0
 37 36  1  0  0  0  0
 38 36  1  0  0  0  0
 38 40  2  0  0  0  0
 39 38  1  0  0  0  0
 40 41  1  0  0  0  0
 41 34  1  0  0  0  0
 41 30  2  0  0  0  0
M  END
>  <minimizedAffinity>
-6.34575939

>  <minimizedRMSD>
2.50330424

$$$$
