
 OpenBabel03252512263D

 30 32  0  0  1  0  0  0  0  0999 V2000
   35.0540   29.8690   48.3970 C   0  0  0  0  0  0  0  0  0  0  0  0
   34.7680   28.9540   49.4470 C   0  0  0  0  0  0  0  0  0  0  0  0
   33.6290   28.2200   49.2810 C   0  0  0  0  0  0  0  0  0  0  0  0
   32.8850   28.3960   48.1970 C   0  0  0  0  0  0  0  0  0  0  0  0
   33.7080   29.6780   47.2000 S   0  0  0  0  0  0  0  0  0  0  0  0
   35.4670   28.9100   50.2850 H   0  0  0  0  0  0  0  0  0  0  0  0
   33.3620   27.4890   50.0590 H   0  0  0  0  0  0  0  0  0  0  0  0
   37.7080   32.2330   49.3530 C   0  0  0  0  0  0  0  0  0  0  0  0
   38.4460   32.3630   48.1580 C   0  0  0  0  0  0  0  0  0  0  0  0
   38.0220   31.6460   47.0550 C   0  0  0  0  0  0  0  0  0  0  0  0
   36.9210   30.8610   47.1870 N   0  0  0  0  0  0  0  0  0  0  0  0
   36.2410   30.7590   48.3360 C   0  0  0  0  0  0  0  0  0  0  0  0
   36.6000   31.4320   49.4560 N   0  0  0  0  0  0  0  0  0  0  0  0
   38.0620   32.8020   50.1930 H   0  0  0  0  0  0  0  0  0  0  0  0
   39.3090   33.0140   48.1520 H   0  0  0  0  0  0  0  0  0  0  0  0
   38.5640   31.7220   46.1230 H   0  0  0  0  0  0  0  0  0  0  0  0
   31.6720   27.6620   47.8230 C   0  0  2  0  0  0  0  0  0  0  0  0
   31.9980   26.6350   47.5560 H   0  0  0  0  0  0  0  0  0  0  0  0
   31.1580   28.3030   46.5480 C   0  0  0  0  0  0  0  0  0  0  0  0
   30.5360   27.6290   45.9600 H   0  0  0  0  0  0  0  0  0  0  0  0
   30.6930   29.2980   46.7500 H   0  0  0  0  0  0  0  0  0  0  0  0
   32.0620   28.5360   45.9350 H   0  0  0  0  0  0  0  0  0  0  0  0
   30.6530   27.6280   48.8980 C   0  0  0  0  0  0  0  0  0  0  0  0
   30.4720   26.5160   49.0950 H   0  0  0  0  0  0  0  0  0  0  0  0
   31.0580   27.9560   49.8900 H   0  0  0  0  0  0  0  0  0  0  0  0
   29.3190   28.1980   48.6670 C   0  0  0  0  0  0  0  0  0  0  0  0
   28.3570   26.9810   48.5260 C   0  0  0  0  0  0  0  0  0  0  0  0
   28.0240   26.7680   49.9900 C   0  0  0  0  0  0  0  0  0  0  0  0
   27.9760   28.1240   50.6490 C   0  0  0  0  0  0  0  0  0  0  0  0
   28.6390   29.0480   49.6560 C   0  0  0  0  0  0  0  0  0  0  0  0
  1  2  2  0  0  0  0
  2  6  1  0  0  0  0
  3  2  1  0  0  0  0
  3  7  1  0  0  0  0
  4  3  2  0  0  0  0
  5  4  1  0  0  0  0
  5  1  1  0  0  0  0
  8 13  1  0  0  0  0
  8 14  1  0  0  0  0
  9  8  2  0  0  0  0
 10 11  2  0  0  0  0
 10  9  1  0  0  0  0
 11 12  1  0  0  0  0
 12  1  1  0  0  0  0
 12 13  2  0  0  0  0
 15  9  1  0  0  0  0
 16 10  1  0  0  0  0
 17 18  1  6  0  0  0
 17  4  1  0  0  0  0
 17 23  1  0  0  0  0
 19 21  1  0  0  0  0
 19 17  1  0  0  0  0
 20 19  1  0  0  0  0
 22 19  1  0  0  0  0
 23 24  1  0  0  0  0
 23 25  1  0  0  0  0
 26 23  1  0  0  0  0
 26 30  1  0  0  0  0
 27 26  1  0  0  0  0
 27 28  1  0  0  0  0
 28 29  1  0  0  0  0
 30 29  1  0  0  0  0
M  END
>  <minimizedAffinity>
-5.23536491

>  <minimizedRMSD>
1.88777828

$$$$
