
 OpenBabel03252513483D

 22 23  0  0  0  0  0  0  0  0999 V2000
   36.1910   29.9180   48.2640 C   0  0  0  0  0  0  0  0  0  0  0  0
   37.0510   30.9380   48.7950 C   0  0  0  0  0  0  0  0  0  0  0  0
   37.6830   31.7590   47.8780 C   0  0  0  0  0  0  0  0  0  0  0  0
   37.4630   31.5600   46.5610 N   0  0  0  0  0  0  0  0  0  0  0  0
   36.6540   30.5960   46.1010 C   0  0  0  0  0  0  0  0  0  0  0  0
   36.0290   29.7890   46.9450 N   0  0  0  0  0  0  0  0  0  0  0  0
   37.1880   31.0500   49.8570 H   0  0  0  0  0  0  0  0  0  0  0  0
   38.5740   32.8210   48.3320 C   0  0  0  0  0  0  0  0  0  0  0  0
   38.7230   33.2280   49.6400 C   0  0  0  0  0  3  0  0  0  0  0  0
   39.6350   34.2320   49.6520 N   0  0  0  0  0  0  0  0  0  0  0  0
   40.0060   34.3980   48.3710 C   0  0  0  0  0  3  0  0  0  0  0  0
   39.3780   33.5550   47.5480 N   0  0  0  0  0  0  0  0  0  0  0  0
   39.5240   33.5250   46.5270 H   0  0  0  0  0  0  0  0  0  0  0  0
   36.5250   30.5190   44.6150 C   0  0  0  0  0  0  0  0  0  0  0  0
   36.5860   31.7990   44.0640 F   0  0  0  0  0  0  0  0  0  0  0  0
   37.5970   29.8380   44.0940 F   0  0  0  0  0  0  0  0  0  0  0  0
   35.3630   29.8590   44.2310 F   0  0  0  0  0  0  0  0  0  0  0  0
   35.5510   29.0900   49.1640 O   0  0  0  0  0  0  0  0  0  0  0  0
   34.5900   29.5000   50.0880 C   0  0  0  0  0  0  0  0  0  0  0  0
   34.9420   29.2720   51.4030 F   0  0  0  0  0  0  0  0  0  0  0  0
   34.1840   30.7980   49.9270 F   0  0  0  0  0  0  0  0  0  0  0  0
   33.4830   28.6900   49.8360 F   0  0  0  0  0  0  0  0  0  0  0  0
  1  2  1  0  0  0  0
  1 18  1  0  0  0  0
  2  7  1  0  0  0  0
  3  8  1  0  0  0  0
  3  2  2  0  0  0  0
  4  3  1  0  0  0  0
  5  4  2  0  0  0  0
  5  6  1  0  0  0  0
  6  1  2  0  0  0  0
  8  9  2  0  0  0  0
  9 10  1  0  0  0  0
 11 10  2  0  0  0  0
 12  8  1  0  0  0  0
 12 11  1  0  0  0  0
 13 12  1  0  0  0  0
 14  5  1  0  0  0  0
 15 14  1  0  0  0  0
 16 14  1  0  0  0  0
 17 14  1  0  0  0  0
 18 19  1  0  0  0  0
 19 20  1  0  0  0  0
 21 19  1  0  0  0  0
 22 19  1  0  0  0  0
M  END
>  <minimizedAffinity>
-5.09345388

>  <minimizedRMSD>
2.35859346

$$$$
