
 OpenBabel03252511263D

 31 34  0  0  0  0  0  0  0  0999 V2000
   35.4080   29.7260   49.1120 C   0  0  0  0  0  0  0  0  0  0  0  0
   35.2730   29.2050   50.4130 C   0  0  0  0  0  0  0  0  0  0  0  0
   36.1370   29.4340   51.4490 C   0  0  0  0  0  0  0  0  0  0  0  0
   37.2280   30.2290   51.2370 C   0  0  0  0  0  0  0  0  0  0  0  0
   37.4370   30.7750   50.0100 C   0  0  0  0  0  0  0  0  0  0  0  0
   38.5480   31.5670   49.8480 C   0  0  0  0  0  0  0  0  0  0  0  0
   38.8140   32.1430   48.6440 C   0  0  0  0  0  0  0  0  0  0  0  0
   37.9300   31.9060   47.5920 C   0  0  0  0  0  0  0  0  0  0  0  0
   36.8350   31.1060   47.8110 C   0  0  0  0  0  0  0  0  0  0  0  0
   36.5340   30.5130   48.9940 C   0  0  0  0  0  0  0  0  0  0  0  0
   34.4080   28.5620   50.6200 H   0  0  0  0  0  0  0  0  0  0  0  0
   35.9480   28.9880   52.4130 H   0  0  0  0  0  0  0  0  0  0  0  0
   37.8790   30.3800   52.0830 H   0  0  0  0  0  0  0  0  0  0  0  0
   39.2360   31.7570   50.6490 H   0  0  0  0  0  0  0  0  0  0  0  0
   39.6850   32.7750   48.4830 H   0  0  0  0  0  0  0  0  0  0  0  0
   38.0980   32.3410   46.6170 H   0  0  0  0  0  0  0  0  0  0  0  0
   36.1650   30.9430   46.9600 H   0  0  0  0  0  0  0  0  0  0  0  0
   33.6120   27.6660   46.7960 C   0  0  0  0  0  0  0  0  0  0  0  0
   32.7860   28.4980   46.0370 C   0  0  0  0  0  0  0  0  0  0  0  0
   32.8620   29.8380   46.3490 C   0  0  0  0  0  0  0  0  0  0  0  0
   33.6920   30.2260   47.3230 N   0  0  0  0  0  0  0  0  0  0  0  0
   34.4730   29.4600   48.0440 C   0  0  0  0  0  0  0  0  0  0  0  0
   34.3980   28.1650   47.7400 N   0  0  0  0  0  0  0  0  0  0  0  0
   33.5390   26.6040   46.5340 H   0  0  0  0  0  0  0  0  0  0  0  0
   32.1040   28.2260   45.2440 H   0  0  0  0  0  0  0  0  0  0  0  0
   32.0650   30.8190   45.6460 C   0  0  0  0  0  0  0  0  0  0  0  0
   30.8580   30.6120   45.0250 C   0  0  0  0  0  0  0  0  0  0  0  0
   30.4400   31.7660   44.4890 N   0  0  0  0  0  0  0  0  0  0  0  0
   31.3520   32.7420   44.7440 C   0  0  0  0  0  0  0  0  0  0  0  0
   32.3160   32.1260   45.4460 N   0  0  0  0  0  0  0  0  0  0  0  0
   33.1760   32.6360   45.7940 H   0  0  0  0  0  0  0  0  0  0  0  0
  1  2  1  0  0  0  0
  2 11  1  0  0  0  0
  2  3  2  0  0  0  0
  3 12  1  0  0  0  0
  4  3  1  0  0  0  0
  4 13  1  0  0  0  0
  5  4  2  0  0  0  0
  6  5  1  0  0  0  0
  6 14  1  0  0  0  0
  7  6  2  0  0  0  0
  8  9  2  0  0  0  0
  8  7  1  0  0  0  0
  9 10  1  0  0  0  0
 10  1  2  0  0  0  0
 10  5  1  0  0  0  0
 15  7  1  0  0  0  0
 16  8  1  0  0  0  0
 17  9  1  0  0  0  0
 18 23  1  0  0  0  0
 19 20  1  0  0  0  0
 19 18  2  0  0  0  0
 20 21  2  0  0  0  0
 21 22  1  0  0  0  0
 22  1  1  0  0  0  0
 23 22  2  0  0  0  0
 24 18  1  0  0  0  0
 25 19  1  0  0  0  0
 26 20  1  0  0  0  0
 27 26  2  0  0  0  0
 28 29  2  0  0  0  0
 28 27  1  0  0  0  0
 29 30  1  0  0  0  0
 30 26  1  0  0  0  0
 30 31  1  0  0  0  0
M  END
>  <minimizedAffinity>
-6.82256079

>  <minimizedRMSD>
0.654101312

$$$$
