
 OpenBabel03252513443D

 19 20  0  0  0  0  0  0  0  0999 V2000
   38.0180   31.0740   49.3590 C   0  0  0  0  0  0  0  0  0  0  0  0
   38.1560   32.4150   49.7770 C   0  0  0  0  0  0  0  0  0  0  0  0
   38.7260   33.3290   48.8970 C   0  0  0  0  0  0  0  0  0  0  0  0
   39.1230   32.8790   47.6730 N   0  0  0  0  0  0  0  0  0  0  0  0
   38.9780   31.6030   47.3110 C   0  0  0  0  0  0  0  0  0  0  0  0
   38.4340   30.6910   48.1270 N   0  0  0  0  0  0  0  0  0  0  0  0
   37.8370   32.7600   50.7540 H   0  0  0  0  0  0  0  0  0  0  0  0
   38.8410   34.3650   49.2000 H   0  0  0  0  0  0  0  0  0  0  0  0
   39.4220   31.1840   45.9860 C   0  0  0  0  0  0  0  0  0  0  0  0
   40.5300   31.6500   45.2900 C   0  0  0  0  0  3  0  0  0  0  0  0
   40.6050   31.0120   44.0870 N   0  0  0  0  0  0  0  0  0  0  0  0
   39.5590   30.1470   44.0130 C   0  0  0  0  0  3  0  0  0  0  0  0
   38.8830   30.2860   45.1680 N   0  0  0  0  0  0  0  0  0  0  0  0
   38.0210   29.7120   45.3450 H   0  0  0  0  0  0  0  0  0  0  0  0
   37.4580   30.1670   50.2180 O   0  0  0  0  0  0  0  0  0  0  0  0
   36.1190   29.8040   50.2580 C   0  0  0  0  0  0  0  0  0  0  0  0
   35.7170   29.3380   51.4980 F   0  0  0  0  0  0  0  0  0  0  0  0
   35.2610   30.7800   49.8210 F   0  0  0  0  0  0  0  0  0  0  0  0
   35.9810   28.7510   49.3560 F   0  0  0  0  0  0  0  0  0  0  0  0
  1  2  1  0  0  0  0
  1 15  1  0  0  0  0
  2  7  1  0  0  0  0
  3  8  1  0  0  0  0
  3  2  2  0  0  0  0
  4  3  1  0  0  0  0
  5  4  2  0  0  0  0
  5  6  1  0  0  0  0
  6  1  2  0  0  0  0
  9  5  1  0  0  0  0
 10  9  2  0  0  0  0
 11 10  1  0  0  0  0
 12 11  2  0  0  0  0
 12 13  1  0  0  0  0
 13 14  1  0  0  0  0
 13  9  1  0  0  0  0
 15 16  1  0  0  0  0
 16 17  1  0  0  0  0
 18 16  1  0  0  0  0
 19 16  1  0  0  0  0
M  END
>  <minimizedAffinity>
-5.30143023

>  <minimizedRMSD>
0.824162245

$$$$
