
 OpenBabel03252514043D

 35 38  0  0  1  0  0  0  0  0999 V2000
   35.2750   29.2150   48.6380 C   0  0  2  0  0  0  0  0  0  0  0  0
   34.0620   29.3060   49.4480 C   0  0  0  0  0  0  0  0  0  0  0  0
   34.4330   27.9710   49.0780 C   0  0  1  0  0  0  0  0  0  0  0  0
   35.3210   29.3350   47.5530 H   0  0  0  0  0  0  0  0  0  0  0  0
   34.1920   29.6890   50.5000 H   0  0  0  0  0  0  0  0  0  0  0  0
   33.1870   29.8210   48.9720 H   0  0  0  0  0  0  0  0  0  0  0  0
   35.0220   27.2490   49.6540 H   0  0  0  0  0  0  0  0  0  0  0  0
   36.6070   29.2570   49.4050 C   0  0  0  0  0  0  0  0  0  0  0  0
   37.2190   28.3820   49.0650 H   0  0  0  0  0  0  0  0  0  0  0  0
   36.4210   29.0910   50.4700 H   0  0  0  0  0  0  0  0  0  0  0  0
   37.6900   32.7420   49.5470 C   0  0  0  0  0  0  0  0  0  0  0  0
   38.5320   32.8500   48.4270 C   0  0  0  0  0  0  0  0  0  0  0  0
   38.7150   31.6990   47.6280 C   0  0  0  0  0  0  0  0  0  0  0  0
   38.0650   30.5500   47.9930 N   0  0  0  0  0  0  0  0  0  0  0  0
   37.2740   30.5030   49.0690 C   0  0  0  0  0  0  0  0  0  0  0  0
   37.0900   31.6060   49.8450 N   0  0  0  0  0  0  0  0  0  0  0  0
   37.5190   33.5900   50.1840 H   0  0  0  0  0  0  0  0  0  0  0  0
   39.0180   33.7640   48.1810 H   0  0  0  0  0  0  0  0  0  0  0  0
   39.3500   31.7230   46.7570 H   0  0  0  0  0  0  0  0  0  0  0  0
   33.5880   27.3300   48.0010 C   0  0  0  0  0  0  0  0  0  0  0  0
   33.9020   26.1020   47.7590 O   0  0  0  0  0  0  0  0  0  0  0  0
   32.5590   27.9230   47.2980 O   0  0  0  0  0  0  0  0  0  0  0  0
   31.2930   28.0850   47.7740 C   0  0  0  0  0  0  0  0  0  0  0  0
   30.8350   27.6040   49.0920 C   0  0  0  0  0  0  0  0  0  0  0  0
   29.5530   27.8150   49.4810 C   0  0  0  0  0  0  0  0  0  0  0  0
   28.6660   28.5000   48.6090 C   0  0  0  0  0  0  0  0  0  0  0  0
   29.7080   28.8760   47.1310 S   0  0  0  0  0  0  0  0  0  0  0  0
   31.5460   27.0890   49.7160 H   0  0  0  0  0  0  0  0  0  0  0  0
   29.1410   27.5010   50.4210 H   0  0  0  0  0  0  0  0  0  0  0  0
   27.3430   28.8560   48.7200 C   0  0  0  0  0  0  0  0  0  0  0  0
   26.2520   28.0440   48.7170 C   0  0  0  0  0  3  0  0  0  0  0  0
   25.1390   28.8250   48.8530 N   0  0  0  0  0  0  0  0  0  0  0  0
   25.5540   30.1230   48.9400 C   0  0  0  0  0  3  0  0  0  0  0  0
   26.9170   30.1030   48.8540 N   0  0  0  0  0  0  0  0  0  0  0  0
   27.4690   30.9850   48.8970 H   0  0  0  0  0  0  0  0  0  0  0  0
  1  4  1  6  0  0  0
  1  3  1  0  0  0  0
  1  8  1  0  0  0  0
  1  2  1  0  0  0  0
  2  5  1  0  0  0  0
  3  2  1  0  0  0  0
  3  7  1  1  0  0  0
  6  2  1  0  0  0  0
  8 10  1  0  0  0  0
  9  8  1  0  0  0  0
 11 16  1  0  0  0  0
 11 17  1  0  0  0  0
 12 11  2  0  0  0  0
 13 14  2  0  0  0  0
 13 12  1  0  0  0  0
 14 15  1  0  0  0  0
 15  8  1  0  0  0  0
 15 16  2  0  0  0  0
 18 12  1  0  0  0  0
 19 13  1  0  0  0  0
 20  3  1  0  0  0  0
 21 20  2  0  0  0  0
 22 23  1  0  0  0  0
 22 20  1  0  0  0  0
 23 24  2  0  0  0  0
 24 25  1  0  0  0  0
 24 28  1  0  0  0  0
 25 29  1  0  0  0  0
 26 30  1  0  0  0  0
 26 25  2  0  0  0  0
 27 23  1  0  0  0  0
 27 26  1  0  0  0  0
 30 34  1  0  0  0  0
 31 30  2  0  0  0  0
 31 32  1  0  0  0  0
 32 33  2  0  0  0  0
 34 35  1  0  0  0  0
 34 33  1  0  0  0  0
M  END
>  <minimizedAffinity>
-6.18143797

>  <minimizedRMSD>
1.59487212

$$$$
