
 OpenBabel03252514043D

 35 38  0  0  1  0  0  0  0  0999 V2000
   35.2910   29.2660   48.6970 C   0  0  2  0  0  0  0  0  0  0  0  0
   34.1170   29.3200   49.5640 C   0  0  0  0  0  0  0  0  0  0  0  0
   34.4730   28.0020   49.1240 C   0  0  1  0  0  0  0  0  0  0  0  0
   35.2870   29.4300   47.6160 H   0  0  0  0  0  0  0  0  0  0  0  0
   34.2930   29.6620   50.6240 H   0  0  0  0  0  0  0  0  0  0  0  0
   33.2190   29.8500   49.1490 H   0  0  0  0  0  0  0  0  0  0  0  0
   35.0890   27.2600   49.6440 H   0  0  0  0  0  0  0  0  0  0  0  0
   36.6560   29.2830   49.4030 C   0  0  0  0  0  0  0  0  0  0  0  0
   37.2460   28.4110   49.0180 H   0  0  0  0  0  0  0  0  0  0  0  0
   36.5180   29.0960   50.4720 H   0  0  0  0  0  0  0  0  0  0  0  0
   37.7300   32.7720   49.5380 C   0  0  0  0  0  0  0  0  0  0  0  0
   38.5640   32.8820   48.4120 C   0  0  0  0  0  0  0  0  0  0  0  0
   38.7460   31.7310   47.6130 C   0  0  0  0  0  0  0  0  0  0  0  0
   38.1010   30.5810   47.9810 N   0  0  0  0  0  0  0  0  0  0  0  0
   37.3180   30.5320   49.0630 C   0  0  0  0  0  0  0  0  0  0  0  0
   37.1350   31.6330   49.8400 N   0  0  0  0  0  0  0  0  0  0  0  0
   37.5600   33.6190   50.1760 H   0  0  0  0  0  0  0  0  0  0  0  0
   39.0460   33.7970   48.1640 H   0  0  0  0  0  0  0  0  0  0  0  0
   39.3750   31.7570   46.7380 H   0  0  0  0  0  0  0  0  0  0  0  0
   33.5810   27.4020   48.0620 C   0  0  0  0  0  0  0  0  0  0  0  0
   33.9110   26.1990   47.7300 O   0  0  0  0  0  0  0  0  0  0  0  0
   32.4970   28.0050   47.4580 O   0  0  0  0  0  0  0  0  0  0  0  0
   31.2460   28.0590   47.9930 C   0  0  0  0  0  0  0  0  0  0  0  0
   30.8970   27.5520   49.3350 C   0  0  0  0  0  0  0  0  0  0  0  0
   29.6210   27.6530   49.7850 C   0  0  0  0  0  0  0  0  0  0  0  0
   28.6360   28.2500   48.9540 C   0  0  0  0  0  0  0  0  0  0  0  0
   29.5690   28.7020   47.4250 S   0  0  0  0  0  0  0  0  0  0  0  0
   31.6800   27.1070   49.9260 H   0  0  0  0  0  0  0  0  0  0  0  0
   29.2840   27.3120   50.7450 H   0  0  0  0  0  0  0  0  0  0  0  0
   27.2930   28.4880   49.1280 C   0  0  0  0  0  0  0  0  0  0  0  0
   26.5360   28.2560   50.2330 C   0  0  0  0  0  3  0  0  0  0  0  0
   25.2550   28.6440   49.9610 N   0  0  0  0  0  0  0  0  0  0  0  0
   25.2310   29.1180   48.6810 C   0  0  0  0  0  3  0  0  0  0  0  0
   26.5040   29.0060   48.2000 N   0  0  0  0  0  0  0  0  0  0  0  0
   26.7380   29.3080   47.2310 H   0  0  0  0  0  0  0  0  0  0  0  0
  1  4  1  6  0  0  0
  1  3  1  0  0  0  0
  1  8  1  0  0  0  0
  1  2  1  0  0  0  0
  2  5  1  0  0  0  0
  3  2  1  0  0  0  0
  3  7  1  1  0  0  0
  6  2  1  0  0  0  0
  8 10  1  0  0  0  0
  9  8  1  0  0  0  0
 11 16  1  0  0  0  0
 11 17  1  0  0  0  0
 12 11  2  0  0  0  0
 13 14  2  0  0  0  0
 13 12  1  0  0  0  0
 14 15  1  0  0  0  0
 15  8  1  0  0  0  0
 15 16  2  0  0  0  0
 18 12  1  0  0  0  0
 19 13  1  0  0  0  0
 20  3  1  0  0  0  0
 21 20  2  0  0  0  0
 22 23  1  0  0  0  0
 22 20  1  0  0  0  0
 23 24  2  0  0  0  0
 24 25  1  0  0  0  0
 24 28  1  0  0  0  0
 25 29  1  0  0  0  0
 26 30  1  0  0  0  0
 26 25  2  0  0  0  0
 27 23  1  0  0  0  0
 27 26  1  0  0  0  0
 30 31  2  0  0  0  0
 32 31  1  0  0  0  0
 33 32  2  0  0  0  0
 34 33  1  0  0  0  0
 34 30  1  0  0  0  0
 35 34  1  0  0  0  0
M  END
>  <minimizedAffinity>
-6.11075592

>  <minimizedRMSD>
1.42268217

$$$$
