
 OpenBabel03252512343D

 39 42  0  0  1  0  0  0  0  0999 V2000
   31.8270   27.9260   46.9750 C   0  0  2  0  0  0  0  0  0  0  0  0
   32.0010   26.8570   46.6480 H   0  0  0  0  0  0  0  0  0  0  0  0
   35.1790   29.5150   48.6620 C   0  0  0  0  0  0  0  0  0  0  0  0
   34.7510   28.3340   49.2510 C   0  0  0  0  0  0  0  0  0  0  0  0
   33.6440   27.7460   48.7600 C   0  0  0  0  0  0  0  0  0  0  0  0
   33.0250   28.3180   47.7550 C   0  0  0  0  0  0  0  0  0  0  0  0
   33.9700   29.8300   47.3530 S   0  0  0  0  0  0  0  0  0  0  0  0
   35.3480   27.9410   50.0920 H   0  0  0  0  0  0  0  0  0  0  0  0
   33.2400   26.8190   49.1630 H   0  0  0  0  0  0  0  0  0  0  0  0
   38.0360   30.8570   50.5200 C   0  0  0  0  0  0  0  0  0  0  0  0
   38.5770   31.8070   49.6420 C   0  0  0  0  0  0  0  0  0  0  0  0
   37.9490   31.9820   48.4150 C   0  0  0  0  0  0  0  0  0  0  0  0
   36.8490   31.2320   48.1220 N   0  0  0  0  0  0  0  0  0  0  0  0
   36.3880   30.3400   49.0130 C   0  0  0  0  0  0  0  0  0  0  0  0
   36.9410   30.0900   50.2630 N   0  0  0  0  0  0  0  0  0  0  0  0
   38.4600   30.6530   51.4970 H   0  0  0  0  0  0  0  0  0  0  0  0
   39.4540   32.3520   49.9690 H   0  0  0  0  0  0  0  0  0  0  0  0
   38.3540   32.7070   47.7360 H   0  0  0  0  0  0  0  0  0  0  0  0
   31.6370   28.7950   45.8370 C   0  0  0  0  0  0  0  0  0  0  0  0
   30.7120   29.4280   45.9760 H   0  0  0  0  0  0  0  0  0  0  0  0
   31.4880   28.2870   44.8630 H   0  0  0  0  0  0  0  0  0  0  0  0
   32.4400   29.5590   45.6470 H   0  0  0  0  0  0  0  0  0  0  0  0
   30.6600   27.8410   47.9540 C   0  0  0  0  0  0  0  0  0  0  0  0
   30.9940   27.9890   48.9980 H   0  0  0  0  0  0  0  0  0  0  0  0
   29.9830   28.6870   47.6950 H   0  0  0  0  0  0  0  0  0  0  0  0
   29.9760   26.6660   47.8630 O   0  0  0  0  0  0  0  0  0  0  0  0
   29.2180   26.3550   46.7510 C   0  0  0  0  0  0  0  0  0  0  0  0
   29.0170   25.2720   45.9260 C   0  0  0  0  0  0  0  0  0  0  0  0
   28.0940   25.6830   44.9890 C   0  0  0  0  0  0  0  0  0  0  0  0
   27.7750   26.9920   45.2810 C   0  0  0  0  0  0  0  0  0  0  0  0
   28.4730   27.3350   46.3370 O   0  0  0  0  0  0  0  0  0  0  0  0
   29.5470   24.3780   46.1160 H   0  0  0  0  0  0  0  0  0  0  0  0
   27.7360   25.0450   44.2020 H   0  0  0  0  0  0  0  0  0  0  0  0
   26.8180   27.8360   44.5300 C   0  0  0  0  0  0  0  0  0  0  0  0
   26.9230   29.2010   44.3750 C   0  0  0  0  0  0  0  0  0  0  0  0
   25.8680   29.5790   43.6350 N   0  0  0  0  0  0  0  0  0  0  0  0
   25.1240   28.5020   43.3330 C   0  0  0  0  0  0  0  0  0  0  0  0
   25.7080   27.4120   43.8860 N   0  0  0  0  0  0  0  0  0  0  0  0
   25.4380   26.3850   43.8800 H   0  0  0  0  0  0  0  0  0  0  0  0
  1  2  1  6  0  0  0
  1  6  1  0  0  0  0
  1 23  1  0  0  0  0
  3 14  1  0  0  0  0
  3  4  2  0  0  0  0
  4  8  1  0  0  0  0
  5  9  1  0  0  0  0
  5  4  1  0  0  0  0
  6  5  2  0  0  0  0
  7  6  1  0  0  0  0
  7  3  1  0  0  0  0
 10 16  1  0  0  0  0
 11 17  1  0  0  0  0
 11 10  2  0  0  0  0
 12 11  1  0  0  0  0
 13 12  2  0  0  0  0
 13 14  1  0  0  0  0
 14 15  2  0  0  0  0
 15 10  1  0  0  0  0
 18 12  1  0  0  0  0
 19 20  1  0  0  0  0
 19  1  1  0  0  0  0
 21 19  1  0  0  0  0
 22 19  1  0  0  0  0
 23 24  1  0  0  0  0
 25 23  1  0  0  0  0
 26 23  1  0  0  0  0
 27 26  1  0  0  0  0
 28 32  1  0  0  0  0
 28 27  2  0  0  0  0
 29 30  2  0  0  0  0
 29 28  1  0  0  0  0
 30 31  1  0  0  0  0
 31 27  1  0  0  0  0
 33 29  1  0  0  0  0
 34 30  1  0  0  0  0
 35 34  2  0  0  0  0
 36 35  1  0  0  0  0
 37 36  2  0  0  0  0
 37 38  1  0  0  0  0
 38 34  1  0  0  0  0
 39 38  1  0  0  0  0
M  END
>  <minimizedAffinity>
-5.05228138

>  <minimizedRMSD>
0.161848158

$$$$
