
 OpenBabel03252511413D

 37 39  0  0  1  0  0  0  0  0999 V2000
   33.6490   29.4250   47.4060 C   0  0  0  0  0  0  0  0  0  0  0  0
   33.4210   30.3790   46.4570 C   0  0  0  0  0  0  0  0  0  0  0  0
   32.2350   30.1920   45.8270 N   0  0  0  0  0  0  0  0  0  0  0  0
   31.6580   29.0960   46.3610 C   0  0  0  0  0  0  0  0  0  0  0  0
   32.5310   28.6430   47.3180 N   0  0  0  0  0  0  0  0  0  0  0  0
   34.1630   31.1770   46.2830 H   0  0  0  0  0  0  0  0  0  0  0  0
   30.7030   28.6870   46.0700 H   0  0  0  0  0  0  0  0  0  0  0  0
   34.6690   29.1040   48.3450 C   0  0  0  0  0  0  0  0  0  0  0  0
   34.5370   28.1170   48.8380 H   0  0  0  0  0  0  0  0  0  0  0  0
   35.6090   28.9160   47.7250 H   0  0  0  0  0  0  0  0  0  0  0  0
   35.0600   30.0740   49.3570 C   0  0  2  0  0  0  0  0  0  0  0  0
   34.2490   30.7740   49.6180 H   0  0  0  0  0  0  0  0  0  0  0  0
   36.2640   30.8780   48.9680 C   0  0  0  0  0  0  0  0  0  0  0  0
   36.7600   31.7940   49.8870 C   0  0  0  0  0  0  0  0  0  0  0  0
   37.8830   32.5380   49.4400 C   0  0  0  0  0  0  0  0  0  0  0  0
   38.3880   32.3270   48.2070 N   0  0  0  0  0  0  0  0  0  0  0  0
   37.8590   31.4080   47.3370 C   0  0  0  0  0  0  0  0  0  0  0  0
   36.7830   30.6770   47.7300 N   0  0  0  0  0  0  0  0  0  0  0  0
   36.2910   31.8910   50.8450 H   0  0  0  0  0  0  0  0  0  0  0  0
   38.2880   33.2520   50.1260 H   0  0  0  0  0  0  0  0  0  0  0  0
   38.2450   31.2260   46.3550 H   0  0  0  0  0  0  0  0  0  0  0  0
   35.4230   29.2740   50.6670 C   0  0  0  0  0  0  0  0  0  0  0  0
   34.8130   28.3690   50.6680 H   0  0  0  0  0  0  0  0  0  0  0  0
   35.1290   29.9190   51.5170 H   0  0  0  0  0  0  0  0  0  0  0  0
   36.5180   29.1120   50.6200 H   0  0  0  0  0  0  0  0  0  0  0  0
   32.1840   27.4480   48.0750 C   0  0  0  0  0  0  0  0  0  0  0  0
   32.4440   26.5890   47.3880 H   0  0  0  0  0  0  0  0  0  0  0  0
   32.8590   27.2960   48.9600 H   0  0  0  0  0  0  0  0  0  0  0  0
   30.7770   27.3220   48.3920 C   0  0  0  0  0  0  0  0  0  0  0  0
   30.5270   27.8440   49.6660 C   0  0  0  0  0  0  0  0  0  0  0  0
   31.2420   28.2990   50.3680 H   0  0  0  0  0  0  0  0  0  0  0  0
   29.2460   27.8470   50.2320 C   0  0  0  0  0  0  0  0  0  0  0  0
   28.1710   27.3270   49.5420 C   0  0  0  0  0  0  0  0  0  0  0  0
   27.1510   27.2710   49.8630 H   0  0  0  0  0  0  0  0  0  0  0  0
   28.4140   26.8120   48.2870 C   0  0  0  0  0  0  0  0  0  0  0  0
   27.6600   26.3770   47.6480 H   0  0  0  0  0  0  0  0  0  0  0  0
   29.6780   26.8140   47.7410 C   0  0  0  0  0  0  0  0  0  0  0  0
  1  8  1  0  0  0  0
  2  1  2  0  0  0  0
  3  4  2  0  0  0  0
  3  2  1  0  0  0  0
  4  5  1  0  0  0  0
  5  1  1  0  0  0  0
  5 26  1  0  0  0  0
  6  2  1  0  0  0  0
  7  4  1  0  0  0  0
  8  9  1  0  0  0  0
  8 11  1  0  0  0  0
 10  8  1  0  0  0  0
 11 12  1  1  0  0  0
 11 22  1  0  0  0  0
 13 11  1  0  0  0  0
 13 14  1  0  0  0  0
 14 19  1  0  0  0  0
 15 14  2  0  0  0  0
 15 20  1  0  0  0  0
 16 15  1  0  0  0  0
 17 18  1  0  0  0  0
 17 16  2  0  0  0  0
 18 13  2  0  0  0  0
 21 17  1  0  0  0  0
 22 23  1  0  0  0  0
 22 24  1  0  0  0  0
 25 22  1  0  0  0  0
 26 29  1  0  0  0  0
 26 28  1  0  0  0  0
 27 26  1  0  0  0  0
 29 30  1  0  0  0  0
 30 32  2  0  0  0  0
 30 31  1  0  0  0  0
 33 34  1  0  0  0  0
 33 32  1  0  0  0  0
 35 33  2  0  0  0  0
 36 35  1  0  0  0  0
 37 35  1  0  0  0  0
 37 29  2  0  0  0  0
M  END
>  <minimizedAffinity>
-5.46624708

>  <minimizedRMSD>
2.71600485

$$$$
