
 OpenBabel03252514043D

 35 38  0  0  1  0  0  0  0  0999 V2000
   35.2230   29.1920   48.6100 C   0  0  2  0  0  0  0  0  0  0  0  0
   34.0120   29.3900   49.4020 C   0  0  0  0  0  0  0  0  0  0  0  0
   34.3220   28.0180   49.1190 C   0  0  1  0  0  0  0  0  0  0  0  0
   35.2810   29.2430   47.5190 H   0  0  0  0  0  0  0  0  0  0  0  0
   34.1530   29.8310   50.4300 H   0  0  0  0  0  0  0  0  0  0  0  0
   33.1630   29.9130   48.8880 H   0  0  0  0  0  0  0  0  0  0  0  0
   34.8740   27.3070   49.7430 H   0  0  0  0  0  0  0  0  0  0  0  0
   36.5510   29.2210   49.3840 C   0  0  0  0  0  0  0  0  0  0  0  0
   37.1670   28.3550   49.0280 H   0  0  0  0  0  0  0  0  0  0  0  0
   36.3610   29.0320   50.4440 H   0  0  0  0  0  0  0  0  0  0  0  0
   37.5940   32.7160   49.5820 C   0  0  0  0  0  0  0  0  0  0  0  0
   38.4730   32.8380   48.4920 C   0  0  0  0  0  0  0  0  0  0  0  0
   38.6940   31.6940   47.6940 C   0  0  0  0  0  0  0  0  0  0  0  0
   38.0430   30.5370   48.0290 N   0  0  0  0  0  0  0  0  0  0  0  0
   37.2170   30.4760   49.0780 C   0  0  0  0  0  0  0  0  0  0  0  0
   36.9960   31.5720   49.8540 N   0  0  0  0  0  0  0  0  0  0  0  0
   37.3930   33.5580   50.2180 H   0  0  0  0  0  0  0  0  0  0  0  0
   38.9580   33.7580   48.2690 H   0  0  0  0  0  0  0  0  0  0  0  0
   39.3580   31.7300   46.8450 H   0  0  0  0  0  0  0  0  0  0  0  0
   33.4540   27.3510   48.0760 C   0  0  0  0  0  0  0  0  0  0  0  0
   33.7770   26.1240   47.8440 O   0  0  0  0  0  0  0  0  0  0  0  0
   32.3970   27.9210   47.3960 O   0  0  0  0  0  0  0  0  0  0  0  0
   31.1450   28.0770   47.9060 C   0  0  0  0  0  0  0  0  0  0  0  0
   30.7330   27.6130   49.2460 C   0  0  0  0  0  0  0  0  0  0  0  0
   29.4600   27.8170   49.6700 C   0  0  0  0  0  0  0  0  0  0  0  0
   28.5390   28.4760   48.8140 C   0  0  0  0  0  0  0  0  0  0  0  0
   29.5320   28.8380   47.2990 S   0  0  0  0  0  0  0  0  0  0  0  0
   31.4680   27.1170   49.8570 H   0  0  0  0  0  0  0  0  0  0  0  0
   29.0800   27.5130   50.6280 H   0  0  0  0  0  0  0  0  0  0  0  0
   27.2160   28.8180   48.9600 C   0  0  0  0  0  0  0  0  0  0  0  0
   26.6320   30.0260   48.7350 C   0  0  0  0  0  3  0  0  0  0  0  0
   25.2980   29.9110   49.0080 N   0  0  0  0  0  0  0  0  0  0  0  0
   25.0670   28.6230   49.4010 C   0  0  0  0  0  3  0  0  0  0  0  0
   26.2700   27.9810   49.3580 N   0  0  0  0  0  0  0  0  0  0  0  0
   26.3500   26.9770   49.6180 H   0  0  0  0  0  0  0  0  0  0  0  0
  1  4  1  6  0  0  0
  1  3  1  0  0  0  0
  1  8  1  0  0  0  0
  1  2  1  0  0  0  0
  2  5  1  0  0  0  0
  3  2  1  0  0  0  0
  3  7  1  1  0  0  0
  6  2  1  0  0  0  0
  8 10  1  0  0  0  0
  9  8  1  0  0  0  0
 11 16  1  0  0  0  0
 11 17  1  0  0  0  0
 12 11  2  0  0  0  0
 13 14  2  0  0  0  0
 13 12  1  0  0  0  0
 14 15  1  0  0  0  0
 15  8  1  0  0  0  0
 15 16  2  0  0  0  0
 18 12  1  0  0  0  0
 19 13  1  0  0  0  0
 20  3  1  0  0  0  0
 21 20  2  0  0  0  0
 22 23  1  0  0  0  0
 22 20  1  0  0  0  0
 23 24  2  0  0  0  0
 24 25  1  0  0  0  0
 24 28  1  0  0  0  0
 25 29  1  0  0  0  0
 26 30  1  0  0  0  0
 26 25  2  0  0  0  0
 27 23  1  0  0  0  0
 27 26  1  0  0  0  0
 30 34  1  0  0  0  0
 31 30  2  0  0  0  0
 31 32  1  0  0  0  0
 32 33  2  0  0  0  0
 34 33  1  0  0  0  0
 34 35  1  0  0  0  0
M  END
>  <minimizedAffinity>
-6.27137804

>  <minimizedRMSD>
1.53754282

$$$$
