
 OpenBabel03252513483D

 22 23  0  0  0  0  0  0  0  0999 V2000
   36.1360   29.8520   48.2620 C   0  0  0  0  0  0  0  0  0  0  0  0
   36.9970   30.8750   48.7870 C   0  0  0  0  0  0  0  0  0  0  0  0
   37.6420   31.6800   47.8650 C   0  0  0  0  0  0  0  0  0  0  0  0
   37.4320   31.4660   46.5490 N   0  0  0  0  0  0  0  0  0  0  0  0
   36.6210   30.5000   46.0950 C   0  0  0  0  0  0  0  0  0  0  0  0
   35.9840   29.7080   46.9430 N   0  0  0  0  0  0  0  0  0  0  0  0
   37.1260   30.9990   49.8490 H   0  0  0  0  0  0  0  0  0  0  0  0
   38.5350   32.7430   48.3130 C   0  0  0  0  0  0  0  0  0  0  0  0
   39.4980   33.3510   47.5360 C   0  0  0  0  0  3  0  0  0  0  0  0
   40.1120   34.2820   48.3100 N   0  0  0  0  0  0  0  0  0  0  0  0
   39.5130   34.2090   49.5100 C   0  0  0  0  0  3  0  0  0  0  0  0
   38.5530   33.2830   49.5400 N   0  0  0  0  0  0  0  0  0  0  0  0
   37.9760   33.0740   50.3710 H   0  0  0  0  0  0  0  0  0  0  0  0
   36.5040   30.4050   44.6090 C   0  0  0  0  0  0  0  0  0  0  0  0
   36.4240   31.6830   44.0540 F   0  0  0  0  0  0  0  0  0  0  0  0
   37.6460   29.8450   44.0920 F   0  0  0  0  0  0  0  0  0  0  0  0
   35.4230   29.6190   44.2260 F   0  0  0  0  0  0  0  0  0  0  0  0
   35.4840   29.0390   49.1680 O   0  0  0  0  0  0  0  0  0  0  0  0
   34.5440   29.4730   50.1030 C   0  0  0  0  0  0  0  0  0  0  0  0
   34.9140   29.2510   51.4140 F   0  0  0  0  0  0  0  0  0  0  0  0
   34.1570   30.7760   49.9360 F   0  0  0  0  0  0  0  0  0  0  0  0
   33.4210   28.6780   49.8760 F   0  0  0  0  0  0  0  0  0  0  0  0
  1  2  1  0  0  0  0
  1 18  1  0  0  0  0
  2  7  1  0  0  0  0
  3  8  1  0  0  0  0
  3  2  2  0  0  0  0
  4  3  1  0  0  0  0
  5  4  2  0  0  0  0
  5  6  1  0  0  0  0
  6  1  2  0  0  0  0
  8 12  1  0  0  0  0
  9 10  1  0  0  0  0
  9  8  2  0  0  0  0
 10 11  2  0  0  0  0
 11 12  1  0  0  0  0
 12 13  1  0  0  0  0
 14  5  1  0  0  0  0
 15 14  1  0  0  0  0
 16 14  1  0  0  0  0
 17 14  1  0  0  0  0
 18 19  1  0  0  0  0
 19 20  1  0  0  0  0
 21 19  1  0  0  0  0
 22 19  1  0  0  0  0
M  END
>  <minimizedAffinity>
-4.6764617

>  <minimizedRMSD>
2.4002912

$$$$
