
 OpenBabel03252514043D

 35 38  0  0  1  0  0  0  0  0999 V2000
   35.2190   29.1940   48.6100 C   0  0  2  0  0  0  0  0  0  0  0  0
   34.0100   29.3940   49.4060 C   0  0  0  0  0  0  0  0  0  0  0  0
   34.3170   28.0220   49.1210 C   0  0  1  0  0  0  0  0  0  0  0  0
   35.2730   29.2450   47.5200 H   0  0  0  0  0  0  0  0  0  0  0  0
   34.1550   29.8340   50.4340 H   0  0  0  0  0  0  0  0  0  0  0  0
   33.1620   29.9190   48.8950 H   0  0  0  0  0  0  0  0  0  0  0  0
   34.8680   27.3080   49.7430 H   0  0  0  0  0  0  0  0  0  0  0  0
   36.5490   29.2190   49.3810 C   0  0  0  0  0  0  0  0  0  0  0  0
   37.1630   28.3540   49.0190 H   0  0  0  0  0  0  0  0  0  0  0  0
   36.3620   29.0250   50.4400 H   0  0  0  0  0  0  0  0  0  0  0  0
   37.5880   32.7150   49.5860 C   0  0  0  0  0  0  0  0  0  0  0  0
   38.4690   32.8390   48.4990 C   0  0  0  0  0  0  0  0  0  0  0  0
   38.6950   31.6960   47.7000 C   0  0  0  0  0  0  0  0  0  0  0  0
   38.0440   30.5380   48.0320 N   0  0  0  0  0  0  0  0  0  0  0  0
   37.2150   30.4750   49.0780 C   0  0  0  0  0  0  0  0  0  0  0  0
   36.9900   31.5690   49.8550 N   0  0  0  0  0  0  0  0  0  0  0  0
   37.3840   33.5560   50.2230 H   0  0  0  0  0  0  0  0  0  0  0  0
   38.9540   33.7600   48.2780 H   0  0  0  0  0  0  0  0  0  0  0  0
   39.3600   31.7340   46.8530 H   0  0  0  0  0  0  0  0  0  0  0  0
   33.4440   27.3580   48.0800 C   0  0  0  0  0  0  0  0  0  0  0  0
   33.7640   26.1300   47.8450 O   0  0  0  0  0  0  0  0  0  0  0  0
   32.3860   27.9300   47.4040 O   0  0  0  0  0  0  0  0  0  0  0  0
   31.1340   28.0830   47.9170 C   0  0  0  0  0  0  0  0  0  0  0  0
   30.7250   27.6170   49.2570 C   0  0  0  0  0  0  0  0  0  0  0  0
   29.4530   27.8180   49.6840 C   0  0  0  0  0  0  0  0  0  0  0  0
   28.5300   28.4760   48.8300 C   0  0  0  0  0  0  0  0  0  0  0  0
   29.5190   28.8410   47.3130 S   0  0  0  0  0  0  0  0  0  0  0  0
   31.4630   27.1230   49.8660 H   0  0  0  0  0  0  0  0  0  0  0  0
   29.0760   27.5140   50.6420 H   0  0  0  0  0  0  0  0  0  0  0  0
   27.2060   28.8160   48.9780 C   0  0  0  0  0  0  0  0  0  0  0  0
   26.6050   29.9990   48.6820 C   0  0  0  0  0  3  0  0  0  0  0  0
   25.2780   29.8920   48.9890 N   0  0  0  0  0  0  0  0  0  0  0  0
   25.0680   28.6330   49.4750 C   0  0  0  0  0  3  0  0  0  0  0  0
   26.2780   28.0000   49.4540 N   0  0  0  0  0  0  0  0  0  0  0  0
   26.3720   27.0160   49.7820 H   0  0  0  0  0  0  0  0  0  0  0  0
  1  4  1  6  0  0  0
  1  3  1  0  0  0  0
  1  8  1  0  0  0  0
  1  2  1  0  0  0  0
  2  5  1  0  0  0  0
  3  2  1  0  0  0  0
  3  7  1  1  0  0  0
  6  2  1  0  0  0  0
  8 10  1  0  0  0  0
  9  8  1  0  0  0  0
 11 16  1  0  0  0  0
 11 17  1  0  0  0  0
 12 11  2  0  0  0  0
 13 14  2  0  0  0  0
 13 12  1  0  0  0  0
 14 15  1  0  0  0  0
 15  8  1  0  0  0  0
 15 16  2  0  0  0  0
 18 12  1  0  0  0  0
 19 13  1  0  0  0  0
 20  3  1  0  0  0  0
 21 20  2  0  0  0  0
 22 23  1  0  0  0  0
 22 20  1  0  0  0  0
 23 24  2  0  0  0  0
 24 25  1  0  0  0  0
 24 28  1  0  0  0  0
 25 29  1  0  0  0  0
 26 30  1  0  0  0  0
 26 25  2  0  0  0  0
 27 23  1  0  0  0  0
 27 26  1  0  0  0  0
 30 34  1  0  0  0  0
 31 30  2  0  0  0  0
 31 32  1  0  0  0  0
 32 33  2  0  0  0  0
 34 33  1  0  0  0  0
 34 35  1  0  0  0  0
M  END
>  <minimizedAffinity>
-6.26690769

>  <minimizedRMSD>
1.53866684

$$$$
