
 OpenBabel03252511163D

 33 36  0  0  1  0  0  0  0  0999 V2000
   38.5350   32.0880   48.0020 C   0  0  1  0  0  0  0  0  0  0  0  0
   39.6090   32.1590   48.4930 H   0  0  0  0  0  0  0  0  0  0  0  0
   37.8640   31.1960   48.9410 C   0  0  0  0  0  0  0  0  0  0  0  0
   38.3670   31.0610   50.1700 N   0  0  0  0  0  0  0  0  0  0  0  0
   37.8160   30.2510   51.1080 C   0  0  0  0  0  0  0  0  0  0  0  0
   36.7250   29.5250   50.8700 N   0  0  0  0  0  0  0  0  0  0  0  0
   36.1310   29.5910   49.6500 C   0  0  0  0  0  0  0  0  0  0  0  0
   35.0130   28.8560   49.3730 C   0  0  0  0  0  0  0  0  0  0  0  0
   34.4080   28.9090   48.1550 C   0  0  0  0  0  0  0  0  0  0  0  0
   34.9870   29.7430   47.2220 C   0  0  0  0  0  0  0  0  0  0  0  0
   36.1120   30.4670   47.5340 C   0  0  0  0  0  0  0  0  0  0  0  0
   36.7360   30.4280   48.7510 C   0  0  0  0  0  0  0  0  0  0  0  0
   38.2770   30.1780   52.1130 H   0  0  0  0  0  0  0  0  0  0  0  0
   34.5910   28.2130   50.1380 H   0  0  0  0  0  0  0  0  0  0  0  0
   33.5250   28.3510   47.8810 H   0  0  0  0  0  0  0  0  0  0  0  0
   34.5850   29.8600   46.2180 H   0  0  0  0  0  0  0  0  0  0  0  0
   36.5570   31.1290   46.7660 H   0  0  0  0  0  0  0  0  0  0  0  0
   39.0400   31.9200   46.6690 C   0  0  0  0  0  0  0  0  0  0  0  0
   39.8810   32.9850   46.3080 C   0  0  0  0  0  0  0  0  0  0  0  0
   40.5920   32.9290   45.0550 C   0  0  0  0  0  0  0  0  0  0  0  0
   40.3810   31.8170   44.3070 N   0  0  0  0  0  0  0  0  0  0  0  0
   39.5540   30.8120   44.6970 C   0  0  0  0  0  0  0  0  0  0  0  0
   38.9010   30.8580   45.8440 N   0  0  0  0  0  0  0  0  0  0  0  0
   40.0760   33.8860   46.8730 H   0  0  0  0  0  0  0  0  0  0  0  0
   41.2410   33.7250   44.7520 H   0  0  0  0  0  0  0  0  0  0  0  0
   39.4020   29.6630   43.8090 C   0  0  0  0  0  0  0  0  0  0  0  0
   38.2190   29.0250   43.4920 C   0  0  0  0  0  0  0  0  0  0  0  0
   38.4600   28.0080   42.6450 N   0  0  0  0  0  0  0  0  0  0  0  0
   39.8030   27.9990   42.4230 C   0  0  0  0  0  0  0  0  0  0  0  0
   40.3510   28.9960   43.1270 N   0  0  0  0  0  0  0  0  0  0  0  0
   41.3750   29.2000   43.1250 H   0  0  0  0  0  0  0  0  0  0  0  0
   38.1900   33.2970   48.4480 O   0  0  0  0  0  0  0  0  0  0  0  0
   37.5040   33.7050   47.8500 H   0  0  0  0  0  0  0  0  0  0  0  0
  1 32  1  0  0  0  0
  1  2  1  1  0  0  0
  1  3  1  0  0  0  0
  3  4  1  0  0  0  0
  4  5  2  0  0  0  0
  5 13  1  0  0  0  0
  6  5  1  0  0  0  0
  7  6  2  0  0  0  0
  8  7  1  0  0  0  0
  8 14  1  0  0  0  0
  9  8  2  0  0  0  0
 10 11  2  0  0  0  0
 10  9  1  0  0  0  0
 11 12  1  0  0  0  0
 12  3  2  0  0  0  0
 12  7  1  0  0  0  0
 15  9  1  0  0  0  0
 16 10  1  0  0  0  0
 17 11  1  0  0  0  0
 18  1  1  0  0  0  0
 19 18  1  0  0  0  0
 19 24  1  0  0  0  0
 20 19  2  0  0  0  0
 21 22  2  0  0  0  0
 21 20  1  0  0  0  0
 22 23  1  0  0  0  0
 23 18  2  0  0  0  0
 25 20  1  0  0  0  0
 26 22  1  0  0  0  0
 27 26  2  0  0  0  0
 28 27  1  0  0  0  0
 29 28  2  0  0  0  0
 29 30  1  0  0  0  0
 30 26  1  0  0  0  0
 31 30  1  0  0  0  0
 33 32  1  0  0  0  0
M  END
>  <minimizedAffinity>
-7.20635986

>  <minimizedRMSD>
0.671574235

$$$$
