
 OpenBabel03252514053D

 35 38  0  0  1  0  0  0  0  0999 V2000
   35.2720   29.2680   48.7180 C   0  0  2  0  0  0  0  0  0  0  0  0
   34.1000   29.3170   49.5900 C   0  0  0  0  0  0  0  0  0  0  0  0
   34.4560   28.0020   49.1410 C   0  0  1  0  0  0  0  0  0  0  0  0
   35.2640   29.4380   47.6380 H   0  0  0  0  0  0  0  0  0  0  0  0
   34.2800   29.6520   50.6510 H   0  0  0  0  0  0  0  0  0  0  0  0
   33.2010   29.8480   49.1810 H   0  0  0  0  0  0  0  0  0  0  0  0
   35.0740   27.2570   49.6540 H   0  0  0  0  0  0  0  0  0  0  0  0
   36.6400   29.2820   49.4210 C   0  0  0  0  0  0  0  0  0  0  0  0
   37.2240   28.4060   49.0360 H   0  0  0  0  0  0  0  0  0  0  0  0
   36.5040   29.0990   50.4900 H   0  0  0  0  0  0  0  0  0  0  0  0
   37.7240   32.7680   49.5400 C   0  0  0  0  0  0  0  0  0  0  0  0
   38.5580   32.8700   48.4130 C   0  0  0  0  0  0  0  0  0  0  0  0
   38.7360   31.7160   47.6180 C   0  0  0  0  0  0  0  0  0  0  0  0
   38.0870   30.5690   47.9920 N   0  0  0  0  0  0  0  0  0  0  0  0
   37.3050   30.5270   49.0750 C   0  0  0  0  0  0  0  0  0  0  0  0
   37.1270   31.6320   49.8480 N   0  0  0  0  0  0  0  0  0  0  0  0
   37.5580   33.6180   50.1750 H   0  0  0  0  0  0  0  0  0  0  0  0
   39.0430   33.7830   48.1610 H   0  0  0  0  0  0  0  0  0  0  0  0
   39.3640   31.7370   46.7430 H   0  0  0  0  0  0  0  0  0  0  0  0
   33.5610   27.4070   48.0780 C   0  0  0  0  0  0  0  0  0  0  0  0
   33.8660   26.1920   47.7660 O   0  0  0  0  0  0  0  0  0  0  0  0
   32.4970   28.0260   47.4550 O   0  0  0  0  0  0  0  0  0  0  0  0
   31.2300   28.0700   47.9520 C   0  0  0  0  0  0  0  0  0  0  0  0
   30.8440   27.5620   49.2830 C   0  0  0  0  0  0  0  0  0  0  0  0
   29.5540   27.6520   49.6940 C   0  0  0  0  0  0  0  0  0  0  0  0
   28.5900   28.2360   48.8310 C   0  0  0  0  0  0  0  0  0  0  0  0
   29.5640   28.6930   47.3300 S   0  0  0  0  0  0  0  0  0  0  0  0
   31.6130   27.1270   49.9000 H   0  0  0  0  0  0  0  0  0  0  0  0
   29.1920   27.3100   50.6450 H   0  0  0  0  0  0  0  0  0  0  0  0
   27.2400   28.4620   48.9640 C   0  0  0  0  0  0  0  0  0  0  0  0
   26.3390   28.7550   47.9890 C   0  0  0  0  0  3  0  0  0  0  0  0
   25.1120   28.8990   48.5730 N   0  0  0  0  0  0  0  0  0  0  0  0
   25.2660   28.6920   49.9140 C   0  0  0  0  0  3  0  0  0  0  0  0
   26.5890   28.4250   50.1170 N   0  0  0  0  0  0  0  0  0  0  0  0
   26.9550   28.2310   51.0720 H   0  0  0  0  0  0  0  0  0  0  0  0
  1  4  1  6  0  0  0
  1  3  1  0  0  0  0
  1  8  1  0  0  0  0
  1  2  1  0  0  0  0
  2  5  1  0  0  0  0
  3  2  1  0  0  0  0
  3  7  1  1  0  0  0
  6  2  1  0  0  0  0
  8 10  1  0  0  0  0
  9  8  1  0  0  0  0
 11 16  1  0  0  0  0
 11 17  1  0  0  0  0
 12 11  2  0  0  0  0
 13 14  2  0  0  0  0
 13 12  1  0  0  0  0
 14 15  1  0  0  0  0
 15  8  1  0  0  0  0
 15 16  2  0  0  0  0
 18 12  1  0  0  0  0
 19 13  1  0  0  0  0
 20  3  1  0  0  0  0
 21 20  2  0  0  0  0
 22 23  1  0  0  0  0
 22 20  1  0  0  0  0
 23 24  2  0  0  0  0
 24 25  1  0  0  0  0
 24 28  1  0  0  0  0
 25 29  1  0  0  0  0
 26 30  1  0  0  0  0
 26 25  2  0  0  0  0
 27 23  1  0  0  0  0
 27 26  1  0  0  0  0
 30 34  1  0  0  0  0
 31 32  1  0  0  0  0
 31 30  2  0  0  0  0
 32 33  2  0  0  0  0
 33 34  1  0  0  0  0
 34 35  1  0  0  0  0
M  END
>  <minimizedAffinity>
-6.08280802

>  <minimizedRMSD>
1.3416816

$$$$
