
 OpenBabel03252512563D

 27 30  0  0  0  0  0  0  0  0999 V2000
   36.8850   29.8180   51.5820 C   0  0  0  0  0  0  0  0  0  0  0  0
   37.7090   30.6120   50.7860 C   0  0  0  0  0  0  0  0  0  0  0  0
   37.3370   30.7070   49.4310 C   0  0  0  0  0  0  0  0  0  0  0  0
   36.2360   30.0570   48.9490 N   0  0  0  0  0  0  0  0  0  0  0  0
   35.4860   29.3020   49.7990 C   0  0  0  0  0  0  0  0  0  0  0  0
   35.8030   29.1800   51.1060 N   0  0  0  0  0  0  0  0  0  0  0  0
   37.1250   29.7120   52.6190 H   0  0  0  0  0  0  0  0  0  0  0  0
   38.5830   31.1330   51.1490 H   0  0  0  0  0  0  0  0  0  0  0  0
   38.1270   31.5150   48.4860 C   0  0  0  0  0  0  0  0  0  0  0  0
   38.8050   32.6840   48.6180 N   0  0  0  0  0  0  0  0  0  0  0  0
   39.3560   33.0020   47.4820 O   0  0  0  0  0  0  0  0  0  0  0  0
   39.0580   32.0850   46.6210 C   0  0  0  0  0  0  0  0  0  0  0  0
   38.2810   31.1100   47.1930 N   0  0  0  0  0  0  0  0  0  0  0  0
   39.4410   32.0060   45.2340 N   0  0  0  0  0  0  0  0  0  0  0  0
   38.9730   32.8880   44.3300 N   0  0  0  0  0  0  0  0  0  0  0  0
   39.4970   32.5690   43.1280 C   0  0  0  0  0  0  0  0  0  0  0  0
   40.3050   31.4580   43.3270 C   0  0  0  0  0  0  0  0  0  0  0  0
   40.2590   31.1140   44.6600 C   0  0  0  0  0  0  0  0  0  0  0  0
   39.3580   33.0420   42.1570 H   0  0  0  0  0  0  0  0  0  0  0  0
   40.8630   30.9660   42.5440 H   0  0  0  0  0  0  0  0  0  0  0  0
   40.7690   30.2990   45.1630 H   0  0  0  0  0  0  0  0  0  0  0  0
   34.3100   28.6090   49.2790 C   0  0  0  0  0  0  0  0  0  0  0  0
   34.3040   27.5830   48.3580 C   0  0  0  0  0  0  0  0  0  0  0  0
   33.0170   27.2080   48.1340 N   0  0  0  0  0  0  0  0  0  0  0  0
   32.2460   27.9940   48.9060 C   0  0  0  0  0  0  0  0  0  0  0  0
   33.0290   28.8560   49.6120 N   0  0  0  0  0  0  0  0  0  0  0  0
   32.6520   29.5660   50.2820 H   0  0  0  0  0  0  0  0  0  0  0  0
  1  7  1  0  0  0  0
  2  8  1  0  0  0  0
  2  1  2  0  0  0  0
  3  2  1  0  0  0  0
  4  3  2  0  0  0  0
  4  5  1  0  0  0  0
  5  6  2  0  0  0  0
  6  1  1  0  0  0  0
  9 10  2  0  0  0  0
  9  3  1  0  0  0  0
 11 10  1  0  0  0  0
 12 13  2  0  0  0  0
 12 11  1  0  0  0  0
 13  9  1  0  0  0  0
 14 12  1  0  0  0  0
 15 14  1  0  0  0  0
 16 17  1  0  0  0  0
 16 15  2  0  0  0  0
 17 18  2  0  0  0  0
 18 21  1  0  0  0  0
 18 14  1  0  0  0  0
 19 16  1  0  0  0  0
 20 17  1  0  0  0  0
 22 26  1  0  0  0  0
 22  5  1  0  0  0  0
 23 22  2  0  0  0  0
 24 23  1  0  0  0  0
 24 25  2  0  0  0  0
 25 26  1  0  0  0  0
 26 27  1  0  0  0  0
M  END
>  <minimizedAffinity>
-6.55093813

>  <minimizedRMSD>
0.742658734

$$$$
