
 OpenBabel03252514043D

 35 38  0  0  1  0  0  0  0  0999 V2000
   35.2690   29.2070   48.6300 C   0  0  2  0  0  0  0  0  0  0  0  0
   34.0560   29.3060   49.4380 C   0  0  0  0  0  0  0  0  0  0  0  0
   34.4230   27.9680   49.0730 C   0  0  1  0  0  0  0  0  0  0  0  0
   35.3170   29.3240   47.5440 H   0  0  0  0  0  0  0  0  0  0  0  0
   34.1850   29.6920   50.4890 H   0  0  0  0  0  0  0  0  0  0  0  0
   33.1820   29.8210   48.9590 H   0  0  0  0  0  0  0  0  0  0  0  0
   35.0090   27.2460   49.6530 H   0  0  0  0  0  0  0  0  0  0  0  0
   36.6000   29.2490   49.3990 C   0  0  0  0  0  0  0  0  0  0  0  0
   37.2150   28.3780   49.0530 H   0  0  0  0  0  0  0  0  0  0  0  0
   36.4140   29.0750   50.4620 H   0  0  0  0  0  0  0  0  0  0  0  0
   37.6620   32.7400   49.5570 C   0  0  0  0  0  0  0  0  0  0  0  0
   38.5150   32.8540   48.4460 C   0  0  0  0  0  0  0  0  0  0  0  0
   38.7130   31.7050   47.6480 C   0  0  0  0  0  0  0  0  0  0  0  0
   38.0650   30.5530   48.0040 N   0  0  0  0  0  0  0  0  0  0  0  0
   37.2640   30.5000   49.0720 C   0  0  0  0  0  0  0  0  0  0  0  0
   37.0650   31.5990   49.8480 N   0  0  0  0  0  0  0  0  0  0  0  0
   37.4790   33.5860   50.1940 H   0  0  0  0  0  0  0  0  0  0  0  0
   38.9980   33.7710   48.2080 H   0  0  0  0  0  0  0  0  0  0  0  0
   39.3570   31.7350   46.7840 H   0  0  0  0  0  0  0  0  0  0  0  0
   33.5780   27.3260   47.9970 C   0  0  0  0  0  0  0  0  0  0  0  0
   33.8920   26.0980   47.7570 O   0  0  0  0  0  0  0  0  0  0  0  0
   32.5470   27.9180   47.2950 O   0  0  0  0  0  0  0  0  0  0  0  0
   31.2820   28.0810   47.7720 C   0  0  0  0  0  0  0  0  0  0  0  0
   30.8260   27.6010   49.0920 C   0  0  0  0  0  0  0  0  0  0  0  0
   29.5450   27.8150   49.4830 C   0  0  0  0  0  0  0  0  0  0  0  0
   28.6570   28.4990   48.6110 C   0  0  0  0  0  0  0  0  0  0  0  0
   29.6970   28.8720   47.1320 S   0  0  0  0  0  0  0  0  0  0  0  0
   31.5380   27.0860   49.7160 H   0  0  0  0  0  0  0  0  0  0  0  0
   29.1340   27.5010   50.4240 H   0  0  0  0  0  0  0  0  0  0  0  0
   27.3340   28.8560   48.7250 C   0  0  0  0  0  0  0  0  0  0  0  0
   26.2430   28.0440   48.7290 C   0  0  0  0  0  3  0  0  0  0  0  0
   25.1310   28.8260   48.8630 N   0  0  0  0  0  0  0  0  0  0  0  0
   25.5470   30.1240   48.9400 C   0  0  0  0  0  3  0  0  0  0  0  0
   26.9080   30.1040   48.8520 N   0  0  0  0  0  0  0  0  0  0  0  0
   27.4600   30.9860   48.8870 H   0  0  0  0  0  0  0  0  0  0  0  0
  1  4  1  6  0  0  0
  1  3  1  0  0  0  0
  1  8  1  0  0  0  0
  1  2  1  0  0  0  0
  2  5  1  0  0  0  0
  3  2  1  0  0  0  0
  3  7  1  1  0  0  0
  6  2  1  0  0  0  0
  8 10  1  0  0  0  0
  9  8  1  0  0  0  0
 11 16  1  0  0  0  0
 11 17  1  0  0  0  0
 12 11  2  0  0  0  0
 13 14  2  0  0  0  0
 13 12  1  0  0  0  0
 14 15  1  0  0  0  0
 15  8  1  0  0  0  0
 15 16  2  0  0  0  0
 18 12  1  0  0  0  0
 19 13  1  0  0  0  0
 20  3  1  0  0  0  0
 21 20  2  0  0  0  0
 22 23  1  0  0  0  0
 22 20  1  0  0  0  0
 23 24  2  0  0  0  0
 24 25  1  0  0  0  0
 24 28  1  0  0  0  0
 25 29  1  0  0  0  0
 26 30  1  0  0  0  0
 26 25  2  0  0  0  0
 27 23  1  0  0  0  0
 27 26  1  0  0  0  0
 30 31  2  0  0  0  0
 30 34  1  0  0  0  0
 31 32  1  0  0  0  0
 32 33  2  0  0  0  0
 34 35  1  0  0  0  0
 34 33  1  0  0  0  0
M  END
>  <minimizedAffinity>
-6.17788792

>  <minimizedRMSD>
1.55850172

$$$$
