
 OpenBabel03252514053D

 35 38  0  0  1  0  0  0  0  0999 V2000
   35.2660   29.2640   48.6910 C   0  0  2  0  0  0  0  0  0  0  0  0
   34.0930   29.3290   49.5570 C   0  0  0  0  0  0  0  0  0  0  0  0
   34.4460   28.0060   49.1300 C   0  0  1  0  0  0  0  0  0  0  0  0
   35.2550   29.4780   47.6180 H   0  0  0  0  0  0  0  0  0  0  0  0
   33.2020   29.8810   49.1620 H   0  0  0  0  0  0  0  0  0  0  0  0
   34.2570   29.6190   50.6380 H   0  0  0  0  0  0  0  0  0  0  0  0
   35.0590   27.2680   49.6580 H   0  0  0  0  0  0  0  0  0  0  0  0
   36.6310   29.2770   49.4040 C   0  0  0  0  0  0  0  0  0  0  0  0
   36.4830   29.1650   50.4970 H   0  0  0  0  0  0  0  0  0  0  0  0
   37.2660   28.4410   49.0690 H   0  0  0  0  0  0  0  0  0  0  0  0
   37.7130   32.7620   49.5450 C   0  0  0  0  0  0  0  0  0  0  0  0
   38.5560   32.8690   48.4170 C   0  0  0  0  0  0  0  0  0  0  0  0
   38.7370   31.7160   47.6180 C   0  0  0  0  0  0  0  0  0  0  0  0
   38.0820   30.5680   47.9900 N   0  0  0  0  0  0  0  0  0  0  0  0
   37.2970   30.5250   49.0680 C   0  0  0  0  0  0  0  0  0  0  0  0
   37.1190   31.6330   49.8410 N   0  0  0  0  0  0  0  0  0  0  0  0
   37.6080   33.6710   50.1210 H   0  0  0  0  0  0  0  0  0  0  0  0
   39.0340   33.8100   48.1950 H   0  0  0  0  0  0  0  0  0  0  0  0
   39.3770   31.7790   46.7540 H   0  0  0  0  0  0  0  0  0  0  0  0
   33.5490   27.4060   48.0740 C   0  0  0  0  0  0  0  0  0  0  0  0
   33.8690   26.2040   47.7310 O   0  0  0  0  0  0  0  0  0  0  0  0
   32.4650   27.9900   47.4710 O   0  0  0  0  0  0  0  0  0  0  0  0
   31.2090   28.0540   47.9940 C   0  0  0  0  0  0  0  0  0  0  0  0
   30.8380   27.5700   49.3300 C   0  0  0  0  0  0  0  0  0  0  0  0
   29.5700   27.6740   49.7820 C   0  0  0  0  0  0  0  0  0  0  0  0
   28.5880   28.2580   48.9460 C   0  0  0  0  0  0  0  0  0  0  0  0
   29.5480   28.6980   47.3840 S   0  0  0  0  0  0  0  0  0  0  0  0
   31.6220   27.1310   49.9300 H   0  0  0  0  0  0  0  0  0  0  0  0
   29.2350   27.3410   50.7450 H   0  0  0  0  0  0  0  0  0  0  0  0
   27.2000   28.4830   49.1800 C   0  0  0  0  0  0  0  0  0  0  0  0
   26.4920   28.2480   50.3020 N   0  0  0  0  0  0  0  0  0  0  0  0
   25.2470   28.5970   50.0890 O   0  0  0  0  0  0  0  0  0  0  0  0
   25.1030   29.0540   48.8680 C   0  0  0  0  0  0  0  0  0  0  0  0
   24.0720   29.3460   48.6850 H   0  0  0  0  0  0  0  0  0  0  0  0
   26.3190   28.9860   48.2930 N   0  0  0  0  0  0  0  0  0  0  0  0
  1  4  1  6  0  0  0
  1  3  1  0  0  0  0
  1  8  1  0  0  0  0
  1  2  1  0  0  0  0
  2  6  1  0  0  0  0
  3  2  1  0  0  0  0
  3  7  1  1  0  0  0
  5  2  1  0  0  0  0
  8  9  1  0  0  0  0
 10  8  1  0  0  0  0
 11 16  1  0  0  0  0
 11 17  1  0  0  0  0
 12 11  2  0  0  0  0
 13 14  2  0  0  0  0
 13 12  1  0  0  0  0
 14 15  1  0  0  0  0
 15  8  1  0  0  0  0
 15 16  2  0  0  0  0
 18 12  1  0  0  0  0
 19 13  1  0  0  0  0
 20  3  1  0  0  0  0
 21 20  2  0  0  0  0
 22 23  1  0  0  0  0
 22 20  1  0  0  0  0
 23 24  2  0  0  0  0
 24 25  1  0  0  0  0
 24 28  1  0  0  0  0
 25 29  1  0  0  0  0
 26 30  1  0  0  0  0
 26 25  2  0  0  0  0
 27 23  1  0  0  0  0
 27 26  1  0  0  0  0
 30 31  2  0  0  0  0
 32 31  1  0  0  0  0
 33 32  1  0  0  0  0
 34 33  1  0  0  0  0
 35 33  2  0  0  0  0
 35 30  1  0  0  0  0
M  END
>  <minimizedAffinity>
-6.21817684

>  <minimizedRMSD>
1.39159012

$$$$
