
 OpenBabel03252512473D

 34 36  0  0  1  0  0  0  0  0999 V2000
   39.5330   30.3650   44.5160 C   0  0  2  0  0  0  0  0  0  0  0  0
   40.1540   29.4800   44.7770 H   0  0  0  0  0  0  0  0  0  0  0  0
   38.3460   31.1340   47.8980 C   0  0  0  0  0  0  0  0  0  0  0  0
   38.8010   32.4670   47.9610 C   0  0  0  0  0  0  0  0  0  0  0  0
   39.6050   32.7430   46.3410 S   0  0  0  0  0  0  0  0  0  0  0  0
   39.1710   30.9470   45.8490 C   0  0  0  0  0  0  0  0  0  0  0  0
   38.6410   30.5530   46.7390 N   0  0  0  0  0  0  0  0  0  0  0  0
   38.6740   33.1430   48.8160 H   0  0  0  0  0  0  0  0  0  0  0  0
   38.0210   30.8650   50.3280 C   0  0  0  0  0  0  0  0  0  0  0  0
   37.6280   30.5290   49.0270 C   0  0  0  0  0  0  0  0  0  0  0  0
   36.5750   29.6440   48.9100 C   0  0  0  0  0  0  0  0  0  0  0  0
   35.9760   29.1450   50.0000 N   0  0  0  0  0  0  0  0  0  0  0  0
   36.3790   29.4880   51.2380 C   0  0  0  0  0  0  0  0  0  0  0  0
   37.3980   30.3450   51.3900 N   0  0  0  0  0  0  0  0  0  0  0  0
   38.8290   31.5440   50.5530 H   0  0  0  0  0  0  0  0  0  0  0  0
   36.3300   29.4310   47.8830 H   0  0  0  0  0  0  0  0  0  0  0  0
   35.7980   29.0040   52.0290 H   0  0  0  0  0  0  0  0  0  0  0  0
   40.3210   31.4200   43.7680 C   0  0  0  0  0  0  0  0  0  0  0  0
   40.0260   31.4060   42.7020 H   0  0  0  0  0  0  0  0  0  0  0  0
   41.4110   31.3240   43.9180 H   0  0  0  0  0  0  0  0  0  0  0  0
   40.0390   32.4420   44.1260 H   0  0  0  0  0  0  0  0  0  0  0  0
   38.2940   29.9890   43.7760 C   0  0  0  0  0  0  0  0  0  0  0  0
   37.5220   29.5670   44.4630 H   0  0  0  0  0  0  0  0  0  0  0  0
   37.8950   30.9220   43.2780 H   0  0  0  0  0  0  0  0  0  0  0  0
   39.3340   26.8430   41.0430 C   0  0  0  0  0  0  0  0  0  0  0  0
   39.4590   26.6980   42.4070 C   0  0  0  0  0  0  0  0  0  0  0  0
   39.0890   27.7620   43.2010 C   0  0  0  0  0  0  0  0  0  0  0  0
   38.5920   28.9870   42.7390 C   0  0  0  0  0  0  0  0  0  0  0  0
   38.4810   29.0950   41.3700 C   0  0  0  0  0  0  0  0  0  0  0  0
   38.8470   28.0380   40.5640 C   0  0  0  0  0  0  0  0  0  0  0  0
   39.8830   24.3730   40.5280 H   0  0  0  0  0  0  0  0  0  0  0  0
   39.7660   25.5730   39.9190 S   0  0  0  0  0  0  0  0  0  0  0  0
   38.7130   25.5510   38.8340 O   0  0  0  0  0  0  0  0  0  0  0  0
   41.0320   26.0120   39.2250 O   0  0  0  0  0  0  0  0  0  0  0  0
  1  2  1  1  0  0  0
  1  6  1  0  0  0  0
  3  4  2  0  0  0  0
  3 10  1  0  0  0  0
  4  8  1  0  0  0  0
  5  4  1  0  0  0  0
  6  5  1  0  0  0  0
  6  7  2  0  0  0  0
  7  3  1  0  0  0  0
  9 15  1  0  0  0  0
  9 14  1  0  0  0  0
 10  9  2  0  0  0  0
 11 10  1  0  0  0  0
 11 12  2  0  0  0  0
 12 13  1  0  0  0  0
 13 14  2  0  0  0  0
 13 17  1  0  0  0  0
 16 11  1  0  0  0  0
 18 20  1  0  0  0  0
 18 21  1  0  0  0  0
 18  1  1  0  0  0  0
 19 18  1  0  0  0  0
 22 23  1  0  0  0  0
 22  1  1  0  0  0  0
 24 22  1  0  0  0  0
 25 26  1  0  0  0  0
 26 27  2  0  0  0  0
 28 27  1  0  0  0  0
 28 22  1  0  0  0  0
 29 28  2  0  0  0  0
 30 25  2  0  0  0  0
 30 29  1  0  0  0  0
 32 31  1  0  0  0  0
 32 25  1  0  0  0  0
 33 32  2  0  0  0  0
 34 32  2  0  0  0  0
M  END
>  <minimizedAffinity>
-5.34026861

>  <minimizedRMSD>
4.23689938

$$$$
