
 OpenBabel03252514043D

 35 38  0  0  1  0  0  0  0  0999 V2000
   35.2660   29.2650   48.6940 C   0  0  2  0  0  0  0  0  0  0  0  0
   34.0930   29.3260   49.5620 C   0  0  0  0  0  0  0  0  0  0  0  0
   34.4470   28.0050   49.1310 C   0  0  1  0  0  0  0  0  0  0  0  0
   35.2530   29.4810   47.6210 H   0  0  0  0  0  0  0  0  0  0  0  0
   33.2010   29.8790   49.1690 H   0  0  0  0  0  0  0  0  0  0  0  0
   34.2580   29.6140   50.6420 H   0  0  0  0  0  0  0  0  0  0  0  0
   35.0610   27.2660   49.6560 H   0  0  0  0  0  0  0  0  0  0  0  0
   36.6310   29.2770   49.4050 C   0  0  0  0  0  0  0  0  0  0  0  0
   36.4840   29.1660   50.4980 H   0  0  0  0  0  0  0  0  0  0  0  0
   37.2650   28.4410   49.0700 H   0  0  0  0  0  0  0  0  0  0  0  0
   37.7130   32.7620   49.5440 C   0  0  0  0  0  0  0  0  0  0  0  0
   38.5560   32.8690   48.4160 C   0  0  0  0  0  0  0  0  0  0  0  0
   38.7370   31.7150   47.6180 C   0  0  0  0  0  0  0  0  0  0  0  0
   38.0820   30.5680   47.9910 N   0  0  0  0  0  0  0  0  0  0  0  0
   37.2970   30.5250   49.0690 C   0  0  0  0  0  0  0  0  0  0  0  0
   37.1190   31.6330   49.8410 N   0  0  0  0  0  0  0  0  0  0  0  0
   37.6080   33.6720   50.1200 H   0  0  0  0  0  0  0  0  0  0  0  0
   39.0340   33.8100   48.1940 H   0  0  0  0  0  0  0  0  0  0  0  0
   39.3760   31.7780   46.7530 H   0  0  0  0  0  0  0  0  0  0  0  0
   33.5490   27.4060   48.0740 C   0  0  0  0  0  0  0  0  0  0  0  0
   33.8680   26.2040   47.7310 O   0  0  0  0  0  0  0  0  0  0  0  0
   32.4650   27.9910   47.4720 O   0  0  0  0  0  0  0  0  0  0  0  0
   31.2100   28.0550   47.9940 C   0  0  0  0  0  0  0  0  0  0  0  0
   30.8380   27.5720   49.3300 C   0  0  0  0  0  0  0  0  0  0  0  0
   29.5700   27.6740   49.7820 C   0  0  0  0  0  0  0  0  0  0  0  0
   28.5880   28.2580   48.9460 C   0  0  0  0  0  0  0  0  0  0  0  0
   29.5480   28.6990   47.3840 S   0  0  0  0  0  0  0  0  0  0  0  0
   31.6220   27.1320   49.9310 H   0  0  0  0  0  0  0  0  0  0  0  0
   29.2350   27.3420   50.7460 H   0  0  0  0  0  0  0  0  0  0  0  0
   27.2000   28.4830   49.1800 C   0  0  0  0  0  0  0  0  0  0  0  0
   26.4920   28.2480   50.3020 N   0  0  0  0  0  0  0  0  0  0  0  0
   25.2470   28.5970   50.0890 O   0  0  0  0  0  0  0  0  0  0  0  0
   25.1040   29.0540   48.8670 C   0  0  0  0  0  0  0  0  0  0  0  0
   24.0730   29.3450   48.6850 H   0  0  0  0  0  0  0  0  0  0  0  0
   26.3200   28.9860   48.2930 N   0  0  0  0  0  0  0  0  0  0  0  0
  1  4  1  6  0  0  0
  1  3  1  0  0  0  0
  1  8  1  0  0  0  0
  1  2  1  0  0  0  0
  2  6  1  0  0  0  0
  3  2  1  0  0  0  0
  3  7  1  1  0  0  0
  5  2  1  0  0  0  0
  8  9  1  0  0  0  0
 10  8  1  0  0  0  0
 11 16  1  0  0  0  0
 11 17  1  0  0  0  0
 12 11  2  0  0  0  0
 13 14  2  0  0  0  0
 13 12  1  0  0  0  0
 14 15  1  0  0  0  0
 15  8  1  0  0  0  0
 15 16  2  0  0  0  0
 18 12  1  0  0  0  0
 19 13  1  0  0  0  0
 20  3  1  0  0  0  0
 21 20  2  0  0  0  0
 22 23  1  0  0  0  0
 22 20  1  0  0  0  0
 23 24  2  0  0  0  0
 24 25  1  0  0  0  0
 24 28  1  0  0  0  0
 25 29  1  0  0  0  0
 26 30  1  0  0  0  0
 26 25  2  0  0  0  0
 27 23  1  0  0  0  0
 27 26  1  0  0  0  0
 30 31  2  0  0  0  0
 32 31  1  0  0  0  0
 33 32  1  0  0  0  0
 34 33  1  0  0  0  0
 35 33  2  0  0  0  0
 35 30  1  0  0  0  0
M  END
>  <minimizedAffinity>
-6.2210474

>  <minimizedRMSD>
1.36492991

$$$$
