
 OpenBabel03252513223D

 18 19  0  0  0  0  0  0  0  0999 V2000
   35.3600   29.1490   50.4150 C   0  0  0  0  0  0  0  0  0  0  0  0
   36.1270   30.1540   49.8070 C   0  0  0  0  0  0  0  0  0  0  0  0
   35.8010   30.5260   48.4990 C   0  0  0  0  0  0  0  0  0  0  0  0
   34.7450   29.8890   47.8750 N   0  0  0  0  0  0  0  0  0  0  0  0
   34.0410   28.9270   48.5110 C   0  0  0  0  0  0  0  0  0  0  0  0
   34.3540   28.5730   49.7620 N   0  0  0  0  0  0  0  0  0  0  0  0
   35.7000   28.9500   51.4090 H   0  0  0  0  0  0  0  0  0  0  0  0
   36.3460   31.2980   47.9480 H   0  0  0  0  0  0  0  0  0  0  0  0
   32.9300   28.2750   47.8210 C   0  0  0  0  0  0  0  0  0  0  0  0
   32.2800   27.1710   48.2390 N   0  0  0  0  0  0  0  0  0  0  0  0
   31.3520   26.8710   47.3830 O   0  0  0  0  0  0  0  0  0  0  0  0
   31.3480   27.7460   46.3820 C   0  0  0  0  0  0  0  0  0  0  0  0
   30.6880   27.7670   45.5060 H   0  0  0  0  0  0  0  0  0  0  0  0
   32.3440   28.6290   46.6620 N   0  0  0  0  0  0  0  0  0  0  0  0
   37.2680   30.8420   50.4790 C   0  0  0  0  0  0  0  0  0  0  0  0
   38.4850   30.5520   49.9700 F   0  0  0  0  0  0  0  0  0  0  0  0
   37.2980   30.5520   51.8230 F   0  0  0  0  0  0  0  0  0  0  0  0
   37.1030   32.2300   50.3450 F   0  0  0  0  0  0  0  0  0  0  0  0
  1  7  1  0  0  0  0
  2  1  1  0  0  0  0
  2 15  1  0  0  0  0
  3  2  2  0  0  0  0
  4  3  1  0  0  0  0
  4  5  2  0  0  0  0
  5  6  1  0  0  0  0
  6  1  2  0  0  0  0
  8  3  1  0  0  0  0
  9 10  2  0  0  0  0
  9  5  1  0  0  0  0
 11 10  1  0  0  0  0
 12 14  2  0  0  0  0
 12 11  1  0  0  0  0
 13 12  1  0  0  0  0
 14  9  1  0  0  0  0
 15 17  1  0  0  0  0
 16 15  1  0  0  0  0
 18 15  1  0  0  0  0
M  END
>  <minimizedAffinity>
-4.69743061

>  <minimizedRMSD>
0.687824845

$$$$
