
 OpenBabel03252514043D

 35 38  0  0  1  0  0  0  0  0999 V2000
   35.2540   29.1940   48.6050 C   0  0  2  0  0  0  0  0  0  0  0  0
   34.0350   29.3300   49.3960 C   0  0  0  0  0  0  0  0  0  0  0  0
   34.3910   27.9770   49.0780 C   0  0  1  0  0  0  0  0  0  0  0  0
   35.3060   29.3350   47.5210 H   0  0  0  0  0  0  0  0  0  0  0  0
   33.1760   29.8650   48.9150 H   0  0  0  0  0  0  0  0  0  0  0  0
   34.1430   29.6890   50.4630 H   0  0  0  0  0  0  0  0  0  0  0  0
   34.9620   27.2690   49.6870 H   0  0  0  0  0  0  0  0  0  0  0  0
   36.5770   29.2380   49.3910 C   0  0  0  0  0  0  0  0  0  0  0  0
   36.3700   29.1400   50.4760 H   0  0  0  0  0  0  0  0  0  0  0  0
   37.2420   28.4060   49.1060 H   0  0  0  0  0  0  0  0  0  0  0  0
   37.6340   32.7280   49.5650 C   0  0  0  0  0  0  0  0  0  0  0  0
   38.5010   32.8440   48.4570 C   0  0  0  0  0  0  0  0  0  0  0  0
   38.7070   31.6940   47.6590 C   0  0  0  0  0  0  0  0  0  0  0  0
   38.0510   30.5420   48.0140 N   0  0  0  0  0  0  0  0  0  0  0  0
   37.2420   30.4900   49.0740 C   0  0  0  0  0  0  0  0  0  0  0  0
   37.0410   31.5950   49.8450 N   0  0  0  0  0  0  0  0  0  0  0  0
   37.5100   33.6360   50.1420 H   0  0  0  0  0  0  0  0  0  0  0  0
   38.9780   33.7890   48.2480 H   0  0  0  0  0  0  0  0  0  0  0  0
   39.3650   31.7640   46.8090 H   0  0  0  0  0  0  0  0  0  0  0  0
   33.5460   27.3180   48.0140 C   0  0  0  0  0  0  0  0  0  0  0  0
   33.8680   26.0940   47.7670 O   0  0  0  0  0  0  0  0  0  0  0  0
   32.5030   27.8720   47.3170 O   0  0  0  0  0  0  0  0  0  0  0  0
   31.2430   28.0620   47.7970 C   0  0  0  0  0  0  0  0  0  0  0  0
   30.7820   27.6250   49.1210 C   0  0  0  0  0  0  0  0  0  0  0  0
   29.5160   27.8550   49.5300 C   0  0  0  0  0  0  0  0  0  0  0  0
   28.6240   28.5270   48.6600 C   0  0  0  0  0  0  0  0  0  0  0  0
   29.6740   28.8630   47.1300 S   0  0  0  0  0  0  0  0  0  0  0  0
   31.4980   27.1140   49.7480 H   0  0  0  0  0  0  0  0  0  0  0  0
   29.1180   27.5620   50.4820 H   0  0  0  0  0  0  0  0  0  0  0  0
   27.2580   28.8890   48.8460 C   0  0  0  0  0  0  0  0  0  0  0  0
   26.7300   30.1210   48.9810 N   0  0  0  0  0  0  0  0  0  0  0  0
   25.4340   30.0040   49.1320 O   0  0  0  0  0  0  0  0  0  0  0  0
   25.0830   28.7400   49.1020 C   0  0  0  0  0  0  0  0  0  0  0  0
   24.0080   28.6370   49.2270 H   0  0  0  0  0  0  0  0  0  0  0  0
   26.2170   28.0370   48.9240 N   0  0  0  0  0  0  0  0  0  0  0  0
  1  4  1  6  0  0  0
  1  3  1  0  0  0  0
  1  8  1  0  0  0  0
  1  2  1  0  0  0  0
  2  6  1  0  0  0  0
  3  2  1  0  0  0  0
  3  7  1  1  0  0  0
  5  2  1  0  0  0  0
  8  9  1  0  0  0  0
 10  8  1  0  0  0  0
 11 16  1  0  0  0  0
 11 17  1  0  0  0  0
 12 11  2  0  0  0  0
 13 14  2  0  0  0  0
 13 12  1  0  0  0  0
 14 15  1  0  0  0  0
 15  8  1  0  0  0  0
 15 16  2  0  0  0  0
 18 12  1  0  0  0  0
 19 13  1  0  0  0  0
 20  3  1  0  0  0  0
 21 20  2  0  0  0  0
 22 23  1  0  0  0  0
 22 20  1  0  0  0  0
 23 24  2  0  0  0  0
 24 25  1  0  0  0  0
 24 28  1  0  0  0  0
 25 29  1  0  0  0  0
 26 30  1  0  0  0  0
 26 25  2  0  0  0  0
 27 23  1  0  0  0  0
 27 26  1  0  0  0  0
 30 35  1  0  0  0  0
 30 31  2  0  0  0  0
 31 32  1  0  0  0  0
 33 32  1  0  0  0  0
 33 34  1  0  0  0  0
 35 33  2  0  0  0  0
M  END
>  <minimizedAffinity>
-6.19220352

>  <minimizedRMSD>
1.53173769

$$$$
