
 OpenBabel03252514053D

 35 38  0  0  1  0  0  0  0  0999 V2000
   35.2630   29.2650   48.7250 C   0  0  2  0  0  0  0  0  0  0  0  0
   34.0940   29.2980   49.5990 C   0  0  0  0  0  0  0  0  0  0  0  0
   34.4610   27.9880   49.1420 C   0  0  1  0  0  0  0  0  0  0  0  0
   35.2430   29.5000   47.6560 H   0  0  0  0  0  0  0  0  0  0  0  0
   33.1940   29.8470   49.2190 H   0  0  0  0  0  0  0  0  0  0  0  0
   34.2610   29.5680   50.6830 H   0  0  0  0  0  0  0  0  0  0  0  0
   35.0860   27.2470   49.6520 H   0  0  0  0  0  0  0  0  0  0  0  0
   36.6320   29.2800   49.4300 C   0  0  0  0  0  0  0  0  0  0  0  0
   36.4890   29.1750   50.5240 H   0  0  0  0  0  0  0  0  0  0  0  0
   37.2640   28.4410   49.0970 H   0  0  0  0  0  0  0  0  0  0  0  0
   37.7170   32.7650   49.5460 C   0  0  0  0  0  0  0  0  0  0  0  0
   38.5550   32.8650   48.4130 C   0  0  0  0  0  0  0  0  0  0  0  0
   38.7320   31.7070   47.6210 C   0  0  0  0  0  0  0  0  0  0  0  0
   38.0780   30.5620   48.0030 N   0  0  0  0  0  0  0  0  0  0  0  0
   37.2970   30.5250   49.0840 C   0  0  0  0  0  0  0  0  0  0  0  0
   37.1230   31.6380   49.8510 N   0  0  0  0  0  0  0  0  0  0  0  0
   37.6150   33.6780   50.1170 H   0  0  0  0  0  0  0  0  0  0  0  0
   39.0330   33.8040   48.1840 H   0  0  0  0  0  0  0  0  0  0  0  0
   39.3680   31.7650   46.7530 H   0  0  0  0  0  0  0  0  0  0  0  0
   33.5650   27.3980   48.0790 C   0  0  0  0  0  0  0  0  0  0  0  0
   33.8480   26.1790   47.7680 O   0  0  0  0  0  0  0  0  0  0  0  0
   32.5160   28.0080   47.4410 O   0  0  0  0  0  0  0  0  0  0  0  0
   31.2370   28.0690   47.9040 C   0  0  0  0  0  0  0  0  0  0  0  0
   30.8020   27.5780   49.2180 C   0  0  0  0  0  0  0  0  0  0  0  0
   29.5140   27.6770   49.6090 C   0  0  0  0  0  0  0  0  0  0  0  0
   28.5720   28.2650   48.7310 C   0  0  0  0  0  0  0  0  0  0  0  0
   29.6060   28.7150   47.2190 S   0  0  0  0  0  0  0  0  0  0  0  0
   31.5570   27.1350   49.8530 H   0  0  0  0  0  0  0  0  0  0  0  0
   29.1340   27.3400   50.5540 H   0  0  0  0  0  0  0  0  0  0  0  0
   27.1750   28.4880   48.8990 C   0  0  0  0  0  0  0  0  0  0  0  0
   26.2530   28.7660   47.9580 N   0  0  0  0  0  0  0  0  0  0  0  0
   25.0870   28.8970   48.5420 O   0  0  0  0  0  0  0  0  0  0  0  0
   25.2020   28.7160   49.8360 C   0  0  0  0  0  0  0  0  0  0  0  0
   24.2380   28.8230   50.3270 H   0  0  0  0  0  0  0  0  0  0  0  0
   26.5040   28.4600   50.0690 N   0  0  0  0  0  0  0  0  0  0  0  0
  1  4  1  6  0  0  0
  1  3  1  0  0  0  0
  1  8  1  0  0  0  0
  1  2  1  0  0  0  0
  2  6  1  0  0  0  0
  3  2  1  0  0  0  0
  3  7  1  1  0  0  0
  5  2  1  0  0  0  0
  8  9  1  0  0  0  0
 10  8  1  0  0  0  0
 11 16  1  0  0  0  0
 11 17  1  0  0  0  0
 12 11  2  0  0  0  0
 13 14  2  0  0  0  0
 13 12  1  0  0  0  0
 14 15  1  0  0  0  0
 15  8  1  0  0  0  0
 15 16  2  0  0  0  0
 18 12  1  0  0  0  0
 19 13  1  0  0  0  0
 20  3  1  0  0  0  0
 21 20  2  0  0  0  0
 22 23  1  0  0  0  0
 22 20  1  0  0  0  0
 23 24  2  0  0  0  0
 24 25  1  0  0  0  0
 24 28  1  0  0  0  0
 25 29  1  0  0  0  0
 26 30  1  0  0  0  0
 26 25  2  0  0  0  0
 27 23  1  0  0  0  0
 27 26  1  0  0  0  0
 30 35  1  0  0  0  0
 31 32  1  0  0  0  0
 31 30  2  0  0  0  0
 32 33  1  0  0  0  0
 33 35  2  0  0  0  0
 33 34  1  0  0  0  0
M  END
>  <minimizedAffinity>
-6.14682293

>  <minimizedRMSD>
1.28514385

$$$$
