
 OpenBabel03252513483D

 22 23  0  0  0  0  0  0  0  0999 V2000
   36.1060   29.9950   48.0820 C   0  0  0  0  0  0  0  0  0  0  0  0
   36.9350   30.9810   48.7070 C   0  0  0  0  0  0  0  0  0  0  0  0
   37.6920   31.7870   47.8760 C   0  0  0  0  0  0  0  0  0  0  0  0
   37.6120   31.6060   46.5390 N   0  0  0  0  0  0  0  0  0  0  0  0
   36.8200   30.6660   45.9840 C   0  0  0  0  0  0  0  0  0  0  0  0
   36.0790   29.8740   46.7510 N   0  0  0  0  0  0  0  0  0  0  0  0
   36.9840   31.1100   49.7820 H   0  0  0  0  0  0  0  0  0  0  0  0
   38.5640   32.8170   48.4040 C   0  0  0  0  0  0  0  0  0  0  0  0
   39.4790   33.4760   47.7030 N   0  0  0  0  0  0  0  0  0  0  0  0
   40.0810   34.3250   48.4740 O   0  0  0  0  0  0  0  0  0  0  0  0
   39.5780   34.2310   49.6660 C   0  0  0  0  0  0  0  0  0  0  0  0
   39.8670   34.8080   50.5410 H   0  0  0  0  0  0  0  0  0  0  0  0
   38.6100   33.2790   49.6470 N   0  0  0  0  0  0  0  0  0  0  0  0
   36.8430   30.5910   44.4960 C   0  0  0  0  0  0  0  0  0  0  0  0
   36.1830   31.6980   43.9580 F   0  0  0  0  0  0  0  0  0  0  0  0
   38.1390   30.6700   44.0530 F   0  0  0  0  0  0  0  0  0  0  0  0
   36.3030   29.4090   44.0180 F   0  0  0  0  0  0  0  0  0  0  0  0
   35.3430   29.1820   48.9100 O   0  0  0  0  0  0  0  0  0  0  0  0
   34.5790   29.6460   49.9870 C   0  0  0  0  0  0  0  0  0  0  0  0
   35.1720   29.4110   51.2070 F   0  0  0  0  0  0  0  0  0  0  0  0
   34.1800   30.9550   49.8880 F   0  0  0  0  0  0  0  0  0  0  0  0
   33.4100   28.8840   49.9710 F   0  0  0  0  0  0  0  0  0  0  0  0
  1  2  1  0  0  0  0
  1 18  1  0  0  0  0
  2  7  1  0  0  0  0
  3  8  1  0  0  0  0
  3  2  2  0  0  0  0
  4  3  1  0  0  0  0
  5  4  2  0  0  0  0
  5  6  1  0  0  0  0
  6  1  2  0  0  0  0
  8 13  1  0  0  0  0
  9  8  2  0  0  0  0
  9 10  1  0  0  0  0
 10 11  1  0  0  0  0
 11 12  1  0  0  0  0
 13 11  2  0  0  0  0
 14  5  1  0  0  0  0
 15 14  1  0  0  0  0
 16 14  1  0  0  0  0
 17 14  1  0  0  0  0
 18 19  1  0  0  0  0
 19 20  1  0  0  0  0
 21 19  1  0  0  0  0
 22 19  1  0  0  0  0
M  END
>  <minimizedAffinity>
-4.88894129

>  <minimizedRMSD>
2.29176164

$$$$
