
 OpenBabel03252513483D

 22 23  0  0  0  0  0  0  0  0999 V2000
   36.2040   29.9030   48.2970 C   0  0  0  0  0  0  0  0  0  0  0  0
   37.0490   30.9120   48.8590 C   0  0  0  0  0  0  0  0  0  0  0  0
   37.7040   31.7500   47.9740 C   0  0  0  0  0  0  0  0  0  0  0  0
   37.5150   31.5770   46.6470 N   0  0  0  0  0  0  0  0  0  0  0  0
   36.7100   30.6140   46.1530 C   0  0  0  0  0  0  0  0  0  0  0  0
   36.0650   29.7910   46.9720 N   0  0  0  0  0  0  0  0  0  0  0  0
   37.1870   31.0340   49.9270 H   0  0  0  0  0  0  0  0  0  0  0  0
   38.5830   32.8060   48.4360 C   0  0  0  0  0  0  0  0  0  0  0  0
   39.4740   33.4410   47.6850 N   0  0  0  0  0  0  0  0  0  0  0  0
   40.0920   34.3230   48.4040 O   0  0  0  0  0  0  0  0  0  0  0  0
   39.6200   34.2770   49.6120 C   0  0  0  0  0  0  0  0  0  0  0  0
   39.9290   34.8900   50.4540 H   0  0  0  0  0  0  0  0  0  0  0  0
   38.6580   33.3180   49.6580 N   0  0  0  0  0  0  0  0  0  0  0  0
   36.6060   30.5520   44.6670 C   0  0  0  0  0  0  0  0  0  0  0  0
   36.7090   31.8380   44.1340 F   0  0  0  0  0  0  0  0  0  0  0  0
   37.6680   29.8450   44.1630 F   0  0  0  0  0  0  0  0  0  0  0  0
   35.4440   29.9300   44.2450 F   0  0  0  0  0  0  0  0  0  0  0  0
   35.5430   29.0570   49.1800 O   0  0  0  0  0  0  0  0  0  0  0  0
   34.5800   29.4760   50.1040 C   0  0  0  0  0  0  0  0  0  0  0  0
   34.9510   29.2400   51.4100 F   0  0  0  0  0  0  0  0  0  0  0  0
   34.1590   30.7720   49.9490 F   0  0  0  0  0  0  0  0  0  0  0  0
   33.4620   28.6750   49.8680 F   0  0  0  0  0  0  0  0  0  0  0  0
  1  2  1  0  0  0  0
  1 18  1  0  0  0  0
  2  7  1  0  0  0  0
  3  8  1  0  0  0  0
  3  2  2  0  0  0  0
  4  3  1  0  0  0  0
  5  4  2  0  0  0  0
  5  6  1  0  0  0  0
  6  1  2  0  0  0  0
  8 13  1  0  0  0  0
  9 10  1  0  0  0  0
  9  8  2  0  0  0  0
 10 11  1  0  0  0  0
 11 13  2  0  0  0  0
 11 12  1  0  0  0  0
 14  5  1  0  0  0  0
 15 14  1  0  0  0  0
 16 14  1  0  0  0  0
 17 14  1  0  0  0  0
 18 19  1  0  0  0  0
 19 20  1  0  0  0  0
 21 19  1  0  0  0  0
 22 19  1  0  0  0  0
M  END
>  <minimizedAffinity>
-4.89879942

>  <minimizedRMSD>
2.28765368

$$$$
