
 OpenBabel03252512273D

 35 37  0  0  1  0  0  0  0  0999 V2000
   31.9610   28.1340   46.2590 C   0  0  2  0  0  0  0  0  0  0  0  0
   32.3650   27.8920   45.2580 H   0  0  0  0  0  0  0  0  0  0  0  0
   35.1330   29.4110   48.4900 C   0  0  0  0  0  0  0  0  0  0  0  0
   34.6910   28.1090   48.8100 C   0  0  0  0  0  0  0  0  0  0  0  0
   33.6360   27.6350   48.1030 C   0  0  0  0  0  0  0  0  0  0  0  0
   33.0780   28.3960   47.1690 C   0  0  0  0  0  0  0  0  0  0  0  0
   34.0180   29.9320   47.1800 S   0  0  0  0  0  0  0  0  0  0  0  0
   35.2280   27.5630   49.6070 H   0  0  0  0  0  0  0  0  0  0  0  0
   33.2580   26.6390   48.2800 H   0  0  0  0  0  0  0  0  0  0  0  0
   37.6640   30.5270   50.9260 C   0  0  0  0  0  0  0  0  0  0  0  0
   38.4390   31.4200   50.1540 C   0  0  0  0  0  0  0  0  0  0  0  0
   38.0820   31.6220   48.8350 C   0  0  0  0  0  0  0  0  0  0  0  0
   37.0020   30.9490   48.3520 N   0  0  0  0  0  0  0  0  0  0  0  0
   36.2830   30.1050   49.1150 C   0  0  0  0  0  0  0  0  0  0  0  0
   36.5780   29.8620   50.4130 N   0  0  0  0  0  0  0  0  0  0  0  0
   37.8780   30.3180   51.9630 H   0  0  0  0  0  0  0  0  0  0  0  0
   39.2770   31.9060   50.6260 H   0  0  0  0  0  0  0  0  0  0  0  0
   38.6570   32.2990   48.2210 H   0  0  0  0  0  0  0  0  0  0  0  0
   31.1600   29.4050   46.1410 C   0  0  0  0  0  0  0  0  0  0  0  0
   30.2880   29.2920   45.4510 H   0  0  0  0  0  0  0  0  0  0  0  0
   31.7750   30.2070   45.6820 H   0  0  0  0  0  0  0  0  0  0  0  0
   30.8440   29.7820   47.1360 H   0  0  0  0  0  0  0  0  0  0  0  0
   31.1420   26.9770   46.7320 C   0  0  0  0  0  0  0  0  0  0  0  0
   31.8680   26.2950   47.2570 H   0  0  0  0  0  0  0  0  0  0  0  0
   30.8070   26.3770   45.8590 H   0  0  0  0  0  0  0  0  0  0  0  0
   28.2650   27.6410   49.8200 C   0  0  0  0  0  0  0  0  0  0  0  0
   29.5560   27.2180   50.0460 C   0  0  0  0  0  0  0  0  0  0  0  0
   30.3980   27.0340   48.9600 C   0  0  0  0  0  0  0  0  0  0  0  0
   30.0320   27.2480   47.6140 C   0  0  0  0  0  0  0  0  0  0  0  0
   28.7480   27.6600   47.5100 C   0  0  0  0  0  0  0  0  0  0  0  0
   27.8550   27.8660   48.5250 C   0  0  0  0  0  0  0  0  0  0  0  0
   27.5330   29.0140   51.8050 H   0  0  0  0  0  0  0  0  0  0  0  0
   27.1080   27.9100   51.1020 S   0  0  0  0  0  0  0  0  0  0  0  0
   27.0090   26.7410   52.0230 O   0  0  0  0  0  0  0  0  0  0  0  0
   25.7950   28.2610   50.4710 O   0  0  0  0  0  0  0  0  0  0  0  0
  1  2  1  6  0  0  0
  1 23  1  0  0  0  0
  1  6  1  0  0  0  0
  3  4  2  0  0  0  0
  3 14  1  0  0  0  0
  4  8  1  0  0  0  0
  5  9  1  0  0  0  0
  5  4  1  0  0  0  0
  6  7  1  0  0  0  0
  6  5  2  0  0  0  0
  7  3  1  0  0  0  0
 10 16  1  0  0  0  0
 11 17  1  0  0  0  0
 11 10  2  0  0  0  0
 12 11  1  0  0  0  0
 13 12  2  0  0  0  0
 13 14  1  0  0  0  0
 14 15  2  0  0  0  0
 15 10  1  0  0  0  0
 18 12  1  0  0  0  0
 19  1  1  0  0  0  0
 19 22  1  0  0  0  0
 20 19  1  0  0  0  0
 21 19  1  0  0  0  0
 23 24  1  0  0  0  0
 23 29  1  0  0  0  0
 25 23  1  0  0  0  0
 26 27  1  0  0  0  0
 26 33  1  0  0  0  0
 28 27  2  0  0  0  0
 29 28  1  0  0  0  0
 30 29  2  0  0  0  0
 30 31  1  0  0  0  0
 31 26  2  0  0  0  0
 33 32  1  0  0  0  0
 33 34  2  0  0  0  0
 35 33  2  0  0  0  0
M  END
>  <minimizedAffinity>
-6.00184822

>  <minimizedRMSD>
1.42950368

$$$$
