
 OpenBabel03252511363D

 28 30  0  0  0  0  0  0  0  0999 V2000
   36.7230   30.6750   46.5040 C   0  0  0  0  0  0  0  0  0  0  0  0
   35.4330   30.1380   46.3790 C   0  0  0  0  0  0  0  0  0  0  0  0
   34.8220   29.8530   45.1870 C   0  0  0  0  0  0  0  0  0  0  0  0
   35.5210   30.1080   44.0250 C   0  0  0  0  0  0  0  0  0  0  0  0
   36.8130   30.6440   44.1230 C   0  0  0  0  0  0  0  0  0  0  0  0
   37.4090   30.9220   45.3500 C   0  0  0  0  0  0  0  0  0  0  0  0
   34.8920   29.9420   47.3170 H   0  0  0  0  0  0  0  0  0  0  0  0
   33.8240   29.4410   45.2280 H   0  0  0  0  0  0  0  0  0  0  0  0
   35.0440   29.8870   43.0990 H   0  0  0  0  0  0  0  0  0  0  0  0
   37.2540   30.7990   43.1550 H   0  0  0  0  0  0  0  0  0  0  0  0
   37.4800   30.3840   50.0660 C   0  0  0  0  0  0  0  0  0  0  0  0
   38.1940   31.5430   50.3300 C   0  0  0  0  0  0  0  0  0  0  0  0
   38.4240   32.4360   49.2680 C   0  0  0  0  0  0  0  0  0  0  0  0
   37.9330   32.1020   48.0610 N   0  0  0  0  0  0  0  0  0  0  0  0
   37.2380   30.9600   47.8260 C   0  0  0  0  0  0  0  0  0  0  0  0
   37.0260   30.1190   48.8490 N   0  0  0  0  0  0  0  0  0  0  0  0
   38.5860   31.8160   51.2850 H   0  0  0  0  0  0  0  0  0  0  0  0
   38.9750   33.3590   49.4090 H   0  0  0  0  0  0  0  0  0  0  0  0
   37.2310   29.4410   51.2200 C   0  0  0  0  0  0  0  0  0  0  0  0
   35.8600   29.2060   51.3220 F   0  0  0  0  0  0  0  0  0  0  0  0
   37.9290   28.3070   51.0030 F   0  0  0  0  0  0  0  0  0  0  0  0
   37.6300   30.0740   52.3820 F   0  0  0  0  0  0  0  0  0  0  0  0
   38.7680   31.4470   45.3160 C   0  0  0  0  0  0  0  0  0  0  0  0
   39.8200   30.6370   45.5140 N   0  0  0  0  0  0  0  0  0  0  0  0
   40.9510   31.2740   45.4660 O   0  0  0  0  0  0  0  0  0  0  0  0
   40.6940   32.5360   45.2320 C   0  0  0  0  0  0  0  0  0  0  0  0
   41.3450   33.3700   45.1230 H   0  0  0  0  0  0  0  0  0  0  0  0
   39.3890   32.6080   45.1480 N   0  0  0  0  0  0  0  0  0  0  0  0
  1 15  1  0  0  0  0
  2  1  1  0  0  0  0
  2  7  1  0  0  0  0
  3  8  1  0  0  0  0
  3  2  2  0  0  0  0
  4  5  2  0  0  0  0
  4  3  1  0  0  0  0
  5  6  1  0  0  0  0
  6  1  2  0  0  0  0
  9  4  1  0  0  0  0
 10  5  1  0  0  0  0
 11 12  1  0  0  0  0
 11 19  1  0  0  0  0
 12 17  1  0  0  0  0
 13 18  1  0  0  0  0
 13 12  2  0  0  0  0
 14 13  1  0  0  0  0
 15 14  2  0  0  0  0
 15 16  1  0  0  0  0
 16 11  2  0  0  0  0
 19 20  1  0  0  0  0
 19 22  1  0  0  0  0
 21 19  1  0  0  0  0
 23  6  1  0  0  0  0
 23 24  2  0  0  0  0
 25 24  1  0  0  0  0
 26 25  1  0  0  0  0
 27 26  1  0  0  0  0
 28 26  2  0  0  0  0
 28 23  1  0  0  0  0
M  END
>  <minimizedAffinity>
-6.50386143

>  <minimizedRMSD>
0.462459356

$$$$
