
 OpenBabel03252513343D

 18 19  0  0  0  0  0  0  0  0999 V2000
   36.9440   30.0450   49.9730 C   0  0  0  0  0  0  0  0  0  0  0  0
   37.8590   31.0830   49.7410 C   0  0  0  0  0  0  0  0  0  0  0  0
   37.8790   31.6600   48.4660 C   0  0  0  0  0  0  0  0  0  0  0  0
   37.0130   31.1810   47.5310 N   0  0  0  0  0  0  0  0  0  0  0  0
   36.1490   30.1790   47.7980 C   0  0  0  0  0  0  0  0  0  0  0  0
   36.1220   29.6230   49.0080 N   0  0  0  0  0  0  0  0  0  0  0  0
   38.5190   31.4280   50.4990 H   0  0  0  0  0  0  0  0  0  0  0  0
   35.5090   29.8800   46.9800 H   0  0  0  0  0  0  0  0  0  0  0  0
   38.8150   32.7410   48.1860 C   0  0  0  0  0  0  0  0  0  0  0  0
   39.4490   32.8020   46.9840 N   0  0  0  0  0  0  0  0  0  0  0  0
   40.2260   33.8330   46.9550 O   0  0  0  0  0  0  0  0  0  0  0  0
   40.1510   34.4950   48.1060 C   0  0  0  0  0  0  0  0  0  0  0  0
   40.6590   35.4030   48.4400 H   0  0  0  0  0  0  0  0  0  0  0  0
   39.2720   33.8210   48.8830 N   0  0  0  0  0  0  0  0  0  0  0  0
   36.9100   29.4150   51.3340 C   0  0  0  0  0  0  0  0  0  0  0  0
   35.5980   29.0970   51.6680 F   0  0  0  0  0  0  0  0  0  0  0  0
   37.7520   28.3570   51.3420 F   0  0  0  0  0  0  0  0  0  0  0  0
   37.3370   30.3880   52.2480 F   0  0  0  0  0  0  0  0  0  0  0  0
  1 15  1  0  0  0  0
  2  1  1  0  0  0  0
  2  7  1  0  0  0  0
  3  2  2  0  0  0  0
  4  5  2  0  0  0  0
  4  3  1  0  0  0  0
  5  6  1  0  0  0  0
  6  1  2  0  0  0  0
  8  5  1  0  0  0  0
  9  3  1  0  0  0  0
  9 14  1  0  0  0  0
 10  9  2  0  0  0  0
 11 10  1  0  0  0  0
 11 12  1  0  0  0  0
 12 13  1  0  0  0  0
 12 14  2  0  0  0  0
 15 17  1  0  0  0  0
 15 16  1  0  0  0  0
 15 18  1  0  0  0  0
M  END
>  <minimizedAffinity>
-5.20279646

>  <minimizedRMSD>
1.15523696

$$$$
