
 OpenBabel03252514043D

 35 38  0  0  1  0  0  0  0  0999 V2000
   35.2720   29.2500   48.6860 C   0  0  2  0  0  0  0  0  0  0  0  0
   34.0890   29.3120   49.5390 C   0  0  0  0  0  0  0  0  0  0  0  0
   34.4540   27.9900   49.1210 C   0  0  1  0  0  0  0  0  0  0  0  0
   35.2720   29.4580   47.6120 H   0  0  0  0  0  0  0  0  0  0  0  0
   33.2000   29.8590   49.1320 H   0  0  0  0  0  0  0  0  0  0  0  0
   34.2400   29.6080   50.6200 H   0  0  0  0  0  0  0  0  0  0  0  0
   35.0640   27.2570   49.6590 H   0  0  0  0  0  0  0  0  0  0  0  0
   36.6290   29.2720   49.4140 C   0  0  0  0  0  0  0  0  0  0  0  0
   36.4690   29.1680   50.5060 H   0  0  0  0  0  0  0  0  0  0  0  0
   37.2710   28.4350   49.0920 H   0  0  0  0  0  0  0  0  0  0  0  0
   37.7110   32.7570   49.5510 C   0  0  0  0  0  0  0  0  0  0  0  0
   38.5530   32.8630   48.4220 C   0  0  0  0  0  0  0  0  0  0  0  0
   38.7330   31.7100   47.6240 C   0  0  0  0  0  0  0  0  0  0  0  0
   38.0790   30.5630   47.9970 N   0  0  0  0  0  0  0  0  0  0  0  0
   37.2950   30.5200   49.0770 C   0  0  0  0  0  0  0  0  0  0  0  0
   37.1180   31.6280   49.8480 N   0  0  0  0  0  0  0  0  0  0  0  0
   37.6070   33.6670   50.1270 H   0  0  0  0  0  0  0  0  0  0  0  0
   39.0310   33.8050   48.1990 H   0  0  0  0  0  0  0  0  0  0  0  0
   39.3720   31.7730   46.7580 H   0  0  0  0  0  0  0  0  0  0  0  0
   33.5710   27.3800   48.0580 C   0  0  0  0  0  0  0  0  0  0  0  0
   33.8380   26.1460   47.7950 O   0  0  0  0  0  0  0  0  0  0  0  0
   32.5480   27.9870   47.3760 O   0  0  0  0  0  0  0  0  0  0  0  0
   31.2690   28.1180   47.8230 C   0  0  0  0  0  0  0  0  0  0  0  0
   30.7960   27.6690   49.1390 C   0  0  0  0  0  0  0  0  0  0  0  0
   29.5100   27.8390   49.5140 C   0  0  0  0  0  0  0  0  0  0  0  0
   28.6090   28.4610   48.6170 C   0  0  0  0  0  0  0  0  0  0  0  0
   29.6800   28.8370   47.1110 S   0  0  0  0  0  0  0  0  0  0  0  0
   31.5200   27.1970   49.7880 H   0  0  0  0  0  0  0  0  0  0  0  0
   29.1030   27.5340   50.4590 H   0  0  0  0  0  0  0  0  0  0  0  0
   27.2230   28.7570   48.7670 C   0  0  0  0  0  0  0  0  0  0  0  0
   26.1820   27.9020   48.7870 N   0  0  0  0  0  0  0  0  0  0  0  0
   25.0800   28.5900   48.9440 O   0  0  0  0  0  0  0  0  0  0  0  0
   25.3500   29.8720   49.0310 C   0  0  0  0  0  0  0  0  0  0  0  0
   24.4380   30.4490   49.1620 H   0  0  0  0  0  0  0  0  0  0  0  0
   26.6870   29.9840   48.9200 N   0  0  0  0  0  0  0  0  0  0  0  0
  1  4  1  6  0  0  0
  1  3  1  0  0  0  0
  1  8  1  0  0  0  0
  1  2  1  0  0  0  0
  2  6  1  0  0  0  0
  3  2  1  0  0  0  0
  3  7  1  1  0  0  0
  5  2  1  0  0  0  0
  8  9  1  0  0  0  0
 10  8  1  0  0  0  0
 11 16  1  0  0  0  0
 11 17  1  0  0  0  0
 12 11  2  0  0  0  0
 13 14  2  0  0  0  0
 13 12  1  0  0  0  0
 14 15  1  0  0  0  0
 15  8  1  0  0  0  0
 15 16  2  0  0  0  0
 18 12  1  0  0  0  0
 19 13  1  0  0  0  0
 20  3  1  0  0  0  0
 21 20  2  0  0  0  0
 22 23  1  0  0  0  0
 22 20  1  0  0  0  0
 23 24  2  0  0  0  0
 24 25  1  0  0  0  0
 24 28  1  0  0  0  0
 25 29  1  0  0  0  0
 26 30  1  0  0  0  0
 26 25  2  0  0  0  0
 27 23  1  0  0  0  0
 27 26  1  0  0  0  0
 30 31  2  0  0  0  0
 30 35  1  0  0  0  0
 31 32  1  0  0  0  0
 32 33  1  0  0  0  0
 33 34  1  0  0  0  0
 35 33  2  0  0  0  0
M  END
>  <minimizedAffinity>
-6.17399979

>  <minimizedRMSD>
1.43241477

$$$$
