
 OpenBabel03252514043D

 35 38  0  0  1  0  0  0  0  0999 V2000
   35.3370   29.4370   48.9870 C   0  0  2  0  0  0  0  0  0  0  0  0
   34.2670   29.4480   49.9800 C   0  0  0  0  0  0  0  0  0  0  0  0
   34.5020   28.1700   49.3720 C   0  0  1  0  0  0  0  0  0  0  0  0
   35.2230   29.7740   47.9520 H   0  0  0  0  0  0  0  0  0  0  0  0
   33.3690   30.0780   49.7500 H   0  0  0  0  0  0  0  0  0  0  0  0
   34.5590   29.6030   51.0610 H   0  0  0  0  0  0  0  0  0  0  0  0
   35.1270   27.3510   49.7430 H   0  0  0  0  0  0  0  0  0  0  0  0
   36.7680   29.3110   49.5410 C   0  0  0  0  0  0  0  0  0  0  0  0
   36.7390   29.2820   50.6490 H   0  0  0  0  0  0  0  0  0  0  0  0
   37.2500   28.3810   49.1980 H   0  0  0  0  0  0  0  0  0  0  0  0
   38.3580   32.5930   49.3540 C   0  0  0  0  0  0  0  0  0  0  0  0
   38.9880   32.5590   48.0910 C   0  0  0  0  0  0  0  0  0  0  0  0
   38.8500   31.3830   47.3170 C   0  0  0  0  0  0  0  0  0  0  0  0
   38.1120   30.3520   47.8430 N   0  0  0  0  0  0  0  0  0  0  0  0
   37.5380   30.4400   49.0450 C   0  0  0  0  0  0  0  0  0  0  0  0
   37.6680   31.5700   49.7940 N   0  0  0  0  0  0  0  0  0  0  0  0
   38.4940   33.5140   49.9050 H   0  0  0  0  0  0  0  0  0  0  0  0
   39.5510   33.4150   47.7520 H   0  0  0  0  0  0  0  0  0  0  0  0
   39.3240   31.3400   46.3510 H   0  0  0  0  0  0  0  0  0  0  0  0
   33.4680   27.7340   48.3620 C   0  0  0  0  0  0  0  0  0  0  0  0
   33.6670   26.5540   47.8790 O   0  0  0  0  0  0  0  0  0  0  0  0
   32.3750   28.4400   47.9300 O   0  0  0  0  0  0  0  0  0  0  0  0
   31.0960   28.2590   48.3590 C   0  0  0  0  0  0  0  0  0  0  0  0
   30.6580   28.4010   49.7540 C   0  0  0  0  0  0  0  0  0  0  0  0
   29.3670   28.2100   50.1030 C   0  0  0  0  0  0  0  0  0  0  0  0
   28.4280   27.8660   49.1010 C   0  0  0  0  0  0  0  0  0  0  0  0
   29.4670   27.8090   47.5280 S   0  0  0  0  0  0  0  0  0  0  0  0
   31.4110   28.6630   50.4830 H   0  0  0  0  0  0  0  0  0  0  0  0
   28.9840   28.2990   51.1010 H   0  0  0  0  0  0  0  0  0  0  0  0
   27.0290   27.6150   49.2030 C   0  0  0  0  0  0  0  0  0  0  0  0
   26.3770   26.8690   50.1150 N   0  0  0  0  0  0  0  0  0  0  0  0
   25.0960   26.9040   49.8440 O   0  0  0  0  0  0  0  0  0  0  0  0
   24.8740   27.6480   48.7850 C   0  0  0  0  0  0  0  0  0  0  0  0
   23.8120   27.6810   48.5550 H   0  0  0  0  0  0  0  0  0  0  0  0
   26.0770   28.0950   48.3790 N   0  0  0  0  0  0  0  0  0  0  0  0
  1  4  1  6  0  0  0
  1  3  1  0  0  0  0
  1  8  1  0  0  0  0
  1  2  1  0  0  0  0
  2  6  1  0  0  0  0
  3  7  1  1  0  0  0
  3  2  1  0  0  0  0
  5  2  1  0  0  0  0
  8  9  1  0  0  0  0
 10  8  1  0  0  0  0
 11 16  1  0  0  0  0
 11 17  1  0  0  0  0
 12 11  2  0  0  0  0
 13 14  2  0  0  0  0
 13 12  1  0  0  0  0
 14 15  1  0  0  0  0
 15  8  1  0  0  0  0
 15 16  2  0  0  0  0
 18 12  1  0  0  0  0
 19 13  1  0  0  0  0
 20  3  1  0  0  0  0
 21 20  2  0  0  0  0
 22 23  1  0  0  0  0
 22 20  1  0  0  0  0
 23 24  2  0  0  0  0
 24 25  1  0  0  0  0
 24 28  1  0  0  0  0
 25 29  1  0  0  0  0
 26 30  1  0  0  0  0
 26 25  2  0  0  0  0
 27 23  1  0  0  0  0
 27 26  1  0  0  0  0
 30 31  2  0  0  0  0
 32 31  1  0  0  0  0
 33 32  1  0  0  0  0
 34 33  1  0  0  0  0
 35 33  2  0  0  0  0
 35 30  1  0  0  0  0
M  END
>  <minimizedAffinity>
-1.50098085

>  <minimizedRMSD>
0.719420731

$$$$
