
 OpenBabel03252512033D

 29 31  0  0  0  0  0  0  0  0999 V2000
   38.0350   32.0490   47.4280 C   0  0  0  0  0  0  0  0  0  0  0  0
   38.5890   32.8490   48.0270 H   0  0  0  0  0  0  0  0  0  0  0  0
   37.0300   32.4040   47.3620 H   0  0  0  0  0  0  0  0  0  0  0  0
   38.7920   31.9920   46.1300 C   0  0  0  0  0  0  0  0  0  0  0  0
   40.0340   31.4290   46.0600 C   0  0  0  0  0  0  0  0  0  0  0  0
   40.7630   31.3840   44.8870 C   0  0  0  0  0  0  0  0  0  0  0  0
   40.1830   31.9270   43.7900 N   0  0  0  0  0  0  0  0  0  0  0  0
   38.9680   32.4810   43.8380 C   0  0  0  0  0  0  0  0  0  0  0  0
   38.2730   32.5170   44.9920 N   0  0  0  0  0  0  0  0  0  0  0  0
   40.5050   30.9930   46.9310 H   0  0  0  0  0  0  0  0  0  0  0  0
   41.7390   30.9330   44.8690 H   0  0  0  0  0  0  0  0  0  0  0  0
   38.3640   33.0620   42.6410 C   0  0  0  0  0  0  0  0  0  0  0  0
   38.9710   33.7040   41.6270 N   0  0  0  0  0  0  0  0  0  0  0  0
   38.0850   34.0770   40.7360 O   0  0  0  0  0  0  0  0  0  0  0  0
   36.8780   33.6930   41.1350 C   0  0  0  0  0  0  0  0  0  0  0  0
   35.9620   33.8850   40.5670 H   0  0  0  0  0  0  0  0  0  0  0  0
   37.0580   33.0650   42.3180 N   0  0  0  0  0  0  0  0  0  0  0  0
   38.3000   30.7370   48.1110 C   0  0  0  0  0  0  0  0  0  0  0  0
   38.5230   29.9010   47.3830 H   0  0  0  0  0  0  0  0  0  0  0  0
   39.2540   30.7870   48.7220 H   0  0  0  0  0  0  0  0  0  0  0  0
   37.4040   29.6980   50.1590 C   0  0  0  0  0  0  0  0  0  0  0  0
   37.1940   30.3200   48.9090 C   0  0  0  0  0  0  0  0  0  0  0  0
   35.8920   30.5020   48.4980 C   0  0  0  0  0  0  0  0  0  0  0  0
   34.8630   30.0820   49.3000 N   0  0  0  0  0  0  0  0  0  0  0  0
   35.0890   29.5000   50.4720 C   0  0  0  0  0  0  0  0  0  0  0  0
   36.3430   29.3130   50.8910 N   0  0  0  0  0  0  0  0  0  0  0  0
   38.4350   29.5670   50.4570 H   0  0  0  0  0  0  0  0  0  0  0  0
   35.4930   30.9330   47.6000 H   0  0  0  0  0  0  0  0  0  0  0  0
   34.3040   29.1540   51.1350 H   0  0  0  0  0  0  0  0  0  0  0  0
  1  2  1  0  0  0  0
  1 18  1  0  0  0  0
  3  1  1  0  0  0  0
  4  1  1  0  0  0  0
  5  4  1  0  0  0  0
  5 10  1  0  0  0  0
  6  5  2  0  0  0  0
  7  8  2  0  0  0  0
  7  6  1  0  0  0  0
  8  9  1  0  0  0  0
  9  4  2  0  0  0  0
 11  6  1  0  0  0  0
 12  8  1  0  0  0  0
 13 12  2  0  0  0  0
 14 15  1  0  0  0  0
 14 13  1  0  0  0  0
 15 17  2  0  0  0  0
 16 15  1  0  0  0  0
 17 12  1  0  0  0  0
 18 20  1  0  0  0  0
 18 22  1  0  0  0  0
 19 18  1  0  0  0  0
 21 27  1  0  0  0  0
 21 26  1  0  0  0  0
 22 21  2  0  0  0  0
 23 22  1  0  0  0  0
 23 24  2  0  0  0  0
 24 25  1  0  0  0  0
 25 26  2  0  0  0  0
 25 29  1  0  0  0  0
 28 23  1  0  0  0  0
M  END
>  <minimizedAffinity>
-5.10590982

>  <minimizedRMSD>
3.02430606

$$$$
