
 OpenBabel03252514043D

 35 38  0  0  1  0  0  0  0  0999 V2000
   35.2690   29.2520   48.6970 C   0  0  2  0  0  0  0  0  0  0  0  0
   34.0890   29.3000   49.5560 C   0  0  0  0  0  0  0  0  0  0  0  0
   34.4570   27.9830   49.1240 C   0  0  1  0  0  0  0  0  0  0  0  0
   35.2630   29.4710   47.6250 H   0  0  0  0  0  0  0  0  0  0  0  0
   33.1960   29.8470   49.1580 H   0  0  0  0  0  0  0  0  0  0  0  0
   34.2440   29.5860   50.6390 H   0  0  0  0  0  0  0  0  0  0  0  0
   35.0740   27.2480   49.6520 H   0  0  0  0  0  0  0  0  0  0  0  0
   36.6290   29.2730   49.4190 C   0  0  0  0  0  0  0  0  0  0  0  0
   36.4730   29.1690   50.5120 H   0  0  0  0  0  0  0  0  0  0  0  0
   37.2680   28.4350   49.0950 H   0  0  0  0  0  0  0  0  0  0  0  0
   37.7110   32.7580   49.5480 C   0  0  0  0  0  0  0  0  0  0  0  0
   38.5520   32.8620   48.4180 C   0  0  0  0  0  0  0  0  0  0  0  0
   38.7310   31.7070   47.6220 C   0  0  0  0  0  0  0  0  0  0  0  0
   38.0770   30.5600   47.9990 N   0  0  0  0  0  0  0  0  0  0  0  0
   37.2940   30.5200   49.0790 C   0  0  0  0  0  0  0  0  0  0  0  0
   37.1180   31.6300   49.8480 N   0  0  0  0  0  0  0  0  0  0  0  0
   37.6070   33.6690   50.1220 H   0  0  0  0  0  0  0  0  0  0  0  0
   39.0290   33.8030   48.1930 H   0  0  0  0  0  0  0  0  0  0  0  0
   39.3690   31.7680   46.7560 H   0  0  0  0  0  0  0  0  0  0  0  0
   33.5730   27.3810   48.0580 C   0  0  0  0  0  0  0  0  0  0  0  0
   33.8360   26.1470   47.7900 O   0  0  0  0  0  0  0  0  0  0  0  0
   32.5510   27.9930   47.3790 O   0  0  0  0  0  0  0  0  0  0  0  0
   31.2710   28.1220   47.8250 C   0  0  0  0  0  0  0  0  0  0  0  0
   30.7970   27.6670   49.1390 C   0  0  0  0  0  0  0  0  0  0  0  0
   29.5110   27.8360   49.5130 C   0  0  0  0  0  0  0  0  0  0  0  0
   28.6110   28.4610   48.6180 C   0  0  0  0  0  0  0  0  0  0  0  0
   29.6830   28.8430   47.1140 S   0  0  0  0  0  0  0  0  0  0  0  0
   31.5210   27.1940   49.7870 H   0  0  0  0  0  0  0  0  0  0  0  0
   29.1030   27.5280   50.4560 H   0  0  0  0  0  0  0  0  0  0  0  0
   27.2240   28.7560   48.7670 C   0  0  0  0  0  0  0  0  0  0  0  0
   26.1840   27.9000   48.7890 N   0  0  0  0  0  0  0  0  0  0  0  0
   25.0810   28.5880   48.9450 O   0  0  0  0  0  0  0  0  0  0  0  0
   25.3510   29.8700   49.0280 C   0  0  0  0  0  0  0  0  0  0  0  0
   24.4380   30.4460   49.1580 H   0  0  0  0  0  0  0  0  0  0  0  0
   26.6870   29.9830   48.9180 N   0  0  0  0  0  0  0  0  0  0  0  0
  1  4  1  6  0  0  0
  1  3  1  0  0  0  0
  1  8  1  0  0  0  0
  1  2  1  0  0  0  0
  2  6  1  0  0  0  0
  3  2  1  0  0  0  0
  3  7  1  1  0  0  0
  5  2  1  0  0  0  0
  8  9  1  0  0  0  0
 10  8  1  0  0  0  0
 11 16  1  0  0  0  0
 11 17  1  0  0  0  0
 12 11  2  0  0  0  0
 13 14  2  0  0  0  0
 13 12  1  0  0  0  0
 14 15  1  0  0  0  0
 15  8  1  0  0  0  0
 15 16  2  0  0  0  0
 18 12  1  0  0  0  0
 19 13  1  0  0  0  0
 20  3  1  0  0  0  0
 21 20  2  0  0  0  0
 22 23  1  0  0  0  0
 22 20  1  0  0  0  0
 23 24  2  0  0  0  0
 24 25  1  0  0  0  0
 24 28  1  0  0  0  0
 25 29  1  0  0  0  0
 26 30  1  0  0  0  0
 26 25  2  0  0  0  0
 27 23  1  0  0  0  0
 27 26  1  0  0  0  0
 30 31  2  0  0  0  0
 30 35  1  0  0  0  0
 31 32  1  0  0  0  0
 32 33  1  0  0  0  0
 33 34  1  0  0  0  0
 35 33  2  0  0  0  0
M  END
>  <minimizedAffinity>
-6.17511034

>  <minimizedRMSD>
1.43324351

$$$$
