
 OpenBabel03252511263D

 31 34  0  0  0  0  0  0  0  0999 V2000
   35.6090   29.5040   49.4170 C   0  0  0  0  0  0  0  0  0  0  0  0
   35.6600   29.1670   50.7810 C   0  0  0  0  0  0  0  0  0  0  0  0
   36.6130   29.6370   51.6450 C   0  0  0  0  0  0  0  0  0  0  0  0
   37.5840   30.4810   51.2010 C   0  0  0  0  0  0  0  0  0  0  0  0
   37.5920   30.8480   49.8920 C   0  0  0  0  0  0  0  0  0  0  0  0
   38.5930   31.7050   49.4830 C   0  0  0  0  0  0  0  0  0  0  0  0
   38.6660   32.1170   48.1870 C   0  0  0  0  0  0  0  0  0  0  0  0
   37.7000   31.6430   47.3000 C   0  0  0  0  0  0  0  0  0  0  0  0
   36.7280   30.7920   47.7650 C   0  0  0  0  0  0  0  0  0  0  0  0
   36.6170   30.3570   49.0420 C   0  0  0  0  0  0  0  0  0  0  0  0
   34.9040   28.4960   51.1750 H   0  0  0  0  0  0  0  0  0  0  0  0
   36.6010   29.3400   52.6920 H   0  0  0  0  0  0  0  0  0  0  0  0
   38.3180   30.8300   51.9160 H   0  0  0  0  0  0  0  0  0  0  0  0
   39.3330   32.0660   50.1750 H   0  0  0  0  0  0  0  0  0  0  0  0
   39.4540   32.7880   47.8830 H   0  0  0  0  0  0  0  0  0  0  0  0
   37.7620   31.9730   46.2720 H   0  0  0  0  0  0  0  0  0  0  0  0
   35.9890   30.4450   47.0250 H   0  0  0  0  0  0  0  0  0  0  0  0
   33.6090   26.9520   47.8610 C   0  0  0  0  0  0  0  0  0  0  0  0
   32.7670   27.5780   46.9540 C   0  0  0  0  0  0  0  0  0  0  0  0
   32.8880   28.9500   46.8680 C   0  0  0  0  0  0  0  0  0  0  0  0
   33.7850   29.5610   47.6460 N   0  0  0  0  0  0  0  0  0  0  0  0
   34.5950   29.0000   48.5110 C   0  0  0  0  0  0  0  0  0  0  0  0
   34.4620   27.6720   48.5790 N   0  0  0  0  0  0  0  0  0  0  0  0
   33.5090   25.8710   47.9250 H   0  0  0  0  0  0  0  0  0  0  0  0
   32.0350   27.1180   46.3150 H   0  0  0  0  0  0  0  0  0  0  0  0
   32.0960   29.7980   45.9770 C   0  0  0  0  0  0  0  0  0  0  0  0
   31.0490   29.5360   45.1620 N   0  0  0  0  0  0  0  0  0  0  0  0
   30.6750   30.6280   44.5600 O   0  0  0  0  0  0  0  0  0  0  0  0
   31.4390   31.6310   44.9420 C   0  0  0  0  0  0  0  0  0  0  0  0
   31.4050   32.6850   44.6370 H   0  0  0  0  0  0  0  0  0  0  0  0
   32.3370   31.1330   45.8310 N   0  0  0  0  0  0  0  0  0  0  0  0
  1  2  1  0  0  0  0
  2 11  1  0  0  0  0
  2  3  2  0  0  0  0
  3 12  1  0  0  0  0
  4  3  1  0  0  0  0
  4 13  1  0  0  0  0
  5  4  2  0  0  0  0
  6  5  1  0  0  0  0
  6 14  1  0  0  0  0
  7  6  2  0  0  0  0
  8  9  2  0  0  0  0
  8  7  1  0  0  0  0
  9 10  1  0  0  0  0
 10  1  2  0  0  0  0
 10  5  1  0  0  0  0
 15  7  1  0  0  0  0
 16  8  1  0  0  0  0
 17  9  1  0  0  0  0
 18 24  1  0  0  0  0
 18 23  1  0  0  0  0
 19 18  2  0  0  0  0
 20 19  1  0  0  0  0
 20 21  2  0  0  0  0
 21 22  1  0  0  0  0
 22 23  2  0  0  0  0
 22  1  1  0  0  0  0
 25 19  1  0  0  0  0
 26 20  1  0  0  0  0
 27 26  2  0  0  0  0
 28 29  1  0  0  0  0
 28 27  1  0  0  0  0
 29 31  2  0  0  0  0
 30 29  1  0  0  0  0
 31 26  1  0  0  0  0
M  END
>  <minimizedAffinity>
-6.664855

>  <minimizedRMSD>
0.397521615

$$$$
