
 OpenBabel03252513483D

 22 23  0  0  0  0  0  0  0  0999 V2000
   38.8190   31.2150   46.1330 C   0  0  0  0  0  0  0  0  0  0  0  0
   37.5560   30.5560   45.9960 C   0  0  0  0  0  0  0  0  0  0  0  0
   36.6650   30.6750   47.0470 C   0  0  0  0  0  0  0  0  0  0  0  0
   37.0250   31.3960   48.1320 N   0  0  0  0  0  0  0  0  0  0  0  0
   38.2250   32.0040   48.2270 C   0  0  0  0  0  0  0  0  0  0  0  0
   39.1060   31.9120   47.2380 N   0  0  0  0  0  0  0  0  0  0  0  0
   37.2870   29.9820   45.1170 H   0  0  0  0  0  0  0  0  0  0  0  0
   35.3580   30.0480   47.0100 C   0  0  0  0  0  0  0  0  0  0  0  0
   34.6520   29.6940   48.0770 N   0  0  0  0  0  0  0  0  0  0  0  0
   33.5350   29.1610   47.6950 O   0  0  0  0  0  0  0  0  0  0  0  0
   33.4990   29.1610   46.3980 C   0  0  0  0  0  0  0  0  0  0  0  0
   32.6950   28.7830   45.7700 H   0  0  0  0  0  0  0  0  0  0  0  0
   34.6490   29.7200   45.9390 N   0  0  0  0  0  0  0  0  0  0  0  0
   38.4710   32.7620   49.4870 C   0  0  0  0  0  0  0  0  0  0  0  0
   37.2760   33.3220   49.9420 F   0  0  0  0  0  0  0  0  0  0  0  0
   38.8830   31.8970   50.4690 F   0  0  0  0  0  0  0  0  0  0  0  0
   39.4500   33.7300   49.3380 F   0  0  0  0  0  0  0  0  0  0  0  0
   39.7200   31.0990   45.0820 O   0  0  0  0  0  0  0  0  0  0  0  0
   40.1500   32.1690   44.2890 C   0  0  0  0  0  0  0  0  0  0  0  0
   40.5360   31.7790   43.0260 F   0  0  0  0  0  0  0  0  0  0  0  0
   39.2760   33.2240   44.2230 F   0  0  0  0  0  0  0  0  0  0  0  0
   41.3000   32.6580   44.9110 F   0  0  0  0  0  0  0  0  0  0  0  0
  1  6  1  0  0  0  0
  2  1  2  0  0  0  0
  2  3  1  0  0  0  0
  3  4  2  0  0  0  0
  4  5  1  0  0  0  0
  5 14  1  0  0  0  0
  6  5  2  0  0  0  0
  7  2  1  0  0  0  0
  8  3  1  0  0  0  0
  8  9  2  0  0  0  0
 10  9  1  0  0  0  0
 11 10  1  0  0  0  0
 12 11  1  0  0  0  0
 13 11  2  0  0  0  0
 13  8  1  0  0  0  0
 14 15  1  0  0  0  0
 14 16  1  0  0  0  0
 17 14  1  0  0  0  0
 18  1  1  0  0  0  0
 19 22  1  0  0  0  0
 19 18  1  0  0  0  0
 20 19  1  0  0  0  0
 21 19  1  0  0  0  0
M  END
>  <minimizedAffinity>
-5.66317987

>  <minimizedRMSD>
6.38100576

$$$$
