
 OpenBabel03252513383D

 26 27  0  0  0  0  0  0  0  0999 V2000
   36.9180   29.9310   49.8800 C   0  0  0  0  0  0  0  0  0  0  0  0
   37.9970   30.6770   49.4430 C   0  0  0  0  0  0  0  0  0  0  0  0
   37.9980   31.1470   48.1320 C   0  0  0  0  0  0  0  0  0  0  0  0
   36.9400   30.8440   47.3620 N   0  0  0  0  0  0  0  0  0  0  0  0
   35.8910   30.1040   47.8230 C   0  0  0  0  0  0  0  0  0  0  0  0
   35.9010   29.6610   49.0780 N   0  0  0  0  0  0  0  0  0  0  0  0
   39.0620   31.9080   47.6340 N   0  0  0  0  0  0  0  0  0  0  0  0
   38.9790   32.6130   46.4170 C   0  0  0  0  0  0  0  0  0  0  0  0
   37.9550   32.3990   45.6720 N   0  0  0  0  0  0  0  0  0  0  0  0
   39.9930   33.5210   46.0400 N   0  0  0  0  0  0  0  0  0  0  0  0
   37.8280   33.0020   44.8130 H   0  0  0  0  0  0  0  0  0  0  0  0
   38.8260   30.9000   50.0860 H   0  0  0  0  0  0  0  0  0  0  0  0
   39.9680   31.9610   48.1880 H   0  0  0  0  0  0  0  0  0  0  0  0
   39.6670   34.5080   45.9460 H   0  0  0  0  0  0  0  0  0  0  0  0
   40.9910   33.2620   45.8630 H   0  0  0  0  0  0  0  0  0  0  0  0
   34.7600   29.8040   46.9360 C   0  0  0  0  0  0  0  0  0  0  0  0
   34.9120   29.9920   45.5670 C   0  0  0  0  0  0  0  0  0  0  0  0
   33.8560   29.7110   44.7410 C   0  0  0  0  0  0  0  0  0  0  0  0
   33.9270   29.8440   43.6530 H   0  0  0  0  0  0  0  0  0  0  0  0
   32.6700   29.2530   45.2260 N   0  0  0  0  0  0  0  0  0  0  0  0
   32.5650   29.0830   46.5750 C   0  0  0  0  0  0  0  0  0  0  0  0
   33.5980   29.3560   47.4080 N   0  0  0  0  0  0  0  0  0  0  0  0
   36.9260   29.4260   51.3020 C   0  0  0  0  0  0  0  0  0  0  0  0
   35.6180   29.1490   51.6980 F   0  0  0  0  0  0  0  0  0  0  0  0
   37.7870   28.3970   51.4090 F   0  0  0  0  0  0  0  0  0  0  0  0
   37.3550   30.4940   52.1080 F   0  0  0  0  0  0  0  0  0  0  0  0
  1 23  1  0  0  0  0
  2  1  1  0  0  0  0
  2 12  1  0  0  0  0
  3  2  2  0  0  0  0
  4  5  2  0  0  0  0
  4  3  1  0  0  0  0
  5  6  1  0  0  0  0
  6  1  2  0  0  0  0
  7  3  1  0  0  0  0
  7 13  1  0  0  0  0
  8  7  1  0  0  0  0
  9  8  2  0  0  0  0
 10  8  1  0  0  0  0
 11  9  1  0  0  0  0
 14 10  1  0  0  0  0
 15 10  1  0  0  0  0
 16 22  1  0  0  0  0
 16  5  1  0  0  0  0
 17 16  2  0  0  0  0
 18 20  2  0  0  0  0
 18 17  1  0  0  0  0
 19 18  1  0  0  0  0
 20 21  1  0  0  0  0
 21 22  2  0  0  0  0
 23 25  1  0  0  0  0
 23 24  1  0  0  0  0
 23 26  1  0  0  0  0
M  END
>  <minimizedAffinity>
-6.58990049

>  <minimizedRMSD>
0.203894466

$$$$
