
 OpenBabel03252514053D

 36 39  0  0  1  0  0  0  0  0999 V2000
   35.3440   29.4460   48.9960 C   0  0  2  0  0  0  0  0  0  0  0  0
   34.3370   29.5030   50.0510 C   0  0  0  0  0  0  0  0  0  0  0  0
   34.4830   28.2160   49.4380 C   0  0  1  0  0  0  0  0  0  0  0  0
   35.2230   29.7430   47.9570 H   0  0  0  0  0  0  0  0  0  0  0  0
   33.4160   30.1170   49.9100 H   0  0  0  0  0  0  0  0  0  0  0  0
   34.7160   29.6380   51.1070 H   0  0  0  0  0  0  0  0  0  0  0  0
   35.0910   27.3780   49.7860 H   0  0  0  0  0  0  0  0  0  0  0  0
   36.8000   29.2660   49.4610 C   0  0  0  0  0  0  0  0  0  0  0  0
   37.1430   28.2710   49.0760 H   0  0  0  0  0  0  0  0  0  0  0  0
   36.8780   29.2810   50.5710 H   0  0  0  0  0  0  0  0  0  0  0  0
   38.5080   32.4810   49.1650 C   0  0  0  0  0  0  0  0  0  0  0  0
   39.0580   32.4190   47.8650 C   0  0  0  0  0  0  0  0  0  0  0  0
   38.8230   31.2460   47.1080 C   0  0  0  0  0  0  0  0  0  0  0  0
   38.0800   30.2470   47.6740 N   0  0  0  0  0  0  0  0  0  0  0  0
   37.5820   30.3650   48.9180 C   0  0  0  0  0  0  0  0  0  0  0  0
   37.8020   31.4820   49.6500 N   0  0  0  0  0  0  0  0  0  0  0  0
   38.6480   33.3480   49.8000 H   0  0  0  0  0  0  0  0  0  0  0  0
   39.6260   33.2380   47.4910 H   0  0  0  0  0  0  0  0  0  0  0  0
   39.2320   31.1720   46.1110 H   0  0  0  0  0  0  0  0  0  0  0  0
   33.3740   27.8140   48.4880 C   0  0  0  0  0  0  0  0  0  0  0  0
   33.5060   26.6050   48.0430 O   0  0  0  0  0  0  0  0  0  0  0  0
   32.2910   28.6060   48.0970 O   0  0  0  0  0  0  0  0  0  0  0  0
   31.0430   28.4880   48.6310 C   0  0  0  0  0  0  0  0  0  0  0  0
   30.7230   28.7320   50.0520 C   0  0  0  0  0  0  0  0  0  0  0  0
   29.4430   28.5870   50.4820 C   0  0  0  0  0  0  0  0  0  0  0  0
   28.4270   28.2010   49.5660 C   0  0  0  0  0  0  0  0  0  0  0  0
   29.3420   28.0260   47.9550 S   0  0  0  0  0  0  0  0  0  0  0  0
   31.5130   29.0200   50.7100 H   0  0  0  0  0  0  0  0  0  0  0  0
   29.1010   28.7390   51.4870 H   0  0  0  0  0  0  0  0  0  0  0  0
   27.0800   27.9670   49.6440 C   0  0  0  0  0  0  0  0  0  0  0  0
   26.5660   27.1980   50.6660 C   0  0  0  0  0  3  0  0  0  0  0  0
   25.1830   26.9790   50.7150 C   0  0  0  0  0  0  0  0  0  0  0  0
   24.7600   26.3790   51.5090 H   0  0  0  0  0  0  0  0  0  0  0  0
   24.4160   27.5440   49.7400 N   0  0  0  0  0  0  0  0  0  0  0  0
   24.9300   28.2940   48.7460 C   0  0  0  0  0  3  0  0  0  0  0  0
   26.2800   28.5000   48.7080 N   0  0  0  0  0  0  0  0  0  0  0  0
  1  4  1  6  0  0  0
  1  3  1  0  0  0  0
  1  8  1  0  0  0  0
  1  2  1  0  0  0  0
  2  6  1  0  0  0  0
  3  7  1  1  0  0  0
  3  2  1  0  0  0  0
  5  2  1  0  0  0  0
  8 10  1  0  0  0  0
  9  8  1  0  0  0  0
 11 16  1  0  0  0  0
 11 17  1  0  0  0  0
 12 11  2  0  0  0  0
 13 14  2  0  0  0  0
 13 12  1  0  0  0  0
 14 15  1  0  0  0  0
 15  8  1  0  0  0  0
 15 16  2  0  0  0  0
 18 12  1  0  0  0  0
 19 13  1  0  0  0  0
 20  3  1  0  0  0  0
 21 20  2  0  0  0  0
 22 20  1  0  0  0  0
 22 23  1  0  0  0  0
 23 24  2  0  0  0  0
 24 25  1  0  0  0  0
 24 28  1  0  0  0  0
 25 29  1  0  0  0  0
 26 30  1  0  0  0  0
 26 25  2  0  0  0  0
 27 23  1  0  0  0  0
 27 26  1  0  0  0  0
 30 31  1  0  0  0  0
 31 32  2  0  0  0  0
 32 33  1  0  0  0  0
 34 32  1  0  0  0  0
 35 34  2  0  0  0  0
 36 35  1  0  0  0  0
 36 30  2  0  0  0  0
M  END
>  <minimizedAffinity>
0.979097188

>  <minimizedRMSD>
1.23823035

$$$$
