
 OpenBabel03252513583D

 26 28  0  0  1  0  0  0  0  0999 V2000
   35.3810   29.4410   49.1140 C   0  0  2  0  0  0  0  0  0  0  0  0
   34.3560   29.6490   50.1580 C   0  0  0  0  0  0  0  0  0  0  0  0
   34.5130   28.2890   49.6060 C   0  0  1  0  0  0  0  0  0  0  0  0
   35.1870   29.8300   48.0870 H   0  0  0  0  0  0  0  0  0  0  0  0
   34.6320   29.8680   51.2080 H   0  0  0  0  0  0  0  0  0  0  0  0
   33.4600   30.2280   49.8380 H   0  0  0  0  0  0  0  0  0  0  0  0
   34.9760   27.5360   50.2750 H   0  0  0  0  0  0  0  0  0  0  0  0
   33.5200   27.7240   48.6430 C   0  0  0  0  0  0  0  0  0  0  0  0
   33.9080   26.8950   47.6070 C   0  0  0  0  0  3  0  0  0  0  0  0
   32.9340   26.4130   46.7630 C   0  0  0  0  0  0  0  0  0  0  0  0
   33.1540   25.7630   45.9330 H   0  0  0  0  0  0  0  0  0  0  0  0
   31.6110   26.7030   46.8810 N   0  0  0  0  0  0  0  0  0  0  0  0
   31.2660   27.5240   47.9120 C   0  0  0  0  0  3  0  0  0  0  0  0
   32.2110   27.9960   48.7410 N   0  0  0  0  0  0  0  0  0  0  0  0
   36.8390   29.3090   49.4930 C   0  0  0  0  0  0  0  0  0  0  0  0
   36.8800   29.2390   50.6140 H   0  0  0  0  0  0  0  0  0  0  0  0
   37.3010   28.3750   49.0830 H   0  0  0  0  0  0  0  0  0  0  0  0
   38.1910   32.7280   49.4770 C   0  0  0  0  0  0  0  0  0  0  0  0
   38.8060   32.8220   48.2280 C   0  0  0  0  0  0  0  0  0  0  0  0
   38.7520   31.7010   47.3890 C   0  0  0  0  0  0  0  0  0  0  0  0
   38.1040   30.5860   47.8430 N   0  0  0  0  0  0  0  0  0  0  0  0
   37.5210   30.5450   49.0680 C   0  0  0  0  0  0  0  0  0  0  0  0
   37.5670   31.6160   49.8820 N   0  0  0  0  0  0  0  0  0  0  0  0
   38.2150   33.5840   50.1530 H   0  0  0  0  0  0  0  0  0  0  0  0
   39.3130   33.7120   47.8880 H   0  0  0  0  0  0  0  0  0  0  0  0
   39.2070   31.6880   46.3960 H   0  0  0  0  0  0  0  0  0  0  0  0
  1  4  1  6  0  0  0
  1 15  1  0  0  0  0
  1  3  1  0  0  0  0
  1  2  1  0  0  0  0
  2  5  1  0  0  0  0
  3  2  1  0  0  0  0
  3  7  1  1  0  0  0
  6  2  1  0  0  0  0
  8 14  1  0  0  0  0
  8  3  1  0  0  0  0
  9  8  2  0  0  0  0
 10 12  2  0  0  0  0
 10  9  1  0  0  0  0
 11 10  1  0  0  0  0
 12 13  1  0  0  0  0
 13 14  2  0  0  0  0
 15 16  1  0  0  0  0
 17 15  1  0  0  0  0
 18 23  1  0  0  0  0
 18 24  1  0  0  0  0
 19 18  2  0  0  0  0
 20 21  2  0  0  0  0
 20 19  1  0  0  0  0
 21 22  1  0  0  0  0
 22 15  1  0  0  0  0
 22 23  2  0  0  0  0
 25 19  1  0  0  0  0
 26 20  1  0  0  0  0
M  END
>  <minimizedAffinity>
-5.00329971

>  <minimizedRMSD>
0.5523296

$$$$
