
 OpenBabel03252513173D

 28 30  0  0  1  0  0  0  0  0999 V2000
   37.0860   30.6380   45.8800 N   0  0  0  0  0  0  0  0  0  0  0  0
   37.6990   31.2220   44.6850 C   0  0  0  0  0  0  0  0  0  0  0  0
   38.3520   32.4390   45.2540 C   0  0  0  0  0  0  0  0  0  0  0  0
   38.9740   31.9070   46.4990 C   0  0  0  0  0  0  0  0  0  0  0  0
   38.1590   30.6830   46.8430 C   0  0  1  0  0  0  0  0  0  0  0  0
   38.5330   30.5110   44.4330 H   0  0  0  0  0  0  0  0  0  0  0  0
   37.0090   31.3780   43.8630 H   0  0  0  0  0  0  0  0  0  0  0  0
   39.1210   32.8540   44.5440 H   0  0  0  0  0  0  0  0  0  0  0  0
   37.5490   33.1880   45.4290 H   0  0  0  0  0  0  0  0  0  0  0  0
   38.7670   32.6660   47.3080 H   0  0  0  0  0  0  0  0  0  0  0  0
   40.0430   31.6830   46.4180 H   0  0  0  0  0  0  0  0  0  0  0  0
   38.7960   29.7960   46.6790 H   0  0  0  0  0  0  0  0  0  0  0  0
   35.7430   30.1590   45.9810 C   0  0  0  0  0  0  0  0  0  0  0  0
   35.1220   29.4460   44.9460 C   0  0  0  0  0  0  0  0  0  0  0  0
   33.7880   29.0220   45.1580 C   0  0  0  0  0  0  0  0  0  0  0  0
   33.1860   29.3250   46.3380 N   0  0  0  0  0  0  0  0  0  0  0  0
   33.8190   30.0160   47.3140 C   0  0  0  0  0  0  0  0  0  0  0  0
   35.0860   30.4140   47.1020 N   0  0  0  0  0  0  0  0  0  0  0  0
   35.6750   29.2530   44.0480 H   0  0  0  0  0  0  0  0  0  0  0  0
   33.3000   28.4730   44.3680 H   0  0  0  0  0  0  0  0  0  0  0  0
   33.3540   30.2650   48.2590 H   0  0  0  0  0  0  0  0  0  0  0  0
   37.7170   30.7140   48.2580 C   0  0  0  0  0  0  0  0  0  0  0  0
   37.6370   29.6370   49.1080 C   0  0  0  0  0  0  0  0  0  0  0  0
   37.2230   29.7230   50.4190 C   0  0  0  0  0  0  0  0  0  0  0  0
   37.1760   28.8480   51.0500 H   0  0  0  0  0  0  0  0  0  0  0  0
   36.8800   30.9410   50.8860 N   0  0  0  0  0  0  0  0  0  0  0  0
   36.9420   32.0290   50.0880 C   0  0  0  0  0  0  0  0  0  0  0  0
   37.3500   31.8880   48.8220 N   0  0  0  0  0  0  0  0  0  0  0  0
  1 13  1  0  0  0  0
  1  5  1  0  0  0  0
  2  3  1  0  0  0  0
  2  1  1  0  0  0  0
  3  9  1  0  0  0  0
  3  4  1  0  0  0  0
  4  5  1  0  0  0  0
  4 10  1  0  0  0  0
  5 12  1  6  0  0  0
  5 22  1  0  0  0  0
  6  2  1  0  0  0  0
  7  2  1  0  0  0  0
  8  3  1  0  0  0  0
 11  4  1  0  0  0  0
 13 18  1  0  0  0  0
 14 15  1  0  0  0  0
 14 13  2  0  0  0  0
 15 16  2  0  0  0  0
 16 17  1  0  0  0  0
 17 21  1  0  0  0  0
 18 17  2  0  0  0  0
 19 14  1  0  0  0  0
 20 15  1  0  0  0  0
 22 28  2  0  0  0  0
 22 23  1  0  0  0  0
 23 24  2  0  0  0  0
 24 26  1  0  0  0  0
 24 25  1  0  0  0  0
 27 26  2  0  0  0  0
 28 27  1  0  0  0  0
M  END
>  <minimizedAffinity>
-4.16111708

>  <minimizedRMSD>
3.84462023

$$$$
