
 OpenBabel03252513483D

 23 24  0  0  0  0  0  0  0  0999 V2000
   37.7080   30.5390   47.6720 C   0  0  0  0  0  0  0  0  0  0  0  0
   36.4480   30.3510   47.0460 C   0  0  0  0  0  0  0  0  0  0  0  0
   35.3880   29.8990   47.8150 C   0  0  0  0  0  0  0  0  0  0  0  0
   35.6260   29.6610   49.1310 N   0  0  0  0  0  0  0  0  0  0  0  0
   36.8290   29.8460   49.7010 C   0  0  0  0  0  0  0  0  0  0  0  0
   37.8530   30.2800   48.9760 N   0  0  0  0  0  0  0  0  0  0  0  0
   36.2890   30.5440   46.0160 H   0  0  0  0  0  0  0  0  0  0  0  0
   34.0470   29.6630   47.3010 C   0  0  0  0  0  0  0  0  0  0  0  0
   33.4260   30.5010   46.4310 C   0  0  0  0  0  0  0  0  0  0  0  0
   32.1510   30.2920   45.9330 C   0  0  0  0  0  0  0  0  0  0  0  0
   31.6770   30.9770   45.2400 H   0  0  0  0  0  0  0  0  0  0  0  0
   31.4770   29.1860   46.3330 N   0  0  0  0  0  0  0  0  0  0  0  0
   32.0890   28.3570   47.1930 C   0  0  0  0  0  0  0  0  0  0  0  0
   33.3350   28.5840   47.6660 N   0  0  0  0  0  0  0  0  0  0  0  0
   36.9060   29.5350   51.1560 C   0  0  0  0  0  0  0  0  0  0  0  0
   37.2870   30.6680   51.8680 F   0  0  0  0  0  0  0  0  0  0  0  0
   35.6580   29.1900   51.6220 F   0  0  0  0  0  0  0  0  0  0  0  0
   37.7610   28.4710   51.4180 F   0  0  0  0  0  0  0  0  0  0  0  0
   38.7440   30.9910   46.8840 O   0  0  0  0  0  0  0  0  0  0  0  0
   39.0200   32.3170   46.5950 C   0  0  0  0  0  0  0  0  0  0  0  0
   38.2270   32.8240   45.5740 F   0  0  0  0  0  0  0  0  0  0  0  0
   38.9810   33.1570   47.6870 F   0  0  0  0  0  0  0  0  0  0  0  0
   40.3370   32.3460   46.1310 F   0  0  0  0  0  0  0  0  0  0  0  0
  1  6  1  0  0  0  0
  2  1  2  0  0  0  0
  2  3  1  0  0  0  0
  3  4  2  0  0  0  0
  4  5  1  0  0  0  0
  5 15  1  0  0  0  0
  6  5  2  0  0  0  0
  7  2  1  0  0  0  0
  8 14  1  0  0  0  0
  8  3  1  0  0  0  0
  9  8  2  0  0  0  0
 10 12  2  0  0  0  0
 10  9  1  0  0  0  0
 11 10  1  0  0  0  0
 12 13  1  0  0  0  0
 13 14  2  0  0  0  0
 15 18  1  0  0  0  0
 15 17  1  0  0  0  0
 15 16  1  0  0  0  0
 19  1  1  0  0  0  0
 20 19  1  0  0  0  0
 20 22  1  0  0  0  0
 21 20  1  0  0  0  0
 23 20  1  0  0  0  0
M  END
>  <minimizedAffinity>
-5.86564112

>  <minimizedRMSD>
6.90681458

$$$$
