
 OpenBabel03252514053D

 36 39  0  0  1  0  0  0  0  0999 V2000
   35.2220   29.1320   48.4930 C   0  0  2  0  0  0  0  0  0  0  0  0
   33.9670   29.4570   49.1630 C   0  0  0  0  0  0  0  0  0  0  0  0
   34.2380   28.0530   49.0560 C   0  0  1  0  0  0  0  0  0  0  0  0
   35.3990   29.0790   47.4210 H   0  0  0  0  0  0  0  0  0  0  0  0
   33.1390   29.9390   48.5920 H   0  0  0  0  0  0  0  0  0  0  0  0
   34.0470   29.9400   50.1810 H   0  0  0  0  0  0  0  0  0  0  0  0
   34.7020   27.4060   49.8030 H   0  0  0  0  0  0  0  0  0  0  0  0
   36.4900   29.1950   49.3630 C   0  0  0  0  0  0  0  0  0  0  0  0
   37.1180   28.3090   49.0870 H   0  0  0  0  0  0  0  0  0  0  0  0
   36.2420   29.1510   50.4470 H   0  0  0  0  0  0  0  0  0  0  0  0
   37.5440   32.6830   49.6130 C   0  0  0  0  0  0  0  0  0  0  0  0
   38.4420   32.8120   48.5300 C   0  0  0  0  0  0  0  0  0  0  0  0
   38.6680   31.6700   47.7250 C   0  0  0  0  0  0  0  0  0  0  0  0
   38.0070   30.5140   48.0390 N   0  0  0  0  0  0  0  0  0  0  0  0
   37.1620   30.4540   49.0840 C   0  0  0  0  0  0  0  0  0  0  0  0
   36.9400   31.5410   49.8600 N   0  0  0  0  0  0  0  0  0  0  0  0
   37.3230   33.5160   50.2700 H   0  0  0  0  0  0  0  0  0  0  0  0
   38.9210   33.7460   48.3470 H   0  0  0  0  0  0  0  0  0  0  0  0
   39.3500   31.7400   46.8910 H   0  0  0  0  0  0  0  0  0  0  0  0
   33.4190   27.3070   48.0230 C   0  0  0  0  0  0  0  0  0  0  0  0
   33.8080   26.0830   47.8610 O   0  0  0  0  0  0  0  0  0  0  0  0
   32.3420   27.8180   47.2940 O   0  0  0  0  0  0  0  0  0  0  0  0
   31.1170   28.0660   47.8370 C   0  0  0  0  0  0  0  0  0  0  0  0
   30.7090   27.6380   49.1900 C   0  0  0  0  0  0  0  0  0  0  0  0
   29.4620   27.9380   49.6370 C   0  0  0  0  0  0  0  0  0  0  0  0
   28.5630   28.6560   48.8020 C   0  0  0  0  0  0  0  0  0  0  0  0
   29.5500   28.9400   47.2490 S   0  0  0  0  0  0  0  0  0  0  0  0
   31.4110   27.1010   49.7880 H   0  0  0  0  0  0  0  0  0  0  0  0
   29.0640   27.6780   50.5990 H   0  0  0  0  0  0  0  0  0  0  0  0
   27.2780   29.1130   48.9170 C   0  0  0  0  0  0  0  0  0  0  0  0
   26.9810   30.4310   48.6490 C   0  0  0  0  0  3  0  0  0  0  0  0
   25.6550   30.8640   48.7770 C   0  0  0  0  0  0  0  0  0  0  0  0
   25.4020   31.8960   48.5710 H   0  0  0  0  0  0  0  0  0  0  0  0
   24.7230   29.9490   49.1660 N   0  0  0  0  0  0  0  0  0  0  0  0
   25.0240   28.6610   49.4260 C   0  0  0  0  0  3  0  0  0  0  0  0
   26.3220   28.2500   49.2970 N   0  0  0  0  0  0  0  0  0  0  0  0
  1  4  1  6  0  0  0
  1  3  1  0  0  0  0
  1  2  1  0  0  0  0
  1  8  1  0  0  0  0
  2  6  1  0  0  0  0
  3  2  1  0  0  0  0
  3  7  1  1  0  0  0
  5  2  1  0  0  0  0
  8 10  1  0  0  0  0
  9  8  1  0  0  0  0
 11 16  1  0  0  0  0
 11 17  1  0  0  0  0
 12 11  2  0  0  0  0
 13 14  2  0  0  0  0
 13 12  1  0  0  0  0
 14 15  1  0  0  0  0
 15  8  1  0  0  0  0
 15 16  2  0  0  0  0
 18 12  1  0  0  0  0
 19 13  1  0  0  0  0
 20  3  1  0  0  0  0
 21 20  2  0  0  0  0
 22 23  1  0  0  0  0
 22 20  1  0  0  0  0
 23 24  2  0  0  0  0
 24 25  1  0  0  0  0
 24 28  1  0  0  0  0
 25 29  1  0  0  0  0
 26 30  1  0  0  0  0
 26 25  2  0  0  0  0
 27 23  1  0  0  0  0
 27 26  1  0  0  0  0
 30 36  1  0  0  0  0
 31 32  1  0  0  0  0
 31 30  2  0  0  0  0
 32 34  2  0  0  0  0
 33 32  1  0  0  0  0
 34 35  1  0  0  0  0
 36 35  2  0  0  0  0
M  END
>  <minimizedAffinity>
-6.4685235

>  <minimizedRMSD>
1.96895802

$$$$
