
 OpenBabel03252513573D

 26 28  0  0  1  0  0  0  0  0999 V2000
   35.5800   29.6140   49.3880 C   0  0  2  0  0  0  0  0  0  0  0  0
   34.5090   29.3340   50.3670 C   0  0  0  0  0  0  0  0  0  0  0  0
   34.8580   28.2730   49.4020 C   0  0  1  0  0  0  0  0  0  0  0  0
   35.3640   30.3070   48.5420 H   0  0  0  0  0  0  0  0  0  0  0  0
   34.7250   29.2100   51.4460 H   0  0  0  0  0  0  0  0  0  0  0  0
   33.5530   29.8810   50.1980 H   0  0  0  0  0  0  0  0  0  0  0  0
   35.3970   27.3940   49.8100 H   0  0  0  0  0  0  0  0  0  0  0  0
   33.9740   27.9620   48.2380 C   0  0  0  0  0  0  0  0  0  0  0  0
   33.6500   26.6610   47.9040 C   0  0  0  0  0  3  0  0  0  0  0  0
   32.8300   26.4560   46.8160 C   0  0  0  0  0  0  0  0  0  0  0  0
   32.5300   25.4740   46.4910 H   0  0  0  0  0  0  0  0  0  0  0  0
   32.3190   27.4540   46.0490 N   0  0  0  0  0  0  0  0  0  0  0  0
   32.6600   28.7220   46.4080 C   0  0  0  0  0  3  0  0  0  0  0  0
   33.4590   28.9310   47.4670 N   0  0  0  0  0  0  0  0  0  0  0  0
   37.0310   29.5290   49.8030 C   0  0  0  0  0  0  0  0  0  0  0  0
   37.0580   29.6290   50.9220 H   0  0  0  0  0  0  0  0  0  0  0  0
   37.4880   28.5390   49.5460 H   0  0  0  0  0  0  0  0  0  0  0  0
   38.5340   32.8530   49.3390 C   0  0  0  0  0  0  0  0  0  0  0  0
   39.0470   32.7920   48.0440 C   0  0  0  0  0  0  0  0  0  0  0  0
   38.8730   31.6010   47.3280 C   0  0  0  0  0  0  0  0  0  0  0  0
   38.2140   30.5710   47.9390 N   0  0  0  0  0  0  0  0  0  0  0  0
   37.7330   30.6790   49.2040 C   0  0  0  0  0  0  0  0  0  0  0  0
   37.8950   31.8200   49.9010 N   0  0  0  0  0  0  0  0  0  0  0  0
   38.6540   33.7670   49.9220 H   0  0  0  0  0  0  0  0  0  0  0  0
   39.5650   33.6160   47.5770 H   0  0  0  0  0  0  0  0  0  0  0  0
   39.2420   31.4670   46.3090 H   0  0  0  0  0  0  0  0  0  0  0  0
  1  4  1  6  0  0  0
  1  3  1  0  0  0  0
  1 15  1  0  0  0  0
  1  2  1  0  0  0  0
  2  5  1  0  0  0  0
  3  7  1  1  0  0  0
  3  2  1  0  0  0  0
  6  2  1  0  0  0  0
  8  3  1  0  0  0  0
  9  8  1  0  0  0  0
 10  9  2  0  0  0  0
 11 10  1  0  0  0  0
 12 13  2  0  0  0  0
 12 10  1  0  0  0  0
 13 14  1  0  0  0  0
 14  8  2  0  0  0  0
 15 16  1  0  0  0  0
 17 15  1  0  0  0  0
 18 23  1  0  0  0  0
 18 24  1  0  0  0  0
 19 18  2  0  0  0  0
 20 21  2  0  0  0  0
 20 19  1  0  0  0  0
 21 22  1  0  0  0  0
 22 15  1  0  0  0  0
 22 23  2  0  0  0  0
 25 19  1  0  0  0  0
 26 20  1  0  0  0  0
M  END
>  <minimizedAffinity>
-4.88601255

>  <minimizedRMSD>
0.449774265

$$$$
