
 OpenBabel03252514053D

 36 39  0  0  1  0  0  0  0  0999 V2000
   35.2190   29.1350   48.5040 C   0  0  2  0  0  0  0  0  0  0  0  0
   33.9700   29.4350   49.1980 C   0  0  0  0  0  0  0  0  0  0  0  0
   34.2510   28.0360   49.0580 C   0  0  1  0  0  0  0  0  0  0  0  0
   35.3810   29.1060   47.4300 H   0  0  0  0  0  0  0  0  0  0  0  0
   33.1310   29.9220   48.6490 H   0  0  0  0  0  0  0  0  0  0  0  0
   34.0600   29.8970   50.2250 H   0  0  0  0  0  0  0  0  0  0  0  0
   34.7310   27.3780   49.7850 H   0  0  0  0  0  0  0  0  0  0  0  0
   36.4970   29.1910   49.3580 C   0  0  0  0  0  0  0  0  0  0  0  0
   37.1230   28.3090   49.0660 H   0  0  0  0  0  0  0  0  0  0  0  0
   36.2640   29.1360   50.4450 H   0  0  0  0  0  0  0  0  0  0  0  0
   37.5300   32.6850   49.6140 C   0  0  0  0  0  0  0  0  0  0  0  0
   38.4350   32.8190   48.5370 C   0  0  0  0  0  0  0  0  0  0  0  0
   38.6720   31.6770   47.7340 C   0  0  0  0  0  0  0  0  0  0  0  0
   38.0160   30.5180   48.0440 N   0  0  0  0  0  0  0  0  0  0  0  0
   37.1650   30.4540   49.0840 C   0  0  0  0  0  0  0  0  0  0  0  0
   36.9320   31.5400   49.8570 N   0  0  0  0  0  0  0  0  0  0  0  0
   37.3010   33.5170   50.2690 H   0  0  0  0  0  0  0  0  0  0  0  0
   38.9100   33.7550   48.3560 H   0  0  0  0  0  0  0  0  0  0  0  0
   39.3600   31.7510   46.9040 H   0  0  0  0  0  0  0  0  0  0  0  0
   33.4250   27.3050   48.0210 C   0  0  0  0  0  0  0  0  0  0  0  0
   33.8020   26.0770   47.8500 O   0  0  0  0  0  0  0  0  0  0  0  0
   32.3530   27.8300   47.2950 O   0  0  0  0  0  0  0  0  0  0  0  0
   31.1260   28.0730   47.8370 C   0  0  0  0  0  0  0  0  0  0  0  0
   30.7150   27.6340   49.1860 C   0  0  0  0  0  0  0  0  0  0  0  0
   29.4660   27.9300   49.6320 C   0  0  0  0  0  0  0  0  0  0  0  0
   28.5700   28.6540   48.8000 C   0  0  0  0  0  0  0  0  0  0  0  0
   29.5600   28.9520   47.2530 S   0  0  0  0  0  0  0  0  0  0  0  0
   31.4150   27.0920   49.7810 H   0  0  0  0  0  0  0  0  0  0  0  0
   29.0660   27.6610   50.5900 H   0  0  0  0  0  0  0  0  0  0  0  0
   27.2840   29.1100   48.9170 C   0  0  0  0  0  0  0  0  0  0  0  0
   26.9840   30.4260   48.6380 C   0  0  0  0  0  3  0  0  0  0  0  0
   25.6580   30.8580   48.7680 C   0  0  0  0  0  0  0  0  0  0  0  0
   25.4030   31.8870   48.5540 H   0  0  0  0  0  0  0  0  0  0  0  0
   24.7280   29.9440   49.1650 N   0  0  0  0  0  0  0  0  0  0  0  0
   25.0330   28.6590   49.4340 C   0  0  0  0  0  3  0  0  0  0  0  0
   26.3300   28.2490   49.3050 N   0  0  0  0  0  0  0  0  0  0  0  0
  1  4  1  6  0  0  0
  1  3  1  0  0  0  0
  1  2  1  0  0  0  0
  1  8  1  0  0  0  0
  2  6  1  0  0  0  0
  3  2  1  0  0  0  0
  3  7  1  1  0  0  0
  5  2  1  0  0  0  0
  8 10  1  0  0  0  0
  9  8  1  0  0  0  0
 11 16  1  0  0  0  0
 11 17  1  0  0  0  0
 12 11  2  0  0  0  0
 13 14  2  0  0  0  0
 13 12  1  0  0  0  0
 14 15  1  0  0  0  0
 15  8  1  0  0  0  0
 15 16  2  0  0  0  0
 18 12  1  0  0  0  0
 19 13  1  0  0  0  0
 20  3  1  0  0  0  0
 21 20  2  0  0  0  0
 22 23  1  0  0  0  0
 22 20  1  0  0  0  0
 23 24  2  0  0  0  0
 24 25  1  0  0  0  0
 24 28  1  0  0  0  0
 25 29  1  0  0  0  0
 26 30  1  0  0  0  0
 26 25  2  0  0  0  0
 27 23  1  0  0  0  0
 27 26  1  0  0  0  0
 30 36  1  0  0  0  0
 31 32  1  0  0  0  0
 31 30  2  0  0  0  0
 32 34  2  0  0  0  0
 33 32  1  0  0  0  0
 34 35  1  0  0  0  0
 36 35  2  0  0  0  0
M  END
>  <minimizedAffinity>
-6.4697938

>  <minimizedRMSD>
1.97048151

$$$$
