
 OpenBabel03252512133D

 30 33  0  0  0  0  0  0  0  0999 V2000
   35.6370   30.0510   47.7980 C   0  0  0  0  0  0  0  0  0  0  0  0
   36.6420   30.6670   47.0680 C   0  0  0  0  0  0  0  0  0  0  0  0
   37.6760   30.9720   47.8740 N   0  0  0  0  0  0  0  0  0  0  0  0
   37.3600   30.5650   49.1130 C   0  0  0  0  0  0  0  0  0  0  0  0
   38.0510   30.6270   50.3260 C   0  0  0  0  0  0  0  0  0  0  0  0
   37.4710   30.1190   51.4610 C   0  0  0  0  0  0  0  0  0  0  0  0
   36.2070   29.5500   51.4020 C   0  0  0  0  0  0  0  0  0  0  0  0
   35.4840   29.4710   50.2070 C   0  0  0  0  0  0  0  0  0  0  0  0
   36.0970   29.9880   49.0950 C   0  0  0  0  0  0  0  0  0  0  0  0
   36.7040   30.9190   46.0150 H   0  0  0  0  0  0  0  0  0  0  0  0
   38.5900   31.4460   47.6250 H   0  0  0  0  0  0  0  0  0  0  0  0
   39.0430   31.0670   50.3980 H   0  0  0  0  0  0  0  0  0  0  0  0
   37.9200   30.1180   52.4410 H   0  0  0  0  0  0  0  0  0  0  0  0
   35.7260   29.1440   52.2750 H   0  0  0  0  0  0  0  0  0  0  0  0
   34.5120   29.0310   50.1690 H   0  0  0  0  0  0  0  0  0  0  0  0
   32.3350   29.9580   46.1470 C   0  0  0  0  0  0  0  0  0  0  0  0
   32.0440   28.5920   46.1760 C   0  0  0  0  0  0  0  0  0  0  0  0
   32.9890   27.7360   46.7610 C   0  0  0  0  0  0  0  0  0  0  0  0
   34.1300   28.2590   47.2680 N   0  0  0  0  0  0  0  0  0  0  0  0
   34.3820   29.5950   47.2240 C   0  0  0  0  0  0  0  0  0  0  0  0
   33.4910   30.4340   46.6680 N   0  0  0  0  0  0  0  0  0  0  0  0
   31.6470   30.6820   45.7080 H   0  0  0  0  0  0  0  0  0  0  0  0
   31.1190   28.2220   45.7570 H   0  0  0  0  0  0  0  0  0  0  0  0
   32.7280   26.3130   46.8100 C   0  0  0  0  0  0  0  0  0  0  0  0
   33.6860   25.4690   47.3300 C   0  0  0  0  0  0  0  0  0  0  0  0
   33.3370   24.1310   47.3320 C   0  0  0  0  0  0  0  0  0  0  0  0
   34.0640   23.4220   47.7350 H   0  0  0  0  0  0  0  0  0  0  0  0
   32.1720   23.6490   46.8750 N   0  0  0  0  0  0  0  0  0  0  0  0
   31.2570   24.5210   46.3700 C   0  0  0  0  0  0  0  0  0  0  0  0
   31.5550   25.8440   46.3490 N   0  0  0  0  0  0  0  0  0  0  0  0
  1  9  1  0  0  0  0
  2  1  2  0  0  0  0
  2  3  1  0  0  0  0
  3  4  1  0  0  0  0
  4  5  1  0  0  0  0
  5 12  1  0  0  0  0
  5  6  2  0  0  0  0
  6 13  1  0  0  0  0
  7  6  1  0  0  0  0
  7 14  1  0  0  0  0
  8  7  2  0  0  0  0
  9  4  2  0  0  0  0
  9  8  1  0  0  0  0
 10  2  1  0  0  0  0
 11  3  1  0  0  0  0
 15  8  1  0  0  0  0
 16 17  2  0  0  0  0
 16 21  1  0  0  0  0
 17 18  1  0  0  0  0
 18 24  1  0  0  0  0
 18 19  2  0  0  0  0
 20 19  1  0  0  0  0
 20  1  1  0  0  0  0
 21 20  2  0  0  0  0
 22 16  1  0  0  0  0
 23 17  1  0  0  0  0
 24 25  1  0  0  0  0
 25 26  2  0  0  0  0
 26 27  1  0  0  0  0
 28 26  1  0  0  0  0
 29 28  2  0  0  0  0
 30 29  1  0  0  0  0
 30 24  2  0  0  0  0
M  END
>  <minimizedAffinity>
-5.76947069

>  <minimizedRMSD>
0.217578277

$$$$
