
 OpenBabel03252513443D

 20 21  0  0  0  0  0  0  0  0999 V2000
   37.5290   30.3980   49.0990 C   0  0  0  0  0  0  0  0  0  0  0  0
   37.7670   31.4240   50.0370 C   0  0  0  0  0  0  0  0  0  0  0  0
   38.4580   32.5710   49.6140 C   0  0  0  0  0  0  0  0  0  0  0  0
   38.8660   32.6330   48.3070 N   0  0  0  0  0  0  0  0  0  0  0  0
   38.6090   31.6240   47.4690 C   0  0  0  0  0  0  0  0  0  0  0  0
   37.9610   30.5250   47.8260 N   0  0  0  0  0  0  0  0  0  0  0  0
   37.4060   31.2920   51.0590 H   0  0  0  0  0  0  0  0  0  0  0  0
   38.6090   33.3150   50.3630 H   0  0  0  0  0  0  0  0  0  0  0  0
   39.0790   31.7670   46.0880 C   0  0  0  0  0  0  0  0  0  0  0  0
   40.2330   31.0980   45.6620 C   0  0  0  0  0  0  0  0  0  0  0  0
   40.6090   31.2840   44.3460 C   0  0  0  0  0  0  0  0  0  0  0  0
   41.5210   30.7390   44.0580 H   0  0  0  0  0  0  0  0  0  0  0  0
   39.9420   32.0570   43.4700 N   0  0  0  0  0  0  0  0  0  0  0  0
   38.8390   32.6800   43.9230 C   0  0  0  0  0  0  0  0  0  0  0  0
   38.4020   32.5470   45.2110 N   0  0  0  0  0  0  0  0  0  0  0  0
   36.8560   29.2910   49.5360 O   0  0  0  0  0  0  0  0  0  0  0  0
   35.5880   29.3040   50.1410 C   0  0  0  0  0  0  0  0  0  0  0  0
   35.6440   29.2760   51.5180 F   0  0  0  0  0  0  0  0  0  0  0  0
   34.7830   30.3160   49.7050 F   0  0  0  0  0  0  0  0  0  0  0  0
   34.9620   28.1110   49.7510 F   0  0  0  0  0  0  0  0  0  0  0  0
  1 16  1  0  0  0  0
  1  2  1  0  0  0  0
  2  7  1  0  0  0  0
  3  2  2  0  0  0  0
  3  8  1  0  0  0  0
  4  3  1  0  0  0  0
  5  6  1  0  0  0  0
  5  4  2  0  0  0  0
  6  1  2  0  0  0  0
  9  5  1  0  0  0  0
 10  9  1  0  0  0  0
 11 10  2  0  0  0  0
 12 11  1  0  0  0  0
 13 14  2  0  0  0  0
 13 11  1  0  0  0  0
 14 15  1  0  0  0  0
 15  9  2  0  0  0  0
 16 17  1  0  0  0  0
 17 18  1  0  0  0  0
 19 17  1  0  0  0  0
 20 17  1  0  0  0  0
M  END
>  <minimizedAffinity>
-5.93028593

>  <minimizedRMSD>
1.38726795

$$$$
