
 OpenBabel03252513023D

 25 27  0  0  0  0  0  0  0  0999 V2000
   39.5910   30.9210   46.1420 C   0  0  0  0  0  0  0  0  0  0  0  0
   38.7560   30.6370   45.4360 H   0  0  0  0  0  0  0  0  0  0  0  0
   40.0030   29.9880   46.5490 H   0  0  0  0  0  0  0  0  0  0  0  0
   39.0420   31.7930   47.2380 C   0  0  0  0  0  0  0  0  0  0  0  0
   39.2590   33.1200   47.5920 C   0  0  0  0  0  0  0  0  0  0  0  0
   38.4960   33.3870   48.6610 N   0  0  0  0  0  0  0  0  0  0  0  0
   37.8050   32.2950   49.0020 C   0  0  0  0  0  0  0  0  0  0  0  0
   36.9050   32.0930   50.0240 C   0  0  0  0  0  0  0  0  0  0  0  0
   36.2880   30.8510   50.2060 C   0  0  0  0  0  0  0  0  0  0  0  0
   36.6030   29.8100   49.3270 C   0  0  0  0  0  0  0  0  0  0  0  0
   37.5160   30.0620   48.3140 C   0  0  0  0  0  0  0  0  0  0  0  0
   38.1180   31.2800   48.1400 C   0  0  0  0  0  0  0  0  0  0  0  0
   38.4730   34.3180   49.1280 H   0  0  0  0  0  0  0  0  0  0  0  0
   40.5790   31.7540   45.3630 C   0  0  0  0  0  0  0  0  0  0  0  0
   40.6110   32.7640   45.8110 H   0  0  0  0  0  0  0  0  0  0  0  0
   41.5900   31.3160   45.5000 H   0  0  0  0  0  0  0  0  0  0  0  0
   39.9760   31.1170   41.6610 C   0  0  0  0  0  0  0  0  0  0  0  0
   40.4050   30.8920   42.9670 C   0  0  0  0  0  0  0  0  0  0  0  0
   40.1790   31.8620   43.9350 C   0  0  0  0  0  0  0  0  0  0  0  0
   39.5360   33.0180   43.5620 N   0  0  0  0  0  0  0  0  0  0  0  0
   39.1390   33.1980   42.2960 C   0  0  0  0  0  0  0  0  0  0  0  0
   39.3520   32.2600   41.3450 N   0  0  0  0  0  0  0  0  0  0  0  0
   40.1830   30.3250   40.9630 H   0  0  0  0  0  0  0  0  0  0  0  0
   40.9130   29.9900   43.2830 H   0  0  0  0  0  0  0  0  0  0  0  0
   38.6230   34.1210   41.9870 H   0  0  0  0  0  0  0  0  0  0  0  0
  1  3  1  0  0  0  0
  1  4  1  0  0  0  0
  2  1  1  0  0  0  0
  4  5  2  0  0  0  0
  4 12  1  0  0  0  0
  5  6  1  0  0  0  0
  6  7  1  0  0  0  0
  6 13  1  0  0  0  0
  7  8  1  0  0  0  0
  8  9  2  0  0  0  0
 10  9  1  0  0  0  0
 11 10  2  0  0  0  0
 12 11  1  0  0  0  0
 12  7  2  0  0  0  0
 14 16  1  0  0  0  0
 14 15  1  0  0  0  0
 14  1  1  0  0  0  0
 17 18  1  0  0  0  0
 18 24  1  0  0  0  0
 18 19  2  0  0  0  0
 19 14  1  0  0  0  0
 20 19  1  0  0  0  0
 21 20  2  0  0  0  0
 22 17  2  0  0  0  0
 22 21  1  0  0  0  0
 23 17  1  0  0  0  0
 25 21  1  0  0  0  0
M  END
>  <minimizedAffinity>
-5.8893919

>  <minimizedRMSD>
6.64628315

$$$$
