
 OpenBabel03252512573D

 28 31  0  0  0  0  0  0  0  0999 V2000
   37.4130   30.0880   51.5160 C   0  0  0  0  0  0  0  0  0  0  0  0
   38.1770   30.8220   50.5950 C   0  0  0  0  0  0  0  0  0  0  0  0
   37.6860   30.8980   49.2960 C   0  0  0  0  0  0  0  0  0  0  0  0
   36.5090   30.2780   48.9520 N   0  0  0  0  0  0  0  0  0  0  0  0
   35.8160   29.5830   49.8940 C   0  0  0  0  0  0  0  0  0  0  0  0
   36.2690   29.4880   51.1800 N   0  0  0  0  0  0  0  0  0  0  0  0
   37.7850   30.0250   52.5170 H   0  0  0  0  0  0  0  0  0  0  0  0
   39.1060   31.3160   50.8420 H   0  0  0  0  0  0  0  0  0  0  0  0
   38.3880   31.6330   48.2350 C   0  0  0  0  0  0  0  0  0  0  0  0
   39.0310   32.8330   48.2440 N   0  0  0  0  0  0  0  0  0  0  0  0
   39.5060   33.0820   47.0600 O   0  0  0  0  0  0  0  0  0  0  0  0
   39.1890   32.0750   46.2820 C   0  0  0  0  0  0  0  0  0  0  0  0
   38.4790   31.1280   46.9760 N   0  0  0  0  0  0  0  0  0  0  0  0
   39.5030   31.9150   44.8910 N   0  0  0  0  0  0  0  0  0  0  0  0
   38.9830   32.6980   43.9490 N   0  0  0  0  0  0  0  0  0  0  0  0
   39.4460   32.3250   42.7460 C   0  0  0  0  0  0  0  0  0  0  0  0
   40.2990   31.2510   42.9820 C   0  0  0  0  0  0  0  0  0  0  0  0
   40.3200   31.0080   44.3490 C   0  0  0  0  0  0  0  0  0  0  0  0
   39.2800   32.6850   41.7460 H   0  0  0  0  0  0  0  0  0  0  0  0
   40.9130   30.6060   42.3480 H   0  0  0  0  0  0  0  0  0  0  0  0
   40.8390   30.2780   44.9700 H   0  0  0  0  0  0  0  0  0  0  0  0
   34.5780   28.9570   49.4450 C   0  0  0  0  0  0  0  0  0  0  0  0
   34.5580   28.1070   48.3520 C   0  0  0  0  0  0  0  0  0  0  0  0
   33.2350   27.6950   48.2040 C   0  0  0  0  0  0  0  0  0  0  0  0
   32.7870   27.0200   47.4620 H   0  0  0  0  0  0  0  0  0  0  0  0
   32.5070   28.2900   49.1870 N   0  0  0  0  0  0  0  0  0  0  0  0
   33.3220   29.0510   49.9330 N   0  0  0  0  0  0  0  0  0  0  0  0
   31.4740   28.1910   49.3580 H   0  0  0  0  0  0  0  0  0  0  0  0
  1  7  1  0  0  0  0
  2  8  1  0  0  0  0
  2  1  2  0  0  0  0
  3  2  1  0  0  0  0
  4  3  2  0  0  0  0
  4  5  1  0  0  0  0
  5  6  2  0  0  0  0
  6  1  1  0  0  0  0
  9 10  2  0  0  0  0
  9  3  1  0  0  0  0
 11 10  1  0  0  0  0
 12 13  2  0  0  0  0
 12 11  1  0  0  0  0
 13  9  1  0  0  0  0
 14 12  1  0  0  0  0
 15 14  1  0  0  0  0
 16 17  1  0  0  0  0
 16 15  2  0  0  0  0
 17 18  2  0  0  0  0
 18 14  1  0  0  0  0
 18 21  1  0  0  0  0
 19 16  1  0  0  0  0
 20 17  1  0  0  0  0
 22  5  1  0  0  0  0
 22 27  2  0  0  0  0
 23 22  1  0  0  0  0
 24 23  2  0  0  0  0
 24 26  1  0  0  0  0
 25 24  1  0  0  0  0
 26 28  1  0  0  0  0
 26 27  1  0  0  0  0
M  END
>  <minimizedAffinity>
-6.55382967

>  <minimizedRMSD>
0.792680621

$$$$
