
 OpenBabel03252512343D

 40 43  0  0  1  0  0  0  0  0999 V2000
   31.6040   27.9960   46.6940 C   0  0  2  0  0  0  0  0  0  0  0  0
   31.7010   26.8900   46.4900 H   0  0  0  0  0  0  0  0  0  0  0  0
   34.9000   29.4390   48.5900 C   0  0  0  0  0  0  0  0  0  0  0  0
   34.3900   28.2640   49.1670 C   0  0  0  0  0  0  0  0  0  0  0  0
   33.2900   27.7360   48.5960 C   0  0  0  0  0  0  0  0  0  0  0  0
   32.7700   28.3430   47.5550 C   0  0  0  0  0  0  0  0  0  0  0  0
   33.8000   29.8100   47.2120 S   0  0  0  0  0  0  0  0  0  0  0  0
   34.9190   27.8510   50.0450 H   0  0  0  0  0  0  0  0  0  0  0  0
   32.8220   26.8310   48.9700 H   0  0  0  0  0  0  0  0  0  0  0  0
   37.7330   30.6180   50.6240 C   0  0  0  0  0  0  0  0  0  0  0  0
   38.3730   31.5410   49.7680 C   0  0  0  0  0  0  0  0  0  0  0  0
   37.8130   31.7410   48.5210 C   0  0  0  0  0  0  0  0  0  0  0  0
   36.6920   31.0540   48.1760 N   0  0  0  0  0  0  0  0  0  0  0  0
   36.1330   30.1890   49.0400 C   0  0  0  0  0  0  0  0  0  0  0  0
   36.6020   29.9130   50.3010 N   0  0  0  0  0  0  0  0  0  0  0  0
   38.1120   30.4050   51.6240 H   0  0  0  0  0  0  0  0  0  0  0  0
   39.2520   32.0180   50.1590 H   0  0  0  0  0  0  0  0  0  0  0  0
   38.3030   32.4470   47.8650 H   0  0  0  0  0  0  0  0  0  0  0  0
   31.6050   28.7870   45.4850 C   0  0  0  0  0  0  0  0  0  0  0  0
   30.5800   28.9740   45.0540 H   0  0  0  0  0  0  0  0  0  0  0  0
   32.0520   29.8100   45.6510 H   0  0  0  0  0  0  0  0  0  0  0  0
   32.1960   28.3250   44.6660 H   0  0  0  0  0  0  0  0  0  0  0  0
   30.3530   28.0940   47.5600 C   0  0  0  0  0  0  0  0  0  0  0  0
   29.7770   28.9560   47.1490 H   0  0  0  0  0  0  0  0  0  0  0  0
   30.6020   28.3670   48.6040 H   0  0  0  0  0  0  0  0  0  0  0  0
   29.5890   26.9670   47.5220 O   0  0  0  0  0  0  0  0  0  0  0  0
   28.8840   26.6150   46.3890 C   0  0  0  0  0  0  0  0  0  0  0  0
   28.7850   25.5510   45.5240 C   0  0  0  0  0  0  0  0  0  0  0  0
   27.8430   25.9080   44.5840 C   0  0  0  0  0  0  0  0  0  0  0  0
   27.4040   27.1680   44.9050 C   0  0  0  0  0  0  0  0  0  0  0  0
   28.0520   27.5470   45.9870 O   0  0  0  0  0  0  0  0  0  0  0  0
   29.3910   24.7060   45.7000 H   0  0  0  0  0  0  0  0  0  0  0  0
   27.5580   25.2560   43.7700 H   0  0  0  0  0  0  0  0  0  0  0  0
   26.3910   27.9420   44.1650 C   0  0  0  0  0  0  0  0  0  0  0  0
   26.5630   29.2240   43.6840 C   0  0  0  0  0  0  0  0  0  0  0  0
   25.3500   29.5230   43.0680 C   0  0  0  0  0  0  0  0  0  0  0  0
   25.1270   30.4700   42.5720 H   0  0  0  0  0  0  0  0  0  0  0  0
   24.5080   28.4710   43.1820 N   0  0  0  0  0  0  0  0  0  0  0  0
   25.1570   27.5090   43.8560 N   0  0  0  0  0  0  0  0  0  0  0  0
   23.5350   28.4540   42.7980 H   0  0  0  0  0  0  0  0  0  0  0  0
  1  2  1  6  0  0  0
  1  6  1  0  0  0  0
  1 23  1  0  0  0  0
  3 14  1  0  0  0  0
  3  4  2  0  0  0  0
  4  8  1  0  0  0  0
  5  9  1  0  0  0  0
  5  4  1  0  0  0  0
  6  5  2  0  0  0  0
  7  6  1  0  0  0  0
  7  3  1  0  0  0  0
 10 16  1  0  0  0  0
 11 17  1  0  0  0  0
 11 10  2  0  0  0  0
 12 11  1  0  0  0  0
 13 12  2  0  0  0  0
 13 14  1  0  0  0  0
 14 15  2  0  0  0  0
 15 10  1  0  0  0  0
 18 12  1  0  0  0  0
 19 21  1  0  0  0  0
 19  1  1  0  0  0  0
 20 19  1  0  0  0  0
 22 19  1  0  0  0  0
 23 25  1  0  0  0  0
 24 23  1  0  0  0  0
 26 23  1  0  0  0  0
 27 26  1  0  0  0  0
 28 32  1  0  0  0  0
 28 27  2  0  0  0  0
 29 30  2  0  0  0  0
 29 28  1  0  0  0  0
 30 31  1  0  0  0  0
 31 27  1  0  0  0  0
 33 29  1  0  0  0  0
 34 30  1  0  0  0  0
 35 34  1  0  0  0  0
 36 38  1  0  0  0  0
 36 35  2  0  0  0  0
 37 36  1  0  0  0  0
 38 39  1  0  0  0  0
 39 34  2  0  0  0  0
 40 38  1  0  0  0  0
M  END
>  <minimizedAffinity>
-5.26290464

>  <minimizedRMSD>
0.520473838

$$$$
