
 OpenBabel03252513023D

 25 27  0  0  0  0  0  0  0  0999 V2000
   37.9940   30.5750   47.2420 C   0  0  0  0  0  0  0  0  0  0  0  0
   37.0470   30.2860   46.7100 H   0  0  0  0  0  0  0  0  0  0  0  0
   38.4580   29.7070   47.7320 H   0  0  0  0  0  0  0  0  0  0  0  0
   38.8950   31.3090   46.3340 C   0  0  0  0  0  0  0  0  0  0  0  0
   39.4000   32.5540   46.7050 C   0  0  0  0  0  0  0  0  0  0  0  0
   40.2630   33.2860   45.9170 C   0  0  0  0  0  0  0  0  0  0  0  0
   40.6450   32.7610   44.7000 C   0  0  0  0  0  0  0  0  0  0  0  0
   40.1660   31.5190   44.2840 C   0  0  0  0  0  0  0  0  0  0  0  0
   40.5480   30.9990   43.0500 C   0  0  0  0  0  0  0  0  0  0  0  0
   40.0560   29.7690   42.6450 C   0  0  0  0  0  0  0  0  0  0  0  0
   39.1910   29.0750   43.4740 C   0  0  0  0  0  0  0  0  0  0  0  0
   38.8300   29.6030   44.6770 C   0  0  0  0  0  0  0  0  0  0  0  0
   39.2940   30.8130   45.1160 C   0  0  0  0  0  0  0  0  0  0  0  0
   37.5600   31.5180   48.3320 C   0  0  0  0  0  0  0  0  0  0  0  0
   36.7220   32.1580   47.9490 H   0  0  0  0  0  0  0  0  0  0  0  0
   38.4210   32.1350   48.6280 H   0  0  0  0  0  0  0  0  0  0  0  0
   37.0990   29.8400   51.7180 C   0  0  0  0  0  0  0  0  0  0  0  0
   37.7190   30.5730   50.7010 C   0  0  0  0  0  0  0  0  0  0  0  0
   37.0440   30.7570   49.5100 C   0  0  0  0  0  0  0  0  0  0  0  0
   35.8140   30.2150   49.3890 N   0  0  0  0  0  0  0  0  0  0  0  0
   35.2200   29.5150   50.3560 C   0  0  0  0  0  0  0  0  0  0  0  0
   35.8670   29.3300   51.5210 N   0  0  0  0  0  0  0  0  0  0  0  0
   37.7150   29.7560   52.6140 H   0  0  0  0  0  0  0  0  0  0  0  0
   38.7030   31.0080   50.8010 H   0  0  0  0  0  0  0  0  0  0  0  0
   34.2280   29.0700   50.2760 H   0  0  0  0  0  0  0  0  0  0  0  0
  1  3  1  0  0  0  0
  1 14  1  0  0  0  0
  2  1  1  0  0  0  0
  4  5  1  0  0  0  0
  4  1  1  0  0  0  0
  6  5  2  0  0  0  0
  7  6  1  0  0  0  0
  8  7  2  0  0  0  0
  8 13  1  0  0  0  0
  9  8  1  0  0  0  0
 10  9  2  0  0  0  0
 10 11  1  0  0  0  0
 11 12  2  0  0  0  0
 12 13  1  0  0  0  0
 13  4  2  0  0  0  0
 14 16  1  0  0  0  0
 14 19  1  0  0  0  0
 15 14  1  0  0  0  0
 17 23  1  0  0  0  0
 18 24  1  0  0  0  0
 18 17  2  0  0  0  0
 19 18  1  0  0  0  0
 20 19  2  0  0  0  0
 20 21  1  0  0  0  0
 21 22  2  0  0  0  0
 22 17  1  0  0  0  0
 25 21  1  0  0  0  0
M  END
>  <minimizedAffinity>
-6.04124308

>  <minimizedRMSD>
1.2370255

$$$$
