
 OpenBabel03252514053D

 36 39  0  0  1  0  0  0  0  0999 V2000
   35.1730   29.2730   48.7420 C   0  0  2  0  0  0  0  0  0  0  0  0
   34.0350   29.3100   49.6550 C   0  0  0  0  0  0  0  0  0  0  0  0
   34.3540   28.0050   49.1540 C   0  0  1  0  0  0  0  0  0  0  0  0
   35.1370   29.4620   47.6680 H   0  0  0  0  0  0  0  0  0  0  0  0
   33.0900   29.8290   49.3220 H   0  0  0  0  0  0  0  0  0  0  0  0
   34.2550   29.6220   50.7180 H   0  0  0  0  0  0  0  0  0  0  0  0
   34.9710   27.2350   49.6160 H   0  0  0  0  0  0  0  0  0  0  0  0
   36.5630   29.2460   49.4010 C   0  0  0  0  0  0  0  0  0  0  0  0
   36.4480   29.1880   50.4990 H   0  0  0  0  0  0  0  0  0  0  0  0
   37.1560   28.3850   49.0430 H   0  0  0  0  0  0  0  0  0  0  0  0
   37.6320   32.7370   49.5600 C   0  0  0  0  0  0  0  0  0  0  0  0
   38.5000   32.8450   48.4540 C   0  0  0  0  0  0  0  0  0  0  0  0
   38.7010   31.6880   47.6660 C   0  0  0  0  0  0  0  0  0  0  0  0
   38.0460   30.5390   48.0180 N   0  0  0  0  0  0  0  0  0  0  0  0
   37.2340   30.4940   49.0760 C   0  0  0  0  0  0  0  0  0  0  0  0
   37.0330   31.6020   49.8430 N   0  0  0  0  0  0  0  0  0  0  0  0
   37.4320   33.5760   50.2040 H   0  0  0  0  0  0  0  0  0  0  0  0
   38.9610   33.7980   48.2730 H   0  0  0  0  0  0  0  0  0  0  0  0
   39.3580   31.7810   46.8350 H   0  0  0  0  0  0  0  0  0  0  0  0
   33.4060   27.4650   48.0990 C   0  0  0  0  0  0  0  0  0  0  0  0
   33.6570   26.2360   47.7790 O   0  0  0  0  0  0  0  0  0  0  0  0
   32.3520   28.1520   47.4990 O   0  0  0  0  0  0  0  0  0  0  0  0
   31.0800   28.1650   48.0030 C   0  0  0  0  0  0  0  0  0  0  0  0
   30.6780   27.6160   49.3240 C   0  0  0  0  0  0  0  0  0  0  0  0
   29.3760   27.7120   49.6680 C   0  0  0  0  0  0  0  0  0  0  0  0
   28.4210   28.3060   48.8200 C   0  0  0  0  0  0  0  0  0  0  0  0
   29.4230   28.8080   47.3430 S   0  0  0  0  0  0  0  0  0  0  0  0
   31.4500   27.1770   49.9250 H   0  0  0  0  0  0  0  0  0  0  0  0
   28.9900   27.3440   50.6020 H   0  0  0  0  0  0  0  0  0  0  0  0
   27.0950   28.5480   48.8690 C   0  0  0  0  0  0  0  0  0  0  0  0
   26.4820   29.7620   49.1050 C   0  0  0  0  0  3  0  0  0  0  0  0
   25.0930   29.5890   49.0740 C   0  0  0  0  0  0  0  0  0  0  0  0
   24.2160   30.2020   49.1940 H   0  0  0  0  0  0  0  0  0  0  0  0
   24.9130   28.2600   48.8160 N   0  0  0  0  0  0  0  0  0  0  0  0
   26.1020   27.6580   48.6980 N   0  0  0  0  0  0  0  0  0  0  0  0
   24.0020   27.7220   48.7140 H   0  0  0  0  0  0  0  0  0  0  0  0
  1  4  1  6  0  0  0
  1  3  1  0  0  0  0
  1  8  1  0  0  0  0
  1  2  1  0  0  0  0
  2  6  1  0  0  0  0
  3  7  1  1  0  0  0
  3  2  1  0  0  0  0
  5  2  1  0  0  0  0
  8  9  1  0  0  0  0
 10  8  1  0  0  0  0
 11 16  1  0  0  0  0
 11 17  1  0  0  0  0
 12 11  2  0  0  0  0
 13 14  2  0  0  0  0
 13 12  1  0  0  0  0
 14 15  1  0  0  0  0
 15  8  1  0  0  0  0
 15 16  2  0  0  0  0
 18 12  1  0  0  0  0
 19 13  1  0  0  0  0
 20  3  1  0  0  0  0
 21 20  2  0  0  0  0
 22 23  1  0  0  0  0
 22 20  1  0  0  0  0
 23 24  2  0  0  0  0
 24 25  1  0  0  0  0
 24 28  1  0  0  0  0
 25 29  1  0  0  0  0
 26 30  1  0  0  0  0
 26 25  2  0  0  0  0
 27 23  1  0  0  0  0
 27 26  1  0  0  0  0
 30 31  1  0  0  0  0
 32 31  2  0  0  0  0
 32 33  1  0  0  0  0
 34 32  1  0  0  0  0
 35 34  1  0  0  0  0
 35 30  2  0  0  0  0
 36 34  1  0  0  0  0
M  END
>  <minimizedAffinity>
-6.56735325

>  <minimizedRMSD>
1.38088155

$$$$
