
 OpenBabel03252513583D

 26 28  0  0  1  0  0  0  0  0999 V2000
   36.1720   30.0490   50.2940 C   0  0  2  0  0  0  0  0  0  0  0  0
   35.4190   29.2810   51.3070 C   0  0  0  0  0  0  0  0  0  0  0  0
   35.5710   28.6950   49.9680 C   0  0  1  0  0  0  0  0  0  0  0  0
   35.6690   30.9660   49.9010 H   0  0  0  0  0  0  0  0  0  0  0  0
   35.9850   28.8070   52.1520 H   0  0  0  0  0  0  0  0  0  0  0  0
   34.4080   29.6270   51.6040 H   0  0  0  0  0  0  0  0  0  0  0  0
   36.2600   27.8420   49.8280 H   0  0  0  0  0  0  0  0  0  0  0  0
   34.4920   28.7600   48.9550 C   0  0  0  0  0  0  0  0  0  0  0  0
   34.6630   29.2490   47.6540 C   0  0  0  0  0  0  0  0  0  0  0  0
   33.4520   29.1570   47.0000 C   0  0  0  0  0  0  0  0  0  0  0  0
   33.2130   29.4450   45.9740 H   0  0  0  0  0  0  0  0  0  0  0  0
   32.5690   28.6250   47.8830 N   0  0  0  0  0  0  0  0  0  0  0  0
   33.1970   28.3980   49.0280 N   0  0  0  0  0  0  0  0  0  0  0  0
   31.5520   28.4110   47.7380 H   0  0  0  0  0  0  0  0  0  0  0  0
   37.6850   30.0700   50.3130 C   0  0  0  0  0  0  0  0  0  0  0  0
   38.0190   29.0470   50.1350 H   0  0  0  0  0  0  0  0  0  0  0  0
   38.0460   30.4760   51.2930 H   0  0  0  0  0  0  0  0  0  0  0  0
   38.9000   33.0340   48.4800 C   0  0  0  0  0  0  0  0  0  0  0  0
   38.9170   32.5970   47.1540 C   0  0  0  0  0  0  0  0  0  0  0  0
   38.5070   31.2750   46.8950 C   0  0  0  0  0  0  0  0  0  0  0  0
   38.1240   30.5240   47.9660 N   0  0  0  0  0  0  0  0  0  0  0  0
   38.1210   30.9780   49.2320 C   0  0  0  0  0  0  0  0  0  0  0  0
   38.5130   32.2390   49.4700 N   0  0  0  0  0  0  0  0  0  0  0  0
   39.2290   34.0550   48.5840 H   0  0  0  0  0  0  0  0  0  0  0  0
   39.2100   33.1500   46.2720 H   0  0  0  0  0  0  0  0  0  0  0  0
   38.4640   30.7930   45.9230 H   0  0  0  0  0  0  0  0  0  0  0  0
  1  4  1  6  0  0  0
  1 15  1  0  0  0  0
  1  2  1  0  0  0  0
  2  6  1  0  0  0  0
  2  5  1  0  0  0  0
  3  7  1  6  0  0  0
  3  1  1  0  0  0  0
  3  2  1  0  0  0  0
  8 13  2  0  0  0  0
  8  3  1  0  0  0  0
  9  8  1  0  0  0  0
 10  9  2  0  0  0  0
 10 12  1  0  0  0  0
 11 10  1  0  0  0  0
 12 13  1  0  0  0  0
 14 12  1  0  0  0  0
 15 17  1  0  0  0  0
 16 15  1  0  0  0  0
 18 24  1  0  0  0  0
 18 23  1  0  0  0  0
 19 18  2  0  0  0  0
 20 19  1  0  0  0  0
 20 21  2  0  0  0  0
 21 22  1  0  0  0  0
 22 23  2  0  0  0  0
 22 15  1  0  0  0  0
 25 19  1  0  0  0  0
 26 20  1  0  0  0  0
M  END
>  <minimizedAffinity>
-5.12550497

>  <minimizedRMSD>
1.34841168

$$$$
