
 OpenBabel03252514053D

 36 39  0  0  1  0  0  0  0  0999 V2000
   35.1850   29.2770   48.7210 C   0  0  2  0  0  0  0  0  0  0  0  0
   34.0400   29.3410   49.6230 C   0  0  0  0  0  0  0  0  0  0  0  0
   34.3530   28.0240   49.1520 C   0  0  1  0  0  0  0  0  0  0  0  0
   35.1600   29.4430   47.6430 H   0  0  0  0  0  0  0  0  0  0  0  0
   33.1020   29.8600   49.2710 H   0  0  0  0  0  0  0  0  0  0  0  0
   34.2530   29.6740   50.6810 H   0  0  0  0  0  0  0  0  0  0  0  0
   34.9600   27.2590   49.6360 H   0  0  0  0  0  0  0  0  0  0  0  0
   36.5700   29.2530   49.3930 C   0  0  0  0  0  0  0  0  0  0  0  0
   36.4440   29.1980   50.4900 H   0  0  0  0  0  0  0  0  0  0  0  0
   37.1670   28.3910   49.0430 H   0  0  0  0  0  0  0  0  0  0  0  0
   37.6420   32.7430   49.5590 C   0  0  0  0  0  0  0  0  0  0  0  0
   38.5110   32.8520   48.4540 C   0  0  0  0  0  0  0  0  0  0  0  0
   38.7100   31.6960   47.6640 C   0  0  0  0  0  0  0  0  0  0  0  0
   38.0540   30.5470   48.0140 N   0  0  0  0  0  0  0  0  0  0  0  0
   37.2420   30.5010   49.0710 C   0  0  0  0  0  0  0  0  0  0  0  0
   37.0410   31.6080   49.8400 N   0  0  0  0  0  0  0  0  0  0  0  0
   37.4420   33.5800   50.2050 H   0  0  0  0  0  0  0  0  0  0  0  0
   38.9720   33.8060   48.2760 H   0  0  0  0  0  0  0  0  0  0  0  0
   39.3680   31.7910   46.8340 H   0  0  0  0  0  0  0  0  0  0  0  0
   33.4110   27.4680   48.1010 C   0  0  0  0  0  0  0  0  0  0  0  0
   33.6700   26.2380   47.7920 O   0  0  0  0  0  0  0  0  0  0  0  0
   32.3530   28.1440   47.4930 O   0  0  0  0  0  0  0  0  0  0  0  0
   31.0820   28.1610   48.0000 C   0  0  0  0  0  0  0  0  0  0  0  0
   30.6860   27.6350   49.3320 C   0  0  0  0  0  0  0  0  0  0  0  0
   29.3850   27.7330   49.6780 C   0  0  0  0  0  0  0  0  0  0  0  0
   28.4260   28.3090   48.8220 C   0  0  0  0  0  0  0  0  0  0  0  0
   29.4220   28.7880   47.3330 S   0  0  0  0  0  0  0  0  0  0  0  0
   31.4620   27.2090   49.9380 H   0  0  0  0  0  0  0  0  0  0  0  0
   29.0030   27.3810   50.6200 H   0  0  0  0  0  0  0  0  0  0  0  0
   27.0990   28.5480   48.8710 C   0  0  0  0  0  0  0  0  0  0  0  0
   26.4840   29.7590   49.1120 C   0  0  0  0  0  3  0  0  0  0  0  0
   25.0940   29.5840   49.0780 C   0  0  0  0  0  0  0  0  0  0  0  0
   24.2170   30.1950   49.2000 H   0  0  0  0  0  0  0  0  0  0  0  0
   24.9190   28.2560   48.8150 N   0  0  0  0  0  0  0  0  0  0  0  0
   26.1090   27.6570   48.6940 N   0  0  0  0  0  0  0  0  0  0  0  0
   24.0080   27.7160   48.7080 H   0  0  0  0  0  0  0  0  0  0  0  0
  1  4  1  6  0  0  0
  1  3  1  0  0  0  0
  1  8  1  0  0  0  0
  1  2  1  0  0  0  0
  2  6  1  0  0  0  0
  3  2  1  0  0  0  0
  3  7  1  1  0  0  0
  5  2  1  0  0  0  0
  8  9  1  0  0  0  0
 10  8  1  0  0  0  0
 11 16  1  0  0  0  0
 11 17  1  0  0  0  0
 12 11  2  0  0  0  0
 13 14  2  0  0  0  0
 13 12  1  0  0  0  0
 14 15  1  0  0  0  0
 15  8  1  0  0  0  0
 15 16  2  0  0  0  0
 18 12  1  0  0  0  0
 19 13  1  0  0  0  0
 20  3  1  0  0  0  0
 21 20  2  0  0  0  0
 22 23  1  0  0  0  0
 22 20  1  0  0  0  0
 23 24  2  0  0  0  0
 24 25  1  0  0  0  0
 24 28  1  0  0  0  0
 25 29  1  0  0  0  0
 26 30  1  0  0  0  0
 26 25  2  0  0  0  0
 27 23  1  0  0  0  0
 27 26  1  0  0  0  0
 30 31  1  0  0  0  0
 32 31  2  0  0  0  0
 32 33  1  0  0  0  0
 34 32  1  0  0  0  0
 35 34  1  0  0  0  0
 35 30  2  0  0  0  0
 36 34  1  0  0  0  0
M  END
>  <minimizedAffinity>
-6.55508757

>  <minimizedRMSD>
1.36942673

$$$$
