
 OpenBabel03252513583D

 26 28  0  0  1  0  0  0  0  0999 V2000
   35.4610   29.4270   49.1220 C   0  0  2  0  0  0  0  0  0  0  0  0
   34.3860   29.7000   50.0990 C   0  0  0  0  0  0  0  0  0  0  0  0
   34.5650   28.3160   49.6370 C   0  0  1  0  0  0  0  0  0  0  0  0
   35.2910   29.8150   48.0880 H   0  0  0  0  0  0  0  0  0  0  0  0
   34.6720   29.9370   51.1590 H   0  0  0  0  0  0  0  0  0  0  0  0
   33.4780   30.2390   49.7650 H   0  0  0  0  0  0  0  0  0  0  0  0
   35.0050   27.5700   50.3240 H   0  0  0  0  0  0  0  0  0  0  0  0
   33.7040   27.7220   48.5880 C   0  0  0  0  0  0  0  0  0  0  0  0
   32.3070   27.8150   48.5710 C   0  0  0  0  0  3  0  0  0  0  0  0
   31.8470   27.1490   47.4530 C   0  0  0  0  0  0  0  0  0  0  0  0
   30.8160   27.0170   47.1200 H   0  0  0  0  0  0  0  0  0  0  0  0
   32.9400   26.6650   46.8090 N   0  0  0  0  0  0  0  0  0  0  0  0
   34.0230   27.0120   47.4900 N   0  0  0  0  0  0  0  0  0  0  0  0
   32.9790   26.1060   45.9210 H   0  0  0  0  0  0  0  0  0  0  0  0
   36.9010   29.3230   49.5720 C   0  0  0  0  0  0  0  0  0  0  0  0
   37.3090   28.4160   49.1240 H   0  0  0  0  0  0  0  0  0  0  0  0
   36.9490   29.3080   50.6920 H   0  0  0  0  0  0  0  0  0  0  0  0
   38.4060   32.6880   49.3860 C   0  0  0  0  0  0  0  0  0  0  0  0
   38.9090   32.7340   48.0840 C   0  0  0  0  0  0  0  0  0  0  0  0
   38.7270   31.5990   47.2700 C   0  0  0  0  0  0  0  0  0  0  0  0
   38.0700   30.5400   47.8220 N   0  0  0  0  0  0  0  0  0  0  0  0
   37.5980   30.5300   49.0830 C   0  0  0  0  0  0  0  0  0  0  0  0
   37.7770   31.6150   49.8500 N   0  0  0  0  0  0  0  0  0  0  0  0
   38.5920   33.5970   49.9330 H   0  0  0  0  0  0  0  0  0  0  0  0
   39.4350   33.5450   47.5990 H   0  0  0  0  0  0  0  0  0  0  0  0
   39.0570   31.4840   46.2430 H   0  0  0  0  0  0  0  0  0  0  0  0
  1  4  1  6  0  0  0
  1 15  1  0  0  0  0
  1  3  1  0  0  0  0
  1  2  1  0  0  0  0
  2  5  1  0  0  0  0
  3  2  1  0  0  0  0
  3  7  1  1  0  0  0
  6  2  1  0  0  0  0
  8  3  1  0  0  0  0
  9  8  1  0  0  0  0
 10  9  2  0  0  0  0
 11 10  1  0  0  0  0
 12 10  1  0  0  0  0
 12 13  1  0  0  0  0
 13  8  2  0  0  0  0
 14 12  1  0  0  0  0
 15 17  1  0  0  0  0
 16 15  1  0  0  0  0
 18 23  1  0  0  0  0
 18 24  1  0  0  0  0
 19 18  2  0  0  0  0
 20 21  2  0  0  0  0
 20 19  1  0  0  0  0
 21 22  1  0  0  0  0
 22 15  1  0  0  0  0
 22 23  2  0  0  0  0
 25 19  1  0  0  0  0
 26 20  1  0  0  0  0
M  END
>  <minimizedAffinity>
-4.84210253

>  <minimizedRMSD>
0.801001906

$$$$
