
 OpenBabel03252513583D

 26 28  0  0  1  0  0  0  0  0999 V2000
   35.3860   29.4540   49.1660 C   0  0  2  0  0  0  0  0  0  0  0  0
   34.2930   29.5390   50.1570 C   0  0  0  0  0  0  0  0  0  0  0  0
   34.5210   28.2500   49.4890 C   0  0  1  0  0  0  0  0  0  0  0  0
   35.2150   29.9920   48.2020 H   0  0  0  0  0  0  0  0  0  0  0  0
   34.5590   29.6170   51.2440 H   0  0  0  0  0  0  0  0  0  0  0  0
   33.3710   30.0960   49.8960 H   0  0  0  0  0  0  0  0  0  0  0  0
   34.9780   27.4200   50.0590 H   0  0  0  0  0  0  0  0  0  0  0  0
   33.6920   27.8000   48.3470 C   0  0  0  0  0  0  0  0  0  0  0  0
   33.8930   26.6000   47.6530 C   0  0  0  0  0  3  0  0  0  0  0  0
   32.9390   26.5150   46.6590 C   0  0  0  0  0  0  0  0  0  0  0  0
   32.7940   25.7190   45.9270 H   0  0  0  0  0  0  0  0  0  0  0  0
   32.1790   27.6360   46.7500 N   0  0  0  0  0  0  0  0  0  0  0  0
   32.6360   28.3800   47.7480 N   0  0  0  0  0  0  0  0  0  0  0  0
   31.3580   27.9170   46.1590 H   0  0  0  0  0  0  0  0  0  0  0  0
   36.8240   29.3260   49.6170 C   0  0  0  0  0  0  0  0  0  0  0  0
   37.2130   28.4060   49.1790 H   0  0  0  0  0  0  0  0  0  0  0  0
   36.8720   29.3210   50.7370 H   0  0  0  0  0  0  0  0  0  0  0  0
   38.4080   32.6520   49.3990 C   0  0  0  0  0  0  0  0  0  0  0  0
   38.9000   32.6790   48.0920 C   0  0  0  0  0  0  0  0  0  0  0  0
   38.6820   31.5450   47.2860 C   0  0  0  0  0  0  0  0  0  0  0  0
   38.0050   30.5050   47.8500 N   0  0  0  0  0  0  0  0  0  0  0  0
   37.5460   30.5120   49.1150 C   0  0  0  0  0  0  0  0  0  0  0  0
   37.7570   31.5970   49.8750 N   0  0  0  0  0  0  0  0  0  0  0  0
   38.6200   33.5580   49.9400 H   0  0  0  0  0  0  0  0  0  0  0  0
   39.4410   33.4750   47.5980 H   0  0  0  0  0  0  0  0  0  0  0  0
   39.0010   31.4160   46.2570 H   0  0  0  0  0  0  0  0  0  0  0  0
  1  4  1  6  0  0  0
  1  3  1  0  0  0  0
  1 15  1  0  0  0  0
  1  2  1  0  0  0  0
  2  5  1  0  0  0  0
  3  7  1  1  0  0  0
  3  2  1  0  0  0  0
  6  2  1  0  0  0  0
  8  3  1  0  0  0  0
  9  8  1  0  0  0  0
 10 12  1  0  0  0  0
 10  9  2  0  0  0  0
 11 10  1  0  0  0  0
 12 13  1  0  0  0  0
 13  8  2  0  0  0  0
 14 12  1  0  0  0  0
 15 17  1  0  0  0  0
 16 15  1  0  0  0  0
 18 23  1  0  0  0  0
 18 24  1  0  0  0  0
 19 18  2  0  0  0  0
 20 21  2  0  0  0  0
 20 19  1  0  0  0  0
 21 22  1  0  0  0  0
 22 15  1  0  0  0  0
 22 23  2  0  0  0  0
 25 19  1  0  0  0  0
 26 20  1  0  0  0  0
M  END
>  <minimizedAffinity>
-4.83381271

>  <minimizedRMSD>
0.186527595

$$$$
