
 OpenBabel03252513583D

 26 28  0  0  1  0  0  0  0  0999 V2000
   35.4050   29.4460   49.1540 C   0  0  2  0  0  0  0  0  0  0  0  0
   34.3340   29.5690   50.1640 C   0  0  0  0  0  0  0  0  0  0  0  0
   34.5320   28.2610   49.5230 C   0  0  1  0  0  0  0  0  0  0  0  0
   35.2210   29.9630   48.1810 H   0  0  0  0  0  0  0  0  0  0  0  0
   34.6230   29.6700   51.2440 H   0  0  0  0  0  0  0  0  0  0  0  0
   33.4140   30.1310   49.9080 H   0  0  0  0  0  0  0  0  0  0  0  0
   34.9900   27.4400   50.1030 H   0  0  0  0  0  0  0  0  0  0  0  0
   33.6730   27.7950   48.4090 C   0  0  0  0  0  0  0  0  0  0  0  0
   33.8990   26.6210   47.6810 C   0  0  0  0  0  3  0  0  0  0  0  0
   32.9060   26.5100   46.7280 C   0  0  0  0  0  0  0  0  0  0  0  0
   32.7650   25.7230   45.9850 H   0  0  0  0  0  0  0  0  0  0  0  0
   32.0990   27.5920   46.8770 N   0  0  0  0  0  0  0  0  0  0  0  0
   32.5660   28.3370   47.8700 N   0  0  0  0  0  0  0  0  0  0  0  0
   31.2410   27.8450   46.3290 H   0  0  0  0  0  0  0  0  0  0  0  0
   36.8510   29.3090   49.5780 C   0  0  0  0  0  0  0  0  0  0  0  0
   37.2330   28.3990   49.1140 H   0  0  0  0  0  0  0  0  0  0  0  0
   36.9160   29.2800   50.6970 H   0  0  0  0  0  0  0  0  0  0  0  0
   38.4040   32.6520   49.3980 C   0  0  0  0  0  0  0  0  0  0  0  0
   38.9020   32.6950   48.0940 C   0  0  0  0  0  0  0  0  0  0  0  0
   38.6990   31.5660   47.2770 C   0  0  0  0  0  0  0  0  0  0  0  0
   38.0290   30.5150   47.8280 N   0  0  0  0  0  0  0  0  0  0  0  0
   37.5630   30.5070   49.0900 C   0  0  0  0  0  0  0  0  0  0  0  0
   37.7600   31.5870   49.8610 N   0  0  0  0  0  0  0  0  0  0  0  0
   38.6040   33.5560   49.9470 H   0  0  0  0  0  0  0  0  0  0  0  0
   39.4370   33.5010   47.6100 H   0  0  0  0  0  0  0  0  0  0  0  0
   39.0240   31.4500   46.2480 H   0  0  0  0  0  0  0  0  0  0  0  0
  1  4  1  6  0  0  0
  1  3  1  0  0  0  0
  1 15  1  0  0  0  0
  1  2  1  0  0  0  0
  2  5  1  0  0  0  0
  3  7  1  1  0  0  0
  3  2  1  0  0  0  0
  6  2  1  0  0  0  0
  8  3  1  0  0  0  0
  9  8  1  0  0  0  0
 10 12  1  0  0  0  0
 10  9  2  0  0  0  0
 11 10  1  0  0  0  0
 12 13  1  0  0  0  0
 13  8  2  0  0  0  0
 14 12  1  0  0  0  0
 15 17  1  0  0  0  0
 16 15  1  0  0  0  0
 18 23  1  0  0  0  0
 18 24  1  0  0  0  0
 19 18  2  0  0  0  0
 20 21  2  0  0  0  0
 20 19  1  0  0  0  0
 21 22  1  0  0  0  0
 22 15  1  0  0  0  0
 22 23  2  0  0  0  0
 25 19  1  0  0  0  0
 26 20  1  0  0  0  0
M  END
>  <minimizedAffinity>
-4.82532549

>  <minimizedRMSD>
0.28126806

$$$$
