
 OpenBabel03252514053D

 36 39  0  0  1  0  0  0  0  0999 V2000
   35.1750   29.2740   48.7380 C   0  0  2  0  0  0  0  0  0  0  0  0
   34.0370   29.3160   49.6520 C   0  0  0  0  0  0  0  0  0  0  0  0
   34.3530   28.0090   49.1550 C   0  0  1  0  0  0  0  0  0  0  0  0
   35.1390   29.4580   47.6630 H   0  0  0  0  0  0  0  0  0  0  0  0
   33.0930   29.8360   49.3160 H   0  0  0  0  0  0  0  0  0  0  0  0
   34.2580   29.6320   50.7130 H   0  0  0  0  0  0  0  0  0  0  0  0
   34.9690   27.2390   49.6200 H   0  0  0  0  0  0  0  0  0  0  0  0
   36.5650   29.2460   49.3980 C   0  0  0  0  0  0  0  0  0  0  0  0
   36.4500   29.1870   50.4960 H   0  0  0  0  0  0  0  0  0  0  0  0
   37.1580   28.3850   49.0390 H   0  0  0  0  0  0  0  0  0  0  0  0
   37.6320   32.7370   49.5600 C   0  0  0  0  0  0  0  0  0  0  0  0
   38.5010   32.8470   48.4550 C   0  0  0  0  0  0  0  0  0  0  0  0
   38.7030   31.6900   47.6660 C   0  0  0  0  0  0  0  0  0  0  0  0
   38.0480   30.5410   48.0170 N   0  0  0  0  0  0  0  0  0  0  0  0
   37.2350   30.4940   49.0740 C   0  0  0  0  0  0  0  0  0  0  0  0
   37.0330   31.6020   49.8420 N   0  0  0  0  0  0  0  0  0  0  0  0
   37.4310   33.5760   50.2040 H   0  0  0  0  0  0  0  0  0  0  0  0
   38.9610   33.8010   48.2760 H   0  0  0  0  0  0  0  0  0  0  0  0
   39.3600   31.7850   46.8360 H   0  0  0  0  0  0  0  0  0  0  0  0
   33.4040   27.4660   48.1020 C   0  0  0  0  0  0  0  0  0  0  0  0
   33.6540   26.2370   47.7850 O   0  0  0  0  0  0  0  0  0  0  0  0
   32.3500   28.1530   47.5010 O   0  0  0  0  0  0  0  0  0  0  0  0
   31.0780   28.1690   48.0060 C   0  0  0  0  0  0  0  0  0  0  0  0
   30.6800   27.6360   49.3340 C   0  0  0  0  0  0  0  0  0  0  0  0
   29.3780   27.7330   49.6790 C   0  0  0  0  0  0  0  0  0  0  0  0
   28.4200   28.3130   48.8240 C   0  0  0  0  0  0  0  0  0  0  0  0
   29.4190   28.8000   47.3390 S   0  0  0  0  0  0  0  0  0  0  0  0
   31.4540   27.2060   49.9400 H   0  0  0  0  0  0  0  0  0  0  0  0
   28.9930   27.3760   50.6180 H   0  0  0  0  0  0  0  0  0  0  0  0
   27.0940   28.5520   48.8710 C   0  0  0  0  0  0  0  0  0  0  0  0
   26.4780   29.7640   49.1080 C   0  0  0  0  0  3  0  0  0  0  0  0
   25.0890   29.5890   49.0750 C   0  0  0  0  0  0  0  0  0  0  0  0
   24.2100   30.2010   49.1940 H   0  0  0  0  0  0  0  0  0  0  0  0
   24.9140   28.2590   48.8160 N   0  0  0  0  0  0  0  0  0  0  0  0
   26.1040   27.6610   48.6990 N   0  0  0  0  0  0  0  0  0  0  0  0
   24.0020   27.7200   48.7110 H   0  0  0  0  0  0  0  0  0  0  0  0
  1  4  1  6  0  0  0
  1  3  1  0  0  0  0
  1  8  1  0  0  0  0
  1  2  1  0  0  0  0
  2  6  1  0  0  0  0
  3  7  1  1  0  0  0
  3  2  1  0  0  0  0
  5  2  1  0  0  0  0
  8  9  1  0  0  0  0
 10  8  1  0  0  0  0
 11 16  1  0  0  0  0
 11 17  1  0  0  0  0
 12 11  2  0  0  0  0
 13 14  2  0  0  0  0
 13 12  1  0  0  0  0
 14 15  1  0  0  0  0
 15  8  1  0  0  0  0
 15 16  2  0  0  0  0
 18 12  1  0  0  0  0
 19 13  1  0  0  0  0
 20  3  1  0  0  0  0
 21 20  2  0  0  0  0
 22 23  1  0  0  0  0
 22 20  1  0  0  0  0
 23 24  2  0  0  0  0
 24 25  1  0  0  0  0
 24 28  1  0  0  0  0
 25 29  1  0  0  0  0
 26 30  1  0  0  0  0
 26 25  2  0  0  0  0
 27 23  1  0  0  0  0
 27 26  1  0  0  0  0
 30 31  1  0  0  0  0
 32 31  2  0  0  0  0
 32 33  1  0  0  0  0
 34 32  1  0  0  0  0
 35 34  1  0  0  0  0
 35 30  2  0  0  0  0
 36 34  1  0  0  0  0
M  END
>  <minimizedAffinity>
-6.56133032

>  <minimizedRMSD>
1.39576876

$$$$
