
 OpenBabel03252513573D

 26 28  0  0  1  0  0  0  0  0999 V2000
   35.3870   29.4540   49.1660 C   0  0  2  0  0  0  0  0  0  0  0  0
   34.2930   29.5390   50.1560 C   0  0  0  0  0  0  0  0  0  0  0  0
   34.5220   28.2490   49.4890 C   0  0  1  0  0  0  0  0  0  0  0  0
   35.2160   29.9910   48.2020 H   0  0  0  0  0  0  0  0  0  0  0  0
   34.5590   29.6180   51.2440 H   0  0  0  0  0  0  0  0  0  0  0  0
   33.3710   30.0950   49.8950 H   0  0  0  0  0  0  0  0  0  0  0  0
   34.9790   27.4200   50.0590 H   0  0  0  0  0  0  0  0  0  0  0  0
   33.6930   27.7990   48.3470 C   0  0  0  0  0  0  0  0  0  0  0  0
   33.8940   26.6000   47.6530 C   0  0  0  0  0  3  0  0  0  0  0  0
   32.9410   26.5150   46.6590 C   0  0  0  0  0  0  0  0  0  0  0  0
   32.7960   25.7180   45.9260 H   0  0  0  0  0  0  0  0  0  0  0  0
   32.1800   27.6350   46.7490 N   0  0  0  0  0  0  0  0  0  0  0  0
   32.6360   28.3800   47.7480 N   0  0  0  0  0  0  0  0  0  0  0  0
   31.3590   27.9150   46.1580 H   0  0  0  0  0  0  0  0  0  0  0  0
   36.8250   29.3260   49.6170 C   0  0  0  0  0  0  0  0  0  0  0  0
   37.2140   28.4060   49.1800 H   0  0  0  0  0  0  0  0  0  0  0  0
   36.8720   29.3220   50.7370 H   0  0  0  0  0  0  0  0  0  0  0  0
   38.4090   32.6520   49.3990 C   0  0  0  0  0  0  0  0  0  0  0  0
   38.9000   32.6790   48.0920 C   0  0  0  0  0  0  0  0  0  0  0  0
   38.6830   31.5450   47.2860 C   0  0  0  0  0  0  0  0  0  0  0  0
   38.0060   30.5050   47.8500 N   0  0  0  0  0  0  0  0  0  0  0  0
   37.5460   30.5130   49.1150 C   0  0  0  0  0  0  0  0  0  0  0  0
   37.7580   31.5970   49.8750 N   0  0  0  0  0  0  0  0  0  0  0  0
   38.6210   33.5590   49.9400 H   0  0  0  0  0  0  0  0  0  0  0  0
   39.4410   33.4750   47.5990 H   0  0  0  0  0  0  0  0  0  0  0  0
   39.0010   31.4160   46.2570 H   0  0  0  0  0  0  0  0  0  0  0  0
  1  4  1  6  0  0  0
  1  3  1  0  0  0  0
  1 15  1  0  0  0  0
  1  2  1  0  0  0  0
  2  5  1  0  0  0  0
  3  7  1  1  0  0  0
  3  2  1  0  0  0  0
  6  2  1  0  0  0  0
  8  3  1  0  0  0  0
  9  8  1  0  0  0  0
 10 12  1  0  0  0  0
 10  9  2  0  0  0  0
 11 10  1  0  0  0  0
 12 13  1  0  0  0  0
 13  8  2  0  0  0  0
 14 12  1  0  0  0  0
 15 17  1  0  0  0  0
 16 15  1  0  0  0  0
 18 23  1  0  0  0  0
 18 24  1  0  0  0  0
 19 18  2  0  0  0  0
 20 21  2  0  0  0  0
 20 19  1  0  0  0  0
 21 22  1  0  0  0  0
 22 15  1  0  0  0  0
 22 23  2  0  0  0  0
 25 19  1  0  0  0  0
 26 20  1  0  0  0  0
M  END
>  <minimizedAffinity>
-4.83394957

>  <minimizedRMSD>
0.450901508

$$$$
