
 OpenBabel03252514053D

 36 39  0  0  1  0  0  0  0  0999 V2000
   35.2060   29.2320   48.7020 C   0  0  2  0  0  0  0  0  0  0  0  0
   34.0330   29.2050   49.5700 C   0  0  0  0  0  0  0  0  0  0  0  0
   34.4210   27.9250   49.0540 C   0  0  1  0  0  0  0  0  0  0  0  0
   35.2040   29.4440   47.6310 H   0  0  0  0  0  0  0  0  0  0  0  0
   33.0820   29.6960   49.2100 H   0  0  0  0  0  0  0  0  0  0  0  0
   34.1990   29.5010   50.6470 H   0  0  0  0  0  0  0  0  0  0  0  0
   35.0490   27.1680   49.5240 H   0  0  0  0  0  0  0  0  0  0  0  0
   36.5690   29.2420   49.4160 C   0  0  0  0  0  0  0  0  0  0  0  0
   36.4120   29.2120   50.5090 H   0  0  0  0  0  0  0  0  0  0  0  0
   37.1880   28.3800   49.1040 H   0  0  0  0  0  0  0  0  0  0  0  0
   37.6310   32.7360   49.5580 C   0  0  0  0  0  0  0  0  0  0  0  0
   38.4940   32.8420   48.4490 C   0  0  0  0  0  0  0  0  0  0  0  0
   38.6940   31.6830   47.6630 C   0  0  0  0  0  0  0  0  0  0  0  0
   38.0430   30.5340   48.0220 N   0  0  0  0  0  0  0  0  0  0  0  0
   37.2360   30.4900   49.0830 C   0  0  0  0  0  0  0  0  0  0  0  0
   37.0360   31.6010   49.8480 N   0  0  0  0  0  0  0  0  0  0  0  0
   37.4320   33.5760   50.2010 H   0  0  0  0  0  0  0  0  0  0  0  0
   38.9520   33.7970   48.2630 H   0  0  0  0  0  0  0  0  0  0  0  0
   39.3470   31.7760   46.8290 H   0  0  0  0  0  0  0  0  0  0  0  0
   33.5360   27.3740   47.9510 C   0  0  0  0  0  0  0  0  0  0  0  0
   33.9330   26.2210   47.5170 O   0  0  0  0  0  0  0  0  0  0  0  0
   32.4010   27.9800   47.4160 O   0  0  0  0  0  0  0  0  0  0  0  0
   31.1660   27.9140   48.0030 C   0  0  0  0  0  0  0  0  0  0  0  0
   30.8340   27.1090   49.2060 C   0  0  0  0  0  0  0  0  0  0  0  0
   29.5630   27.1590   49.6580 C   0  0  0  0  0  0  0  0  0  0  0  0
   28.5760   27.9390   49.0250 C   0  0  0  0  0  0  0  0  0  0  0  0
   29.4940   28.7190   47.6150 S   0  0  0  0  0  0  0  0  0  0  0  0
   31.6290   26.5360   49.6450 H   0  0  0  0  0  0  0  0  0  0  0  0
   29.2270   26.6110   50.5210 H   0  0  0  0  0  0  0  0  0  0  0  0
   27.2660   28.1940   49.2200 C   0  0  0  0  0  0  0  0  0  0  0  0
   26.3490   28.5940   48.2710 C   0  0  0  0  0  3  0  0  0  0  0  0
   25.0970   28.7530   48.8780 C   0  0  0  0  0  0  0  0  0  0  0  0
   24.1030   29.0380   48.5800 H   0  0  0  0  0  0  0  0  0  0  0  0
   25.3060   28.4410   50.1910 N   0  0  0  0  0  0  0  0  0  0  0  0
   26.5890   28.1120   50.3790 N   0  0  0  0  0  0  0  0  0  0  0  0
   24.6050   28.4360   50.9900 H   0  0  0  0  0  0  0  0  0  0  0  0
  1  4  1  6  0  0  0
  1  3  1  0  0  0  0
  1  8  1  0  0  0  0
  1  2  1  0  0  0  0
  2  6  1  0  0  0  0
  3  7  1  1  0  0  0
  3  2  1  0  0  0  0
  5  2  1  0  0  0  0
  8  9  1  0  0  0  0
 10  8  1  0  0  0  0
 11 16  1  0  0  0  0
 11 17  1  0  0  0  0
 12 11  2  0  0  0  0
 13 14  2  0  0  0  0
 13 12  1  0  0  0  0
 14 15  1  0  0  0  0
 15  8  1  0  0  0  0
 15 16  2  0  0  0  0
 18 12  1  0  0  0  0
 19 13  1  0  0  0  0
 20  3  1  0  0  0  0
 21 20  2  0  0  0  0
 22 20  1  0  0  0  0
 22 23  1  0  0  0  0
 23 24  2  0  0  0  0
 24 28  1  0  0  0  0
 24 25  1  0  0  0  0
 25 29  1  0  0  0  0
 26 30  1  0  0  0  0
 26 25  2  0  0  0  0
 27 23  1  0  0  0  0
 27 26  1  0  0  0  0
 30 35  2  0  0  0  0
 31 32  2  0  0  0  0
 31 30  1  0  0  0  0
 32 34  1  0  0  0  0
 33 32  1  0  0  0  0
 34 35  1  0  0  0  0
 34 36  1  0  0  0  0
M  END
>  <minimizedAffinity>
-6.30000877

>  <minimizedRMSD>
1.33240569

$$$$
