
 OpenBabel03252512273D

 35 38  0  0  1  0  0  0  0  0999 V2000
   31.4200   28.4380   46.4700 C   0  0  2  0  0  0  0  0  0  0  0  0
   31.8540   27.8350   45.6230 H   0  0  0  0  0  0  0  0  0  0  0  0
   34.7210   29.2970   48.7370 C   0  0  0  0  0  0  0  0  0  0  0  0
   33.9620   28.2290   49.2260 C   0  0  0  0  0  0  0  0  0  0  0  0
   32.8500   27.8840   48.5250 C   0  0  0  0  0  0  0  0  0  0  0  0
   32.5560   28.5770   47.4280 C   0  0  0  0  0  0  0  0  0  0  0  0
   33.8460   29.8380   47.2420 S   0  0  0  0  0  0  0  0  0  0  0  0
   34.3140   27.7370   50.1460 H   0  0  0  0  0  0  0  0  0  0  0  0
   32.2050   27.0690   48.8310 H   0  0  0  0  0  0  0  0  0  0  0  0
   37.2950   30.2280   51.2060 C   0  0  0  0  0  0  0  0  0  0  0  0
   38.2540   30.8950   50.3930 C   0  0  0  0  0  0  0  0  0  0  0  0
   38.0050   31.0080   49.0400 C   0  0  0  0  0  0  0  0  0  0  0  0
   36.8510   30.4790   48.5310 N   0  0  0  0  0  0  0  0  0  0  0  0
   35.9730   29.8590   49.3330 C   0  0  0  0  0  0  0  0  0  0  0  0
   36.1430   29.7040   50.6820 N   0  0  0  0  0  0  0  0  0  0  0  0
   37.3980   30.0880   52.2760 H   0  0  0  0  0  0  0  0  0  0  0  0
   39.1250   31.2750   50.8750 H   0  0  0  0  0  0  0  0  0  0  0  0
   38.7020   31.4990   48.4010 H   0  0  0  0  0  0  0  0  0  0  0  0
   31.0430   29.7670   45.9580 C   0  0  0  0  0  0  0  0  0  0  0  0
   30.1210   30.2110   46.3620 H   0  0  0  0  0  0  0  0  0  0  0  0
   31.9280   30.4330   46.0220 H   0  0  0  0  0  0  0  0  0  0  0  0
   30.8490   29.6860   44.8480 H   0  0  0  0  0  0  0  0  0  0  0  0
   30.3190   27.6480   47.1110 C   0  0  0  0  0  0  0  0  0  0  0  0
   30.7450   27.1050   47.9650 H   0  0  0  0  0  0  0  0  0  0  0  0
   30.0100   26.8700   46.3550 H   0  0  0  0  0  0  0  0  0  0  0  0
   29.1440   28.3920   47.5340 C   0  0  0  0  0  0  0  0  0  0  0  0
   28.3920   29.3370   46.8650 C   0  0  0  0  0  0  0  0  0  0  0  0
   27.2950   29.9500   47.4270 C   0  0  0  0  0  0  0  0  0  0  0  0
   26.9090   29.6340   48.6940 C   0  0  0  0  0  0  0  0  0  0  0  0
   27.6340   28.6940   49.3950 C   0  0  0  0  0  0  0  0  0  0  0  0
   27.2160   28.3900   50.6870 C   0  0  0  0  0  0  0  0  0  0  0  0
   27.8910   27.4630   51.4450 C   0  0  0  0  0  0  0  0  0  0  0  0
   28.9750   26.8450   50.9110 C   0  0  0  0  0  0  0  0  0  0  0  0
   29.3900   27.1370   49.6470 C   0  0  0  0  0  0  0  0  0  0  0  0
   28.7430   28.0690   48.8380 C   0  0  0  0  0  0  0  0  0  0  0  0
  1  2  1  6  0  0  0
  1 23  1  0  0  0  0
  1  6  1  0  0  0  0
  3  4  2  0  0  0  0
  3 14  1  0  0  0  0
  4  8  1  0  0  0  0
  5  9  1  0  0  0  0
  5  4  1  0  0  0  0
  6  5  2  0  0  0  0
  7  6  1  0  0  0  0
  7  3  1  0  0  0  0
 10 16  1  0  0  0  0
 11 17  1  0  0  0  0
 11 10  2  0  0  0  0
 12 11  1  0  0  0  0
 13 12  2  0  0  0  0
 13 14  1  0  0  0  0
 14 15  2  0  0  0  0
 15 10  1  0  0  0  0
 18 12  1  0  0  0  0
 19 21  1  0  0  0  0
 19 20  1  0  0  0  0
 19  1  1  0  0  0  0
 22 19  1  0  0  0  0
 23 26  1  0  0  0  0
 23 24  1  0  0  0  0
 25 23  1  0  0  0  0
 26 35  1  0  0  0  0
 27 28  1  0  0  0  0
 27 26  2  0  0  0  0
 28 29  2  0  0  0  0
 29 30  1  0  0  0  0
 30 31  1  0  0  0  0
 31 32  2  0  0  0  0
 33 32  1  0  0  0  0
 34 33  2  0  0  0  0
 35 30  2  0  0  0  0
 35 34  1  0  0  0  0
M  END
>  <minimizedAffinity>
-6.7571044

>  <minimizedRMSD>
1.75920534

$$$$
