
 OpenBabel03252514063D

 25 28  0  0  0  0  0  0  0  0999 V2000
   37.8390   31.8530   49.0110 N   0  0  0  0  0  0  0  0  0  0  0  0
   38.2850   33.0250   49.5270 C   0  0  0  0  0  0  0  0  0  0  0  0
   39.1870   33.5460   48.6490 N   0  0  0  0  0  0  0  0  0  0  0  0
   39.2750   32.7020   47.6290 C   0  0  0  0  0  0  0  0  0  0  0  0
   40.0170   32.6940   46.4560 C   0  0  0  0  0  0  0  0  0  0  0  0
   39.9090   31.6760   45.5650 N   0  0  0  0  0  0  0  0  0  0  0  0
   39.0830   30.6310   45.7790 C   0  0  0  0  0  0  0  0  0  0  0  0
   38.3680   30.6490   46.9230 N   0  0  0  0  0  0  0  0  0  0  0  0
   38.4390   31.6290   47.8330 C   0  0  0  0  0  0  0  0  0  0  0  0
   40.8940   33.7580   46.1790 N   0  0  0  0  0  0  0  0  0  0  0  0
   38.0240   33.5250   50.4570 H   0  0  0  0  0  0  0  0  0  0  0  0
   39.0380   29.8460   45.0360 H   0  0  0  0  0  0  0  0  0  0  0  0
   41.7390   33.7830   46.7890 H   0  0  0  0  0  0  0  0  0  0  0  0
   40.8200   34.5280   45.4520 H   0  0  0  0  0  0  0  0  0  0  0  0
   35.5940   30.8940   49.0670 C   0  0  0  0  0  0  0  0  0  0  0  0
   36.8760   31.0200   49.6600 C   0  0  0  0  0  0  0  0  0  0  0  0
   37.0860   30.3120   50.8360 C   0  0  0  0  0  0  0  0  0  0  0  0
   36.0850   29.5500   51.3550 N   0  0  0  0  0  0  0  0  0  0  0  0
   34.8840   29.4620   50.7550 C   0  0  0  0  0  0  0  0  0  0  0  0
   34.6330   30.1350   49.6070 N   0  0  0  0  0  0  0  0  0  0  0  0
   35.3510   31.4180   48.1420 H   0  0  0  0  0  0  0  0  0  0  0  0
   38.0600   30.4060   51.2890 H   0  0  0  0  0  0  0  0  0  0  0  0
   33.7740   28.6330   51.3090 C   0  0  0  0  0  3  0  0  0  0  0  0
   32.3780   29.2090   51.1750 C   0  0  0  0  0  2  0  0  0  0  0  0
   32.8040   28.0690   50.3230 C   0  0  0  0  0  2  0  0  0  0  0  0
  1  2  1  0  0  0  0
  1 16  1  0  0  0  0
  2 11  1  0  0  0  0
  3  2  2  0  0  0  0
  4  9  1  0  0  0  0
  4  3  1  0  0  0  0
  5  4  2  0  0  0  0
  6  7  2  0  0  0  0
  6  5  1  0  0  0  0
  7  8  1  0  0  0  0
  8  9  2  0  0  0  0
  9  1  1  0  0  0  0
 10  5  1  0  0  0  0
 10 13  1  0  0  0  0
 12  7  1  0  0  0  0
 14 10  1  0  0  0  0
 15 20  2  0  0  0  0
 15 16  1  0  0  0  0
 16 17  2  0  0  0  0
 17 22  1  0  0  0  0
 17 18  1  0  0  0  0
 19 23  1  0  0  0  0
 19 18  2  0  0  0  0
 20 19  1  0  0  0  0
 21 15  1  0  0  0  0
 24 23  1  0  0  0  0
 25 24  1  0  0  0  0
 25 23  1  0  0  0  0
M  END
>  <minimizedAffinity>
1.4342891

>  <minimizedRMSD>
0.528874755

$$$$
