
 OpenBabel03252513493D

 19 20  0  0  0  0  0  0  0  0999 V2000
   36.8340   30.7290   46.4900 C   0  0  0  0  0  0  0  0  0  0  0  0
   36.9340   30.4150   47.8740 C   0  0  0  0  0  0  0  0  0  0  0  0
   38.0140   30.9640   48.5700 C   0  0  0  0  0  0  0  0  0  0  0  0
   38.8790   31.7440   47.8950 N   0  0  0  0  0  0  0  0  0  0  0  0
   38.7480   32.0160   46.5880 C   0  0  0  0  0  0  0  0  0  0  0  0
   37.7320   31.5120   45.8870 N   0  0  0  0  0  0  0  0  0  0  0  0
   36.2290   29.7940   48.3730 H   0  0  0  0  0  0  0  0  0  0  0  0
   39.7990   32.9030   45.9910 C   0  0  0  0  0  0  0  0  0  0  0  0
   40.2320   33.8330   46.9520 F   0  0  0  0  0  0  0  0  0  0  0  0
   40.9090   32.1620   45.6860 F   0  0  0  0  0  0  0  0  0  0  0  0
   39.3760   33.5440   44.8530 F   0  0  0  0  0  0  0  0  0  0  0  0
   38.1940   30.6880   50.0130 C   0  0  0  0  0  0  0  0  0  0  0  0
   36.9170   30.9640   50.8260 C   0  0  0  0  0  0  0  0  0  0  0  0
   37.5050   29.5930   50.6970 C   0  0  0  0  0  0  0  0  0  0  0  0
   35.7660   30.1890   45.7950 O   0  0  0  0  0  0  0  0  0  0  0  0
   34.5530   29.8090   46.3670 C   0  0  0  0  0  0  0  0  0  0  0  0
   34.5870   28.5540   46.9440 F   0  0  0  0  0  0  0  0  0  0  0  0
   34.0170   30.7340   47.2210 F   0  0  0  0  0  0  0  0  0  0  0  0
   33.6710   29.7020   45.2790 F   0  0  0  0  0  0  0  0  0  0  0  0
  1  2  1  0  0  0  0
  2  7  1  0  0  0  0
  2  3  2  0  0  0  0
  3 12  1  0  0  0  0
  4  3  1  0  0  0  0
  5  4  2  0  0  0  0
  6  1  2  0  0  0  0
  6  5  1  0  0  0  0
  8  5  1  0  0  0  0
  8  9  1  0  0  0  0
 10  8  1  0  0  0  0
 11  8  1  0  0  0  0
 12 14  1  0  0  0  0
 12 13  1  0  0  0  0
 14 13  1  0  0  0  0
 15 16  1  0  0  0  0
 15  1  1  0  0  0  0
 16 17  1  0  0  0  0
 16 18  1  0  0  0  0
 19 16  1  0  0  0  0
M  END
>  <minimizedAffinity>
-5.46661711

>  <minimizedRMSD>
3.08693743

$$$$
