
 OpenBabel03252514053D

 32 35  0  0  1  0  0  0  0  0999 V2000
   35.2670   29.1990   48.6000 C   0  0  2  0  0  0  0  0  0  0  0  0
   34.0520   29.3330   49.3980 C   0  0  0  0  0  0  0  0  0  0  0  0
   34.4050   27.9820   49.0700 C   0  0  1  0  0  0  0  0  0  0  0  0
   35.3640   29.3710   47.5290 H   0  0  0  0  0  0  0  0  0  0  0  0
   33.1790   29.8390   48.9040 H   0  0  0  0  0  0  0  0  0  0  0  0
   34.1350   29.6980   50.4590 H   0  0  0  0  0  0  0  0  0  0  0  0
   34.9720   27.2700   49.6760 H   0  0  0  0  0  0  0  0  0  0  0  0
   36.5910   29.2410   49.3810 C   0  0  0  0  0  0  0  0  0  0  0  0
   36.3710   29.2340   50.4660 H   0  0  0  0  0  0  0  0  0  0  0  0
   37.2000   28.3410   49.1770 H   0  0  0  0  0  0  0  0  0  0  0  0
   37.6410   32.7370   49.5640 C   0  0  0  0  0  0  0  0  0  0  0  0
   38.5060   32.8520   48.4540 C   0  0  0  0  0  0  0  0  0  0  0  0
   38.7130   31.7040   47.6550 C   0  0  0  0  0  0  0  0  0  0  0  0
   38.0630   30.5510   48.0040 N   0  0  0  0  0  0  0  0  0  0  0  0
   37.2550   30.4980   49.0660 C   0  0  0  0  0  0  0  0  0  0  0  0
   37.0510   31.5980   49.8410 N   0  0  0  0  0  0  0  0  0  0  0  0
   37.5200   33.6450   50.1400 H   0  0  0  0  0  0  0  0  0  0  0  0
   39.0110   33.7640   48.1900 H   0  0  0  0  0  0  0  0  0  0  0  0
   39.3710   31.7700   46.8010 H   0  0  0  0  0  0  0  0  0  0  0  0
   33.5540   27.3240   48.0060 C   0  0  0  0  0  0  0  0  0  0  0  0
   33.8970   26.0980   47.7700 O   0  0  0  0  0  0  0  0  0  0  0  0
   32.4940   27.9140   47.3170 O   0  0  0  0  0  0  0  0  0  0  0  0
   31.2500   28.0790   47.8440 C   0  0  0  0  0  0  0  0  0  0  0  0
   30.8460   27.5950   49.1780 C   0  0  0  0  0  0  0  0  0  0  0  0
   29.5840   27.8070   49.6260 C   0  0  0  0  0  0  0  0  0  0  0  0
   28.6540   28.4950   48.7990 C   0  0  0  0  0  0  0  0  0  0  0  0
   29.6410   28.8770   47.2660 S   0  0  0  0  0  0  0  0  0  0  0  0
   31.5770   27.0770   49.7760 H   0  0  0  0  0  0  0  0  0  0  0  0
   29.1960   27.4970   50.5760 H   0  0  0  0  0  0  0  0  0  0  0  0
   27.3440   28.9020   48.8540 C   0  0  0  0  0  3  0  0  0  0  0  0
   26.4120   28.3780   49.8970 C   0  0  0  0  0  2  0  0  0  0  0  0
   26.2480   27.8390   48.5260 C   0  0  0  0  0  2  0  0  0  0  0  0
  1  4  1  6  0  0  0
  1  3  1  0  0  0  0
  1  8  1  0  0  0  0
  1  2  1  0  0  0  0
  2  6  1  0  0  0  0
  3  2  1  0  0  0  0
  3  7  1  1  0  0  0
  5  2  1  0  0  0  0
  8  9  1  0  0  0  0
 10  8  1  0  0  0  0
 11 16  1  0  0  0  0
 11 17  1  0  0  0  0
 12 11  2  0  0  0  0
 13 14  2  0  0  0  0
 13 12  1  0  0  0  0
 14 15  1  0  0  0  0
 15  8  1  0  0  0  0
 15 16  2  0  0  0  0
 18 12  1  0  0  0  0
 19 13  1  0  0  0  0
 20  3  1  0  0  0  0
 21 20  2  0  0  0  0
 22 23  1  0  0  0  0
 22 20  1  0  0  0  0
 23 24  2  0  0  0  0
 24 25  1  0  0  0  0
 24 28  1  0  0  0  0
 25 29  1  0  0  0  0
 26 30  1  0  0  0  0
 26 25  2  0  0  0  0
 27 23  1  0  0  0  0
 27 26  1  0  0  0  0
 30 31  1  0  0  0  0
 32 30  1  0  0  0  0
 32 31  1  0  0  0  0
M  END
>  <minimizedAffinity>
-5.69517851

>  <minimizedRMSD>
1.1251874

$$$$
