
 OpenBabel03252514063D

 25 28  0  0  0  0  0  0  0  0999 V2000
   38.0960   31.8290   45.7130 N   0  0  0  0  0  0  0  0  0  0  0  0
   39.2000   32.6090   45.8190 C   0  0  0  0  0  0  0  0  0  0  0  0
   39.4310   33.1670   44.5980 N   0  0  0  0  0  0  0  0  0  0  0  0
   38.4820   32.7280   43.7800 C   0  0  0  0  0  0  0  0  0  0  0  0
   38.2010   32.9460   42.4380 C   0  0  0  0  0  0  0  0  0  0  0  0
   37.1370   32.3520   41.8390 N   0  0  0  0  0  0  0  0  0  0  0  0
   36.3110   31.5280   42.5170 C   0  0  0  0  0  0  0  0  0  0  0  0
   36.5950   31.3240   43.8200 N   0  0  0  0  0  0  0  0  0  0  0  0
   37.6320   31.8860   44.4560 C   0  0  0  0  0  0  0  0  0  0  0  0
   39.0270   33.7960   41.6820 N   0  0  0  0  0  0  0  0  0  0  0  0
   39.8380   32.8070   46.6770 H   0  0  0  0  0  0  0  0  0  0  0  0
   35.4790   31.0810   41.9900 H   0  0  0  0  0  0  0  0  0  0  0  0
   39.9740   33.4060   41.4860 H   0  0  0  0  0  0  0  0  0  0  0  0
   38.8300   34.7620   41.2890 H   0  0  0  0  0  0  0  0  0  0  0  0
   36.2210   30.6000   46.6800 C   0  0  0  0  0  0  0  0  0  0  0  0
   37.5500   31.0810   46.8020 C   0  0  0  0  0  0  0  0  0  0  0  0
   38.2130   30.7780   47.9830 C   0  0  0  0  0  0  0  0  0  0  0  0
   37.5810   30.0540   48.9470 N   0  0  0  0  0  0  0  0  0  0  0  0
   36.3180   29.6200   48.7860 C   0  0  0  0  0  0  0  0  0  0  0  0
   35.6320   29.8910   47.6500 N   0  0  0  0  0  0  0  0  0  0  0  0
   35.6340   30.7960   45.7820 H   0  0  0  0  0  0  0  0  0  0  0  0
   39.2230   31.1420   48.0770 H   0  0  0  0  0  0  0  0  0  0  0  0
   35.6080   28.8260   49.8310 C   0  0  0  0  0  3  0  0  0  0  0  0
   35.5380   29.4470   51.2110 C   0  0  0  0  0  2  0  0  0  0  0  0
   34.3300   29.3980   50.3520 C   0  0  0  0  0  2  0  0  0  0  0  0
  1  2  1  0  0  0  0
  1 16  1  0  0  0  0
  2 11  1  0  0  0  0
  3  2  2  0  0  0  0
  4  9  1  0  0  0  0
  4  3  1  0  0  0  0
  5  4  2  0  0  0  0
  6  5  1  0  0  0  0
  6  7  2  0  0  0  0
  7  8  1  0  0  0  0
  8  9  2  0  0  0  0
  9  1  1  0  0  0  0
 10  5  1  0  0  0  0
 12  7  1  0  0  0  0
 13 10  1  0  0  0  0
 14 10  1  0  0  0  0
 15 16  2  0  0  0  0
 15 20  1  0  0  0  0
 16 17  1  0  0  0  0
 17 22  1  0  0  0  0
 17 18  2  0  0  0  0
 19 18  1  0  0  0  0
 19 23  1  0  0  0  0
 20 19  2  0  0  0  0
 21 15  1  0  0  0  0
 23 25  1  0  0  0  0
 23 24  1  0  0  0  0
 25 24  1  0  0  0  0
M  END
>  <minimizedAffinity>
-5.1426878

>  <minimizedRMSD>
3.44792461

$$$$
