
 OpenBabel03252513453D

 16 17  0  0  0  0  0  0  0  0999 V2000
   37.5950   30.4070   49.0780 C   0  0  0  0  0  0  0  0  0  0  0  0
   37.8360   31.4500   49.9990 C   0  0  0  0  0  0  0  0  0  0  0  0
   38.5150   32.5870   49.5370 C   0  0  0  0  0  0  0  0  0  0  0  0
   38.9030   32.6220   48.2330 N   0  0  0  0  0  0  0  0  0  0  0  0
   38.6440   31.5960   47.3990 C   0  0  0  0  0  0  0  0  0  0  0  0
   38.0050   30.5030   47.7930 N   0  0  0  0  0  0  0  0  0  0  0  0
   37.4870   31.3340   51.0300 H   0  0  0  0  0  0  0  0  0  0  0  0
   38.6990   33.3820   50.2380 H   0  0  0  0  0  0  0  0  0  0  0  0
   39.1140   31.7390   45.9890 C   0  0  0  0  0  0  0  0  0  0  0  0
   40.5370   31.2410   45.6580 C   0  0  0  0  0  0  0  0  0  0  0  0
   40.2130   32.6860   45.6690 C   0  0  0  0  0  0  0  0  0  0  0  0
   36.9310   29.3010   49.5390 O   0  0  0  0  0  0  0  0  0  0  0  0
   35.6670   29.2950   50.1280 C   0  0  0  0  0  0  0  0  0  0  0  0
   35.6920   29.2780   51.5100 F   0  0  0  0  0  0  0  0  0  0  0  0
   34.8540   30.3080   49.6860 F   0  0  0  0  0  0  0  0  0  0  0  0
   35.0450   28.1140   49.7240 F   0  0  0  0  0  0  0  0  0  0  0  0
  1 12  1  0  0  0  0
  1  2  1  0  0  0  0
  2  7  1  0  0  0  0
  3  2  2  0  0  0  0
  3  8  1  0  0  0  0
  4  3  1  0  0  0  0
  5  6  1  0  0  0  0
  5  4  2  0  0  0  0
  6  1  2  0  0  0  0
  9  5  1  0  0  0  0
 10 11  1  0  0  0  0
 10  9  1  0  0  0  0
 11  9  1  0  0  0  0
 12 13  1  0  0  0  0
 13 14  1  0  0  0  0
 15 13  1  0  0  0  0
 16 13  1  0  0  0  0
M  END
>  <minimizedAffinity>
-5.29242659

>  <minimizedRMSD>
1.07561588

$$$$
