
 OpenBabel03252513233D

 15 16  0  0  0  0  0  0  0  0999 V2000
   35.7650   28.9430   50.0950 C   0  0  0  0  0  0  0  0  0  0  0  0
   36.3280   30.1500   49.6820 C   0  0  0  0  0  0  0  0  0  0  0  0
   35.9930   30.6190   48.4060 C   0  0  0  0  0  0  0  0  0  0  0  0
   35.1420   29.8850   47.6300 N   0  0  0  0  0  0  0  0  0  0  0  0
   34.6170   28.7060   48.0900 C   0  0  0  0  0  0  0  0  0  0  0  0
   34.9370   28.2600   49.3070 N   0  0  0  0  0  0  0  0  0  0  0  0
   36.0410   28.5990   51.0940 H   0  0  0  0  0  0  0  0  0  0  0  0
   36.3800   31.5470   47.9920 H   0  0  0  0  0  0  0  0  0  0  0  0
   37.2590   30.9600   50.5150 C   0  0  0  0  0  0  0  0  0  0  0  0
   38.5640   30.9060   50.1140 F   0  0  0  0  0  0  0  0  0  0  0  0
   37.2290   30.5390   51.8350 F   0  0  0  0  0  0  0  0  0  0  0  0
   36.8870   32.2930   50.4790 F   0  0  0  0  0  0  0  0  0  0  0  0
   33.6820   27.9190   47.2140 C   0  0  0  0  0  0  0  0  0  0  0  0
   32.1990   27.8820   47.6240 C   0  0  0  0  0  0  0  0  0  0  0  0
   33.0570   26.6850   47.7720 C   0  0  0  0  0  0  0  0  0  0  0  0
  1  7  1  0  0  0  0
  2  1  1  0  0  0  0
  2  9  1  0  0  0  0
  3  2  2  0  0  0  0
  4  5  2  0  0  0  0
  4  3  1  0  0  0  0
  5  6  1  0  0  0  0
  6  1  2  0  0  0  0
  8  3  1  0  0  0  0
  9 11  1  0  0  0  0
 10  9  1  0  0  0  0
 12  9  1  0  0  0  0
 13 14  1  0  0  0  0
 13 15  1  0  0  0  0
 13  5  1  0  0  0  0
 14 15  1  0  0  0  0
M  END
>  <minimizedAffinity>
-4.69240522

>  <minimizedRMSD>
0.405886918

$$$$
