
 OpenBabel03252514063D

 25 28  0  0  0  0  0  0  0  0999 V2000
   38.1570   31.8930   45.5920 N   0  0  0  0  0  0  0  0  0  0  0  0
   39.2620   32.6790   45.6260 C   0  0  0  0  0  0  0  0  0  0  0  0
   39.4230   33.2180   44.3850 N   0  0  0  0  0  0  0  0  0  0  0  0
   38.4340   32.7620   43.6270 C   0  0  0  0  0  0  0  0  0  0  0  0
   38.0790   32.9570   42.3000 C   0  0  0  0  0  0  0  0  0  0  0  0
   36.9870   32.3510   41.7690 N   0  0  0  0  0  0  0  0  0  0  0  0
   36.2020   31.5350   42.5040 C   0  0  0  0  0  0  0  0  0  0  0  0
   36.5580   31.3520   43.7930 N   0  0  0  0  0  0  0  0  0  0  0  0
   37.6250   31.9280   44.3620 C   0  0  0  0  0  0  0  0  0  0  0  0
   38.8590   33.7980   41.4870 N   0  0  0  0  0  0  0  0  0  0  0  0
   39.9450   32.8920   46.4450 H   0  0  0  0  0  0  0  0  0  0  0  0
   35.3440   31.0760   42.0300 H   0  0  0  0  0  0  0  0  0  0  0  0
   39.7960   33.4080   41.2450 H   0  0  0  0  0  0  0  0  0  0  0  0
   38.6370   34.7570   41.0890 H   0  0  0  0  0  0  0  0  0  0  0  0
   36.3680   30.6140   46.6520 C   0  0  0  0  0  0  0  0  0  0  0  0
   37.6740   31.1600   46.7210 C   0  0  0  0  0  0  0  0  0  0  0  0
   38.3800   30.9330   47.8950 C   0  0  0  0  0  0  0  0  0  0  0  0
   37.8070   30.2160   48.9000 N   0  0  0  0  0  0  0  0  0  0  0  0
   36.5630   29.7170   48.7870 C   0  0  0  0  0  0  0  0  0  0  0  0
   35.8370   29.9140   47.6610 N   0  0  0  0  0  0  0  0  0  0  0  0
   35.7500   30.7490   45.7630 H   0  0  0  0  0  0  0  0  0  0  0  0
   39.3730   31.3470   47.9500 H   0  0  0  0  0  0  0  0  0  0  0  0
   35.9170   28.9290   49.8780 C   0  0  0  0  0  3  0  0  0  0  0  0
   35.8930   29.5790   51.2470 C   0  0  0  0  0  2  0  0  0  0  0  0
   34.6480   29.4830   50.4430 C   0  0  0  0  0  2  0  0  0  0  0  0
  1  2  1  0  0  0  0
  1 16  1  0  0  0  0
  2 11  1  0  0  0  0
  3  2  2  0  0  0  0
  4  9  1  0  0  0  0
  4  3  1  0  0  0  0
  5  4  2  0  0  0  0
  6  5  1  0  0  0  0
  6  7  2  0  0  0  0
  7  8  1  0  0  0  0
  8  9  2  0  0  0  0
  9  1  1  0  0  0  0
 10  5  1  0  0  0  0
 12  7  1  0  0  0  0
 13 10  1  0  0  0  0
 14 10  1  0  0  0  0
 15 16  2  0  0  0  0
 15 20  1  0  0  0  0
 16 17  1  0  0  0  0
 17 22  1  0  0  0  0
 17 18  2  0  0  0  0
 19 18  1  0  0  0  0
 19 23  1  0  0  0  0
 20 19  2  0  0  0  0
 21 15  1  0  0  0  0
 23 25  1  0  0  0  0
 23 24  1  0  0  0  0
 25 24  1  0  0  0  0
M  END
>  <minimizedAffinity>
-5.16695309

>  <minimizedRMSD>
3.57257509

$$$$
