
 OpenBabel03252514063D

 25 28  0  0  0  0  0  0  0  0999 V2000
   36.6910   31.2210   48.8040 N   0  0  0  0  0  0  0  0  0  0  0  0
   36.7340   32.0590   49.8690 C   0  0  0  0  0  0  0  0  0  0  0  0
   37.7230   32.9670   49.6410 N   0  0  0  0  0  0  0  0  0  0  0  0
   38.2590   32.6760   48.4620 C   0  0  0  0  0  0  0  0  0  0  0  0
   39.2850   33.2370   47.7150 C   0  0  0  0  0  0  0  0  0  0  0  0
   39.6360   32.7220   46.5080 N   0  0  0  0  0  0  0  0  0  0  0  0
   39.0070   31.6490   45.9860 C   0  0  0  0  0  0  0  0  0  0  0  0
   38.0120   31.1120   46.7220 N   0  0  0  0  0  0  0  0  0  0  0  0
   37.6290   31.5820   47.9170 C   0  0  0  0  0  0  0  0  0  0  0  0
   39.9760   34.3570   48.2090 N   0  0  0  0  0  0  0  0  0  0  0  0
   36.1300   32.0730   50.7730 H   0  0  0  0  0  0  0  0  0  0  0  0
   39.3280   31.2800   45.0210 H   0  0  0  0  0  0  0  0  0  0  0  0
   40.5950   34.1520   49.0230 H   0  0  0  0  0  0  0  0  0  0  0  0
   39.9580   35.3670   47.8800 H   0  0  0  0  0  0  0  0  0  0  0  0
   34.6870   30.2690   47.7860 C   0  0  0  0  0  0  0  0  0  0  0  0
   35.7700   30.1330   48.6910 C   0  0  0  0  0  0  0  0  0  0  0  0
   35.8430   28.9390   49.3960 C   0  0  0  0  0  0  0  0  0  0  0  0
   34.9010   27.9780   49.1970 N   0  0  0  0  0  0  0  0  0  0  0  0
   33.8900   28.1520   48.3270 C   0  0  0  0  0  0  0  0  0  0  0  0
   33.7780   29.3000   47.6170 N   0  0  0  0  0  0  0  0  0  0  0  0
   34.5610   31.1760   47.1950 H   0  0  0  0  0  0  0  0  0  0  0  0
   36.6660   28.8340   50.0840 H   0  0  0  0  0  0  0  0  0  0  0  0
   32.8470   27.1110   48.0960 C   0  0  0  0  0  3  0  0  0  0  0  0
   32.6150   26.7050   46.6540 C   0  0  0  0  0  2  0  0  0  0  0  0
   33.3230   25.7900   47.5850 C   0  0  0  0  0  2  0  0  0  0  0  0
  1  2  1  0  0  0  0
  2 11  1  0  0  0  0
  3  2  2  0  0  0  0
  4  3  1  0  0  0  0
  5 10  1  0  0  0  0
  5  4  2  0  0  0  0
  6  5  1  0  0  0  0
  7  6  2  0  0  0  0
  7  8  1  0  0  0  0
  8  9  2  0  0  0  0
  9  4  1  0  0  0  0
  9  1  1  0  0  0  0
 10 13  1  0  0  0  0
 12  7  1  0  0  0  0
 14 10  1  0  0  0  0
 15 16  1  0  0  0  0
 16  1  1  0  0  0  0
 16 17  2  0  0  0  0
 17 22  1  0  0  0  0
 18 17  1  0  0  0  0
 19 18  2  0  0  0  0
 20 15  2  0  0  0  0
 20 19  1  0  0  0  0
 21 15  1  0  0  0  0
 23 19  1  0  0  0  0
 24 25  1  0  0  0  0
 24 23  1  0  0  0  0
 25 23  1  0  0  0  0
M  END
>  <minimizedAffinity>
-5.43729162

>  <minimizedRMSD>
2.71832466

$$$$
