
 OpenBabel03252513093D

 28 31  0  0  0  0  0  0  0  0999 V2000
   33.6090   28.6030   48.4050 C   0  0  0  0  0  0  0  0  0  0  0  0
   33.7770   28.7310   49.7890 C   0  0  0  0  0  0  0  0  0  0  0  0
   34.7790   29.4480   50.3870 C   0  0  0  0  0  0  0  0  0  0  0  0
   35.6970   30.0990   49.6190 C   0  0  0  0  0  0  0  0  0  0  0  0
   35.5960   30.0190   48.2650 C   0  0  0  0  0  0  0  0  0  0  0  0
   36.5440   30.6900   47.5250 C   0  0  0  0  0  0  0  0  0  0  0  0
   36.5070   30.6570   46.1620 C   0  0  0  0  0  0  0  0  0  0  0  0
   35.4900   29.9280   45.5560 C   0  0  0  0  0  0  0  0  0  0  0  0
   34.5690   29.2760   46.3370 C   0  0  0  0  0  0  0  0  0  0  0  0
   34.5740   29.2880   47.6950 C   0  0  0  0  0  0  0  0  0  0  0  0
   33.0510   28.2170   50.4310 H   0  0  0  0  0  0  0  0  0  0  0  0
   34.8110   29.4760   51.4710 H   0  0  0  0  0  0  0  0  0  0  0  0
   37.3310   31.2530   48.0140 H   0  0  0  0  0  0  0  0  0  0  0  0
   37.2670   31.1950   45.5920 H   0  0  0  0  0  0  0  0  0  0  0  0
   35.4840   29.9180   44.4740 H   0  0  0  0  0  0  0  0  0  0  0  0
   33.7860   28.7160   45.8200 H   0  0  0  0  0  0  0  0  0  0  0  0
   31.9490   25.5890   47.3710 C   0  0  0  0  0  0  0  0  0  0  0  0
   30.7520   25.9670   46.7570 C   0  0  0  0  0  0  0  0  0  0  0  0
   30.4970   27.3360   46.6910 C   0  0  0  0  0  0  0  0  0  0  0  0
   31.4100   28.1550   47.2180 N   0  0  0  0  0  0  0  0  0  0  0  0
   32.5390   27.8380   47.8000 C   0  0  0  0  0  0  0  0  0  0  0  0
   32.7470   26.5320   47.8430 N   0  0  0  0  0  0  0  0  0  0  0  0
   32.1210   24.5200   47.4060 H   0  0  0  0  0  0  0  0  0  0  0  0
   29.9960   25.3280   46.3220 H   0  0  0  0  0  0  0  0  0  0  0  0
   29.6250   27.8190   46.2550 H   0  0  0  0  0  0  0  0  0  0  0  0
   36.7790   30.8730   50.2750 C   0  0  0  0  0  0  0  0  0  0  0  0
   37.3590   30.2220   51.5100 C   0  0  0  0  0  0  0  0  0  0  0  0
   38.1730   30.3750   50.2910 C   0  0  0  0  0  0  0  0  0  0  0  0
  1  2  1  0  0  0  0
  2  3  2  0  0  0  0
  2 11  1  0  0  0  0
  3 12  1  0  0  0  0
  4 26  1  0  0  0  0
  4  3  1  0  0  0  0
  5  4  2  0  0  0  0
  6 13  1  0  0  0  0
  6  5  1  0  0  0  0
  7  6  2  0  0  0  0
  8  7  1  0  0  0  0
  8  9  2  0  0  0  0
  9 10  1  0  0  0  0
 10  5  1  0  0  0  0
 10  1  2  0  0  0  0
 14  7  1  0  0  0  0
 15  8  1  0  0  0  0
 16  9  1  0  0  0  0
 17 23  1  0  0  0  0
 17 22  1  0  0  0  0
 18 17  2  0  0  0  0
 19 18  1  0  0  0  0
 19 20  2  0  0  0  0
 20 21  1  0  0  0  0
 21 22  2  0  0  0  0
 21  1  1  0  0  0  0
 24 18  1  0  0  0  0
 25 19  1  0  0  0  0
 26 28  1  0  0  0  0
 26 27  1  0  0  0  0
 28 27  1  0  0  0  0
M  END
>  <minimizedAffinity>
-5.96053982

>  <minimizedRMSD>
2.63396811

$$$$
