
 OpenBabel03252512183D

 34 38  0  0  0  0  0  0  0  0999 V2000
   32.2870   30.1700   46.0860 C   0  0  0  0  0  0  0  0  0  0  0  0
   31.9040   28.8230   46.0860 C   0  0  0  0  0  0  0  0  0  0  0  0
   32.7940   27.8960   46.6560 C   0  0  0  0  0  0  0  0  0  0  0  0
   33.9710   28.3330   47.1760 N   0  0  0  0  0  0  0  0  0  0  0  0
   34.3050   29.6540   47.1560 C   0  0  0  0  0  0  0  0  0  0  0  0
   33.4670   30.5640   46.6140 N   0  0  0  0  0  0  0  0  0  0  0  0
   31.6310   30.9130   45.6570 H   0  0  0  0  0  0  0  0  0  0  0  0
   30.9620   28.4850   45.6680 H   0  0  0  0  0  0  0  0  0  0  0  0
   35.5840   30.0290   47.7350 C   0  0  0  0  0  0  0  0  0  0  0  0
   36.6300   30.5710   47.0100 C   0  0  0  0  0  0  0  0  0  0  0  0
   37.6690   30.8080   47.8290 N   0  0  0  0  0  0  0  0  0  0  0  0
   37.3180   30.4250   49.0880 C   0  0  0  0  0  0  0  0  0  0  0  0
   38.0170   30.4590   50.2750 C   0  0  0  0  0  0  0  0  0  0  0  0
   37.3860   29.9920   51.4150 C   0  0  0  0  0  0  0  0  0  0  0  0
   36.0900   29.5110   51.3420 C   0  0  0  0  0  0  0  0  0  0  0  0
   35.3760   29.4740   50.1460 C   0  0  0  0  0  0  0  0  0  0  0  0
   36.0300   29.9450   49.0260 C   0  0  0  0  0  0  0  0  0  0  0  0
   36.6080   30.7760   45.9300 H   0  0  0  0  0  0  0  0  0  0  0  0
   38.5950   31.2170   47.5490 H   0  0  0  0  0  0  0  0  0  0  0  0
   39.0320   30.8450   50.2870 H   0  0  0  0  0  0  0  0  0  0  0  0
   37.8840   29.9970   52.3600 H   0  0  0  0  0  0  0  0  0  0  0  0
   35.6300   29.1530   52.2660 H   0  0  0  0  0  0  0  0  0  0  0  0
   34.3540   29.0880   50.1190 H   0  0  0  0  0  0  0  0  0  0  0  0
   32.4430   26.4880   46.6800 C   0  0  0  0  0  0  0  0  0  0  0  0
   33.1810   25.6230   47.4580 C   0  0  0  0  0  0  0  0  0  0  0  0
   32.8020   24.3050   47.4390 C   0  0  0  0  0  0  0  0  0  0  0  0
   31.7480   23.8710   46.6910 N   0  0  0  0  0  0  0  0  0  0  0  0
   31.0420   24.7450   45.9380 C   0  0  0  0  0  0  0  0  0  0  0  0
   31.4100   26.0480   45.9490 N   0  0  0  0  0  0  0  0  0  0  0  0
   34.0240   25.9640   48.0570 H   0  0  0  0  0  0  0  0  0  0  0  0
   33.3610   23.5980   48.0400 H   0  0  0  0  0  0  0  0  0  0  0  0
   29.8960   24.3150   45.1140 C   0  0  0  0  0  0  0  0  0  0  0  0
   29.0910   23.1630   45.5730 C   0  0  0  0  0  0  0  0  0  0  0  0
   28.5340   24.5280   45.6830 C   0  0  0  0  0  0  0  0  0  0  0  0
  1  6  1  0  0  0  0
  2  1  2  0  0  0  0
  2  3  1  0  0  0  0
  3 24  1  0  0  0  0
  3  4  2  0  0  0  0
  5  4  1  0  0  0  0
  5  9  1  0  0  0  0
  6  5  2  0  0  0  0
  7  1  1  0  0  0  0
  8  2  1  0  0  0  0
  9 17  1  0  0  0  0
 10  9  2  0  0  0  0
 10 11  1  0  0  0  0
 11 12  1  0  0  0  0
 12 13  1  0  0  0  0
 13 20  1  0  0  0  0
 13 14  2  0  0  0  0
 14 21  1  0  0  0  0
 15 14  1  0  0  0  0
 15 22  1  0  0  0  0
 16 15  2  0  0  0  0
 17 12  2  0  0  0  0
 17 16  1  0  0  0  0
 18 10  1  0  0  0  0
 19 11  1  0  0  0  0
 23 16  1  0  0  0  0
 24 25  1  0  0  0  0
 25 30  1  0  0  0  0
 26 25  2  0  0  0  0
 26 31  1  0  0  0  0
 27 26  1  0  0  0  0
 28 29  1  0  0  0  0
 28 27  2  0  0  0  0
 29 24  2  0  0  0  0
 32 33  1  0  0  0  0
 32 34  1  0  0  0  0
 32 28  1  0  0  0  0
 33 34  1  0  0  0  0
M  END
>  <minimizedAffinity>
-5.9464674

>  <minimizedRMSD>
0.461309344

$$$$
