
 OpenBabel03252510043D

 29 30  0  0  0  0  0  0  0  0999 V2000
   39.3980   32.3500   46.0040 C   0  0  0  0  0  0  0  0  0  0  0  0
   38.0540   32.8050   49.5410 C   0  0  0  0  0  0  0  0  0  0  0  0
   38.8550   33.0090   48.4080 C   0  0  0  0  0  0  0  0  0  0  0  0
   38.6260   32.2300   47.2560 C   0  0  0  0  0  0  0  0  0  0  0  0
   37.6200   31.3140   47.3300 N   0  0  0  0  0  0  0  0  0  0  0  0
   36.8730   31.1430   48.4290 C   0  0  0  0  0  0  0  0  0  0  0  0
   37.0800   31.8800   49.5360 N   0  0  0  0  0  0  0  0  0  0  0  0
   38.3630   33.4740   50.3130 H   0  0  0  0  0  0  0  0  0  0  0  0
   39.6540   33.7120   48.2950 H   0  0  0  0  0  0  0  0  0  0  0  0
   36.0750   30.4350   48.5280 H   0  0  0  0  0  0  0  0  0  0  0  0
   40.2060   31.0750   45.8640 C   0  0  0  0  0  0  0  0  0  0  0  0
   40.4720   30.6550   46.8760 H   0  0  0  0  0  0  0  0  0  0  0  0
   39.5960   30.2460   45.4090 H   0  0  0  0  0  0  0  0  0  0  0  0
   41.1440   31.2460   45.3190 H   0  0  0  0  0  0  0  0  0  0  0  0
   40.3070   33.5300   45.9700 C   0  0  0  0  0  0  0  0  0  0  0  0
   39.6850   34.4620   46.0820 H   0  0  0  0  0  0  0  0  0  0  0  0
   40.8720   33.5050   45.0260 H   0  0  0  0  0  0  0  0  0  0  0  0
   41.0380   33.4770   46.8040 H   0  0  0  0  0  0  0  0  0  0  0  0
   38.4140   32.4530   44.8760 C   0  0  0  0  0  0  0  0  0  0  0  0
   37.4050   32.1280   45.2630 H   0  0  0  0  0  0  0  0  0  0  0  0
   38.2510   33.5250   44.6090 H   0  0  0  0  0  0  0  0  0  0  0  0
   38.7880   31.6650   43.6750 C   0  0  0  0  0  0  0  0  0  0  0  0
   39.7560   32.0070   42.7530 C   0  0  0  0  0  0  0  0  0  0  0  0
   40.0390   31.2100   41.6610 C   0  0  0  0  0  0  0  0  0  0  0  0
   40.8010   31.5060   40.9610 H   0  0  0  0  0  0  0  0  0  0  0  0
   39.2980   30.0320   41.5270 C   0  0  0  0  0  0  0  0  0  0  0  0
   38.3260   29.6750   42.4400 C   0  0  0  0  0  0  0  0  0  0  0  0
   37.8020   28.7360   42.2480 H   0  0  0  0  0  0  0  0  0  0  0  0
   38.0720   30.4960   43.5180 C   0  0  0  0  0  0  0  0  0  0  0  0
  1  4  1  0  0  0  0
  2  8  1  0  0  0  0
  3  2  2  0  0  0  0
  4  5  2  0  0  0  0
  4  3  1  0  0  0  0
  5  6  1  0  0  0  0
  6 10  1  0  0  0  0
  6  7  2  0  0  0  0
  7  2  1  0  0  0  0
  9  3  1  0  0  0  0
 11  1  1  0  0  0  0
 11 12  1  0  0  0  0
 13 11  1  0  0  0  0
 14 11  1  0  0  0  0
 15  1  1  0  0  0  0
 15 16  1  0  0  0  0
 15 18  1  0  0  0  0
 17 15  1  0  0  0  0
 19 20  1  0  0  0  0
 19  1  1  0  0  0  0
 21 19  1  0  0  0  0
 22 19  1  0  0  0  0
 23 22  2  0  0  0  0
 24 23  1  0  0  0  0
 25 24  1  0  0  0  0
 26 24  2  0  0  0  0
 26 27  1  0  0  0  0
 27 29  2  0  0  0  0
 28 27  1  0  0  0  0
 29 22  1  0  0  0  0
M  END
>  <minimizedAffinity>
-4.68820143

>  <minimizedRMSD>
1.35784614

$$$$
