
 OpenBabel03252514063D

 25 28  0  0  0  0  0  0  0  0999 V2000
   37.8410   31.8500   49.0120 N   0  0  0  0  0  0  0  0  0  0  0  0
   38.2800   33.0340   49.5050 C   0  0  0  0  0  0  0  0  0  0  0  0
   39.1570   33.5580   48.6030 N   0  0  0  0  0  0  0  0  0  0  0  0
   39.2380   32.7020   47.5920 C   0  0  0  0  0  0  0  0  0  0  0  0
   39.9560   32.6900   46.4040 C   0  0  0  0  0  0  0  0  0  0  0  0
   39.8460   31.6600   45.5280 N   0  0  0  0  0  0  0  0  0  0  0  0
   39.0400   30.6060   45.7710 C   0  0  0  0  0  0  0  0  0  0  0  0
   38.3480   30.6280   46.9290 N   0  0  0  0  0  0  0  0  0  0  0  0
   38.4220   31.6200   47.8250 C   0  0  0  0  0  0  0  0  0  0  0  0
   40.8130   33.7630   46.0980 N   0  0  0  0  0  0  0  0  0  0  0  0
   38.0310   33.5420   50.4330 H   0  0  0  0  0  0  0  0  0  0  0  0
   38.9910   29.8110   45.0380 H   0  0  0  0  0  0  0  0  0  0  0  0
   41.6700   33.8070   46.6900 H   0  0  0  0  0  0  0  0  0  0  0  0
   40.7140   34.5230   45.3630 H   0  0  0  0  0  0  0  0  0  0  0  0
   35.6140   30.8570   49.1220 C   0  0  0  0  0  0  0  0  0  0  0  0
   36.9030   31.0110   49.6900 C   0  0  0  0  0  0  0  0  0  0  0  0
   37.1460   30.3240   50.8720 C   0  0  0  0  0  0  0  0  0  0  0  0
   36.1660   29.5540   51.4200 N   0  0  0  0  0  0  0  0  0  0  0  0
   34.9570   29.4390   50.8430 C   0  0  0  0  0  0  0  0  0  0  0  0
   34.6740   30.0910   49.6900 N   0  0  0  0  0  0  0  0  0  0  0  0
   35.3460   31.3640   48.1940 H   0  0  0  0  0  0  0  0  0  0  0  0
   38.1260   30.4390   51.3060 H   0  0  0  0  0  0  0  0  0  0  0  0
   33.8690   28.6010   51.4280 C   0  0  0  0  0  3  0  0  0  0  0  0
   32.6580   29.3460   51.9530 C   0  0  0  0  0  2  0  0  0  0  0  0
   32.5720   28.5750   50.6870 C   0  0  0  0  0  2  0  0  0  0  0  0
  1  2  1  0  0  0  0
  1 16  1  0  0  0  0
  2 11  1  0  0  0  0
  3  2  2  0  0  0  0
  4  9  1  0  0  0  0
  4  3  1  0  0  0  0
  5  4  2  0  0  0  0
  6  7  2  0  0  0  0
  6  5  1  0  0  0  0
  7  8  1  0  0  0  0
  8  9  2  0  0  0  0
  9  1  1  0  0  0  0
 10  5  1  0  0  0  0
 10 13  1  0  0  0  0
 12  7  1  0  0  0  0
 14 10  1  0  0  0  0
 15 16  2  0  0  0  0
 15 20  1  0  0  0  0
 16 17  1  0  0  0  0
 17 22  1  0  0  0  0
 17 18  2  0  0  0  0
 19 18  1  0  0  0  0
 19 23  1  0  0  0  0
 20 19  2  0  0  0  0
 21 15  1  0  0  0  0
 23 24  1  0  0  0  0
 25 23  1  0  0  0  0
 25 24  1  0  0  0  0
M  END
>  <minimizedAffinity>
2.56577611

>  <minimizedRMSD>
0.437169611

$$$$
