
 OpenBabel03252514053D

 32 35  0  0  1  0  0  0  0  0999 V2000
   35.2970   29.2660   48.7710 C   0  0  2  0  0  0  0  0  0  0  0  0
   34.1180   29.1760   49.6260 C   0  0  0  0  0  0  0  0  0  0  0  0
   34.5630   27.9230   49.0900 C   0  0  1  0  0  0  0  0  0  0  0  0
   35.3250   29.5970   47.7330 H   0  0  0  0  0  0  0  0  0  0  0  0
   33.1820   29.6680   49.2460 H   0  0  0  0  0  0  0  0  0  0  0  0
   34.2250   29.3920   50.7250 H   0  0  0  0  0  0  0  0  0  0  0  0
   35.2170   27.1850   49.5620 H   0  0  0  0  0  0  0  0  0  0  0  0
   36.6520   29.3130   49.4970 C   0  0  0  0  0  0  0  0  0  0  0  0
   36.4740   29.3370   50.5900 H   0  0  0  0  0  0  0  0  0  0  0  0
   37.2430   28.4020   49.2940 H   0  0  0  0  0  0  0  0  0  0  0  0
   37.7350   32.8030   49.5410 C   0  0  0  0  0  0  0  0  0  0  0  0
   38.5650   32.8780   48.4010 C   0  0  0  0  0  0  0  0  0  0  0  0
   38.7360   31.7040   47.6300 C   0  0  0  0  0  0  0  0  0  0  0  0
   38.0880   30.5680   48.0350 N   0  0  0  0  0  0  0  0  0  0  0  0
   37.3150   30.5540   49.1230 C   0  0  0  0  0  0  0  0  0  0  0  0
   37.1450   31.6790   49.8710 N   0  0  0  0  0  0  0  0  0  0  0  0
   37.6410   33.7290   50.0920 H   0  0  0  0  0  0  0  0  0  0  0  0
   39.0680   33.7770   48.0930 H   0  0  0  0  0  0  0  0  0  0  0  0
   39.3660   31.7390   46.7540 H   0  0  0  0  0  0  0  0  0  0  0  0
   33.7160   27.3510   47.9740 C   0  0  0  0  0  0  0  0  0  0  0  0
   33.9530   26.0980   47.7510 O   0  0  0  0  0  0  0  0  0  0  0  0
   32.7580   28.0400   47.2300 O   0  0  0  0  0  0  0  0  0  0  0  0
   31.4530   28.1520   47.5980 C   0  0  0  0  0  0  0  0  0  0  0  0
   30.8840   27.5540   48.8210 C   0  0  0  0  0  0  0  0  0  0  0  0
   29.5710   27.7190   49.1130 C   0  0  0  0  0  0  0  0  0  0  0  0
   28.7460   28.4690   48.2300 C   0  0  0  0  0  0  0  0  0  0  0  0
   29.9210   28.9860   46.8790 S   0  0  0  0  0  0  0  0  0  0  0  0
   31.5390   26.9920   49.4670 H   0  0  0  0  0  0  0  0  0  0  0  0
   29.0660   27.3280   49.9740 H   0  0  0  0  0  0  0  0  0  0  0  0
   27.4340   28.8620   48.1430 C   0  0  0  0  0  3  0  0  0  0  0  0
   26.3290   27.9890   48.6430 C   0  0  0  0  0  2  0  0  0  0  0  0
   26.5080   28.0620   47.1740 C   0  0  0  0  0  2  0  0  0  0  0  0
  1  4  1  6  0  0  0
  1  3  1  0  0  0  0
  1  8  1  0  0  0  0
  1  2  1  0  0  0  0
  2  6  1  0  0  0  0
  3  7  1  1  0  0  0
  3  2  1  0  0  0  0
  5  2  1  0  0  0  0
  8  9  1  0  0  0  0
 10  8  1  0  0  0  0
 11 16  1  0  0  0  0
 11 17  1  0  0  0  0
 12 11  2  0  0  0  0
 13 14  2  0  0  0  0
 13 12  1  0  0  0  0
 14 15  1  0  0  0  0
 15  8  1  0  0  0  0
 15 16  2  0  0  0  0
 18 12  1  0  0  0  0
 19 13  1  0  0  0  0
 20  3  1  0  0  0  0
 21 20  2  0  0  0  0
 22 23  1  0  0  0  0
 22 20  1  0  0  0  0
 23 24  2  0  0  0  0
 24 25  1  0  0  0  0
 24 28  1  0  0  0  0
 25 29  1  0  0  0  0
 26 25  2  0  0  0  0
 27 23  1  0  0  0  0
 27 26  1  0  0  0  0
 30 26  1  0  0  0  0
 30 31  1  0  0  0  0
 32 30  1  0  0  0  0
 32 31  1  0  0  0  0
M  END
>  <minimizedAffinity>
-5.62606239

>  <minimizedRMSD>
1.24709809

$$$$
