
 OpenBabel03252514063D

 28 31  0  0  0  0  0  0  0  0999 V2000
   36.6760   31.2250   48.8030 N   0  0  0  0  0  0  0  0  0  0  0  0
   36.7730   32.0290   49.8750 C   0  0  0  0  0  0  0  0  0  0  0  0
   37.7650   32.9260   49.6540 N   0  0  0  0  0  0  0  0  0  0  0  0
   38.2680   32.6650   48.4500 C   0  0  0  0  0  0  0  0  0  0  0  0
   39.2780   33.2360   47.7050 C   0  0  0  0  0  0  0  0  0  0  0  0
   39.5850   32.7530   46.4770 N   0  0  0  0  0  0  0  0  0  0  0  0
   38.9240   31.7030   45.9330 C   0  0  0  0  0  0  0  0  0  0  0  0
   37.9480   31.1650   46.6760 N   0  0  0  0  0  0  0  0  0  0  0  0
   37.5970   31.5960   47.8930 C   0  0  0  0  0  0  0  0  0  0  0  0
   40.0030   34.3240   48.2040 N   0  0  0  0  0  0  0  0  0  0  0  0
   36.1990   32.0240   50.7860 H   0  0  0  0  0  0  0  0  0  0  0  0
   39.2220   31.3710   44.9510 H   0  0  0  0  0  0  0  0  0  0  0  0
   39.6770   35.2990   47.9410 H   0  0  0  0  0  0  0  0  0  0  0  0
   40.8480   34.3240   48.8180 H   0  0  0  0  0  0  0  0  0  0  0  0
   34.6480   30.3270   47.8200 C   0  0  0  0  0  0  0  0  0  0  0  0
   35.7420   30.1640   48.6780 C   0  0  0  0  0  0  0  0  0  0  0  0
   35.8330   28.9400   49.3590 C   0  0  0  0  0  0  0  0  0  0  0  0
   34.8700   27.9960   49.1540 N   0  0  0  0  0  0  0  0  0  0  0  0
   33.8290   28.1910   48.3190 C   0  0  0  0  0  0  0  0  0  0  0  0
   33.7360   29.3530   47.6660 N   0  0  0  0  0  0  0  0  0  0  0  0
   34.5480   31.2590   47.2790 H   0  0  0  0  0  0  0  0  0  0  0  0
   36.6730   28.8220   50.0140 H   0  0  0  0  0  0  0  0  0  0  0  0
   32.8440   27.0950   48.1730 C   0  0  0  0  0  0  0  0  0  0  0  0
   31.6370   27.4800   47.3470 C   0  0  0  0  0  0  0  0  0  0  0  0
   32.0690   27.7640   45.9460 C   0  0  0  0  0  0  0  0  0  0  0  0
   32.8930   26.7070   45.2990 C   0  0  0  0  0  0  0  0  0  0  0  0
   33.8910   26.0260   46.1670 C   0  0  0  0  0  0  0  0  0  0  0  0
   33.4210   25.8430   47.5910 C   0  0  0  0  0  0  0  0  0  0  0  0
  1  2  1  0  0  0  0
  2 11  1  0  0  0  0
  3  2  2  0  0  0  0
  4  3  1  0  0  0  0
  5 10  1  0  0  0  0
  5  4  2  0  0  0  0
  6  5  1  0  0  0  0
  7  6  2  0  0  0  0
  7  8  1  0  0  0  0
  8  9  2  0  0  0  0
  9  4  1  0  0  0  0
  9  1  1  0  0  0  0
 10 14  1  0  0  0  0
 12  7  1  0  0  0  0
 13 10  1  0  0  0  0
 15 16  1  0  0  0  0
 16  1  1  0  0  0  0
 16 17  2  0  0  0  0
 17 22  1  0  0  0  0
 18 17  1  0  0  0  0
 19 18  2  0  0  0  0
 20 15  2  0  0  0  0
 20 19  1  0  0  0  0
 21 15  1  0  0  0  0
 23 19  1  0  0  0  0
 24 23  1  0  0  0  0
 25 24  1  0  0  0  0
 26 25  1  0  0  0  0
 26 27  1  0  0  0  0
 27 28  1  0  0  0  0
 28 23  1  0  0  0  0
M  END
>  <minimizedAffinity>
-5.84316969

>  <minimizedRMSD>
3.11023712

$$$$
