
 OpenBabel03252513253D

 28 30  0  0  0  0  0  0  0  0999 V2000
   32.7510   27.9410   48.7370 C   0  0  0  0  0  0  0  0  0  0  0  0
   31.6630   28.3820   49.4440 C   0  0  0  0  0  0  0  0  0  0  0  0
   30.4410   27.7070   49.3560 C   0  0  0  0  0  0  0  0  0  0  0  0
   30.3860   26.5940   48.5360 C   0  0  0  0  0  0  0  0  0  0  0  0
   31.4740   26.1380   47.8170 C   0  0  0  0  0  0  0  0  0  0  0  0
   32.6680   26.8190   47.9190 C   0  0  0  0  0  0  0  0  0  0  0  0
   31.7080   29.2500   50.0830 H   0  0  0  0  0  0  0  0  0  0  0  0
   29.5670   28.0300   49.9010 H   0  0  0  0  0  0  0  0  0  0  0  0
   29.4580   26.0410   48.4380 H   0  0  0  0  0  0  0  0  0  0  0  0
   31.3660   25.2640   47.1950 H   0  0  0  0  0  0  0  0  0  0  0  0
   36.1550   28.9360   49.7480 C   0  0  0  0  0  0  0  0  0  0  0  0
   36.4240   30.0150   48.8980 C   0  0  0  0  0  0  0  0  0  0  0  0
   35.4250   30.3790   47.9900 C   0  0  0  0  0  0  0  0  0  0  0  0
   34.2370   29.6760   47.9670 N   0  0  0  0  0  0  0  0  0  0  0  0
   34.0360   28.6370   48.8200 C   0  0  0  0  0  0  0  0  0  0  0  0
   34.9900   28.2870   49.6890 N   0  0  0  0  0  0  0  0  0  0  0  0
   36.9230   28.6480   50.4530 H   0  0  0  0  0  0  0  0  0  0  0  0
   35.5740   31.1980   47.3140 H   0  0  0  0  0  0  0  0  0  0  0  0
   37.6960   30.7820   48.9090 C   0  0  0  0  0  0  0  0  0  0  0  0
   38.4870   30.5680   47.8210 F   0  0  0  0  0  0  0  0  0  0  0  0
   38.4360   30.5020   50.0300 F   0  0  0  0  0  0  0  0  0  0  0  0
   37.4030   32.1600   48.9460 F   0  0  0  0  0  0  0  0  0  0  0  0
   33.8690   26.3630   47.1620 C   0  0  0  0  0  0  0  0  0  0  0  0
   33.7330   26.8990   45.7700 C   0  0  0  0  0  0  0  0  0  0  0  0
   33.1550   25.9020   44.8010 C   0  0  0  0  0  0  0  0  0  0  0  0
   34.1310   24.7430   44.7870 C   0  0  0  0  0  0  0  0  0  0  0  0
   33.9950   24.0680   46.1100 C   0  0  0  0  0  0  0  0  0  0  0  0
   34.1330   24.9250   47.3050 C   0  0  0  0  0  0  0  0  0  0  0  0
  1 15  1  0  0  0  0
  1  2  1  0  0  0  0
  2  7  1  0  0  0  0
  3  2  2  0  0  0  0
  3  8  1  0  0  0  0
  4  3  1  0  0  0  0
  5  6  1  0  0  0  0
  5  4  2  0  0  0  0
  6  1  2  0  0  0  0
  9  4  1  0  0  0  0
 10  5  1  0  0  0  0
 11 17  1  0  0  0  0
 12 19  1  0  0  0  0
 12 11  2  0  0  0  0
 13 12  1  0  0  0  0
 14 13  2  0  0  0  0
 14 15  1  0  0  0  0
 15 16  2  0  0  0  0
 16 11  1  0  0  0  0
 18 13  1  0  0  0  0
 19 22  1  0  0  0  0
 19 21  1  0  0  0  0
 20 19  1  0  0  0  0
 23 28  1  0  0  0  0
 23  6  1  0  0  0  0
 24 23  1  0  0  0  0
 25 24  1  0  0  0  0
 26 25  1  0  0  0  0
 26 27  1  0  0  0  0
 27 28  1  0  0  0  0
M  END
>  <minimizedAffinity>
-5.35675573

>  <minimizedRMSD>
1.48507011

$$$$
