
 OpenBabel03252512133D

 29 32  0  0  0  0  0  0  0  0999 V2000
   35.6470   30.0530   47.7640 C   0  0  0  0  0  0  0  0  0  0  0  0
   36.6710   30.6900   47.0760 C   0  0  0  0  0  0  0  0  0  0  0  0
   37.6770   30.9880   47.9250 N   0  0  0  0  0  0  0  0  0  0  0  0
   37.3270   30.5580   49.1510 C   0  0  0  0  0  0  0  0  0  0  0  0
   37.9970   30.6190   50.3600 C   0  0  0  0  0  0  0  0  0  0  0  0
   37.3810   30.0830   51.4880 C   0  0  0  0  0  0  0  0  0  0  0  0
   36.1240   29.5090   51.3670 C   0  0  0  0  0  0  0  0  0  0  0  0
   35.4230   29.4310   50.1640 C   0  0  0  0  0  0  0  0  0  0  0  0
   36.0770   29.9780   49.0750 C   0  0  0  0  0  0  0  0  0  0  0  0
   36.6780   30.9190   46.0220 H   0  0  0  0  0  0  0  0  0  0  0  0
   38.5790   31.4630   47.7140 H   0  0  0  0  0  0  0  0  0  0  0  0
   38.9730   31.0590   50.4770 H   0  0  0  0  0  0  0  0  0  0  0  0
   37.8050   30.0750   52.4720 H   0  0  0  0  0  0  0  0  0  0  0  0
   35.6260   29.0830   52.2440 H   0  0  0  0  0  0  0  0  0  0  0  0
   34.4520   28.9790   50.1160 H   0  0  0  0  0  0  0  0  0  0  0  0
   32.3270   29.9770   46.1680 C   0  0  0  0  0  0  0  0  0  0  0  0
   32.1390   28.5920   45.9900 C   0  0  0  0  0  0  0  0  0  0  0  0
   33.1620   27.7130   46.4250 C   0  0  0  0  0  0  0  0  0  0  0  0
   34.2680   28.2580   46.9900 N   0  0  0  0  0  0  0  0  0  0  0  0
   34.4120   29.5960   47.1430 C   0  0  0  0  0  0  0  0  0  0  0  0
   33.4620   30.4460   46.7420 N   0  0  0  0  0  0  0  0  0  0  0  0
   31.6000   30.6990   45.8640 H   0  0  0  0  0  0  0  0  0  0  0  0
   31.2220   28.2290   45.5280 H   0  0  0  0  0  0  0  0  0  0  0  0
   32.9830   26.2480   46.2470 C   0  0  0  0  0  0  0  0  0  0  0  0
   34.2160   25.5840   45.7560 C   0  0  0  0  0  0  0  0  0  0  0  0
   34.3820   24.1470   46.0910 C   0  0  0  0  0  0  0  0  0  0  0  0
   33.9710   23.8510   47.5330 C   0  0  0  0  0  0  0  0  0  0  0  0
   32.4770   24.1920   47.5850 C   0  0  0  0  0  0  0  0  0  0  0  0
   32.4540   25.7110   47.5450 C   0  0  0  0  0  0  0  0  0  0  0  0
  1  9  1  0  0  0  0
  2  1  2  0  0  0  0
  2  3  1  0  0  0  0
  3  4  1  0  0  0  0
  4  5  1  0  0  0  0
  5 12  1  0  0  0  0
  5  6  2  0  0  0  0
  6 13  1  0  0  0  0
  7  6  1  0  0  0  0
  7 14  1  0  0  0  0
  8  7  2  0  0  0  0
  9  4  2  0  0  0  0
  9  8  1  0  0  0  0
 10  2  1  0  0  0  0
 11  3  1  0  0  0  0
 15  8  1  0  0  0  0
 16 21  1  0  0  0  0
 17 16  2  0  0  0  0
 17 18  1  0  0  0  0
 18 19  2  0  0  0  0
 19 20  1  0  0  0  0
 20  1  1  0  0  0  0
 21 20  2  0  0  0  0
 22 16  1  0  0  0  0
 23 17  1  0  0  0  0
 24 18  1  0  0  0  0
 24 29  1  0  0  0  0
 25 26  1  0  0  0  0
 25 24  1  0  0  0  0
 26 27  1  0  0  0  0
 27 28  1  0  0  0  0
 29 28  1  0  0  0  0
M  END
>  <minimizedAffinity>
-6.00872564

>  <minimizedRMSD>
0.241690546

$$$$
