
 OpenBabel03252513583D

 25 27  0  0  1  0  0  0  0  0999 V2000
   35.1420   29.3920   48.7490 C   0  0  2  0  0  0  0  0  0  0  0  0
   33.9100   29.0380   49.5210 C   0  0  0  0  0  0  0  0  0  0  0  0
   34.4410   28.0670   48.5450 C   0  0  1  0  0  0  0  0  0  0  0  0
   35.0890   30.0570   47.8710 H   0  0  0  0  0  0  0  0  0  0  0  0
   34.0740   28.9890   50.6050 H   0  0  0  0  0  0  0  0  0  0  0  0
   33.0300   29.6740   49.2610 H   0  0  0  0  0  0  0  0  0  0  0  0
   34.8850   27.1540   49.0000 H   0  0  0  0  0  0  0  0  0  0  0  0
   33.6140   27.8370   47.3240 C   0  0  0  0  0  3  0  0  0  0  0  0
   32.1610   27.9950   47.7050 C   0  0  0  0  0  2  0  0  0  0  0  0
   31.6320   26.8150   48.4770 C   0  0  0  0  0  2  0  0  0  0  0  0
   31.7590   25.5570   47.6550 C   0  0  0  0  0  2  0  0  0  0  0  0
   33.2120   25.3490   47.3580 C   0  0  0  0  0  2  0  0  0  0  0  0
   33.8740   26.5040   46.6670 C   0  0  0  0  0  2  0  0  0  0  0  0
   36.4950   29.2920   49.3900 C   0  0  0  0  0  0  0  0  0  0  0  0
   37.0900   28.4490   48.9300 H   0  0  0  0  0  0  0  0  0  0  0  0
   36.4620   29.0600   50.4610 H   0  0  0  0  0  0  0  0  0  0  0  0
   37.7280   32.7560   49.5460 C   0  0  0  0  0  0  0  0  0  0  0  0
   38.5910   32.8310   48.4520 C   0  0  0  0  0  0  0  0  0  0  0  0
   38.7600   31.6870   47.6450 C   0  0  0  0  0  0  0  0  0  0  0  0
   38.0530   30.5650   47.9980 N   0  0  0  0  0  0  0  0  0  0  0  0
   37.2270   30.5400   49.0700 C   0  0  0  0  0  0  0  0  0  0  0  0
   37.0710   31.6480   49.8410 N   0  0  0  0  0  0  0  0  0  0  0  0
   37.5730   33.6120   50.1860 H   0  0  0  0  0  0  0  0  0  0  0  0
   39.1290   33.7370   48.2070 H   0  0  0  0  0  0  0  0  0  0  0  0
   39.4120   31.6780   46.7820 H   0  0  0  0  0  0  0  0  0  0  0  0
  1  4  1  6  0  0  0
  1 14  1  0  0  0  0
  1  2  1  0  0  0  0
  2  5  1  0  0  0  0
  3  1  1  0  0  0  0
  3  7  1  1  0  0  0
  3  2  1  0  0  0  0
  6  2  1  0  0  0  0
  8  9  1  0  0  0  0
  8  3  1  0  0  0  0
  9 10  1  0  0  0  0
 11 10  1  0  0  0  0
 12 11  1  0  0  0  0
 13  8  1  0  0  0  0
 13 12  1  0  0  0  0
 14 16  1  0  0  0  0
 15 14  1  0  0  0  0
 17 22  1  0  0  0  0
 17 23  1  0  0  0  0
 18 17  2  0  0  0  0
 19 20  2  0  0  0  0
 19 18  1  0  0  0  0
 20 21  1  0  0  0  0
 21 14  1  0  0  0  0
 21 22  2  0  0  0  0
 24 18  1  0  0  0  0
 25 19  1  0  0  0  0
M  END
>  <minimizedAffinity>
-5.01068354

>  <minimizedRMSD>
1.28291976

$$$$
