
 OpenBabel03252510163D

 15 16  0  0  0  0  0  0  0  0999 V2000
   38.1350   30.8380   50.2360 C   0  0  0  0  0  0  0  0  0  0  0  0
   37.6480   30.4330   48.9730 C   0  0  0  0  0  0  0  0  0  0  0  0
   36.5700   29.5570   48.9390 C   0  0  0  0  0  0  0  0  0  0  0  0
   36.0390   29.1340   50.1270 N   0  0  0  0  0  0  0  0  0  0  0  0
   36.5300   29.5430   51.3230 C   0  0  0  0  0  0  0  0  0  0  0  0
   37.5720   30.3910   51.3640 N   0  0  0  0  0  0  0  0  0  0  0  0
   38.9800   31.5250   50.2270 H   0  0  0  0  0  0  0  0  0  0  0  0
   36.1370   29.1970   48.0200 H   0  0  0  0  0  0  0  0  0  0  0  0
   36.0160   29.1340   52.1710 H   0  0  0  0  0  0  0  0  0  0  0  0
   38.2450   30.9070   47.7190 C   0  0  0  0  0  0  0  0  0  0  0  0
   38.7300   32.3150   47.7910 C   0  0  0  0  0  0  0  0  0  0  0  0
   39.5170   32.6040   46.5280 C   0  0  0  0  0  0  0  0  0  0  0  0
   38.6380   32.4520   45.3310 C   0  0  0  0  0  0  0  0  0  0  0  0
   37.8060   31.2050   45.2980 C   0  0  0  0  0  0  0  0  0  0  0  0
   37.1860   30.8710   46.6350 C   0  0  0  0  0  0  0  0  0  0  0  0
  1  6  1  0  0  0  0
  2  1  2  0  0  0  0
  3  2  1  0  0  0  0
  3  4  2  0  0  0  0
  4  5  1  0  0  0  0
  5  6  2  0  0  0  0
  5  9  1  0  0  0  0
  7  1  1  0  0  0  0
  8  3  1  0  0  0  0
 10 11  1  0  0  0  0
 10  2  1  0  0  0  0
 12 11  1  0  0  0  0
 13 12  1  0  0  0  0
 14 13  1  0  0  0  0
 14 15  1  0  0  0  0
 15 10  1  0  0  0  0
M  END
>  <minimizedAffinity>
-4.91695976

>  <minimizedRMSD>
3.94510841

$$$$
