
 OpenBabel03252514053D

 35 38  0  0  1  0  0  0  0  0999 V2000
   35.2530   29.4520   49.0190 C   0  0  2  0  0  0  0  0  0  0  0  0
   34.1100   29.2650   49.9070 C   0  0  0  0  0  0  0  0  0  0  0  0
   34.5590   28.0690   49.2570 C   0  0  1  0  0  0  0  0  0  0  0  0
   35.1520   29.8970   48.0240 H   0  0  0  0  0  0  0  0  0  0  0  0
   33.1420   29.7480   49.6230 H   0  0  0  0  0  0  0  0  0  0  0  0
   34.3030   29.3730   51.0120 H   0  0  0  0  0  0  0  0  0  0  0  0
   35.2380   27.3180   49.6570 H   0  0  0  0  0  0  0  0  0  0  0  0
   36.6370   29.4750   49.6890 C   0  0  0  0  0  0  0  0  0  0  0  0
   37.1630   28.5250   49.4460 H   0  0  0  0  0  0  0  0  0  0  0  0
   36.5200   29.5480   50.7720 H   0  0  0  0  0  0  0  0  0  0  0  0
   37.9420   32.8760   49.4360 C   0  0  0  0  0  0  0  0  0  0  0  0
   38.7020   32.8280   48.2520 C   0  0  0  0  0  0  0  0  0  0  0  0
   38.7510   31.6010   47.5510 C   0  0  0  0  0  0  0  0  0  0  0  0
   38.0610   30.5310   48.0590 N   0  0  0  0  0  0  0  0  0  0  0  0
   37.3500   30.6420   49.2000 C   0  0  0  0  0  0  0  0  0  0  0  0
   37.2990   31.8160   49.8780 N   0  0  0  0  0  0  0  0  0  0  0  0
   37.9620   33.8520   49.9040 H   0  0  0  0  0  0  0  0  0  0  0  0
   39.2660   33.6490   47.8090 H   0  0  0  0  0  0  0  0  0  0  0  0
   39.3120   31.4850   46.6350 H   0  0  0  0  0  0  0  0  0  0  0  0
   33.6780   27.5740   48.1290 C   0  0  0  0  0  0  0  0  0  0  0  0
   33.9030   26.3320   47.8270 O   0  0  0  0  0  0  0  0  0  0  0  0
   32.7040   28.3090   47.4470 O   0  0  0  0  0  0  0  0  0  0  0  0
   31.3610   28.1170   47.6440 C   0  0  0  0  0  0  0  0  0  0  0  0
   30.7420   27.6260   48.8930 C   0  0  0  0  0  0  0  0  0  0  0  0
   29.3990   27.4930   48.9170 C   0  0  0  0  0  0  0  0  0  0  0  0
   28.5910   27.8050   47.8030 C   0  0  0  0  0  0  0  0  0  0  0  0
   29.8370   28.3590   46.5400 S   0  0  0  0  0  0  0  0  0  0  0  0
   31.3970   27.4030   49.7130 H   0  0  0  0  0  0  0  0  0  0  0  0
   28.8520   27.1440   49.7740 H   0  0  0  0  0  0  0  0  0  0  0  0
   27.1890   27.7680   47.5370 C   0  0  0  0  0  3  0  0  0  0  0  0
   26.3860   27.5710   48.7700 C   0  0  0  0  0  2  0  0  0  0  0  0
   25.5550   28.7410   49.2030 C   0  0  0  0  0  2  0  0  0  0  0  0
   26.1320   30.0820   48.9380 C   0  0  0  0  0  2  0  0  0  0  0  0
   26.7050   30.2440   47.5590 C   0  0  0  0  0  2  0  0  0  0  0  0
   26.7010   28.9710   46.7660 C   0  0  0  0  0  2  0  0  0  0  0  0
  1  4  1  6  0  0  0
  1  3  1  0  0  0  0
  1  8  1  0  0  0  0
  1  2  1  0  0  0  0
  2  6  1  0  0  0  0
  3  7  1  1  0  0  0
  3  2  1  0  0  0  0
  5  2  1  0  0  0  0
  8 10  1  0  0  0  0
  9  8  1  0  0  0  0
 11 16  1  0  0  0  0
 11 17  1  0  0  0  0
 12 11  2  0  0  0  0
 13 14  2  0  0  0  0
 13 12  1  0  0  0  0
 14 15  1  0  0  0  0
 15  8  1  0  0  0  0
 15 16  2  0  0  0  0
 18 12  1  0  0  0  0
 19 13  1  0  0  0  0
 20  3  1  0  0  0  0
 21 20  2  0  0  0  0
 22 23  1  0  0  0  0
 22 20  1  0  0  0  0
 23 24  2  0  0  0  0
 24 25  1  0  0  0  0
 24 28  1  0  0  0  0
 25 29  1  0  0  0  0
 26 25  2  0  0  0  0
 27 23  1  0  0  0  0
 27 26  1  0  0  0  0
 30 26  1  0  0  0  0
 30 31  1  0  0  0  0
 31 32  1  0  0  0  0
 33 32  1  0  0  0  0
 34 33  1  0  0  0  0
 35 30  1  0  0  0  0
 35 34  1  0  0  0  0
M  END
>  <minimizedAffinity>
-6.58897829

>  <minimizedRMSD>
1.87420106

$$$$
