
 OpenBabel03252513583D

 25 27  0  0  1  0  0  0  0  0999 V2000
   35.3390   29.4340   47.9750 C   0  0  2  0  0  0  0  0  0  0  0  0
   34.2630   30.2430   47.3230 C   0  0  0  0  0  0  0  0  0  0  0  0
   33.8920   28.9990   48.0250 C   0  0  1  0  0  0  0  0  0  0  0  0
   35.9800   28.7610   47.3820 H   0  0  0  0  0  0  0  0  0  0  0  0
   34.1610   31.2520   47.7430 H   0  0  0  0  0  0  0  0  0  0  0  0
   34.3380   30.2610   46.2100 H   0  0  0  0  0  0  0  0  0  0  0  0
   33.3210   29.1550   48.9670 H   0  0  0  0  0  0  0  0  0  0  0  0
   33.4180   27.8730   47.1670 C   0  0  0  0  0  3  0  0  0  0  0  0
   32.4240   28.4260   46.1740 C   0  0  0  0  0  2  0  0  0  0  0  0
   31.0850   28.7240   46.7950 C   0  0  0  0  0  2  0  0  0  0  0  0
   30.4960   27.4680   47.3880 C   0  0  0  0  0  2  0  0  0  0  0  0
   31.4360   26.9720   48.4410 C   0  0  0  0  0  2  0  0  0  0  0  0
   32.8350   26.7250   47.9560 C   0  0  0  0  0  2  0  0  0  0  0  0
   35.9120   29.8550   49.2970 C   0  0  0  0  0  0  0  0  0  0  0  0
   36.4820   29.0030   49.7710 H   0  0  0  0  0  0  0  0  0  0  0  0
   35.1550   30.1330   50.0390 H   0  0  0  0  0  0  0  0  0  0  0  0
   37.8100   33.0000   49.5220 C   0  0  0  0  0  0  0  0  0  0  0  0
   38.7510   32.8720   48.5000 C   0  0  0  0  0  0  0  0  0  0  0  0
   38.7440   31.6990   47.7180 C   0  0  0  0  0  0  0  0  0  0  0  0
   37.7980   30.7520   48.0230 N   0  0  0  0  0  0  0  0  0  0  0  0
   36.9050   30.9210   49.0260 C   0  0  0  0  0  0  0  0  0  0  0  0
   36.9200   32.0550   49.7730 N   0  0  0  0  0  0  0  0  0  0  0  0
   37.7850   33.8850   50.1420 H   0  0  0  0  0  0  0  0  0  0  0  0
   39.4800   33.6440   48.2920 H   0  0  0  0  0  0  0  0  0  0  0  0
   39.4450   31.5360   46.9100 H   0  0  0  0  0  0  0  0  0  0  0  0
  1  4  1  6  0  0  0
  1  3  1  0  0  0  0
  1 14  1  0  0  0  0
  2  5  1  0  0  0  0
  2  1  1  0  0  0  0
  2  3  1  0  0  0  0
  3  7  1  1  0  0  0
  6  2  1  0  0  0  0
  8 13  1  0  0  0  0
  8  3  1  0  0  0  0
  9 10  1  0  0  0  0
  9  8  1  0  0  0  0
 10 11  1  0  0  0  0
 11 12  1  0  0  0  0
 13 12  1  0  0  0  0
 14 15  1  0  0  0  0
 14 16  1  0  0  0  0
 17 22  1  0  0  0  0
 17 23  1  0  0  0  0
 18 17  2  0  0  0  0
 19 20  2  0  0  0  0
 19 18  1  0  0  0  0
 20 21  1  0  0  0  0
 21 14  1  0  0  0  0
 21 22  2  0  0  0  0
 24 18  1  0  0  0  0
 25 19  1  0  0  0  0
M  END
>  <minimizedAffinity>
-4.5814662

>  <minimizedRMSD>
1.56835628

$$$$
