
 OpenBabel03252513583D

 25 27  0  0  1  0  0  0  0  0999 V2000
   35.2230   29.7280   49.0410 C   0  0  2  0  0  0  0  0  0  0  0  0
   34.1510   29.1540   49.9140 C   0  0  0  0  0  0  0  0  0  0  0  0
   34.4430   28.5010   48.6220 C   0  0  1  0  0  0  0  0  0  0  0  0
   35.0260   30.6110   48.4090 H   0  0  0  0  0  0  0  0  0  0  0  0
   34.5220   28.8070   50.8870 H   0  0  0  0  0  0  0  0  0  0  0  0
   33.2650   29.8230   50.0200 H   0  0  0  0  0  0  0  0  0  0  0  0
   34.9300   27.5060   48.7100 H   0  0  0  0  0  0  0  0  0  0  0  0
   33.3850   28.6090   47.5740 C   0  0  0  0  0  3  0  0  0  0  0  0
   32.1470   27.9080   48.0830 C   0  0  0  0  0  2  0  0  0  0  0  0
   32.2670   26.4070   48.0340 C   0  0  0  0  0  2  0  0  0  0  0  0
   32.5050   25.9510   46.6160 C   0  0  0  0  0  2  0  0  0  0  0  0
   33.7830   26.5710   46.1430 C   0  0  0  0  0  2  0  0  0  0  0  0
   33.8160   28.0680   46.2320 C   0  0  0  0  0  2  0  0  0  0  0  0
   36.6700   29.4750   49.3470 C   0  0  0  0  0  0  0  0  0  0  0  0
   37.0750   28.6500   48.6910 H   0  0  0  0  0  0  0  0  0  0  0  0
   36.8520   29.1330   50.3720 H   0  0  0  0  0  0  0  0  0  0  0  0
   37.9960   32.9080   49.4160 C   0  0  0  0  0  0  0  0  0  0  0  0
   38.8090   32.9520   48.2830 C   0  0  0  0  0  0  0  0  0  0  0  0
   38.9120   31.7990   47.4800 C   0  0  0  0  0  0  0  0  0  0  0  0
   38.1940   30.6970   47.8750 N   0  0  0  0  0  0  0  0  0  0  0  0
   37.4170   30.7020   48.9830 C   0  0  0  0  0  0  0  0  0  0  0  0
   37.3250   31.8190   49.7510 N   0  0  0  0  0  0  0  0  0  0  0  0
   37.8920   33.7720   50.0560 H   0  0  0  0  0  0  0  0  0  0  0  0
   39.3580   33.8420   48.0070 H   0  0  0  0  0  0  0  0  0  0  0  0
   39.5240   31.7660   46.5880 H   0  0  0  0  0  0  0  0  0  0  0  0
  1  4  1  6  0  0  0
  1 14  1  0  0  0  0
  1  2  1  0  0  0  0
  2  6  1  0  0  0  0
  2  5  1  0  0  0  0
  3  7  1  1  0  0  0
  3  1  1  0  0  0  0
  3  2  1  0  0  0  0
  8  9  1  0  0  0  0
  8  3  1  0  0  0  0
 10  9  1  0  0  0  0
 11 10  1  0  0  0  0
 12 13  1  0  0  0  0
 12 11  1  0  0  0  0
 13  8  1  0  0  0  0
 14 16  1  0  0  0  0
 15 14  1  0  0  0  0
 17 22  1  0  0  0  0
 17 23  1  0  0  0  0
 18 17  2  0  0  0  0
 19 20  2  0  0  0  0
 19 18  1  0  0  0  0
 20 21  1  0  0  0  0
 21 14  1  0  0  0  0
 21 22  2  0  0  0  0
 24 18  1  0  0  0  0
 25 19  1  0  0  0  0
M  END
>  <minimizedAffinity>
-4.88698578

>  <minimizedRMSD>
2.02100015

$$$$
