
 OpenBabel03252511163D

 33 36  0  0  1  0  0  0  0  0999 V2000
   38.5340   32.0670   48.0530 C   0  0  1  0  0  0  0  0  0  0  0  0
   39.6050   32.1180   48.5560 H   0  0  0  0  0  0  0  0  0  0  0  0
   37.8330   31.2030   49.0000 C   0  0  0  0  0  0  0  0  0  0  0  0
   38.3240   31.0660   50.2320 N   0  0  0  0  0  0  0  0  0  0  0  0
   37.7530   30.2740   51.1710 C   0  0  0  0  0  0  0  0  0  0  0  0
   36.6480   29.5670   50.9340 N   0  0  0  0  0  0  0  0  0  0  0  0
   36.0730   29.6380   49.7270 C   0  0  0  0  0  0  0  0  0  0  0  0
   34.9310   28.9260   49.4180 C   0  0  0  0  0  0  0  0  0  0  0  0
   34.3340   28.9810   48.2030 C   0  0  0  0  0  0  0  0  0  0  0  0
   34.9350   29.7970   47.2740 C   0  0  0  0  0  0  0  0  0  0  0  0
   36.0720   30.5000   47.5890 C   0  0  0  0  0  0  0  0  0  0  0  0
   36.6890   30.4590   48.8020 C   0  0  0  0  0  0  0  0  0  0  0  0
   38.1930   30.1870   52.1820 H   0  0  0  0  0  0  0  0  0  0  0  0
   34.4870   28.2890   50.1880 H   0  0  0  0  0  0  0  0  0  0  0  0
   33.4430   28.4020   48.0190 H   0  0  0  0  0  0  0  0  0  0  0  0
   34.4950   29.8830   46.2710 H   0  0  0  0  0  0  0  0  0  0  0  0
   36.5370   31.1510   46.8220 H   0  0  0  0  0  0  0  0  0  0  0  0
   39.0420   31.8650   46.7250 C   0  0  0  0  0  0  0  0  0  0  0  0
   39.8210   32.9600   46.3170 C   0  0  0  0  0  0  0  0  0  0  0  0
   40.5370   32.8940   45.0670 C   0  0  0  0  0  0  0  0  0  0  0  0
   40.3910   31.7420   44.3700 N   0  0  0  0  0  0  0  0  0  0  0  0
   39.6230   30.7050   44.8020 C   0  0  0  0  0  0  0  0  0  0  0  0
   38.9680   30.7660   45.9450 N   0  0  0  0  0  0  0  0  0  0  0  0
   39.9730   33.8850   46.8180 H   0  0  0  0  0  0  0  0  0  0  0  0
   41.1400   33.7080   44.7260 H   0  0  0  0  0  0  0  0  0  0  0  0
   39.5840   29.5250   43.8970 C   0  0  0  0  0  0  0  0  0  0  0  0
   38.1720   29.1820   43.4450 C   0  0  0  0  0  0  0  0  0  0  0  0
   38.2070   27.8080   42.8380 C   0  0  0  0  0  0  0  0  0  0  0  0
   39.5900   27.3130   42.5710 C   0  0  0  0  0  0  0  0  0  0  0  0
   40.4870   28.3450   41.9740 C   0  0  0  0  0  0  0  0  0  0  0  0
   40.5070   29.6550   42.7110 C   0  0  0  0  0  0  0  0  0  0  0  0
   38.2160   33.2860   48.4820 O   0  0  0  0  0  0  0  0  0  0  0  0
   37.5570   33.7650   47.9300 H   0  0  0  0  0  0  0  0  0  0  0  0
  1 32  1  0  0  0  0
  1  2  1  1  0  0  0
  1  3  1  0  0  0  0
  3  4  1  0  0  0  0
  4  5  2  0  0  0  0
  5 13  1  0  0  0  0
  6  5  1  0  0  0  0
  7  6  2  0  0  0  0
  8  7  1  0  0  0  0
  8 14  1  0  0  0  0
  9  8  2  0  0  0  0
 10 11  2  0  0  0  0
 10  9  1  0  0  0  0
 11 12  1  0  0  0  0
 12  3  2  0  0  0  0
 12  7  1  0  0  0  0
 15  9  1  0  0  0  0
 16 10  1  0  0  0  0
 17 11  1  0  0  0  0
 18  1  1  0  0  0  0
 19 18  1  0  0  0  0
 19 24  1  0  0  0  0
 20 19  2  0  0  0  0
 21 22  2  0  0  0  0
 21 20  1  0  0  0  0
 22 23  1  0  0  0  0
 23 18  2  0  0  0  0
 25 20  1  0  0  0  0
 26 22  1  0  0  0  0
 27 26  1  0  0  0  0
 28 27  1  0  0  0  0
 29 28  1  0  0  0  0
 30 29  1  0  0  0  0
 30 31  1  0  0  0  0
 31 26  1  0  0  0  0
 33 32  1  0  0  0  0
M  END
>  <minimizedAffinity>
-7.52555943

>  <minimizedRMSD>
0.663739741

$$$$
