
 OpenBabel03252514053D

 35 38  0  0  1  0  0  0  0  0999 V2000
   35.3300   29.4160   48.9700 C   0  0  2  0  0  0  0  0  0  0  0  0
   34.1930   29.2810   49.8750 C   0  0  0  0  0  0  0  0  0  0  0  0
   34.5970   28.0600   49.2410 C   0  0  1  0  0  0  0  0  0  0  0  0
   35.2320   29.8470   47.9690 H   0  0  0  0  0  0  0  0  0  0  0  0
   33.2370   29.7880   49.5930 H   0  0  0  0  0  0  0  0  0  0  0  0
   34.4020   29.4010   50.9750 H   0  0  0  0  0  0  0  0  0  0  0  0
   35.2570   27.2960   49.6460 H   0  0  0  0  0  0  0  0  0  0  0  0
   36.7220   29.4080   49.6250 C   0  0  0  0  0  0  0  0  0  0  0  0
   37.2290   28.4520   49.3660 H   0  0  0  0  0  0  0  0  0  0  0  0
   36.6190   29.4720   50.7100 H   0  0  0  0  0  0  0  0  0  0  0  0
   38.2140   32.7380   49.4660 C   0  0  0  0  0  0  0  0  0  0  0  0
   38.8260   32.7410   48.1980 C   0  0  0  0  0  0  0  0  0  0  0  0
   38.7100   31.5740   47.4090 C   0  0  0  0  0  0  0  0  0  0  0  0
   38.0150   30.5090   47.9160 N   0  0  0  0  0  0  0  0  0  0  0  0
   37.4510   30.5680   49.1400 C   0  0  0  0  0  0  0  0  0  0  0  0
   37.5580   31.6840   49.9040 N   0  0  0  0  0  0  0  0  0  0  0  0
   38.3540   33.6700   49.9980 H   0  0  0  0  0  0  0  0  0  0  0  0
   39.3880   33.5620   47.7520 H   0  0  0  0  0  0  0  0  0  0  0  0
   39.1520   31.5010   46.4250 H   0  0  0  0  0  0  0  0  0  0  0  0
   33.6880   27.5730   48.1320 C   0  0  0  0  0  0  0  0  0  0  0  0
   33.8870   26.3260   47.8340 O   0  0  0  0  0  0  0  0  0  0  0  0
   32.7150   28.3210   47.4620 O   0  0  0  0  0  0  0  0  0  0  0  0
   31.3720   28.1250   47.6540 C   0  0  0  0  0  0  0  0  0  0  0  0
   30.7500   27.6290   48.9000 C   0  0  0  0  0  0  0  0  0  0  0  0
   29.4070   27.4940   48.9190 C   0  0  0  0  0  0  0  0  0  0  0  0
   28.6020   27.8080   47.8040 C   0  0  0  0  0  0  0  0  0  0  0  0
   29.8500   28.3680   46.5470 S   0  0  0  0  0  0  0  0  0  0  0  0
   31.4030   27.4050   49.7210 H   0  0  0  0  0  0  0  0  0  0  0  0
   28.8590   27.1410   49.7740 H   0  0  0  0  0  0  0  0  0  0  0  0
   27.2010   27.7690   47.5340 C   0  0  0  0  0  3  0  0  0  0  0  0
   26.3960   27.5670   48.7650 C   0  0  0  0  0  2  0  0  0  0  0  0
   25.5620   28.7350   49.1990 C   0  0  0  0  0  2  0  0  0  0  0  0
   26.1380   30.0790   48.9400 C   0  0  0  0  0  2  0  0  0  0  0  0
   26.7140   30.2450   47.5620 C   0  0  0  0  0  2  0  0  0  0  0  0
   26.7130   28.9750   46.7660 C   0  0  0  0  0  2  0  0  0  0  0  0
  1  4  1  6  0  0  0
  1  3  1  0  0  0  0
  1  8  1  0  0  0  0
  1  2  1  0  0  0  0
  2  6  1  0  0  0  0
  3  7  1  1  0  0  0
  3  2  1  0  0  0  0
  5  2  1  0  0  0  0
  8 10  1  0  0  0  0
  9  8  1  0  0  0  0
 11 16  1  0  0  0  0
 11 17  1  0  0  0  0
 12 11  2  0  0  0  0
 13 14  2  0  0  0  0
 13 12  1  0  0  0  0
 14 15  1  0  0  0  0
 15  8  1  0  0  0  0
 15 16  2  0  0  0  0
 18 12  1  0  0  0  0
 19 13  1  0  0  0  0
 20  3  1  0  0  0  0
 21 20  2  0  0  0  0
 22 23  1  0  0  0  0
 22 20  1  0  0  0  0
 23 24  2  0  0  0  0
 24 25  1  0  0  0  0
 24 28  1  0  0  0  0
 25 29  1  0  0  0  0
 26 25  2  0  0  0  0
 27 23  1  0  0  0  0
 27 26  1  0  0  0  0
 30 26  1  0  0  0  0
 30 31  1  0  0  0  0
 31 32  1  0  0  0  0
 33 32  1  0  0  0  0
 34 33  1  0  0  0  0
 35 30  1  0  0  0  0
 35 34  1  0  0  0  0
M  END
>  <minimizedAffinity>
-6.58635569

>  <minimizedRMSD>
1.28023362

$$$$
