
 OpenBabel03252513453D

 19 20  0  0  1  0  0  0  0  0999 V2000
   37.6460   30.5120   49.0030 C   0  0  0  0  0  0  0  0  0  0  0  0
   37.8250   31.5140   50.0030 C   0  0  0  0  0  0  0  0  0  0  0  0
   38.4800   32.6960   49.6630 C   0  0  0  0  0  0  0  0  0  0  0  0
   38.9180   32.8350   48.3820 N   0  0  0  0  0  0  0  0  0  0  0  0
   38.7300   31.8710   47.4740 C   0  0  0  0  0  0  0  0  0  0  0  0
   38.1140   30.7320   47.7510 N   0  0  0  0  0  0  0  0  0  0  0  0
   37.4370   31.2990   50.9890 H   0  0  0  0  0  0  0  0  0  0  0  0
   38.5890   33.4230   50.4590 H   0  0  0  0  0  0  0  0  0  0  0  0
   39.2450   32.1140   46.0980 C   0  0  2  0  0  3  0  0  0  0  0  0
   38.0810   32.3260   45.1730 C   0  0  0  0  0  2  0  0  0  0  0  0
   38.5530   32.5900   43.7910 C   0  0  0  0  0  3  0  0  0  0  0  0
   39.8360   32.0400   43.3560 C   0  0  0  0  0  3  0  0  0  0  0  0
   40.6340   31.2470   44.3270 C   0  0  0  0  0  2  0  0  0  0  0  0
   39.8780   30.8230   45.5590 C   0  0  0  0  0  2  0  0  0  0  0  0
   37.0050   29.3640   49.3520 O   0  0  0  0  0  0  0  0  0  0  0  0
   35.7580   29.3020   49.9860 C   0  0  0  0  0  0  0  0  0  0  0  0
   35.8380   29.2230   51.3620 F   0  0  0  0  0  0  0  0  0  0  0  0
   34.8970   30.3040   49.6310 F   0  0  0  0  0  0  0  0  0  0  0  0
   35.1670   28.1060   49.5600 F   0  0  0  0  0  0  0  0  0  0  0  0
  1 15  1  0  0  0  0
  1  2  1  0  0  0  0
  2  7  1  0  0  0  0
  3  2  2  0  0  0  0
  3  8  1  0  0  0  0
  4  3  1  0  0  0  0
  5  6  1  0  0  0  0
  5  4  2  0  0  0  0
  6  1  2  0  0  0  0
  9  5  1  1  0  0  0
 10  9  1  0  0  0  0
 11 10  1  0  0  0  0
 12 11  2  0  0  0  0
 12 13  1  0  0  0  0
 13 14  1  0  0  0  0
 14  9  1  0  0  0  0
 15 16  1  0  0  0  0
 16 17  1  0  0  0  0
 18 16  1  0  0  0  0
 19 16  1  0  0  0  0
M  END
>  <minimizedAffinity>
-5.95568275

>  <minimizedRMSD>
1.55404758

$$$$
