
 OpenBabel03252513583D

 25 27  0  0  1  0  0  0  0  0999 V2000
   35.1760   29.6990   49.0750 C   0  0  2  0  0  0  0  0  0  0  0  0
   34.0970   29.1260   49.9390 C   0  0  0  0  0  0  0  0  0  0  0  0
   34.4020   28.4700   48.6520 C   0  0  1  0  0  0  0  0  0  0  0  0
   34.9850   30.5800   48.4390 H   0  0  0  0  0  0  0  0  0  0  0  0
   34.4580   28.7820   50.9170 H   0  0  0  0  0  0  0  0  0  0  0  0
   33.2080   29.7940   50.0340 H   0  0  0  0  0  0  0  0  0  0  0  0
   34.8890   27.4750   48.7470 H   0  0  0  0  0  0  0  0  0  0  0  0
   33.3530   28.5730   47.5940 C   0  0  0  0  0  3  0  0  0  0  0  0
   32.1160   27.8630   48.0890 C   0  0  0  0  0  2  0  0  0  0  0  0
   32.2450   26.3630   48.0350 C   0  0  0  0  0  2  0  0  0  0  0  0
   32.5010   25.9140   46.6180 C   0  0  0  0  0  2  0  0  0  0  0  0
   33.7800   26.5440   46.1600 C   0  0  0  0  0  2  0  0  0  0  0  0
   33.8020   28.0410   46.2540 C   0  0  0  0  0  2  0  0  0  0  0  0
   36.6200   29.4490   49.3950 C   0  0  0  0  0  0  0  0  0  0  0  0
   37.0300   28.6140   48.7530 H   0  0  0  0  0  0  0  0  0  0  0  0
   36.7940   29.1200   50.4260 H   0  0  0  0  0  0  0  0  0  0  0  0
   37.9480   32.8810   49.4280 C   0  0  0  0  0  0  0  0  0  0  0  0
   38.7720   32.9090   48.3020 C   0  0  0  0  0  0  0  0  0  0  0  0
   38.8810   31.7440   47.5160 C   0  0  0  0  0  0  0  0  0  0  0  0
   38.1590   30.6490   47.9200 N   0  0  0  0  0  0  0  0  0  0  0  0
   37.3720   30.6700   49.0210 C   0  0  0  0  0  0  0  0  0  0  0  0
   37.2740   31.7970   49.7720 N   0  0  0  0  0  0  0  0  0  0  0  0
   37.8400   33.7540   50.0550 H   0  0  0  0  0  0  0  0  0  0  0  0
   39.3240   33.7940   48.0190 H   0  0  0  0  0  0  0  0  0  0  0  0
   39.5010   31.6980   46.6300 H   0  0  0  0  0  0  0  0  0  0  0  0
  1  4  1  6  0  0  0
  1 14  1  0  0  0  0
  1  2  1  0  0  0  0
  2  6  1  0  0  0  0
  2  5  1  0  0  0  0
  3  7  1  1  0  0  0
  3  1  1  0  0  0  0
  3  2  1  0  0  0  0
  8  9  1  0  0  0  0
  8  3  1  0  0  0  0
 10  9  1  0  0  0  0
 11 10  1  0  0  0  0
 12 13  1  0  0  0  0
 12 11  1  0  0  0  0
 13  8  1  0  0  0  0
 14 16  1  0  0  0  0
 15 14  1  0  0  0  0
 17 22  1  0  0  0  0
 17 23  1  0  0  0  0
 18 17  2  0  0  0  0
 19 20  2  0  0  0  0
 19 18  1  0  0  0  0
 20 21  1  0  0  0  0
 21 14  1  0  0  0  0
 21 22  2  0  0  0  0
 24 18  1  0  0  0  0
 25 19  1  0  0  0  0
M  END
>  <minimizedAffinity>
-4.88898802

>  <minimizedRMSD>
1.21633255

$$$$
