
 OpenBabel03252513463D

 19 20  0  0  1  0  0  0  0  0999 V2000
   37.1490   30.3880   49.4220 C   0  0  0  0  0  0  0  0  0  0  0  0
   36.9630   31.6420   50.0780 C   0  0  0  0  0  0  0  0  0  0  0  0
   37.5920   32.7720   49.5590 C   0  0  0  0  0  0  0  0  0  0  0  0
   38.3570   32.6200   48.4440 N   0  0  0  0  0  0  0  0  0  0  0  0
   38.5050   31.4260   47.8590 C   0  0  0  0  0  0  0  0  0  0  0  0
   37.9280   30.3250   48.3160 N   0  0  0  0  0  0  0  0  0  0  0  0
   36.3350   31.6490   50.9570 H   0  0  0  0  0  0  0  0  0  0  0  0
   37.4190   33.6980   50.0950 H   0  0  0  0  0  0  0  0  0  0  0  0
   39.3620   31.3580   46.6430 C   0  0  2  0  0  3  0  0  0  0  0  0
   39.6680   32.7550   46.1860 C   0  0  0  0  0  2  0  0  0  0  0  0
   40.5380   32.7330   44.9830 C   0  0  0  0  0  3  0  0  0  0  0  0
   40.4780   31.5840   44.0790 C   0  0  0  0  0  3  0  0  0  0  0  0
   39.5550   30.4670   44.4110 C   0  0  0  0  0  2  0  0  0  0  0  0
   38.5410   30.7900   45.4770 C   0  0  0  0  0  2  0  0  0  0  0  0
   36.5280   29.2950   49.9410 O   0  0  0  0  0  0  0  0  0  0  0  0
   35.1880   29.2490   50.3480 C   0  0  0  0  0  0  0  0  0  0  0  0
   35.0240   29.2220   51.7180 F   0  0  0  0  0  0  0  0  0  0  0  0
   34.4050   30.2320   49.8080 F   0  0  0  0  0  0  0  0  0  0  0  0
   34.6810   28.0340   49.8690 F   0  0  0  0  0  0  0  0  0  0  0  0
  1 15  1  0  0  0  0
  1  2  1  0  0  0  0
  2  7  1  0  0  0  0
  3  2  2  0  0  0  0
  3  8  1  0  0  0  0
  4  3  1  0  0  0  0
  5  6  1  0  0  0  0
  5  4  2  0  0  0  0
  6  1  2  0  0  0  0
  9  5  1  1  0  0  0
 10  9  1  0  0  0  0
 11 10  1  0  0  0  0
 12 13  1  0  0  0  0
 12 11  2  0  0  0  0
 13 14  1  0  0  0  0
 14  9  1  0  0  0  0
 15 16  1  0  0  0  0
 16 17  1  0  0  0  0
 18 16  1  0  0  0  0
 19 16  1  0  0  0  0
M  END
>  <minimizedAffinity>
-6.23197985

>  <minimizedRMSD>
1.69069445

$$$$
