
 OpenBabel03252510013D

 14 15  0  0  0  0  0  0  0  0999 V2000
   37.0870   29.8410   51.6400 C   0  0  0  0  0  0  0  0  0  0  0  0
   37.7080   30.5930   50.6280 C   0  0  0  0  0  0  0  0  0  0  0  0
   36.9970   30.7880   49.4290 C   0  0  0  0  0  0  0  0  0  0  0  0
   35.7600   30.2410   49.3260 N   0  0  0  0  0  0  0  0  0  0  0  0
   35.1980   29.5270   50.3160 C   0  0  0  0  0  0  0  0  0  0  0  0
   35.8550   29.3280   51.4660 N   0  0  0  0  0  0  0  0  0  0  0  0
   37.6390   29.6970   52.5540 H   0  0  0  0  0  0  0  0  0  0  0  0
   38.6930   31.0320   50.7050 H   0  0  0  0  0  0  0  0  0  0  0  0
   34.2060   29.1310   50.1400 H   0  0  0  0  0  0  0  0  0  0  0  0
   37.5240   31.5530   48.2880 C   0  0  0  0  0  0  0  0  0  0  0  0
   38.6450   32.4600   48.7470 C   0  0  0  0  0  0  0  0  0  0  0  0
   39.2360   32.9260   47.4340 C   0  0  0  0  0  0  0  0  0  0  0  0
   39.2800   31.6360   46.6430 C   0  0  0  0  0  0  0  0  0  0  0  0
   38.2420   30.7100   47.2620 C   0  0  0  0  0  0  0  0  0  0  0  0
  1  7  1  0  0  0  0
  2  8  1  0  0  0  0
  2  1  2  0  0  0  0
  3  2  1  0  0  0  0
  4  3  2  0  0  0  0
  4  5  1  0  0  0  0
  5  6  2  0  0  0  0
  6  1  1  0  0  0  0
  9  5  1  0  0  0  0
 10 11  1  0  0  0  0
 10  3  1  0  0  0  0
 12 11  1  0  0  0  0
 13 14  1  0  0  0  0
 13 12  1  0  0  0  0
 14 10  1  0  0  0  0
M  END
>  <minimizedAffinity>
-4.62177658

>  <minimizedRMSD>
1.05017698

$$$$
