
 OpenBabel03252510203D

 14 15  0  0  0  0  0  0  0  0999 V2000
   35.6360   30.4630   47.9120 C   0  0  0  0  0  0  0  0  0  0  0  0
   36.4010   30.4230   46.7240 C   0  0  0  0  0  0  0  0  0  0  0  0
   35.7100   30.1720   45.5300 C   0  0  0  0  0  0  0  0  0  0  0  0
   34.3490   29.9820   45.5850 N   0  0  0  0  0  0  0  0  0  0  0  0
   33.6720   30.0310   46.7440 C   0  0  0  0  0  0  0  0  0  0  0  0
   34.3140   30.2710   47.9090 N   0  0  0  0  0  0  0  0  0  0  0  0
   37.4610   30.5800   46.7480 H   0  0  0  0  0  0  0  0  0  0  0  0
   36.2530   30.1320   44.5990 H   0  0  0  0  0  0  0  0  0  0  0  0
   32.6010   29.8670   46.6730 H   0  0  0  0  0  0  0  0  0  0  0  0
   36.3090   30.7220   49.1870 C   0  0  0  0  0  0  0  0  0  0  0  0
   37.7890   30.9590   49.0440 C   0  0  0  0  0  0  0  0  0  0  0  0
   38.2570   30.8860   50.4810 C   0  0  0  0  0  0  0  0  0  0  0  0
   37.2060   30.0810   51.2340 C   0  0  0  0  0  0  0  0  0  0  0  0
   36.3090   29.5100   50.1280 C   0  0  0  0  0  0  0  0  0  0  0  0
  1 10  1  0  0  0  0
  2  7  1  0  0  0  0
  2  1  2  0  0  0  0
  3  4  2  0  0  0  0
  3  2  1  0  0  0  0
  4  5  1  0  0  0  0
  5  6  2  0  0  0  0
  6  1  1  0  0  0  0
  8  3  1  0  0  0  0
  9  5  1  0  0  0  0
 10 14  1  0  0  0  0
 11 10  1  0  0  0  0
 11 12  1  0  0  0  0
 12 13  1  0  0  0  0
 14 13  1  0  0  0  0
M  END
>  <minimizedAffinity>
-4.30124807

>  <minimizedRMSD>
4.06487322

$$$$
