
 OpenBabel03252514053D

 34 37  0  0  1  0  0  0  0  0999 V2000
   35.2700   29.4650   49.0140 C   0  0  2  0  0  0  0  0  0  0  0  0
   34.1220   29.2830   49.8940 C   0  0  0  0  0  0  0  0  0  0  0  0
   34.5780   28.0820   49.2530 C   0  0  1  0  0  0  0  0  0  0  0  0
   35.2120   29.7910   47.9720 H   0  0  0  0  0  0  0  0  0  0  0  0
   33.1390   29.7350   49.6390 H   0  0  0  0  0  0  0  0  0  0  0  0
   34.3080   29.3810   51.0050 H   0  0  0  0  0  0  0  0  0  0  0  0
   35.2710   27.3210   49.6200 H   0  0  0  0  0  0  0  0  0  0  0  0
   36.6470   29.4980   49.6980 C   0  0  0  0  0  0  0  0  0  0  0  0
   37.1610   28.5340   49.5380 H   0  0  0  0  0  0  0  0  0  0  0  0
   36.5080   29.6210   50.7910 H   0  0  0  0  0  0  0  0  0  0  0  0
   37.9580   32.8970   49.4250 C   0  0  0  0  0  0  0  0  0  0  0  0
   38.7240   32.8380   48.2400 C   0  0  0  0  0  0  0  0  0  0  0  0
   38.7710   31.6040   47.5510 C   0  0  0  0  0  0  0  0  0  0  0  0
   38.0770   30.5430   48.0690 N   0  0  0  0  0  0  0  0  0  0  0  0
   37.3670   30.6580   49.1970 C   0  0  0  0  0  0  0  0  0  0  0  0
   37.3150   31.8410   49.8670 N   0  0  0  0  0  0  0  0  0  0  0  0
   37.9900   33.8850   49.8700 H   0  0  0  0  0  0  0  0  0  0  0  0
   39.2950   33.6360   47.7780 H   0  0  0  0  0  0  0  0  0  0  0  0
   39.3380   31.4850   46.6370 H   0  0  0  0  0  0  0  0  0  0  0  0
   33.7000   27.5870   48.1200 C   0  0  0  0  0  0  0  0  0  0  0  0
   33.9680   26.3750   47.7590 O   0  0  0  0  0  0  0  0  0  0  0  0
   32.6850   28.2890   47.4810 O   0  0  0  0  0  0  0  0  0  0  0  0
   31.3530   28.0680   47.6970 C   0  0  0  0  0  0  0  0  0  0  0  0
   30.7870   27.3200   48.8480 C   0  0  0  0  0  0  0  0  0  0  0  0
   29.4450   27.1900   48.9200 C   0  0  0  0  0  0  0  0  0  0  0  0
   28.5970   27.7400   47.9430 C   0  0  0  0  0  0  0  0  0  0  0  0
   29.7790   28.5500   46.7510 S   0  0  0  0  0  0  0  0  0  0  0  0
   31.4980   26.9310   49.5520 H   0  0  0  0  0  0  0  0  0  0  0  0
   28.9840   26.6590   49.7350 H   0  0  0  0  0  0  0  0  0  0  0  0
   27.2340   27.7710   47.7460 C   0  0  0  0  0  3  0  0  0  0  0  0
   26.4680   27.8120   49.0420 C   0  0  0  0  0  2  0  0  0  0  0  0
   26.3290   29.2580   49.3540 C   0  0  0  0  0  2  0  0  0  0  0  0
   26.2440   29.9470   48.0210 C   0  0  0  0  0  2  0  0  0  0  0  0
   26.6820   28.9480   46.9810 C   0  0  0  0  0  2  0  0  0  0  0  0
  1  4  1  6  0  0  0
  1  3  1  0  0  0  0
  1  8  1  0  0  0  0
  1  2  1  0  0  0  0
  2  6  1  0  0  0  0
  3  7  1  1  0  0  0
  3  2  1  0  0  0  0
  5  2  1  0  0  0  0
  8 10  1  0  0  0  0
  9  8  1  0  0  0  0
 11 16  1  0  0  0  0
 11 17  1  0  0  0  0
 12 11  2  0  0  0  0
 13 14  2  0  0  0  0
 13 12  1  0  0  0  0
 14 15  1  0  0  0  0
 15  8  1  0  0  0  0
 15 16  2  0  0  0  0
 18 12  1  0  0  0  0
 19 13  1  0  0  0  0
 20  3  1  0  0  0  0
 21 20  2  0  0  0  0
 22 23  1  0  0  0  0
 22 20  1  0  0  0  0
 23 24  2  0  0  0  0
 24 25  1  0  0  0  0
 24 28  1  0  0  0  0
 25 29  1  0  0  0  0
 26 25  2  0  0  0  0
 27 23  1  0  0  0  0
 27 26  1  0  0  0  0
 30 26  1  0  0  0  0
 30 31  1  0  0  0  0
 31 32  1  0  0  0  0
 33 32  1  0  0  0  0
 34 30  1  0  0  0  0
 34 33  1  0  0  0  0
M  END
>  <minimizedAffinity>
-6.19735384

>  <minimizedRMSD>
1.45219839

$$$$
