
 OpenBabel03252512573D

 26 29  0  0  0  0  0  0  0  0999 V2000
   38.4260   31.6160   48.1220 C   0  0  0  0  0  0  0  0  0  0  0  0
   39.0820   32.8030   48.1620 N   0  0  0  0  0  0  0  0  0  0  0  0
   39.5440   33.0890   46.9770 O   0  0  0  0  0  0  0  0  0  0  0  0
   39.2120   32.1290   46.1660 C   0  0  0  0  0  0  0  0  0  0  0  0
   38.5020   31.1620   46.8310 N   0  0  0  0  0  0  0  0  0  0  0  0
   39.5000   32.0080   44.7710 N   0  0  0  0  0  0  0  0  0  0  0  0
   38.9660   32.8450   43.8780 N   0  0  0  0  0  0  0  0  0  0  0  0
   39.3990   32.5110   42.6370 C   0  0  0  0  0  0  0  0  0  0  0  0
   40.2450   31.4000   42.8280 C   0  0  0  0  0  0  0  0  0  0  0  0
   40.2930   31.1030   44.1720 C   0  0  0  0  0  0  0  0  0  0  0  0
   39.1350   33.0110   41.7140 H   0  0  0  0  0  0  0  0  0  0  0  0
   40.7630   30.8830   42.0130 H   0  0  0  0  0  0  0  0  0  0  0  0
   40.8540   30.3050   44.6410 H   0  0  0  0  0  0  0  0  0  0  0  0
   37.3400   30.1600   51.4070 C   0  0  0  0  0  0  0  0  0  0  0  0
   38.0580   30.9360   50.4940 C   0  0  0  0  0  0  0  0  0  0  0  0
   37.7350   30.8460   49.1460 C   0  0  0  0  0  0  0  0  0  0  0  0
   36.7310   30.0040   48.7630 N   0  0  0  0  0  0  0  0  0  0  0  0
   36.0560   29.2660   49.6660 C   0  0  0  0  0  0  0  0  0  0  0  0
   36.3540   29.3380   50.9980 N   0  0  0  0  0  0  0  0  0  0  0  0
   37.6140   30.2510   52.4520 H   0  0  0  0  0  0  0  0  0  0  0  0
   38.8520   31.6060   50.7680 H   0  0  0  0  0  0  0  0  0  0  0  0
   34.9780   28.3790   49.1460 C   0  0  0  0  0  0  0  0  0  0  0  0
   33.6420   28.6910   49.7810 C   0  0  0  0  0  0  0  0  0  0  0  0
   32.6860   28.0370   48.7990 C   0  0  0  0  0  0  0  0  0  0  0  0
   33.3710   28.0470   47.4670 C   0  0  0  0  0  0  0  0  0  0  0  0
   34.6960   28.7380   47.7000 C   0  0  0  0  0  0  0  0  0  0  0  0
  1  2  2  0  0  0  0
  1 16  1  0  0  0  0
  3  2  1  0  0  0  0
  4  5  2  0  0  0  0
  4  3  1  0  0  0  0
  5  1  1  0  0  0  0
  6  4  1  0  0  0  0
  7  6  1  0  0  0  0
  8  9  1  0  0  0  0
  8  7  2  0  0  0  0
  9 10  2  0  0  0  0
 10 13  1  0  0  0  0
 10  6  1  0  0  0  0
 11  8  1  0  0  0  0
 12  9  1  0  0  0  0
 14 20  1  0  0  0  0
 15 21  1  0  0  0  0
 15 14  2  0  0  0  0
 16 15  1  0  0  0  0
 17 16  2  0  0  0  0
 17 18  1  0  0  0  0
 18 19  2  0  0  0  0
 19 14  1  0  0  0  0
 22 18  1  0  0  0  0
 22 23  1  0  0  0  0
 24 23  1  0  0  0  0
 25 26  1  0  0  0  0
 25 24  1  0  0  0  0
 26 22  1  0  0  0  0
M  END
>  <minimizedAffinity>
-6.77503347

>  <minimizedRMSD>
0.28898412

$$$$
