
 OpenBabel03252513583D

 24 26  0  0  1  0  0  0  0  0999 V2000
   36.6380   29.4440   49.3770 C   0  0  0  0  0  0  0  0  0  0  0  0
   36.7300   29.2370   50.4650 H   0  0  0  0  0  0  0  0  0  0  0  0
   36.9850   28.5880   48.7790 H   0  0  0  0  0  0  0  0  0  0  0  0
   37.9450   32.8780   49.4200 C   0  0  0  0  0  0  0  0  0  0  0  0
   38.7820   32.9190   48.2810 C   0  0  0  0  0  0  0  0  0  0  0  0
   38.8750   31.7530   47.5230 C   0  0  0  0  0  0  0  0  0  0  0  0
   38.1700   30.6500   47.9050 N   0  0  0  0  0  0  0  0  0  0  0  0
   37.3740   30.6600   49.0120 C   0  0  0  0  0  0  0  0  0  0  0  0
   37.2800   31.7800   49.7480 N   0  0  0  0  0  0  0  0  0  0  0  0
   37.9050   33.8120   49.9810 H   0  0  0  0  0  0  0  0  0  0  0  0
   39.3310   33.8070   48.0000 H   0  0  0  0  0  0  0  0  0  0  0  0
   39.5010   31.7350   46.6430 H   0  0  0  0  0  0  0  0  0  0  0  0
   35.1690   29.7090   49.1080 C   0  0  2  0  0  0  0  0  0  0  0  0
   34.1530   29.2570   50.0890 C   0  0  0  0  0  0  0  0  0  0  0  0
   34.3390   28.4750   48.8580 C   0  0  1  0  0  0  0  0  0  0  0  0
   34.9400   30.5320   48.3890 H   0  0  0  0  0  0  0  0  0  0  0  0
   33.3630   29.9880   50.2750 H   0  0  0  0  0  0  0  0  0  0  0  0
   34.5550   28.8420   51.0580 H   0  0  0  0  0  0  0  0  0  0  0  0
   34.8430   27.4770   48.9990 H   0  0  0  0  0  0  0  0  0  0  0  0
   33.3320   28.4590   47.7400 C   0  0  0  0  0  0  0  0  0  0  0  0
   32.0080   27.8360   48.1360 C   0  0  0  0  0  0  0  0  0  0  0  0
   32.2010   26.3590   48.0080 C   0  0  0  0  0  0  0  0  0  0  0  0
   33.6130   26.1570   47.4540 C   0  0  0  0  0  0  0  0  0  0  0  0
   33.7900   27.4570   46.7000 C   0  0  0  0  0  0  0  0  0  0  0  0
  1  2  1  0  0  0  0
  3  1  1  0  0  0  0
  4  9  1  0  0  0  0
  4 10  1  0  0  0  0
  5  4  2  0  0  0  0
  6  7  2  0  0  0  0
  6  5  1  0  0  0  0
  7  8  1  0  0  0  0
  8  1  1  0  0  0  0
  8  9  2  0  0  0  0
 11  5  1  0  0  0  0
 12  6  1  0  0  0  0
 13 16  1  6  0  0  0
 13  1  1  0  0  0  0
 13 14  1  0  0  0  0
 14 17  1  0  0  0  0
 14 18  1  0  0  0  0
 15 19  1  1  0  0  0
 15 13  1  0  0  0  0
 15 14  1  0  0  0  0
 20 21  1  0  0  0  0
 20 15  1  0  0  0  0
 22 21  1  0  0  0  0
 23 22  1  0  0  0  0
 24 23  1  0  0  0  0
 24 20  1  0  0  0  0
M  END
>  <minimizedAffinity>
-4.97242403

>  <minimizedRMSD>
1.16418767

$$$$
