
 OpenBabel03252513063D

 33 35  0  0  0  0  0  0  0  0999 V2000
   37.1040   30.5160   43.8750 C   0  0  0  0  0  0  0  0  0  0  0  0
   36.1980   31.1130   43.5720 H   0  0  0  0  0  0  0  0  0  0  0  0
   36.7550   29.4500   43.8420 H   0  0  0  0  0  0  0  0  0  0  0  0
   38.1100   30.7000   42.9210 N   0  0  0  0  0  0  0  0  0  0  0  0
   39.3050   31.2610   43.0480 C   0  0  0  0  0  0  0  0  0  0  0  0
   40.2310   31.3970   42.0420 C   0  0  0  0  0  0  0  0  0  0  0  0
   39.9370   30.9290   40.7880 C   0  0  0  0  0  0  0  0  0  0  0  0
   40.7240   31.0180   39.8280 O   0  0  0  0  0  0  0  0  0  0  0  0
   38.7540   30.3690   40.6420 N   0  0  0  0  0  0  0  0  0  0  0  0
   37.8710   30.2480   41.6320 C   0  0  0  0  0  0  0  0  0  0  0  0
   36.7630   29.6920   41.3780 O   0  0  0  0  0  0  0  0  0  0  0  0
   39.5450   31.6360   44.0480 H   0  0  0  0  0  0  0  0  0  0  0  0
   41.1830   31.8720   42.2500 H   0  0  0  0  0  0  0  0  0  0  0  0
   38.4110   29.8610   39.3150 C   0  0  0  0  0  0  0  0  0  0  0  0
   37.6120   28.7400   39.4360 F   0  0  0  0  0  0  0  0  0  0  0  0
   39.6090   29.4530   38.7210 F   0  0  0  0  0  0  0  0  0  0  0  0
   37.8180   30.8620   38.6060 F   0  0  0  0  0  0  0  0  0  0  0  0
   37.3630   30.8430   45.2990 C   0  0  0  0  0  0  0  0  0  0  0  0
   38.2750   30.2520   45.6010 H   0  0  0  0  0  0  0  0  0  0  0  0
   37.6180   31.9190   45.3770 H   0  0  0  0  0  0  0  0  0  0  0  0
   34.1230   29.5580   46.7500 C   0  0  0  0  0  0  0  0  0  0  0  0
   35.1170   29.8720   45.8060 C   0  0  0  0  0  0  0  0  0  0  0  0
   36.2770   30.4800   46.2070 C   0  0  0  0  0  0  0  0  0  0  0  0
   36.4030   30.7500   47.5350 N   0  0  0  0  0  0  0  0  0  0  0  0
   35.4730   30.4560   48.4200 C   0  0  0  0  0  0  0  0  0  0  0  0
   34.3350   29.8650   48.0630 N   0  0  0  0  0  0  0  0  0  0  0  0
   33.2290   29.0830   46.4000 H   0  0  0  0  0  0  0  0  0  0  0  0
   34.9780   29.6390   44.7480 H   0  0  0  0  0  0  0  0  0  0  0  0
   35.6870   30.7840   49.8620 C   0  0  0  0  0  0  0  0  0  0  0  0
   35.8860   29.5060   50.6310 C   0  0  0  0  0  0  0  0  0  0  0  0
   37.3810   29.3350   50.7700 C   0  0  0  0  0  0  0  0  0  0  0  0
   38.0170   30.6300   50.3200 C   0  0  0  0  0  0  0  0  0  0  0  0
   36.8980   31.6210   50.1160 C   0  0  0  0  0  0  0  0  0  0  0  0
  1 18  1  0  0  0  0
  2  1  1  0  0  0  0
  3  1  1  0  0  0  0
  4  5  1  0  0  0  0
  4  1  1  0  0  0  0
  5 12  1  0  0  0  0
  6 13  1  0  0  0  0
  6  5  2  0  0  0  0
  7  6  1  0  0  0  0
  8  7  2  0  0  0  0
  9  7  1  0  0  0  0
  9 10  1  0  0  0  0
 10  4  1  0  0  0  0
 11 10  2  0  0  0  0
 14 15  1  0  0  0  0
 14  9  1  0  0  0  0
 16 14  1  0  0  0  0
 17 14  1  0  0  0  0
 18 20  1  0  0  0  0
 18 19  1  0  0  0  0
 18 23  1  0  0  0  0
 21 26  1  0  0  0  0
 22 23  1  0  0  0  0
 22 21  2  0  0  0  0
 23 24  2  0  0  0  0
 24 25  1  0  0  0  0
 25 29  1  0  0  0  0
 26 25  2  0  0  0  0
 27 21  1  0  0  0  0
 28 22  1  0  0  0  0
 29 33  1  0  0  0  0
 29 30  1  0  0  0  0
 30 31  1  0  0  0  0
 32 31  1  0  0  0  0
 33 32  1  0  0  0  0
M  END
>  <minimizedAffinity>
-5.16498852

>  <minimizedRMSD>
3.66051793

$$$$
