
 OpenBabel03252514053D

 34 37  0  0  1  0  0  0  0  0999 V2000
   35.3420   29.0050   48.4060 C   0  0  2  0  0  0  0  0  0  0  0  0
   34.0200   29.3860   48.8900 C   0  0  0  0  0  0  0  0  0  0  0  0
   34.2980   27.9800   48.9610 C   0  0  1  0  0  0  0  0  0  0  0  0
   35.5940   28.8250   47.3570 H   0  0  0  0  0  0  0  0  0  0  0  0
   33.2570   29.7880   48.1890 H   0  0  0  0  0  0  0  0  0  0  0  0
   33.9770   29.9560   49.8650 H   0  0  0  0  0  0  0  0  0  0  0  0
   34.6880   27.3910   49.7960 H   0  0  0  0  0  0  0  0  0  0  0  0
   36.5020   29.1780   49.4010 C   0  0  0  0  0  0  0  0  0  0  0  0
   37.1580   28.2910   49.3590 H   0  0  0  0  0  0  0  0  0  0  0  0
   36.0930   29.2390   50.4290 H   0  0  0  0  0  0  0  0  0  0  0  0
   37.5250   32.6790   49.6070 C   0  0  0  0  0  0  0  0  0  0  0  0
   38.4160   32.8040   48.5180 C   0  0  0  0  0  0  0  0  0  0  0  0
   38.6480   31.6560   47.7250 C   0  0  0  0  0  0  0  0  0  0  0  0
   37.9990   30.4960   48.0560 N   0  0  0  0  0  0  0  0  0  0  0  0
   37.1650   30.4360   49.0990 C   0  0  0  0  0  0  0  0  0  0  0  0
   36.9350   31.5360   49.8680 N   0  0  0  0  0  0  0  0  0  0  0  0
   37.4210   33.6140   50.1430 H   0  0  0  0  0  0  0  0  0  0  0  0
   38.9600   33.6880   48.2030 H   0  0  0  0  0  0  0  0  0  0  0  0
   39.3190   31.6780   46.8760 H   0  0  0  0  0  0  0  0  0  0  0  0
   33.5960   27.1330   47.9170 C   0  0  0  0  0  0  0  0  0  0  0  0
   34.1680   25.9920   47.7150 O   0  0  0  0  0  0  0  0  0  0  0  0
   32.4490   27.4650   47.2070 O   0  0  0  0  0  0  0  0  0  0  0  0
   31.2850   27.8850   47.7910 C   0  0  0  0  0  0  0  0  0  0  0  0
   30.8280   27.5050   49.1510 C   0  0  0  0  0  0  0  0  0  0  0  0
   29.6520   28.0070   49.5870 C   0  0  0  0  0  0  0  0  0  0  0  0
   28.8750   28.8640   48.7880 C   0  0  0  0  0  0  0  0  0  0  0  0
   29.8710   29.0150   47.2200 S   0  0  0  0  0  0  0  0  0  0  0  0
   31.4760   26.8480   49.6990 H   0  0  0  0  0  0  0  0  0  0  0  0
   29.2760   27.7650   50.5660 H   0  0  0  0  0  0  0  0  0  0  0  0
   27.6700   29.5130   48.9470 C   0  0  0  0  0  3  0  0  0  0  0  0
   26.9630   29.7390   47.6360 C   0  0  0  0  0  2  0  0  0  0  0  0
   26.1370   28.5200   47.4370 C   0  0  0  0  0  2  0  0  0  0  0  0
   25.7470   28.0730   48.8170 C   0  0  0  0  0  2  0  0  0  0  0  0
   26.6270   28.8190   49.7870 C   0  0  0  0  0  2  0  0  0  0  0  0
  1  4  1  6  0  0  0
  1  2  1  0  0  0  0
  1  3  1  0  0  0  0
  1  8  1  0  0  0  0
  2  3  1  0  0  0  0
  2  6  1  0  0  0  0
  3  7  1  1  0  0  0
  5  2  1  0  0  0  0
  8 10  1  0  0  0  0
  9  8  1  0  0  0  0
 11 16  1  0  0  0  0
 11 17  1  0  0  0  0
 12 11  2  0  0  0  0
 13 14  2  0  0  0  0
 13 12  1  0  0  0  0
 14 15  1  0  0  0  0
 15  8  1  0  0  0  0
 15 16  2  0  0  0  0
 18 12  1  0  0  0  0
 19 13  1  0  0  0  0
 20  3  1  0  0  0  0
 21 20  2  0  0  0  0
 22 23  1  0  0  0  0
 22 20  1  0  0  0  0
 23 24  2  0  0  0  0
 24 25  1  0  0  0  0
 24 28  1  0  0  0  0
 25 29  1  0  0  0  0
 26 30  1  0  0  0  0
 26 25  2  0  0  0  0
 27 23  1  0  0  0  0
 27 26  1  0  0  0  0
 30 34  1  0  0  0  0
 31 30  1  0  0  0  0
 32 31  1  0  0  0  0
 32 33  1  0  0  0  0
 33 34  1  0  0  0  0
M  END
>  <minimizedAffinity>
-5.80674076

>  <minimizedRMSD>
1.82307458

$$$$
