
 OpenBabel03252514053D

 34 37  0  0  1  0  0  0  0  0999 V2000
   35.3430   29.2800   48.7740 C   0  0  2  0  0  0  0  0  0  0  0  0
   34.1240   29.1100   49.5560 C   0  0  0  0  0  0  0  0  0  0  0  0
   34.6650   27.8910   49.0260 C   0  0  1  0  0  0  0  0  0  0  0  0
   35.3730   29.5490   47.7150 H   0  0  0  0  0  0  0  0  0  0  0  0
   33.1570   29.5190   49.1890 H   0  0  0  0  0  0  0  0  0  0  0  0
   34.2050   29.2720   50.6720 H   0  0  0  0  0  0  0  0  0  0  0  0
   35.3410   27.1710   49.4950 H   0  0  0  0  0  0  0  0  0  0  0  0
   36.6510   29.3880   49.5770 C   0  0  0  0  0  0  0  0  0  0  0  0
   37.2300   28.4550   49.4650 H   0  0  0  0  0  0  0  0  0  0  0  0
   36.4090   29.5000   50.6530 H   0  0  0  0  0  0  0  0  0  0  0  0
   37.8690   32.8310   49.4750 C   0  0  0  0  0  0  0  0  0  0  0  0
   38.6540   32.8450   48.3010 C   0  0  0  0  0  0  0  0  0  0  0  0
   38.7460   31.6450   47.5580 C   0  0  0  0  0  0  0  0  0  0  0  0
   38.0740   30.5430   48.0190 N   0  0  0  0  0  0  0  0  0  0  0  0
   37.3450   30.5880   49.1390 C   0  0  0  0  0  0  0  0  0  0  0  0
   37.2490   31.7390   49.8590 N   0  0  0  0  0  0  0  0  0  0  0  0
   37.8670   33.7980   49.9630 H   0  0  0  0  0  0  0  0  0  0  0  0
   39.2090   33.6780   47.8830 H   0  0  0  0  0  0  0  0  0  0  0  0
   39.3300   31.5820   46.6500 H   0  0  0  0  0  0  0  0  0  0  0  0
   33.9070   27.3120   47.8470 C   0  0  0  0  0  0  0  0  0  0  0  0
   33.9930   26.0240   47.7670 O   0  0  0  0  0  0  0  0  0  0  0  0
   33.1660   28.0140   46.9040 O   0  0  0  0  0  0  0  0  0  0  0  0
   31.8470   28.3410   47.0620 C   0  0  0  0  0  0  0  0  0  0  0  0
   30.9480   27.7820   48.1030 C   0  0  0  0  0  0  0  0  0  0  0  0
   29.6670   28.2090   48.1290 C   0  0  0  0  0  0  0  0  0  0  0  0
   29.1860   29.1540   47.2050 C   0  0  0  0  0  0  0  0  0  0  0  0
   30.6750   29.5190   46.1450 S   0  0  0  0  0  0  0  0  0  0  0  0
   31.3890   27.0670   48.7710 H   0  0  0  0  0  0  0  0  0  0  0  0
   28.9740   27.8370   48.8640 H   0  0  0  0  0  0  0  0  0  0  0  0
   27.9710   29.7630   46.9830 C   0  0  0  0  0  3  0  0  0  0  0  0
   27.2990   29.2610   45.7310 C   0  0  0  0  0  2  0  0  0  0  0  0
   26.4910   28.0960   46.1760 C   0  0  0  0  0  2  0  0  0  0  0  0
   26.0660   28.4180   47.5810 C   0  0  0  0  0  2  0  0  0  0  0  0
   26.9120   29.5790   48.0410 C   0  0  0  0  0  2  0  0  0  0  0  0
  1  4  1  6  0  0  0
  1  3  1  0  0  0  0
  1  2  1  0  0  0  0
  1  8  1  0  0  0  0
  2  6  1  0  0  0  0
  3  7  1  1  0  0  0
  3  2  1  0  0  0  0
  5  2  1  0  0  0  0
  8 10  1  0  0  0  0
  9  8  1  0  0  0  0
 11 16  1  0  0  0  0
 11 17  1  0  0  0  0
 12 11  2  0  0  0  0
 13 14  2  0  0  0  0
 13 12  1  0  0  0  0
 14 15  1  0  0  0  0
 15  8  1  0  0  0  0
 15 16  2  0  0  0  0
 18 12  1  0  0  0  0
 19 13  1  0  0  0  0
 20  3  1  0  0  0  0
 21 20  2  0  0  0  0
 22 23  1  0  0  0  0
 22 20  1  0  0  0  0
 23 24  2  0  0  0  0
 24 25  1  0  0  0  0
 24 28  1  0  0  0  0
 25 29  1  0  0  0  0
 26 25  2  0  0  0  0
 27 23  1  0  0  0  0
 27 26  1  0  0  0  0
 30 26  1  0  0  0  0
 30 34  1  0  0  0  0
 31 32  1  0  0  0  0
 31 30  1  0  0  0  0
 32 33  1  0  0  0  0
 33 34  1  0  0  0  0
M  END
>  <minimizedAffinity>
-5.65100336

>  <minimizedRMSD>
2.23165941

$$$$
