
 OpenBabel03252514053D

 34 37  0  0  1  0  0  0  0  0999 V2000
   35.4290   29.4850   48.6640 C   0  0  2  0  0  0  0  0  0  0  0  0
   34.2910   29.4410   49.5750 C   0  0  0  0  0  0  0  0  0  0  0  0
   34.6390   28.1750   48.9940 C   0  0  1  0  0  0  0  0  0  0  0  0
   35.3730   29.7580   47.6070 H   0  0  0  0  0  0  0  0  0  0  0  0
   33.3400   29.9530   49.3140 H   0  0  0  0  0  0  0  0  0  0  0  0
   34.5090   29.5840   50.6750 H   0  0  0  0  0  0  0  0  0  0  0  0
   35.2800   27.3830   49.3900 H   0  0  0  0  0  0  0  0  0  0  0  0
   36.8200   29.4480   49.3210 C   0  0  0  0  0  0  0  0  0  0  0  0
   37.3370   28.5140   49.0360 H   0  0  0  0  0  0  0  0  0  0  0  0
   36.7030   29.4390   50.4220 H   0  0  0  0  0  0  0  0  0  0  0  0
   38.0940   32.8700   49.4230 C   0  0  0  0  0  0  0  0  0  0  0  0
   38.8450   32.9560   48.2300 C   0  0  0  0  0  0  0  0  0  0  0  0
   38.8960   31.8090   47.4030 C   0  0  0  0  0  0  0  0  0  0  0  0
   38.2180   30.6880   47.8050 N   0  0  0  0  0  0  0  0  0  0  0  0
   37.5220   30.6650   48.9470 C   0  0  0  0  0  0  0  0  0  0  0  0
   37.4670   31.7640   49.7480 N   0  0  0  0  0  0  0  0  0  0  0  0
   38.1220   33.8010   49.9770 H   0  0  0  0  0  0  0  0  0  0  0  0
   39.4030   33.8070   47.8550 H   0  0  0  0  0  0  0  0  0  0  0  0
   39.4530   31.8010   46.4760 H   0  0  0  0  0  0  0  0  0  0  0  0
   33.7000   27.6890   47.9060 C   0  0  0  0  0  0  0  0  0  0  0  0
   34.1170   26.6180   47.3120 O   0  0  0  0  0  0  0  0  0  0  0  0
   32.4940   28.2640   47.5250 O   0  0  0  0  0  0  0  0  0  0  0  0
   31.2840   27.9240   48.0650 C   0  0  0  0  0  0  0  0  0  0  0  0
   31.0130   27.7520   49.5140 C   0  0  0  0  0  0  0  0  0  0  0  0
   29.7600   27.4160   49.8880 C   0  0  0  0  0  0  0  0  0  0  0  0
   28.7330   27.2320   48.9450 C   0  0  0  0  0  0  0  0  0  0  0  0
   29.5790   27.5550   47.3170 S   0  0  0  0  0  0  0  0  0  0  0  0
   31.8470   27.9110   50.1710 H   0  0  0  0  0  0  0  0  0  0  0  0
   29.5100   27.2820   50.9270 H   0  0  0  0  0  0  0  0  0  0  0  0
   27.4000   26.8940   49.0160 C   0  0  0  0  0  3  0  0  0  0  0  0
   26.8720   26.9320   50.4270 C   0  0  0  0  0  2  0  0  0  0  0  0
   26.4000   28.3270   50.6190 C   0  0  0  0  0  2  0  0  0  0  0  0
   25.9160   28.7730   49.2680 C   0  0  0  0  0  2  0  0  0  0  0  0
   26.4330   27.7750   48.2640 C   0  0  0  0  0  2  0  0  0  0  0  0
  1  4  1  6  0  0  0
  1  3  1  0  0  0  0
  1  8  1  0  0  0  0
  1  2  1  0  0  0  0
  2  6  1  0  0  0  0
  3  7  1  1  0  0  0
  3  2  1  0  0  0  0
  5  2  1  0  0  0  0
  8 10  1  0  0  0  0
  9  8  1  0  0  0  0
 11 16  1  0  0  0  0
 11 17  1  0  0  0  0
 12 11  2  0  0  0  0
 13 14  2  0  0  0  0
 13 12  1  0  0  0  0
 14 15  1  0  0  0  0
 15  8  1  0  0  0  0
 15 16  2  0  0  0  0
 18 12  1  0  0  0  0
 19 13  1  0  0  0  0
 20  3  1  0  0  0  0
 21 20  2  0  0  0  0
 22 20  1  0  0  0  0
 22 23  1  0  0  0  0
 23 24  2  0  0  0  0
 24 25  1  0  0  0  0
 24 28  1  0  0  0  0
 25 29  1  0  0  0  0
 26 30  1  0  0  0  0
 26 25  2  0  0  0  0
 27 23  1  0  0  0  0
 27 26  1  0  0  0  0
 30 31  1  0  0  0  0
 31 32  1  0  0  0  0
 33 32  1  0  0  0  0
 34 30  1  0  0  0  0
 34 33  1  0  0  0  0
M  END
>  <minimizedAffinity>
-6.02461576

>  <minimizedRMSD>
1.3289938

$$$$
