
 OpenBabel03252511523D

 25 28  0  0  0  0  0  0  0  0999 V2000
   34.9980   29.6380   48.1070 N   0  0  0  0  0  0  0  0  0  0  0  0
   35.4460   29.9280   49.3400 C   0  0  0  0  0  0  0  0  0  0  0  0
   36.5570   30.6750   49.2930 N   0  0  0  0  0  0  0  0  0  0  0  0
   36.8380   30.8750   47.9950 C   0  0  0  0  0  0  0  0  0  0  0  0
   37.8240   31.5430   47.3300 C   0  0  0  0  0  0  0  0  0  0  0  0
   37.9050   31.6080   45.9810 N   0  0  0  0  0  0  0  0  0  0  0  0
   36.9290   30.9580   45.3020 C   0  0  0  0  0  0  0  0  0  0  0  0
   35.9640   30.3050   45.9570 N   0  0  0  0  0  0  0  0  0  0  0  0
   35.8490   30.2170   47.2790 C   0  0  0  0  0  0  0  0  0  0  0  0
   35.0470   29.6520   50.3130 H   0  0  0  0  0  0  0  0  0  0  0  0
   36.8630   30.9240   44.2200 H   0  0  0  0  0  0  0  0  0  0  0  0
   32.9260   29.3340   46.8780 C   0  0  0  0  0  0  0  0  0  0  0  0
   33.8630   28.8780   47.7990 C   0  0  0  0  0  0  0  0  0  0  0  0
   33.6400   27.6380   48.4110 C   0  0  0  0  0  0  0  0  0  0  0  0
   32.5060   26.9510   48.0600 N   0  0  0  0  0  0  0  0  0  0  0  0
   31.6230   27.4190   47.1680 C   0  0  0  0  0  0  0  0  0  0  0  0
   31.8320   28.6100   46.5760 N   0  0  0  0  0  0  0  0  0  0  0  0
   33.0980   30.2950   46.4030 H   0  0  0  0  0  0  0  0  0  0  0  0
   34.3450   27.2490   49.1340 H   0  0  0  0  0  0  0  0  0  0  0  0
   30.7300   26.8780   46.8910 H   0  0  0  0  0  0  0  0  0  0  0  0
   38.8830   32.2470   48.1020 C   0  0  0  0  0  0  0  0  0  0  0  0
   38.2480   33.2310   49.0700 C   0  0  0  0  0  0  0  0  0  0  0  0
   39.3970   34.1700   49.3450 C   0  0  0  0  0  0  0  0  0  0  0  0
   40.0040   34.3530   47.9620 C   0  0  0  0  0  0  0  0  0  0  0  0
   39.8050   33.0470   47.2290 C   0  0  0  0  0  0  0  0  0  0  0  0
  1  2  1  0  0  0  0
  2 10  1  0  0  0  0
  3  2  2  0  0  0  0
  4  3  1  0  0  0  0
  5  4  1  0  0  0  0
  5 21  1  0  0  0  0
  6  5  2  0  0  0  0
  7  8  2  0  0  0  0
  7  6  1  0  0  0  0
  8  9  1  0  0  0  0
  9  4  2  0  0  0  0
  9  1  1  0  0  0  0
 11  7  1  0  0  0  0
 12 13  1  0  0  0  0
 13  1  1  0  0  0  0
 13 14  2  0  0  0  0
 14 19  1  0  0  0  0
 15 14  1  0  0  0  0
 16 15  2  0  0  0  0
 17 12  2  0  0  0  0
 17 16  1  0  0  0  0
 18 12  1  0  0  0  0
 20 16  1  0  0  0  0
 21 22  1  0  0  0  0
 22 23  1  0  0  0  0
 24 23  1  0  0  0  0
 25 24  1  0  0  0  0
 25 21  1  0  0  0  0
M  END
>  <minimizedAffinity>
-5.44230795

>  <minimizedRMSD>
3.98769569

$$$$
