
 OpenBabel03252513463D

 18 19  0  0  0  0  0  0  0  0999 V2000
   37.5380   30.3020   49.1510 C   0  0  0  0  0  0  0  0  0  0  0  0
   37.8470   31.3970   50.0080 C   0  0  0  0  0  0  0  0  0  0  0  0
   38.5310   32.4790   49.4740 C   0  0  0  0  0  0  0  0  0  0  0  0
   38.8830   32.4610   48.1590 N   0  0  0  0  0  0  0  0  0  0  0  0
   38.5640   31.3960   47.3900 C   0  0  0  0  0  0  0  0  0  0  0  0
   37.9130   30.3440   47.8610 N   0  0  0  0  0  0  0  0  0  0  0  0
   37.5630   31.4000   51.0540 H   0  0  0  0  0  0  0  0  0  0  0  0
   38.7580   33.3020   50.1400 H   0  0  0  0  0  0  0  0  0  0  0  0
   38.9500   31.3800   45.9530 C   0  0  0  0  0  0  0  0  0  0  0  0
   40.4670   31.2000   45.8110 C   0  0  0  0  0  0  0  0  0  0  0  0
   40.6040   31.6350   44.3460 C   0  0  0  0  0  0  0  0  0  0  0  0
   39.8970   32.9920   44.4380 C   0  0  0  0  0  0  0  0  0  0  0  0
   38.6300   32.6400   45.2230 C   0  0  0  0  0  0  0  0  0  0  0  0
   36.8670   29.2460   49.6850 O   0  0  0  0  0  0  0  0  0  0  0  0
   35.5690   29.2960   50.2170 C   0  0  0  0  0  0  0  0  0  0  0  0
   35.5380   29.2610   51.5950 F   0  0  0  0  0  0  0  0  0  0  0  0
   34.8160   30.3450   49.7420 F   0  0  0  0  0  0  0  0  0  0  0  0
   34.9300   28.1370   49.7720 F   0  0  0  0  0  0  0  0  0  0  0  0
  1 14  1  0  0  0  0
  1  2  1  0  0  0  0
  2  7  1  0  0  0  0
  3  2  2  0  0  0  0
  3  8  1  0  0  0  0
  4  3  1  0  0  0  0
  5  6  1  0  0  0  0
  5  4  2  0  0  0  0
  6  1  2  0  0  0  0
  9  5  1  0  0  0  0
 10  9  1  0  0  0  0
 11 12  1  0  0  0  0
 11 10  1  0  0  0  0
 12 13  1  0  0  0  0
 13  9  1  0  0  0  0
 14 15  1  0  0  0  0
 15 16  1  0  0  0  0
 17 15  1  0  0  0  0
 18 15  1  0  0  0  0
M  END
>  <minimizedAffinity>
-5.96580315

>  <minimizedRMSD>
1.35023844

$$$$
