
 OpenBabel03252513583D

 24 26  0  0  1  0  0  0  0  0999 V2000
   36.7860   29.3640   49.5110 C   0  0  0  0  0  0  0  0  0  0  0  0
   36.9040   29.2410   50.6090 H   0  0  0  0  0  0  0  0  0  0  0  0
   37.1080   28.4600   48.9730 H   0  0  0  0  0  0  0  0  0  0  0  0
   38.3670   32.6790   49.3860 C   0  0  0  0  0  0  0  0  0  0  0  0
   38.9280   32.7200   48.0890 C   0  0  0  0  0  0  0  0  0  0  0  0
   38.7450   31.5960   47.2850 C   0  0  0  0  0  0  0  0  0  0  0  0
   38.0490   30.5300   47.7760 N   0  0  0  0  0  0  0  0  0  0  0  0
   37.5260   30.5380   49.0340 C   0  0  0  0  0  0  0  0  0  0  0  0
   37.6990   31.6180   49.8150 N   0  0  0  0  0  0  0  0  0  0  0  0
   38.5360   33.5790   49.9770 H   0  0  0  0  0  0  0  0  0  0  0  0
   39.4760   33.5780   47.7240 H   0  0  0  0  0  0  0  0  0  0  0  0
   39.1540   31.5790   46.2860 H   0  0  0  0  0  0  0  0  0  0  0  0
   35.3140   29.6270   49.2590 C   0  0  2  0  0  0  0  0  0  0  0  0
   34.3030   29.0850   50.1990 C   0  0  0  0  0  0  0  0  0  0  0  0
   34.5030   28.4030   48.9120 C   0  0  1  0  0  0  0  0  0  0  0  0
   35.0730   30.4990   48.6050 H   0  0  0  0  0  0  0  0  0  0  0  0
   33.5020   29.7870   50.4390 H   0  0  0  0  0  0  0  0  0  0  0  0
   34.7100   28.6020   51.1350 H   0  0  0  0  0  0  0  0  0  0  0  0
   35.0220   27.4050   48.9780 H   0  0  0  0  0  0  0  0  0  0  0  0
   33.4990   28.4580   47.7940 C   0  0  0  0  0  3  0  0  0  0  0  0
   32.1430   27.8980   48.1760 C   0  0  0  0  0  2  0  0  0  0  0  0
   32.2600   26.4150   48.0230 C   0  0  0  0  0  2  0  0  0  0  0  0
   33.6610   26.1500   47.4690 C   0  0  0  0  0  2  0  0  0  0  0  0
   33.9080   27.4520   46.7380 C   0  0  0  0  0  2  0  0  0  0  0  0
  1  2  1  0  0  0  0
  3  1  1  0  0  0  0
  4  9  1  0  0  0  0
  4 10  1  0  0  0  0
  5  4  2  0  0  0  0
  6  7  2  0  0  0  0
  6  5  1  0  0  0  0
  7  8  1  0  0  0  0
  8  1  1  0  0  0  0
  8  9  2  0  0  0  0
 11  5  1  0  0  0  0
 12  6  1  0  0  0  0
 13 16  1  6  0  0  0
 13  1  1  0  0  0  0
 13 14  1  0  0  0  0
 14 17  1  0  0  0  0
 14 18  1  0  0  0  0
 15 19  1  1  0  0  0
 15 13  1  0  0  0  0
 15 14  1  0  0  0  0
 20 21  1  0  0  0  0
 20 15  1  0  0  0  0
 22 21  1  0  0  0  0
 23 22  1  0  0  0  0
 24 23  1  0  0  0  0
 24 20  1  0  0  0  0
M  END
>  <minimizedAffinity>
-4.91561747

>  <minimizedRMSD>
0.883559048

$$$$
