
 OpenBabel03252514053D

 34 37  0  0  1  0  0  0  0  0999 V2000
   35.5120   29.4230   48.6940 C   0  0  2  0  0  0  0  0  0  0  0  0
   34.3490   29.5010   49.5700 C   0  0  0  0  0  0  0  0  0  0  0  0
   34.6950   28.1710   49.1560 C   0  0  1  0  0  0  0  0  0  0  0  0
   35.4880   29.5660   47.6100 H   0  0  0  0  0  0  0  0  0  0  0  0
   33.4110   29.9870   49.2210 H   0  0  0  0  0  0  0  0  0  0  0  0
   34.5380   29.7750   50.6490 H   0  0  0  0  0  0  0  0  0  0  0  0
   35.3150   27.4270   49.6630 H   0  0  0  0  0  0  0  0  0  0  0  0
   36.8840   29.4520   49.3890 C   0  0  0  0  0  0  0  0  0  0  0  0
   37.4340   28.5240   49.1570 H   0  0  0  0  0  0  0  0  0  0  0  0
   36.7350   29.4820   50.4870 H   0  0  0  0  0  0  0  0  0  0  0  0
   38.1070   32.8950   49.4230 C   0  0  0  0  0  0  0  0  0  0  0  0
   38.8390   32.9740   48.2190 C   0  0  0  0  0  0  0  0  0  0  0  0
   38.8960   31.8160   47.4080 C   0  0  0  0  0  0  0  0  0  0  0  0
   38.2410   30.6910   47.8360 N   0  0  0  0  0  0  0  0  0  0  0  0
   37.5610   30.6750   48.9870 C   0  0  0  0  0  0  0  0  0  0  0  0
   37.5010   31.7840   49.7740 N   0  0  0  0  0  0  0  0  0  0  0  0
   38.1290   33.8340   49.9630 H   0  0  0  0  0  0  0  0  0  0  0  0
   39.3780   33.8280   47.8230 H   0  0  0  0  0  0  0  0  0  0  0  0
   39.4390   31.8030   46.4730 H   0  0  0  0  0  0  0  0  0  0  0  0
   33.7800   27.5650   48.1090 C   0  0  0  0  0  0  0  0  0  0  0  0
   34.2120   26.4390   47.6430 O   0  0  0  0  0  0  0  0  0  0  0  0
   32.5820   28.0910   47.6430 O   0  0  0  0  0  0  0  0  0  0  0  0
   31.3640   27.8310   48.2100 C   0  0  0  0  0  0  0  0  0  0  0  0
   31.0130   28.0820   49.6300 C   0  0  0  0  0  0  0  0  0  0  0  0
   29.7640   27.7730   50.0370 C   0  0  0  0  0  0  0  0  0  0  0  0
   28.8140   27.2290   49.1550 C   0  0  0  0  0  0  0  0  0  0  0  0
   29.7380   27.1150   47.5410 S   0  0  0  0  0  0  0  0  0  0  0  0
   31.7910   28.4990   50.2410 H   0  0  0  0  0  0  0  0  0  0  0  0
   29.4570   27.9370   51.0560 H   0  0  0  0  0  0  0  0  0  0  0  0
   27.5030   26.8200   49.2700 C   0  0  0  0  0  3  0  0  0  0  0  0
   27.0290   26.8110   50.7000 C   0  0  0  0  0  2  0  0  0  0  0  0
   26.4910   28.1770   50.9290 C   0  0  0  0  0  2  0  0  0  0  0  0
   25.9340   28.6130   49.6030 C   0  0  0  0  0  2  0  0  0  0  0  0
   26.4630   27.6560   48.5660 C   0  0  0  0  0  2  0  0  0  0  0  0
  1  4  1  6  0  0  0
  1  3  1  0  0  0  0
  1  8  1  0  0  0  0
  1  2  1  0  0  0  0
  2  6  1  0  0  0  0
  3  2  1  0  0  0  0
  3  7  1  1  0  0  0
  5  2  1  0  0  0  0
  8 10  1  0  0  0  0
  9  8  1  0  0  0  0
 11 16  1  0  0  0  0
 11 17  1  0  0  0  0
 12 11  2  0  0  0  0
 13 14  2  0  0  0  0
 13 12  1  0  0  0  0
 14 15  1  0  0  0  0
 15  8  1  0  0  0  0
 15 16  2  0  0  0  0
 18 12  1  0  0  0  0
 19 13  1  0  0  0  0
 20  3  1  0  0  0  0
 21 20  2  0  0  0  0
 22 20  1  0  0  0  0
 22 23  1  0  0  0  0
 23 24  2  0  0  0  0
 24 25  1  0  0  0  0
 24 28  1  0  0  0  0
 25 29  1  0  0  0  0
 26 30  1  0  0  0  0
 26 25  2  0  0  0  0
 27 23  1  0  0  0  0
 27 26  1  0  0  0  0
 30 31  1  0  0  0  0
 31 32  1  0  0  0  0
 33 32  1  0  0  0  0
 34 30  1  0  0  0  0
 34 33  1  0  0  0  0
M  END
>  <minimizedAffinity>
-6.13404369

>  <minimizedRMSD>
0.529329479

$$$$
