
 OpenBabel03252512353D

 38 41  0  0  1  0  0  0  0  0999 V2000
   31.7730   27.9410   46.7440 C   0  0  2  0  0  0  0  0  0  0  0  0
   31.9440   26.8610   46.4610 H   0  0  0  0  0  0  0  0  0  0  0  0
   35.0840   29.4570   48.5500 C   0  0  0  0  0  0  0  0  0  0  0  0
   34.6360   28.2810   49.1380 C   0  0  0  0  0  0  0  0  0  0  0  0
   33.5170   27.7300   48.5790 C   0  0  0  0  0  0  0  0  0  0  0  0
   32.9530   28.3240   47.5560 C   0  0  0  0  0  0  0  0  0  0  0  0
   33.9340   29.8180   47.1890 S   0  0  0  0  0  0  0  0  0  0  0  0
   35.1940   27.8810   49.9900 H   0  0  0  0  0  0  0  0  0  0  0  0
   33.0900   26.7970   48.9800 H   0  0  0  0  0  0  0  0  0  0  0  0
   37.8980   30.7630   50.5320 C   0  0  0  0  0  0  0  0  0  0  0  0
   38.4760   31.7150   49.6830 C   0  0  0  0  0  0  0  0  0  0  0  0
   37.8920   31.9010   48.4390 C   0  0  0  0  0  0  0  0  0  0  0  0
   36.7930   31.1590   48.0960 N   0  0  0  0  0  0  0  0  0  0  0  0
   36.2900   30.2620   48.9590 C   0  0  0  0  0  0  0  0  0  0  0  0
   36.8010   30.0110   50.2110 N   0  0  0  0  0  0  0  0  0  0  0  0
   38.2870   30.5520   51.5210 H   0  0  0  0  0  0  0  0  0  0  0  0
   39.3430   32.2500   50.0450 H   0  0  0  0  0  0  0  0  0  0  0  0
   38.3200   32.6240   47.7770 H   0  0  0  0  0  0  0  0  0  0  0  0
   31.6610   28.7860   45.5760 C   0  0  0  0  0  0  0  0  0  0  0  0
   31.3040   28.1920   44.6920 H   0  0  0  0  0  0  0  0  0  0  0  0
   30.8980   29.5770   45.7320 H   0  0  0  0  0  0  0  0  0  0  0  0
   32.6040   29.3050   45.3110 H   0  0  0  0  0  0  0  0  0  0  0  0
   30.5540   27.9060   47.6600 C   0  0  0  0  0  0  0  0  0  0  0  0
   29.8540   28.6800   47.2710 H   0  0  0  0  0  0  0  0  0  0  0  0
   30.8230   28.2250   48.6940 H   0  0  0  0  0  0  0  0  0  0  0  0
   29.9320   26.7080   47.6920 O   0  0  0  0  0  0  0  0  0  0  0  0
   29.2990   26.1760   46.5900 C   0  0  0  0  0  0  0  0  0  0  0  0
   29.2030   24.9770   45.9210 C   0  0  0  0  0  0  0  0  0  0  0  0
   28.3580   25.1790   44.8570 C   0  0  0  0  0  0  0  0  0  0  0  0
   27.9740   26.4940   44.9200 C   0  0  0  0  0  0  0  0  0  0  0  0
   28.5480   27.0470   45.9530 O   0  0  0  0  0  0  0  0  0  0  0  0
   29.7650   24.1550   46.3230 H   0  0  0  0  0  0  0  0  0  0  0  0
   28.1320   24.3620   44.1830 H   0  0  0  0  0  0  0  0  0  0  0  0
   27.0390   27.1010   43.9120 C   0  0  0  0  0  0  0  0  0  0  0  0
   26.2380   26.0600   43.2180 C   0  0  0  0  0  0  0  0  0  0  0  0
   24.9610   26.7800   42.8270 C   0  0  0  0  0  0  0  0  0  0  0  0
   24.9740   28.1090   43.5650 C   0  0  0  0  0  0  0  0  0  0  0  0
   26.0100   27.8910   44.6760 C   0  0  0  0  0  0  0  0  0  0  0  0
  1  2  1  6  0  0  0
  1  6  1  0  0  0  0
  1 23  1  0  0  0  0
  3 14  1  0  0  0  0
  3  4  2  0  0  0  0
  4  8  1  0  0  0  0
  5  9  1  0  0  0  0
  5  4  1  0  0  0  0
  6  5  2  0  0  0  0
  7  6  1  0  0  0  0
  7  3  1  0  0  0  0
 10 16  1  0  0  0  0
 11 17  1  0  0  0  0
 11 10  2  0  0  0  0
 12 11  1  0  0  0  0
 13 12  2  0  0  0  0
 13 14  1  0  0  0  0
 14 15  2  0  0  0  0
 15 10  1  0  0  0  0
 18 12  1  0  0  0  0
 19 21  1  0  0  0  0
 19  1  1  0  0  0  0
 20 19  1  0  0  0  0
 22 19  1  0  0  0  0
 23 26  1  0  0  0  0
 23 25  1  0  0  0  0
 24 23  1  0  0  0  0
 27 26  1  0  0  0  0
 28 32  1  0  0  0  0
 28 27  2  0  0  0  0
 29 30  2  0  0  0  0
 29 28  1  0  0  0  0
 30 31  1  0  0  0  0
 31 27  1  0  0  0  0
 33 29  1  0  0  0  0
 34 38  1  0  0  0  0
 34 30  1  0  0  0  0
 35 34  1  0  0  0  0
 36 35  1  0  0  0  0
 36 37  1  0  0  0  0
 37 38  1  0  0  0  0
M  END
>  <minimizedAffinity>
-5.28701639

>  <minimizedRMSD>
0.499534845

$$$$
