
 OpenBabel03252514053D

 34 37  0  0  1  0  0  0  0  0999 V2000
   35.3660   29.4340   48.9260 C   0  0  2  0  0  0  0  0  0  0  0  0
   34.2280   29.3430   49.8340 C   0  0  0  0  0  0  0  0  0  0  0  0
   34.6200   28.0950   49.2430 C   0  0  1  0  0  0  0  0  0  0  0  0
   35.3020   29.7130   47.8710 H   0  0  0  0  0  0  0  0  0  0  0  0
   33.2600   29.8240   49.5740 H   0  0  0  0  0  0  0  0  0  0  0  0
   34.4380   29.4850   50.9350 H   0  0  0  0  0  0  0  0  0  0  0  0
   35.2870   27.3220   49.6350 H   0  0  0  0  0  0  0  0  0  0  0  0
   36.7550   29.4390   49.5850 C   0  0  0  0  0  0  0  0  0  0  0  0
   37.2610   28.4770   49.3860 H   0  0  0  0  0  0  0  0  0  0  0  0
   36.6370   29.5290   50.6830 H   0  0  0  0  0  0  0  0  0  0  0  0
   38.1530   32.8100   49.4340 C   0  0  0  0  0  0  0  0  0  0  0  0
   38.8220   32.8120   48.1900 C   0  0  0  0  0  0  0  0  0  0  0  0
   38.7750   31.6270   47.4190 C   0  0  0  0  0  0  0  0  0  0  0  0
   38.0870   30.5530   47.9200 N   0  0  0  0  0  0  0  0  0  0  0  0
   37.4720   30.6090   49.1060 C   0  0  0  0  0  0  0  0  0  0  0  0
   37.5110   31.7450   49.8550 N   0  0  0  0  0  0  0  0  0  0  0  0
   38.2530   33.7640   49.9390 H   0  0  0  0  0  0  0  0  0  0  0  0
   39.3810   33.6230   47.7370 H   0  0  0  0  0  0  0  0  0  0  0  0
   39.2640   31.5550   46.4570 H   0  0  0  0  0  0  0  0  0  0  0  0
   33.7000   27.5850   48.1500 C   0  0  0  0  0  0  0  0  0  0  0  0
   34.0300   26.4150   47.7090 O   0  0  0  0  0  0  0  0  0  0  0  0
   32.5920   28.2350   47.6200 O   0  0  0  0  0  0  0  0  0  0  0  0
   31.3050   27.9880   48.0110 C   0  0  0  0  0  0  0  0  0  0  0  0
   30.9000   27.4890   49.3490 C   0  0  0  0  0  0  0  0  0  0  0  0
   29.5840   27.2970   49.5820 C   0  0  0  0  0  0  0  0  0  0  0  0
   28.6160   27.5570   48.5960 C   0  0  0  0  0  0  0  0  0  0  0  0
   29.6240   28.1450   47.1430 S   0  0  0  0  0  0  0  0  0  0  0  0
   31.6970   27.3140   50.0470 H   0  0  0  0  0  0  0  0  0  0  0  0
   29.2370   26.9380   50.5360 H   0  0  0  0  0  0  0  0  0  0  0  0
   27.2430   27.4590   48.5340 C   0  0  0  0  0  3  0  0  0  0  0  0
   26.5690   28.0760   49.7320 C   0  0  0  0  0  2  0  0  0  0  0  0
   26.3590   29.4980   49.3560 C   0  0  0  0  0  2  0  0  0  0  0  0
   26.1370   29.4910   47.8710 C   0  0  0  0  0  2  0  0  0  0  0  0
   26.5640   28.1340   47.3680 C   0  0  0  0  0  2  0  0  0  0  0  0
  1  4  1  6  0  0  0
  1  3  1  0  0  0  0
  1  8  1  0  0  0  0
  1  2  1  0  0  0  0
  2  6  1  0  0  0  0
  3  7  1  1  0  0  0
  3  2  1  0  0  0  0
  5  2  1  0  0  0  0
  8 10  1  0  0  0  0
  9  8  1  0  0  0  0
 11 16  1  0  0  0  0
 11 17  1  0  0  0  0
 12 11  2  0  0  0  0
 13 14  2  0  0  0  0
 13 12  1  0  0  0  0
 14 15  1  0  0  0  0
 15  8  1  0  0  0  0
 15 16  2  0  0  0  0
 18 12  1  0  0  0  0
 19 13  1  0  0  0  0
 20  3  1  0  0  0  0
 21 20  2  0  0  0  0
 22 23  1  0  0  0  0
 22 20  1  0  0  0  0
 23 24  2  0  0  0  0
 24 25  1  0  0  0  0
 24 28  1  0  0  0  0
 25 29  1  0  0  0  0
 26 25  2  0  0  0  0
 27 23  1  0  0  0  0
 27 26  1  0  0  0  0
 30 26  1  0  0  0  0
 30 31  1  0  0  0  0
 32 31  1  0  0  0  0
 33 32  1  0  0  0  0
 34 33  1  0  0  0  0
 34 30  1  0  0  0  0
M  END
>  <minimizedAffinity>
-6.22830772

>  <minimizedRMSD>
0.70079428

$$$$
