
 OpenBabel03252514053D

 38 41  0  0  1  0  0  0  0  0999 V2000
   35.3340   29.4320   48.9950 C   0  0  2  0  0  0  0  0  0  0  0  0
   34.2930   29.4790   50.0140 C   0  0  0  0  0  0  0  0  0  0  0  0
   34.4830   28.1880   49.4140 C   0  0  1  0  0  0  0  0  0  0  0  0
   35.2280   29.7610   47.9490 H   0  0  0  0  0  0  0  0  0  0  0  0
   33.3400   30.0620   49.8530 H   0  0  0  0  0  0  0  0  0  0  0  0
   34.6350   29.6320   51.0790 H   0  0  0  0  0  0  0  0  0  0  0  0
   35.0930   27.3590   49.7720 H   0  0  0  0  0  0  0  0  0  0  0  0
   36.7790   29.2810   49.4990 C   0  0  0  0  0  0  0  0  0  0  0  0
   36.7720   29.2790   50.5920 H   0  0  0  0  0  0  0  0  0  0  0  0
   37.1810   28.2890   49.1890 H   0  0  0  0  0  0  0  0  0  0  0  0
   38.4350   32.5270   49.2510 C   0  0  0  0  0  0  0  0  0  0  0  0
   39.0220   32.4790   47.9760 C   0  0  0  0  0  0  0  0  0  0  0  0
   38.8320   31.3070   47.2100 C   0  0  0  0  0  0  0  0  0  0  0  0
   38.0900   30.2890   47.7530 N   0  0  0  0  0  0  0  0  0  0  0  0
   37.5540   30.3950   48.9810 C   0  0  0  0  0  0  0  0  0  0  0  0
   37.7350   31.5190   49.7180 N   0  0  0  0  0  0  0  0  0  0  0  0
   38.6480   33.4670   49.7380 H   0  0  0  0  0  0  0  0  0  0  0  0
   39.6130   33.2000   47.4500 H   0  0  0  0  0  0  0  0  0  0  0  0
   39.2220   31.1310   46.2200 H   0  0  0  0  0  0  0  0  0  0  0  0
   33.4080   27.7700   48.4280 C   0  0  0  0  0  0  0  0  0  0  0  0
   33.5750   26.5770   47.9650 O   0  0  0  0  0  0  0  0  0  0  0  0
   32.3150   28.5290   48.0170 O   0  0  0  0  0  0  0  0  0  0  0  0
   31.0500   28.3770   48.5180 C   0  0  0  0  0  0  0  0  0  0  0  0
   30.6720   28.5380   49.9410 C   0  0  0  0  0  0  0  0  0  0  0  0
   29.3770   28.3570   50.2790 C   0  0  0  0  0  0  0  0  0  0  0  0
   28.4080   28.0250   49.3110 C   0  0  0  0  0  0  0  0  0  0  0  0
   29.3770   27.9460   47.7410 S   0  0  0  0  0  0  0  0  0  0  0  0
   31.4560   28.7920   50.6300 H   0  0  0  0  0  0  0  0  0  0  0  0
   29.0100   28.4520   51.2850 H   0  0  0  0  0  0  0  0  0  0  0  0
   27.0760   27.7860   49.3270 C   0  0  0  0  0  0  0  0  0  0  0  0
   26.5050   26.9640   50.2770 C   0  0  0  0  0  0  0  0  0  0  0  0
   27.0710   26.4640   51.0590 H   0  0  0  0  0  0  0  0  0  0  0  0
   25.1250   26.7300   50.2760 C   0  0  0  0  0  3  0  0  0  0  0  0
   24.3300   27.3390   49.2980 C   0  0  0  0  0  0  0  0  0  0  0  0
   23.2490   27.1630   49.2870 H   0  0  0  0  0  0  0  0  0  0  0  0
   24.8880   28.1750   48.3270 C   0  0  0  0  0  0  0  0  0  0  0  0
   24.2620   28.6370   47.5810 H   0  0  0  0  0  0  0  0  0  0  0  0
   26.2750   28.3760   48.3730 C   0  0  0  0  0  3  0  0  0  0  0  0
  1  4  1  6  0  0  0
  1  3  1  0  0  0  0
  1  8  1  0  0  0  0
  1  2  1  0  0  0  0
  2  6  1  0  0  0  0
  3  7  1  1  0  0  0
  3  2  1  0  0  0  0
  5  2  1  0  0  0  0
  8  9  1  0  0  0  0
 10  8  1  0  0  0  0
 11 16  1  0  0  0  0
 11 17  1  0  0  0  0
 12 11  2  0  0  0  0
 13 14  2  0  0  0  0
 13 12  1  0  0  0  0
 14 15  1  0  0  0  0
 15  8  1  0  0  0  0
 15 16  2  0  0  0  0
 18 12  1  0  0  0  0
 19 13  1  0  0  0  0
 20  3  1  0  0  0  0
 21 20  2  0  0  0  0
 22 20  1  0  0  0  0
 22 23  1  0  0  0  0
 23 24  2  0  0  0  0
 24 25  1  0  0  0  0
 24 28  1  0  0  0  0
 25 29  1  0  0  0  0
 26 30  1  0  0  0  0
 26 25  2  0  0  0  0
 27 23  1  0  0  0  0
 27 26  1  0  0  0  0
 30 31  1  0  0  0  0
 31 32  1  0  0  0  0
 33 31  2  0  0  0  0
 34 33  1  0  0  0  0
 35 34  1  0  0  0  0
 36 38  1  0  0  0  0
 36 34  2  0  0  0  0
 37 36  1  0  0  0  0
 38 30  2  0  0  0  0
M  END
>  <minimizedAffinity>
1.52625191

>  <minimizedRMSD>
0.986108601

$$$$
