
 OpenBabel03252513463D

 22 23  0  0  0  0  0  0  0  0999 V2000
   37.1120   30.3890   49.3130 C   0  0  0  0  0  0  0  0  0  0  0  0
   37.0120   31.5630   50.1030 C   0  0  0  0  0  0  0  0  0  0  0  0
   37.6140   32.7340   49.6530 C   0  0  0  0  0  0  0  0  0  0  0  0
   38.2820   32.6940   48.4550 N   0  0  0  0  0  0  0  0  0  0  0  0
   38.3470   31.5610   47.7510 C   0  0  0  0  0  0  0  0  0  0  0  0
   37.7830   30.4260   48.1500 N   0  0  0  0  0  0  0  0  0  0  0  0
   36.4790   31.5400   51.0270 H   0  0  0  0  0  0  0  0  0  0  0  0
   37.5700   33.6560   50.2130 H   0  0  0  0  0  0  0  0  0  0  0  0
   39.0700   31.5740   46.4820 C   0  0  0  0  0  0  0  0  0  0  0  0
   39.8200   32.6630   46.0850 C   0  0  0  0  0  0  0  0  0  0  0  0
   39.8620   33.5340   46.7590 H   0  0  0  0  0  0  0  0  0  0  0  0
   40.5370   32.7730   44.9130 C   0  0  0  0  0  0  0  0  0  0  0  0
   40.4760   31.6610   44.0700 C   0  0  0  0  0  0  0  0  0  0  0  0
   41.0270   31.7060   43.1350 H   0  0  0  0  0  0  0  0  0  0  0  0
   39.7370   30.5620   44.4360 C   0  0  0  0  0  0  0  0  0  0  0  0
   39.6850   29.6940   43.7830 H   0  0  0  0  0  0  0  0  0  0  0  0
   39.0300   30.4810   45.6180 C   0  0  0  0  0  0  0  0  0  0  0  0
   36.5140   29.2500   49.7710 O   0  0  0  0  0  0  0  0  0  0  0  0
   35.2140   29.1810   50.2850 C   0  0  0  0  0  0  0  0  0  0  0  0
   35.1690   29.1580   51.6680 F   0  0  0  0  0  0  0  0  0  0  0  0
   34.3640   30.1450   49.8010 F   0  0  0  0  0  0  0  0  0  0  0  0
   34.6980   27.9540   49.8520 F   0  0  0  0  0  0  0  0  0  0  0  0
  1 18  1  0  0  0  0
  1  2  1  0  0  0  0
  2  7  1  0  0  0  0
  3  2  2  0  0  0  0
  3  8  1  0  0  0  0
  4  3  1  0  0  0  0
  5  6  1  0  0  0  0
  5  4  2  0  0  0  0
  6  1  2  0  0  0  0
  9  5  1  0  0  0  0
 10  9  1  0  0  0  0
 10 11  1  0  0  0  0
 12 10  2  0  0  0  0
 13 15  2  0  0  0  0
 13 12  1  0  0  0  0
 14 13  1  0  0  0  0
 15 17  1  0  0  0  0
 16 15  1  0  0  0  0
 17  9  2  0  0  0  0
 18 19  1  0  0  0  0
 19 20  1  0  0  0  0
 21 19  1  0  0  0  0
 22 19  1  0  0  0  0
M  END
>  <minimizedAffinity>
-6.2939992

>  <minimizedRMSD>
1.59798062

$$$$
