
 OpenBabel03252512143D

 32 35  0  0  0  0  0  0  0  0999 V2000
   32.3590   29.9540   46.1530 C   0  0  0  0  0  0  0  0  0  0  0  0
   32.0870   28.5700   46.1820 C   0  0  0  0  0  0  0  0  0  0  0  0
   33.0260   27.7120   46.7650 C   0  0  0  0  0  0  0  0  0  0  0  0
   34.1470   28.2920   47.2670 N   0  0  0  0  0  0  0  0  0  0  0  0
   34.3910   29.6080   47.2330 C   0  0  0  0  0  0  0  0  0  0  0  0
   33.5110   30.4490   46.6820 N   0  0  0  0  0  0  0  0  0  0  0  0
   31.6120   30.5900   45.6940 H   0  0  0  0  0  0  0  0  0  0  0  0
   31.1910   28.1840   45.7710 H   0  0  0  0  0  0  0  0  0  0  0  0
   35.6380   30.0630   47.8160 C   0  0  0  0  0  0  0  0  0  0  0  0
   36.6470   30.6910   47.0950 C   0  0  0  0  0  0  0  0  0  0  0  0
   37.6860   31.0030   47.8980 N   0  0  0  0  0  0  0  0  0  0  0  0
   37.3720   30.5880   49.1340 C   0  0  0  0  0  0  0  0  0  0  0  0
   38.0690   30.6530   50.3370 C   0  0  0  0  0  0  0  0  0  0  0  0
   37.4750   30.1260   51.4800 C   0  0  0  0  0  0  0  0  0  0  0  0
   36.2160   29.5520   51.4100 C   0  0  0  0  0  0  0  0  0  0  0  0
   35.4920   29.4710   50.2240 C   0  0  0  0  0  0  0  0  0  0  0  0
   36.1090   30.0030   49.1050 C   0  0  0  0  0  0  0  0  0  0  0  0
   36.6790   30.9380   46.0280 H   0  0  0  0  0  0  0  0  0  0  0  0
   38.5790   31.4810   47.6210 H   0  0  0  0  0  0  0  0  0  0  0  0
   39.0520   31.1060   50.3680 H   0  0  0  0  0  0  0  0  0  0  0  0
   37.9680   30.1510   52.4310 H   0  0  0  0  0  0  0  0  0  0  0  0
   35.7520   29.1450   52.2890 H   0  0  0  0  0  0  0  0  0  0  0  0
   34.5080   29.0220   50.1710 H   0  0  0  0  0  0  0  0  0  0  0  0
   32.8390   26.2720   46.8440 C   0  0  0  0  0  0  0  0  0  0  0  0
   33.7900   25.4060   47.3340 C   0  0  0  0  0  0  0  0  0  0  0  0
   34.7390   25.7800   47.6880 H   0  0  0  0  0  0  0  0  0  0  0  0
   33.5310   24.0520   47.3720 C   0  0  0  0  0  0  0  0  0  0  0  0
   32.3410   23.5210   46.9360 C   0  0  0  0  0  0  0  0  0  0  0  0
   32.0630   22.4700   46.9340 H   0  0  0  0  0  0  0  0  0  0  0  0
   31.3810   24.3820   46.4420 C   0  0  0  0  0  0  0  0  0  0  0  0
   30.4290   24.0410   46.0830 H   0  0  0  0  0  0  0  0  0  0  0  0
   31.6490   25.7330   46.4070 C   0  0  0  0  0  0  0  0  0  0  0  0
  1  2  2  0  0  0  0
  1  6  1  0  0  0  0
  2  3  1  0  0  0  0
  3 24  1  0  0  0  0
  3  4  2  0  0  0  0
  5  4  1  0  0  0  0
  5  9  1  0  0  0  0
  6  5  2  0  0  0  0
  7  1  1  0  0  0  0
  8  2  1  0  0  0  0
  9 17  1  0  0  0  0
 10  9  2  0  0  0  0
 10 11  1  0  0  0  0
 11 12  1  0  0  0  0
 12 13  1  0  0  0  0
 13 20  1  0  0  0  0
 13 14  2  0  0  0  0
 14 21  1  0  0  0  0
 15 14  1  0  0  0  0
 15 22  1  0  0  0  0
 16 15  2  0  0  0  0
 17 12  2  0  0  0  0
 17 16  1  0  0  0  0
 18 10  1  0  0  0  0
 19 11  1  0  0  0  0
 23 16  1  0  0  0  0
 24 25  1  0  0  0  0
 25 27  2  0  0  0  0
 25 26  1  0  0  0  0
 28 27  1  0  0  0  0
 29 28  1  0  0  0  0
 30 28  2  0  0  0  0
 31 30  1  0  0  0  0
 32 30  1  0  0  0  0
 32 24  2  0  0  0  0
M  END
>  <minimizedAffinity>
-5.89364767

>  <minimizedRMSD>
0.173809141

$$$$
