
 OpenBabel03252513583D

 28 30  0  0  1  0  0  0  0  0999 V2000
   35.4200   29.4350   49.1060 C   0  0  2  0  0  0  0  0  0  0  0  0
   34.3650   29.6680   50.1110 C   0  0  0  0  0  0  0  0  0  0  0  0
   34.5340   28.2950   49.5930 C   0  0  1  0  0  0  0  0  0  0  0  0
   35.2430   29.7900   48.0490 H   0  0  0  0  0  0  0  0  0  0  0  0
   33.5110   30.2910   49.7970 H   0  0  0  0  0  0  0  0  0  0  0  0
   34.6550   29.8680   51.1740 H   0  0  0  0  0  0  0  0  0  0  0  0
   34.9900   27.5490   50.2870 H   0  0  0  0  0  0  0  0  0  0  0  0
   33.5760   27.6980   48.6230 C   0  0  0  0  0  0  0  0  0  0  0  0
   32.2170   27.9480   48.8220 C   0  0  0  0  0  0  0  0  0  0  0  0
   31.8390   28.5490   49.6380 H   0  0  0  0  0  0  0  0  0  0  0  0
   31.3140   27.3990   47.9260 C   0  0  0  0  0  3  0  0  0  0  0  0
   31.7820   26.6360   46.8850 C   0  0  0  0  0  0  0  0  0  0  0  0
   31.1310   26.1750   46.1460 H   0  0  0  0  0  0  0  0  0  0  0  0
   33.1320   26.3690   46.6620 C   0  0  0  0  0  0  0  0  0  0  0  0
   33.4830   25.7660   45.8350 H   0  0  0  0  0  0  0  0  0  0  0  0
   34.0330   26.9250   47.5660 C   0  0  0  0  0  3  0  0  0  0  0  0
   36.8650   29.3170   49.5170 C   0  0  0  0  0  0  0  0  0  0  0  0
   37.2840   28.3900   49.0560 H   0  0  0  0  0  0  0  0  0  0  0  0
   36.9330   29.2230   50.6180 H   0  0  0  0  0  0  0  0  0  0  0  0
   38.3640   32.6710   49.3930 C   0  0  0  0  0  0  0  0  0  0  0  0
   38.8960   32.7240   48.0880 C   0  0  0  0  0  0  0  0  0  0  0  0
   38.7310   31.6090   47.2710 C   0  0  0  0  0  0  0  0  0  0  0  0
   38.0640   30.5280   47.7840 N   0  0  0  0  0  0  0  0  0  0  0  0
   37.5710   30.5150   49.0360 C   0  0  0  0  0  0  0  0  0  0  0  0
   37.7310   31.5970   49.8270 N   0  0  0  0  0  0  0  0  0  0  0  0
   38.5450   33.5870   49.9460 H   0  0  0  0  0  0  0  0  0  0  0  0
   39.4300   33.5730   47.6570 H   0  0  0  0  0  0  0  0  0  0  0  0
   39.1170   31.5980   46.2690 H   0  0  0  0  0  0  0  0  0  0  0  0
  1  4  1  6  0  0  0
  1 17  1  0  0  0  0
  1  3  1  0  0  0  0
  1  2  1  0  0  0  0
  2  6  1  0  0  0  0
  3  2  1  0  0  0  0
  3  7  1  1  0  0  0
  5  2  1  0  0  0  0
  8  9  1  0  0  0  0
  8  3  1  0  0  0  0
  9 10  1  0  0  0  0
 11  9  2  0  0  0  0
 12 11  1  0  0  0  0
 13 12  1  0  0  0  0
 14 12  2  0  0  0  0
 14 16  1  0  0  0  0
 15 14  1  0  0  0  0
 16  8  2  0  0  0  0
 17 19  1  0  0  0  0
 18 17  1  0  0  0  0
 20 25  1  0  0  0  0
 20 26  1  0  0  0  0
 21 20  2  0  0  0  0
 22 23  2  0  0  0  0
 22 21  1  0  0  0  0
 23 24  1  0  0  0  0
 24 17  1  0  0  0  0
 24 25  2  0  0  0  0
 27 21  1  0  0  0  0
 28 22  1  0  0  0  0
M  END
>  <minimizedAffinity>
-5.22192621

>  <minimizedRMSD>
0.764427304

$$$$
