
 OpenBabel03252514053D

 38 41  0  0  1  0  0  0  0  0999 V2000
   35.2230   29.1560   48.5660 C   0  0  2  0  0  0  0  0  0  0  0  0
   33.9930   29.3810   49.3170 C   0  0  0  0  0  0  0  0  0  0  0  0
   34.3080   27.9990   49.0890 C   0  0  1  0  0  0  0  0  0  0  0  0
   35.3330   29.2290   47.4730 H   0  0  0  0  0  0  0  0  0  0  0  0
   33.0910   29.8600   48.8360 H   0  0  0  0  0  0  0  0  0  0  0  0
   34.1080   29.7930   50.3620 H   0  0  0  0  0  0  0  0  0  0  0  0
   34.8350   27.3070   49.7470 H   0  0  0  0  0  0  0  0  0  0  0  0
   36.5330   29.2010   49.3690 C   0  0  0  0  0  0  0  0  0  0  0  0
   36.2970   29.1070   50.4320 H   0  0  0  0  0  0  0  0  0  0  0  0
   37.1600   28.3170   49.1110 H   0  0  0  0  0  0  0  0  0  0  0  0
   37.5520   32.7000   49.6060 C   0  0  0  0  0  0  0  0  0  0  0  0
   38.4430   32.8370   48.5290 C   0  0  0  0  0  0  0  0  0  0  0  0
   38.6810   31.7000   47.7260 C   0  0  0  0  0  0  0  0  0  0  0  0
   38.0320   30.5330   48.0420 N   0  0  0  0  0  0  0  0  0  0  0  0
   37.1900   30.4660   49.0880 C   0  0  0  0  0  0  0  0  0  0  0  0
   36.9600   31.5560   49.8600 N   0  0  0  0  0  0  0  0  0  0  0  0
   37.4530   33.6320   50.1430 H   0  0  0  0  0  0  0  0  0  0  0  0
   39.0020   33.6840   48.1860 H   0  0  0  0  0  0  0  0  0  0  0  0
   39.3370   31.6580   46.8700 H   0  0  0  0  0  0  0  0  0  0  0  0
   33.4610   27.3090   48.0360 C   0  0  0  0  0  0  0  0  0  0  0  0
   33.8170   26.0890   47.8120 O   0  0  0  0  0  0  0  0  0  0  0  0
   32.3880   27.8590   47.3390 O   0  0  0  0  0  0  0  0  0  0  0  0
   31.1540   28.0770   47.8910 C   0  0  0  0  0  0  0  0  0  0  0  0
   30.7320   27.6330   49.2390 C   0  0  0  0  0  0  0  0  0  0  0  0
   29.4770   27.9290   49.6410 C   0  0  0  0  0  0  0  0  0  0  0  0
   28.5900   28.6400   48.8090 C   0  0  0  0  0  0  0  0  0  0  0  0
   29.5840   28.9460   47.2830 S   0  0  0  0  0  0  0  0  0  0  0  0
   31.4540   27.0960   49.8250 H   0  0  0  0  0  0  0  0  0  0  0  0
   29.0830   27.6480   50.6010 H   0  0  0  0  0  0  0  0  0  0  0  0
   27.3140   29.0790   48.9150 C   0  0  0  0  0  0  0  0  0  0  0  0
   26.2900   28.2260   49.2700 C   0  0  0  0  0  0  0  0  0  0  0  0
   26.4320   27.1700   49.4840 H   0  0  0  0  0  0  0  0  0  0  0  0
   24.9760   28.6990   49.3740 C   0  0  0  0  0  3  0  0  0  0  0  0
   24.7160   30.0490   49.1140 C   0  0  0  0  0  0  0  0  0  0  0  0
   23.6910   30.4310   49.1920 H   0  0  0  0  0  0  0  0  0  0  0  0
   25.7380   30.9300   48.7540 C   0  0  0  0  0  0  0  0  0  0  0  0
   25.5200   31.9660   48.5560 H   0  0  0  0  0  0  0  0  0  0  0  0
   27.0350   30.4040   48.6640 C   0  0  0  0  0  3  0  0  0  0  0  0
  1  4  1  6  0  0  0
  1  3  1  0  0  0  0
  1  2  1  0  0  0  0
  1  8  1  0  0  0  0
  2  6  1  0  0  0  0
  3  2  1  0  0  0  0
  3  7  1  1  0  0  0
  5  2  1  0  0  0  0
  8  9  1  0  0  0  0
 10  8  1  0  0  0  0
 11 16  1  0  0  0  0
 11 17  1  0  0  0  0
 12 11  2  0  0  0  0
 13 14  2  0  0  0  0
 13 12  1  0  0  0  0
 14 15  1  0  0  0  0
 15  8  1  0  0  0  0
 15 16  2  0  0  0  0
 18 12  1  0  0  0  0
 19 13  1  0  0  0  0
 20  3  1  0  0  0  0
 21 20  2  0  0  0  0
 22 23  1  0  0  0  0
 22 20  1  0  0  0  0
 23 24  2  0  0  0  0
 24 25  1  0  0  0  0
 24 28  1  0  0  0  0
 25 29  1  0  0  0  0
 26 30  1  0  0  0  0
 26 25  2  0  0  0  0
 27 23  1  0  0  0  0
 27 26  1  0  0  0  0
 30 31  1  0  0  0  0
 31 33  2  0  0  0  0
 31 32  1  0  0  0  0
 34 35  1  0  0  0  0
 34 33  1  0  0  0  0
 36 34  2  0  0  0  0
 37 36  1  0  0  0  0
 38 36  1  0  0  0  0
 38 30  2  0  0  0  0
M  END
>  <minimizedAffinity>
-6.79258347

>  <minimizedRMSD>
1.90135431

$$$$
