
 OpenBabel03252512543D

 23 25  0  0  0  0  0  0  0  0999 V2000
   38.3820   31.4870   48.2080 C   0  0  0  0  0  0  0  0  0  0  0  0
   39.0150   32.6720   48.1930 N   0  0  0  0  0  0  0  0  0  0  0  0
   39.4530   32.9410   47.0060 O   0  0  0  0  0  0  0  0  0  0  0  0
   39.1240   31.9550   46.2210 C   0  0  0  0  0  0  0  0  0  0  0  0
   38.4530   31.0240   46.9280 N   0  0  0  0  0  0  0  0  0  0  0  0
   37.3320   30.1290   51.5390 C   0  0  0  0  0  0  0  0  0  0  0  0
   38.0110   30.8990   50.5990 C   0  0  0  0  0  0  0  0  0  0  0  0
   37.7160   30.7210   49.2520 C   0  0  0  0  0  0  0  0  0  0  0  0
   36.7750   29.8020   48.9020 N   0  0  0  0  0  0  0  0  0  0  0  0
   36.1290   29.0660   49.8430 C   0  0  0  0  0  0  0  0  0  0  0  0
   36.3980   29.2190   51.1550 N   0  0  0  0  0  0  0  0  0  0  0  0
   37.5480   30.2530   52.5910 H   0  0  0  0  0  0  0  0  0  0  0  0
   38.7610   31.6320   50.8770 H   0  0  0  0  0  0  0  0  0  0  0  0
   35.3920   28.3560   49.4580 H   0  0  0  0  0  0  0  0  0  0  0  0
   39.4280   31.8630   44.7970 C   0  0  0  0  0  0  0  0  0  0  0  0
   40.0810   30.7590   44.2920 C   0  0  0  0  0  0  0  0  0  0  0  0
   40.3780   29.9350   44.9600 H   0  0  0  0  0  0  0  0  0  0  0  0
   40.4170   30.5690   42.9670 C   0  0  0  0  0  0  0  0  0  0  0  0
   40.0490   31.6010   42.1090 C   0  0  0  0  0  0  0  0  0  0  0  0
   40.2860   31.5130   41.0460 H   0  0  0  0  0  0  0  0  0  0  0  0
   39.3940   32.7230   42.5770 C   0  0  0  0  0  0  0  0  0  0  0  0
   39.1410   33.4820   41.8450 H   0  0  0  0  0  0  0  0  0  0  0  0
   39.0760   32.8680   43.9230 C   0  0  0  0  0  0  0  0  0  0  0  0
  1  8  1  0  0  0  0
  2  1  2  0  0  0  0
  3  2  1  0  0  0  0
  4  5  2  0  0  0  0
  4  3  1  0  0  0  0
  5  1  1  0  0  0  0
  6 12  1  0  0  0  0
  7 13  1  0  0  0  0
  7  6  2  0  0  0  0
  8  7  1  0  0  0  0
  9  8  2  0  0  0  0
  9 10  1  0  0  0  0
 10 11  2  0  0  0  0
 11  6  1  0  0  0  0
 14 10  1  0  0  0  0
 15  4  1  0  0  0  0
 16 15  1  0  0  0  0
 16 17  1  0  0  0  0
 18 16  2  0  0  0  0
 19 21  2  0  0  0  0
 19 18  1  0  0  0  0
 20 19  1  0  0  0  0
 21 23  1  0  0  0  0
 22 21  1  0  0  0  0
 23 15  2  0  0  0  0
M  END
>  <minimizedAffinity>
-5.60084438

>  <minimizedRMSD>
0.482350469

$$$$
