
 OpenBabel03252513353D

 21 22  0  0  0  0  0  0  0  0999 V2000
   36.7110   29.8820   49.5740 C   0  0  0  0  0  0  0  0  0  0  0  0
   37.8210   30.3850   48.8820 C   0  0  0  0  0  0  0  0  0  0  0  0
   37.6730   30.7350   47.5440 C   0  0  0  0  0  0  0  0  0  0  0  0
   36.4570   30.5710   46.9810 N   0  0  0  0  0  0  0  0  0  0  0  0
   35.3850   30.0780   47.6760 C   0  0  0  0  0  0  0  0  0  0  0  0
   35.5360   29.7430   48.9630 N   0  0  0  0  0  0  0  0  0  0  0  0
   38.7770   30.5030   49.3660 H   0  0  0  0  0  0  0  0  0  0  0  0
   34.4180   29.9540   47.2030 H   0  0  0  0  0  0  0  0  0  0  0  0
   38.7450   31.2600   46.7430 C   0  0  0  0  0  0  0  0  0  0  0  0
   39.1210   32.5690   46.9410 C   0  0  0  0  0  0  0  0  0  0  0  0
   38.6340   33.1880   47.6700 H   0  0  0  0  0  0  0  0  0  0  0  0
   40.1350   33.1980   46.2390 C   0  0  0  0  0  0  0  0  0  0  0  0
   40.8280   32.4850   45.2750 C   0  0  0  0  0  0  0  0  0  0  0  0
   41.6250   32.9520   44.7110 H   0  0  0  0  0  0  0  0  0  0  0  0
   40.4620   31.1730   45.0660 C   0  0  0  0  0  0  0  0  0  0  0  0
   40.9860   30.5810   44.3130 H   0  0  0  0  0  0  0  0  0  0  0  0
   39.4310   30.5730   45.7950 C   0  0  0  0  0  0  0  0  0  0  0  0
   36.8710   29.5040   51.0160 C   0  0  0  0  0  0  0  0  0  0  0  0
   35.6360   29.1460   51.5460 F   0  0  0  0  0  0  0  0  0  0  0  0
   37.8130   28.5210   51.0940 F   0  0  0  0  0  0  0  0  0  0  0  0
   37.3030   30.6390   51.6970 F   0  0  0  0  0  0  0  0  0  0  0  0
  1 18  1  0  0  0  0
  2  7  1  0  0  0  0
  2  1  2  0  0  0  0
  3  2  1  0  0  0  0
  4  3  2  0  0  0  0
  4  5  1  0  0  0  0
  5  6  2  0  0  0  0
  6  1  1  0  0  0  0
  8  5  1  0  0  0  0
  9 10  1  0  0  0  0
  9  3  1  0  0  0  0
 10 11  1  0  0  0  0
 12 10  2  0  0  0  0
 13 12  1  0  0  0  0
 14 13  1  0  0  0  0
 15 13  2  0  0  0  0
 15 17  1  0  0  0  0
 16 15  1  0  0  0  0
 17  9  2  0  0  0  0
 18 20  1  0  0  0  0
 18 19  1  0  0  0  0
 18 21  1  0  0  0  0
M  END
>  <minimizedAffinity>
-6.3633399

>  <minimizedRMSD>
2.56719804

$$$$
