
 OpenBabel03252512573D

 30 33  0  0  0  0  0  0  0  0999 V2000
   36.8640   29.8070   51.5560 C   0  0  0  0  0  0  0  0  0  0  0  0
   37.6950   30.6060   50.7480 C   0  0  0  0  0  0  0  0  0  0  0  0
   37.3620   30.6620   49.3900 C   0  0  0  0  0  0  0  0  0  0  0  0
   36.2820   29.9710   48.8920 N   0  0  0  0  0  0  0  0  0  0  0  0
   35.5350   29.2260   49.7430 C   0  0  0  0  0  0  0  0  0  0  0  0
   35.8090   29.1340   51.0610 N   0  0  0  0  0  0  0  0  0  0  0  0
   37.1270   29.7680   52.5980 H   0  0  0  0  0  0  0  0  0  0  0  0
   38.5380   31.1520   51.1010 H   0  0  0  0  0  0  0  0  0  0  0  0
   38.1400   31.4620   48.4350 C   0  0  0  0  0  0  0  0  0  0  0  0
   38.8190   32.6350   48.5840 N   0  0  0  0  0  0  0  0  0  0  0  0
   39.3610   32.9700   47.4500 O   0  0  0  0  0  0  0  0  0  0  0  0
   39.0550   32.0520   46.5740 C   0  0  0  0  0  0  0  0  0  0  0  0
   38.2860   31.0800   47.1480 N   0  0  0  0  0  0  0  0  0  0  0  0
   39.4330   32.0020   45.1930 N   0  0  0  0  0  0  0  0  0  0  0  0
   38.9910   32.8670   44.2900 N   0  0  0  0  0  0  0  0  0  0  0  0
   39.4940   32.5990   43.0790 C   0  0  0  0  0  0  0  0  0  0  0  0
   40.3110   31.4690   43.2800 C   0  0  0  0  0  0  0  0  0  0  0  0
   40.2510   31.1200   44.6120 C   0  0  0  0  0  0  0  0  0  0  0  0
   39.3160   33.1270   42.1620 H   0  0  0  0  0  0  0  0  0  0  0  0
   40.8920   30.9530   42.5230 H   0  0  0  0  0  0  0  0  0  0  0  0
   40.7470   30.3040   45.1410 H   0  0  0  0  0  0  0  0  0  0  0  0
   34.3900   28.4940   49.2130 C   0  0  0  0  0  0  0  0  0  0  0  0
   33.1100   28.7620   49.6540 C   0  0  0  0  0  0  0  0  0  0  0  0
   33.0030   29.5440   50.4140 H   0  0  0  0  0  0  0  0  0  0  0  0
   32.0110   28.0630   49.1490 C   0  0  0  0  0  0  0  0  0  0  0  0
   32.2210   27.0910   48.1920 C   0  0  0  0  0  0  0  0  0  0  0  0
   31.2910   26.6290   47.8890 H   0  0  0  0  0  0  0  0  0  0  0  0
   33.4840   26.7920   47.7250 C   0  0  0  0  0  0  0  0  0  0  0  0
   33.5650   26.0270   46.9850 H   0  0  0  0  0  0  0  0  0  0  0  0
   34.5500   27.5130   48.2560 C   0  0  0  0  0  0  0  0  0  0  0  0
  1  7  1  0  0  0  0
  2  8  1  0  0  0  0
  2  1  2  0  0  0  0
  3  2  1  0  0  0  0
  4  3  2  0  0  0  0
  4  5  1  0  0  0  0
  5  6  2  0  0  0  0
  6  1  1  0  0  0  0
  9 10  2  0  0  0  0
  9  3  1  0  0  0  0
 11 10  1  0  0  0  0
 12 13  2  0  0  0  0
 12 11  1  0  0  0  0
 13  9  1  0  0  0  0
 14 12  1  0  0  0  0
 15 14  1  0  0  0  0
 16 17  1  0  0  0  0
 16 15  2  0  0  0  0
 17 18  2  0  0  0  0
 18 21  1  0  0  0  0
 18 14  1  0  0  0  0
 19 16  1  0  0  0  0
 20 17  1  0  0  0  0
 22 23  1  0  0  0  0
 22  5  1  0  0  0  0
 23 24  1  0  0  0  0
 25 23  2  0  0  0  0
 26 25  1  0  0  0  0
 27 26  1  0  0  0  0
 28 26  2  0  0  0  0
 28 30  1  0  0  0  0
 29 28  1  0  0  0  0
 30 22  2  0  0  0  0
M  END
>  <minimizedAffinity>
-6.52750158

>  <minimizedRMSD>
0.749228001

$$$$
