
 OpenBabel03252513583D

 28 30  0  0  1  0  0  0  0  0999 V2000
   36.3540   30.2940   50.3730 C   0  0  2  0  0  0  0  0  0  0  0  0
   35.6200   29.3320   51.2180 C   0  0  0  0  0  0  0  0  0  0  0  0
   35.9290   28.9340   49.8290 C   0  0  1  0  0  0  0  0  0  0  0  0
   35.7970   31.1900   49.9710 H   0  0  0  0  0  0  0  0  0  0  0  0
   34.5950   29.6130   51.5120 H   0  0  0  0  0  0  0  0  0  0  0  0
   36.1600   28.8070   52.0460 H   0  0  0  0  0  0  0  0  0  0  0  0
   36.7240   28.1640   49.6920 H   0  0  0  0  0  0  0  0  0  0  0  0
   34.8840   28.9080   48.7690 C   0  0  0  0  0  0  0  0  0  0  0  0
   35.0850   29.7140   47.6470 C   0  0  0  0  0  0  0  0  0  0  0  0
   35.9530   30.3460   47.5190 H   0  0  0  0  0  0  0  0  0  0  0  0
   34.1200   29.6980   46.6520 C   0  0  0  0  0  3  0  0  0  0  0  0
   33.0130   28.9000   46.8030 C   0  0  0  0  0  0  0  0  0  0  0  0
   32.2190   28.8400   46.0630 H   0  0  0  0  0  0  0  0  0  0  0  0
   32.7870   28.0870   47.9100 C   0  0  0  0  0  0  0  0  0  0  0  0
   31.9080   27.4640   48.0120 H   0  0  0  0  0  0  0  0  0  0  0  0
   33.7600   28.1060   48.9060 C   0  0  0  0  0  3  0  0  0  0  0  0
   37.8440   30.4660   50.5150 C   0  0  0  0  0  0  0  0  0  0  0  0
   38.3200   29.4590   50.4460 H   0  0  0  0  0  0  0  0  0  0  0  0
   38.0760   30.8970   51.5080 H   0  0  0  0  0  0  0  0  0  0  0  0
   39.0050   33.4320   48.6780 C   0  0  0  0  0  0  0  0  0  0  0  0
   39.1530   32.9430   47.3640 C   0  0  0  0  0  0  0  0  0  0  0  0
   38.8520   31.6040   47.1280 C   0  0  0  0  0  0  0  0  0  0  0  0
   38.4310   30.8430   48.1870 N   0  0  0  0  0  0  0  0  0  0  0  0
   38.3020   31.3460   49.4280 C   0  0  0  0  0  0  0  0  0  0  0  0
   38.5940   32.6440   49.6560 N   0  0  0  0  0  0  0  0  0  0  0  0
   39.2630   34.4830   48.7550 H   0  0  0  0  0  0  0  0  0  0  0  0
   39.4860   33.5290   46.5050 H   0  0  0  0  0  0  0  0  0  0  0  0
   38.9480   31.1820   46.1460 H   0  0  0  0  0  0  0  0  0  0  0  0
  1  4  1  6  0  0  0
  1 17  1  0  0  0  0
  1  2  1  0  0  0  0
  2  5  1  0  0  0  0
  2  6  1  0  0  0  0
  3  7  1  6  0  0  0
  3  1  1  0  0  0  0
  3  2  1  0  0  0  0
  8 16  1  0  0  0  0
  8  3  1  0  0  0  0
  9  8  2  0  0  0  0
 10  9  1  0  0  0  0
 11 12  2  0  0  0  0
 11  9  1  0  0  0  0
 12 14  1  0  0  0  0
 13 12  1  0  0  0  0
 14 15  1  0  0  0  0
 14 16  2  0  0  0  0
 17 19  1  0  0  0  0
 18 17  1  0  0  0  0
 20 26  1  0  0  0  0
 20 25  1  0  0  0  0
 21 20  2  0  0  0  0
 22 21  1  0  0  0  0
 22 23  2  0  0  0  0
 23 24  1  0  0  0  0
 24 25  2  0  0  0  0
 24 17  1  0  0  0  0
 27 21  1  0  0  0  0
 28 22  1  0  0  0  0
M  END
>  <minimizedAffinity>
-5.62062502

>  <minimizedRMSD>
1.59175026

$$$$
