
 OpenBabel03252511313D

 21 22  0  0  0  0  0  0  0  0999 V2000
   37.4080   30.2850   50.0460 C   0  0  0  0  0  0  0  0  0  0  0  0
   38.2940   31.3560   50.1800 C   0  0  0  0  0  0  0  0  0  0  0  0
   38.5430   32.1550   49.0560 C   0  0  0  0  0  0  0  0  0  0  0  0
   37.9100   31.8440   47.9040 N   0  0  0  0  0  0  0  0  0  0  0  0
   37.0510   30.7900   47.8120 C   0  0  0  0  0  0  0  0  0  0  0  0
   36.8170   30.0340   48.8820 N   0  0  0  0  0  0  0  0  0  0  0  0
   38.8060   31.6100   51.1010 H   0  0  0  0  0  0  0  0  0  0  0  0
   39.2130   33.0030   49.0680 H   0  0  0  0  0  0  0  0  0  0  0  0
   36.3960   30.5020   46.5410 C   0  0  0  0  0  0  0  0  0  0  0  0
   35.1180   29.9520   46.5360 C   0  0  0  0  0  0  0  0  0  0  0  0
   34.6350   29.7480   47.4770 H   0  0  0  0  0  0  0  0  0  0  0  0
   34.4210   29.6460   45.3850 C   0  0  0  0  0  0  0  0  0  0  0  0
   35.0030   29.8910   44.1700 C   0  0  0  0  0  0  0  0  0  0  0  0
   34.4600   29.6520   43.2720 H   0  0  0  0  0  0  0  0  0  0  0  0
   36.2790   30.4400   44.1480 C   0  0  0  0  0  0  0  0  0  0  0  0
   36.7450   30.6360   43.1760 H   0  0  0  0  0  0  0  0  0  0  0  0
   36.9810   30.7480   45.3170 C   0  0  0  0  0  0  0  0  0  0  0  0
   37.1450   29.4310   51.2580 C   0  0  0  0  0  0  0  0  0  0  0  0
   35.7860   29.1840   51.3530 F   0  0  0  0  0  0  0  0  0  0  0  0
   37.8930   28.2990   51.1460 F   0  0  0  0  0  0  0  0  0  0  0  0
   37.5200   30.1690   52.3780 F   0  0  0  0  0  0  0  0  0  0  0  0
  1  2  1  0  0  0  0
  1 18  1  0  0  0  0
  2  7  1  0  0  0  0
  3  8  1  0  0  0  0
  3  2  2  0  0  0  0
  4  3  1  0  0  0  0
  5  4  2  0  0  0  0
  5  6  1  0  0  0  0
  6  1  2  0  0  0  0
  9  5  1  0  0  0  0
 10  9  1  0  0  0  0
 10 11  1  0  0  0  0
 12 10  2  0  0  0  0
 13 12  1  0  0  0  0
 14 13  1  0  0  0  0
 15 13  2  0  0  0  0
 15 17  1  0  0  0  0
 16 15  1  0  0  0  0
 17  9  2  0  0  0  0
 18 19  1  0  0  0  0
 18 21  1  0  0  0  0
 20 18  1  0  0  0  0
M  END
>  <minimizedAffinity>
-5.42930126

>  <minimizedRMSD>
0.657602608

$$$$
