
 OpenBabel03252511273D

 34 37  0  0  0  0  0  0  0  0999 V2000
   35.5760   29.5160   49.3540 C   0  0  0  0  0  0  0  0  0  0  0  0
   35.6340   29.1740   50.7210 C   0  0  0  0  0  0  0  0  0  0  0  0
   36.5870   29.6180   51.5970 C   0  0  0  0  0  0  0  0  0  0  0  0
   37.5690   30.4560   51.1480 C   0  0  0  0  0  0  0  0  0  0  0  0
   37.5820   30.8330   49.8420 C   0  0  0  0  0  0  0  0  0  0  0  0
   38.5900   31.6710   49.4560 C   0  0  0  0  0  0  0  0  0  0  0  0
   38.6680   32.0970   48.1500 C   0  0  0  0  0  0  0  0  0  0  0  0
   37.6960   31.6450   47.2530 C   0  0  0  0  0  0  0  0  0  0  0  0
   36.7120   30.8020   47.7100 C   0  0  0  0  0  0  0  0  0  0  0  0
   36.6050   30.3650   48.9880 C   0  0  0  0  0  0  0  0  0  0  0  0
   34.8530   28.5050   51.0890 H   0  0  0  0  0  0  0  0  0  0  0  0
   36.5360   29.2980   52.6090 H   0  0  0  0  0  0  0  0  0  0  0  0
   38.2930   30.7720   51.8860 H   0  0  0  0  0  0  0  0  0  0  0  0
   39.3430   32.0190   50.1590 H   0  0  0  0  0  0  0  0  0  0  0  0
   39.4400   32.7590   47.7830 H   0  0  0  0  0  0  0  0  0  0  0  0
   37.7400   31.9670   46.2220 H   0  0  0  0  0  0  0  0  0  0  0  0
   35.9730   30.4730   46.9770 H   0  0  0  0  0  0  0  0  0  0  0  0
   33.6640   26.9920   47.6820 C   0  0  0  0  0  0  0  0  0  0  0  0
   32.7450   27.6460   46.8460 C   0  0  0  0  0  0  0  0  0  0  0  0
   32.7960   29.0200   46.8700 C   0  0  0  0  0  0  0  0  0  0  0  0
   33.6900   29.6080   47.6610 N   0  0  0  0  0  0  0  0  0  0  0  0
   34.5590   29.0320   48.4510 C   0  0  0  0  0  0  0  0  0  0  0  0
   34.5030   27.6950   48.4230 N   0  0  0  0  0  0  0  0  0  0  0  0
   33.6090   25.8990   47.6510 H   0  0  0  0  0  0  0  0  0  0  0  0
   32.0580   27.1130   46.2380 H   0  0  0  0  0  0  0  0  0  0  0  0
   31.9090   29.8400   46.0600 C   0  0  0  0  0  0  0  0  0  0  0  0
   30.6180   29.5020   45.7120 C   0  0  0  0  0  0  0  0  0  0  0  0
   30.2220   28.5580   46.0610 H   0  0  0  0  0  0  0  0  0  0  0  0
   29.8060   30.3080   44.9410 C   0  0  0  0  0  0  0  0  0  0  0  0
   30.2820   31.5310   44.4720 C   0  0  0  0  0  0  0  0  0  0  0  0
   29.6260   32.1340   43.8760 H   0  0  0  0  0  0  0  0  0  0  0  0
   31.5550   31.8770   44.8080 C   0  0  0  0  0  0  0  0  0  0  0  0
   31.8780   32.8440   44.4160 H   0  0  0  0  0  0  0  0  0  0  0  0
   32.3280   31.0580   45.5700 C   0  0  0  0  0  0  0  0  0  0  0  0
  1  2  1  0  0  0  0
  2 11  1  0  0  0  0
  2  3  2  0  0  0  0
  3 12  1  0  0  0  0
  4  3  1  0  0  0  0
  4 13  1  0  0  0  0
  5  4  2  0  0  0  0
  6  5  1  0  0  0  0
  6 14  1  0  0  0  0
  7  6  2  0  0  0  0
  8  9  2  0  0  0  0
  8  7  1  0  0  0  0
  9 10  1  0  0  0  0
 10  1  2  0  0  0  0
 10  5  1  0  0  0  0
 15  7  1  0  0  0  0
 16  8  1  0  0  0  0
 17  9  1  0  0  0  0
 18 23  1  0  0  0  0
 19 20  1  0  0  0  0
 19 18  2  0  0  0  0
 20 21  2  0  0  0  0
 21 22  1  0  0  0  0
 22  1  1  0  0  0  0
 23 22  2  0  0  0  0
 24 18  1  0  0  0  0
 25 19  1  0  0  0  0
 26 20  1  0  0  0  0
 27 26  1  0  0  0  0
 27 28  1  0  0  0  0
 29 27  2  0  0  0  0
 30 32  2  0  0  0  0
 30 29  1  0  0  0  0
 31 30  1  0  0  0  0
 32 34  1  0  0  0  0
 33 32  1  0  0  0  0
 34 26  2  0  0  0  0
M  END
>  <minimizedAffinity>
-6.81279135

>  <minimizedRMSD>
0.679775178

$$$$
