
 OpenBabel03252511473D

 41 45  0  0  1  0  0  0  0  0999 V2000
   35.6190   30.4780   47.3110 C   0  0  0  0  0  0  0  0  0  0  0  0
   36.6720   30.6980   48.1820 C   0  0  0  0  0  0  0  0  0  0  0  0
   36.7750   29.7410   49.2390 C   0  0  0  0  0  0  0  0  0  0  0  0
   35.8780   28.7200   49.3250 N   0  0  0  0  0  0  0  0  0  0  0  0
   34.8920   28.5790   48.4430 C   0  0  0  0  0  0  0  0  0  0  0  0
   34.7610   29.4540   47.4400 N   0  0  0  0  0  0  0  0  0  0  0  0
   35.5730   31.2200   46.5260 H   0  0  0  0  0  0  0  0  0  0  0  0
   37.5630   29.8120   49.9840 H   0  0  0  0  0  0  0  0  0  0  0  0
   37.6760   31.7420   48.1870 C   0  0  0  0  0  0  0  0  0  0  0  0
   37.6530   32.4610   49.3450 C   0  0  0  0  0  0  0  0  0  0  0  0
   38.5370   33.5210   49.5660 C   0  0  0  0  0  0  0  0  0  0  0  0
   39.4590   33.8490   48.5840 C   0  0  0  0  0  0  0  0  0  0  0  0
   39.4680   33.1060   47.4120 C   0  0  0  0  0  0  0  0  0  0  0  0
   40.3600   33.3630   46.3680 C   0  0  0  0  0  0  0  0  0  0  0  0
   40.3170   32.5860   45.2240 C   0  0  0  0  0  0  0  0  0  0  0  0
   39.4260   31.5600   45.0670 C   0  0  0  0  0  0  0  0  0  0  0  0
   38.5430   31.3060   46.1030 C   0  0  0  0  0  0  0  0  0  0  0  0
   38.5900   32.0780   47.2290 C   0  0  0  0  0  0  0  0  0  0  0  0
   36.9920   32.3160   50.1890 H   0  0  0  0  0  0  0  0  0  0  0  0
   38.5500   34.1130   50.4700 H   0  0  0  0  0  0  0  0  0  0  0  0
   40.1900   34.6430   48.6410 H   0  0  0  0  0  0  0  0  0  0  0  0
   41.0790   34.1780   46.4740 H   0  0  0  0  0  0  0  0  0  0  0  0
   40.9910   32.7540   44.3950 H   0  0  0  0  0  0  0  0  0  0  0  0
   39.4070   30.9600   44.1600 H   0  0  0  0  0  0  0  0  0  0  0  0
   37.8280   30.4790   45.9710 H   0  0  0  0  0  0  0  0  0  0  0  0
   33.9390   27.4420   48.5980 C   0  0  1  0  0  0  0  0  0  0  0  0
   32.4780   27.7170   48.6470 C   0  0  0  0  0  0  0  0  0  0  0  0
   33.0720   27.0410   47.4400 C   0  0  2  0  0  0  0  0  0  0  0  0
   34.2870   26.6130   49.2450 H   0  0  0  0  0  0  0  0  0  0  0  0
   31.8060   27.1490   49.3280 H   0  0  0  0  0  0  0  0  0  0  0  0
   32.1080   28.7710   48.4790 H   0  0  0  0  0  0  0  0  0  0  0  0
   33.2120   27.6560   46.5130 H   0  0  0  0  0  0  0  0  0  0  0  0
   32.8630   25.5990   47.2260 C   0  0  0  0  0  0  0  0  0  0  0  0
   31.6260   25.1610   46.7430 C   0  0  0  0  0  0  0  0  0  0  0  0
   30.8030   25.8030   46.5130 H   0  0  0  0  0  0  0  0  0  0  0  0
   31.4240   23.7930   46.5390 C   0  0  0  0  0  0  0  0  0  0  0  0
   32.4850   22.9300   46.8340 C   0  0  0  0  0  0  0  0  0  0  0  0
   32.3670   21.8460   46.6860 H   0  0  0  0  0  0  0  0  0  0  0  0
   33.7090   23.3680   47.3110 C   0  0  0  0  0  0  0  0  0  0  0  0
   34.4730   22.6540   47.5150 H   0  0  0  0  0  0  0  0  0  0  0  0
   33.8900   24.7200   47.5060 C   0  0  0  0  0  0  0  0  0  0  0  0
  1  6  2  0  0  0  0
  1  2  1  0  0  0  0
  2  9  1  0  0  0  0
  2  3  2  0  0  0  0
  3  4  1  0  0  0  0
  3  8  1  0  0  0  0
  5 26  1  0  0  0  0
  5  4  2  0  0  0  0
  6  5  1  0  0  0  0
  7  1  1  0  0  0  0
  9 10  1  0  0  0  0
 10 11  2  0  0  0  0
 10 19  1  0  0  0  0
 11 20  1  0  0  0  0
 12 21  1  0  0  0  0
 12 11  1  0  0  0  0
 13 12  2  0  0  0  0
 14 22  1  0  0  0  0
 14 13  1  0  0  0  0
 15 14  2  0  0  0  0
 16 15  1  0  0  0  0
 16 17  2  0  0  0  0
 17 18  1  0  0  0  0
 18 13  1  0  0  0  0
 18  9  2  0  0  0  0
 23 15  1  0  0  0  0
 24 16  1  0  0  0  0
 25 17  1  0  0  0  0
 26 27  1  0  0  0  0
 26 29  1  1  0  0  0
 27 30  1  0  0  0  0
 28 32  1  6  0  0  0
 28 26  1  0  0  0  0
 28 27  1  0  0  0  0
 31 27  1  0  0  0  0
 33 28  1  0  0  0  0
 33 41  1  0  0  0  0
 34 33  2  0  0  0  0
 35 34  1  0  0  0  0
 36 34  1  0  0  0  0
 36 37  2  0  0  0  0
 37 39  1  0  0  0  0
 38 37  1  0  0  0  0
 39 41  2  0  0  0  0
 39 40  1  0  0  0  0
M  END
>  <minimizedAffinity>
-6.88629627

>  <minimizedRMSD>
1.02352154

$$$$
