
 OpenBabel03252513583D

 28 30  0  0  1  0  0  0  0  0999 V2000
   35.5700   29.7580   49.3870 C   0  0  2  0  0  0  0  0  0  0  0  0
   34.4810   29.4030   50.3180 C   0  0  0  0  0  0  0  0  0  0  0  0
   34.8980   28.3910   49.3260 C   0  0  1  0  0  0  0  0  0  0  0  0
   35.3410   30.4660   48.5380 H   0  0  0  0  0  0  0  0  0  0  0  0
   33.5330   29.9530   50.2030 H   0  0  0  0  0  0  0  0  0  0  0  0
   34.7210   29.2120   51.3950 H   0  0  0  0  0  0  0  0  0  0  0  0
   35.4750   27.5160   49.7110 H   0  0  0  0  0  0  0  0  0  0  0  0
   34.0710   28.0780   48.1280 C   0  0  0  0  0  0  0  0  0  0  0  0
   33.9110   26.7320   47.7900 C   0  0  0  0  0  0  0  0  0  0  0  0
   34.3560   25.9240   48.3540 H   0  0  0  0  0  0  0  0  0  0  0  0
   33.1440   26.4260   46.6780 C   0  0  0  0  0  3  0  0  0  0  0  0
   32.5740   27.4460   45.9540 C   0  0  0  0  0  0  0  0  0  0  0  0
   31.9620   27.2770   45.0720 H   0  0  0  0  0  0  0  0  0  0  0  0
   32.7170   28.7950   46.2680 C   0  0  0  0  0  0  0  0  0  0  0  0
   32.2600   29.5840   45.6860 H   0  0  0  0  0  0  0  0  0  0  0  0
   33.4890   29.0950   47.3880 C   0  0  0  0  0  3  0  0  0  0  0  0
   37.0090   29.7220   49.8330 C   0  0  0  0  0  0  0  0  0  0  0  0
   37.4290   28.7210   49.5740 H   0  0  0  0  0  0  0  0  0  0  0  0
   37.0620   29.8530   50.9310 H   0  0  0  0  0  0  0  0  0  0  0  0
   38.6140   32.9450   49.0900 C   0  0  0  0  0  0  0  0  0  0  0  0
   39.0690   32.7670   47.7680 C   0  0  0  0  0  0  0  0  0  0  0  0
   38.8170   31.5440   47.1500 C   0  0  0  0  0  0  0  0  0  0  0  0
   38.1440   30.5890   47.8660 N   0  0  0  0  0  0  0  0  0  0  0  0
   37.7260   30.7970   49.1280 C   0  0  0  0  0  0  0  0  0  0  0  0
   37.9710   31.9820   49.7250 N   0  0  0  0  0  0  0  0  0  0  0  0
   38.8600   33.9290   49.4780 H   0  0  0  0  0  0  0  0  0  0  0  0
   39.6060   33.5120   47.1780 H   0  0  0  0  0  0  0  0  0  0  0  0
   39.1410   31.3580   46.1450 H   0  0  0  0  0  0  0  0  0  0  0  0
  1  4  1  6  0  0  0
  1 17  1  0  0  0  0
  1  2  1  0  0  0  0
  2  6  1  0  0  0  0
  3  1  1  0  0  0  0
  3  7  1  1  0  0  0
  3  2  1  0  0  0  0
  5  2  1  0  0  0  0
  8  3  1  0  0  0  0
  9  8  1  0  0  0  0
  9 10  1  0  0  0  0
 11  9  2  0  0  0  0
 12 14  2  0  0  0  0
 12 11  1  0  0  0  0
 13 12  1  0  0  0  0
 14 16  1  0  0  0  0
 15 14  1  0  0  0  0
 16  8  2  0  0  0  0
 17 19  1  0  0  0  0
 18 17  1  0  0  0  0
 20 26  1  0  0  0  0
 20 25  1  0  0  0  0
 21 20  2  0  0  0  0
 22 21  1  0  0  0  0
 22 23  2  0  0  0  0
 23 24  1  0  0  0  0
 24 25  2  0  0  0  0
 24 17  1  0  0  0  0
 27 21  1  0  0  0  0
 28 22  1  0  0  0  0
M  END
>  <minimizedAffinity>
-5.13706636

>  <minimizedRMSD>
0.579533875

$$$$
