
 OpenBabel03252513583D

 28 30  0  0  1  0  0  0  0  0999 V2000
   35.4070   29.4500   49.1490 C   0  0  2  0  0  0  0  0  0  0  0  0
   34.3810   29.6200   50.1960 C   0  0  0  0  0  0  0  0  0  0  0  0
   34.5330   28.2810   49.5900 C   0  0  1  0  0  0  0  0  0  0  0  0
   35.2010   29.8690   48.1220 H   0  0  0  0  0  0  0  0  0  0  0  0
   33.5190   30.2610   49.9450 H   0  0  0  0  0  0  0  0  0  0  0  0
   34.7010   29.7530   51.2600 H   0  0  0  0  0  0  0  0  0  0  0  0
   35.0080   27.4940   50.2230 H   0  0  0  0  0  0  0  0  0  0  0  0
   33.5480   27.7450   48.6120 C   0  0  0  0  0  0  0  0  0  0  0  0
   34.0460   27.0100   47.5340 C   0  0  0  0  0  0  0  0  0  0  0  0
   35.1000   26.8180   47.3860 H   0  0  0  0  0  0  0  0  0  0  0  0
   33.1400   26.5030   46.6150 C   0  0  0  0  0  3  0  0  0  0  0  0
   31.7990   26.7410   46.7950 C   0  0  0  0  0  0  0  0  0  0  0  0
   31.0350   26.3750   46.1140 H   0  0  0  0  0  0  0  0  0  0  0  0
   31.2740   27.4700   47.8590 C   0  0  0  0  0  0  0  0  0  0  0  0
   30.2150   27.6470   47.9850 H   0  0  0  0  0  0  0  0  0  0  0  0
   32.1910   27.9760   48.7790 C   0  0  0  0  0  3  0  0  0  0  0  0
   36.8630   29.3070   49.5110 C   0  0  0  0  0  0  0  0  0  0  0  0
   37.2560   28.3860   49.0180 H   0  0  0  0  0  0  0  0  0  0  0  0
   36.9640   29.1880   50.6080 H   0  0  0  0  0  0  0  0  0  0  0  0
   38.3540   32.6660   49.3960 C   0  0  0  0  0  0  0  0  0  0  0  0
   38.8880   32.7220   48.0920 C   0  0  0  0  0  0  0  0  0  0  0  0
   38.7280   31.6070   47.2730 C   0  0  0  0  0  0  0  0  0  0  0  0
   38.0620   30.5240   47.7830 N   0  0  0  0  0  0  0  0  0  0  0  0
   37.5660   30.5080   49.0340 C   0  0  0  0  0  0  0  0  0  0  0  0
   37.7220   31.5890   49.8270 N   0  0  0  0  0  0  0  0  0  0  0  0
   38.5310   33.5810   49.9510 H   0  0  0  0  0  0  0  0  0  0  0  0
   39.4210   33.5720   47.6640 H   0  0  0  0  0  0  0  0  0  0  0  0
   39.1150   31.5990   46.2720 H   0  0  0  0  0  0  0  0  0  0  0  0
  1  4  1  6  0  0  0
  1 17  1  0  0  0  0
  1  3  1  0  0  0  0
  1  2  1  0  0  0  0
  2  6  1  0  0  0  0
  3  2  1  0  0  0  0
  3  7  1  1  0  0  0
  5  2  1  0  0  0  0
  8 16  1  0  0  0  0
  8  3  1  0  0  0  0
  9  8  2  0  0  0  0
 10  9  1  0  0  0  0
 11 12  2  0  0  0  0
 11  9  1  0  0  0  0
 12 14  1  0  0  0  0
 13 12  1  0  0  0  0
 14 15  1  0  0  0  0
 14 16  2  0  0  0  0
 17 19  1  0  0  0  0
 18 17  1  0  0  0  0
 20 25  1  0  0  0  0
 20 26  1  0  0  0  0
 21 20  2  0  0  0  0
 22 23  2  0  0  0  0
 22 21  1  0  0  0  0
 23 24  1  0  0  0  0
 24 17  1  0  0  0  0
 24 25  2  0  0  0  0
 27 21  1  0  0  0  0
 28 22  1  0  0  0  0
M  END
>  <minimizedAffinity>
-5.19497252

>  <minimizedRMSD>
0.641046226

$$$$
