
 OpenBabel03252512053D

 38 40  0  0  0  0  0  0  0  0999 V2000
   37.4080   31.0320   50.2610 C   0  0  0  0  0  0  0  0  0  0  0  0
   38.4070   30.5240   50.3280 H   0  0  0  0  0  0  0  0  0  0  0  0
   37.2420   31.3550   51.3390 H   0  0  0  0  0  0  0  0  0  0  0  0
   36.3460   28.8640   49.8180 C   0  0  0  0  0  0  0  0  0  0  0  0
   36.2920   30.2560   49.8640 C   0  0  0  0  0  0  0  0  0  0  0  0
   35.1080   30.8380   49.5240 C   0  0  0  0  0  0  0  0  0  0  0  0
   34.0190   30.0890   49.1540 N   0  0  0  0  0  0  0  0  0  0  0  0
   34.1040   28.7470   49.1200 C   0  0  0  0  0  0  0  0  0  0  0  0
   35.2460   28.1770   49.4480 N   0  0  0  0  0  0  0  0  0  0  0  0
   37.2840   28.3860   50.0870 H   0  0  0  0  0  0  0  0  0  0  0  0
   34.8450   31.8800   49.4830 H   0  0  0  0  0  0  0  0  0  0  0  0
   32.9780   27.8960   48.7340 C   0  0  0  0  0  0  0  0  0  0  0  0
   33.2090   26.8620   47.8510 C   0  0  0  0  0  0  0  0  0  0  0  0
   34.2080   26.6970   47.4620 H   0  0  0  0  0  0  0  0  0  0  0  0
   32.2230   26.0130   47.4310 C   0  0  0  0  0  0  0  0  0  0  0  0
   30.9640   26.2190   47.9200 C   0  0  0  0  0  0  0  0  0  0  0  0
   30.0490   25.6530   47.7050 H   0  0  0  0  0  0  0  0  0  0  0  0
   30.6900   27.2430   48.8050 C   0  0  0  0  0  0  0  0  0  0  0  0
   29.7300   27.4920   49.2500 H   0  0  0  0  0  0  0  0  0  0  0  0
   31.6920   28.1180   49.2420 C   0  0  0  0  0  0  0  0  0  0  0  0
   37.5390   32.3180   49.5050 C   0  0  0  0  0  0  0  0  0  0  0  0
   36.6500   32.9230   49.4030 H   0  0  0  0  0  0  0  0  0  0  0  0
   38.3010   32.9970   49.9990 H   0  0  0  0  0  0  0  0  0  0  0  0
   38.2010   31.9530   48.2070 C   0  0  0  0  0  0  0  0  0  0  0  0
   38.0550   30.7190   47.6450 C   0  0  0  0  0  0  0  0  0  0  0  0
   38.6890   30.4150   46.4580 C   0  0  0  0  0  0  0  0  0  0  0  0
   39.4470   31.3590   45.8750 N   0  0  0  0  0  0  0  0  0  0  0  0
   39.5940   32.5690   46.4190 C   0  0  0  0  0  0  0  0  0  0  0  0
   38.9850   32.8800   47.5740 N   0  0  0  0  0  0  0  0  0  0  0  0
   37.4630   29.9520   48.0750 H   0  0  0  0  0  0  0  0  0  0  0  0
   38.5990   29.4340   45.9700 H   0  0  0  0  0  0  0  0  0  0  0  0
   40.4370   33.6180   45.7690 C   0  0  0  0  0  0  0  0  0  0  0  0
   40.2220   34.6020   46.2210 H   0  0  0  0  0  0  0  0  0  0  0  0
   41.5270   33.3790   45.8920 H   0  0  0  0  0  0  0  0  0  0  0  0
   40.0830   33.7170   44.2790 C   0  0  0  0  0  0  0  0  0  0  0  0
   41.0420   33.9540   43.7500 H   0  0  0  0  0  0  0  0  0  0  0  0
   39.3830   34.5500   44.0790 H   0  0  0  0  0  0  0  0  0  0  0  0
   39.6720   32.7330   43.9470 H   0  0  0  0  0  0  0  0  0  0  0  0
  1  2  1  0  0  0  0
  1  3  1  0  0  0  0
  4  5  1  0  0  0  0
  4 10  1  0  0  0  0
  5  1  1  0  0  0  0
  6  5  2  0  0  0  0
  7  6  1  0  0  0  0
  8  7  2  0  0  0  0
  8  9  1  0  0  0  0
  9  4  2  0  0  0  0
 11  6  1  0  0  0  0
 12  8  1  0  0  0  0
 12 20  1  0  0  0  0
 13 12  2  0  0  0  0
 14 13  1  0  0  0  0
 15 13  1  0  0  0  0
 15 16  2  0  0  0  0
 16 18  1  0  0  0  0
 17 16  1  0  0  0  0
 18 20  2  0  0  0  0
 18 19  1  0  0  0  0
 21 23  1  0  0  0  0
 21  1  1  0  0  0  0
 22 21  1  0  0  0  0
 24 21  1  0  0  0  0
 25 30  1  0  0  0  0
 25 24  1  0  0  0  0
 26 25  2  0  0  0  0
 27 28  2  0  0  0  0
 27 26  1  0  0  0  0
 28 29  1  0  0  0  0
 29 24  2  0  0  0  0
 31 26  1  0  0  0  0
 32 34  1  0  0  0  0
 32 33  1  0  0  0  0
 32 28  1  0  0  0  0
 35 32  1  0  0  0  0
 36 35  1  0  0  0  0
 37 35  1  0  0  0  0
 38 35  1  0  0  0  0
M  END
>  <minimizedAffinity>
-5.61658669

>  <minimizedRMSD>
1.81965542

$$$$
