
 OpenBabel03252513233D

 21 22  0  0  0  0  0  0  0  0999 V2000
   36.6760   29.5350   50.1030 C   0  0  0  0  0  0  0  0  0  0  0  0
   36.9670   30.5940   49.2260 C   0  0  0  0  0  0  0  0  0  0  0  0
   36.1700   30.7130   48.0910 C   0  0  0  0  0  0  0  0  0  0  0  0
   35.1520   29.8090   47.8770 N   0  0  0  0  0  0  0  0  0  0  0  0
   34.9200   28.8000   48.7690 C   0  0  0  0  0  0  0  0  0  0  0  0
   35.6760   28.6800   49.8550 N   0  0  0  0  0  0  0  0  0  0  0  0
   37.3110   29.4670   50.9750 H   0  0  0  0  0  0  0  0  0  0  0  0
   36.3090   31.5040   47.3380 H   0  0  0  0  0  0  0  0  0  0  0  0
   33.8230   27.8930   48.4600 C   0  0  0  0  0  0  0  0  0  0  0  0
   32.5460   28.1390   48.9000 C   0  0  0  0  0  0  0  0  0  0  0  0
   32.3560   29.0200   49.4840 H   0  0  0  0  0  0  0  0  0  0  0  0
   31.4880   27.2800   48.6110 C   0  0  0  0  0  0  0  0  0  0  0  0
   31.7940   26.1530   47.8510 C   0  0  0  0  0  0  0  0  0  0  0  0
   30.9350   25.5080   47.6480 H   0  0  0  0  0  0  0  0  0  0  0  0
   33.0720   25.8760   47.3910 C   0  0  0  0  0  0  0  0  0  0  0  0
   33.2220   24.9790   46.8070 H   0  0  0  0  0  0  0  0  0  0  0  0
   34.0770   26.7640   47.7100 C   0  0  0  0  0  0  0  0  0  0  0  0
   38.0610   31.5710   49.4500 C   0  0  0  0  0  0  0  0  0  0  0  0
   38.9240   31.6870   48.4050 F   0  0  0  0  0  0  0  0  0  0  0  0
   38.8040   31.2400   50.5670 F   0  0  0  0  0  0  0  0  0  0  0  0
   37.5140   32.8400   49.6770 F   0  0  0  0  0  0  0  0  0  0  0  0
  1  7  1  0  0  0  0
  2 18  1  0  0  0  0
  2  1  2  0  0  0  0
  3  2  1  0  0  0  0
  4  3  2  0  0  0  0
  4  5  1  0  0  0  0
  5  6  2  0  0  0  0
  6  1  1  0  0  0  0
  8  3  1  0  0  0  0
  9  5  1  0  0  0  0
  9 10  1  0  0  0  0
 10 11  1  0  0  0  0
 12 10  2  0  0  0  0
 13 12  1  0  0  0  0
 14 13  1  0  0  0  0
 15 17  1  0  0  0  0
 15 13  2  0  0  0  0
 16 15  1  0  0  0  0
 17  9  2  0  0  0  0
 18 21  1  0  0  0  0
 18 20  1  0  0  0  0
 19 18  1  0  0  0  0
M  END
>  <minimizedAffinity>
-5.42451859

>  <minimizedRMSD>
1.55709124

$$$$
