
 OpenBabel03252513163D

 46 49  0  0  0  0  0  0  0  0999 V2000
   36.2490   31.2940   42.5770 C   0  0  0  0  0  0  0  0  0  0  0  0
   37.4690   31.0490   41.9120 C   0  0  0  0  0  0  0  0  0  0  0  0
   38.5360   30.7220   42.6760 C   0  0  0  0  0  0  0  0  0  0  0  0
   38.3340   30.6630   43.9750 N   0  0  0  0  0  0  0  0  0  0  0  0
   37.2670   30.8680   44.6760 C   0  0  0  0  0  0  0  0  0  0  0  0
   36.2280   31.1890   43.9080 N   0  0  0  0  0  0  0  0  0  0  0  0
   35.3630   31.5640   41.9800 H   0  0  0  0  0  0  0  0  0  0  0  0
   36.9390   30.8300   46.0790 C   0  0  0  0  0  0  0  0  0  0  0  0
   35.9170   30.0550   46.6180 C   0  0  0  0  0  0  0  0  0  0  0  0
   35.5770   29.9930   47.9300 C   0  0  0  0  0  0  0  0  0  0  0  0
   36.2660   30.7360   48.8430 C   0  0  0  0  0  0  0  0  0  0  0  0
   37.2710   31.5130   48.3890 C   0  0  0  0  0  0  0  0  0  0  0  0
   37.9710   32.2680   49.3200 C   0  0  0  0  0  0  0  0  0  0  0  0
   39.0010   33.0780   48.9510 C   0  0  0  0  0  0  0  0  0  0  0  0
   39.3380   33.1320   47.6060 C   0  0  0  0  0  0  0  0  0  0  0  0
   38.6260   32.3740   46.7190 C   0  0  0  0  0  0  0  0  0  0  0  0
   37.6010   31.5620   47.0540 C   0  0  0  0  0  0  0  0  0  0  0  0
   35.3300   29.4360   45.9260 H   0  0  0  0  0  0  0  0  0  0  0  0
   34.7600   29.3550   48.2580 H   0  0  0  0  0  0  0  0  0  0  0  0
   37.7620   32.2750   50.3770 H   0  0  0  0  0  0  0  0  0  0  0  0
   39.5740   33.6850   49.6510 H   0  0  0  0  0  0  0  0  0  0  0  0
   40.1490   33.7610   47.2700 H   0  0  0  0  0  0  0  0  0  0  0  0
   38.9220   32.4450   45.6750 H   0  0  0  0  0  0  0  0  0  0  0  0
   35.9020   30.6570   50.1660 O   0  0  0  0  0  0  0  0  0  0  0  0
   36.4270   29.6280   50.9970 C   0  0  0  0  0  0  0  0  0  0  0  0
   37.2390   28.7320   50.3830 F   0  0  0  0  0  0  0  0  0  0  0  0
   37.1970   30.2550   51.9660 F   0  0  0  0  0  0  0  0  0  0  0  0
   35.3280   29.0020   51.5730 F   0  0  0  0  0  0  0  0  0  0  0  0
   39.8220   30.4650   42.1480 N   0  0  0  0  0  0  0  0  0  0  0  0
   40.8940   29.9730   42.9510 C   0  0  0  0  0  0  0  0  0  0  0  0
   41.0380   30.5040   44.1300 N   0  0  0  0  0  0  0  0  0  0  0  0
   41.7690   28.9480   42.4890 N   0  0  0  0  0  0  0  0  0  0  0  0
   41.7380   30.2620   44.8190 H   0  0  0  0  0  0  0  0  0  0  0  0
   40.0770   30.6220   41.1270 H   0  0  0  0  0  0  0  0  0  0  0  0
   41.9480   27.9190   42.5640 H   0  0  0  0  0  0  0  0  0  0  0  0
   42.5530   29.2120   41.8250 H   0  0  0  0  0  0  0  0  0  0  0  0
   37.7400   31.8710   37.7610 C   0  0  0  0  0  0  0  0  0  0  0  0
   37.6350   30.5520   38.1600 C   0  0  0  0  0  0  0  0  0  0  0  0
   37.5350   30.1740   39.4830 C   0  0  0  0  0  0  0  0  0  0  0  0
   37.5400   31.1280   40.4590 C   0  0  0  0  0  0  0  0  0  0  0  0
   37.6470   32.4720   40.0730 C   0  0  0  0  0  0  0  0  0  0  0  0
   37.7470   32.8450   38.7420 C   0  0  0  0  0  0  0  0  0  0  0  0
   38.6620   33.1490   35.7510 H   0  0  0  0  0  0  0  0  0  0  0  0
   37.8530   32.1070   36.0470 S   0  0  0  0  0  0  0  0  0  0  0  0
   38.4190   30.8980   35.3450 O   0  0  0  0  0  0  0  0  0  0  0  0
   36.4850   32.4320   35.5310 O   0  0  0  0  0  0  0  0  0  0  0  0
  1  6  1  0  0  0  0
  2  1  2  0  0  0  0
  2  3  1  0  0  0  0
  3  4  2  0  0  0  0
  4  5  1  0  0  0  0
  5  8  1  0  0  0  0
  6  5  2  0  0  0  0
  7  1  1  0  0  0  0
  8  9  2  0  0  0  0
  8 17  1  0  0  0  0
  9 10  1  0  0  0  0
 10 19  1  0  0  0  0
 10 11  2  0  0  0  0
 11 24  1  0  0  0  0
 12 11  1  0  0  0  0
 12 13  1  0  0  0  0
 13 20  1  0  0  0  0
 14 13  2  0  0  0  0
 14 21  1  0  0  0  0
 15 14  1  0  0  0  0
 16 17  1  0  0  0  0
 16 15  2  0  0  0  0
 17 12  2  0  0  0  0
 18  9  1  0  0  0  0
 22 15  1  0  0  0  0
 23 16  1  0  0  0  0
 24 25  1  0  0  0  0
 25 28  1  0  0  0  0
 25 27  1  0  0  0  0
 26 25  1  0  0  0  0
 29  3  1  0  0  0  0
 29 30  1  0  0  0  0
 30 31  2  0  0  0  0
 31 33  1  0  0  0  0
 32 35  1  0  0  0  0
 32 30  1  0  0  0  0
 34 29  1  0  0  0  0
 36 32  1  0  0  0  0
 37 38  2  0  0  0  0
 37 42  1  0  0  0  0
 38 39  1  0  0  0  0
 39 40  2  0  0  0  0
 40  2  1  0  0  0  0
 41 40  1  0  0  0  0
 42 41  2  0  0  0  0
 43 44  1  0  0  0  0
 44 37  1  0  0  0  0
 45 44  2  0  0  0  0
 46 44  2  0  0  0  0
M  END
>  <minimizedAffinity>
-7.1772418

>  <minimizedRMSD>
0.652755558

$$$$
