
 OpenBabel03252512133D

 33 36  0  0  0  0  0  0  0  0999 V2000
   32.3680   29.9720   46.1480 C   0  0  0  0  0  0  0  0  0  0  0  0
   32.0880   28.6050   46.1810 C   0  0  0  0  0  0  0  0  0  0  0  0
   33.0170   27.7330   46.7630 C   0  0  0  0  0  0  0  0  0  0  0  0
   34.1560   28.2870   47.2710 N   0  0  0  0  0  0  0  0  0  0  0  0
   34.4090   29.6120   47.2300 C   0  0  0  0  0  0  0  0  0  0  0  0
   33.5210   30.4360   46.6750 N   0  0  0  0  0  0  0  0  0  0  0  0
   31.6480   30.6190   45.7010 H   0  0  0  0  0  0  0  0  0  0  0  0
   31.1890   28.2100   45.7750 H   0  0  0  0  0  0  0  0  0  0  0  0
   35.6600   30.0740   47.8060 C   0  0  0  0  0  0  0  0  0  0  0  0
   36.6590   30.6980   47.0980 C   0  0  0  0  0  0  0  0  0  0  0  0
   37.6940   31.0090   47.9000 N   0  0  0  0  0  0  0  0  0  0  0  0
   37.3710   30.5860   49.1500 C   0  0  0  0  0  0  0  0  0  0  0  0
   38.0690   30.6520   50.3490 C   0  0  0  0  0  0  0  0  0  0  0  0
   37.4700   30.1230   51.4900 C   0  0  0  0  0  0  0  0  0  0  0  0
   36.2260   29.5570   51.4090 C   0  0  0  0  0  0  0  0  0  0  0  0
   35.4990   29.4740   50.2180 C   0  0  0  0  0  0  0  0  0  0  0  0
   36.1140   30.0050   49.1040 C   0  0  0  0  0  0  0  0  0  0  0  0
   36.6250   30.9120   46.0400 H   0  0  0  0  0  0  0  0  0  0  0  0
   38.5590   31.4850   47.5820 H   0  0  0  0  0  0  0  0  0  0  0  0
   39.0510   31.1230   50.3050 H   0  0  0  0  0  0  0  0  0  0  0  0
   38.0650   30.2110   52.3690 H   0  0  0  0  0  0  0  0  0  0  0  0
   35.8360   29.1720   52.3330 H   0  0  0  0  0  0  0  0  0  0  0  0
   34.5240   29.0220   50.1900 H   0  0  0  0  0  0  0  0  0  0  0  0
   32.3250   23.5640   46.9590 C   0  0  0  0  0  0  0  0  0  0  0  0
   31.3640   24.4440   46.4700 C   0  0  0  0  0  0  0  0  0  0  0  0
   31.6430   25.7910   46.4290 C   0  0  0  0  0  0  0  0  0  0  0  0
   32.8300   26.3130   46.8490 C   0  0  0  0  0  0  0  0  0  0  0  0
   33.7720   25.4610   47.3270 C   0  0  0  0  0  0  0  0  0  0  0  0
   33.5080   24.0990   47.3750 C   0  0  0  0  0  0  0  0  0  0  0  0
   32.9160   21.1890   46.2230 H   0  0  0  0  0  0  0  0  0  0  0  0
   32.0170   21.8520   47.0290 S   0  0  0  0  0  0  0  0  0  0  0  0
   30.6270   21.5750   46.5410 O   0  0  0  0  0  0  0  0  0  0  0  0
   32.1160   21.3880   48.4460 O   0  0  0  0  0  0  0  0  0  0  0  0
  1  2  2  0  0  0  0
  1  6  1  0  0  0  0
  2  3  1  0  0  0  0
  3 27  1  0  0  0  0
  3  4  2  0  0  0  0
  5  4  1  0  0  0  0
  5  9  1  0  0  0  0
  6  5  2  0  0  0  0
  7  1  1  0  0  0  0
  8  2  1  0  0  0  0
  9 17  1  0  0  0  0
 10  9  2  0  0  0  0
 10 11  1  0  0  0  0
 11 12  1  0  0  0  0
 12 13  1  0  0  0  0
 13 14  2  0  0  0  0
 14 21  1  0  0  0  0
 15 14  1  0  0  0  0
 15 22  1  0  0  0  0
 16 15  2  0  0  0  0
 17 12  2  0  0  0  0
 17 16  1  0  0  0  0
 18 10  1  0  0  0  0
 19 11  1  0  0  0  0
 20 13  1  0  0  0  0
 23 16  1  0  0  0  0
 24 31  1  0  0  0  0
 24 29  1  0  0  0  0
 25 24  2  0  0  0  0
 26 25  1  0  0  0  0
 26 27  2  0  0  0  0
 27 28  1  0  0  0  0
 28 29  2  0  0  0  0
 30 31  1  0  0  0  0
 31 33  2  0  0  0  0
 32 31  2  0  0  0  0
M  END
>  <minimizedAffinity>
-6.03997755

>  <minimizedRMSD>
0.268961608

$$$$
