
 OpenBabel03252513523D

 41 43  0  0  1  0  0  0  0  0999 V2000
   35.8450   30.2850   45.2390 C   0  0  0  0  0  0  0  0  0  0  0  0
   34.8300   30.0630   45.9150 O   0  0  0  0  0  0  0  0  0  0  0  0
   35.6780   30.1290   43.8370 N   0  0  0  0  0  0  0  0  0  0  0  0
   36.2530   31.1950   43.0190 C   0  0  0  0  0  0  0  0  0  0  0  0
   35.7100   31.1640   41.6170 C   0  0  0  0  0  0  0  0  0  0  0  0
   34.3640   30.7620   41.7090 O   0  0  0  0  0  0  0  0  0  0  0  0
   34.4250   29.3740   41.8770 C   0  0  0  0  0  0  0  0  0  0  0  0
   34.9960   28.9960   43.2400 C   0  0  2  0  0  0  0  0  0  0  0  0
   37.3600   31.2020   43.0720 H   0  0  0  0  0  0  0  0  0  0  0  0
   35.9030   32.1510   43.4830 H   0  0  0  0  0  0  0  0  0  0  0  0
   35.8180   32.1250   41.1130 H   0  0  0  0  0  0  0  0  0  0  0  0
   36.2370   30.3920   41.0180 H   0  0  0  0  0  0  0  0  0  0  0  0
   34.9740   28.8760   41.0570 H   0  0  0  0  0  0  0  0  0  0  0  0
   33.3870   28.9970   41.8480 H   0  0  0  0  0  0  0  0  0  0  0  0
   35.7510   28.2100   43.0660 H   0  0  0  0  0  0  0  0  0  0  0  0
   38.3270   31.2380   47.9230 C   0  0  0  0  0  0  0  0  0  0  0  0
   37.0930   30.8550   47.2990 C   0  0  0  0  0  0  0  0  0  0  0  0
   37.0750   30.6760   45.9250 C   0  0  0  0  0  0  0  0  0  0  0  0
   38.2460   30.8770   45.2570 N   0  0  0  0  0  0  0  0  0  0  0  0
   39.3810   31.2330   45.8640 C   0  0  0  0  0  0  0  0  0  0  0  0
   39.4160   31.4090   47.1710 N   0  0  0  0  0  0  0  0  0  0  0  0
   36.1770   30.7030   47.8590 H   0  0  0  0  0  0  0  0  0  0  0  0
   40.5540   31.4090   44.9790 C   0  0  0  0  0  0  0  0  0  0  0  0
   40.4000   30.6500   43.8220 F   0  0  0  0  0  0  0  0  0  0  0  0
   40.6180   32.7200   44.5600 F   0  0  0  0  0  0  0  0  0  0  0  0
   41.7540   31.1400   45.6170 F   0  0  0  0  0  0  0  0  0  0  0  0
   38.3150   31.4100   49.2960 O   0  0  0  0  0  0  0  0  0  0  0  0
   37.5970   30.6390   50.1910 C   0  0  0  0  0  0  0  0  0  0  0  0
   36.3190   31.1170   50.4580 F   0  0  0  0  0  0  0  0  0  0  0  0
   37.5500   29.3050   49.8740 F   0  0  0  0  0  0  0  0  0  0  0  0
   38.3200   30.7250   51.4020 F   0  0  0  0  0  0  0  0  0  0  0  0
   32.0290   27.1550   45.7870 C   0  0  0  0  0  0  0  0  0  0  0  0
   31.7230   28.3130   45.1050 C   0  0  0  0  0  0  0  0  0  0  0  0
   32.6440   28.9240   44.2840 C   0  0  0  0  0  0  0  0  0  0  0  0
   33.9150   28.4270   44.0900 C   0  0  0  0  0  0  0  0  0  0  0  0
   34.1460   27.2550   44.8150 C   0  0  0  0  0  0  0  0  0  0  0  0
   33.2770   26.5940   45.6490 C   0  0  0  0  0  0  0  0  0  0  0  0
   29.7780   27.2240   46.9380 H   0  0  0  0  0  0  0  0  0  0  0  0
   30.8740   26.3750   46.8280 S   0  0  0  0  0  0  0  0  0  0  0  0
   30.4060   25.0590   46.2740 O   0  0  0  0  0  0  0  0  0  0  0  0
   31.4380   26.1160   48.1890 O   0  0  0  0  0  0  0  0  0  0  0  0
  1  2  2  0  0  0  0
  1 18  1  0  0  0  0
  3  1  1  0  0  0  0
  4  9  1  0  0  0  0
  4 10  1  0  0  0  0
  4  3  1  0  0  0  0
  5  6  1  0  0  0  0
  5  4  1  0  0  0  0
  6  7  1  0  0  0  0
  7  8  1  0  0  0  0
  8 15  1  6  0  0  0
  8  3  1  0  0  0  0
  8 35  1  0  0  0  0
 11  5  1  0  0  0  0
 12  5  1  0  0  0  0
 13  7  1  0  0  0  0
 14  7  1  0  0  0  0
 16 27  1  0  0  0  0
 17 22  1  0  0  0  0
 17 16  1  0  0  0  0
 18 17  2  0  0  0  0
 19 20  2  0  0  0  0
 19 18  1  0  0  0  0
 20 21  1  0  0  0  0
 21 16  2  0  0  0  0
 23 26  1  0  0  0  0
 23 20  1  0  0  0  0
 24 23  1  0  0  0  0
 25 23  1  0  0  0  0
 27 28  1  0  0  0  0
 28 29  1  0  0  0  0
 28 31  1  0  0  0  0
 30 28  1  0  0  0  0
 32 39  1  0  0  0  0
 33 32  2  0  0  0  0
 34 33  1  0  0  0  0
 35 34  2  0  0  0  0
 35 36  1  0  0  0  0
 36 37  2  0  0  0  0
 37 32  1  0  0  0  0
 39 38  1  0  0  0  0
 39 41  2  0  0  0  0
 40 39  2  0  0  0  0
M  END
>  <minimizedAffinity>
-5.72046375

>  <minimizedRMSD>
7.75160933

$$$$
