
 OpenBabel03252513593D

 29 31  0  0  1  0  0  0  0  0999 V2000
   35.5170   29.5620   48.9660 C   0  0  2  0  0  0  0  0  0  0  0  0
   34.4750   30.0360   49.8940 C   0  0  0  0  0  0  0  0  0  0  0  0
   34.5840   28.5810   49.6690 C   0  0  1  0  0  0  0  0  0  0  0  0
   35.3340   29.7340   47.8820 H   0  0  0  0  0  0  0  0  0  0  0  0
   33.6190   30.6270   49.4640 H   0  0  0  0  0  0  0  0  0  0  0  0
   34.8310   30.5060   50.8330 H   0  0  0  0  0  0  0  0  0  0  0  0
   35.0180   28.0030   50.5350 H   0  0  0  0  0  0  0  0  0  0  0  0
   31.7980   26.3800   47.2520 C   0  0  0  0  0  0  0  0  0  0  0  0
   31.3420   27.2830   48.1810 C   0  0  0  0  0  3  0  0  0  0  0  0
   32.2190   28.0090   48.9770 C   0  0  0  0  0  3  0  0  0  0  0  0
   33.5950   27.8500   48.8640 C   0  0  0  0  0  0  0  0  0  0  0  0
   34.0030   26.9180   47.9020 C   0  0  0  0  0  3  0  0  0  0  0  0
   33.1540   26.1850   47.0990 C   0  0  0  0  0  3  0  0  0  0  0  0
   31.1070   24.1240   46.3050 H   0  0  0  0  0  0  0  0  0  0  0  0
   30.7620   25.4270   46.2110 S   0  0  0  0  0  0  0  0  0  0  0  0
   30.9950   25.8520   44.7690 O   0  0  0  0  0  0  0  0  0  0  0  0
   29.3510   25.7360   46.5430 O   0  0  0  0  0  0  0  0  0  0  0  0
   36.9580   29.4680   49.3870 C   0  0  0  0  0  0  0  0  0  0  0  0
   37.3870   28.6060   48.8180 H   0  0  0  0  0  0  0  0  0  0  0  0
   37.0890   29.2850   50.4670 H   0  0  0  0  0  0  0  0  0  0  0  0
   38.2850   32.8980   49.3530 C   0  0  0  0  0  0  0  0  0  0  0  0
   38.9090   32.9780   48.0940 C   0  0  0  0  0  0  0  0  0  0  0  0
   38.8680   31.8460   47.2660 C   0  0  0  0  0  0  0  0  0  0  0  0
   38.2200   30.7360   47.7400 N   0  0  0  0  0  0  0  0  0  0  0  0
   37.6330   30.7020   48.9580 C   0  0  0  0  0  0  0  0  0  0  0  0
   37.6670   31.7800   49.7580 N   0  0  0  0  0  0  0  0  0  0  0  0
   38.3070   33.7660   50.0090 H   0  0  0  0  0  0  0  0  0  0  0  0
   39.4140   33.8720   47.7480 H   0  0  0  0  0  0  0  0  0  0  0  0
   39.3220   31.8260   46.2850 H   0  0  0  0  0  0  0  0  0  0  0  0
  1  4  1  6  0  0  0
  1 18  1  0  0  0  0
  1  3  1  0  0  0  0
  1  2  1  0  0  0  0
  2  6  1  0  0  0  0
  3  2  1  0  0  0  0
  3  7  1  1  0  0  0
  5  2  1  0  0  0  0
  8  9  1  0  0  0  0
  9 10  2  0  0  0  0
 11 10  1  0  0  0  0
 11  3  1  0  0  0  0
 12 11  2  0  0  0  0
 13  8  2  0  0  0  0
 13 12  1  0  0  0  0
 15 14  1  0  0  0  0
 15 17  2  0  0  0  0
 15  8  1  0  0  0  0
 16 15  2  0  0  0  0
 18 20  1  0  0  0  0
 19 18  1  0  0  0  0
 21 26  1  0  0  0  0
 21 27  1  0  0  0  0
 22 21  2  0  0  0  0
 23 24  2  0  0  0  0
 23 22  1  0  0  0  0
 24 25  1  0  0  0  0
 25 18  1  0  0  0  0
 25 26  2  0  0  0  0
 28 22  1  0  0  0  0
 29 23  1  0  0  0  0
M  END
>  <minimizedAffinity>
-5.29022694

>  <minimizedRMSD>
1.06161535

$$$$
