
 OpenBabel03252513583D

 29 31  0  0  1  0  0  0  0  0999 V2000
   35.4450   29.4880   48.9980 C   0  0  2  0  0  0  0  0  0  0  0  0
   34.4010   29.8340   49.9790 C   0  0  0  0  0  0  0  0  0  0  0  0
   34.5430   28.4150   49.6000 C   0  0  1  0  0  0  0  0  0  0  0  0
   35.2470   29.7700   47.9400 H   0  0  0  0  0  0  0  0  0  0  0  0
   33.5270   30.4450   49.6210 H   0  0  0  0  0  0  0  0  0  0  0  0
   34.7560   30.2110   50.9600 H   0  0  0  0  0  0  0  0  0  0  0  0
   35.0000   27.7590   50.3960 H   0  0  0  0  0  0  0  0  0  0  0  0
   31.7860   26.4050   46.9910 C   0  0  0  0  0  0  0  0  0  0  0  0
   31.3220   27.2760   47.9460 C   0  0  0  0  0  3  0  0  0  0  0  0
   32.1890   27.9390   48.8040 C   0  0  0  0  0  3  0  0  0  0  0  0
   33.5640   27.7480   48.7290 C   0  0  0  0  0  0  0  0  0  0  0  0
   33.9790   26.8510   47.7380 C   0  0  0  0  0  3  0  0  0  0  0  0
   33.1400   26.1800   46.8740 C   0  0  0  0  0  3  0  0  0  0  0  0
   31.2640   24.2900   45.6780 H   0  0  0  0  0  0  0  0  0  0  0  0
   30.7620   25.5290   45.8740 S   0  0  0  0  0  0  0  0  0  0  0  0
   30.7840   26.2410   44.5280 O   0  0  0  0  0  0  0  0  0  0  0  0
   29.3690   25.5760   46.3780 O   0  0  0  0  0  0  0  0  0  0  0  0
   36.8920   29.3860   49.3960 C   0  0  0  0  0  0  0  0  0  0  0  0
   37.3160   28.5460   48.7910 H   0  0  0  0  0  0  0  0  0  0  0  0
   37.0390   29.1660   50.4670 H   0  0  0  0  0  0  0  0  0  0  0  0
   38.1080   32.8570   49.4160 C   0  0  0  0  0  0  0  0  0  0  0  0
   38.8160   32.9460   48.2040 C   0  0  0  0  0  0  0  0  0  0  0  0
   38.8690   31.8060   47.3870 C   0  0  0  0  0  0  0  0  0  0  0  0
   38.2250   30.6800   47.8270 N   0  0  0  0  0  0  0  0  0  0  0  0
   37.5550   30.6380   49.0010 C   0  0  0  0  0  0  0  0  0  0  0  0
   37.4990   31.7230   49.7900 N   0  0  0  0  0  0  0  0  0  0  0  0
   38.0570   33.7300   50.0630 H   0  0  0  0  0  0  0  0  0  0  0  0
   39.3150   33.8530   47.8830 H   0  0  0  0  0  0  0  0  0  0  0  0
   39.3910   31.7920   46.4400 H   0  0  0  0  0  0  0  0  0  0  0  0
  1  4  1  6  0  0  0
  1 18  1  0  0  0  0
  1  3  1  0  0  0  0
  1  2  1  0  0  0  0
  2  6  1  0  0  0  0
  3  2  1  0  0  0  0
  3  7  1  1  0  0  0
  5  2  1  0  0  0  0
  8  9  1  0  0  0  0
  9 10  2  0  0  0  0
 11 10  1  0  0  0  0
 11  3  1  0  0  0  0
 12 11  2  0  0  0  0
 13  8  2  0  0  0  0
 13 12  1  0  0  0  0
 14 15  1  0  0  0  0
 15 17  2  0  0  0  0
 15  8  1  0  0  0  0
 16 15  2  0  0  0  0
 18 20  1  0  0  0  0
 19 18  1  0  0  0  0
 21 26  1  0  0  0  0
 21 27  1  0  0  0  0
 22 21  2  0  0  0  0
 23 24  2  0  0  0  0
 23 22  1  0  0  0  0
 24 25  1  0  0  0  0
 25 18  1  0  0  0  0
 25 26  2  0  0  0  0
 28 22  1  0  0  0  0
 29 23  1  0  0  0  0
M  END
>  <minimizedAffinity>
-5.25114584

>  <minimizedRMSD>
0.863327503

$$$$
