
 OpenBabel03252513463D

 23 24  0  0  0  0  0  0  0  0999 V2000
   37.3250   30.4810   49.4330 C   0  0  0  0  0  0  0  0  0  0  0  0
   37.3470   31.7700   50.0310 C   0  0  0  0  0  0  0  0  0  0  0  0
   37.9280   32.8180   49.3250 C   0  0  0  0  0  0  0  0  0  0  0  0
   38.4480   32.5620   48.0940 N   0  0  0  0  0  0  0  0  0  0  0  0
   38.4000   31.3230   47.5730 C   0  0  0  0  0  0  0  0  0  0  0  0
   37.8530   30.2950   48.2170 N   0  0  0  0  0  0  0  0  0  0  0  0
   36.9230   31.9400   51.0170 H   0  0  0  0  0  0  0  0  0  0  0  0
   37.9780   33.8340   49.7310 H   0  0  0  0  0  0  0  0  0  0  0  0
   39.9310   30.5140   43.7070 C   0  0  0  0  0  0  0  0  0  0  0  0
   38.6980   30.0480   44.0570 C   0  0  0  0  0  0  0  0  0  0  0  0
   38.2290   30.3300   45.3240 C   0  0  0  0  0  0  0  0  0  0  0  0
   38.9660   31.0620   46.2390 C   0  0  0  0  0  0  0  0  0  0  0  0
   40.2170   31.5260   45.8600 C   0  0  0  0  0  0  0  0  0  0  0  0
   40.7210   31.2600   44.5880 C   0  0  0  0  0  0  0  0  0  0  0  0
   41.0790   31.3910   41.6110 H   0  0  0  0  0  0  0  0  0  0  0  0
   40.6030   30.1990   42.1110 S   0  0  0  0  0  0  0  0  0  0  0  0
   39.4900   29.6810   41.2220 O   0  0  0  0  0  0  0  0  0  0  0  0
   41.7050   29.1760   42.2120 O   0  0  0  0  0  0  0  0  0  0  0  0
   36.7450   29.4670   50.1510 O   0  0  0  0  0  0  0  0  0  0  0  0
   35.3820   29.3110   50.3870 C   0  0  0  0  0  0  0  0  0  0  0  0
   35.0540   29.1690   51.7170 F   0  0  0  0  0  0  0  0  0  0  0  0
   34.6190   30.2990   49.8110 F   0  0  0  0  0  0  0  0  0  0  0  0
   35.0120   28.1280   49.7440 F   0  0  0  0  0  0  0  0  0  0  0  0
  1  2  1  0  0  0  0
  1 19  1  0  0  0  0
  2  7  1  0  0  0  0
  3  8  1  0  0  0  0
  3  2  2  0  0  0  0
  4  3  1  0  0  0  0
  5  4  2  0  0  0  0
  5  6  1  0  0  0  0
  6  1  2  0  0  0  0
  9 10  2  0  0  0  0
  9 14  1  0  0  0  0
 10 11  1  0  0  0  0
 11 12  2  0  0  0  0
 12  5  1  0  0  0  0
 13 12  1  0  0  0  0
 14 13  2  0  0  0  0
 15 16  1  0  0  0  0
 16 18  2  0  0  0  0
 16  9  1  0  0  0  0
 17 16  2  0  0  0  0
 19 20  1  0  0  0  0
 20 21  1  0  0  0  0
 22 20  1  0  0  0  0
 23 20  1  0  0  0  0
M  END
>  <minimizedAffinity>
-6.2774291

>  <minimizedRMSD>
1.50067043

$$$$
