
 OpenBabel03252510443D

 31 33  0  0  1  0  0  0  0  0999 V2000
   37.5100   31.3820   48.6970 N   0  0  0  0  0  0  0  0  0  0  0  0
   38.3450   31.5300   49.9050 C   0  0  0  0  0  0  0  0  0  0  0  0
   38.6000   33.0270   49.8540 C   0  0  0  0  0  0  0  0  0  0  0  0
   39.0310   33.1390   48.3950 C   0  0  0  0  0  0  0  0  0  0  0  0
   37.8550   32.4190   47.7450 C   0  0  1  0  0  0  0  0  0  0  0  0
   39.2590   30.9410   49.8540 H   0  0  0  0  0  0  0  0  0  0  0  0
   37.7250   31.3480   50.8010 H   0  0  0  0  0  0  0  0  0  0  0  0
   39.4330   33.3440   50.4910 H   0  0  0  0  0  0  0  0  0  0  0  0
   37.6400   33.5470   50.0310 H   0  0  0  0  0  0  0  0  0  0  0  0
   39.0590   34.1590   48.0150 H   0  0  0  0  0  0  0  0  0  0  0  0
   39.9700   32.5680   48.2890 H   0  0  0  0  0  0  0  0  0  0  0  0
   37.0120   33.1180   47.6530 H   0  0  0  0  0  0  0  0  0  0  0  0
   36.3000   29.2900   49.3200 C   0  0  0  0  0  0  0  0  0  0  0  0
   36.5210   30.3940   48.4770 C   0  0  0  0  0  0  0  0  0  0  0  0
   35.7180   30.5420   47.3390 C   0  0  0  0  0  0  0  0  0  0  0  0
   34.7500   29.5940   47.1060 N   0  0  0  0  0  0  0  0  0  0  0  0
   34.5680   28.5490   47.9360 C   0  0  0  0  0  0  0  0  0  0  0  0
   35.3360   28.4040   49.0280 N   0  0  0  0  0  0  0  0  0  0  0  0
   36.9650   29.2700   50.1600 H   0  0  0  0  0  0  0  0  0  0  0  0
   35.7760   31.3280   46.6190 H   0  0  0  0  0  0  0  0  0  0  0  0
   33.8120   27.8290   47.7320 H   0  0  0  0  0  0  0  0  0  0  0  0
   39.3860   30.9010   44.0410 C   0  0  0  0  0  0  0  0  0  0  0  0
   39.9350   30.5330   45.2550 C   0  0  0  0  0  0  0  0  0  0  0  0
   39.4070   31.0490   46.4200 C   0  0  0  0  0  0  0  0  0  0  0  0
   38.3580   31.9160   46.4610 C   0  0  0  0  0  0  0  0  0  0  0  0
   37.8180   32.2760   45.2260 C   0  0  0  0  0  0  0  0  0  0  0  0
   38.3200   31.7800   44.0400 C   0  0  0  0  0  0  0  0  0  0  0  0
   38.9010   29.5540   41.9700 H   0  0  0  0  0  0  0  0  0  0  0  0
   39.8770   30.3860   42.4430 S   0  0  0  0  0  0  0  0  0  0  0  0
   41.2160   29.7330   42.5600 O   0  0  0  0  0  0  0  0  0  0  0  0
   39.9810   31.5380   41.4880 O   0  0  0  0  0  0  0  0  0  0  0  0
  1  2  1  0  0  0  0
  2  7  1  0  0  0  0
  3  2  1  0  0  0  0
  3  9  1  0  0  0  0
  3  8  1  0  0  0  0
  4  3  1  0  0  0  0
  5 12  1  6  0  0  0
  5  4  1  0  0  0  0
  5  1  1  0  0  0  0
  6  2  1  0  0  0  0
 10  4  1  0  0  0  0
 11  4  1  0  0  0  0
 13 19  1  0  0  0  0
 14  1  1  0  0  0  0
 14 13  2  0  0  0  0
 15 14  1  0  0  0  0
 16 15  2  0  0  0  0
 16 17  1  0  0  0  0
 17 18  2  0  0  0  0
 18 13  1  0  0  0  0
 20 15  1  0  0  0  0
 21 17  1  0  0  0  0
 22 23  1  0  0  0  0
 23 24  2  0  0  0  0
 24 25  1  0  0  0  0
 25  5  1  0  0  0  0
 26 25  2  0  0  0  0
 27 22  2  0  0  0  0
 27 26  1  0  0  0  0
 28 29  1  0  0  0  0
 29 30  2  0  0  0  0
 29 22  1  0  0  0  0
 31 29  2  0  0  0  0
M  END
>  <minimizedAffinity>
-5.36707592

>  <minimizedRMSD>
2.18221974

$$$$
