
 OpenBabel03252513583D

 29 31  0  0  1  0  0  0  0  0999 V2000
   35.4740   29.4530   48.9970 C   0  0  2  0  0  0  0  0  0  0  0  0
   34.4020   29.8770   49.9160 C   0  0  0  0  0  0  0  0  0  0  0  0
   34.5300   28.4350   49.6280 C   0  0  1  0  0  0  0  0  0  0  0  0
   35.3200   29.6730   47.9180 H   0  0  0  0  0  0  0  0  0  0  0  0
   33.5540   30.4810   49.4880 H   0  0  0  0  0  0  0  0  0  0  0  0
   34.7290   30.3060   50.8850 H   0  0  0  0  0  0  0  0  0  0  0  0
   34.9440   27.8210   50.4790 H   0  0  0  0  0  0  0  0  0  0  0  0
   31.8280   26.3230   47.0420 C   0  0  0  0  0  0  0  0  0  0  0  0
   31.3430   27.2220   47.9590 C   0  0  0  0  0  3  0  0  0  0  0  0
   32.1930   27.9200   48.8080 C   0  0  0  0  0  3  0  0  0  0  0  0
   33.5690   27.7340   48.7630 C   0  0  0  0  0  0  0  0  0  0  0  0
   34.0070   26.8080   47.8110 C   0  0  0  0  0  3  0  0  0  0  0  0
   33.1860   26.1020   46.9550 C   0  0  0  0  0  3  0  0  0  0  0  0
   31.2870   24.1340   45.8640 H   0  0  0  0  0  0  0  0  0  0  0  0
   30.8290   25.4040   45.9360 S   0  0  0  0  0  0  0  0  0  0  0  0
   30.9550   26.0070   44.5450 O   0  0  0  0  0  0  0  0  0  0  0  0
   29.4140   25.5450   46.3550 O   0  0  0  0  0  0  0  0  0  0  0  0
   36.9030   29.3490   49.4540 C   0  0  0  0  0  0  0  0  0  0  0  0
   37.3280   28.4580   48.9290 H   0  0  0  0  0  0  0  0  0  0  0  0
   37.0070   29.2070   50.5430 H   0  0  0  0  0  0  0  0  0  0  0  0
   38.4110   32.7020   49.3680 C   0  0  0  0  0  0  0  0  0  0  0  0
   38.9420   32.7730   48.0670 C   0  0  0  0  0  0  0  0  0  0  0  0
   38.7740   31.6610   47.2280 C   0  0  0  0  0  0  0  0  0  0  0  0
   38.1040   30.5790   47.7340 N   0  0  0  0  0  0  0  0  0  0  0  0
   37.6100   30.5530   48.9930 C   0  0  0  0  0  0  0  0  0  0  0  0
   37.7650   31.6120   49.8040 N   0  0  0  0  0  0  0  0  0  0  0  0
   38.5310   33.5550   50.0340 H   0  0  0  0  0  0  0  0  0  0  0  0
   39.4670   33.6450   47.6960 H   0  0  0  0  0  0  0  0  0  0  0  0
   39.1510   31.6340   46.2140 H   0  0  0  0  0  0  0  0  0  0  0  0
  1  4  1  6  0  0  0
  1 18  1  0  0  0  0
  1  3  1  0  0  0  0
  1  2  1  0  0  0  0
  2  6  1  0  0  0  0
  3  2  1  0  0  0  0
  3  7  1  1  0  0  0
  5  2  1  0  0  0  0
  8  9  1  0  0  0  0
  9 10  2  0  0  0  0
 11 10  1  0  0  0  0
 11  3  1  0  0  0  0
 12 11  2  0  0  0  0
 13  8  2  0  0  0  0
 13 12  1  0  0  0  0
 14 15  1  0  0  0  0
 15 17  2  0  0  0  0
 15  8  1  0  0  0  0
 16 15  2  0  0  0  0
 18 20  1  0  0  0  0
 19 18  1  0  0  0  0
 21 26  1  0  0  0  0
 21 27  1  0  0  0  0
 22 21  2  0  0  0  0
 23 24  2  0  0  0  0
 23 22  1  0  0  0  0
 24 25  1  0  0  0  0
 25 18  1  0  0  0  0
 25 26  2  0  0  0  0
 28 22  1  0  0  0  0
 29 23  1  0  0  0  0
M  END
>  <minimizedAffinity>
-5.24940681

>  <minimizedRMSD>
0.90907681

$$$$
