
 OpenBabel03252513583D

 29 31  0  0  1  0  0  0  0  0999 V2000
   35.4770   29.4840   49.0210 C   0  0  2  0  0  0  0  0  0  0  0  0
   34.4400   29.8030   50.0180 C   0  0  0  0  0  0  0  0  0  0  0  0
   34.5820   28.3940   49.6020 C   0  0  1  0  0  0  0  0  0  0  0  0
   35.2710   29.7920   47.9720 H   0  0  0  0  0  0  0  0  0  0  0  0
   33.5620   30.4220   49.6810 H   0  0  0  0  0  0  0  0  0  0  0  0
   34.8010   30.1560   51.0050 H   0  0  0  0  0  0  0  0  0  0  0  0
   35.0450   27.7200   50.3780 H   0  0  0  0  0  0  0  0  0  0  0  0
   31.6060   26.5710   47.0980 C   0  0  0  0  0  0  0  0  0  0  0  0
   32.9370   26.3130   46.8850 C   0  0  0  0  0  3  0  0  0  0  0  0
   33.9220   26.8880   47.6790 C   0  0  0  0  0  3  0  0  0  0  0  0
   33.5980   27.7480   48.7210 C   0  0  0  0  0  0  0  0  0  0  0  0
   32.2270   27.9750   48.8920 C   0  0  0  0  0  3  0  0  0  0  0  0
   31.2290   27.4170   48.1180 C   0  0  0  0  0  3  0  0  0  0  0  0
   30.2290   26.5320   44.9590 H   0  0  0  0  0  0  0  0  0  0  0  0
   30.3040   25.8900   46.1460 S   0  0  0  0  0  0  0  0  0  0  0  0
   28.9890   26.1330   46.8720 O   0  0  0  0  0  0  0  0  0  0  0  0
   30.5000   24.4240   46.0630 O   0  0  0  0  0  0  0  0  0  0  0  0
   36.9270   29.3750   49.4060 C   0  0  0  0  0  0  0  0  0  0  0  0
   37.3440   28.5380   48.7920 H   0  0  0  0  0  0  0  0  0  0  0  0
   37.0820   29.1480   50.4740 H   0  0  0  0  0  0  0  0  0  0  0  0
   38.1790   32.8330   49.4500 C   0  0  0  0  0  0  0  0  0  0  0  0
   38.8520   32.9370   48.2180 C   0  0  0  0  0  0  0  0  0  0  0  0
   38.8680   31.8110   47.3810 C   0  0  0  0  0  0  0  0  0  0  0  0
   38.2260   30.6840   47.8200 N   0  0  0  0  0  0  0  0  0  0  0  0
   37.5910   30.6270   49.0130 C   0  0  0  0  0  0  0  0  0  0  0  0
   37.5700   31.6990   49.8220 N   0  0  0  0  0  0  0  0  0  0  0  0
   38.1570   33.6950   50.1140 H   0  0  0  0  0  0  0  0  0  0  0  0
   39.3510   33.8440   47.8990 H   0  0  0  0  0  0  0  0  0  0  0  0
   39.3620   31.8080   46.4190 H   0  0  0  0  0  0  0  0  0  0  0  0
  1  4  1  6  0  0  0
  1 18  1  0  0  0  0
  1  3  1  0  0  0  0
  1  2  1  0  0  0  0
  2  6  1  0  0  0  0
  3  2  1  0  0  0  0
  3  7  1  1  0  0  0
  5  2  1  0  0  0  0
  8 13  1  0  0  0  0
  9  8  2  0  0  0  0
  9 10  1  0  0  0  0
 10 11  2  0  0  0  0
 11 12  1  0  0  0  0
 11  3  1  0  0  0  0
 13 12  2  0  0  0  0
 14 15  1  0  0  0  0
 15 16  2  0  0  0  0
 15  8  1  0  0  0  0
 17 15  2  0  0  0  0
 18 20  1  0  0  0  0
 19 18  1  0  0  0  0
 21 26  1  0  0  0  0
 21 27  1  0  0  0  0
 22 21  2  0  0  0  0
 23 24  2  0  0  0  0
 23 22  1  0  0  0  0
 24 25  1  0  0  0  0
 25 18  1  0  0  0  0
 25 26  2  0  0  0  0
 28 22  1  0  0  0  0
 29 23  1  0  0  0  0
M  END
>  <minimizedAffinity>
-5.37559175

>  <minimizedRMSD>
1.16135108

$$$$
