
 OpenBabel03252513583D

 29 31  0  0  1  0  0  0  0  0999 V2000
   35.4770   29.4540   49.0470 C   0  0  2  0  0  0  0  0  0  0  0  0
   34.4260   29.7950   50.0230 C   0  0  0  0  0  0  0  0  0  0  0  0
   34.5620   28.3800   49.6260 C   0  0  1  0  0  0  0  0  0  0  0  0
   35.2910   29.7520   47.9910 H   0  0  0  0  0  0  0  0  0  0  0  0
   33.5600   30.4180   49.6640 H   0  0  0  0  0  0  0  0  0  0  0  0
   34.7750   30.1560   51.0120 H   0  0  0  0  0  0  0  0  0  0  0  0
   35.0060   27.7100   50.4170 H   0  0  0  0  0  0  0  0  0  0  0  0
   31.6090   26.5540   47.0970 C   0  0  0  0  0  0  0  0  0  0  0  0
   32.9420   26.3000   46.8940 C   0  0  0  0  0  3  0  0  0  0  0  0
   33.9200   26.8760   47.6950 C   0  0  0  0  0  3  0  0  0  0  0  0
   33.5860   27.7330   48.7370 C   0  0  0  0  0  0  0  0  0  0  0  0
   32.2130   27.9560   48.8970 C   0  0  0  0  0  3  0  0  0  0  0  0
   31.2220   27.3970   48.1160 C   0  0  0  0  0  3  0  0  0  0  0  0
   30.2510   26.5110   44.9460 H   0  0  0  0  0  0  0  0  0  0  0  0
   30.3160   25.8710   46.1350 S   0  0  0  0  0  0  0  0  0  0  0  0
   28.9940   26.1140   46.8490 O   0  0  0  0  0  0  0  0  0  0  0  0
   30.5140   24.4050   46.0550 O   0  0  0  0  0  0  0  0  0  0  0  0
   36.9190   29.3360   49.4570 C   0  0  0  0  0  0  0  0  0  0  0  0
   37.3220   28.4520   48.9030 H   0  0  0  0  0  0  0  0  0  0  0  0
   37.0570   29.1740   50.5390 H   0  0  0  0  0  0  0  0  0  0  0  0
   38.4110   32.6960   49.3710 C   0  0  0  0  0  0  0  0  0  0  0  0
   38.9340   32.7720   48.0670 C   0  0  0  0  0  0  0  0  0  0  0  0
   38.7670   31.6610   47.2260 C   0  0  0  0  0  0  0  0  0  0  0  0
   38.1050   30.5750   47.7330 N   0  0  0  0  0  0  0  0  0  0  0  0
   37.6180   30.5440   48.9940 C   0  0  0  0  0  0  0  0  0  0  0  0
   37.7720   31.6020   49.8070 N   0  0  0  0  0  0  0  0  0  0  0  0
   38.5300   33.5480   50.0380 H   0  0  0  0  0  0  0  0  0  0  0  0
   39.4530   33.6480   47.6950 H   0  0  0  0  0  0  0  0  0  0  0  0
   39.1390   31.6390   46.2100 H   0  0  0  0  0  0  0  0  0  0  0  0
  1  4  1  6  0  0  0
  1 18  1  0  0  0  0
  1  3  1  0  0  0  0
  1  2  1  0  0  0  0
  2  6  1  0  0  0  0
  3  2  1  0  0  0  0
  3  7  1  1  0  0  0
  5  2  1  0  0  0  0
  8 13  1  0  0  0  0
  9  8  2  0  0  0  0
  9 10  1  0  0  0  0
 10 11  2  0  0  0  0
 11 12  1  0  0  0  0
 11  3  1  0  0  0  0
 13 12  2  0  0  0  0
 14 15  1  0  0  0  0
 15 16  2  0  0  0  0
 15  8  1  0  0  0  0
 17 15  2  0  0  0  0
 18 20  1  0  0  0  0
 19 18  1  0  0  0  0
 21 26  1  0  0  0  0
 21 27  1  0  0  0  0
 22 21  2  0  0  0  0
 23 24  2  0  0  0  0
 23 22  1  0  0  0  0
 24 25  1  0  0  0  0
 25 18  1  0  0  0  0
 25 26  2  0  0  0  0
 28 22  1  0  0  0  0
 29 23  1  0  0  0  0
M  END
>  <minimizedAffinity>
-5.37495947

>  <minimizedRMSD>
1.04125738

$$$$
