
 OpenBabel03252511123D

 18 19  0  0  0  0  0  0  0  0999 V2000
   38.3900   32.3100   47.9130 C   0  0  0  0  0  0  0  0  0  0  0  0
   38.3670   33.0530   49.0900 C   0  0  0  0  0  0  0  0  0  0  0  0
   39.2870   34.1210   49.1710 C   0  0  0  0  0  0  0  0  0  0  0  0
   40.1100   34.3420   48.1180 N   0  0  0  0  0  0  0  0  0  0  0  0
   40.0900   33.5970   47.0080 C   0  0  0  0  0  0  0  0  0  0  0  0
   39.2310   32.5810   46.9030 N   0  0  0  0  0  0  0  0  0  0  0  0
   37.6700   32.7960   49.8770 H   0  0  0  0  0  0  0  0  0  0  0  0
   39.2740   34.7010   50.0840 H   0  0  0  0  0  0  0  0  0  0  0  0
   40.7670   33.8130   46.1950 H   0  0  0  0  0  0  0  0  0  0  0  0
   37.4540   31.2130   47.8140 C   0  0  0  0  0  0  0  0  0  0  0  0
   36.9980   30.7290   46.7340 O   0  0  0  0  0  0  0  0  0  0  0  0
   36.9540   30.5590   49.0200 C   0  0  0  0  0  0  0  0  0  0  0  0
   37.8180   30.0540   49.9640 C   0  0  0  0  0  0  0  0  0  0  0  0
   37.3090   29.4370   51.1020 C   0  0  0  0  0  0  0  0  0  0  0  0
   35.9840   29.3320   51.2860 N   0  0  0  0  0  0  0  0  0  0  0  0
   35.1630   29.8280   50.3600 C   0  0  0  0  0  0  0  0  0  0  0  0
   34.0700   29.8180   50.3710 H   0  0  0  0  0  0  0  0  0  0  0  0
   35.6320   30.4180   49.2720 N   0  0  0  0  0  0  0  0  0  0  0  0
  1  2  1  0  0  0  0
  2  3  2  0  0  0  0
  2  7  1  0  0  0  0
  3  8  1  0  0  0  0
  4  3  1  0  0  0  0
  5  4  2  0  0  0  0
  6  5  1  0  0  0  0
  6  1  2  0  0  0  0
  9  5  1  0  0  0  0
 10  1  1  0  0  0  0
 10 12  1  0  0  0  0
 11 10  2  0  0  0  0
 12 18  2  0  0  0  0
 12 13  1  0  0  0  0
 13 14  2  0  0  0  0
 14 15  1  0  0  0  0
 16 17  1  0  0  0  0
 16 15  2  0  0  0  0
 18 16  1  0  0  0  0
M  END
>  <minimizedAffinity>
-4.62057924

>  <minimizedRMSD>
3.59994578

$$$$
