
 OpenBabel03252513493D

 25 26  0  0  0  0  0  0  0  0999 V2000
   36.3550   29.9400   48.5470 C   0  0  0  0  0  0  0  0  0  0  0  0
   37.4840   30.7260   48.1570 C   0  0  0  0  0  0  0  0  0  0  0  0
   37.5700   31.1540   46.8380 C   0  0  0  0  0  0  0  0  0  0  0  0
   36.5670   30.7960   45.9960 N   0  0  0  0  0  0  0  0  0  0  0  0
   35.5150   30.0570   46.3860 C   0  0  0  0  0  0  0  0  0  0  0  0
   35.4150   29.6390   47.6400 N   0  0  0  0  0  0  0  0  0  0  0  0
   38.2450   30.9740   48.8770 H   0  0  0  0  0  0  0  0  0  0  0  0
   34.5200   29.7680   45.3240 C   0  0  0  0  0  0  0  0  0  0  0  0
   35.0750   29.9940   44.0600 F   0  0  0  0  0  0  0  0  0  0  0  0
   34.1800   28.4310   45.3620 F   0  0  0  0  0  0  0  0  0  0  0  0
   33.3410   30.4900   45.4870 F   0  0  0  0  0  0  0  0  0  0  0  0
   38.7000   31.9540   46.3940 C   0  0  0  0  0  0  0  0  0  0  0  0
   39.2920   32.6870   47.2130 O   0  0  0  0  0  0  0  0  0  0  0  0
   39.1710   31.9300   45.0120 C   0  0  0  0  0  0  0  0  0  0  0  0
   40.0070   30.8960   44.6470 C   0  0  0  0  0  0  0  0  0  0  0  0
   40.4590   30.8680   43.3350 C   0  0  0  0  0  0  0  0  0  0  0  0
   40.0930   31.8160   42.4460 N   0  0  0  0  0  0  0  0  0  0  0  0
   39.2670   32.8170   42.8460 C   0  0  0  0  0  0  0  0  0  0  0  0
   39.0350   33.5180   42.0750 H   0  0  0  0  0  0  0  0  0  0  0  0
   38.8110   32.8720   44.1190 N   0  0  0  0  0  0  0  0  0  0  0  0
   36.2680   29.5140   49.8570 O   0  0  0  0  0  0  0  0  0  0  0  0
   35.0670   29.3060   50.5350 C   0  0  0  0  0  0  0  0  0  0  0  0
   35.2260   29.1550   51.9000 F   0  0  0  0  0  0  0  0  0  0  0  0
   34.0800   30.2200   50.2690 F   0  0  0  0  0  0  0  0  0  0  0  0
   34.6050   28.0610   50.0580 F   0  0  0  0  0  0  0  0  0  0  0  0
  1 21  1  0  0  0  0
  2  1  1  0  0  0  0
  2  7  1  0  0  0  0
  3  2  2  0  0  0  0
  4  5  2  0  0  0  0
  4  3  1  0  0  0  0
  5  6  1  0  0  0  0
  6  1  2  0  0  0  0
  8 10  1  0  0  0  0
  8 11  1  0  0  0  0
  8  5  1  0  0  0  0
  9  8  1  0  0  0  0
 12  3  1  0  0  0  0
 12 13  2  0  0  0  0
 14 12  1  0  0  0  0
 15 14  1  0  0  0  0
 16 15  2  0  0  0  0
 17 18  2  0  0  0  0
 17 16  1  0  0  0  0
 18 20  1  0  0  0  0
 19 18  1  0  0  0  0
 20 14  2  0  0  0  0
 21 22  1  0  0  0  0
 22 23  1  0  0  0  0
 24 22  1  0  0  0  0
 25 22  1  0  0  0  0
M  END
>  <minimizedAffinity>
-5.46149111

>  <minimizedRMSD>
3.88874602

$$$$
