
 OpenBabel03252514073D

 41 44  0  0  0  0  0  0  0  0999 V2000
   33.9030   29.8340   47.2870 C   0  0  0  0  0  0  0  0  0  0  0  0
   34.8380   29.6580   48.3290 C   0  0  0  0  0  0  0  0  0  0  0  0
   34.6000   28.5980   49.2010 C   0  0  0  0  0  0  0  0  0  0  0  0
   33.5170   27.8080   49.0160 N   0  0  0  0  0  0  0  0  0  0  0  0
   32.6370   27.9980   48.0090 C   0  0  0  0  0  0  0  0  0  0  0  0
   32.8380   29.0180   47.1450 N   0  0  0  0  0  0  0  0  0  0  0  0
   34.0560   30.6510   46.5880 H   0  0  0  0  0  0  0  0  0  0  0  0
   35.3060   28.4620   49.9910 H   0  0  0  0  0  0  0  0  0  0  0  0
   35.9290   30.5610   48.4010 N   0  0  0  0  0  0  0  0  0  0  0  0
   36.3190   31.1910   49.5280 C   0  0  0  0  0  0  0  0  0  0  0  0
   37.3840   31.9750   49.2430 N   0  0  0  0  0  0  0  0  0  0  0  0
   37.6400   31.8180   47.9380 C   0  0  0  0  0  0  0  0  0  0  0  0
   38.5890   32.3430   47.0660 C   0  0  0  0  0  0  0  0  0  0  0  0
   38.6240   32.0120   45.7730 N   0  0  0  0  0  0  0  0  0  0  0  0
   37.7300   31.1390   45.2420 C   0  0  0  0  0  0  0  0  0  0  0  0
   36.8120   30.6290   46.0770 N   0  0  0  0  0  0  0  0  0  0  0  0
   36.7360   30.9320   47.3840 C   0  0  0  0  0  0  0  0  0  0  0  0
   35.9210   31.1480   50.5260 H   0  0  0  0  0  0  0  0  0  0  0  0
   37.7380   30.8550   44.1990 H   0  0  0  0  0  0  0  0  0  0  0  0
   39.5400   33.2560   47.5670 N   0  0  0  0  0  0  0  0  0  0  0  0
   40.3100   33.1100   48.2310 H   0  0  0  0  0  0  0  0  0  0  0  0
   39.4820   34.2550   47.2290 H   0  0  0  0  0  0  0  0  0  0  0  0
   31.4570   27.1370   47.7970 C   0  0  0  0  0  0  0  0  0  0  0  0
   30.5880   27.1780   49.0770 C   0  0  0  0  0  0  0  0  0  0  0  0
   31.1160   26.6360   49.8850 H   0  0  0  0  0  0  0  0  0  0  0  0
   29.6220   26.7390   48.8320 H   0  0  0  0  0  0  0  0  0  0  0  0
   30.4250   28.2580   49.3140 H   0  0  0  0  0  0  0  0  0  0  0  0
   30.5610   27.6750   46.7090 C   0  0  0  0  0  0  0  0  0  0  0  0
   30.1990   26.8590   46.0360 H   0  0  0  0  0  0  0  0  0  0  0  0
   29.5960   28.1100   47.1090 H   0  0  0  0  0  0  0  0  0  0  0  0
   31.0170   28.5150   46.1390 H   0  0  0  0  0  0  0  0  0  0  0  0
   31.8040   25.7220   47.4770 C   0  0  0  0  0  0  0  0  0  0  0  0
   30.8870   25.1320   47.1700 H   0  0  0  0  0  0  0  0  0  0  0  0
   32.0500   25.2460   48.4860 H   0  0  0  0  0  0  0  0  0  0  0  0
   32.8300   25.4250   46.6030 N   0  0  0  0  0  0  0  0  0  0  0  0
   32.5360   25.6710   45.2400 C   0  0  0  0  0  2  0  0  0  0  0  0
   33.7680   26.2190   44.5580 C   0  0  0  0  0  2  0  0  0  0  0  0
   34.8120   25.2650   44.6270 N   0  0  0  0  0  0  0  0  0  0  0  0
   34.8730   24.6300   43.7890 H   0  0  0  0  0  0  0  0  0  0  0  0
   34.9360   24.4770   45.7950 C   0  0  0  0  0  2  0  0  0  0  0  0
   34.0440   24.8520   46.9540 C   0  0  0  0  0  2  0  0  0  0  0  0
  1  2  1  0  0  0  0
  2  9  1  0  0  0  0
  2  3  2  0  0  0  0
  3  8  1  0  0  0  0
  4  3  1  0  0  0  0
  5  4  2  0  0  0  0
  6  1  2  0  0  0  0
  6  5  1  0  0  0  0
  7  1  1  0  0  0  0
  9 10  1  0  0  0  0
 10 18  1  0  0  0  0
 11 10  2  0  0  0  0
 12 11  1  0  0  0  0
 13 20  1  0  0  0  0
 13 12  2  0  0  0  0
 14 13  1  0  0  0  0
 15 14  2  0  0  0  0
 15 16  1  0  0  0  0
 16 17  2  0  0  0  0
 17 12  1  0  0  0  0
 17  9  1  0  0  0  0
 19 15  1  0  0  0  0
 20 21  1  0  0  0  0
 22 20  1  0  0  0  0
 23  5  1  0  0  0  0
 23 24  1  0  0  0  0
 24 27  1  0  0  0  0
 24 25  1  0  0  0  0
 26 24  1  0  0  0  0
 28 30  1  0  0  0  0
 28 23  1  0  0  0  0
 29 28  1  0  0  0  0
 31 28  1  0  0  0  0
 32 23  1  0  0  0  0
 32 34  1  0  0  0  0
 33 32  1  0  0  0  0
 35 41  1  0  0  0  0
 35 32  1  0  0  0  0
 36 35  1  0  0  0  0
 37 38  1  0  0  0  0
 37 36  1  0  0  0  0
 38 40  1  0  0  0  0
 39 38  1  0  0  0  0
 40 41  1  0  0  0  0
M  END
>  <minimizedAffinity>
-5.17193174

>  <minimizedRMSD>
1.33468056

$$$$
