
 OpenBabel03252512553D

 28 31  0  0  0  0  0  0  0  0999 V2000
   38.0590   32.8530   49.7080 C   0  0  0  0  0  0  0  0  0  0  0  0
   38.8170   33.0810   48.5580 C   0  0  0  0  0  0  0  0  0  0  0  0
   38.6240   32.2520   47.4550 C   0  0  0  0  0  0  0  0  0  0  0  0
   37.6980   31.2360   47.5190 N   0  0  0  0  0  0  0  0  0  0  0  0
   36.9960   31.0710   48.6660 C   0  0  0  0  0  0  0  0  0  0  0  0
   37.1570   31.8540   49.7530 N   0  0  0  0  0  0  0  0  0  0  0  0
   38.3100   33.5620   50.4780 H   0  0  0  0  0  0  0  0  0  0  0  0
   39.5540   33.8560   48.4460 H   0  0  0  0  0  0  0  0  0  0  0  0
   36.0400   30.0200   48.7280 N   0  0  0  0  0  0  0  0  0  0  0  0
   35.3370   29.5630   47.5460 C   0  0  0  0  0  0  0  0  0  0  0  0
   33.8630   29.3780   47.7940 C   0  0  0  0  0  0  0  0  0  0  0  0
   33.5170   28.9610   49.1110 N   0  0  0  0  0  0  0  0  0  0  0  0
   33.4170   27.9490   49.2280 H   0  0  0  0  0  0  0  0  0  0  0  0
   34.2250   29.5980   50.1770 C   0  0  0  0  0  0  0  0  0  0  0  0
   35.7270   29.3580   49.9820 C   0  0  0  0  0  0  0  0  0  0  0  0
   39.3630   32.4200   46.2110 C   0  0  0  0  0  0  0  0  0  0  0  0
   40.2270   33.3860   45.7950 N   0  0  0  0  0  0  0  0  0  0  0  0
   40.6430   33.1140   44.5930 O   0  0  0  0  0  0  0  0  0  0  0  0
   40.0830   32.0120   44.2140 C   0  0  0  0  0  0  0  0  0  0  0  0
   39.2610   31.5270   45.2010 N   0  0  0  0  0  0  0  0  0  0  0  0
   40.2290   31.3080   42.9610 N   0  0  0  0  0  0  0  0  0  0  0  0
   39.7670   31.8330   41.8130 N   0  0  0  0  0  0  0  0  0  0  0  0
   40.0470   30.9540   40.8170 C   0  0  0  0  0  0  0  0  0  0  0  0
   40.6950   29.8740   41.4000 C   0  0  0  0  0  0  0  0  0  0  0  0
   40.8030   30.1170   42.7710 C   0  0  0  0  0  0  0  0  0  0  0  0
   39.7650   31.1670   39.7940 H   0  0  0  0  0  0  0  0  0  0  0  0
   41.0350   29.0180   40.8310 H   0  0  0  0  0  0  0  0  0  0  0  0
   41.2540   29.4720   43.4950 H   0  0  0  0  0  0  0  0  0  0  0  0
  1  6  1  0  0  0  0
  1  7  1  0  0  0  0
  2  1  2  0  0  0  0
  3  4  2  0  0  0  0
  3  2  1  0  0  0  0
  4  5  1  0  0  0  0
  5  9  1  0  0  0  0
  5  6  2  0  0  0  0
  8  2  1  0  0  0  0
  9 15  1  0  0  0  0
 10 11  1  0  0  0  0
 10  9  1  0  0  0  0
 11 12  1  0  0  0  0
 12 13  1  0  0  0  0
 12 14  1  0  0  0  0
 15 14  1  0  0  0  0
 16  3  1  0  0  0  0
 17 16  2  0  0  0  0
 18 17  1  0  0  0  0
 19 18  1  0  0  0  0
 19 20  2  0  0  0  0
 20 16  1  0  0  0  0
 21 19  1  0  0  0  0
 22 21  1  0  0  0  0
 23 24  1  0  0  0  0
 23 22  2  0  0  0  0
 24 25  2  0  0  0  0
 25 21  1  0  0  0  0
 25 28  1  0  0  0  0
 26 23  1  0  0  0  0
 27 24  1  0  0  0  0
M  END
>  <minimizedAffinity>
-6.71415186

>  <minimizedRMSD>
2.41571188

$$$$
