
 OpenBabel03252513593D

 25 26  0  0  1  0  0  0  0  0999 V2000
   35.3490   29.4300   49.0280 C   0  0  2  0  0  0  0  0  0  0  0  0
   34.2370   29.4360   49.9910 C   0  0  0  0  0  0  0  0  0  0  0  0
   34.5800   28.1500   49.3920 C   0  0  1  0  0  0  0  0  0  0  0  0
   35.1990   29.9010   48.0540 H   0  0  0  0  0  0  0  0  0  0  0  0
   34.5360   29.5790   51.0660 H   0  0  0  0  0  0  0  0  0  0  0  0
   33.2430   29.8870   49.7640 H   0  0  0  0  0  0  0  0  0  0  0  0
   35.2610   27.3600   49.7230 H   0  0  0  0  0  0  0  0  0  0  0  0
   36.7690   29.4230   49.5860 C   0  0  0  0  0  0  0  0  0  0  0  0
   36.6710   29.4490   50.6880 H   0  0  0  0  0  0  0  0  0  0  0  0
   37.2880   28.4920   49.3120 H   0  0  0  0  0  0  0  0  0  0  0  0
   37.9300   32.8890   49.4150 C   0  0  0  0  0  0  0  0  0  0  0  0
   38.7000   32.9170   48.2420 C   0  0  0  0  0  0  0  0  0  0  0  0
   38.8030   31.7150   47.5210 C   0  0  0  0  0  0  0  0  0  0  0  0
   38.1580   30.6030   47.9960 N   0  0  0  0  0  0  0  0  0  0  0  0
   37.4320   30.6460   49.1340 C   0  0  0  0  0  0  0  0  0  0  0  0
   37.3260   31.7980   49.8370 N   0  0  0  0  0  0  0  0  0  0  0  0
   37.8250   33.7810   49.9940 H   0  0  0  0  0  0  0  0  0  0  0  0
   39.1740   33.8190   47.9330 H   0  0  0  0  0  0  0  0  0  0  0  0
   39.3870   31.6970   46.6130 H   0  0  0  0  0  0  0  0  0  0  0  0
   33.5890   27.6340   48.3820 C   0  0  0  0  0  0  0  0  0  0  0  0
   34.0260   26.6450   47.6660 O   0  0  0  0  0  0  0  0  0  0  0  0
   32.3030   28.1090   48.1760 O   0  0  0  0  0  0  0  0  0  0  0  0
   31.8540   28.4770   46.9370 C   0  0  0  0  0  0  0  0  0  0  0  0
   32.6660   28.4280   46.2000 H   0  0  0  0  0  0  0  0  0  0  0  0
   30.6330   28.7890   46.8950 O   0  0  0  0  0  0  0  0  0  0  0  0
  1  4  1  6  0  0  0
  1  3  1  0  0  0  0
  1  8  1  0  0  0  0
  1  2  1  0  0  0  0
  2  5  1  0  0  0  0
  3  7  1  1  0  0  0
  3  2  1  0  0  0  0
  6  2  1  0  0  0  0
  8  9  1  0  0  0  0
 10  8  1  0  0  0  0
 11 16  1  0  0  0  0
 11 17  1  0  0  0  0
 12 11  2  0  0  0  0
 13 14  2  0  0  0  0
 13 12  1  0  0  0  0
 14 15  1  0  0  0  0
 15  8  1  0  0  0  0
 15 16  2  0  0  0  0
 18 12  1  0  0  0  0
 19 13  1  0  0  0  0
 20  3  1  0  0  0  0
 21 20  2  0  0  0  0
 22 20  1  0  0  0  0
 23 22  1  0  0  0  0
 24 23  1  0  0  0  0
 25 23  2  0  0  0  0
M  END
>  <minimizedAffinity>
-4.4314971

>  <minimizedRMSD>
0.409694135

$$$$
