
 OpenBabel03252513593D

 25 26  0  0  1  0  0  0  0  0999 V2000
   35.3990   29.4930   49.1370 C   0  0  2  0  0  0  0  0  0  0  0  0
   34.3380   29.4900   50.1550 C   0  0  0  0  0  0  0  0  0  0  0  0
   34.6430   28.2110   49.5220 C   0  0  1  0  0  0  0  0  0  0  0  0
   35.2030   29.9780   48.1790 H   0  0  0  0  0  0  0  0  0  0  0  0
   34.6910   29.6170   51.2160 H   0  0  0  0  0  0  0  0  0  0  0  0
   33.3350   29.9490   49.9860 H   0  0  0  0  0  0  0  0  0  0  0  0
   35.3360   27.4130   49.8070 H   0  0  0  0  0  0  0  0  0  0  0  0
   36.8460   29.4720   49.6220 C   0  0  0  0  0  0  0  0  0  0  0  0
   36.8050   29.4960   50.7280 H   0  0  0  0  0  0  0  0  0  0  0  0
   37.3420   28.5370   49.3200 H   0  0  0  0  0  0  0  0  0  0  0  0
   38.0120   32.9330   49.3900 C   0  0  0  0  0  0  0  0  0  0  0  0
   38.7380   32.9520   48.1890 C   0  0  0  0  0  0  0  0  0  0  0  0
   38.8110   31.7460   47.4710 C   0  0  0  0  0  0  0  0  0  0  0  0
   38.1790   30.6380   47.9760 N   0  0  0  0  0  0  0  0  0  0  0  0
   37.4960   30.6900   49.1400 C   0  0  0  0  0  0  0  0  0  0  0  0
   37.4200   31.8460   49.8400 N   0  0  0  0  0  0  0  0  0  0  0  0
   37.9310   33.8280   49.9680 H   0  0  0  0  0  0  0  0  0  0  0  0
   39.2030   33.8510   47.8590 H   0  0  0  0  0  0  0  0  0  0  0  0
   39.3600   31.7210   46.5420 H   0  0  0  0  0  0  0  0  0  0  0  0
   33.6000   27.7140   48.5570 C   0  0  0  0  0  0  0  0  0  0  0  0
   34.0670   26.9630   47.6090 O   0  0  0  0  0  0  0  0  0  0  0  0
   32.2400   27.9790   48.6090 O   0  0  0  0  0  0  0  0  0  0  0  0
   31.4520   27.9530   47.4900 C   0  0  0  0  0  0  0  0  0  0  0  0
   32.0430   27.6880   46.6050 H   0  0  0  0  0  0  0  0  0  0  0  0
   30.2390   28.2320   47.6990 O   0  0  0  0  0  0  0  0  0  0  0  0
  1  4  1  6  0  0  0
  1  3  1  0  0  0  0
  1  8  1  0  0  0  0
  1  2  1  0  0  0  0
  2  5  1  0  0  0  0
  3  7  1  1  0  0  0
  3  2  1  0  0  0  0
  6  2  1  0  0  0  0
  8  9  1  0  0  0  0
 10  8  1  0  0  0  0
 11 16  1  0  0  0  0
 11 17  1  0  0  0  0
 12 11  2  0  0  0  0
 13 14  2  0  0  0  0
 13 12  1  0  0  0  0
 14 15  1  0  0  0  0
 15  8  1  0  0  0  0
 15 16  2  0  0  0  0
 18 12  1  0  0  0  0
 19 13  1  0  0  0  0
 20 22  1  0  0  0  0
 20  3  1  0  0  0  0
 21 20  2  0  0  0  0
 23 25  2  0  0  0  0
 23 22  1  0  0  0  0
 24 23  1  0  0  0  0
M  END
>  <minimizedAffinity>
-4.48296356

>  <minimizedRMSD>
0.322824419

$$$$
