
 OpenBabel03252512403D

 22 24  0  0  0  0  0  0  0  0999 V2000
   38.3580   31.1210   47.8050 C   0  0  0  0  0  0  0  0  0  0  0  0
   38.8810   32.4500   47.8970 C   0  0  0  0  0  0  0  0  0  0  0  0
   39.6640   32.7090   46.2400 S   0  0  0  0  0  0  0  0  0  0  0  0
   39.1390   30.9750   45.7310 C   0  0  0  0  0  0  0  0  0  0  0  0
   38.6050   30.5820   46.6380 N   0  0  0  0  0  0  0  0  0  0  0  0
   38.8010   33.1070   48.7740 H   0  0  0  0  0  0  0  0  0  0  0  0
   39.4260   30.3970   44.4280 N   0  0  0  0  0  0  0  0  0  0  0  0
   40.6020   30.7990   43.7260 C   0  0  0  0  0  0  0  0  0  0  0  0
   40.6100   30.1180   42.3770 C   0  0  0  0  0  0  0  0  0  0  0  0
   40.3660   28.7170   42.4470 N   0  0  0  0  0  0  0  0  0  0  0  0
   41.2010   28.1180   42.4230 H   0  0  0  0  0  0  0  0  0  0  0  0
   39.3290   28.2900   43.3230 C   0  0  0  0  0  0  0  0  0  0  0  0
   38.5000   29.4260   43.8820 C   0  0  0  0  0  0  0  0  0  0  0  0
   38.0810   30.8540   50.2440 C   0  0  0  0  0  0  0  0  0  0  0  0
   37.6480   30.5330   48.9430 C   0  0  0  0  0  0  0  0  0  0  0  0
   36.5710   29.6760   48.8260 C   0  0  0  0  0  0  0  0  0  0  0  0
   35.9950   29.1950   49.9640 N   0  0  0  0  0  0  0  0  0  0  0  0
   36.4310   29.5190   51.1910 C   0  0  0  0  0  0  0  0  0  0  0  0
   37.4690   30.3450   51.3220 N   0  0  0  0  0  0  0  0  0  0  0  0
   38.9250   31.5260   50.3550 H   0  0  0  0  0  0  0  0  0  0  0  0
   36.2310   29.4240   47.8310 H   0  0  0  0  0  0  0  0  0  0  0  0
   35.9560   29.1240   52.0820 H   0  0  0  0  0  0  0  0  0  0  0  0
  1  2  2  0  0  0  0
  1 15  1  0  0  0  0
  2  6  1  0  0  0  0
  3  2  1  0  0  0  0
  4  3  1  0  0  0  0
  4  5  2  0  0  0  0
  5  1  1  0  0  0  0
  7  4  1  0  0  0  0
  8  7  1  0  0  0  0
  9 10  1  0  0  0  0
  9  8  1  0  0  0  0
 10 12  1  0  0  0  0
 11 10  1  0  0  0  0
 12 13  1  0  0  0  0
 13  7  1  0  0  0  0
 14 20  1  0  0  0  0
 14 19  1  0  0  0  0
 15 14  2  0  0  0  0
 16 15  1  0  0  0  0
 16 17  2  0  0  0  0
 17 18  1  0  0  0  0
 18 19  2  0  0  0  0
 18 22  1  0  0  0  0
 21 16  1  0  0  0  0
M  END
>  <minimizedAffinity>
-5.72370958

>  <minimizedRMSD>
0.096758239

$$$$
