
 OpenBabel03252513593D

 25 26  0  0  1  0  0  0  0  0999 V2000
   35.4440   29.5140   49.1830 C   0  0  2  0  0  0  0  0  0  0  0  0
   34.3950   29.5010   50.2130 C   0  0  0  0  0  0  0  0  0  0  0  0
   34.6790   28.2320   49.5500 C   0  0  1  0  0  0  0  0  0  0  0  0
   35.2420   30.0200   48.2370 H   0  0  0  0  0  0  0  0  0  0  0  0
   34.7620   29.6030   51.2720 H   0  0  0  0  0  0  0  0  0  0  0  0
   33.3960   29.9740   50.0650 H   0  0  0  0  0  0  0  0  0  0  0  0
   35.3670   27.4220   49.8120 H   0  0  0  0  0  0  0  0  0  0  0  0
   36.8960   29.4680   49.6490 C   0  0  0  0  0  0  0  0  0  0  0  0
   36.8700   29.5240   50.7550 H   0  0  0  0  0  0  0  0  0  0  0  0
   37.3640   28.5130   49.3680 H   0  0  0  0  0  0  0  0  0  0  0  0
   38.2310   32.8620   49.3490 C   0  0  0  0  0  0  0  0  0  0  0  0
   38.8560   32.8570   48.0920 C   0  0  0  0  0  0  0  0  0  0  0  0
   38.8010   31.6580   47.3610 C   0  0  0  0  0  0  0  0  0  0  0  0
   38.1520   30.5800   47.9080 N   0  0  0  0  0  0  0  0  0  0  0  0
   37.5720   30.6550   49.1250 C   0  0  0  0  0  0  0  0  0  0  0  0
   37.6180   31.8040   49.8380 N   0  0  0  0  0  0  0  0  0  0  0  0
   38.2480   33.7530   49.9390 H   0  0  0  0  0  0  0  0  0  0  0  0
   39.3410   33.7330   47.7320 H   0  0  0  0  0  0  0  0  0  0  0  0
   39.2690   31.6150   46.3900 H   0  0  0  0  0  0  0  0  0  0  0  0
   33.6200   27.7650   48.5880 C   0  0  0  0  0  0  0  0  0  0  0  0
   34.0740   27.0640   47.5970 O   0  0  0  0  0  0  0  0  0  0  0  0
   32.2590   28.0110   48.6830 O   0  0  0  0  0  0  0  0  0  0  0  0
   31.3730   27.5690   47.7380 C   0  0  0  0  0  0  0  0  0  0  0  0
   31.3790   26.4730   47.6840 H   0  0  0  0  0  0  0  0  0  0  0  0
   30.7480   28.4860   47.1370 O   0  0  0  0  0  0  0  0  0  0  0  0
  1  4  1  6  0  0  0
  1  3  1  0  0  0  0
  1  8  1  0  0  0  0
  1  2  1  0  0  0  0
  2  5  1  0  0  0  0
  3  7  1  1  0  0  0
  3  2  1  0  0  0  0
  6  2  1  0  0  0  0
  8  9  1  0  0  0  0
 10  8  1  0  0  0  0
 11 16  1  0  0  0  0
 11 17  1  0  0  0  0
 12 11  2  0  0  0  0
 13 14  2  0  0  0  0
 13 12  1  0  0  0  0
 14 15  1  0  0  0  0
 15  8  1  0  0  0  0
 15 16  2  0  0  0  0
 18 12  1  0  0  0  0
 19 13  1  0  0  0  0
 20 22  1  0  0  0  0
 20  3  1  0  0  0  0
 21 20  2  0  0  0  0
 23 22  1  0  0  0  0
 24 23  1  0  0  0  0
 25 23  2  0  0  0  0
M  END
>  <minimizedAffinity>
-4.47645473

>  <minimizedRMSD>
0.273343563

$$$$
