
 OpenBabel03252514073D

 41 44  0  0  0  0  0  0  0  0999 V2000
   34.1840   30.1030   47.5570 C   0  0  0  0  0  0  0  0  0  0  0  0
   35.1630   29.8780   48.5480 C   0  0  0  0  0  0  0  0  0  0  0  0
   35.0170   28.7210   49.3100 C   0  0  0  0  0  0  0  0  0  0  0  0
   33.9770   27.8890   49.0730 N   0  0  0  0  0  0  0  0  0  0  0  0
   33.0520   28.1280   48.1160 C   0  0  0  0  0  0  0  0  0  0  0  0
   33.1650   29.2420   47.3590 N   0  0  0  0  0  0  0  0  0  0  0  0
   34.2660   30.9960   46.9430 H   0  0  0  0  0  0  0  0  0  0  0  0
   35.7560   28.5480   50.0610 H   0  0  0  0  0  0  0  0  0  0  0  0
   36.2010   30.8340   48.6840 N   0  0  0  0  0  0  0  0  0  0  0  0
   36.4850   31.4870   49.8300 C   0  0  0  0  0  0  0  0  0  0  0  0
   37.5270   32.3220   49.6090 N   0  0  0  0  0  0  0  0  0  0  0  0
   37.8750   32.1730   48.3250 C   0  0  0  0  0  0  0  0  0  0  0  0
   38.8520   32.7410   47.5120 C   0  0  0  0  0  0  0  0  0  0  0  0
   38.9870   32.4070   46.2270 N   0  0  0  0  0  0  0  0  0  0  0  0
   38.1740   31.4890   45.6450 C   0  0  0  0  0  0  0  0  0  0  0  0
   37.2290   30.9370   46.4230 N   0  0  0  0  0  0  0  0  0  0  0  0
   37.0540   31.2410   47.7190 C   0  0  0  0  0  0  0  0  0  0  0  0
   36.0260   31.4280   50.8000 H   0  0  0  0  0  0  0  0  0  0  0  0
   38.2640   31.2020   44.6060 H   0  0  0  0  0  0  0  0  0  0  0  0
   39.7230   33.7020   48.0670 N   0  0  0  0  0  0  0  0  0  0  0  0
   40.4540   33.5960   48.7810 H   0  0  0  0  0  0  0  0  0  0  0  0
   39.6380   34.6950   47.7200 H   0  0  0  0  0  0  0  0  0  0  0  0
   31.9190   27.2220   47.8470 C   0  0  0  0  0  0  0  0  0  0  0  0
   30.8740   27.4010   48.9760 C   0  0  0  0  0  0  0  0  0  0  0  0
   31.2840   26.9740   49.9120 H   0  0  0  0  0  0  0  0  0  0  0  0
   29.9560   26.9150   48.6530 H   0  0  0  0  0  0  0  0  0  0  0  0
   30.6760   28.4990   49.0520 H   0  0  0  0  0  0  0  0  0  0  0  0
   31.1860   27.6040   46.5850 C   0  0  0  0  0  0  0  0  0  0  0  0
   30.9280   26.7050   45.9740 H   0  0  0  0  0  0  0  0  0  0  0  0
   30.1720   28.0650   46.7870 H   0  0  0  0  0  0  0  0  0  0  0  0
   31.7160   28.3780   45.9860 H   0  0  0  0  0  0  0  0  0  0  0  0
   32.3130   25.7860   47.7580 C   0  0  0  0  0  0  0  0  0  0  0  0
   31.5050   25.1110   48.1740 H   0  0  0  0  0  0  0  0  0  0  0  0
   33.1360   25.6610   48.5390 H   0  0  0  0  0  0  0  0  0  0  0  0
   32.7650   25.2500   46.5700 N   0  0  0  0  0  0  0  0  0  0  0  0
   34.1130   25.5570   46.2580 C   0  0  0  0  0  2  0  0  0  0  0  0
   34.7620   24.3490   45.6210 C   0  0  0  0  0  2  0  0  0  0  0  0
   34.0840   24.0250   44.4210 N   0  0  0  0  0  0  0  0  0  0  0  0
   34.5050   24.4580   43.5580 H   0  0  0  0  0  0  0  0  0  0  0  0
   32.6810   24.1900   44.3650 C   0  0  0  0  0  2  0  0  0  0  0  0
   31.9950   24.5310   45.6670 C   0  0  0  0  0  2  0  0  0  0  0  0
  1  2  1  0  0  0  0
  2  9  1  0  0  0  0
  2  3  2  0  0  0  0
  3  8  1  0  0  0  0
  4  3  1  0  0  0  0
  5  4  2  0  0  0  0
  6  1  2  0  0  0  0
  6  5  1  0  0  0  0
  7  1  1  0  0  0  0
  9 10  1  0  0  0  0
 10 18  1  0  0  0  0
 11 10  2  0  0  0  0
 12 11  1  0  0  0  0
 13 20  1  0  0  0  0
 13 12  2  0  0  0  0
 14 13  1  0  0  0  0
 15 14  2  0  0  0  0
 15 16  1  0  0  0  0
 16 17  2  0  0  0  0
 17 12  1  0  0  0  0
 17  9  1  0  0  0  0
 19 15  1  0  0  0  0
 20 21  1  0  0  0  0
 22 20  1  0  0  0  0
 23  5  1  0  0  0  0
 23 24  1  0  0  0  0
 24 27  1  0  0  0  0
 24 25  1  0  0  0  0
 26 24  1  0  0  0  0
 28 30  1  0  0  0  0
 28 23  1  0  0  0  0
 29 28  1  0  0  0  0
 31 28  1  0  0  0  0
 32 23  1  0  0  0  0
 32 33  1  0  0  0  0
 32 34  1  0  0  0  0
 35 32  1  0  0  0  0
 36 35  1  0  0  0  0
 37 36  1  0  0  0  0
 38 37  1  0  0  0  0
 39 38  1  0  0  0  0
 40 38  1  0  0  0  0
 40 41  1  0  0  0  0
 41 35  1  0  0  0  0
M  END
>  <minimizedAffinity>
-5.27254677

>  <minimizedRMSD>
1.29261613

$$$$
