
 OpenBabel03252514073D

 41 44  0  0  0  0  0  0  0  0999 V2000
   34.0180   29.9830   47.4100 C   0  0  0  0  0  0  0  0  0  0  0  0
   34.9470   29.7400   48.4450 C   0  0  0  0  0  0  0  0  0  0  0  0
   34.7640   28.5690   49.1760 C   0  0  0  0  0  0  0  0  0  0  0  0
   33.7380   27.7410   48.8720 N   0  0  0  0  0  0  0  0  0  0  0  0
   32.8630   27.9980   47.8750 C   0  0  0  0  0  0  0  0  0  0  0  0
   33.0110   29.1260   47.1450 N   0  0  0  0  0  0  0  0  0  0  0  0
   34.1300   30.8880   46.8180 H   0  0  0  0  0  0  0  0  0  0  0  0
   35.4650   28.3820   49.9600 H   0  0  0  0  0  0  0  0  0  0  0  0
   35.9750   30.6940   48.6510 N   0  0  0  0  0  0  0  0  0  0  0  0
   36.2090   31.3150   49.8250 C   0  0  0  0  0  0  0  0  0  0  0  0
   37.2570   32.1580   49.6710 N   0  0  0  0  0  0  0  0  0  0  0  0
   37.6590   32.0450   48.3990 C   0  0  0  0  0  0  0  0  0  0  0  0
   38.6670   32.6370   47.6440 C   0  0  0  0  0  0  0  0  0  0  0  0
   38.8570   32.3390   46.3560 N   0  0  0  0  0  0  0  0  0  0  0  0
   38.0710   31.4360   45.7160 C   0  0  0  0  0  0  0  0  0  0  0  0
   37.0970   30.8610   46.4380 N   0  0  0  0  0  0  0  0  0  0  0  0
   36.8670   31.1290   47.7340 C   0  0  0  0  0  0  0  0  0  0  0  0
   35.7100   31.2290   50.7730 H   0  0  0  0  0  0  0  0  0  0  0  0
   38.2060   31.1780   44.6740 H   0  0  0  0  0  0  0  0  0  0  0  0
   39.5110   33.5830   48.2610 N   0  0  0  0  0  0  0  0  0  0  0  0
   40.2120   33.4590   49.0020 H   0  0  0  0  0  0  0  0  0  0  0  0
   39.4380   34.5860   47.9380 H   0  0  0  0  0  0  0  0  0  0  0  0
   31.7450   27.0970   47.5330 C   0  0  0  0  0  0  0  0  0  0  0  0
   30.8550   26.9270   48.7880 C   0  0  0  0  0  0  0  0  0  0  0  0
   31.4050   26.3240   49.5370 H   0  0  0  0  0  0  0  0  0  0  0  0
   29.9240   26.4620   48.4690 H   0  0  0  0  0  0  0  0  0  0  0  0
   30.6190   27.9580   49.1500 H   0  0  0  0  0  0  0  0  0  0  0  0
   30.8320   27.7070   46.4970 C   0  0  0  0  0  0  0  0  0  0  0  0
   30.5350   26.9590   45.7220 H   0  0  0  0  0  0  0  0  0  0  0  0
   29.8350   28.0300   46.9250 H   0  0  0  0  0  0  0  0  0  0  0  0
   31.2410   28.6380   46.0450 H   0  0  0  0  0  0  0  0  0  0  0  0
   32.1870   25.7560   47.0520 C   0  0  0  0  0  0  0  0  0  0  0  0
   31.3140   25.1480   46.6670 H   0  0  0  0  0  0  0  0  0  0  0  0
   32.4610   25.1820   48.0000 H   0  0  0  0  0  0  0  0  0  0  0  0
   33.2340   25.6350   46.1610 N   0  0  0  0  0  0  0  0  0  0  0  0
   34.3540   24.9240   46.6580 C   0  0  0  0  0  2  0  0  0  0  0  0
   34.9350   24.0760   45.5500 C   0  0  0  0  0  2  0  0  0  0  0  0
   35.3660   24.9100   44.4910 N   0  0  0  0  0  0  0  0  0  0  0  0
   36.3820   25.1830   44.5420 H   0  0  0  0  0  0  0  0  0  0  0  0
   34.6060   26.0630   44.1800 C   0  0  0  0  0  2  0  0  0  0  0  0
   33.2860   26.2080   44.8970 C   0  0  0  0  0  2  0  0  0  0  0  0
  1  2  1  0  0  0  0
  2  9  1  0  0  0  0
  2  3  2  0  0  0  0
  3  8  1  0  0  0  0
  4  3  1  0  0  0  0
  5  4  2  0  0  0  0
  6  1  2  0  0  0  0
  6  5  1  0  0  0  0
  7  1  1  0  0  0  0
  9 10  1  0  0  0  0
 10 18  1  0  0  0  0
 11 10  2  0  0  0  0
 12 11  1  0  0  0  0
 13 20  1  0  0  0  0
 13 12  2  0  0  0  0
 14 13  1  0  0  0  0
 15 14  2  0  0  0  0
 15 16  1  0  0  0  0
 16 17  2  0  0  0  0
 17 12  1  0  0  0  0
 17  9  1  0  0  0  0
 19 15  1  0  0  0  0
 20 21  1  0  0  0  0
 22 20  1  0  0  0  0
 23  5  1  0  0  0  0
 23 24  1  0  0  0  0
 24 27  1  0  0  0  0
 24 25  1  0  0  0  0
 26 24  1  0  0  0  0
 28 30  1  0  0  0  0
 28 23  1  0  0  0  0
 29 28  1  0  0  0  0
 31 28  1  0  0  0  0
 32 23  1  0  0  0  0
 32 34  1  0  0  0  0
 33 32  1  0  0  0  0
 35 36  1  0  0  0  0
 35 32  1  0  0  0  0
 37 36  1  0  0  0  0
 38 39  1  0  0  0  0
 38 37  1  0  0  0  0
 40 38  1  0  0  0  0
 40 41  1  0  0  0  0
 41 35  1  0  0  0  0
M  END
>  <minimizedAffinity>
-5.19909573

>  <minimizedRMSD>
1.03373277

$$$$
