
 OpenBabel03252513553D

 26 28  0  0  1  0  0  0  0  0999 V2000
   35.3680   29.5590   49.2320 C   0  0  2  0  0  0  0  0  0  0  0  0
   34.2850   29.4150   50.2530 C   0  0  0  0  0  0  0  0  0  0  0  0
   34.5280   28.3050   49.3140 C   0  0  1  0  0  0  0  0  0  0  0  0
   35.1870   30.1740   48.3110 H   0  0  0  0  0  0  0  0  0  0  0  0
   33.4510   30.1270   50.1840 H   0  0  0  0  0  0  0  0  0  0  0  0
   34.6300   29.3020   51.3170 H   0  0  0  0  0  0  0  0  0  0  0  0
   35.0080   27.3940   49.7660 H   0  0  0  0  0  0  0  0  0  0  0  0
   33.5360   28.0390   48.3330 N   0  0  0  0  0  0  0  0  0  0  0  0
   32.2120   27.8690   48.8590 C   0  0  0  0  0  0  0  0  0  0  0  0
   31.2570   27.4750   47.7850 C   0  0  0  0  0  0  0  0  0  0  0  0
   31.3350   28.3140   46.6090 N   0  0  0  0  0  0  0  0  0  0  0  0
   30.8610   27.7970   45.8240 H   0  0  0  0  0  0  0  0  0  0  0  0
   32.6650   28.5930   46.1900 C   0  0  0  0  0  0  0  0  0  0  0  0
   33.4960   29.1110   47.3680 C   0  0  0  0  0  0  0  0  0  0  0  0
   36.8070   29.3860   49.6230 C   0  0  0  0  0  0  0  0  0  0  0  0
   37.2360   28.4510   49.2280 H   0  0  0  0  0  0  0  0  0  0  0  0
   36.8450   29.3480   50.7330 H   0  0  0  0  0  0  0  0  0  0  0  0
   38.3910   32.7040   49.3860 C   0  0  0  0  0  0  0  0  0  0  0  0
   38.9150   32.7000   48.0930 C   0  0  0  0  0  0  0  0  0  0  0  0
   38.7330   31.5710   47.2960 C   0  0  0  0  0  0  0  0  0  0  0  0
   38.0430   30.5290   47.8450 N   0  0  0  0  0  0  0  0  0  0  0  0
   37.5420   30.5580   49.1050 C   0  0  0  0  0  0  0  0  0  0  0  0
   37.7220   31.6480   49.8680 N   0  0  0  0  0  0  0  0  0  0  0  0
   38.5880   33.6220   49.9130 H   0  0  0  0  0  0  0  0  0  0  0  0
   39.4600   33.5320   47.6710 H   0  0  0  0  0  0  0  0  0  0  0  0
   39.1200   31.5240   46.2940 H   0  0  0  0  0  0  0  0  0  0  0  0
  1  4  1  6  0  0  0
  1  3  1  0  0  0  0
  1 15  1  0  0  0  0
  1  2  1  0  0  0  0
  2  6  1  0  0  0  0
  3  7  1  1  0  0  0
  3  2  1  0  0  0  0
  5  2  1  0  0  0  0
  8  9  1  0  0  0  0
  8  3  1  0  0  0  0
 10  9  1  0  0  0  0
 11 10  1  0  0  0  0
 12 11  1  0  0  0  0
 13 11  1  0  0  0  0
 13 14  1  0  0  0  0
 14  8  1  0  0  0  0
 15 17  1  0  0  0  0
 16 15  1  0  0  0  0
 18 23  1  0  0  0  0
 18 24  1  0  0  0  0
 19 18  2  0  0  0  0
 20 21  2  0  0  0  0
 20 19  1  0  0  0  0
 21 22  1  0  0  0  0
 22 15  1  0  0  0  0
 22 23  2  0  0  0  0
 25 19  1  0  0  0  0
 26 20  1  0  0  0  0
M  END
>  <minimizedAffinity>
-4.787395

>  <minimizedRMSD>
0.402730137

$$$$
