
 OpenBabel03252513323D

 19 20  0  0  0  0  0  0  0  0999 V2000
   36.6790   29.8690   49.6240 C   0  0  0  0  0  0  0  0  0  0  0  0
   37.7710   30.4400   48.9650 C   0  0  0  0  0  0  0  0  0  0  0  0
   37.6140   30.7900   47.6300 C   0  0  0  0  0  0  0  0  0  0  0  0
   36.4230   30.5620   47.0360 N   0  0  0  0  0  0  0  0  0  0  0  0
   35.3750   29.9990   47.7140 C   0  0  0  0  0  0  0  0  0  0  0  0
   35.5080   29.6590   48.9940 N   0  0  0  0  0  0  0  0  0  0  0  0
   38.7000   30.5990   49.4900 H   0  0  0  0  0  0  0  0  0  0  0  0
   34.4540   29.8500   47.1670 H   0  0  0  0  0  0  0  0  0  0  0  0
   38.6800   31.3760   46.8960 N   0  0  0  0  0  0  0  0  0  0  0  0
   39.2710   32.6340   47.3060 C   0  0  0  0  0  0  0  0  0  0  0  0
   39.9910   33.3180   46.1760 C   0  0  0  0  0  0  0  0  0  0  0  0
   40.7460   32.4640   45.3230 N   0  0  0  0  0  0  0  0  0  0  0  0
   40.3680   32.6050   44.3380 H   0  0  0  0  0  0  0  0  0  0  0  0
   40.6550   31.0610   45.5960 C   0  0  0  0  0  0  0  0  0  0  0  0
   39.1900   30.7060   45.7150 C   0  0  0  0  0  0  0  0  0  0  0  0
   36.8320   29.4840   51.0720 C   0  0  0  0  0  0  0  0  0  0  0  0
   35.5960   29.1430   51.6010 F   0  0  0  0  0  0  0  0  0  0  0  0
   37.7700   28.5150   51.1720 F   0  0  0  0  0  0  0  0  0  0  0  0
   37.2560   30.6320   51.7490 F   0  0  0  0  0  0  0  0  0  0  0  0
  1 16  1  0  0  0  0
  2  7  1  0  0  0  0
  2  1  2  0  0  0  0
  3  2  1  0  0  0  0
  4  3  2  0  0  0  0
  4  5  1  0  0  0  0
  5  6  2  0  0  0  0
  6  1  1  0  0  0  0
  8  5  1  0  0  0  0
  9 10  1  0  0  0  0
  9  3  1  0  0  0  0
 11 10  1  0  0  0  0
 12 14  1  0  0  0  0
 12 11  1  0  0  0  0
 13 12  1  0  0  0  0
 14 15  1  0  0  0  0
 15  9  1  0  0  0  0
 16 18  1  0  0  0  0
 16 17  1  0  0  0  0
 16 19  1  0  0  0  0
M  END
>  <minimizedAffinity>
-6.03455544

>  <minimizedRMSD>
2.46799922

$$$$
