
 OpenBabel03252512503D

 21 23  0  0  0  0  0  0  0  0999 V2000
   37.9990   31.8320   48.9470 C   0  0  0  0  0  0  0  0  0  0  0  0
   38.6780   32.9680   49.2090 N   0  0  0  0  0  0  0  0  0  0  0  0
   39.2660   33.4160   48.1530 O   0  0  0  0  0  0  0  0  0  0  0  0
   38.9980   32.6010   47.1750 C   0  0  0  0  0  0  0  0  0  0  0  0
   38.2020   31.5830   47.6170 N   0  0  0  0  0  0  0  0  0  0  0  0
   39.3940   32.6290   45.8090 N   0  0  0  0  0  0  0  0  0  0  0  0
   38.5380   32.7290   44.6390 C   0  0  0  0  0  0  0  0  0  0  0  0
   39.2010   32.1450   43.4260 C   0  0  0  0  0  0  0  0  0  0  0  0
   39.9810   30.9660   43.6970 N   0  0  0  0  0  0  0  0  0  0  0  0
   40.4910   30.7360   42.8160 H   0  0  0  0  0  0  0  0  0  0  0  0
   40.9750   31.1970   44.7270 C   0  0  0  0  0  0  0  0  0  0  0  0
   40.7960   32.5530   45.3710 C   0  0  0  0  0  0  0  0  0  0  0  0
   36.7860   29.5740   51.6830 C   0  0  0  0  0  0  0  0  0  0  0  0
   37.6480   30.4180   50.9640 C   0  0  0  0  0  0  0  0  0  0  0  0
   37.1860   30.9440   49.7720 C   0  0  0  0  0  0  0  0  0  0  0  0
   35.9350   30.6270   49.3500 N   0  0  0  0  0  0  0  0  0  0  0  0
   35.1320   29.8110   50.0660 C   0  0  0  0  0  0  0  0  0  0  0  0
   35.5500   29.2830   51.2270 N   0  0  0  0  0  0  0  0  0  0  0  0
   37.1190   29.1440   52.6210 H   0  0  0  0  0  0  0  0  0  0  0  0
   38.6310   30.6620   51.3030 H   0  0  0  0  0  0  0  0  0  0  0  0
   34.1630   29.6370   49.6190 H   0  0  0  0  0  0  0  0  0  0  0  0
  1  2  2  0  0  0  0
  1 15  1  0  0  0  0
  3  2  1  0  0  0  0
  4  5  2  0  0  0  0
  4  3  1  0  0  0  0
  5  1  1  0  0  0  0
  6  4  1  0  0  0  0
  7  6  1  0  0  0  0
  8  9  1  0  0  0  0
  8  7  1  0  0  0  0
  9 11  1  0  0  0  0
 10  9  1  0  0  0  0
 11 12  1  0  0  0  0
 12  6  1  0  0  0  0
 13 19  1  0  0  0  0
 14 20  1  0  0  0  0
 14 13  2  0  0  0  0
 15 14  1  0  0  0  0
 16 15  2  0  0  0  0
 16 17  1  0  0  0  0
 17 18  2  0  0  0  0
 18 13  1  0  0  0  0
 21 17  1  0  0  0  0
M  END
>  <minimizedAffinity>
-5.8498354

>  <minimizedRMSD>
1.38428009

$$$$
