
 OpenBabel03252511523D

 36 39  0  0  1  0  0  0  0  0999 V2000
   37.0500   30.7550   47.7250 N   0  0  0  0  0  0  0  0  0  0  0  0
   38.1660   31.4480   47.4840 C   0  0  0  0  0  0  0  0  0  0  0  0
   38.2600   31.7370   46.1860 N   0  0  0  0  0  0  0  0  0  0  0  0
   37.2010   31.2340   45.5560 C   0  0  0  0  0  0  0  0  0  0  0  0
   36.7980   31.1980   44.2610 C   0  0  0  0  0  0  0  0  0  0  0  0
   35.6430   30.5650   43.8590 N   0  0  0  0  0  0  0  0  0  0  0  0
   34.9210   29.9750   44.8300 C   0  0  0  0  0  0  0  0  0  0  0  0
   35.3320   30.0190   46.0990 N   0  0  0  0  0  0  0  0  0  0  0  0
   36.4400   30.6160   46.5330 C   0  0  0  0  0  0  0  0  0  0  0  0
   38.8620   31.7100   48.2800 H   0  0  0  0  0  0  0  0  0  0  0  0
   33.9940   29.4550   44.5960 H   0  0  0  0  0  0  0  0  0  0  0  0
   35.2590   30.1250   49.2460 C   0  0  0  0  0  0  0  0  0  0  0  0
   36.6050   30.2540   48.9680 C   0  0  0  0  0  0  0  0  0  0  0  0
   37.5370   29.8720   49.9380 C   0  0  0  0  0  0  0  0  0  0  0  0
   37.0380   29.3850   51.1250 N   0  0  0  0  0  0  0  0  0  0  0  0
   35.7270   29.2740   51.3590 C   0  0  0  0  0  0  0  0  0  0  0  0
   34.8280   29.6390   50.4350 N   0  0  0  0  0  0  0  0  0  0  0  0
   34.5220   30.4150   48.5110 H   0  0  0  0  0  0  0  0  0  0  0  0
   38.6040   29.9460   49.7860 H   0  0  0  0  0  0  0  0  0  0  0  0
   35.3160   28.8940   52.2840 H   0  0  0  0  0  0  0  0  0  0  0  0
   37.5000   31.9170   43.1780 C   0  0  2  0  0  0  0  0  0  0  0  0
   38.3070   32.5310   43.6850 H   0  0  0  0  0  0  0  0  0  0  0  0
   36.6520   32.7230   42.2930 C   0  0  0  0  0  0  0  0  0  0  0  0
   35.8000   32.0740   41.9540 H   0  0  0  0  0  0  0  0  0  0  0  0
   37.1900   32.9820   41.3570 H   0  0  0  0  0  0  0  0  0  0  0  0
   36.2370   33.6340   42.7860 H   0  0  0  0  0  0  0  0  0  0  0  0
   38.3370   30.9020   42.3530 C   0  0  0  0  0  0  0  0  0  0  0  0
   39.1250   31.5080   41.8660 H   0  0  0  0  0  0  0  0  0  0  0  0
   37.6040   30.5590   41.5760 H   0  0  0  0  0  0  0  0  0  0  0  0
   38.7680   29.7540   43.0630 N   0  0  0  0  0  0  0  0  0  0  0  0
   38.9410   28.7000   42.0370 C   0  0  0  0  0  0  0  0  0  0  0  0
   40.1460   27.8610   42.2630 C   0  0  0  0  0  0  0  0  0  0  0  0
   41.3720   28.6340   42.0330 N   0  0  0  0  0  0  0  0  0  0  0  0
   42.1550   28.1680   42.5510 H   0  0  0  0  0  0  0  0  0  0  0  0
   41.1720   29.9890   42.5210 C   0  0  0  0  0  0  0  0  0  0  0  0
   40.1350   29.9470   43.5940 C   0  0  0  0  0  0  0  0  0  0  0  0
  1 13  1  0  0  0  0
  2  1  1  0  0  0  0
  2 10  1  0  0  0  0
  3  2  2  0  0  0  0
  4  3  1  0  0  0  0
  4  9  1  0  0  0  0
  5  4  2  0  0  0  0
  6  5  1  0  0  0  0
  6  7  2  0  0  0  0
  7  8  1  0  0  0  0
  8  9  2  0  0  0  0
  9  1  1  0  0  0  0
 11  7  1  0  0  0  0
 12 17  1  0  0  0  0
 13 12  2  0  0  0  0
 13 14  1  0  0  0  0
 14 15  2  0  0  0  0
 15 16  1  0  0  0  0
 16 20  1  0  0  0  0
 17 16  2  0  0  0  0
 18 12  1  0  0  0  0
 19 14  1  0  0  0  0
 21 22  1  1  0  0  0
 21  5  1  0  0  0  0
 23 26  1  0  0  0  0
 23 21  1  0  0  0  0
 24 23  1  0  0  0  0
 25 23  1  0  0  0  0
 27 30  1  0  0  0  0
 27 21  1  0  0  0  0
 28 27  1  0  0  0  0
 29 27  1  0  0  0  0
 30 36  1  0  0  0  0
 31 32  1  0  0  0  0
 31 30  1  0  0  0  0
 33 32  1  0  0  0  0
 33 35  1  0  0  0  0
 33 34  1  0  0  0  0
 35 36  1  0  0  0  0
M  END
>  <minimizedAffinity>
-4.92121601

>  <minimizedRMSD>
3.9110508

$$$$
