
 OpenBabel03252514073D

 41 44  0  0  0  0  0  0  0  0999 V2000
   34.1970   30.0950   47.5630 C   0  0  0  0  0  0  0  0  0  0  0  0
   35.1870   29.8580   48.5400 C   0  0  0  0  0  0  0  0  0  0  0  0
   35.0670   28.6770   49.2670 C   0  0  0  0  0  0  0  0  0  0  0  0
   34.0400   27.8340   49.0130 N   0  0  0  0  0  0  0  0  0  0  0  0
   33.1040   28.0850   48.0710 C   0  0  0  0  0  0  0  0  0  0  0  0
   33.1910   29.2230   47.3470 N   0  0  0  0  0  0  0  0  0  0  0  0
   34.2580   31.0080   46.9750 H   0  0  0  0  0  0  0  0  0  0  0  0
   35.8160   28.4940   50.0070 H   0  0  0  0  0  0  0  0  0  0  0  0
   36.2090   30.8290   48.6970 N   0  0  0  0  0  0  0  0  0  0  0  0
   36.4650   31.4810   49.8490 C   0  0  0  0  0  0  0  0  0  0  0  0
   37.4990   32.3310   49.6480 N   0  0  0  0  0  0  0  0  0  0  0  0
   37.8700   32.1920   48.3700 C   0  0  0  0  0  0  0  0  0  0  0  0
   38.8520   32.7770   47.5760 C   0  0  0  0  0  0  0  0  0  0  0  0
   39.0140   32.4490   46.2910 N   0  0  0  0  0  0  0  0  0  0  0  0
   38.2230   31.5220   45.6930 C   0  0  0  0  0  0  0  0  0  0  0  0
   37.2730   30.9540   46.4530 N   0  0  0  0  0  0  0  0  0  0  0  0
   37.0730   31.2510   47.7470 C   0  0  0  0  0  0  0  0  0  0  0  0
   35.9910   31.4120   50.8110 H   0  0  0  0  0  0  0  0  0  0  0  0
   38.3340   31.2410   44.6550 H   0  0  0  0  0  0  0  0  0  0  0  0
   39.7000   33.7470   48.1490 N   0  0  0  0  0  0  0  0  0  0  0  0
   40.4210   33.6490   48.8750 H   0  0  0  0  0  0  0  0  0  0  0  0
   39.6070   34.7410   47.8040 H   0  0  0  0  0  0  0  0  0  0  0  0
   31.9840   27.1680   47.7840 C   0  0  0  0  0  0  0  0  0  0  0  0
   30.8780   27.4040   48.8410 C   0  0  0  0  0  0  0  0  0  0  0  0
   31.2320   27.0230   49.8190 H   0  0  0  0  0  0  0  0  0  0  0  0
   29.9780   26.9030   48.4910 H   0  0  0  0  0  0  0  0  0  0  0  0
   30.6800   28.5040   48.8500 H   0  0  0  0  0  0  0  0  0  0  0  0
   31.3250   27.4870   46.4640 C   0  0  0  0  0  0  0  0  0  0  0  0
   31.0990   26.5580   45.8850 H   0  0  0  0  0  0  0  0  0  0  0  0
   30.3040   27.9570   46.5850 H   0  0  0  0  0  0  0  0  0  0  0  0
   31.8910   28.2290   45.8590 H   0  0  0  0  0  0  0  0  0  0  0  0
   32.3780   25.7290   47.7890 C   0  0  0  0  0  0  0  0  0  0  0  0
   31.5310   25.0720   48.1540 H   0  0  0  0  0  0  0  0  0  0  0  0
   33.1240   25.6340   48.6480 H   0  0  0  0  0  0  0  0  0  0  0  0
   32.9360   25.1450   46.6710 N   0  0  0  0  0  0  0  0  0  0  0  0
   32.1270   24.1640   46.0490 C   0  0  0  0  0  2  0  0  0  0  0  0
   32.2790   24.2710   44.5490 C   0  0  0  0  0  2  0  0  0  0  0  0
   33.6280   24.0340   44.1910 N   0  0  0  0  0  0  0  0  0  0  0  0
   33.8380   23.0330   43.9400 H   0  0  0  0  0  0  0  0  0  0  0  0
   34.6510   24.5070   45.0460 C   0  0  0  0  0  2  0  0  0  0  0  0
   34.2150   25.3900   46.1880 C   0  0  0  0  0  2  0  0  0  0  0  0
  1  2  1  0  0  0  0
  2  9  1  0  0  0  0
  2  3  2  0  0  0  0
  3  8  1  0  0  0  0
  4  3  1  0  0  0  0
  5  4  2  0  0  0  0
  6  1  2  0  0  0  0
  6  5  1  0  0  0  0
  7  1  1  0  0  0  0
  9 10  1  0  0  0  0
 10 18  1  0  0  0  0
 11 10  2  0  0  0  0
 12 11  1  0  0  0  0
 13 20  1  0  0  0  0
 13 12  2  0  0  0  0
 14 13  1  0  0  0  0
 15 14  2  0  0  0  0
 15 16  1  0  0  0  0
 16 17  2  0  0  0  0
 17 12  1  0  0  0  0
 17  9  1  0  0  0  0
 19 15  1  0  0  0  0
 20 21  1  0  0  0  0
 22 20  1  0  0  0  0
 23 32  1  0  0  0  0
 23  5  1  0  0  0  0
 23 24  1  0  0  0  0
 24 27  1  0  0  0  0
 24 25  1  0  0  0  0
 26 24  1  0  0  0  0
 28 30  1  0  0  0  0
 28 23  1  0  0  0  0
 29 28  1  0  0  0  0
 31 28  1  0  0  0  0
 32 33  1  0  0  0  0
 32 34  1  0  0  0  0
 35 32  1  0  0  0  0
 36 35  1  0  0  0  0
 37 36  1  0  0  0  0
 38 37  1  0  0  0  0
 38 40  1  0  0  0  0
 39 38  1  0  0  0  0
 40 41  1  0  0  0  0
 41 35  1  0  0  0  0
M  END
>  <minimizedAffinity>
-5.2278657

>  <minimizedRMSD>
1.17285073

$$$$
