
 OpenBabel03252511223D

 32 35  0  0  0  0  0  0  0  0999 V2000
   35.6080   29.4300   49.2110 C   0  0  0  0  0  0  0  0  0  0  0  0
   35.5980   29.1210   50.5790 C   0  0  0  0  0  0  0  0  0  0  0  0
   36.4950   29.6360   51.4780 C   0  0  0  0  0  0  0  0  0  0  0  0
   37.4670   30.5010   51.0660 C   0  0  0  0  0  0  0  0  0  0  0  0
   37.5320   30.8420   49.7500 C   0  0  0  0  0  0  0  0  0  0  0  0
   38.5220   31.7140   49.3720 C   0  0  0  0  0  0  0  0  0  0  0  0
   38.6460   32.1000   48.0640 C   0  0  0  0  0  0  0  0  0  0  0  0
   37.7440   31.5820   47.1540 C   0  0  0  0  0  0  0  0  0  0  0  0
   36.7690   30.7120   47.5840 C   0  0  0  0  0  0  0  0  0  0  0  0
   36.6130   30.3050   48.8700 C   0  0  0  0  0  0  0  0  0  0  0  0
   34.8490   28.4400   50.9600 H   0  0  0  0  0  0  0  0  0  0  0  0
   36.4370   29.3570   52.5340 H   0  0  0  0  0  0  0  0  0  0  0  0
   38.1490   30.8790   51.8170 H   0  0  0  0  0  0  0  0  0  0  0  0
   39.2200   32.1130   50.0840 H   0  0  0  0  0  0  0  0  0  0  0  0
   39.4360   32.7900   47.7900 H   0  0  0  0  0  0  0  0  0  0  0  0
   37.8470   31.8920   46.1180 H   0  0  0  0  0  0  0  0  0  0  0  0
   36.0740   30.3260   46.8240 H   0  0  0  0  0  0  0  0  0  0  0  0
   33.6020   26.8340   47.7320 C   0  0  0  0  0  0  0  0  0  0  0  0
   32.8790   27.4050   46.6900 C   0  0  0  0  0  0  0  0  0  0  0  0
   33.0920   28.7530   46.4840 C   0  0  0  0  0  0  0  0  0  0  0  0
   33.9550   29.4040   47.2780 N   0  0  0  0  0  0  0  0  0  0  0  0
   34.6510   28.8740   48.2740 C   0  0  0  0  0  0  0  0  0  0  0  0
   34.4240   27.5880   48.4420 N   0  0  0  0  0  0  0  0  0  0  0  0
   33.4320   25.7750   47.8910 H   0  0  0  0  0  0  0  0  0  0  0  0
   32.1910   26.8880   46.0560 H   0  0  0  0  0  0  0  0  0  0  0  0
   32.4510   29.5190   45.4710 N   0  0  0  0  0  0  0  0  0  0  0  0
   32.8830   29.5030   44.0700 C   0  0  0  0  0  0  0  0  0  0  0  0
   33.5230   30.8650   43.8130 C   0  0  0  0  0  0  0  0  0  0  0  0
   32.8370   31.9020   44.5290 N   0  0  0  0  0  0  0  0  0  0  0  0
   33.3380   32.2640   45.3570 H   0  0  0  0  0  0  0  0  0  0  0  0
   31.4530   31.5750   44.7740 C   0  0  0  0  0  0  0  0  0  0  0  0
   31.3150   30.3860   45.7140 C   0  0  0  0  0  0  0  0  0  0  0  0
  1  2  1  0  0  0  0
  2 11  1  0  0  0  0
  2  3  2  0  0  0  0
  3 12  1  0  0  0  0
  4  3  1  0  0  0  0
  4 13  1  0  0  0  0
  5  4  2  0  0  0  0
  6  5  1  0  0  0  0
  6 14  1  0  0  0  0
  7  6  2  0  0  0  0
  8  9  2  0  0  0  0
  8  7  1  0  0  0  0
  9 10  1  0  0  0  0
 10  1  2  0  0  0  0
 10  5  1  0  0  0  0
 15  7  1  0  0  0  0
 16  8  1  0  0  0  0
 17  9  1  0  0  0  0
 18 24  1  0  0  0  0
 18 23  1  0  0  0  0
 19 18  2  0  0  0  0
 20 19  1  0  0  0  0
 20 21  2  0  0  0  0
 21 22  1  0  0  0  0
 22 23  2  0  0  0  0
 22  1  1  0  0  0  0
 25 19  1  0  0  0  0
 26 32  1  0  0  0  0
 26 20  1  0  0  0  0
 27 26  1  0  0  0  0
 28 27  1  0  0  0  0
 28 29  1  0  0  0  0
 29 31  1  0  0  0  0
 29 30  1  0  0  0  0
 31 32  1  0  0  0  0
M  END
>  <minimizedAffinity>
-6.85314512

>  <minimizedRMSD>
0.547829449

$$$$
