
 OpenBabel03252513353D

 22 24  0  0  0  0  0  0  0  0999 V2000
   36.5910   29.9020   49.9740 C   0  0  0  0  0  0  0  0  0  0  0  0
   37.5940   30.6950   49.3810 C   0  0  0  0  0  0  0  0  0  0  0  0
   37.3820   31.1070   48.0570 C   0  0  0  0  0  0  0  0  0  0  0  0
   36.2440   30.7220   47.4400 N   0  0  0  0  0  0  0  0  0  0  0  0
   35.3020   29.9590   48.0440 C   0  0  0  0  0  0  0  0  0  0  0  0
   35.4930   29.5590   49.3090 N   0  0  0  0  0  0  0  0  0  0  0  0
   38.4800   30.9740   49.9110 H   0  0  0  0  0  0  0  0  0  0  0  0
   34.4380   29.7230   47.4370 H   0  0  0  0  0  0  0  0  0  0  0  0
   38.4010   31.9280   47.4150 C   0  0  0  0  0  0  0  0  0  0  0  0
   38.9290   33.1350   47.8250 C   0  0  0  0  0  0  0  0  0  0  0  0
   39.8500   33.5340   46.9180 N   0  0  0  0  0  0  0  0  0  0  0  0
   39.9490   32.6170   45.9110 C   0  0  0  0  0  0  0  0  0  0  0  0
   40.7160   32.5360   44.7680 C   0  0  0  0  0  0  0  0  0  0  0  0
   40.5550   31.4370   43.9510 C   0  0  0  0  0  0  0  0  0  0  0  0
   39.6650   30.3900   44.1970 C   0  0  0  0  0  0  0  0  0  0  0  0
   38.9270   30.5440   45.3720 C   0  0  0  0  0  0  0  0  0  0  0  0
   39.0400   31.6180   46.2330 C   0  0  0  0  0  0  0  0  0  0  0  0
   40.4040   34.4170   46.9850 H   0  0  0  0  0  0  0  0  0  0  0  0
   36.7850   29.4410   51.3960 C   0  0  0  0  0  0  0  0  0  0  0  0
   35.5800   29.1260   51.9670 F   0  0  0  0  0  0  0  0  0  0  0  0
   37.7040   28.4280   51.3820 F   0  0  0  0  0  0  0  0  0  0  0  0
   37.3090   30.5260   52.1050 F   0  0  0  0  0  0  0  0  0  0  0  0
  1 19  1  0  0  0  0
  2  7  1  0  0  0  0
  2  1  1  0  0  0  0
  3  2  2  0  0  0  0
  4  5  2  0  0  0  0
  4  3  1  0  0  0  0
  5  6  1  0  0  0  0
  6  1  2  0  0  0  0
  8  5  1  0  0  0  0
  9 10  2  0  0  0  0
  9  3  1  0  0  0  0
 11 18  1  0  0  0  0
 11 10  1  0  0  0  0
 12 17  1  0  0  0  0
 12 11  1  0  0  0  0
 13 12  2  0  0  0  0
 14 15  2  0  0  0  0
 14 13  1  0  0  0  0
 15 16  1  0  0  0  0
 16 17  2  0  0  0  0
 17  9  1  0  0  0  0
 19 20  1  0  0  0  0
 19 22  1  0  0  0  0
 21 19  1  0  0  0  0
M  END
>  <minimizedAffinity>
-6.76795387

>  <minimizedRMSD>
2.67172813

$$$$
