
 OpenBabel03252513583D

 29 32  0  0  1  0  0  0  0  0999 V2000
   36.2950   30.2830   50.2270 C   0  0  2  0  0  0  0  0  0  0  0  0
   35.5160   29.3310   51.0710 C   0  0  0  0  0  0  0  0  0  0  0  0
   35.8340   28.9340   49.6870 C   0  0  1  0  0  0  0  0  0  0  0  0
   35.7860   31.1550   49.8050 H   0  0  0  0  0  0  0  0  0  0  0  0
   36.0120   28.7750   51.8940 H   0  0  0  0  0  0  0  0  0  0  0  0
   34.5240   29.7120   51.3820 H   0  0  0  0  0  0  0  0  0  0  0  0
   36.6360   28.1480   49.5730 H   0  0  0  0  0  0  0  0  0  0  0  0
   34.7120   28.9150   48.7200 C   0  0  0  0  0  0  0  0  0  0  0  0
   33.5280   28.3590   49.2140 C   0  0  0  0  0  3  0  0  0  0  0  0
   32.6140   28.3980   48.2010 N   0  0  0  0  0  0  0  0  0  0  0  0
   33.1340   28.9400   47.1000 C   0  0  0  0  0  0  0  0  0  0  0  0
   32.7330   29.2450   45.8160 C   0  0  0  0  0  3  0  0  0  0  0  0
   33.6410   29.8460   44.9350 C   0  0  0  0  0  3  0  0  0  0  0  0
   34.9530   30.1560   45.2970 C   0  0  0  0  0  3  0  0  0  0  0  0
   35.3580   29.8480   46.5960 C   0  0  0  0  0  3  0  0  0  0  0  0
   34.4280   29.2590   47.4190 C   0  0  0  0  0  0  0  0  0  0  0  0
   31.6120   28.0690   48.2000 H   0  0  0  0  0  0  0  0  0  0  0  0
   37.7730   30.4210   50.4330 C   0  0  0  0  0  0  0  0  0  0  0  0
   38.3050   29.4460   50.4150 H   0  0  0  0  0  0  0  0  0  0  0  0
   37.9290   30.8660   51.4540 H   0  0  0  0  0  0  0  0  0  0  0  0
   39.0180   33.4930   48.8340 C   0  0  0  0  0  0  0  0  0  0  0  0
   39.2130   33.0920   47.4980 C   0  0  0  0  0  0  0  0  0  0  0  0
   38.9110   31.7590   47.1610 C   0  0  0  0  0  0  0  0  0  0  0  0
   38.4450   30.9370   48.1650 N   0  0  0  0  0  0  0  0  0  0  0  0
   38.2760   31.3710   49.4260 C   0  0  0  0  0  0  0  0  0  0  0  0
   38.5650   32.6510   49.7550 N   0  0  0  0  0  0  0  0  0  0  0  0
   39.2530   34.5220   49.0860 H   0  0  0  0  0  0  0  0  0  0  0  0
   39.5790   33.7790   46.7600 H   0  0  0  0  0  0  0  0  0  0  0  0
   39.0420   31.3970   46.1500 H   0  0  0  0  0  0  0  0  0  0  0  0
  1  4  1  6  0  0  0
  1 18  1  0  0  0  0
  1  2  1  0  0  0  0
  2  6  1  0  0  0  0
  2  5  1  0  0  0  0
  3  7  1  6  0  0  0
  3  1  1  0  0  0  0
  3  2  1  0  0  0  0
  8  9  2  0  0  0  0
  8  3  1  0  0  0  0
 10  9  1  0  0  0  0
 11 16  1  0  0  0  0
 11 10  1  0  0  0  0
 12 11  2  0  0  0  0
 13 14  2  0  0  0  0
 13 12  1  0  0  0  0
 14 15  1  0  0  0  0
 15 16  2  0  0  0  0
 16  8  1  0  0  0  0
 17 10  1  0  0  0  0
 18 20  1  0  0  0  0
 19 18  1  0  0  0  0
 21 27  1  0  0  0  0
 21 26  1  0  0  0  0
 22 21  2  0  0  0  0
 23 22  1  0  0  0  0
 23 24  2  0  0  0  0
 24 25  1  0  0  0  0
 25 26  2  0  0  0  0
 25 18  1  0  0  0  0
 28 22  1  0  0  0  0
 29 23  1  0  0  0  0
M  END
>  <minimizedAffinity>
-5.90104771

>  <minimizedRMSD>
2.01197696

$$$$
