
 OpenBabel03252513593D

 29 32  0  0  1  0  0  0  0  0999 V2000
   35.5530   29.4830   49.2030 C   0  0  2  0  0  0  0  0  0  0  0  0
   34.6700   29.5650   50.4020 C   0  0  0  0  0  0  0  0  0  0  0  0
   34.7010   28.2990   49.6460 C   0  0  1  0  0  0  0  0  0  0  0  0
   35.2320   29.9680   48.2760 H   0  0  0  0  0  0  0  0  0  0  0  0
   35.1090   29.5670   51.4220 H   0  0  0  0  0  0  0  0  0  0  0  0
   33.8550   30.3080   50.3130 H   0  0  0  0  0  0  0  0  0  0  0  0
   35.2560   27.4470   50.1350 H   0  0  0  0  0  0  0  0  0  0  0  0
   33.4970   27.9660   48.8490 C   0  0  0  0  0  0  0  0  0  0  0  0
   32.2950   28.4370   49.3840 C   0  0  0  0  0  3  0  0  0  0  0  0
   31.2970   28.0300   48.5470 N   0  0  0  0  0  0  0  0  0  0  0  0
   31.7820   27.3340   47.5190 C   0  0  0  0  0  0  0  0  0  0  0  0
   31.3030   26.6940   46.3950 C   0  0  0  0  0  3  0  0  0  0  0  0
   32.2010   26.0570   45.5300 C   0  0  0  0  0  3  0  0  0  0  0  0
   33.5800   26.0380   45.7500 C   0  0  0  0  0  3  0  0  0  0  0  0
   34.0630   26.6860   46.8880 C   0  0  0  0  0  3  0  0  0  0  0  0
   33.1380   27.2940   47.7040 C   0  0  0  0  0  0  0  0  0  0  0  0
   30.2590   28.1970   48.6250 H   0  0  0  0  0  0  0  0  0  0  0  0
   37.0310   29.3110   49.3770 C   0  0  0  0  0  0  0  0  0  0  0  0
   37.4300   28.4270   48.8350 H   0  0  0  0  0  0  0  0  0  0  0  0
   37.2220   29.1440   50.4720 H   0  0  0  0  0  0  0  0  0  0  0  0
   38.3590   32.7430   49.4560 C   0  0  0  0  0  0  0  0  0  0  0  0
   38.8940   32.9000   48.1640 C   0  0  0  0  0  0  0  0  0  0  0  0
   38.7920   31.8150   47.2730 C   0  0  0  0  0  0  0  0  0  0  0  0
   38.1720   30.6700   47.7300 N   0  0  0  0  0  0  0  0  0  0  0  0
   37.6760   30.5730   48.9760 C   0  0  0  0  0  0  0  0  0  0  0  0
   37.7730   31.6130   49.8360 N   0  0  0  0  0  0  0  0  0  0  0  0
   38.4410   33.5840   50.1380 H   0  0  0  0  0  0  0  0  0  0  0  0
   39.3660   33.8170   47.8650 H   0  0  0  0  0  0  0  0  0  0  0  0
   39.1860   31.8800   46.2670 H   0  0  0  0  0  0  0  0  0  0  0  0
  1  4  1  6  0  0  0
  1 18  1  0  0  0  0
  1  3  1  0  0  0  0
  1  2  1  0  0  0  0
  2  5  1  0  0  0  0
  3  7  1  1  0  0  0
  3  2  1  0  0  0  0
  6  2  1  0  0  0  0
  8  9  2  0  0  0  0
  8  3  1  0  0  0  0
 10 17  1  0  0  0  0
 10  9  1  0  0  0  0
 11 16  1  0  0  0  0
 11 10  1  0  0  0  0
 12 11  2  0  0  0  0
 13 14  2  0  0  0  0
 13 12  1  0  0  0  0
 14 15  1  0  0  0  0
 15 16  2  0  0  0  0
 16  8  1  0  0  0  0
 18 20  1  0  0  0  0
 19 18  1  0  0  0  0
 21 26  1  0  0  0  0
 21 27  1  0  0  0  0
 22 21  2  0  0  0  0
 23 24  2  0  0  0  0
 23 22  1  0  0  0  0
 24 25  1  0  0  0  0
 25 18  1  0  0  0  0
 25 26  2  0  0  0  0
 28 22  1  0  0  0  0
 29 23  1  0  0  0  0
M  END
>  <minimizedAffinity>
-5.16200972

>  <minimizedRMSD>
0.729533732

$$$$
