
 OpenBabel03252514053D

 39 43  0  0  1  0  0  0  0  0999 V2000
   33.8760   27.4990   47.9940 C   0  0  0  0  0  0  0  0  0  0  0  0
   34.2340   26.2950   47.6920 O   0  0  0  0  0  0  0  0  0  0  0  0
   35.5190   29.4090   48.6690 C   0  0  2  0  0  0  0  0  0  0  0  0
   34.3250   29.4280   49.5090 C   0  0  0  0  0  0  0  0  0  0  0  0
   34.7280   28.1220   49.0830 C   0  0  1  0  0  0  0  0  0  0  0  0
   35.5040   29.6980   47.6220 H   0  0  0  0  0  0  0  0  0  0  0  0
   34.4560   29.7530   50.5800 H   0  0  0  0  0  0  0  0  0  0  0  0
   33.4190   29.9420   49.0820 H   0  0  0  0  0  0  0  0  0  0  0  0
   35.3350   27.4240   49.6560 H   0  0  0  0  0  0  0  0  0  0  0  0
   36.8690   29.4590   49.4010 C   0  0  0  0  0  0  0  0  0  0  0  0
   36.6840   29.4660   50.4860 H   0  0  0  0  0  0  0  0  0  0  0  0
   37.4320   28.5200   49.1880 H   0  0  0  0  0  0  0  0  0  0  0  0
   38.1040   32.8960   49.4220 C   0  0  0  0  0  0  0  0  0  0  0  0
   38.8380   32.9680   48.2210 C   0  0  0  0  0  0  0  0  0  0  0  0
   38.8920   31.8050   47.4160 C   0  0  0  0  0  0  0  0  0  0  0  0
   38.2300   30.6860   47.8490 N   0  0  0  0  0  0  0  0  0  0  0  0
   37.5510   30.6770   48.9970 C   0  0  0  0  0  0  0  0  0  0  0  0
   37.4950   31.7920   49.7780 N   0  0  0  0  0  0  0  0  0  0  0  0
   38.1250   33.8340   49.9630 H   0  0  0  0  0  0  0  0  0  0  0  0
   39.3870   33.7860   47.7920 H   0  0  0  0  0  0  0  0  0  0  0  0
   39.4210   31.7490   46.4820 H   0  0  0  0  0  0  0  0  0  0  0  0
   32.7960   28.0920   47.3440 O   0  0  0  0  0  0  0  0  0  0  0  0
   31.5140   28.0660   47.8240 C   0  0  0  0  0  0  0  0  0  0  0  0
   31.1110   27.5400   49.1540 C   0  0  0  0  0  0  0  0  0  0  0  0
   29.8000   27.5870   49.4760 C   0  0  0  0  0  0  0  0  0  0  0  0
   28.8400   28.1170   48.5910 C   0  0  0  0  0  0  0  0  0  0  0  0
   29.8440   28.6180   47.1170 S   0  0  0  0  0  0  0  0  0  0  0  0
   31.9050   27.1560   49.7660 H   0  0  0  0  0  0  0  0  0  0  0  0
   29.4610   27.2160   50.4310 H   0  0  0  0  0  0  0  0  0  0  0  0
   27.4950   28.2560   48.7210 C   0  0  0  0  0  0  0  0  0  0  0  0
   26.5450   27.2520   48.8540 C   0  0  0  0  0  3  0  0  0  0  0  0
   25.3130   27.7910   48.9580 N   0  0  0  0  0  0  0  0  0  0  0  0
   25.4230   29.1350   48.8970 C   0  0  0  0  0  0  0  0  0  0  0  0
   24.4300   30.0910   48.9610 C   0  0  0  0  0  3  0  0  0  0  0  0
   24.7860   31.4200   48.8760 C   0  0  0  0  0  3  0  0  0  0  0  0
   26.0950   31.7720   48.7320 C   0  0  0  0  0  3  0  0  0  0  0  0
   27.0440   30.7750   48.6740 C   0  0  0  0  0  3  0  0  0  0  0  0
   26.7780   29.4340   48.7490 C   0  0  0  0  0  0  0  0  0  0  0  0
   24.4500   27.2010   49.0660 H   0  0  0  0  0  0  0  0  0  0  0  0
  1  5  1  0  0  0  0
  2  1  2  0  0  0  0
  3  6  1  6  0  0  0
  3  5  1  0  0  0  0
  3 10  1  0  0  0  0
  3  4  1  0  0  0  0
  4  7  1  0  0  0  0
  5  4  1  0  0  0  0
  5  9  1  1  0  0  0
  8  4  1  0  0  0  0
 10 11  1  0  0  0  0
 12 10  1  0  0  0  0
 13 18  1  0  0  0  0
 13 19  1  0  0  0  0
 14 13  2  0  0  0  0
 15 16  2  0  0  0  0
 15 14  1  0  0  0  0
 16 17  1  0  0  0  0
 17 10  1  0  0  0  0
 17 18  2  0  0  0  0
 20 14  1  0  0  0  0
 21 15  1  0  0  0  0
 22 23  1  0  0  0  0
 22  1  1  0  0  0  0
 23 24  2  0  0  0  0
 24 25  1  0  0  0  0
 24 28  1  0  0  0  0
 25 29  1  0  0  0  0
 26 30  1  0  0  0  0
 26 25  2  0  0  0  0
 27 23  1  0  0  0  0
 27 26  1  0  0  0  0
 30 38  1  0  0  0  0
 30 31  2  0  0  0  0
 31 32  1  0  0  0  0
 32 39  1  0  0  0  0
 33 32  1  0  0  0  0
 33 34  1  0  0  0  0
 35 34  2  0  0  0  0
 36 35  1  0  0  0  0
 37 36  2  0  0  0  0
 37 38  1  0  0  0  0
 38 33  2  0  0  0  0
M  END
>  <minimizedAffinity>
-7.3406744

>  <minimizedRMSD>
1.69359565

$$$$
