
 OpenBabel03252512133D

 33 37  0  0  0  0  0  0  0  0999 V2000
   32.4000   29.7800   46.1580 C   0  0  0  0  0  0  0  0  0  0  0  0
   32.1400   28.4140   46.2480 C   0  0  0  0  0  0  0  0  0  0  0  0
   33.0870   27.6010   46.8880 C   0  0  0  0  0  0  0  0  0  0  0  0
   34.2110   28.2000   47.3860 N   0  0  0  0  0  0  0  0  0  0  0  0
   34.4350   29.5190   47.2830 C   0  0  0  0  0  0  0  0  0  0  0  0
   33.5360   30.3120   46.6730 N   0  0  0  0  0  0  0  0  0  0  0  0
   31.6900   30.4470   45.6680 H   0  0  0  0  0  0  0  0  0  0  0  0
   31.2340   27.9930   45.8370 H   0  0  0  0  0  0  0  0  0  0  0  0
   35.6650   30.0270   47.8520 C   0  0  0  0  0  0  0  0  0  0  0  0
   36.6410   30.6940   47.1200 C   0  0  0  0  0  0  0  0  0  0  0  0
   37.6630   31.0430   47.9160 N   0  0  0  0  0  0  0  0  0  0  0  0
   37.3790   30.6200   49.1540 C   0  0  0  0  0  0  0  0  0  0  0  0
   38.0810   30.7150   50.3540 C   0  0  0  0  0  0  0  0  0  0  0  0
   37.5230   30.1710   51.4990 C   0  0  0  0  0  0  0  0  0  0  0  0
   36.2860   29.5450   51.4410 C   0  0  0  0  0  0  0  0  0  0  0  0
   35.5530   29.4310   50.2610 C   0  0  0  0  0  0  0  0  0  0  0  0
   36.1410   29.9840   49.1410 C   0  0  0  0  0  0  0  0  0  0  0  0
   36.6360   30.9250   46.0700 H   0  0  0  0  0  0  0  0  0  0  0  0
   38.5470   31.5550   47.6640 H   0  0  0  0  0  0  0  0  0  0  0  0
   39.0470   31.1970   50.4260 H   0  0  0  0  0  0  0  0  0  0  0  0
   38.0130   30.2080   52.4670 H   0  0  0  0  0  0  0  0  0  0  0  0
   35.8450   29.1190   52.3310 H   0  0  0  0  0  0  0  0  0  0  0  0
   34.5910   28.9460   50.2110 H   0  0  0  0  0  0  0  0  0  0  0  0
   32.8640   26.1640   47.0110 C   0  0  0  0  0  0  0  0  0  0  0  0
   31.8770   25.5850   47.7790 C   0  0  0  0  0  0  0  0  0  0  0  0
   32.0300   24.2380   47.6050 N   0  0  0  0  0  0  0  0  0  0  0  0
   33.0500   24.0160   46.7800 C   0  0  0  0  0  0  0  0  0  0  0  0
   33.5940   22.8400   46.3000 C   0  0  0  0  0  0  0  0  0  0  0  0
   34.6700   22.8000   45.4370 C   0  0  0  0  0  0  0  0  0  0  0  0
   35.2320   24.0110   45.0340 C   0  0  0  0  0  0  0  0  0  0  0  0
   34.7070   25.2010   45.5000 C   0  0  0  0  0  0  0  0  0  0  0  0
   33.6300   25.2170   46.3620 C   0  0  0  0  0  0  0  0  0  0  0  0
   31.4120   23.5420   48.0720 H   0  0  0  0  0  0  0  0  0  0  0  0
  1  2  2  0  0  0  0
  1  6  1  0  0  0  0
  2  3  1  0  0  0  0
  3 24  1  0  0  0  0
  3  4  2  0  0  0  0
  5  4  1  0  0  0  0
  5  9  1  0  0  0  0
  6  5  2  0  0  0  0
  7  1  1  0  0  0  0
  8  2  1  0  0  0  0
  9 17  1  0  0  0  0
 10  9  2  0  0  0  0
 10 11  1  0  0  0  0
 11 12  1  0  0  0  0
 12 13  1  0  0  0  0
 13 20  1  0  0  0  0
 13 14  2  0  0  0  0
 14 21  1  0  0  0  0
 15 14  1  0  0  0  0
 15 22  1  0  0  0  0
 16 15  2  0  0  0  0
 17 12  2  0  0  0  0
 17 16  1  0  0  0  0
 18 10  1  0  0  0  0
 19 11  1  0  0  0  0
 23 16  1  0  0  0  0
 24 25  2  0  0  0  0
 26 25  1  0  0  0  0
 26 33  1  0  0  0  0
 27 26  1  0  0  0  0
 28 27  2  0  0  0  0
 29 28  1  0  0  0  0
 30 29  2  0  0  0  0
 30 31  1  0  0  0  0
 31 32  2  0  0  0  0
 32 27  1  0  0  0  0
 32 24  1  0  0  0  0
M  END
>  <minimizedAffinity>
-6.15379763

>  <minimizedRMSD>
0.739795029

$$$$
