
 OpenBabel03252514053D

 39 43  0  0  1  0  0  0  0  0999 V2000
   33.8750   27.4960   47.9960 C   0  0  0  0  0  0  0  0  0  0  0  0
   34.2340   26.2930   47.6960 O   0  0  0  0  0  0  0  0  0  0  0  0
   35.5190   29.4060   48.6690 C   0  0  2  0  0  0  0  0  0  0  0  0
   34.3240   29.4290   49.5070 C   0  0  0  0  0  0  0  0  0  0  0  0
   34.7260   28.1210   49.0840 C   0  0  1  0  0  0  0  0  0  0  0  0
   35.5070   29.6920   47.6210 H   0  0  0  0  0  0  0  0  0  0  0  0
   34.4540   29.7560   50.5760 H   0  0  0  0  0  0  0  0  0  0  0  0
   33.4200   29.9430   49.0770 H   0  0  0  0  0  0  0  0  0  0  0  0
   35.3310   27.4240   49.6600 H   0  0  0  0  0  0  0  0  0  0  0  0
   36.8680   29.4560   49.4030 C   0  0  0  0  0  0  0  0  0  0  0  0
   36.6810   29.4640   50.4870 H   0  0  0  0  0  0  0  0  0  0  0  0
   37.4310   28.5170   49.1930 H   0  0  0  0  0  0  0  0  0  0  0  0
   38.1120   32.8890   49.4260 C   0  0  0  0  0  0  0  0  0  0  0  0
   38.8410   32.9630   48.2220 C   0  0  0  0  0  0  0  0  0  0  0  0
   38.8880   31.8020   47.4140 C   0  0  0  0  0  0  0  0  0  0  0  0
   38.2260   30.6830   47.8480 N   0  0  0  0  0  0  0  0  0  0  0  0
   37.5520   30.6730   48.9990 C   0  0  0  0  0  0  0  0  0  0  0  0
   37.5020   31.7870   49.7820 N   0  0  0  0  0  0  0  0  0  0  0  0
   38.1390   33.8270   49.9700 H   0  0  0  0  0  0  0  0  0  0  0  0
   39.3910   33.7800   47.7920 H   0  0  0  0  0  0  0  0  0  0  0  0
   39.4130   31.7460   46.4770 H   0  0  0  0  0  0  0  0  0  0  0  0
   32.7950   28.0880   47.3450 O   0  0  0  0  0  0  0  0  0  0  0  0
   31.5130   28.0630   47.8250 C   0  0  0  0  0  0  0  0  0  0  0  0
   31.1090   27.5380   49.1550 C   0  0  0  0  0  0  0  0  0  0  0  0
   29.7990   27.5860   49.4780 C   0  0  0  0  0  0  0  0  0  0  0  0
   28.8390   28.1160   48.5930 C   0  0  0  0  0  0  0  0  0  0  0  0
   29.8430   28.6150   47.1170 S   0  0  0  0  0  0  0  0  0  0  0  0
   31.9040   27.1540   49.7680 H   0  0  0  0  0  0  0  0  0  0  0  0
   29.4600   27.2170   50.4320 H   0  0  0  0  0  0  0  0  0  0  0  0
   27.4940   28.2560   48.7220 C   0  0  0  0  0  0  0  0  0  0  0  0
   26.5430   27.2520   48.8550 C   0  0  0  0  0  0  0  0  0  0  0  0
   25.3120   27.7930   48.9590 N   0  0  0  0  0  0  0  0  0  0  0  0
   25.4220   29.1360   48.8970 C   0  0  0  0  0  0  0  0  0  0  0  0
   24.4300   30.0910   48.9610 C   0  0  0  0  0  0  0  0  0  0  0  0
   24.7860   31.4210   48.8760 C   0  0  0  0  0  0  0  0  0  0  0  0
   26.0950   31.7720   48.7310 C   0  0  0  0  0  0  0  0  0  0  0  0
   27.0450   30.7740   48.6730 C   0  0  0  0  0  0  0  0  0  0  0  0
   26.7780   29.4330   48.7500 C   0  0  0  0  0  0  0  0  0  0  0  0
   24.4480   27.2010   49.0680 H   0  0  0  0  0  0  0  0  0  0  0  0
  1  5  1  0  0  0  0
  2  1  2  0  0  0  0
  3  6  1  6  0  0  0
  3  5  1  0  0  0  0
  3 10  1  0  0  0  0
  3  4  1  0  0  0  0
  4  7  1  0  0  0  0
  5  4  1  0  0  0  0
  5  9  1  1  0  0  0
  8  4  1  0  0  0  0
 10 11  1  0  0  0  0
 12 10  1  0  0  0  0
 13 18  1  0  0  0  0
 13 19  1  0  0  0  0
 14 13  2  0  0  0  0
 15 16  2  0  0  0  0
 15 14  1  0  0  0  0
 16 17  1  0  0  0  0
 17 10  1  0  0  0  0
 17 18  2  0  0  0  0
 20 14  1  0  0  0  0
 21 15  1  0  0  0  0
 22 23  1  0  0  0  0
 22  1  1  0  0  0  0
 23 24  2  0  0  0  0
 24 25  1  0  0  0  0
 24 28  1  0  0  0  0
 25 29  1  0  0  0  0
 26 30  1  0  0  0  0
 26 25  2  0  0  0  0
 27 23  1  0  0  0  0
 27 26  1  0  0  0  0
 30 38  1  0  0  0  0
 30 31  2  0  0  0  0
 31 32  1  0  0  0  0
 32 39  1  0  0  0  0
 33 32  1  0  0  0  0
 33 34  1  0  0  0  0
 35 34  2  0  0  0  0
 36 35  1  0  0  0  0
 37 36  2  0  0  0  0
 37 38  1  0  0  0  0
 38 33  2  0  0  0  0
M  END
>  <minimizedAffinity>
-7.34348631

>  <minimizedRMSD>
1.84053969

$$$$
