
 OpenBabel03252512233D

 26 29  0  0  0  0  0  0  0  0999 V2000
   35.2050   29.7880   48.3140 C   0  0  0  0  0  0  0  0  0  0  0  0
   34.9490   28.6870   49.1680 C   0  0  0  0  0  0  0  0  0  0  0  0
   33.7910   28.0010   48.9580 C   0  0  0  0  0  0  0  0  0  0  0  0
   32.9730   28.4000   47.9720 C   0  0  0  0  0  0  0  0  0  0  0  0
   33.7840   29.8130   47.2340 S   0  0  0  0  0  0  0  0  0  0  0  0
   35.6900   28.4460   49.9480 H   0  0  0  0  0  0  0  0  0  0  0  0
   33.5240   27.1490   49.5690 H   0  0  0  0  0  0  0  0  0  0  0  0
   31.6820   27.8180   47.5640 C   0  0  0  0  0  0  0  0  0  0  0  0
   31.3340   27.3620   46.3190 C   0  0  0  0  0  0  0  0  0  0  0  0
   30.0680   26.9160   46.3880 N   0  0  0  0  0  0  0  0  0  0  0  0
   29.6110   27.0780   47.6410 C   0  0  0  0  0  0  0  0  0  0  0  0
   28.3690   26.7720   48.2040 C   0  0  0  0  0  0  0  0  0  0  0  0
   28.1050   27.0290   49.5480 C   0  0  0  0  0  0  0  0  0  0  0  0
   29.0930   27.5940   50.3160 C   0  0  0  0  0  0  0  0  0  0  0  0
   30.3090   27.8840   49.7210 C   0  0  0  0  0  0  0  0  0  0  0  0
   30.6140   27.6520   48.4190 C   0  0  0  0  0  0  0  0  0  0  0  0
   29.5580   26.5100   45.5620 H   0  0  0  0  0  0  0  0  0  0  0  0
   37.9650   31.8700   49.6330 C   0  0  0  0  0  0  0  0  0  0  0  0
   38.6310   32.2470   48.4340 C   0  0  0  0  0  0  0  0  0  0  0  0
   38.1170   31.7810   47.2070 C   0  0  0  0  0  0  0  0  0  0  0  0
   36.9990   30.9840   47.2300 N   0  0  0  0  0  0  0  0  0  0  0  0
   36.4090   30.6550   48.3840 C   0  0  0  0  0  0  0  0  0  0  0  0
   36.8690   31.0820   49.5840 N   0  0  0  0  0  0  0  0  0  0  0  0
   38.3960   32.2520   50.5400 H   0  0  0  0  0  0  0  0  0  0  0  0
   39.5150   32.8800   48.4440 H   0  0  0  0  0  0  0  0  0  0  0  0
   38.5810   32.0340   46.2630 H   0  0  0  0  0  0  0  0  0  0  0  0
  1 22  1  0  0  0  0
  1  2  2  0  0  0  0
  2  6  1  0  0  0  0
  3  2  1  0  0  0  0
  3  7  1  0  0  0  0
  4  3  2  0  0  0  0
  5  4  1  0  0  0  0
  5  1  1  0  0  0  0
  8  4  1  0  0  0  0
  8 16  1  0  0  0  0
  9 10  1  0  0  0  0
  9  8  2  0  0  0  0
 10 11  1  0  0  0  0
 11 12  2  0  0  0  0
 11 16  1  0  0  0  0
 12 13  1  0  0  0  0
 13 14  2  0  0  0  0
 15 14  1  0  0  0  0
 16 15  2  0  0  0  0
 17 10  1  0  0  0  0
 18 24  1  0  0  0  0
 19 25  1  0  0  0  0
 19 18  2  0  0  0  0
 20 21  2  0  0  0  0
 20 19  1  0  0  0  0
 21 22  1  0  0  0  0
 22 23  2  0  0  0  0
 23 18  1  0  0  0  0
 26 20  1  0  0  0  0
M  END
>  <minimizedAffinity>
-5.82161617

>  <minimizedRMSD>
1.81695712

$$$$
