
 OpenBabel03252513593D

 29 32  0  0  1  0  0  0  0  0999 V2000
   35.3490   29.4710   49.1830 C   0  0  2  0  0  0  0  0  0  0  0  0
   34.2490   29.4360   50.1900 C   0  0  0  0  0  0  0  0  0  0  0  0
   34.4940   28.2240   49.3860 C   0  0  1  0  0  0  0  0  0  0  0  0
   35.1860   30.0010   48.2400 H   0  0  0  0  0  0  0  0  0  0  0  0
   34.4820   29.3920   51.2750 H   0  0  0  0  0  0  0  0  0  0  0  0
   33.4260   30.1490   49.9840 H   0  0  0  0  0  0  0  0  0  0  0  0
   34.9900   27.3680   49.9270 H   0  0  0  0  0  0  0  0  0  0  0  0
   33.4870   27.8920   48.3520 C   0  0  0  0  0  0  0  0  0  0  0  0
   34.0070   27.7440   47.0610 C   0  0  0  0  0  3  0  0  0  0  0  0
   32.9560   27.4620   46.2370 N   0  0  0  0  0  0  0  0  0  0  0  0
   31.8090   27.4200   46.9120 C   0  0  0  0  0  0  0  0  0  0  0  0
   30.4730   27.1920   46.6540 C   0  0  0  0  0  3  0  0  0  0  0  0
   29.5500   27.2410   47.7070 C   0  0  0  0  0  3  0  0  0  0  0  0
   29.9200   27.5130   49.0260 C   0  0  0  0  0  3  0  0  0  0  0  0
   31.2720   27.7440   49.2850 C   0  0  0  0  0  3  0  0  0  0  0  0
   32.1350   27.6850   48.2160 C   0  0  0  0  0  0  0  0  0  0  0  0
   32.9600   27.2870   45.1960 H   0  0  0  0  0  0  0  0  0  0  0  0
   36.7730   29.3520   49.6340 C   0  0  0  0  0  0  0  0  0  0  0  0
   37.2410   28.3890   49.3380 H   0  0  0  0  0  0  0  0  0  0  0  0
   36.7740   29.3910   50.7570 H   0  0  0  0  0  0  0  0  0  0  0  0
   38.3360   32.6760   49.4130 C   0  0  0  0  0  0  0  0  0  0  0  0
   38.8690   32.6850   48.1100 C   0  0  0  0  0  0  0  0  0  0  0  0
   38.6840   31.5370   47.3170 C   0  0  0  0  0  0  0  0  0  0  0  0
   37.9910   30.4820   47.8720 N   0  0  0  0  0  0  0  0  0  0  0  0
   37.5000   30.5260   49.1230 C   0  0  0  0  0  0  0  0  0  0  0  0
   37.6770   31.6280   49.8900 N   0  0  0  0  0  0  0  0  0  0  0  0
   38.4830   33.5650   50.0200 H   0  0  0  0  0  0  0  0  0  0  0  0
   39.4010   33.5370   47.7330 H   0  0  0  0  0  0  0  0  0  0  0  0
   39.0730   31.4890   46.3080 H   0  0  0  0  0  0  0  0  0  0  0  0
  1  4  1  6  0  0  0
  1  3  1  0  0  0  0
  1 18  1  0  0  0  0
  1  2  1  0  0  0  0
  2  5  1  0  0  0  0
  3  7  1  1  0  0  0
  3  2  1  0  0  0  0
  6  2  1  0  0  0  0
  8  3  1  0  0  0  0
  9  8  2  0  0  0  0
 10 11  1  0  0  0  0
 10  9  1  0  0  0  0
 11 16  1  0  0  0  0
 12 11  2  0  0  0  0
 12 13  1  0  0  0  0
 13 14  2  0  0  0  0
 14 15  1  0  0  0  0
 16  8  1  0  0  0  0
 16 15  2  0  0  0  0
 17 10  1  0  0  0  0
 18 20  1  0  0  0  0
 19 18  1  0  0  0  0
 21 26  1  0  0  0  0
 21 27  1  0  0  0  0
 22 21  2  0  0  0  0
 23 24  2  0  0  0  0
 23 22  1  0  0  0  0
 24 25  1  0  0  0  0
 25 18  1  0  0  0  0
 25 26  2  0  0  0  0
 28 22  1  0  0  0  0
 29 23  1  0  0  0  0
M  END
>  <minimizedAffinity>
-5.64328337

>  <minimizedRMSD>
0.586378694

$$$$
