
 OpenBabel03252513583D

 29 32  0  0  1  0  0  0  0  0999 V2000
   35.3480   29.4700   49.1830 C   0  0  2  0  0  0  0  0  0  0  0  0
   34.2480   29.4360   50.1900 C   0  0  0  0  0  0  0  0  0  0  0  0
   34.4930   28.2240   49.3860 C   0  0  1  0  0  0  0  0  0  0  0  0
   35.1850   30.0000   48.2390 H   0  0  0  0  0  0  0  0  0  0  0  0
   34.4820   29.3920   51.2750 H   0  0  0  0  0  0  0  0  0  0  0  0
   33.4260   30.1480   49.9840 H   0  0  0  0  0  0  0  0  0  0  0  0
   34.9900   27.3680   49.9270 H   0  0  0  0  0  0  0  0  0  0  0  0
   33.4860   27.8910   48.3520 C   0  0  0  0  0  0  0  0  0  0  0  0
   34.0060   27.7420   47.0630 C   0  0  0  0  0  3  0  0  0  0  0  0
   32.9550   27.4610   46.2380 N   0  0  0  0  0  0  0  0  0  0  0  0
   31.8070   27.4200   46.9130 C   0  0  0  0  0  0  0  0  0  0  0  0
   30.4710   27.1930   46.6550 C   0  0  0  0  0  3  0  0  0  0  0  0
   29.5490   27.2420   47.7070 C   0  0  0  0  0  3  0  0  0  0  0  0
   29.9190   27.5140   49.0260 C   0  0  0  0  0  3  0  0  0  0  0  0
   31.2700   27.7440   49.2860 C   0  0  0  0  0  3  0  0  0  0  0  0
   32.1340   27.6850   48.2160 C   0  0  0  0  0  0  0  0  0  0  0  0
   32.9600   27.2860   45.1980 H   0  0  0  0  0  0  0  0  0  0  0  0
   36.7720   29.3520   49.6330 C   0  0  0  0  0  0  0  0  0  0  0  0
   37.2410   28.3900   49.3360 H   0  0  0  0  0  0  0  0  0  0  0  0
   36.7730   29.3900   50.7560 H   0  0  0  0  0  0  0  0  0  0  0  0
   38.3300   32.6790   49.4140 C   0  0  0  0  0  0  0  0  0  0  0  0
   38.8670   32.6870   48.1130 C   0  0  0  0  0  0  0  0  0  0  0  0
   38.6850   31.5390   47.3200 C   0  0  0  0  0  0  0  0  0  0  0  0
   37.9930   30.4830   47.8740 N   0  0  0  0  0  0  0  0  0  0  0  0
   37.4990   30.5270   49.1230 C   0  0  0  0  0  0  0  0  0  0  0  0
   37.6720   31.6290   49.8900 N   0  0  0  0  0  0  0  0  0  0  0  0
   38.4740   33.5680   50.0210 H   0  0  0  0  0  0  0  0  0  0  0  0
   39.3970   33.5410   47.7360 H   0  0  0  0  0  0  0  0  0  0  0  0
   39.0770   31.4910   46.3120 H   0  0  0  0  0  0  0  0  0  0  0  0
  1  4  1  6  0  0  0
  1  3  1  0  0  0  0
  1 18  1  0  0  0  0
  1  2  1  0  0  0  0
  2  5  1  0  0  0  0
  3  7  1  1  0  0  0
  3  2  1  0  0  0  0
  6  2  1  0  0  0  0
  8  3  1  0  0  0  0
  9  8  2  0  0  0  0
 10 11  1  0  0  0  0
 10  9  1  0  0  0  0
 11 16  1  0  0  0  0
 12 11  2  0  0  0  0
 12 13  1  0  0  0  0
 13 14  2  0  0  0  0
 14 15  1  0  0  0  0
 16  8  1  0  0  0  0
 16 15  2  0  0  0  0
 17 10  1  0  0  0  0
 18 20  1  0  0  0  0
 19 18  1  0  0  0  0
 21 26  1  0  0  0  0
 21 27  1  0  0  0  0
 22 21  2  0  0  0  0
 23 24  2  0  0  0  0
 23 22  1  0  0  0  0
 24 25  1  0  0  0  0
 25 18  1  0  0  0  0
 25 26  2  0  0  0  0
 28 22  1  0  0  0  0
 29 23  1  0  0  0  0
M  END
>  <minimizedAffinity>
-5.64294481

>  <minimizedRMSD>
0.163060024

$$$$
