
 OpenBabel03252511023D

 33 36  0  0  0  0  0  0  0  0999 V2000
   39.1470   31.6530   46.1140 C   0  0  0  0  0  0  0  0  0  0  0  0
   40.5030   31.4920   45.9560 C   0  0  0  0  0  0  0  0  0  0  0  0
   40.7400   31.1890   44.6070 C   0  0  0  0  0  0  0  0  0  0  0  0
   39.4890   31.1870   44.0300 C   0  0  0  0  0  0  0  0  0  0  0  0
   38.6070   31.4620   44.9500 O   0  0  0  0  0  0  0  0  0  0  0  0
   41.2490   31.5830   46.7350 H   0  0  0  0  0  0  0  0  0  0  0  0
   41.6870   31.0040   44.1530 H   0  0  0  0  0  0  0  0  0  0  0  0
   39.2020   30.9220   42.6240 C   0  0  0  0  0  0  0  0  0  0  0  0
   39.1800   29.7060   41.9730 C   0  0  0  0  0  0  0  0  0  0  0  0
   38.8690   29.9190   40.6770 N   0  0  0  0  0  0  0  0  0  0  0  0
   38.6840   31.2480   40.4600 C   0  0  0  0  0  0  0  0  0  0  0  0
   38.3660   32.0230   39.3890 C   0  0  0  0  0  0  0  0  0  0  0  0
   38.2520   33.4010   39.5070 C   0  0  0  0  0  0  0  0  0  0  0  0
   38.4620   34.0170   40.7240 C   0  0  0  0  0  0  0  0  0  0  0  0
   38.7840   33.2330   41.8060 C   0  0  0  0  0  0  0  0  0  0  0  0
   38.8910   31.8610   41.6620 C   0  0  0  0  0  0  0  0  0  0  0  0
   38.7760   29.1930   39.9330 H   0  0  0  0  0  0  0  0  0  0  0  0
   36.8980   31.4430   48.9540 C   0  0  0  0  0  0  0  0  0  0  0  0
   37.2710   32.5480   49.7680 C   0  0  0  0  0  0  0  0  0  0  0  0
   38.3120   33.3530   49.3040 C   0  0  0  0  0  0  0  0  0  0  0  0
   38.9070   33.0300   48.0960 N   0  0  0  0  0  0  0  0  0  0  0  0
   38.5100   31.9760   47.3790 C   0  0  0  0  0  0  0  0  0  0  0  0
   37.4880   31.1550   47.7980 N   0  0  0  0  0  0  0  0  0  0  0  0
   36.7600   32.7250   50.6820 H   0  0  0  0  0  0  0  0  0  0  0  0
   38.6370   34.1990   49.8720 H   0  0  0  0  0  0  0  0  0  0  0  0
   35.8070   30.6170   49.4610 C   0  0  0  0  0  0  0  0  0  0  0  0
   34.7040   30.5760   48.8150 O   0  0  0  0  0  0  0  0  0  0  0  0
   35.9890   29.8880   50.6400 O   0  0  0  0  0  0  0  0  0  0  0  0
   37.2570   29.6180   51.1500 C   0  0  0  0  0  0  0  0  0  0  0  0
   38.2730   29.0080   50.3950 N   0  0  0  0  0  0  0  0  0  0  0  0
   37.4050   29.9680   52.3390 O   0  0  0  0  0  0  0  0  0  0  0  0
   39.2050   29.3950   50.0600 H   0  0  0  0  0  0  0  0  0  0  0  0
   38.5700   28.1390   49.9130 H   0  0  0  0  0  0  0  0  0  0  0  0
  1 22  1  0  0  0  0
  2  1  2  0  0  0  0
  2  6  1  0  0  0  0
  3  2  1  0  0  0  0
  4  3  2  0  0  0  0
  4  5  1  0  0  0  0
  5  1  1  0  0  0  0
  7  3  1  0  0  0  0
  8  4  1  0  0  0  0
  9  8  2  0  0  0  0
 10  9  1  0  0  0  0
 11 10  1  0  0  0  0
 11 16  1  0  0  0  0
 12 13  1  0  0  0  0
 12 11  2  0  0  0  0
 13 14  2  0  0  0  0
 14 15  1  0  0  0  0
 16 15  2  0  0  0  0
 16  8  1  0  0  0  0
 17 10  1  0  0  0  0
 18 26  1  0  0  0  0
 18 19  1  0  0  0  0
 19 24  1  0  0  0  0
 20 19  2  0  0  0  0
 20 25  1  0  0  0  0
 21 20  1  0  0  0  0
 22 23  1  0  0  0  0
 22 21  2  0  0  0  0
 23 18  2  0  0  0  0
 26 28  1  0  0  0  0
 27 26  2  0  0  0  0
 28 29  1  0  0  0  0
 29 31  2  0  0  0  0
 30 29  1  0  0  0  0
 32 30  1  0  0  0  0
 33 30  1  0  0  0  0
M  END
>  <minimizedAffinity>
-6.08909416

>  <minimizedRMSD>
2.50380445

$$$$
