
 OpenBabel03252513583D

 29 32  0  0  1  0  0  0  0  0999 V2000
   35.5950   29.7010   49.2930 C   0  0  2  0  0  0  0  0  0  0  0  0
   34.4870   29.3110   50.2120 C   0  0  0  0  0  0  0  0  0  0  0  0
   34.9320   28.3310   49.2040 C   0  0  1  0  0  0  0  0  0  0  0  0
   35.3800   30.3790   48.4620 H   0  0  0  0  0  0  0  0  0  0  0  0
   34.6960   29.0850   51.2790 H   0  0  0  0  0  0  0  0  0  0  0  0
   33.5730   29.9260   50.1020 H   0  0  0  0  0  0  0  0  0  0  0  0
   35.5370   27.4630   49.5960 H   0  0  0  0  0  0  0  0  0  0  0  0
   34.0130   28.0710   48.0710 C   0  0  0  0  0  0  0  0  0  0  0  0
   33.6850   26.7240   47.8870 C   0  0  0  0  0  3  0  0  0  0  0  0
   32.8610   26.6580   46.8020 N   0  0  0  0  0  0  0  0  0  0  0  0
   32.6410   27.8660   46.2870 C   0  0  0  0  0  0  0  0  0  0  0  0
   31.9310   28.4260   45.2450 C   0  0  0  0  0  3  0  0  0  0  0  0
   31.9720   29.8110   45.0480 C   0  0  0  0  0  3  0  0  0  0  0  0
   32.7080   30.6700   45.8680 C   0  0  0  0  0  3  0  0  0  0  0  0
   33.4270   30.1030   46.9210 C   0  0  0  0  0  3  0  0  0  0  0  0
   33.3520   28.7370   47.0670 C   0  0  0  0  0  0  0  0  0  0  0  0
   32.4110   25.8090   46.3630 H   0  0  0  0  0  0  0  0  0  0  0  0
   37.0090   29.6980   49.7900 C   0  0  0  0  0  0  0  0  0  0  0  0
   37.5060   28.7120   49.6730 H   0  0  0  0  0  0  0  0  0  0  0  0
   36.9780   29.9260   50.8900 H   0  0  0  0  0  0  0  0  0  0  0  0
   38.6060   32.9390   49.0920 C   0  0  0  0  0  0  0  0  0  0  0  0
   39.0640   32.7830   47.7700 C   0  0  0  0  0  0  0  0  0  0  0  0
   38.8170   31.5550   47.1300 C   0  0  0  0  0  0  0  0  0  0  0  0
   38.1410   30.5870   47.8430 N   0  0  0  0  0  0  0  0  0  0  0  0
   37.7240   30.7880   49.1050 C   0  0  0  0  0  0  0  0  0  0  0  0
   37.9600   31.9680   49.7260 N   0  0  0  0  0  0  0  0  0  0  0  0
   38.8010   33.8890   49.5800 H   0  0  0  0  0  0  0  0  0  0  0  0
   39.5860   33.5740   47.2660 H   0  0  0  0  0  0  0  0  0  0  0  0
   39.1470   31.3800   46.1140 H   0  0  0  0  0  0  0  0  0  0  0  0
  1  4  1  6  0  0  0
  1 18  1  0  0  0  0
  1  2  1  0  0  0  0
  2  5  1  0  0  0  0
  3  1  1  0  0  0  0
  3  7  1  1  0  0  0
  3  2  1  0  0  0  0
  6  2  1  0  0  0  0
  8  3  1  0  0  0  0
  9  8  2  0  0  0  0
 10  9  1  0  0  0  0
 11 10  1  0  0  0  0
 11 16  1  0  0  0  0
 12 11  2  0  0  0  0
 13 12  1  0  0  0  0
 13 14  2  0  0  0  0
 14 15  1  0  0  0  0
 15 16  2  0  0  0  0
 16  8  1  0  0  0  0
 17 10  1  0  0  0  0
 18 20  1  0  0  0  0
 19 18  1  0  0  0  0
 21 27  1  0  0  0  0
 21 26  1  0  0  0  0
 22 21  2  0  0  0  0
 23 22  1  0  0  0  0
 23 24  2  0  0  0  0
 24 25  1  0  0  0  0
 25 26  2  0  0  0  0
 25 18  1  0  0  0  0
 28 22  1  0  0  0  0
 29 23  1  0  0  0  0
M  END
>  <minimizedAffinity>
-5.37357187

>  <minimizedRMSD>
0.744398296

$$$$
