
 OpenBabel03252510253D

 25 27  0  0  0  0  0  0  0  0999 V2000
   37.2770   31.5240   48.5340 C   0  0  0  0  0  0  0  0  0  0  0  0
   38.2430   32.4610   48.8190 C   0  0  0  0  0  0  0  0  0  0  0  0
   39.0720   32.8340   47.7420 C   0  0  0  0  0  0  0  0  0  0  0  0
   38.8940   32.2840   46.5330 N   0  0  0  0  0  0  0  0  0  0  0  0
   37.9480   31.3740   46.2790 C   0  0  0  0  0  0  0  0  0  0  0  0
   37.1690   31.0300   47.3110 N   0  0  0  0  0  0  0  0  0  0  0  0
   38.4000   32.9110   49.7750 H   0  0  0  0  0  0  0  0  0  0  0  0
   39.8660   33.5600   47.8410 H   0  0  0  0  0  0  0  0  0  0  0  0
   37.5920   30.6630   45.0530 C   0  0  0  0  0  0  0  0  0  0  0  0
   36.2980   30.2110   44.7680 C   0  0  0  0  0  0  0  0  0  0  0  0
   35.9550   29.5490   43.6290 C   0  0  0  0  0  0  0  0  0  0  0  0
   36.8970   29.2790   42.6650 C   0  0  0  0  0  0  0  0  0  0  0  0
   38.1790   29.6910   42.8810 C   0  0  0  0  0  0  0  0  0  0  0  0
   39.1000   29.4070   41.9000 C   0  0  0  0  0  0  0  0  0  0  0  0
   40.4030   29.7860   42.0420 C   0  0  0  0  0  0  0  0  0  0  0  0
   40.7410   30.4570   43.1970 C   0  0  0  0  0  0  0  0  0  0  0  0
   39.7900   30.7240   44.1590 C   0  0  0  0  0  0  0  0  0  0  0  0
   38.4770   30.3570   44.0470 C   0  0  0  0  0  0  0  0  0  0  0  0
   36.3780   31.0960   49.5960 C   0  0  0  0  0  0  0  0  0  0  0  0
   35.1610   30.8080   49.3390 O   0  0  0  0  0  0  0  0  0  0  0  0
   36.8500   31.0020   50.8910 O   0  0  0  0  0  0  0  0  0  0  0  0
   36.9220   29.6950   51.4310 C   0  0  0  0  0  0  0  0  0  0  0  0
   35.6870   29.2010   51.7830 F   0  0  0  0  0  0  0  0  0  0  0  0
   37.7830   29.7550   52.5360 F   0  0  0  0  0  0  0  0  0  0  0  0
   37.4860   28.8200   50.5310 F   0  0  0  0  0  0  0  0  0  0  0  0
  1  2  1  0  0  0  0
  1 19  1  0  0  0  0
  2  7  1  0  0  0  0
  3  8  1  0  0  0  0
  3  2  2  0  0  0  0
  4  3  1  0  0  0  0
  5  4  2  0  0  0  0
  5  6  1  0  0  0  0
  6  1  2  0  0  0  0
  9  5  1  0  0  0  0
 10  9  1  0  0  0  0
 11 10  2  0  0  0  0
 12 13  2  0  0  0  0
 12 11  1  0  0  0  0
 13 18  1  0  0  0  0
 14 15  2  0  0  0  0
 14 13  1  0  0  0  0
 15 16  1  0  0  0  0
 16 17  2  0  0  0  0
 18 17  1  0  0  0  0
 18  9  2  0  0  0  0
 19 21  1  0  0  0  0
 20 19  2  0  0  0  0
 21 22  1  0  0  0  0
 22 23  1  0  0  0  0
 22 24  1  0  0  0  0
 25 22  1  0  0  0  0
M  END
>  <minimizedAffinity>
-6.25859547

>  <minimizedRMSD>
1.34622085

$$$$
