
 OpenBabel03252512183D

 41 46  0  0  0  0  0  0  0  0999 V2000
   31.7610   29.8460   46.0260 C   0  0  0  0  0  0  0  0  0  0  0  0
   31.4160   28.4940   46.0000 C   0  0  0  0  0  0  0  0  0  0  0  0
   32.3240   27.5690   46.5190 C   0  0  0  0  0  0  0  0  0  0  0  0
   33.4960   28.0180   47.0240 N   0  0  0  0  0  0  0  0  0  0  0  0
   33.8000   29.3460   47.0350 C   0  0  0  0  0  0  0  0  0  0  0  0
   32.9430   30.2460   46.5420 N   0  0  0  0  0  0  0  0  0  0  0  0
   31.1270   30.6370   45.6500 H   0  0  0  0  0  0  0  0  0  0  0  0
   30.4670   28.2430   45.5770 H   0  0  0  0  0  0  0  0  0  0  0  0
   35.0860   29.7210   47.6010 C   0  0  0  0  0  0  0  0  0  0  0  0
   36.1290   30.2650   46.8420 C   0  0  0  0  0  0  0  0  0  0  0  0
   37.1800   30.5120   47.6320 N   0  0  0  0  0  0  0  0  0  0  0  0
   36.8550   30.1440   48.8950 C   0  0  0  0  0  0  0  0  0  0  0  0
   37.5830   30.1950   50.0680 C   0  0  0  0  0  0  0  0  0  0  0  0
   36.9660   29.7350   51.2340 C   0  0  0  0  0  0  0  0  0  0  0  0
   35.6670   29.2490   51.1910 C   0  0  0  0  0  0  0  0  0  0  0  0
   34.9280   29.1950   50.0100 C   0  0  0  0  0  0  0  0  0  0  0  0
   35.5580   29.6520   48.8810 C   0  0  0  0  0  0  0  0  0  0  0  0
   36.1860   30.4910   45.7860 H   0  0  0  0  0  0  0  0  0  0  0  0
   38.1100   30.9130   47.3820 H   0  0  0  0  0  0  0  0  0  0  0  0
   38.5940   30.5730   50.0980 H   0  0  0  0  0  0  0  0  0  0  0  0
   37.4760   29.7460   52.1890 H   0  0  0  0  0  0  0  0  0  0  0  0
   35.1610   28.8830   52.0890 H   0  0  0  0  0  0  0  0  0  0  0  0
   33.9260   28.8190   49.9860 H   0  0  0  0  0  0  0  0  0  0  0  0
   32.0020   26.1570   46.5110 C   0  0  0  0  0  0  0  0  0  0  0  0
   32.7710   25.2890   47.2390 C   0  0  0  0  0  0  0  0  0  0  0  0
   32.4040   23.9690   47.1960 C   0  0  0  0  0  0  0  0  0  0  0  0
   31.3320   23.5450   46.4680 N   0  0  0  0  0  0  0  0  0  0  0  0
   30.5840   24.4300   45.7540 C   0  0  0  0  0  0  0  0  0  0  0  0
   30.9740   25.7060   45.8210 N   0  0  0  0  0  0  0  0  0  0  0  0
   33.6140   25.6380   47.8080 H   0  0  0  0  0  0  0  0  0  0  0  0
   32.9720   23.2390   47.7490 H   0  0  0  0  0  0  0  0  0  0  0  0
   29.4910   23.8250   45.0400 C   0  0  0  0  0  0  0  0  0  0  0  0
   28.9380   24.4910   43.9660 C   0  0  0  0  0  0  0  0  0  0  0  0
   27.8930   24.0040   43.2160 C   0  0  0  0  0  0  0  0  0  0  0  0
   27.3210   22.7930   43.4990 C   0  0  0  0  0  0  0  0  0  0  0  0
   27.8270   22.0800   44.5580 C   0  0  0  0  0  0  0  0  0  0  0  0
   27.2830   20.8560   44.8800 C   0  0  0  0  0  0  0  0  0  0  0  0
   27.7580   20.1010   45.9340 C   0  0  0  0  0  0  0  0  0  0  0  0
   28.8220   20.6340   46.6690 C   0  0  0  0  0  0  0  0  0  0  0  0
   29.3300   21.8580   46.3110 C   0  0  0  0  0  0  0  0  0  0  0  0
   28.8720   22.6220   45.2680 C   0  0  0  0  0  0  0  0  0  0  0  0
  1  6  1  0  0  0  0
  2  1  2  0  0  0  0
  2  3  1  0  0  0  0
  3  4  2  0  0  0  0
  4  5  1  0  0  0  0
  5  9  1  0  0  0  0
  6  5  2  0  0  0  0
  7  1  1  0  0  0  0
  8  2  1  0  0  0  0
  9 17  1  0  0  0  0
 10  9  2  0  0  0  0
 10 11  1  0  0  0  0
 11 12  1  0  0  0  0
 12 13  1  0  0  0  0
 13 20  1  0  0  0  0
 13 14  2  0  0  0  0
 14 21  1  0  0  0  0
 15 14  1  0  0  0  0
 15 22  1  0  0  0  0
 16 15  2  0  0  0  0
 17 12  2  0  0  0  0
 17 16  1  0  0  0  0
 18 10  1  0  0  0  0
 19 11  1  0  0  0  0
 23 16  1  0  0  0  0
 24  3  1  0  0  0  0
 24 25  1  0  0  0  0
 25 30  1  0  0  0  0
 26 25  2  0  0  0  0
 26 31  1  0  0  0  0
 27 26  1  0  0  0  0
 28 29  1  0  0  0  0
 28 27  2  0  0  0  0
 29 24  2  0  0  0  0
 32 41  1  0  0  0  0
 32 28  1  0  0  0  0
 33 32  2  0  0  0  0
 34 35  2  0  0  0  0
 34 33  1  0  0  0  0
 35 36  1  0  0  0  0
 36 37  2  0  0  0  0
 36 41  1  0  0  0  0
 37 38  1  0  0  0  0
 38 39  2  0  0  0  0
 40 39  1  0  0  0  0
 41 40  2  0  0  0  0
M  END
>  <minimizedAffinity>
-7.26348639

>  <minimizedRMSD>
0.994882584

$$$$
