
 OpenBabel03252513483D

 26 28  0  0  0  0  0  0  0  0999 V2000
   36.6960   29.9350   48.6970 C   0  0  0  0  0  0  0  0  0  0  0  0
   37.6930   30.4610   47.8380 C   0  0  0  0  0  0  0  0  0  0  0  0
   37.3530   30.7320   46.5150 C   0  0  0  0  0  0  0  0  0  0  0  0
   36.0790   30.4650   46.1610 N   0  0  0  0  0  0  0  0  0  0  0  0
   35.1550   29.9700   46.9820 C   0  0  0  0  0  0  0  0  0  0  0  0
   35.4730   29.7130   48.2340 N   0  0  0  0  0  0  0  0  0  0  0  0
   38.6350   30.6010   48.3290 H   0  0  0  0  0  0  0  0  0  0  0  0
   38.4090   31.2850   45.6920 C   0  0  0  0  0  0  0  0  0  0  0  0
   38.9040   32.5530   45.9040 C   0  0  0  0  0  3  0  0  0  0  0  0
   39.8910   33.1320   45.1580 C   0  0  0  0  0  3  0  0  0  0  0  0
   40.4770   32.4590   44.1070 C   0  0  0  0  0  3  0  0  0  0  0  0
   40.0270   31.1940   43.8470 C   0  0  0  0  0  0  0  0  0  0  0  0
   40.5960   30.5090   42.7960 C   0  0  0  0  0  3  0  0  0  0  0  0
   40.1930   29.2400   42.4700 C   0  0  0  0  0  3  0  0  0  0  0  0
   39.1800   28.6780   43.2530 C   0  0  0  0  0  3  0  0  0  0  0  0
   38.6510   29.3980   44.2820 C   0  0  0  0  0  3  0  0  0  0  0  0
   39.0310   30.6650   44.6320 C   0  0  0  0  0  0  0  0  0  0  0  0
   33.8130   29.7570   46.3790 C   0  0  0  0  0  0  0  0  0  0  0  0
   32.9940   30.8760   46.6110 F   0  0  0  0  0  0  0  0  0  0  0  0
   33.9050   29.6190   45.0220 F   0  0  0  0  0  0  0  0  0  0  0  0
   33.1880   28.6190   46.8810 F   0  0  0  0  0  0  0  0  0  0  0  0
   37.0330   29.6640   50.0180 O   0  0  0  0  0  0  0  0  0  0  0  0
   37.4230   30.6040   50.9530 C   0  0  0  0  0  0  0  0  0  0  0  0
   38.7820   30.8900   50.9540 F   0  0  0  0  0  0  0  0  0  0  0  0
   36.6900   31.7780   50.8950 F   0  0  0  0  0  0  0  0  0  0  0  0
   37.1330   30.0260   52.1960 F   0  0  0  0  0  0  0  0  0  0  0  0
  1 22  1  0  0  0  0
  2  7  1  0  0  0  0
  2  1  2  0  0  0  0
  3  2  1  0  0  0  0
  4  3  2  0  0  0  0
  4  5  1  0  0  0  0
  5  6  2  0  0  0  0
  6  1  1  0  0  0  0
  8  9  1  0  0  0  0
  8  3  1  0  0  0  0
 10  9  2  0  0  0  0
 11 10  1  0  0  0  0
 12 11  2  0  0  0  0
 12 17  1  0  0  0  0
 13 12  1  0  0  0  0
 14 13  2  0  0  0  0
 14 15  1  0  0  0  0
 15 16  2  0  0  0  0
 16 17  1  0  0  0  0
 17  8  2  0  0  0  0
 18 19  1  0  0  0  0
 18 21  1  0  0  0  0
 18  5  1  0  0  0  0
 20 18  1  0  0  0  0
 22 23  1  0  0  0  0
 23 24  1  0  0  0  0
 23 26  1  0  0  0  0
 25 23  1  0  0  0  0
M  END
>  <minimizedAffinity>
-6.7452631

>  <minimizedRMSD>
6.57801867

$$$$
