
 OpenBabel03252512233D

 26 29  0  0  0  0  0  0  0  0999 V2000
   36.0470   30.4100   48.7050 C   0  0  0  0  0  0  0  0  0  0  0  0
   35.9320   29.3900   49.6820 C   0  0  0  0  0  0  0  0  0  0  0  0
   34.8640   28.5570   49.5780 C   0  0  0  0  0  0  0  0  0  0  0  0
   33.9880   28.7280   48.5860 C   0  0  0  0  0  0  0  0  0  0  0  0
   34.6150   30.1180   47.6890 S   0  0  0  0  0  0  0  0  0  0  0  0
   36.7410   29.3980   50.4230 H   0  0  0  0  0  0  0  0  0  0  0  0
   34.8640   27.8000   50.3830 H   0  0  0  0  0  0  0  0  0  0  0  0
   32.8410   27.8250   48.4850 C   0  0  0  0  0  0  0  0  0  0  0  0
   31.6380   28.0360   49.1140 C   0  0  0  0  0  0  0  0  0  0  0  0
   30.5730   27.2090   49.0250 C   0  0  0  0  0  0  0  0  0  0  0  0
   30.6170   26.0710   48.2840 C   0  0  0  0  0  0  0  0  0  0  0  0
   31.7950   25.7970   47.6260 C   0  0  0  0  0  0  0  0  0  0  0  0
   31.8460   24.6580   46.8800 C   0  0  0  0  0  0  0  0  0  0  0  0
   32.9760   24.2910   46.1810 C   0  0  0  0  0  0  0  0  0  0  0  0
   34.0740   25.1430   46.2720 C   0  0  0  0  0  0  0  0  0  0  0  0
   33.9610   26.2700   47.0350 C   0  0  0  0  0  0  0  0  0  0  0  0
   32.8670   26.6740   47.7410 C   0  0  0  0  0  0  0  0  0  0  0  0
   38.2260   33.2690   49.5150 C   0  0  0  0  0  0  0  0  0  0  0  0
   39.1190   33.2820   48.4290 C   0  0  0  0  0  0  0  0  0  0  0  0
   38.9550   32.3020   47.4330 C   0  0  0  0  0  0  0  0  0  0  0  0
   37.9430   31.3990   47.5750 N   0  0  0  0  0  0  0  0  0  0  0  0
   37.1170   31.4240   48.6240 C   0  0  0  0  0  0  0  0  0  0  0  0
   37.2290   32.3470   49.6160 N   0  0  0  0  0  0  0  0  0  0  0  0
   38.2970   34.0010   50.3230 H   0  0  0  0  0  0  0  0  0  0  0  0
   39.8970   34.0220   48.3760 H   0  0  0  0  0  0  0  0  0  0  0  0
   39.6140   32.2720   46.5840 H   0  0  0  0  0  0  0  0  0  0  0  0
  1  2  2  0  0  0  0
  2  6  1  0  0  0  0
  3  2  1  0  0  0  0
  3  7  1  0  0  0  0
  4  3  2  0  0  0  0
  5  4  1  0  0  0  0
  5  1  1  0  0  0  0
  8  4  1  0  0  0  0
  8  9  1  0  0  0  0
 10  9  2  0  0  0  0
 11 10  1  0  0  0  0
 12 17  1  0  0  0  0
 12 11  2  0  0  0  0
 13 12  1  0  0  0  0
 14 15  1  0  0  0  0
 14 13  2  0  0  0  0
 15 16  2  0  0  0  0
 16 17  1  0  0  0  0
 17  8  2  0  0  0  0
 18 23  1  0  0  0  0
 18 24  1  0  0  0  0
 19 18  2  0  0  0  0
 20 21  2  0  0  0  0
 20 19  1  0  0  0  0
 21 22  1  0  0  0  0
 22  1  1  0  0  0  0
 22 23  2  0  0  0  0
 25 19  1  0  0  0  0
 26 20  1  0  0  0  0
M  END
>  <minimizedAffinity>
-5.91825294

>  <minimizedRMSD>
2.5169096

$$$$
