
 OpenBabel03252513493D

 26 28  0  0  0  0  0  0  0  0999 V2000
   36.0990   29.3430   48.8320 C   0  0  0  0  0  0  0  0  0  0  0  0
   37.1650   30.1210   48.3120 C   0  0  0  0  0  0  0  0  0  0  0  0
   37.0130   30.6950   47.0530 C   0  0  0  0  0  0  0  0  0  0  0  0
   35.8440   30.4570   46.4260 N   0  0  0  0  0  0  0  0  0  0  0  0
   34.8540   29.7230   46.9290 C   0  0  0  0  0  0  0  0  0  0  0  0
   34.9920   29.1780   48.1200 N   0  0  0  0  0  0  0  0  0  0  0  0
   37.9990   30.1840   48.9820 H   0  0  0  0  0  0  0  0  0  0  0  0
   38.1290   31.4930   46.5860 C   0  0  0  0  0  0  0  0  0  0  0  0
   38.6900   31.2950   45.3440 C   0  0  0  0  0  3  0  0  0  0  0  0
   39.7470   32.0070   44.8510 C   0  0  0  0  0  3  0  0  0  0  0  0
   40.3410   33.0060   45.5940 C   0  0  0  0  0  3  0  0  0  0  0  0
   39.8260   33.2490   46.8360 C   0  0  0  0  0  0  0  0  0  0  0  0
   40.4110   34.2400   47.5950 C   0  0  0  0  0  3  0  0  0  0  0  0
   39.9560   34.5360   48.8540 C   0  0  0  0  0  3  0  0  0  0  0  0
   38.8750   33.7880   49.3270 C   0  0  0  0  0  3  0  0  0  0  0  0
   38.3320   32.8190   48.5360 C   0  0  0  0  0  3  0  0  0  0  0  0
   38.7630   32.5000   47.2780 C   0  0  0  0  0  0  0  0  0  0  0  0
   33.6500   29.5960   46.0650 C   0  0  0  0  0  0  0  0  0  0  0  0
   32.7310   30.6170   46.3600 F   0  0  0  0  0  0  0  0  0  0  0  0
   33.9800   29.7400   44.7460 F   0  0  0  0  0  0  0  0  0  0  0  0
   33.0260   28.3610   46.2140 F   0  0  0  0  0  0  0  0  0  0  0  0
   36.2470   28.7690   50.0890 O   0  0  0  0  0  0  0  0  0  0  0  0
   36.5300   29.4550   51.2540 C   0  0  0  0  0  0  0  0  0  0  0  0
   37.6100   28.9580   51.9710 F   0  0  0  0  0  0  0  0  0  0  0  0
   36.6710   30.8210   51.0690 F   0  0  0  0  0  0  0  0  0  0  0  0
   35.3990   29.2870   52.0620 F   0  0  0  0  0  0  0  0  0  0  0  0
  1 22  1  0  0  0  0
  2  1  1  0  0  0  0
  2  7  1  0  0  0  0
  3  2  2  0  0  0  0
  4  5  2  0  0  0  0
  4  3  1  0  0  0  0
  5  6  1  0  0  0  0
  6  1  2  0  0  0  0
  8  3  1  0  0  0  0
  8 17  1  0  0  0  0
  9  8  2  0  0  0  0
 10  9  1  0  0  0  0
 10 11  2  0  0  0  0
 11 12  1  0  0  0  0
 12 17  2  0  0  0  0
 12 13  1  0  0  0  0
 13 14  2  0  0  0  0
 14 15  1  0  0  0  0
 16 15  2  0  0  0  0
 17 16  1  0  0  0  0
 18 21  1  0  0  0  0
 18 19  1  0  0  0  0
 18  5  1  0  0  0  0
 20 18  1  0  0  0  0
 22 23  1  0  0  0  0
 23 24  1  0  0  0  0
 23 26  1  0  0  0  0
 25 23  1  0  0  0  0
M  END
>  <minimizedAffinity>
-7.01863003

>  <minimizedRMSD>
4.74742317

$$$$
