
 OpenBabel03252513463D

 23 25  0  0  0  0  0  0  0  0999 V2000
   38.1350   31.0910   49.4120 C   0  0  0  0  0  0  0  0  0  0  0  0
   38.2920   32.3770   49.9540 C   0  0  0  0  0  0  0  0  0  0  0  0
   38.7820   33.3630   49.1120 C   0  0  0  0  0  0  0  0  0  0  0  0
   39.0850   33.0590   47.8330 N   0  0  0  0  0  0  0  0  0  0  0  0
   38.9270   31.8300   47.3390 C   0  0  0  0  0  0  0  0  0  0  0  0
   38.4590   30.8940   48.1450 N   0  0  0  0  0  0  0  0  0  0  0  0
   38.0470   32.6020   50.9700 H   0  0  0  0  0  0  0  0  0  0  0  0
   38.9400   34.3700   49.4160 H   0  0  0  0  0  0  0  0  0  0  0  0
   39.1880   31.3070   45.9920 C   0  0  0  0  0  0  0  0  0  0  0  0
   40.4520   31.3170   45.3860 C   0  0  0  0  0  3  0  0  0  0  0  0
   40.7120   30.8320   44.1340 C   0  0  0  0  0  3  0  0  0  0  0  0
   39.7000   30.2920   43.3860 C   0  0  0  0  0  3  0  0  0  0  0  0
   38.4510   30.2500   43.9110 C   0  0  0  0  0  0  0  0  0  0  0  0
   37.4630   29.6980   43.1290 C   0  0  0  0  0  3  0  0  0  0  0  0
   36.1740   29.6140   43.5840 C   0  0  0  0  0  3  0  0  0  0  0  0
   35.9140   30.1110   44.8670 C   0  0  0  0  0  3  0  0  0  0  0  0
   36.9420   30.6540   45.6050 C   0  0  0  0  0  3  0  0  0  0  0  0
   38.2390   30.7480   45.1700 C   0  0  0  0  0  0  0  0  0  0  0  0
   37.6530   30.0850   50.2120 O   0  0  0  0  0  0  0  0  0  0  0  0
   36.3210   29.7650   50.4200 C   0  0  0  0  0  0  0  0  0  0  0  0
   36.0280   29.4520   51.7320 F   0  0  0  0  0  0  0  0  0  0  0  0
   35.4480   30.7170   49.9430 F   0  0  0  0  0  0  0  0  0  0  0  0
   36.0830   28.6030   49.6600 F   0  0  0  0  0  0  0  0  0  0  0  0
  1  2  1  0  0  0  0
  1 19  1  0  0  0  0
  2  7  1  0  0  0  0
  3  8  1  0  0  0  0
  3  2  2  0  0  0  0
  4  3  1  0  0  0  0
  5  4  2  0  0  0  0
  5  6  1  0  0  0  0
  6  1  2  0  0  0  0
  9  5  1  0  0  0  0
 10  9  1  0  0  0  0
 11 10  2  0  0  0  0
 12 13  2  0  0  0  0
 12 11  1  0  0  0  0
 13 18  1  0  0  0  0
 14 15  2  0  0  0  0
 14 13  1  0  0  0  0
 15 16  1  0  0  0  0
 16 17  2  0  0  0  0
 18 17  1  0  0  0  0
 18  9  2  0  0  0  0
 19 20  1  0  0  0  0
 20 21  1  0  0  0  0
 22 20  1  0  0  0  0
 23 20  1  0  0  0  0
M  END
>  <minimizedAffinity>
-6.32494402

>  <minimizedRMSD>
1.06523943

$$$$
