
 OpenBabel03252511473D

 42 47  0  0  1  0  0  0  0  0999 V2000
   35.3420   30.3580   47.2260 C   0  0  0  0  0  0  0  0  0  0  0  0
   36.3880   30.5340   48.1140 C   0  0  0  0  0  0  0  0  0  0  0  0
   36.4580   29.5560   49.1550 C   0  0  0  0  0  0  0  0  0  0  0  0
   35.5350   28.5540   49.2110 N   0  0  0  0  0  0  0  0  0  0  0  0
   34.5560   28.4470   48.3250 C   0  0  0  0  0  0  0  0  0  0  0  0
   34.4640   29.3470   47.3390 N   0  0  0  0  0  0  0  0  0  0  0  0
   35.3310   31.1200   46.4590 H   0  0  0  0  0  0  0  0  0  0  0  0
   37.2170   29.5510   49.9300 H   0  0  0  0  0  0  0  0  0  0  0  0
   37.4220   31.5510   48.1570 C   0  0  0  0  0  0  0  0  0  0  0  0
   37.4240   32.2230   49.3420 C   0  0  0  0  0  0  0  0  0  0  0  0
   38.3410   33.2450   49.5950 C   0  0  0  0  0  0  0  0  0  0  0  0
   39.2660   33.5850   48.6260 C   0  0  0  0  0  0  0  0  0  0  0  0
   39.2470   32.8940   47.4360 C   0  0  0  0  0  0  0  0  0  0  0  0
   40.1440   33.1680   46.3990 C   0  0  0  0  0  0  0  0  0  0  0  0
   40.0770   32.4340   45.2110 C   0  0  0  0  0  0  0  0  0  0  0  0
   39.1510   31.4390   45.0220 C   0  0  0  0  0  0  0  0  0  0  0  0
   38.2640   31.1690   46.0520 C   0  0  0  0  0  0  0  0  0  0  0  0
   38.3460   31.8980   47.2060 C   0  0  0  0  0  0  0  0  0  0  0  0
   36.7670   32.0670   50.1800 H   0  0  0  0  0  0  0  0  0  0  0  0
   38.3790   33.8050   50.5170 H   0  0  0  0  0  0  0  0  0  0  0  0
   39.9950   34.3720   48.7840 H   0  0  0  0  0  0  0  0  0  0  0  0
   40.8600   33.9580   46.5810 H   0  0  0  0  0  0  0  0  0  0  0  0
   40.7980   32.6930   44.4460 H   0  0  0  0  0  0  0  0  0  0  0  0
   39.1510   30.9080   44.0830 H   0  0  0  0  0  0  0  0  0  0  0  0
   37.5270   30.3710   45.8920 H   0  0  0  0  0  0  0  0  0  0  0  0
   33.5710   27.3470   48.4280 C   0  0  1  0  0  0  0  0  0  0  0  0
   32.1410   27.6520   48.6970 C   0  0  0  0  0  0  0  0  0  0  0  0
   32.5700   27.1180   47.3290 C   0  0  2  0  0  0  0  0  0  0  0  0
   33.9140   26.4220   48.9660 H   0  0  0  0  0  0  0  0  0  0  0  0
   31.8390   28.7350   48.7030 H   0  0  0  0  0  0  0  0  0  0  0  0
   31.5280   27.0340   49.3550 H   0  0  0  0  0  0  0  0  0  0  0  0
   32.6130   27.8470   46.4950 H   0  0  0  0  0  0  0  0  0  0  0  0
   32.1510   25.7540   46.9980 C   0  0  0  0  0  0  0  0  0  0  0  0
   33.1730   24.8400   47.2640 C   0  0  0  0  0  0  0  0  0  0  0  0
   33.0280   23.4830   46.9860 C   0  0  0  0  0  0  0  0  0  0  0  0
   31.8340   23.0430   46.4320 C   0  0  0  0  0  0  0  0  0  0  0  0
   30.8230   23.9290   46.1680 C   0  0  0  0  0  0  0  0  0  0  0  0
   29.5850   23.5830   45.6260 C   0  0  0  0  0  0  0  0  0  0  0  0
   28.6040   24.5490   45.3990 C   0  0  0  0  0  0  0  0  0  0  0  0
   28.8200   25.8760   45.7020 C   0  0  0  0  0  0  0  0  0  0  0  0
   30.0420   26.2280   46.2390 C   0  0  0  0  0  0  0  0  0  0  0  0
   30.9950   25.2560   46.4520 C   0  0  0  0  0  0  0  0  0  0  0  0
  1  6  2  0  0  0  0
  1  2  1  0  0  0  0
  2  9  1  0  0  0  0
  2  3  2  0  0  0  0
  3  4  1  0  0  0  0
  3  8  1  0  0  0  0
  5 26  1  0  0  0  0
  5  4  2  0  0  0  0
  6  5  1  0  0  0  0
  7  1  1  0  0  0  0
  9 10  1  0  0  0  0
 10 11  2  0  0  0  0
 10 19  1  0  0  0  0
 11 20  1  0  0  0  0
 12 21  1  0  0  0  0
 12 11  1  0  0  0  0
 13 12  2  0  0  0  0
 14 22  1  0  0  0  0
 14 13  1  0  0  0  0
 15 14  2  0  0  0  0
 16 15  1  0  0  0  0
 16 17  2  0  0  0  0
 17 18  1  0  0  0  0
 18 13  1  0  0  0  0
 18  9  2  0  0  0  0
 23 15  1  0  0  0  0
 24 16  1  0  0  0  0
 25 17  1  0  0  0  0
 26 27  1  0  0  0  0
 26 29  1  1  0  0  0
 27 30  1  0  0  0  0
 27 31  1  0  0  0  0
 28 32  1  6  0  0  0
 28 26  1  0  0  0  0
 28 27  1  0  0  0  0
 33 34  1  0  0  0  0
 33 28  1  0  0  0  0
 35 34  2  0  0  0  0
 36 35  1  0  0  0  0
 37 36  2  0  0  0  0
 37 42  1  0  0  0  0
 38 37  1  0  0  0  0
 39 38  2  0  0  0  0
 39 40  1  0  0  0  0
 40 41  2  0  0  0  0
 41 42  1  0  0  0  0
 42 33  2  0  0  0  0
M  END
>  <minimizedAffinity>
-7.45398092

>  <minimizedRMSD>
1.80130374

$$$$
