
 OpenBabel03252511583D

 38 42  0  0  0  0  0  0  0  0999 V2000
   36.3840   30.3030   47.4910 N   0  0  0  0  0  0  0  0  0  0  0  0
   35.1230   30.0080   47.0880 C   0  0  0  0  0  0  0  0  0  0  0  0
   34.7580   30.1210   45.7610 C   0  0  0  0  0  0  0  0  0  0  0  0
   35.7610   30.5440   44.9270 C   0  0  0  0  0  0  0  0  0  0  0  0
   35.4700   30.6620   43.6870 O   0  0  0  0  0  0  0  0  0  0  0  0
   37.0280   30.8480   45.2770 N   0  0  0  0  0  0  0  0  0  0  0  0
   37.2800   30.7040   46.5930 C   0  0  0  0  0  0  0  0  0  0  0  0
   38.4380   30.9680   46.9820 O   0  0  0  0  0  0  0  0  0  0  0  0
   34.3590   29.6750   47.7960 H   0  0  0  0  0  0  0  0  0  0  0  0
   33.7700   29.9010   45.3860 H   0  0  0  0  0  0  0  0  0  0  0  0
   36.9150   31.4040   49.4990 C   0  0  0  0  0  0  0  0  0  0  0  0
   36.6750   30.1650   48.8480 C   0  0  0  0  0  0  0  0  0  0  0  0
   36.7650   29.0070   49.5970 C   0  0  0  0  0  0  0  0  0  0  0  0
   37.0740   29.0730   50.9130 N   0  0  0  0  0  0  0  0  0  0  0  0
   37.3030   30.2770   51.5170 C   0  0  0  0  0  0  0  0  0  0  0  0
   37.2200   31.4410   50.8010 N   0  0  0  0  0  0  0  0  0  0  0  0
   36.9070   32.4420   49.2030 H   0  0  0  0  0  0  0  0  0  0  0  0
   36.5700   28.1180   49.0380 H   0  0  0  0  0  0  0  0  0  0  0  0
   37.5350   30.1390   52.5630 H   0  0  0  0  0  0  0  0  0  0  0  0
   37.9600   31.2760   44.3170 C   0  0  0  0  0  0  0  0  0  0  0  0
   38.3900   32.5420   44.0670 C   0  0  0  0  0  0  0  0  0  0  0  0
   39.2990   32.8740   43.1110 C   0  0  0  0  0  0  0  0  0  0  0  0
   39.8300   31.8740   42.3330 C   0  0  0  0  0  0  0  0  0  0  0  0
   39.4040   30.5580   42.5720 C   0  0  0  0  0  0  0  0  0  0  0  0
   38.4980   30.3110   43.5390 N   0  0  0  0  0  0  0  0  0  0  0  0
   37.9650   33.3220   44.6860 H   0  0  0  0  0  0  0  0  0  0  0  0
   39.5880   33.9090   42.9770 H   0  0  0  0  0  0  0  0  0  0  0  0
   40.5040   32.1920   41.5690 H   0  0  0  0  0  0  0  0  0  0  0  0
   39.7960   29.3980   41.7990 C   0  0  0  0  0  0  0  0  0  0  0  0
   39.1890   28.1790   42.1520 C   0  0  0  0  0  0  0  0  0  0  0  0
   39.4370   26.9710   41.5500 C   0  0  0  0  0  0  0  0  0  0  0  0
   40.3420   26.8960   40.5180 C   0  0  0  0  0  0  0  0  0  0  0  0
   40.9720   28.0540   40.1290 C   0  0  0  0  0  0  0  0  0  0  0  0
   41.9200   28.0570   39.1290 C   0  0  0  0  0  0  0  0  0  0  0  0
   42.6080   29.1990   38.7340 C   0  0  0  0  0  0  0  0  0  0  0  0
   42.2930   30.3660   39.4060 C   0  0  0  0  0  0  0  0  0  0  0  0
   41.3490   30.3600   40.4000 C   0  0  0  0  0  0  0  0  0  0  0  0
   40.6800   29.2240   40.7720 C   0  0  0  0  0  0  0  0  0  0  0  0
  1 12  1  0  0  0  0
  2  1  1  0  0  0  0
  2  9  1  0  0  0  0
  3  2  2  0  0  0  0
  4  6  1  0  0  0  0
  4  3  1  0  0  0  0
  5  4  2  0  0  0  0
  6  7  1  0  0  0  0
  7  8  2  0  0  0  0
  7  1  1  0  0  0  0
 10  3  1  0  0  0  0
 11 16  1  0  0  0  0
 12 11  2  0  0  0  0
 12 13  1  0  0  0  0
 13 14  2  0  0  0  0
 14 15  1  0  0  0  0
 15 19  1  0  0  0  0
 16 15  2  0  0  0  0
 17 11  1  0  0  0  0
 18 13  1  0  0  0  0
 20  6  1  0  0  0  0
 21 20  1  0  0  0  0
 21 26  1  0  0  0  0
 22 21  2  0  0  0  0
 23 24  2  0  0  0  0
 23 22  1  0  0  0  0
 24 25  1  0  0  0  0
 25 20  2  0  0  0  0
 27 22  1  0  0  0  0
 28 23  1  0  0  0  0
 29 30  1  0  0  0  0
 29 24  1  0  0  0  0
 31 30  2  0  0  0  0
 32 31  1  0  0  0  0
 33 32  2  0  0  0  0
 33 38  1  0  0  0  0
 34 33  1  0  0  0  0
 35 34  2  0  0  0  0
 35 36  1  0  0  0  0
 36 37  2  0  0  0  0
 37 38  1  0  0  0  0
 38 29  2  0  0  0  0
M  END
>  <minimizedAffinity>
-6.05357218

>  <minimizedRMSD>
0.774630666

$$$$
