
 OpenBabel03252513453D

 23 25  0  0  0  0  0  0  0  0999 V2000
   37.9340   30.6620   49.0490 C   0  0  0  0  0  0  0  0  0  0  0  0
   38.2430   31.9090   49.6170 C   0  0  0  0  0  0  0  0  0  0  0  0
   38.7780   32.8720   48.7770 C   0  0  0  0  0  0  0  0  0  0  0  0
   38.9790   32.5850   47.4740 N   0  0  0  0  0  0  0  0  0  0  0  0
   38.6780   31.3940   46.9560 C   0  0  0  0  0  0  0  0  0  0  0  0
   38.1680   30.4790   47.7610 N   0  0  0  0  0  0  0  0  0  0  0  0
   38.0770   32.1200   50.6530 H   0  0  0  0  0  0  0  0  0  0  0  0
   39.0480   33.8490   49.1000 H   0  0  0  0  0  0  0  0  0  0  0  0
   38.8130   30.8940   45.5810 C   0  0  0  0  0  0  0  0  0  0  0  0
   38.6820   29.5430   45.2300 C   0  0  0  0  0  3  0  0  0  0  0  0
   38.8030   29.0630   43.9540 C   0  0  0  0  0  3  0  0  0  0  0  0
   39.0680   29.9240   42.9210 C   0  0  0  0  0  3  0  0  0  0  0  0
   39.2060   31.2440   43.1910 C   0  0  0  0  0  0  0  0  0  0  0  0
   39.4690   32.0760   42.1270 C   0  0  0  0  0  3  0  0  0  0  0  0
   39.6200   33.4240   42.3100 C   0  0  0  0  0  3  0  0  0  0  0  0
   39.4950   33.9090   43.6170 C   0  0  0  0  0  3  0  0  0  0  0  0
   39.2320   33.0320   44.6440 C   0  0  0  0  0  3  0  0  0  0  0  0
   39.0760   31.6790   44.4840 C   0  0  0  0  0  0  0  0  0  0  0  0
   37.4030   29.6790   49.8470 O   0  0  0  0  0  0  0  0  0  0  0  0
   36.0770   29.5540   50.2280 C   0  0  0  0  0  0  0  0  0  0  0  0
   35.9060   29.4080   51.5890 F   0  0  0  0  0  0  0  0  0  0  0  0
   35.2710   30.5600   49.7430 F   0  0  0  0  0  0  0  0  0  0  0  0
   35.6170   28.3660   49.6270 F   0  0  0  0  0  0  0  0  0  0  0  0
  1  2  1  0  0  0  0
  1 19  1  0  0  0  0
  2  7  1  0  0  0  0
  3  8  1  0  0  0  0
  3  2  2  0  0  0  0
  4  3  1  0  0  0  0
  5  4  2  0  0  0  0
  5  6  1  0  0  0  0
  6  1  2  0  0  0  0
  9  5  1  0  0  0  0
 10  9  1  0  0  0  0
 11 10  2  0  0  0  0
 12 13  2  0  0  0  0
 12 11  1  0  0  0  0
 13 18  1  0  0  0  0
 14 15  2  0  0  0  0
 14 13  1  0  0  0  0
 15 16  1  0  0  0  0
 16 17  2  0  0  0  0
 18 17  1  0  0  0  0
 18  9  2  0  0  0  0
 19 20  1  0  0  0  0
 20 21  1  0  0  0  0
 22 20  1  0  0  0  0
 23 20  1  0  0  0  0
M  END
>  <minimizedAffinity>
-5.26385927

>  <minimizedRMSD>
0.760601699

$$$$
