
 OpenBabel03252513453D

 23 25  0  0  0  0  0  0  0  0999 V2000
   37.9760   30.7420   48.3900 C   0  0  0  0  0  0  0  0  0  0  0  0
   38.4490   31.9920   48.8240 C   0  0  0  0  0  0  0  0  0  0  0  0
   38.9830   32.8350   47.8620 C   0  0  0  0  0  0  0  0  0  0  0  0
   39.0300   32.4340   46.5740 N   0  0  0  0  0  0  0  0  0  0  0  0
   38.5750   31.2430   46.1850 C   0  0  0  0  0  0  0  0  0  0  0  0
   38.0650   30.4430   47.1050 N   0  0  0  0  0  0  0  0  0  0  0  0
   38.4040   32.2940   49.8490 H   0  0  0  0  0  0  0  0  0  0  0  0
   39.3710   33.8020   48.0780 H   0  0  0  0  0  0  0  0  0  0  0  0
   38.5300   30.6330   44.8490 C   0  0  0  0  0  0  0  0  0  0  0  0
   39.2360   29.4740   44.5010 C   0  0  0  0  0  3  0  0  0  0  0  0
   39.2030   28.8930   43.2630 C   0  0  0  0  0  3  0  0  0  0  0  0
   38.4430   29.4460   42.2680 C   0  0  0  0  0  3  0  0  0  0  0  0
   37.7330   30.5680   42.5360 C   0  0  0  0  0  0  0  0  0  0  0  0
   36.9790   31.0930   41.5110 C   0  0  0  0  0  3  0  0  0  0  0  0
   36.2300   32.2230   41.6970 C   0  0  0  0  0  3  0  0  0  0  0  0
   36.2670   32.8120   42.9660 C   0  0  0  0  0  3  0  0  0  0  0  0
   37.0390   32.2460   43.9560 C   0  0  0  0  0  3  0  0  0  0  0  0
   37.7960   31.1150   43.7910 C   0  0  0  0  0  0  0  0  0  0  0  0
   37.4390   29.8770   49.3110 O   0  0  0  0  0  0  0  0  0  0  0  0
   36.0960   29.7290   49.6170 C   0  0  0  0  0  0  0  0  0  0  0  0
   35.8710   29.2360   50.8850 F   0  0  0  0  0  0  0  0  0  0  0  0
   35.3560   30.8710   49.4030 F   0  0  0  0  0  0  0  0  0  0  0  0
   35.6010   28.7700   48.7110 F   0  0  0  0  0  0  0  0  0  0  0  0
  1  2  1  0  0  0  0
  1 19  1  0  0  0  0
  2  7  1  0  0  0  0
  3  8  1  0  0  0  0
  3  2  2  0  0  0  0
  4  3  1  0  0  0  0
  5  4  2  0  0  0  0
  5  6  1  0  0  0  0
  6  1  2  0  0  0  0
  9  5  1  0  0  0  0
 10  9  1  0  0  0  0
 11 10  2  0  0  0  0
 12 13  2  0  0  0  0
 12 11  1  0  0  0  0
 13 18  1  0  0  0  0
 14 15  2  0  0  0  0
 14 13  1  0  0  0  0
 15 16  1  0  0  0  0
 16 17  2  0  0  0  0
 18 17  1  0  0  0  0
 18  9  2  0  0  0  0
 19 20  1  0  0  0  0
 20 21  1  0  0  0  0
 22 20  1  0  0  0  0
 23 20  1  0  0  0  0
M  END
>  <minimizedAffinity>
-5.28518867

>  <minimizedRMSD>
0.897449076

$$$$
