
 OpenBabel03252513403D

 29 31  0  0  0  0  0  0  0  0999 V2000
   36.0740   29.5600   49.3530 C   0  0  0  0  0  0  0  0  0  0  0  0
   36.7700   30.3840   48.4910 C   0  0  0  0  0  0  0  0  0  0  0  0
   36.4110   30.3910   47.1480 C   0  0  0  0  0  0  0  0  0  0  0  0
   35.3900   29.5810   46.7560 N   0  0  0  0  0  0  0  0  0  0  0  0
   34.7230   28.7800   47.6270 C   0  0  0  0  0  0  0  0  0  0  0  0
   35.0930   28.8000   48.9080 N   0  0  0  0  0  0  0  0  0  0  0  0
   37.0770   31.2110   46.2080 N   0  0  0  0  0  0  0  0  0  0  0  0
   36.4840   31.5420   44.9580 C   0  0  0  0  0  0  0  0  0  0  0  0
   35.4370   30.9060   44.5970 N   0  0  0  0  0  0  0  0  0  0  0  0
   37.0470   32.5520   44.1450 N   0  0  0  0  0  0  0  0  0  0  0  0
   35.0850   31.0290   43.6170 H   0  0  0  0  0  0  0  0  0  0  0  0
   37.5730   31.0080   48.8550 H   0  0  0  0  0  0  0  0  0  0  0  0
   38.0160   31.5840   46.4230 H   0  0  0  0  0  0  0  0  0  0  0  0
   36.5220   32.8770   43.2940 H   0  0  0  0  0  0  0  0  0  0  0  0
   37.9710   32.9640   44.3910 H   0  0  0  0  0  0  0  0  0  0  0  0
   33.6870   27.9840   46.9840 C   0  0  0  0  0  0  0  0  0  0  0  0
   33.8500   27.4950   45.7080 C   0  0  0  0  0  3  0  0  0  0  0  0
   32.9150   26.7480   45.0390 C   0  0  0  0  0  3  0  0  0  0  0  0
   31.7170   26.4350   45.6290 C   0  0  0  0  0  3  0  0  0  0  0  0
   31.4940   26.8960   46.9080 C   0  0  0  0  0  0  0  0  0  0  0  0
   30.2970   26.5940   47.5060 C   0  0  0  0  0  3  0  0  0  0  0  0
   30.0040   27.0310   48.7810 C   0  0  0  0  0  3  0  0  0  0  0  0
   30.9810   27.7880   49.4240 C   0  0  0  0  0  3  0  0  0  0  0  0
   32.1630   28.0620   48.7820 C   0  0  0  0  0  3  0  0  0  0  0  0
   32.4760   27.6400   47.5190 C   0  0  0  0  0  0  0  0  0  0  0  0
   36.4350   29.5250   50.8070 C   0  0  0  0  0  0  0  0  0  0  0  0
   35.3430   29.1850   51.5750 F   0  0  0  0  0  0  0  0  0  0  0  0
   37.5180   28.7090   50.9610 F   0  0  0  0  0  0  0  0  0  0  0  0
   36.8070   30.8370   51.1550 F   0  0  0  0  0  0  0  0  0  0  0  0
  1 26  1  0  0  0  0
  2 12  1  0  0  0  0
  2  1  2  0  0  0  0
  3  2  1  0  0  0  0
  4  3  2  0  0  0  0
  4  5  1  0  0  0  0
  5  6  2  0  0  0  0
  6  1  1  0  0  0  0
  7 13  1  0  0  0  0
  7  3  1  0  0  0  0
  8  7  1  0  0  0  0
  9  8  2  0  0  0  0
 10 15  1  0  0  0  0
 10  8  1  0  0  0  0
 11  9  1  0  0  0  0
 14 10  1  0  0  0  0
 16 25  1  0  0  0  0
 16  5  1  0  0  0  0
 17 16  2  0  0  0  0
 18 19  2  0  0  0  0
 18 17  1  0  0  0  0
 19 20  1  0  0  0  0
 20 21  2  0  0  0  0
 20 25  1  0  0  0  0
 21 22  1  0  0  0  0
 22 23  2  0  0  0  0
 24 23  1  0  0  0  0
 25 24  2  0  0  0  0
 26 28  1  0  0  0  0
 26 29  1  0  0  0  0
 26 27  1  0  0  0  0
M  END
>  <minimizedAffinity>
-6.15008593

>  <minimizedRMSD>
3.26755404

$$$$
