
 OpenBabel03252513523D

 39 42  0  0  1  0  0  0  0  0999 V2000
   37.5480   30.8970   46.5380 C   0  0  2  0  0  0  0  0  0  0  0  0
   37.7770   31.0820   47.7400 O   0  0  0  0  0  0  0  0  0  0  0  0
   38.5910   31.2900   45.6580 N   0  0  1  0  0  0  0  0  0  0  0  0
   38.9130   30.3250   44.6070 C   0  0  0  0  0  0  0  0  0  0  0  0
   40.2420   30.6340   43.9730 C   0  0  0  0  0  0  0  0  0  0  0  0
   41.0750   31.0970   45.0090 O   0  0  0  0  0  0  0  0  0  0  0  0
   40.6980   32.4330   45.1870 C   0  0  0  0  0  0  0  0  0  0  0  0
   39.2920   32.5520   45.7690 C   0  0  2  0  0  0  0  0  0  0  0  0
   38.9150   29.3190   45.0590 H   0  0  0  0  0  0  0  0  0  0  0  0
   38.1440   30.4250   43.8110 H   0  0  0  0  0  0  0  0  0  0  0  0
   40.6700   29.6960   43.5860 H   0  0  0  0  0  0  0  0  0  0  0  0
   40.1530   31.4120   43.1850 H   0  0  0  0  0  0  0  0  0  0  0  0
   40.8080   32.9290   44.2190 H   0  0  0  0  0  0  0  0  0  0  0  0
   41.4370   32.8420   45.9200 H   0  0  0  0  0  0  0  0  0  0  0  0
   38.7590   33.2830   45.1370 H   0  0  0  0  0  0  0  0  0  0  0  0
   39.3640   33.1010   47.1430 C   0  0  0  0  0  0  0  0  0  0  0  0
   40.0110   34.2420   47.5690 C   0  0  0  0  0  0  0  0  0  0  0  0
   40.0220   34.6610   48.8810 C   0  0  0  0  0  0  0  0  0  0  0  0
   40.5640   35.5810   49.1260 H   0  0  0  0  0  0  0  0  0  0  0  0
   39.3800   33.9530   49.8520 C   0  0  0  0  0  0  0  0  0  0  0  0
   38.7120   32.8050   49.5150 C   0  0  0  0  0  0  0  0  0  0  0  0
   38.1920   32.2170   50.2490 H   0  0  0  0  0  0  0  0  0  0  0  0
   38.7300   32.4340   48.2010 C   0  0  0  0  0  0  0  0  0  0  0  0
   34.0940   29.3660   46.6760 C   0  0  0  0  0  0  0  0  0  0  0  0
   35.3370   29.9350   47.1090 C   0  0  0  0  0  0  0  0  0  0  0  0
   36.2660   30.3100   46.1490 C   0  0  0  0  0  0  0  0  0  0  0  0
   35.9260   30.1090   44.8440 N   0  0  0  0  0  0  0  0  0  0  0  0
   34.7580   29.5740   44.4710 C   0  0  0  0  0  0  0  0  0  0  0  0
   33.8650   29.2120   45.3700 N   0  0  0  0  0  0  0  0  0  0  0  0
   35.5920   30.0900   48.1440 H   0  0  0  0  0  0  0  0  0  0  0  0
   34.5640   29.4300   43.0100 C   0  0  0  0  0  0  0  0  0  0  0  0
   34.2170   30.6550   42.4490 F   0  0  0  0  0  0  0  0  0  0  0  0
   35.7570   29.0740   42.4200 F   0  0  0  0  0  0  0  0  0  0  0  0
   33.6500   28.4430   42.6830 F   0  0  0  0  0  0  0  0  0  0  0  0
   33.1890   29.0010   47.6540 O   0  0  0  0  0  0  0  0  0  0  0  0
   33.4540   28.0920   48.6790 C   0  0  0  0  0  0  0  0  0  0  0  0
   34.2540   27.0210   48.2670 F   0  0  0  0  0  0  0  0  0  0  0  0
   33.9430   28.6470   49.8160 F   0  0  0  0  0  0  0  0  0  0  0  0
   32.1950   27.5430   49.0000 F   0  0  0  0  0  0  0  0  0  0  0  0
  1 26  1  6  0  0  0
  1  2  1  0  0  0  0
  2 23  1  0  0  0  0
  3  4  1  6  0  0  0
  3  8  1  0  0  0  0
  3  1  1  0  0  0  0
  4  9  1  0  0  0  0
  5  4  1  0  0  0  0
  5  6  1  0  0  0  0
  6  7  1  0  0  0  0
  7  8  1  0  0  0  0
  7 14  1  0  0  0  0
  8 15  1  6  0  0  0
  8 16  1  0  0  0  0
 10  4  1  0  0  0  0
 11  5  1  0  0  0  0
 12  5  1  0  0  0  0
 13  7  1  0  0  0  0
 16 17  2  0  0  0  0
 16 23  1  0  0  0  0
 17 18  1  0  0  0  0
 18 19  1  0  0  0  0
 18 20  2  0  0  0  0
 21 20  1  0  0  0  0
 21 22  1  0  0  0  0
 23 21  2  0  0  0  0
 24 25  1  0  0  0  0
 24 35  1  0  0  0  0
 25 30  1  0  0  0  0
 26 25  2  0  0  0  0
 27 26  1  0  0  0  0
 28 27  2  0  0  0  0
 28 29  1  0  0  0  0
 29 24  2  0  0  0  0
 31 28  1  0  0  0  0
 32 31  1  0  0  0  0
 33 31  1  0  0  0  0
 34 31  1  0  0  0  0
 35 36  1  0  0  0  0
 36 39  1  0  0  0  0
 36 38  1  0  0  0  0
 37 36  1  0  0  0  0
M  END
>  <minimizedAffinity>
-6.04479027

>  <minimizedRMSD>
1.55955505

$$$$
