
 OpenBabel03252513163D

 44 47  0  0  0  0  0  0  0  0999 V2000
   36.2070   31.1960   42.5980 C   0  0  0  0  0  0  0  0  0  0  0  0
   37.4230   30.9690   41.9160 C   0  0  0  0  0  0  0  0  0  0  0  0
   38.5100   30.6830   42.6790 C   0  0  0  0  0  0  0  0  0  0  0  0
   38.3160   30.6460   43.9780 N   0  0  0  0  0  0  0  0  0  0  0  0
   37.2460   30.8400   44.6800 C   0  0  0  0  0  0  0  0  0  0  0  0
   36.1980   31.1170   43.9200 N   0  0  0  0  0  0  0  0  0  0  0  0
   35.3080   31.4320   41.9890 H   0  0  0  0  0  0  0  0  0  0  0  0
   36.9340   30.8200   46.0890 C   0  0  0  0  0  0  0  0  0  0  0  0
   35.9120   30.0420   46.6410 C   0  0  0  0  0  0  0  0  0  0  0  0
   35.5800   29.9890   47.9560 C   0  0  0  0  0  0  0  0  0  0  0  0
   36.2760   30.7400   48.8580 C   0  0  0  0  0  0  0  0  0  0  0  0
   37.2760   31.5120   48.3930 C   0  0  0  0  0  0  0  0  0  0  0  0
   37.9800   32.2740   49.3160 C   0  0  0  0  0  0  0  0  0  0  0  0
   39.0090   33.0860   48.9370 C   0  0  0  0  0  0  0  0  0  0  0  0
   39.3400   33.1320   47.5910 C   0  0  0  0  0  0  0  0  0  0  0  0
   38.6190   32.3650   46.7130 C   0  0  0  0  0  0  0  0  0  0  0  0
   37.6020   31.5570   47.0510 C   0  0  0  0  0  0  0  0  0  0  0  0
   35.3230   29.4190   45.9540 H   0  0  0  0  0  0  0  0  0  0  0  0
   34.7680   29.3530   48.2920 H   0  0  0  0  0  0  0  0  0  0  0  0
   37.7790   32.2900   50.3780 H   0  0  0  0  0  0  0  0  0  0  0  0
   39.5860   33.6970   49.6190 H   0  0  0  0  0  0  0  0  0  0  0  0
   40.1500   33.7680   47.2650 H   0  0  0  0  0  0  0  0  0  0  0  0
   38.9060   32.4270   45.6620 H   0  0  0  0  0  0  0  0  0  0  0  0
   35.9230   30.6690   50.1860 O   0  0  0  0  0  0  0  0  0  0  0  0
   36.4340   29.6340   51.0150 C   0  0  0  0  0  0  0  0  0  0  0  0
   37.2520   28.7380   50.4010 F   0  0  0  0  0  0  0  0  0  0  0  0
   37.2040   30.2460   51.9940 F   0  0  0  0  0  0  0  0  0  0  0  0
   35.3260   29.0140   51.5790 F   0  0  0  0  0  0  0  0  0  0  0  0
   39.7960   30.4480   42.1470 N   0  0  0  0  0  0  0  0  0  0  0  0
   40.8790   29.9700   42.9430 C   0  0  0  0  0  0  0  0  0  0  0  0
   41.0200   30.4960   44.1230 N   0  0  0  0  0  0  0  0  0  0  0  0
   41.7690   28.9640   42.4730 N   0  0  0  0  0  0  0  0  0  0  0  0
   41.7280   30.2670   44.8090 H   0  0  0  0  0  0  0  0  0  0  0  0
   40.0460   30.6120   41.1240 H   0  0  0  0  0  0  0  0  0  0  0  0
   42.3650   29.7070   42.0080 H   0  0  0  0  0  0  0  0  0  0  0  0
   41.9250   27.9170   42.4840 H   0  0  0  0  0  0  0  0  0  0  0  0
   37.4860   31.0190   40.4630 C   0  0  0  0  0  0  0  0  0  0  0  0
   37.5440   32.3380   40.0410 C   0  0  0  0  0  0  0  0  0  0  0  0
   37.6000   32.6710   38.6820 C   0  0  0  0  0  0  0  0  0  0  0  0
   37.6460   33.6640   38.2830 H   0  0  0  0  0  0  0  0  0  0  0  0
   37.5990   31.6640   37.7330 C   0  0  0  0  0  0  0  0  0  0  0  0
   37.5400   30.3600   38.1780 C   0  0  0  0  0  0  0  0  0  0  0  0
   37.5360   29.5320   37.4820 H   0  0  0  0  0  0  0  0  0  0  0  0
   37.4850   30.0300   39.5030 C   0  0  0  0  0  0  0  0  0  0  0  0
  1  6  1  0  0  0  0
  2  1  2  0  0  0  0
  2  3  1  0  0  0  0
  3  4  2  0  0  0  0
  4  5  1  0  0  0  0
  5  8  1  0  0  0  0
  6  5  2  0  0  0  0
  7  1  1  0  0  0  0
  8  9  2  0  0  0  0
  8 17  1  0  0  0  0
  9 10  1  0  0  0  0
 10 19  1  0  0  0  0
 10 11  2  0  0  0  0
 11 24  1  0  0  0  0
 12 11  1  0  0  0  0
 12 13  1  0  0  0  0
 13 20  1  0  0  0  0
 14 13  2  0  0  0  0
 14 21  1  0  0  0  0
 15 14  1  0  0  0  0
 16 17  1  0  0  0  0
 16 15  2  0  0  0  0
 17 12  2  0  0  0  0
 18  9  1  0  0  0  0
 22 15  1  0  0  0  0
 23 16  1  0  0  0  0
 24 25  1  0  0  0  0
 25 28  1  0  0  0  0
 25 27  1  0  0  0  0
 26 25  1  0  0  0  0
 29  3  1  0  0  0  0
 29 30  1  0  0  0  0
 30 31  2  0  0  0  0
 31 33  1  0  0  0  0
 32 36  1  0  0  0  0
 32 30  1  0  0  0  0
 34 29  1  0  0  0  0
 35 32  1  0  0  0  0
 37  2  1  0  0  0  0
 38 37  1  0  0  0  0
 39 38  2  0  0  0  0
 40 39  1  0  0  0  0
 41 42  2  0  0  0  0
 41 39  1  0  0  0  0
 42 44  1  0  0  0  0
 43 42  1  0  0  0  0
 44 37  2  0  0  0  0
M  END
>  <minimizedAffinity>
-7.46825457

>  <minimizedRMSD>
0.662337184

$$$$
