
 OpenBabel03252514053D

 37 40  0  0  1  0  0  0  0  0999 V2000
   35.3350   29.4330   48.9960 C   0  0  2  0  0  0  0  0  0  0  0  0
   34.3000   29.4730   50.0230 C   0  0  0  0  0  0  0  0  0  0  0  0
   34.4880   28.1870   49.4180 C   0  0  1  0  0  0  0  0  0  0  0  0
   35.1530   29.7840   47.9780 H   0  0  0  0  0  0  0  0  0  0  0  0
   34.6510   29.7280   51.0660 H   0  0  0  0  0  0  0  0  0  0  0  0
   33.3840   30.0830   49.7920 H   0  0  0  0  0  0  0  0  0  0  0  0
   35.0990   27.3640   49.7850 H   0  0  0  0  0  0  0  0  0  0  0  0
   36.7830   29.2850   49.4930 C   0  0  0  0  0  0  0  0  0  0  0  0
   37.1630   28.3280   49.0900 H   0  0  0  0  0  0  0  0  0  0  0  0
   36.7890   29.2770   50.5850 H   0  0  0  0  0  0  0  0  0  0  0  0
   38.4180   32.5420   49.2350 C   0  0  0  0  0  0  0  0  0  0  0  0
   39.0030   32.4940   47.9550 C   0  0  0  0  0  0  0  0  0  0  0  0
   38.8180   31.3170   47.1950 C   0  0  0  0  0  0  0  0  0  0  0  0
   38.0840   30.2960   47.7440 N   0  0  0  0  0  0  0  0  0  0  0  0
   37.5520   30.4000   48.9640 C   0  0  0  0  0  0  0  0  0  0  0  0
   37.7260   31.5310   49.7030 N   0  0  0  0  0  0  0  0  0  0  0  0
   38.5280   33.4190   49.8600 H   0  0  0  0  0  0  0  0  0  0  0  0
   39.5730   33.3390   47.5810 H   0  0  0  0  0  0  0  0  0  0  0  0
   39.2550   31.2650   46.2220 H   0  0  0  0  0  0  0  0  0  0  0  0
   33.4100   27.7620   48.4410 C   0  0  0  0  0  0  0  0  0  0  0  0
   33.5860   26.5660   47.9840 O   0  0  0  0  0  0  0  0  0  0  0  0
   32.3130   28.5160   48.0340 O   0  0  0  0  0  0  0  0  0  0  0  0
   31.0520   28.3560   48.5410 C   0  0  0  0  0  0  0  0  0  0  0  0
   30.6820   28.5130   49.9670 C   0  0  0  0  0  0  0  0  0  0  0  0
   29.3890   28.3220   50.3080 C   0  0  0  0  0  0  0  0  0  0  0  0
   28.4090   27.9850   49.3550 C   0  0  0  0  0  0  0  0  0  0  0  0
   29.3810   27.9150   47.7690 S   0  0  0  0  0  0  0  0  0  0  0  0
   31.4650   28.7720   50.6540 H   0  0  0  0  0  0  0  0  0  0  0  0
   29.0220   28.4120   51.3140 H   0  0  0  0  0  0  0  0  0  0  0  0
   27.0800   27.7350   49.3680 C   0  0  0  0  0  0  0  0  0  0  0  0
   26.5010   26.9110   50.3080 C   0  0  0  0  0  3  0  0  0  0  0  0
   25.1440   26.6600   50.3160 C   0  0  0  0  0  0  0  0  0  0  0  0
   24.6950   26.0100   51.0580 H   0  0  0  0  0  0  0  0  0  0  0  0
   24.3410   27.2510   49.3560 C   0  0  0  0  0  3  0  0  0  0  0  0
   24.8870   28.0930   48.3860 C   0  0  0  0  0  0  0  0  0  0  0  0
   24.2480   28.5560   47.6310 H   0  0  0  0  0  0  0  0  0  0  0  0
   26.2690   28.3160   48.4190 C   0  0  0  0  0  3  0  0  0  0  0  0
  1  4  1  6  0  0  0
  1  3  1  0  0  0  0
  1  8  1  0  0  0  0
  1  2  1  0  0  0  0
  2  5  1  0  0  0  0
  3  7  1  1  0  0  0
  3  2  1  0  0  0  0
  6  2  1  0  0  0  0
  8 10  1  0  0  0  0
  9  8  1  0  0  0  0
 11 16  1  0  0  0  0
 11 17  1  0  0  0  0
 12 11  2  0  0  0  0
 13 14  2  0  0  0  0
 13 12  1  0  0  0  0
 14 15  1  0  0  0  0
 15  8  1  0  0  0  0
 15 16  2  0  0  0  0
 18 12  1  0  0  0  0
 19 13  1  0  0  0  0
 20  3  1  0  0  0  0
 21 20  2  0  0  0  0
 22 20  1  0  0  0  0
 22 23  1  0  0  0  0
 23 24  2  0  0  0  0
 24 25  1  0  0  0  0
 24 28  1  0  0  0  0
 25 29  1  0  0  0  0
 26 30  1  0  0  0  0
 26 25  2  0  0  0  0
 27 23  1  0  0  0  0
 27 26  1  0  0  0  0
 30 31  1  0  0  0  0
 31 32  2  0  0  0  0
 32 33  1  0  0  0  0
 34 32  1  0  0  0  0
 35 37  1  0  0  0  0
 35 34  2  0  0  0  0
 36 35  1  0  0  0  0
 37 30  2  0  0  0  0
M  END
>  <minimizedAffinity>
1.82710171

>  <minimizedRMSD>
0.974686384

$$$$
