
 OpenBabel03252513243D

 20 21  0  0  0  0  0  0  0  0999 V2000
   35.7990   29.7050   50.3240 C   0  0  0  0  0  0  0  0  0  0  0  0
   36.2720   30.6370   49.3720 C   0  0  0  0  0  0  0  0  0  0  0  0
   35.7670   30.5180   48.0640 C   0  0  0  0  0  0  0  0  0  0  0  0
   34.8640   29.5350   47.7760 N   0  0  0  0  0  0  0  0  0  0  0  0
   34.4430   28.6610   48.7400 C   0  0  0  0  0  0  0  0  0  0  0  0
   34.9130   28.7630   49.9790 N   0  0  0  0  0  0  0  0  0  0  0  0
   36.1800   29.7850   51.3340 H   0  0  0  0  0  0  0  0  0  0  0  0
   36.0810   31.1980   47.2710 H   0  0  0  0  0  0  0  0  0  0  0  0
   33.4790   27.6330   48.3670 C   0  0  0  0  0  0  0  0  0  0  0  0
   33.9090   26.5370   47.6610 C   0  0  0  0  0  0  0  0  0  0  0  0
   32.9760   25.5850   47.3230 C   0  0  0  0  0  0  0  0  0  0  0  0
   33.2920   24.7130   46.7680 H   0  0  0  0  0  0  0  0  0  0  0  0
   31.6550   25.7750   47.7080 C   0  0  0  0  0  0  0  0  0  0  0  0
   31.2190   26.8740   48.4160 C   0  0  0  0  0  0  0  0  0  0  0  0
   30.1680   26.9860   48.7010 H   0  0  0  0  0  0  0  0  0  0  0  0
   32.1480   27.8190   48.7510 C   0  0  0  0  0  0  0  0  0  0  0  0
   37.2470   31.6980   49.6910 C   0  0  0  0  0  0  0  0  0  0  0  0
   37.8370   32.2510   48.5880 F   0  0  0  0  0  0  0  0  0  0  0  0
   38.2500   31.2480   50.5000 F   0  0  0  0  0  0  0  0  0  0  0  0
   36.5880   32.7440   50.3350 F   0  0  0  0  0  0  0  0  0  0  0  0
  1  7  1  0  0  0  0
  2 17  1  0  0  0  0
  2  1  2  0  0  0  0
  3  2  1  0  0  0  0
  4  3  2  0  0  0  0
  4  5  1  0  0  0  0
  5  6  2  0  0  0  0
  6  1  1  0  0  0  0
  8  3  1  0  0  0  0
  9  5  1  0  0  0  0
  9 16  1  0  0  0  0
 10  9  2  0  0  0  0
 11 10  1  0  0  0  0
 11 13  2  0  0  0  0
 12 11  1  0  0  0  0
 13 14  1  0  0  0  0
 14 15  1  0  0  0  0
 14 16  2  0  0  0  0
 17 20  1  0  0  0  0
 17 19  1  0  0  0  0
 18 17  1  0  0  0  0
M  END
>  <minimizedAffinity>
-5.40985298

>  <minimizedRMSD>
1.4022876

$$$$
