
 OpenBabel03252510323D

 25 27  0  0  0  0  0  0  0  0999 V2000
   36.7750   30.9530   48.6880 C   0  0  0  0  0  0  0  0  0  0  0  0
   37.3180   31.4770   49.8180 C   0  0  0  0  0  0  0  0  0  0  0  0
   38.3770   32.3610   49.6680 C   0  0  0  0  0  0  0  0  0  0  0  0
   38.8890   32.7250   48.4890 N   0  0  0  0  0  0  0  0  0  0  0  0
   38.3170   32.1780   47.3690 C   0  0  0  0  0  0  0  0  0  0  0  0
   37.2720   31.3030   47.4820 N   0  0  0  0  0  0  0  0  0  0  0  0
   36.9190   31.1960   50.7920 H   0  0  0  0  0  0  0  0  0  0  0  0
   38.8410   32.8030   50.5480 H   0  0  0  0  0  0  0  0  0  0  0  0
   35.6780   28.9910   49.6540 C   0  0  0  0  0  0  0  0  0  0  0  0
   35.6640   30.0160   48.6830 C   0  0  0  0  0  0  0  0  0  0  0  0
   34.6050   30.0600   47.8000 C   0  0  0  0  0  0  0  0  0  0  0  0
   33.6190   29.1360   47.8830 N   0  0  0  0  0  0  0  0  0  0  0  0
   33.6440   28.1580   48.8180 C   0  0  0  0  0  0  0  0  0  0  0  0
   34.6590   28.0870   49.6900 N   0  0  0  0  0  0  0  0  0  0  0  0
   36.5080   28.9530   50.3480 H   0  0  0  0  0  0  0  0  0  0  0  0
   34.5900   30.8430   47.0560 H   0  0  0  0  0  0  0  0  0  0  0  0
   32.8910   27.3920   48.9370 H   0  0  0  0  0  0  0  0  0  0  0  0
   38.7930   32.5020   46.0240 C   0  0  0  0  0  0  0  0  0  0  0  0
   37.9150   32.2500   44.9640 C   0  0  0  0  0  0  0  0  0  0  0  0
   38.2660   32.5190   43.6580 C   0  0  0  0  0  0  0  0  0  0  0  0
   37.5700   32.3130   42.8720 H   0  0  0  0  0  0  0  0  0  0  0  0
   39.5250   33.0510   43.4410 C   0  0  0  0  0  0  0  0  0  0  0  0
   40.4260   33.3160   44.4680 C   0  0  0  0  0  0  0  0  0  0  0  0
   41.4110   33.7350   44.2590 H   0  0  0  0  0  0  0  0  0  0  0  0
   40.0430   33.0330   45.7820 C   0  0  0  0  0  0  0  0  0  0  0  0
  1  2  1  0  0  0  0
  2  7  1  0  0  0  0
  3  2  2  0  0  0  0
  3  8  1  0  0  0  0
  4  3  1  0  0  0  0
  5  6  1  0  0  0  0
  5  4  2  0  0  0  0
  6  1  2  0  0  0  0
  9 14  1  0  0  0  0
  9 15  1  0  0  0  0
 10  1  1  0  0  0  0
 10  9  2  0  0  0  0
 11 12  2  0  0  0  0
 11 10  1  0  0  0  0
 12 13  1  0  0  0  0
 13 17  1  0  0  0  0
 13 14  2  0  0  0  0
 16 11  1  0  0  0  0
 18  5  1  0  0  0  0
 19 18  2  0  0  0  0
 20 19  1  0  0  0  0
 21 20  1  0  0  0  0
 22 20  2  0  0  0  0
 22 23  1  0  0  0  0
 23 25  2  0  0  0  0
 24 23  1  0  0  0  0
 25 18  1  0  0  0  0
M  END
>  <minimizedAffinity>
-6.00968027

>  <minimizedRMSD>
0.763045788

$$$$
