
 OpenBabel03252513583D

 27 29  0  0  1  0  0  0  0  0999 V2000
   36.3600   30.3700   50.4230 C   0  0  2  0  0  0  0  0  0  0  0  0
   35.6570   29.3400   51.2480 C   0  0  0  0  0  0  0  0  0  0  0  0
   36.0050   29.0280   49.8300 C   0  0  1  0  0  0  0  0  0  0  0  0
   35.7670   31.2470   50.1600 H   0  0  0  0  0  0  0  0  0  0  0  0
   34.5750   29.4700   51.4420 H   0  0  0  0  0  0  0  0  0  0  0  0
   36.1880   28.8250   52.0760 H   0  0  0  0  0  0  0  0  0  0  0  0
   36.8100   28.2710   49.7280 H   0  0  0  0  0  0  0  0  0  0  0  0
   34.9430   28.9260   48.8160 C   0  0  0  0  0  0  0  0  0  0  0  0
   35.0840   29.6880   47.6630 C   0  0  0  0  0  3  0  0  0  0  0  0
   34.1310   29.6630   46.6380 C   0  0  0  0  0  0  0  0  0  0  0  0
   34.2210   30.2460   45.7370 H   0  0  0  0  0  0  0  0  0  0  0  0
   33.0200   28.8540   46.7850 C   0  0  0  0  0  3  0  0  0  0  0  0
   32.8840   28.0900   47.9460 C   0  0  0  0  0  0  0  0  0  0  0  0
   32.0010   27.4440   48.0690 H   0  0  0  0  0  0  0  0  0  0  0  0
   33.8350   28.1210   48.9590 C   0  0  0  0  0  3  0  0  0  0  0  0
   37.8490   30.5870   50.6370 C   0  0  0  0  0  0  0  0  0  0  0  0
   38.3950   29.6020   50.6570 H   0  0  0  0  0  0  0  0  0  0  0  0
   37.9540   31.1240   51.6010 H   0  0  0  0  0  0  0  0  0  0  0  0
   39.0350   33.5510   48.7960 C   0  0  0  0  0  0  0  0  0  0  0  0
   39.2020   33.0770   47.4960 C   0  0  0  0  0  0  0  0  0  0  0  0
   38.9030   31.7260   47.2550 C   0  0  0  0  0  0  0  0  0  0  0  0
   38.4710   30.9770   48.3080 N   0  0  0  0  0  0  0  0  0  0  0  0
   38.3250   31.4760   49.5490 C   0  0  0  0  0  0  0  0  0  0  0  0
   38.6070   32.7670   49.7960 N   0  0  0  0  0  0  0  0  0  0  0  0
   39.2860   34.6000   48.9010 H   0  0  0  0  0  0  0  0  0  0  0  0
   39.5400   33.6570   46.6620 H   0  0  0  0  0  0  0  0  0  0  0  0
   39.0050   31.2860   46.2850 H   0  0  0  0  0  0  0  0  0  0  0  0
  1  4  1  6  0  0  0
  1 16  1  0  0  0  0
  1  2  1  0  0  0  0
  2  5  1  0  0  0  0
  2  6  1  0  0  0  0
  3  7  1  6  0  0  0
  3  1  1  0  0  0  0
  3  2  1  0  0  0  0
  8 15  1  0  0  0  0
  8  3  1  0  0  0  0
  9  8  2  0  0  0  0
 10 12  2  0  0  0  0
 10  9  1  0  0  0  0
 11 10  1  0  0  0  0
 12 13  1  0  0  0  0
 13 14  1  0  0  0  0
 13 15  2  0  0  0  0
 16 17  1  0  0  0  0
 16 18  1  0  0  0  0
 19 25  1  0  0  0  0
 19 24  1  0  0  0  0
 20 19  2  0  0  0  0
 21 20  1  0  0  0  0
 21 22  2  0  0  0  0
 22 23  1  0  0  0  0
 23 24  2  0  0  0  0
 23 16  1  0  0  0  0
 26 20  1  0  0  0  0
 27 21  1  0  0  0  0
M  END
>  <minimizedAffinity>
-5.60271883

>  <minimizedRMSD>
1.65751362

$$$$
