
 OpenBabel03252510593D

 24 25  0  0  0  0  0  0  0  0999 V2000
   37.2970   31.3840   48.4850 C   0  0  0  0  0  0  0  0  0  0  0  0
   37.7740   32.3710   49.3550 C   0  0  0  0  0  0  0  0  0  0  0  0
   38.7570   33.2440   48.8920 C   0  0  0  0  0  0  0  0  0  0  0  0
   39.2040   33.0780   47.5940 N   0  0  0  0  0  0  0  0  0  0  0  0
   38.7120   32.1220   46.8150 C   0  0  0  0  0  0  0  0  0  0  0  0
   37.7610   31.2680   47.2410 N   0  0  0  0  0  0  0  0  0  0  0  0
   37.4140   32.4860   50.3660 H   0  0  0  0  0  0  0  0  0  0  0  0
   39.1670   34.0210   49.5010 H   0  0  0  0  0  0  0  0  0  0  0  0
   39.2050   31.9740   45.4500 C   0  0  0  0  0  0  0  0  0  0  0  0
   40.1370   31.0250   45.1000 C   0  0  0  0  0  0  0  0  0  0  0  0
   40.5970   30.8960   43.7990 C   0  0  0  0  0  0  0  0  0  0  0  0
   41.3370   30.1190   43.6040 H   0  0  0  0  0  0  0  0  0  0  0  0
   40.0930   31.7510   42.8400 C   0  0  0  0  0  0  0  0  0  0  0  0
   39.1550   32.7220   43.1360 C   0  0  0  0  0  0  0  0  0  0  0  0
   38.7620   33.3930   42.3770 H   0  0  0  0  0  0  0  0  0  0  0  0
   38.7320   32.8080   44.4410 C   0  0  0  0  0  0  0  0  0  0  0  0
   36.2660   30.4770   48.9850 C   0  0  0  0  0  0  0  0  0  0  0  0
   35.0460   30.6730   48.6790 O   0  0  0  0  0  0  0  0  0  0  0  0
   36.6370   29.4090   49.7910 O   0  0  0  0  0  0  0  0  0  0  0  0
   36.5740   29.4720   51.1870 C   0  0  0  0  0  0  0  0  0  0  0  0
   37.6960   29.7960   51.9810 N   0  0  0  0  0  0  0  0  0  0  0  0
   35.4340   29.2160   51.6590 O   0  0  0  0  0  0  0  0  0  0  0  0
   38.6620   29.3850   51.9850 H   0  0  0  0  0  0  0  0  0  0  0  0
   37.7590   30.5330   52.7290 H   0  0  0  0  0  0  0  0  0  0  0  0
  1 17  1  0  0  0  0
  1  2  1  0  0  0  0
  2  7  1  0  0  0  0
  3  2  2  0  0  0  0
  3  8  1  0  0  0  0
  4  3  1  0  0  0  0
  5  6  1  0  0  0  0
  5  4  2  0  0  0  0
  6  1  2  0  0  0  0
  9  5  1  0  0  0  0
 10  9  1  0  0  0  0
 11 10  2  0  0  0  0
 12 11  1  0  0  0  0
 13 14  2  0  0  0  0
 13 11  1  0  0  0  0
 14 16  1  0  0  0  0
 15 14  1  0  0  0  0
 16  9  2  0  0  0  0
 17 19  1  0  0  0  0
 18 17  2  0  0  0  0
 19 20  1  0  0  0  0
 20 22  2  0  0  0  0
 20 21  1  0  0  0  0
 21 23  1  0  0  0  0
 21 24  1  0  0  0  0
M  END
>  <minimizedAffinity>
-5.58974648

>  <minimizedRMSD>
1.15505648

$$$$
