
 OpenBabel03252512033D

 31 33  0  0  0  0  0  0  0  0999 V2000
   37.1210   30.4220   45.3030 C   0  0  0  0  0  0  0  0  0  0  0  0
   35.8760   30.1430   44.7890 C   0  0  0  0  0  0  0  0  0  0  0  0
   35.7070   29.5510   43.5600 C   0  0  0  0  0  0  0  0  0  0  0  0
   36.8300   29.2470   42.8640 N   0  0  0  0  0  0  0  0  0  0  0  0
   38.0490   29.5100   43.3430 C   0  0  0  0  0  0  0  0  0  0  0  0
   38.1950   30.0920   44.5530 N   0  0  0  0  0  0  0  0  0  0  0  0
   35.0020   30.4080   45.3920 H   0  0  0  0  0  0  0  0  0  0  0  0
   34.7080   29.3470   43.1900 H   0  0  0  0  0  0  0  0  0  0  0  0
   39.2230   29.1610   42.5470 C   0  0  0  0  0  0  0  0  0  0  0  0
   39.1640   28.1510   41.6050 C   0  0  0  0  0  0  0  0  0  0  0  0
   40.2930   27.8350   40.8580 C   0  0  0  0  0  0  0  0  0  0  0  0
   40.1670   27.0340   40.1430 H   0  0  0  0  0  0  0  0  0  0  0  0
   41.4710   28.5260   41.0530 C   0  0  0  0  0  0  0  0  0  0  0  0
   41.5090   29.5420   42.0060 C   0  0  0  0  0  0  0  0  0  0  0  0
   42.4420   30.0770   42.1480 H   0  0  0  0  0  0  0  0  0  0  0  0
   40.3890   29.8580   42.7510 C   0  0  0  0  0  0  0  0  0  0  0  0
   37.2770   31.0570   46.6610 C   0  0  0  0  0  0  0  0  0  0  0  0
   37.4320   32.1150   46.6560 H   0  0  0  0  0  0  0  0  0  0  0  0
   38.2540   30.6180   47.0580 H   0  0  0  0  0  0  0  0  0  0  0  0
   36.1510   30.5020   47.4960 C   0  0  0  0  0  0  0  0  0  0  0  0
   35.2110   31.0990   47.4240 H   0  0  0  0  0  0  0  0  0  0  0  0
   35.8580   29.4810   47.1010 H   0  0  0  0  0  0  0  0  0  0  0  0
   36.3300   29.1470   49.5350 C   0  0  0  0  0  0  0  0  0  0  0  0
   36.5280   30.3580   48.8650 C   0  0  0  0  0  0  0  0  0  0  0  0
   37.1070   31.3870   49.5710 C   0  0  0  0  0  0  0  0  0  0  0  0
   37.4660   31.2040   50.8790 N   0  0  0  0  0  0  0  0  0  0  0  0
   37.2650   30.0300   51.4990 C   0  0  0  0  0  0  0  0  0  0  0  0
   36.7060   29.0300   50.8260 N   0  0  0  0  0  0  0  0  0  0  0  0
   35.8740   28.3440   48.9730 H   0  0  0  0  0  0  0  0  0  0  0  0
   37.3440   32.3930   49.2770 H   0  0  0  0  0  0  0  0  0  0  0  0
   37.5260   29.8230   52.5270 H   0  0  0  0  0  0  0  0  0  0  0  0
  1 17  1  0  0  0  0
  2  1  1  0  0  0  0
  2  7  1  0  0  0  0
  3  2  2  0  0  0  0
  4  5  2  0  0  0  0
  4  3  1  0  0  0  0
  5  6  1  0  0  0  0
  6  1  2  0  0  0  0
  8  3  1  0  0  0  0
  9 16  1  0  0  0  0
  9  5  1  0  0  0  0
 10  9  2  0  0  0  0
 11 13  2  0  0  0  0
 11 10  1  0  0  0  0
 12 11  1  0  0  0  0
 13 14  1  0  0  0  0
 14 15  1  0  0  0  0
 14 16  2  0  0  0  0
 17 19  1  0  0  0  0
 17 20  1  0  0  0  0
 18 17  1  0  0  0  0
 20 24  1  0  0  0  0
 21 20  1  0  0  0  0
 22 20  1  0  0  0  0
 23 28  1  0  0  0  0
 24 23  2  0  0  0  0
 24 25  1  0  0  0  0
 25 26  2  0  0  0  0
 26 27  1  0  0  0  0
 27 31  1  0  0  0  0
 28 27  2  0  0  0  0
 29 23  1  0  0  0  0
 30 25  1  0  0  0  0
M  END
>  <minimizedAffinity>
-4.5944891

>  <minimizedRMSD>
4.74679565

$$$$
