
 OpenBabel03252513583D

 27 29  0  0  1  0  0  0  0  0999 V2000
   35.5710   29.7450   49.3560 C   0  0  2  0  0  0  0  0  0  0  0  0
   34.4810   29.3910   50.3160 C   0  0  0  0  0  0  0  0  0  0  0  0
   34.9110   28.3890   49.2970 C   0  0  1  0  0  0  0  0  0  0  0  0
   35.3140   30.4990   48.6100 H   0  0  0  0  0  0  0  0  0  0  0  0
   33.4730   29.8180   50.1490 H   0  0  0  0  0  0  0  0  0  0  0  0
   34.7110   29.2250   51.3890 H   0  0  0  0  0  0  0  0  0  0  0  0
   35.4540   27.5230   49.7300 H   0  0  0  0  0  0  0  0  0  0  0  0
   34.0200   28.0470   48.1760 C   0  0  0  0  0  0  0  0  0  0  0  0
   33.8670   26.7000   47.8680 C   0  0  0  0  0  3  0  0  0  0  0  0
   33.0430   26.2710   46.8230 C   0  0  0  0  0  0  0  0  0  0  0  0
   32.9110   25.2320   46.5660 H   0  0  0  0  0  0  0  0  0  0  0  0
   32.3640   27.2180   46.0790 C   0  0  0  0  0  3  0  0  0  0  0  0
   32.5220   28.5700   46.3940 C   0  0  0  0  0  0  0  0  0  0  0  0
   31.9830   29.3290   45.8060 H   0  0  0  0  0  0  0  0  0  0  0  0
   33.3420   28.9880   47.4340 C   0  0  0  0  0  3  0  0  0  0  0  0
   37.0100   29.7220   49.8410 C   0  0  0  0  0  0  0  0  0  0  0  0
   37.4730   28.7120   49.6650 H   0  0  0  0  0  0  0  0  0  0  0  0
   36.9820   29.9690   50.9220 H   0  0  0  0  0  0  0  0  0  0  0  0
   38.6140   32.9500   49.0720 C   0  0  0  0  0  0  0  0  0  0  0  0
   39.0720   32.7790   47.7660 C   0  0  0  0  0  0  0  0  0  0  0  0
   38.8250   31.5420   47.1500 C   0  0  0  0  0  0  0  0  0  0  0  0
   38.1560   30.5990   47.8710 N   0  0  0  0  0  0  0  0  0  0  0  0
   37.7310   30.8060   49.1310 C   0  0  0  0  0  0  0  0  0  0  0  0
   37.9600   31.9850   49.7350 N   0  0  0  0  0  0  0  0  0  0  0  0
   38.8430   33.9290   49.4780 H   0  0  0  0  0  0  0  0  0  0  0  0
   39.5980   33.5130   47.1910 H   0  0  0  0  0  0  0  0  0  0  0  0
   39.1440   31.3320   46.1500 H   0  0  0  0  0  0  0  0  0  0  0  0
  1  4  1  6  0  0  0
  1 16  1  0  0  0  0
  1  2  1  0  0  0  0
  2  6  1  0  0  0  0
  3  1  1  0  0  0  0
  3  7  1  1  0  0  0
  3  2  1  0  0  0  0
  5  2  1  0  0  0  0
  8  3  1  0  0  0  0
  9  8  1  0  0  0  0
 10  9  2  0  0  0  0
 11 10  1  0  0  0  0
 12 13  2  0  0  0  0
 12 10  1  0  0  0  0
 13 15  1  0  0  0  0
 14 13  1  0  0  0  0
 15  8  2  0  0  0  0
 16 18  1  0  0  0  0
 17 16  1  0  0  0  0
 19 25  1  0  0  0  0
 19 24  1  0  0  0  0
 20 19  2  0  0  0  0
 21 20  1  0  0  0  0
 21 22  2  0  0  0  0
 22 23  1  0  0  0  0
 23 24  2  0  0  0  0
 23 16  1  0  0  0  0
 26 20  1  0  0  0  0
 27 21  1  0  0  0  0
M  END
>  <minimizedAffinity>
-5.09362173

>  <minimizedRMSD>
0.627704084

$$$$
