
 OpenBabel03252511473D

 40 44  0  0  1  0  0  0  0  0999 V2000
   34.5010   30.2780   47.4850 C   0  0  0  0  0  0  0  0  0  0  0  0
   35.6750   30.2090   48.2280 C   0  0  0  0  0  0  0  0  0  0  0  0
   35.7840   29.0670   49.0830 C   0  0  0  0  0  0  0  0  0  0  0  0
   34.7740   28.1560   49.1170 N   0  0  0  0  0  0  0  0  0  0  0  0
   33.6640   28.2890   48.3680 C   0  0  0  0  0  0  0  0  0  0  0  0
   33.5440   29.3410   47.5690 N   0  0  0  0  0  0  0  0  0  0  0  0
   34.4660   31.1610   46.8530 H   0  0  0  0  0  0  0  0  0  0  0  0
   36.6300   28.8770   49.7150 H   0  0  0  0  0  0  0  0  0  0  0  0
   36.8020   31.1250   48.2640 C   0  0  0  0  0  0  0  0  0  0  0  0
   36.8640   31.7760   49.4630 C   0  0  0  0  0  0  0  0  0  0  0  0
   37.8760   32.7140   49.7230 C   0  0  0  0  0  0  0  0  0  0  0  0
   38.8230   32.9830   48.7480 C   0  0  0  0  0  0  0  0  0  0  0  0
   38.7340   32.3070   47.5400 C   0  0  0  0  0  0  0  0  0  0  0  0
   39.6400   32.5130   46.5020 C   0  0  0  0  0  0  0  0  0  0  0  0
   39.4980   31.8070   45.3170 C   0  0  0  0  0  0  0  0  0  0  0  0
   38.4890   30.9050   45.1290 C   0  0  0  0  0  0  0  0  0  0  0  0
   37.5900   30.6990   46.1550 C   0  0  0  0  0  0  0  0  0  0  0  0
   37.7450   31.4030   47.3130 C   0  0  0  0  0  0  0  0  0  0  0  0
   36.2100   31.6760   50.3090 H   0  0  0  0  0  0  0  0  0  0  0  0
   37.9850   33.2560   50.6300 H   0  0  0  0  0  0  0  0  0  0  0  0
   39.6420   33.6670   48.8050 H   0  0  0  0  0  0  0  0  0  0  0  0
   40.4500   33.2250   46.6310 H   0  0  0  0  0  0  0  0  0  0  0  0
   40.1830   31.9370   44.4830 H   0  0  0  0  0  0  0  0  0  0  0  0
   38.3900   30.3530   44.1850 H   0  0  0  0  0  0  0  0  0  0  0  0
   36.7810   29.9700   45.9880 H   0  0  0  0  0  0  0  0  0  0  0  0
   32.6010   27.2670   48.4500 C   0  0  1  0  0  0  0  0  0  0  0  0
   31.5830   27.1890   47.3610 C   0  0  0  0  0  0  0  0  0  0  0  0
   32.6200   26.0770   47.5750 C   0  0  1  0  0  0  0  0  0  0  0  0
   32.2410   27.0340   49.4930 H   0  0  0  0  0  0  0  0  0  0  0  0
   30.5400   26.9490   47.6410 H   0  0  0  0  0  0  0  0  0  0  0  0
   31.6580   27.8370   46.4760 H   0  0  0  0  0  0  0  0  0  0  0  0
   32.1490   25.1090   47.8850 H   0  0  0  0  0  0  0  0  0  0  0  0
   33.5000   25.9100   46.4160 C   0  0  0  0  0  0  0  0  0  0  0  0
   33.6880   26.6680   45.2800 C   0  0  0  0  0  0  0  0  0  0  0  0
   34.5890   26.2690   44.3140 C   0  0  0  0  0  0  0  0  0  0  0  0
   34.6060   26.9910   43.4840 H   0  0  0  0  0  0  0  0  0  0  0  0
   35.3460   25.1190   44.4080 C   0  0  0  0  0  0  0  0  0  0  0  0
   35.1630   24.3550   45.5420 C   0  0  0  0  0  0  0  0  0  0  0  0
   35.7610   23.4570   45.6050 H   0  0  0  0  0  0  0  0  0  0  0  0
   34.2570   24.7370   46.5380 C   0  0  0  0  0  0  0  0  0  0  0  0
  1  6  2  0  0  0  0
  1  2  1  0  0  0  0
  2  9  1  0  0  0  0
  2  3  2  0  0  0  0
  3  4  1  0  0  0  0
  3  8  1  0  0  0  0
  5 26  1  0  0  0  0
  5  4  2  0  0  0  0
  6  5  1  0  0  0  0
  7  1  1  0  0  0  0
  9 10  1  0  0  0  0
 10 11  2  0  0  0  0
 10 19  1  0  0  0  0
 11 20  1  0  0  0  0
 12 21  1  0  0  0  0
 12 11  1  0  0  0  0
 13 12  2  0  0  0  0
 14 22  1  0  0  0  0
 14 13  1  0  0  0  0
 15 14  2  0  0  0  0
 16 15  1  0  0  0  0
 16 17  2  0  0  0  0
 17 18  1  0  0  0  0
 18 13  1  0  0  0  0
 18  9  2  0  0  0  0
 23 15  1  0  0  0  0
 24 16  1  0  0  0  0
 25 17  1  0  0  0  0
 26 29  1  1  0  0  0
 27 28  1  0  0  0  0
 27 30  1  0  0  0  0
 27 26  1  0  0  0  0
 28 32  1  1  0  0  0
 28 26  1  0  0  0  0
 31 27  1  0  0  0  0
 33 40  1  0  0  0  0
 33 28  1  0  0  0  0
 34 33  2  0  0  0  0
 35 37  2  0  0  0  0
 35 34  1  0  0  0  0
 36 35  1  0  0  0  0
 37 38  1  0  0  0  0
 38 39  1  0  0  0  0
 38 40  2  0  0  0  0
M  END
>  <minimizedAffinity>
-6.92238092

>  <minimizedRMSD>
1.84901273

$$$$
