
 OpenBabel03252512583D

 29 32  0  0  0  0  0  0  0  0999 V2000
   36.8850   29.8330   51.5600 C   0  0  0  0  0  0  0  0  0  0  0  0
   37.6880   30.6180   50.7310 C   0  0  0  0  0  0  0  0  0  0  0  0
   37.3830   30.6900   49.3810 C   0  0  0  0  0  0  0  0  0  0  0  0
   36.3070   29.9900   48.9020 N   0  0  0  0  0  0  0  0  0  0  0  0
   35.5570   29.2410   49.7500 C   0  0  0  0  0  0  0  0  0  0  0  0
   35.8310   29.1540   51.0660 N   0  0  0  0  0  0  0  0  0  0  0  0
   37.1390   29.7890   52.6090 H   0  0  0  0  0  0  0  0  0  0  0  0
   38.5340   31.1720   51.0870 H   0  0  0  0  0  0  0  0  0  0  0  0
   38.1560   31.4830   48.4300 C   0  0  0  0  0  0  0  0  0  0  0  0
   38.8290   32.6570   48.5810 N   0  0  0  0  0  0  0  0  0  0  0  0
   39.3740   32.9900   47.4440 O   0  0  0  0  0  0  0  0  0  0  0  0
   39.0800   32.0830   46.5730 C   0  0  0  0  0  0  0  0  0  0  0  0
   38.3070   31.1000   47.1420 N   0  0  0  0  0  0  0  0  0  0  0  0
   39.4530   32.0150   45.1890 N   0  0  0  0  0  0  0  0  0  0  0  0
   38.9840   32.8940   44.2850 N   0  0  0  0  0  0  0  0  0  0  0  0
   39.4980   32.5900   43.0740 C   0  0  0  0  0  0  0  0  0  0  0  0
   40.3200   31.4700   43.2650 C   0  0  0  0  0  0  0  0  0  0  0  0
   40.2690   31.1330   44.6080 C   0  0  0  0  0  0  0  0  0  0  0  0
   39.3600   33.0580   42.1110 H   0  0  0  0  0  0  0  0  0  0  0  0
   40.9240   30.8950   42.5760 H   0  0  0  0  0  0  0  0  0  0  0  0
   40.7460   30.3480   45.1680 H   0  0  0  0  0  0  0  0  0  0  0  0
   34.4150   28.5040   49.2170 C   0  0  0  0  0  0  0  0  0  0  0  0
   34.5920   27.5220   48.2630 C   0  0  0  0  0  0  0  0  0  0  0  0
   33.5990   26.7770   47.7010 C   0  0  0  0  0  0  0  0  0  0  0  0
   33.8200   26.0230   46.9570 H   0  0  0  0  0  0  0  0  0  0  0  0
   32.3070   27.0540   48.1460 C   0  0  0  0  0  0  0  0  0  0  0  0
   32.1050   28.0320   49.0980 C   0  0  0  0  0  0  0  0  0  0  0  0
   31.0800   28.2160   49.4180 H   0  0  0  0  0  0  0  0  0  0  0  0
   33.1340   28.7720   49.6520 C   0  0  0  0  0  0  0  0  0  0  0  0
  1  7  1  0  0  0  0
  2  8  1  0  0  0  0
  2  1  2  0  0  0  0
  3  2  1  0  0  0  0
  4  3  2  0  0  0  0
  4  5  1  0  0  0  0
  5  6  2  0  0  0  0
  6  1  1  0  0  0  0
  9 10  2  0  0  0  0
  9  3  1  0  0  0  0
 11 10  1  0  0  0  0
 12 13  2  0  0  0  0
 12 11  1  0  0  0  0
 13  9  1  0  0  0  0
 14 12  1  0  0  0  0
 15 14  1  0  0  0  0
 16 17  1  0  0  0  0
 16 15  2  0  0  0  0
 17 18  2  0  0  0  0
 18 21  1  0  0  0  0
 18 14  1  0  0  0  0
 19 16  1  0  0  0  0
 20 17  1  0  0  0  0
 22 29  1  0  0  0  0
 22  5  1  0  0  0  0
 23 22  2  0  0  0  0
 24 26  2  0  0  0  0
 24 23  1  0  0  0  0
 25 24  1  0  0  0  0
 26 27  1  0  0  0  0
 27 28  1  0  0  0  0
 27 29  2  0  0  0  0
M  END
>  <minimizedAffinity>
-6.55477333

>  <minimizedRMSD>
0.766092837

$$$$
