
 OpenBabel03252514073D

 41 44  0  0  0  0  0  0  0  0999 V2000
   34.0390   29.9630   47.4290 C   0  0  0  0  0  0  0  0  0  0  0  0
   34.9840   29.6960   48.4470 C   0  0  0  0  0  0  0  0  0  0  0  0
   34.8420   28.4960   49.1170 C   0  0  0  0  0  0  0  0  0  0  0  0
   33.8330   27.6630   48.7710 N   0  0  0  0  0  0  0  0  0  0  0  0
   32.9540   27.9330   47.8080 C   0  0  0  0  0  0  0  0  0  0  0  0
   33.0510   29.0910   47.1280 N   0  0  0  0  0  0  0  0  0  0  0  0
   34.1210   30.8800   46.8950 H   0  0  0  0  0  0  0  0  0  0  0  0
   35.5880   28.3480   49.8730 H   0  0  0  0  0  0  0  0  0  0  0  0
   35.9860   30.6680   48.6930 N   0  0  0  0  0  0  0  0  0  0  0  0
   36.1640   31.2880   49.8750 C   0  0  0  0  0  0  0  0  0  0  0  0
   37.1950   32.1580   49.7650 N   0  0  0  0  0  0  0  0  0  0  0  0
   37.6470   32.0640   48.4980 C   0  0  0  0  0  0  0  0  0  0  0  0
   38.6610   32.6870   47.7920 C   0  0  0  0  0  0  0  0  0  0  0  0
   38.9000   32.3960   46.5080 N   0  0  0  0  0  0  0  0  0  0  0  0
   38.1650   31.4790   45.8380 C   0  0  0  0  0  0  0  0  0  0  0  0
   37.1830   30.8780   46.5260 N   0  0  0  0  0  0  0  0  0  0  0  0
   36.9010   31.1300   47.8070 C   0  0  0  0  0  0  0  0  0  0  0  0
   35.6220   31.1720   50.8090 H   0  0  0  0  0  0  0  0  0  0  0  0
   38.3180   31.2070   44.8020 H   0  0  0  0  0  0  0  0  0  0  0  0
   39.4590   33.6520   48.4420 N   0  0  0  0  0  0  0  0  0  0  0  0
   39.1900   34.2840   49.2250 H   0  0  0  0  0  0  0  0  0  0  0  0
   40.4430   33.8780   48.2310 H   0  0  0  0  0  0  0  0  0  0  0  0
   31.8790   26.9820   47.4520 C   0  0  0  0  0  0  0  0  0  0  0  0
   30.9380   26.8000   48.6590 C   0  0  0  0  0  0  0  0  0  0  0  0
   31.4310   27.2950   49.5420 H   0  0  0  0  0  0  0  0  0  0  0  0
   29.9780   27.3150   48.5330 H   0  0  0  0  0  0  0  0  0  0  0  0
   30.7830   25.7470   48.8810 H   0  0  0  0  0  0  0  0  0  0  0  0
   30.9640   27.6080   46.3780 C   0  0  0  0  0  0  0  0  0  0  0  0
   30.7140   28.6180   46.7340 H   0  0  0  0  0  0  0  0  0  0  0  0
   31.5620   27.7050   45.4580 H   0  0  0  0  0  0  0  0  0  0  0  0
   30.0720   26.9890   46.2950 H   0  0  0  0  0  0  0  0  0  0  0  0
   32.3100   25.6860   46.9150 C   0  0  0  0  0  0  0  0  0  0  0  0
   32.4750   24.9810   47.7710 H   0  0  0  0  0  0  0  0  0  0  0  0
   31.4330   25.2510   46.3520 H   0  0  0  0  0  0  0  0  0  0  0  0
   33.4740   25.6910   46.0720 N   0  0  0  0  0  0  0  0  0  0  0  0
   33.0850   25.1940   44.7100 C   0  0  0  0  0  2  0  0  0  0  0  0
   34.2180   25.7190   43.8280 C   0  0  0  0  0  2  0  0  0  0  0  0
   35.4290   24.8790   44.1800 C   0  0  0  0  0  3  0  0  0  0  0  0
   36.3330   25.5140   44.2460 H   0  0  0  0  0  0  0  0  0  0  0  0
   35.2200   24.0550   45.4030 C   0  0  0  0  0  2  0  0  0  0  0  0
   34.4630   24.7010   46.5190 C   0  0  0  0  0  2  0  0  0  0  0  0
  1  2  1  0  0  0  0
  2  9  1  0  0  0  0
  2  3  2  0  0  0  0
  3  8  1  0  0  0  0
  4  3  1  0  0  0  0
  5  4  2  0  0  0  0
  6  1  2  0  0  0  0
  6  5  1  0  0  0  0
  7  1  1  0  0  0  0
  9 10  1  0  0  0  0
 10 18  1  0  0  0  0
 11 10  2  0  0  0  0
 12 11  1  0  0  0  0
 13 20  1  0  0  0  0
 13 12  2  0  0  0  0
 14 13  1  0  0  0  0
 15 14  2  0  0  0  0
 15 16  1  0  0  0  0
 16 17  2  0  0  0  0
 17 12  1  0  0  0  0
 17  9  1  0  0  0  0
 19 15  1  0  0  0  0
 20 21  1  0  0  0  0
 22 20  1  0  0  0  0
 23  5  1  0  0  0  0
 23 24  1  0  0  0  0
 24 27  1  0  0  0  0
 24 25  1  0  0  0  0
 26 24  1  0  0  0  0
 28 29  1  0  0  0  0
 28 23  1  0  0  0  0
 30 28  1  0  0  0  0
 31 28  1  0  0  0  0
 32 23  1  0  0  0  0
 32 33  1  0  0  0  0
 34 32  1  0  0  0  0
 35 41  1  0  0  0  0
 35 32  1  0  0  0  0
 36 35  1  0  0  0  0
 37 38  1  0  0  0  0
 37 36  1  0  0  0  0
 38 39  1  0  0  0  0
 38 40  1  0  0  0  0
 40 41  1  0  0  0  0
M  END
>  <minimizedAffinity>
-5.36795092

>  <minimizedRMSD>
0.885270119

$$$$
