
 OpenBabel03252513533D

 19 20  0  0  0  0  0  0  0  0999 V2000
   37.9110   30.5380   47.6990 C   0  0  0  0  0  0  0  0  0  0  0  0
   37.6430   29.5710   47.2620 H   0  0  0  0  0  0  0  0  0  0  0  0
   38.7830   30.3390   48.3710 H   0  0  0  0  0  0  0  0  0  0  0  0
   40.0290   32.9470   45.8800 C   0  0  0  0  0  0  0  0  0  0  0  0
   39.3020   33.1490   44.6980 C   0  0  0  0  0  0  0  0  0  0  0  0
   38.0950   32.4660   44.5220 C   0  0  0  0  0  0  0  0  0  0  0  0
   37.6910   31.6310   45.5290 N   0  0  0  0  0  0  0  0  0  0  0  0
   38.4080   31.4560   46.6520 C   0  0  0  0  0  0  0  0  0  0  0  0
   39.5720   32.1180   46.8150 N   0  0  0  0  0  0  0  0  0  0  0  0
   40.9470   33.5090   45.9390 H   0  0  0  0  0  0  0  0  0  0  0  0
   39.5900   33.8060   43.8710 H   0  0  0  0  0  0  0  0  0  0  0  0
   37.4480   32.5390   43.6590 H   0  0  0  0  0  0  0  0  0  0  0  0
   36.8530   31.1150   48.4900 N   0  0  0  0  0  0  0  0  0  0  0  0
   37.2700   31.5190   49.7980 C   0  0  0  0  0  0  0  0  0  0  0  0
   37.1160   30.5230   50.8880 C   0  0  0  0  0  0  0  0  0  0  0  0
   35.9620   29.5740   50.7490 C   0  0  0  0  0  0  0  0  0  0  0  0
   34.9910   30.0220   50.9680 H   0  0  0  0  0  0  0  0  0  0  0  0
   35.9150   29.0870   49.3030 C   0  0  0  0  0  0  0  0  0  0  0  0
   35.6450   30.3340   48.4710 C   0  0  0  0  0  0  0  0  0  0  0  0
  1  3  1  0  0  0  0
  1 13  1  0  0  0  0
  2  1  1  0  0  0  0
  4 10  1  0  0  0  0
  4  9  1  0  0  0  0
  5  4  2  0  0  0  0
  6  5  1  0  0  0  0
  6  7  2  0  0  0  0
  7  8  1  0  0  0  0
  8  9  2  0  0  0  0
  8  1  1  0  0  0  0
 11  5  1  0  0  0  0
 12  6  1  0  0  0  0
 13 14  1  0  0  0  0
 14 15  1  0  0  0  0
 16 15  1  0  0  0  0
 16 17  1  0  0  0  0
 18 16  1  0  0  0  0
 19 13  1  0  0  0  0
 19 18  1  0  0  0  0
M  END
>  <minimizedAffinity>
-4.73797941

>  <minimizedRMSD>
4.73885918

$$$$
