
 OpenBabel03252514073D

 41 44  0  0  0  0  0  0  0  0999 V2000
   31.1970   28.1930   46.9640 C   0  0  0  0  0  0  0  0  0  0  0  0
   31.3970   26.9430   46.3340 C   0  0  0  0  0  0  0  0  0  0  0  0
   30.4660   25.9600   46.6110 C   0  0  0  0  0  0  0  0  0  0  0  0
   29.4420   26.2400   47.4490 N   0  0  0  0  0  0  0  0  0  0  0  0
   29.2710   27.4250   48.0330 C   0  0  0  0  0  0  0  0  0  0  0  0
   30.1520   28.4140   47.7930 N   0  0  0  0  0  0  0  0  0  0  0  0
   31.8980   28.9710   46.7720 H   0  0  0  0  0  0  0  0  0  0  0  0
   30.6680   25.0380   46.1030 H   0  0  0  0  0  0  0  0  0  0  0  0
   32.5190   26.8030   45.4800 N   0  0  0  0  0  0  0  0  0  0  0  0
   33.6790   26.2230   45.8440 C   0  0  0  0  0  0  0  0  0  0  0  0
   34.5390   26.2630   44.7990 N   0  0  0  0  0  0  0  0  0  0  0  0
   33.8910   26.8770   43.7890 C   0  0  0  0  0  0  0  0  0  0  0  0
   34.2340   27.2100   42.4900 C   0  0  0  0  0  0  0  0  0  0  0  0
   33.3730   27.8350   41.6770 N   0  0  0  0  0  0  0  0  0  0  0  0
   32.1280   28.1700   42.0840 C   0  0  0  0  0  0  0  0  0  0  0  0
   31.7990   27.8470   43.3430 N   0  0  0  0  0  0  0  0  0  0  0  0
   32.6180   27.2240   44.1960 C   0  0  0  0  0  0  0  0  0  0  0  0
   33.9630   25.7720   46.7910 H   0  0  0  0  0  0  0  0  0  0  0  0
   31.3950   28.6740   41.4670 H   0  0  0  0  0  0  0  0  0  0  0  0
   35.5210   26.8840   42.0140 N   0  0  0  0  0  0  0  0  0  0  0  0
   36.4050   26.8040   42.5600 H   0  0  0  0  0  0  0  0  0  0  0  0
   35.7810   26.6750   41.0380 H   0  0  0  0  0  0  0  0  0  0  0  0
   28.1230   27.6890   48.9270 C   0  0  0  0  0  0  0  0  0  0  0  0
   28.2670   26.8420   50.2060 C   0  0  0  0  0  0  0  0  0  0  0  0
   29.1070   26.1150   50.0300 H   0  0  0  0  0  0  0  0  0  0  0  0
   28.5700   27.4350   51.0780 H   0  0  0  0  0  0  0  0  0  0  0  0
   27.3540   26.2910   50.4170 H   0  0  0  0  0  0  0  0  0  0  0  0
   28.1930   29.1400   49.4490 C   0  0  0  0  0  0  0  0  0  0  0  0
   29.2220   29.2910   49.8090 H   0  0  0  0  0  0  0  0  0  0  0  0
   28.0300   29.8050   48.5860 H   0  0  0  0  0  0  0  0  0  0  0  0
   27.4750   29.2400   50.2610 H   0  0  0  0  0  0  0  0  0  0  0  0
   26.7890   27.5340   48.3350 C   0  0  0  0  0  0  0  0  0  0  0  0
   26.6580   26.4650   48.0250 H   0  0  0  0  0  0  0  0  0  0  0  0
   26.0380   27.6860   49.1640 H   0  0  0  0  0  0  0  0  0  0  0  0
   26.4710   28.3940   47.2270 N   0  0  0  0  0  0  0  0  0  0  0  0
   27.2520   27.9420   46.0280 C   0  0  0  0  0  2  0  0  0  0  0  0
   26.4710   28.5650   44.8690 C   0  0  0  0  0  2  0  0  0  0  0  0
   26.7560   30.0510   44.9390 C   0  0  0  0  0  3  0  0  0  0  0  0
   25.8330   30.6300   44.7510 H   0  0  0  0  0  0  0  0  0  0  0  0
   27.4290   30.4460   46.2080 C   0  0  0  0  0  2  0  0  0  0  0  0
   26.9620   29.7600   47.4510 C   0  0  0  0  0  2  0  0  0  0  0  0
  1  6  1  0  0  0  0
  2  3  1  0  0  0  0
  2  1  2  0  0  0  0
  3  4  2  0  0  0  0
  4  5  1  0  0  0  0
  5 23  1  0  0  0  0
  6  5  2  0  0  0  0
  7  1  1  0  0  0  0
  8  3  1  0  0  0  0
  9 10  1  0  0  0  0
  9  2  1  0  0  0  0
 10 18  1  0  0  0  0
 11 10  2  0  0  0  0
 12 17  1  0  0  0  0
 12 11  1  0  0  0  0
 13 12  2  0  0  0  0
 14 15  2  0  0  0  0
 14 13  1  0  0  0  0
 15 16  1  0  0  0  0
 16 17  2  0  0  0  0
 17  9  1  0  0  0  0
 19 15  1  0  0  0  0
 20 13  1  0  0  0  0
 20 21  1  0  0  0  0
 22 20  1  0  0  0  0
 23 28  1  0  0  0  0
 23 24  1  0  0  0  0
 24 27  1  0  0  0  0
 24 26  1  0  0  0  0
 25 24  1  0  0  0  0
 28 29  1  0  0  0  0
 28 31  1  0  0  0  0
 30 28  1  0  0  0  0
 32 23  1  0  0  0  0
 32 34  1  0  0  0  0
 33 32  1  0  0  0  0
 35 41  1  0  0  0  0
 35 32  1  0  0  0  0
 36 35  1  0  0  0  0
 37 38  1  0  0  0  0
 37 36  1  0  0  0  0
 38 40  1  0  0  0  0
 39 38  1  0  0  0  0
 40 41  1  0  0  0  0
M  END
>  <minimizedAffinity>
-3.73588133

>  <minimizedRMSD>
7.64873695

$$$$
