
 OpenBabel03252513023D

 28 29  0  0  0  0  0  0  0  0999 V2000
   37.4400   31.1550   46.9580 C   0  0  0  0  0  0  0  0  0  0  0  0
   36.5490   31.7890   47.2480 H   0  0  0  0  0  0  0  0  0  0  0  0
   37.0030   30.1790   46.6330 H   0  0  0  0  0  0  0  0  0  0  0  0
   38.0660   31.7980   45.8740 N   0  0  0  0  0  0  0  0  0  0  0  0
   39.1300   32.5660   45.8280 C   0  0  0  0  0  0  0  0  0  0  0  0
   39.6550   33.1450   44.7060 C   0  0  0  0  0  0  0  0  0  0  0  0
   39.0570   32.9400   43.4950 C   0  0  0  0  0  0  0  0  0  0  0  0
   39.4810   33.4370   42.4310 O   0  0  0  0  0  0  0  0  0  0  0  0
   37.9860   32.1740   43.5000 N   0  0  0  0  0  0  0  0  0  0  0  0
   37.5000   31.6210   44.6260 C   0  0  0  0  0  0  0  0  0  0  0  0
   36.4640   30.9020   44.5060 O   0  0  0  0  0  0  0  0  0  0  0  0
   39.6230   32.7420   46.8000 H   0  0  0  0  0  0  0  0  0  0  0  0
   40.5420   33.7630   44.7970 H   0  0  0  0  0  0  0  0  0  0  0  0
   37.3130   31.9250   42.2260 C   0  0  0  0  0  0  0  0  0  0  0  0
   36.7610   33.2570   41.7400 C   0  0  0  0  0  0  0  0  0  0  0  0
   38.2220   31.3040   41.2010 C   0  0  0  0  0  0  0  0  0  0  0  0
   38.2120   30.9160   48.1870 C   0  0  0  0  0  0  0  0  0  0  0  0
   39.0400   30.1850   47.9500 H   0  0  0  0  0  0  0  0  0  0  0  0
   38.7320   31.8350   48.5220 H   0  0  0  0  0  0  0  0  0  0  0  0
   35.5630   29.1790   50.2560 C   0  0  0  0  0  0  0  0  0  0  0  0
   36.2490   29.6800   49.1340 C   0  0  0  0  0  0  0  0  0  0  0  0
   37.4280   30.3590   49.3020 C   0  0  0  0  0  0  0  0  0  0  0  0
   37.9020   30.5290   50.5820 N   0  0  0  0  0  0  0  0  0  0  0  0
   37.2510   30.0560   51.6340 C   0  0  0  0  0  0  0  0  0  0  0  0
   36.0930   29.3870   51.4860 N   0  0  0  0  0  0  0  0  0  0  0  0
   34.6400   28.6540   50.0550 H   0  0  0  0  0  0  0  0  0  0  0  0
   35.8630   29.5380   48.1250 H   0  0  0  0  0  0  0  0  0  0  0  0
   37.6850   30.2270   52.6120 H   0  0  0  0  0  0  0  0  0  0  0  0
  1  2  1  0  0  0  0
  1 17  1  0  0  0  0
  3  1  1  0  0  0  0
  4  1  1  0  0  0  0
  5  4  1  0  0  0  0
  5 12  1  0  0  0  0
  6 13  1  0  0  0  0
  6  5  2  0  0  0  0
  7  9  1  0  0  0  0
  7  6  1  0  0  0  0
  8  7  2  0  0  0  0
  9 10  1  0  0  0  0
 10  4  1  0  0  0  0
 11 10  2  0  0  0  0
 14  9  1  0  0  0  0
 15 14  1  0  0  0  0
 16 14  1  0  0  0  0
 17 19  1  0  0  0  0
 17 22  1  0  0  0  0
 18 17  1  0  0  0  0
 20 25  1  0  0  0  0
 21 22  1  0  0  0  0
 21 20  2  0  0  0  0
 22 23  2  0  0  0  0
 23 24  1  0  0  0  0
 24 28  1  0  0  0  0
 25 24  2  0  0  0  0
 26 20  1  0  0  0  0
 27 21  1  0  0  0  0
M  END
>  <minimizedAffinity>
-4.99616909

>  <minimizedRMSD>
1.23089612

$$$$
