
 OpenBabel03252513473D

 23 24  0  0  0  0  0  0  0  0999 V2000
   36.7680   29.6280   48.9370 C   0  0  0  0  0  0  0  0  0  0  0  0
   37.8300   30.2390   48.1940 C   0  0  0  0  0  0  0  0  0  0  0  0
   37.5520   30.7050   46.9200 C   0  0  0  0  0  0  0  0  0  0  0  0
   36.3000   30.5630   46.4360 N   0  0  0  0  0  0  0  0  0  0  0  0
   35.3140   29.9820   47.1580 C   0  0  0  0  0  0  0  0  0  0  0  0
   35.5630   29.5290   48.3860 N   0  0  0  0  0  0  0  0  0  0  0  0
   38.7880   30.3080   48.6570 H   0  0  0  0  0  0  0  0  0  0  0  0
   38.5770   31.3130   46.1560 N   0  0  0  0  0  0  0  0  0  0  0  0
   39.0030   32.6530   46.4750 C   0  0  0  0  0  0  0  0  0  0  0  0
   40.3150   33.0200   45.8410 C   0  0  0  0  0  0  0  0  0  0  0  0
   40.4010   32.6750   44.3840 C   0  0  0  0  0  0  0  0  0  0  0  0
   40.2760   33.5720   43.7380 H   0  0  0  0  0  0  0  0  0  0  0  0
   39.3690   31.6690   43.9490 C   0  0  0  0  0  0  0  0  0  0  0  0
   39.2190   30.6450   45.0630 C   0  0  0  0  0  0  0  0  0  0  0  0
   33.9840   29.8980   46.4900 C   0  0  0  0  0  0  0  0  0  0  0  0
   33.1760   30.9470   46.9160 F   0  0  0  0  0  0  0  0  0  0  0  0
   34.1420   30.0630   45.1310 F   0  0  0  0  0  0  0  0  0  0  0  0
   33.3740   28.6700   46.6840 F   0  0  0  0  0  0  0  0  0  0  0  0
   37.0550   29.1710   50.1970 O   0  0  0  0  0  0  0  0  0  0  0  0
   36.8690   29.8940   51.3740 C   0  0  0  0  0  0  0  0  0  0  0  0
   37.8030   29.6170   52.3530 F   0  0  0  0  0  0  0  0  0  0  0  0
   36.7720   31.2620   51.1920 F   0  0  0  0  0  0  0  0  0  0  0  0
   35.6340   29.4920   51.8790 F   0  0  0  0  0  0  0  0  0  0  0  0
  1 19  1  0  0  0  0
  2  7  1  0  0  0  0
  2  1  2  0  0  0  0
  3  2  1  0  0  0  0
  4  3  2  0  0  0  0
  4  5  1  0  0  0  0
  5  6  2  0  0  0  0
  6  1  1  0  0  0  0
  8  9  1  0  0  0  0
  8  3  1  0  0  0  0
 10  9  1  0  0  0  0
 11 10  1  0  0  0  0
 12 11  1  0  0  0  0
 13 11  1  0  0  0  0
 13 14  1  0  0  0  0
 14  8  1  0  0  0  0
 15 18  1  0  0  0  0
 15 16  1  0  0  0  0
 15  5  1  0  0  0  0
 17 15  1  0  0  0  0
 19 20  1  0  0  0  0
 20 23  1  0  0  0  0
 20 21  1  0  0  0  0
 22 20  1  0  0  0  0
M  END
>  <minimizedAffinity>
-6.09916449

>  <minimizedRMSD>
4.78597212

$$$$
