
 OpenBabel03252513163D

 28 30  0  0  1  0  0  0  0  0999 V2000
   39.1340   30.9210   45.3050 N   0  0  0  0  0  0  0  0  0  0  0  0
   40.5550   31.0700   45.5210 C   0  0  0  0  0  0  0  0  0  0  0  0
   40.7100   32.5780   45.4670 C   0  0  0  0  0  0  0  0  0  0  0  0
   39.6010   32.9860   46.4160 C   0  0  0  0  0  0  0  0  0  0  0  0
   38.6260   31.8390   46.2680 C   0  0  2  0  0  0  0  0  0  0  0  0
   41.1820   30.5470   44.7830 H   0  0  0  0  0  0  0  0  0  0  0  0
   40.8060   30.7730   46.5780 H   0  0  0  0  0  0  0  0  0  0  0  0
   41.7020   32.9360   45.7600 H   0  0  0  0  0  0  0  0  0  0  0  0
   40.3930   32.9330   44.4570 H   0  0  0  0  0  0  0  0  0  0  0  0
   40.0800   32.9350   47.4380 H   0  0  0  0  0  0  0  0  0  0  0  0
   39.1760   33.9700   46.2240 H   0  0  0  0  0  0  0  0  0  0  0  0
   37.7020   32.3080   45.8210 H   0  0  0  0  0  0  0  0  0  0  0  0
   38.4800   30.0780   44.3750 C   0  0  0  0  0  0  0  0  0  0  0  0
   39.1450   29.0050   43.7480 C   0  0  0  0  0  0  0  0  0  0  0  0
   38.4030   28.2120   42.8320 C   0  0  0  0  0  0  0  0  0  0  0  0
   37.0950   28.5320   42.6090 N   0  0  0  0  0  0  0  0  0  0  0  0
   36.4970   29.5700   43.2310 C   0  0  0  0  0  0  0  0  0  0  0  0
   37.1940   30.3360   44.1100 N   0  0  0  0  0  0  0  0  0  0  0  0
   40.1660   28.8080   43.9650 H   0  0  0  0  0  0  0  0  0  0  0  0
   38.8900   27.3820   42.3370 H   0  0  0  0  0  0  0  0  0  0  0  0
   35.4590   29.7860   43.0250 H   0  0  0  0  0  0  0  0  0  0  0  0
   38.2710   31.3540   47.5410 N   0  0  0  0  0  0  0  0  0  0  0  0
   38.6410   32.2810   48.5520 C   0  0  0  0  0  0  0  0  0  0  0  0
   38.4060   31.6030   49.9020 C   0  0  0  0  0  0  0  0  0  0  0  0
   36.8920   31.5710   50.0160 C   0  0  0  0  0  0  0  0  0  0  0  0
   36.5650   32.6420   50.0350 H   0  0  0  0  0  0  0  0  0  0  0  0
   36.2460   30.8520   48.8690 C   0  0  0  0  0  0  0  0  0  0  0  0
   37.1380   30.5620   47.7140 C   0  0  0  0  0  0  0  0  0  0  0  0
  1  2  1  0  0  0  0
  1  5  1  0  0  0  0
  2  7  1  0  0  0  0
  3  2  1  0  0  0  0
  3  8  1  0  0  0  0
  3  4  1  0  0  0  0
  4 10  1  0  0  0  0
  5 12  1  6  0  0  0
  5  4  1  0  0  0  0
  5 22  1  0  0  0  0
  6  2  1  0  0  0  0
  9  3  1  0  0  0  0
 11  4  1  0  0  0  0
 13  1  1  0  0  0  0
 14 19  1  0  0  0  0
 14 13  2  0  0  0  0
 15 14  1  0  0  0  0
 16 15  2  0  0  0  0
 16 17  1  0  0  0  0
 17 18  2  0  0  0  0
 18 13  1  0  0  0  0
 20 15  1  0  0  0  0
 21 17  1  0  0  0  0
 22 28  1  0  0  0  0
 22 23  1  0  0  0  0
 23 24  1  0  0  0  0
 24 25  1  0  0  0  0
 25 26  1  0  0  0  0
 27 25  1  0  0  0  0
 28 27  1  0  0  0  0
M  END
>  <minimizedAffinity>
-5.19635391

>  <minimizedRMSD>
5.48067808

$$$$
