
 OpenBabel03252514073D

 41 44  0  0  0  0  0  0  0  0999 V2000
   34.2170   30.0770   47.5250 C   0  0  0  0  0  0  0  0  0  0  0  0
   35.2240   29.8160   48.4830 C   0  0  0  0  0  0  0  0  0  0  0  0
   35.1790   28.5810   49.1020 C   0  0  0  0  0  0  0  0  0  0  0  0
   34.1980   27.7120   48.7660 N   0  0  0  0  0  0  0  0  0  0  0  0
   33.2580   27.9760   47.8600 C   0  0  0  0  0  0  0  0  0  0  0  0
   33.2610   29.1670   47.2310 N   0  0  0  0  0  0  0  0  0  0  0  0
   34.2240   31.0200   47.0310 H   0  0  0  0  0  0  0  0  0  0  0  0
   35.9680   28.4410   49.8130 H   0  0  0  0  0  0  0  0  0  0  0  0
   36.1860   30.8290   48.7250 N   0  0  0  0  0  0  0  0  0  0  0  0
   36.2800   31.5220   49.8760 C   0  0  0  0  0  0  0  0  0  0  0  0
   37.2930   32.4130   49.7730 N   0  0  0  0  0  0  0  0  0  0  0  0
   37.8200   32.2580   48.5410 C   0  0  0  0  0  0  0  0  0  0  0  0
   38.8570   32.8680   47.8560 C   0  0  0  0  0  0  0  0  0  0  0  0
   39.1760   32.5090   46.6070 N   0  0  0  0  0  0  0  0  0  0  0  0
   38.5040   31.5350   45.9530 C   0  0  0  0  0  0  0  0  0  0  0  0
   37.4990   30.9470   46.6200 N   0  0  0  0  0  0  0  0  0  0  0  0
   37.1380   31.2650   47.8660 C   0  0  0  0  0  0  0  0  0  0  0  0
   35.6880   31.4450   50.7840 H   0  0  0  0  0  0  0  0  0  0  0  0
   38.7220   31.2070   44.9450 H   0  0  0  0  0  0  0  0  0  0  0  0
   39.5910   33.8910   48.4900 N   0  0  0  0  0  0  0  0  0  0  0  0
   39.2620   34.5600   49.2180 H   0  0  0  0  0  0  0  0  0  0  0  0
   40.5800   34.1330   48.3220 H   0  0  0  0  0  0  0  0  0  0  0  0
   32.2180   26.9850   47.5120 C   0  0  0  0  0  0  0  0  0  0  0  0
   32.8390   25.5740   47.5070 C   0  0  0  0  0  0  0  0  0  0  0  0
   33.9540   25.7020   47.5840 H   0  0  0  0  0  0  0  0  0  0  0  0
   32.5500   24.9790   48.3810 H   0  0  0  0  0  0  0  0  0  0  0  0
   32.6020   25.0450   46.5870 H   0  0  0  0  0  0  0  0  0  0  0  0
   31.1720   26.9100   48.6440 C   0  0  0  0  0  0  0  0  0  0  0  0
   31.7360   26.8140   49.5830 H   0  0  0  0  0  0  0  0  0  0  0  0
   30.6390   27.8740   48.6610 H   0  0  0  0  0  0  0  0  0  0  0  0
   30.5490   26.0330   48.4700 H   0  0  0  0  0  0  0  0  0  0  0  0
   31.4650   27.2380   46.2780 C   0  0  0  0  0  0  0  0  0  0  0  0
   30.3740   27.2920   46.5310 H   0  0  0  0  0  0  0  0  0  0  0  0
   31.7310   28.2800   45.9340 H   0  0  0  0  0  0  0  0  0  0  0  0
   31.6580   26.3060   45.2010 N   0  0  0  0  0  0  0  0  0  0  0  0
   32.3120   27.0230   44.0560 C   0  0  0  0  0  2  0  0  0  0  0  0
   32.9040   25.8740   43.2380 C   0  0  0  0  0  2  0  0  0  0  0  0
   31.7200   25.1820   42.5940 C   0  0  0  0  0  3  0  0  0  0  0  0
   31.8430   24.0840   42.6390 H   0  0  0  0  0  0  0  0  0  0  0  0
   30.4160   25.6320   43.1570 C   0  0  0  0  0  2  0  0  0  0  0  0
   30.3750   25.8700   44.6330 C   0  0  0  0  0  2  0  0  0  0  0  0
  1  2  1  0  0  0  0
  2  9  1  0  0  0  0
  2  3  2  0  0  0  0
  3  8  1  0  0  0  0
  4  3  1  0  0  0  0
  5  4  2  0  0  0  0
  6  1  2  0  0  0  0
  6  5  1  0  0  0  0
  7  1  1  0  0  0  0
  9 10  1  0  0  0  0
 10 18  1  0  0  0  0
 11 10  2  0  0  0  0
 12 11  1  0  0  0  0
 13 20  1  0  0  0  0
 13 12  2  0  0  0  0
 14 13  1  0  0  0  0
 15 14  2  0  0  0  0
 15 16  1  0  0  0  0
 16 17  2  0  0  0  0
 17 12  1  0  0  0  0
 17  9  1  0  0  0  0
 19 15  1  0  0  0  0
 20 21  1  0  0  0  0
 22 20  1  0  0  0  0
 23  5  1  0  0  0  0
 23 28  1  0  0  0  0
 24 23  1  0  0  0  0
 24 25  1  0  0  0  0
 24 26  1  0  0  0  0
 27 24  1  0  0  0  0
 28 30  1  0  0  0  0
 28 29  1  0  0  0  0
 31 28  1  0  0  0  0
 32 33  1  0  0  0  0
 32 23  1  0  0  0  0
 34 32  1  0  0  0  0
 35 32  1  0  0  0  0
 36 35  1  0  0  0  0
 37 36  1  0  0  0  0
 38 39  1  0  0  0  0
 38 40  1  0  0  0  0
 38 37  1  0  0  0  0
 40 41  1  0  0  0  0
 41 35  1  0  0  0  0
M  END
>  <minimizedAffinity>
-5.09593534

>  <minimizedRMSD>
2.70404482

$$$$
