
 OpenBabel03252513293D

 38 40  0  0  0  0  0  0  0  0999 V2000
   31.7300   26.5490   47.8520 C   0  0  0  0  0  0  0  0  0  0  0  0
   31.4980   25.3450   47.2900 C   0  0  0  0  0  0  0  0  0  0  0  0
   32.5000   24.4990   46.8560 C   0  0  0  0  0  0  0  0  0  0  0  0
   33.7920   24.9550   47.0310 C   0  0  0  0  0  0  0  0  0  0  0  0
   34.0540   26.1720   47.5980 C   0  0  0  0  0  0  0  0  0  0  0  0
   33.0260   26.9870   48.0170 C   0  0  0  0  0  0  0  0  0  0  0  0
   30.4600   25.0440   47.1810 H   0  0  0  0  0  0  0  0  0  0  0  0
   32.2470   23.5540   46.4170 H   0  0  0  0  0  0  0  0  0  0  0  0
   34.5940   24.2980   46.6930 H   0  0  0  0  0  0  0  0  0  0  0  0
   35.0820   26.4880   47.7140 H   0  0  0  0  0  0  0  0  0  0  0  0
   29.2090   28.2440   49.9370 C   0  0  0  0  0  0  0  0  0  0  0  0
   28.5680   29.0860   49.0200 C   0  0  0  0  0  0  0  0  0  0  0  0
   29.0190   29.0540   47.6930 C   0  0  0  0  0  0  0  0  0  0  0  0
   30.0540   28.2080   47.3670 N   0  0  0  0  0  0  0  0  0  0  0  0
   30.6340   27.4170   48.2990 C   0  0  0  0  0  0  0  0  0  0  0  0
   30.2030   27.4530   49.5450 N   0  0  0  0  0  0  0  0  0  0  0  0
   28.8310   28.3000   50.9490 H   0  0  0  0  0  0  0  0  0  0  0  0
   28.5680   29.6790   46.9330 H   0  0  0  0  0  0  0  0  0  0  0  0
   27.4520   29.9880   49.3960 C   0  0  0  0  0  0  0  0  0  0  0  0
   27.7930   30.9050   50.3510 F   0  0  0  0  0  0  0  0  0  0  0  0
   26.3660   29.2820   49.8750 F   0  0  0  0  0  0  0  0  0  0  0  0
   27.0310   30.7040   48.2570 F   0  0  0  0  0  0  0  0  0  0  0  0
   33.2600   28.3050   48.6330 C   0  0  0  0  0  0  0  0  0  0  0  0
   33.7230   28.1330   49.6070 H   0  0  0  0  0  0  0  0  0  0  0  0
   32.2680   28.7830   48.8730 H   0  0  0  0  0  0  0  0  0  0  0  0
   33.9820   29.2820   47.7810 C   0  0  0  0  0  0  0  0  0  0  0  0
   34.2210   28.9020   46.7530 H   0  0  0  0  0  0  0  0  0  0  0  0
   33.4050   30.2380   47.6210 H   0  0  0  0  0  0  0  0  0  0  0  0
   35.2540   29.6640   48.3970 C   0  0  0  0  0  0  0  0  0  0  0  0
   35.8220   28.9950   49.4670 C   0  0  0  0  0  0  0  0  0  0  0  0
   37.0070   29.6040   49.8110 C   0  0  0  0  0  0  0  0  0  0  0  0
   37.1220   30.6440   48.9190 N   0  0  0  0  0  0  0  0  0  0  0  0
   36.0940   30.6810   48.0890 N   0  0  0  0  0  0  0  0  0  0  0  0
   35.5530   28.1350   50.0660 H   0  0  0  0  0  0  0  0  0  0  0  0
   37.7560   29.4070   50.5780 H   0  0  0  0  0  0  0  0  0  0  0  0
   38.2500   31.5850   48.9070 C   0  0  0  0  0  0  0  0  0  0  0  0
   38.7300   31.7130   47.4770 C   0  0  0  0  0  0  0  0  0  0  0  0
   37.8080   32.9140   49.4340 C   0  0  0  0  0  0  0  0  0  0  0  0
  1  6  1  0  0  0  0
  1 15  1  0  0  0  0
  2  1  2  0  0  0  0
  3  4  2  0  0  0  0
  3  2  1  0  0  0  0
  4  5  1  0  0  0  0
  5 10  1  0  0  0  0
  5  6  2  0  0  0  0
  6 23  1  0  0  0  0
  7  2  1  0  0  0  0
  8  3  1  0  0  0  0
  9  4  1  0  0  0  0
 11 17  1  0  0  0  0
 12 19  1  0  0  0  0
 12 11  2  0  0  0  0
 13 12  1  0  0  0  0
 14 13  2  0  0  0  0
 14 15  1  0  0  0  0
 15 16  2  0  0  0  0
 16 11  1  0  0  0  0
 18 13  1  0  0  0  0
 19 21  1  0  0  0  0
 19 20  1  0  0  0  0
 22 19  1  0  0  0  0
 23 25  1  0  0  0  0
 23 24  1  0  0  0  0
 26 29  1  0  0  0  0
 26 23  1  0  0  0  0
 27 26  1  0  0  0  0
 28 26  1  0  0  0  0
 29 30  1  0  0  0  0
 30 31  2  0  0  0  0
 30 34  1  0  0  0  0
 31 35  1  0  0  0  0
 32 31  1  0  0  0  0
 33 29  2  0  0  0  0
 33 32  1  0  0  0  0
 36 32  1  0  0  0  0
 36 38  1  0  0  0  0
 37 36  1  0  0  0  0
M  END
>  <minimizedAffinity>
-6.49405241

>  <minimizedRMSD>
0.879120827

$$$$
