
 OpenBabel03252511233D

 32 35  0  0  0  0  0  0  0  0999 V2000
   35.5150   29.5080   49.2360 C   0  0  0  0  0  0  0  0  0  0  0  0
   35.5540   29.1970   50.5930 C   0  0  0  0  0  0  0  0  0  0  0  0
   36.5160   29.6530   51.4600 C   0  0  0  0  0  0  0  0  0  0  0  0
   37.5150   30.4610   51.0110 C   0  0  0  0  0  0  0  0  0  0  0  0
   37.5400   30.8040   49.6960 C   0  0  0  0  0  0  0  0  0  0  0  0
   38.5680   31.6240   49.2830 C   0  0  0  0  0  0  0  0  0  0  0  0
   38.6650   32.0140   47.9840 C   0  0  0  0  0  0  0  0  0  0  0  0
   37.6930   31.5570   47.0980 C   0  0  0  0  0  0  0  0  0  0  0  0
   36.6890   30.7430   47.5580 C   0  0  0  0  0  0  0  0  0  0  0  0
   36.5560   30.3300   48.8490 C   0  0  0  0  0  0  0  0  0  0  0  0
   34.7720   28.5530   50.9970 H   0  0  0  0  0  0  0  0  0  0  0  0
   36.4680   29.3590   52.5100 H   0  0  0  0  0  0  0  0  0  0  0  0
   38.2520   30.7970   51.7260 H   0  0  0  0  0  0  0  0  0  0  0  0
   39.3200   31.9740   49.9850 H   0  0  0  0  0  0  0  0  0  0  0  0
   39.4390   32.6540   47.5780 H   0  0  0  0  0  0  0  0  0  0  0  0
   37.7190   31.8350   46.0490 H   0  0  0  0  0  0  0  0  0  0  0  0
   35.9450   30.4060   46.8240 H   0  0  0  0  0  0  0  0  0  0  0  0
   33.4750   26.9870   47.6990 C   0  0  0  0  0  0  0  0  0  0  0  0
   32.6470   27.6120   46.7610 C   0  0  0  0  0  0  0  0  0  0  0  0
   32.8110   28.9940   46.6610 C   0  0  0  0  0  0  0  0  0  0  0  0
   33.7150   29.5940   47.4390 N   0  0  0  0  0  0  0  0  0  0  0  0
   34.4990   29.0260   48.3230 C   0  0  0  0  0  0  0  0  0  0  0  0
   34.3290   27.7030   48.4060 N   0  0  0  0  0  0  0  0  0  0  0  0
   33.3400   25.9100   47.7690 H   0  0  0  0  0  0  0  0  0  0  0  0
   31.9320   27.1220   46.1480 H   0  0  0  0  0  0  0  0  0  0  0  0
   32.0620   29.7880   45.7690 N   0  0  0  0  0  0  0  0  0  0  0  0
   32.6270   30.7060   44.8110 C   0  0  0  0  0  0  0  0  0  0  0  0
   31.8760   32.0290   44.7770 C   0  0  0  0  0  0  0  0  0  0  0  0
   30.3790   31.8270   44.6640 C   0  0  0  0  0  0  0  0  0  0  0  0
   29.9450   32.4150   43.8280 H   0  0  0  0  0  0  0  0  0  0  0  0
   30.0280   30.3580   44.5610 C   0  0  0  0  0  0  0  0  0  0  0  0
   30.5980   29.6820   45.8050 C   0  0  0  0  0  0  0  0  0  0  0  0
  1  2  1  0  0  0  0
  2 11  1  0  0  0  0
  2  3  2  0  0  0  0
  3 12  1  0  0  0  0
  4  3  1  0  0  0  0
  4 13  1  0  0  0  0
  5  4  2  0  0  0  0
  6  5  1  0  0  0  0
  6 14  1  0  0  0  0
  7  6  2  0  0  0  0
  8  9  2  0  0  0  0
  8  7  1  0  0  0  0
  9 10  1  0  0  0  0
 10  1  2  0  0  0  0
 10  5  1  0  0  0  0
 15  7  1  0  0  0  0
 16  8  1  0  0  0  0
 17  9  1  0  0  0  0
 18 24  1  0  0  0  0
 18 23  1  0  0  0  0
 19 18  2  0  0  0  0
 20 19  1  0  0  0  0
 20 21  2  0  0  0  0
 21 22  1  0  0  0  0
 22 23  2  0  0  0  0
 22  1  1  0  0  0  0
 25 19  1  0  0  0  0
 26 32  1  0  0  0  0
 26 20  1  0  0  0  0
 27 26  1  0  0  0  0
 28 27  1  0  0  0  0
 29 28  1  0  0  0  0
 30 29  1  0  0  0  0
 31 29  1  0  0  0  0
 31 32  1  0  0  0  0
M  END
>  <minimizedAffinity>
-6.72645903

>  <minimizedRMSD>
0.304134905

$$$$
