
 OpenBabel03252514073D

 41 44  0  0  0  0  0  0  0  0999 V2000
   34.0860   29.9020   47.4940 C   0  0  0  0  0  0  0  0  0  0  0  0
   35.0300   29.6710   48.5210 C   0  0  0  0  0  0  0  0  0  0  0  0
   34.8830   28.4990   49.2380 C   0  0  0  0  0  0  0  0  0  0  0  0
   33.8700   27.6580   48.9250 N   0  0  0  0  0  0  0  0  0  0  0  0
   32.9910   27.8940   47.9530 C   0  0  0  0  0  0  0  0  0  0  0  0
   33.0940   29.0230   47.2270 N   0  0  0  0  0  0  0  0  0  0  0  0
   34.1710   30.7970   46.9240 H   0  0  0  0  0  0  0  0  0  0  0  0
   35.6280   28.3780   49.9990 H   0  0  0  0  0  0  0  0  0  0  0  0
   36.0360   30.6480   48.7280 N   0  0  0  0  0  0  0  0  0  0  0  0
   36.2600   31.2660   49.9030 C   0  0  0  0  0  0  0  0  0  0  0  0
   37.2810   32.1420   49.7530 N   0  0  0  0  0  0  0  0  0  0  0  0
   37.6810   32.0530   48.4690 C   0  0  0  0  0  0  0  0  0  0  0  0
   38.6620   32.6830   47.7220 C   0  0  0  0  0  0  0  0  0  0  0  0
   38.8490   32.3960   46.4290 N   0  0  0  0  0  0  0  0  0  0  0  0
   38.0910   31.4770   45.7870 C   0  0  0  0  0  0  0  0  0  0  0  0
   37.1410   30.8690   46.5140 N   0  0  0  0  0  0  0  0  0  0  0  0
   36.9110   31.1170   47.8060 C   0  0  0  0  0  0  0  0  0  0  0  0
   35.7580   31.1450   50.8590 H   0  0  0  0  0  0  0  0  0  0  0  0
   38.2020   31.2080   44.7450 H   0  0  0  0  0  0  0  0  0  0  0  0
   39.4810   33.6500   48.3410 N   0  0  0  0  0  0  0  0  0  0  0  0
   39.2410   34.2790   49.1360 H   0  0  0  0  0  0  0  0  0  0  0  0
   40.4540   33.8820   48.0910 H   0  0  0  0  0  0  0  0  0  0  0  0
   31.9120   26.9340   47.6360 C   0  0  0  0  0  0  0  0  0  0  0  0
   30.8950   26.9080   48.7940 C   0  0  0  0  0  0  0  0  0  0  0  0
   31.3480   27.4860   49.6460 H   0  0  0  0  0  0  0  0  0  0  0  0
   29.9600   27.4280   48.5510 H   0  0  0  0  0  0  0  0  0  0  0  0
   30.6950   25.8900   49.1180 H   0  0  0  0  0  0  0  0  0  0  0  0
   31.0830   27.4580   46.4440 C   0  0  0  0  0  0  0  0  0  0  0  0
   30.8420   28.5070   46.6710 H   0  0  0  0  0  0  0  0  0  0  0  0
   31.7380   27.4390   45.5580 H   0  0  0  0  0  0  0  0  0  0  0  0
   30.1790   26.8550   46.3720 H   0  0  0  0  0  0  0  0  0  0  0  0
   32.3350   25.5770   47.2710 C   0  0  0  0  0  0  0  0  0  0  0  0
   32.4240   24.9670   48.2080 H   0  0  0  0  0  0  0  0  0  0  0  0
   31.4830   25.1040   46.7010 H   0  0  0  0  0  0  0  0  0  0  0  0
   33.5510   25.4620   46.5110 N   0  0  0  0  0  0  0  0  0  0  0  0
   33.2090   24.9950   45.1260 C   0  0  0  0  0  2  0  0  0  0  0  0
   34.4470   25.4000   44.3250 C   0  0  0  0  0  2  0  0  0  0  0  0
   35.5430   24.4480   44.7610 C   0  0  0  0  0  3  0  0  0  0  0  0
   36.4980   24.9920   44.8890 H   0  0  0  0  0  0  0  0  0  0  0  0
   35.1700   23.6580   45.9670 C   0  0  0  0  0  2  0  0  0  0  0  0
   34.4040   24.3830   47.0270 C   0  0  0  0  0  2  0  0  0  0  0  0
  1  2  1  0  0  0  0
  2  9  1  0  0  0  0
  2  3  2  0  0  0  0
  3  8  1  0  0  0  0
  4  3  1  0  0  0  0
  5  4  2  0  0  0  0
  6  1  2  0  0  0  0
  6  5  1  0  0  0  0
  7  1  1  0  0  0  0
  9 10  1  0  0  0  0
 10 18  1  0  0  0  0
 11 10  2  0  0  0  0
 12 11  1  0  0  0  0
 13 20  1  0  0  0  0
 13 12  2  0  0  0  0
 14 13  1  0  0  0  0
 15 14  2  0  0  0  0
 15 16  1  0  0  0  0
 16 17  2  0  0  0  0
 17 12  1  0  0  0  0
 17  9  1  0  0  0  0
 19 15  1  0  0  0  0
 20 21  1  0  0  0  0
 22 20  1  0  0  0  0
 23  5  1  0  0  0  0
 23 24  1  0  0  0  0
 24 27  1  0  0  0  0
 24 25  1  0  0  0  0
 26 24  1  0  0  0  0
 28 29  1  0  0  0  0
 28 23  1  0  0  0  0
 30 28  1  0  0  0  0
 31 28  1  0  0  0  0
 32 23  1  0  0  0  0
 32 33  1  0  0  0  0
 34 32  1  0  0  0  0
 35 41  1  0  0  0  0
 35 32  1  0  0  0  0
 36 35  1  0  0  0  0
 37 38  1  0  0  0  0
 37 36  1  0  0  0  0
 38 39  1  0  0  0  0
 38 40  1  0  0  0  0
 40 41  1  0  0  0  0
M  END
>  <minimizedAffinity>
-5.47569275

>  <minimizedRMSD>
0.737347186

$$$$
