
 OpenBabel03252514033D

 36 39  0  0  1  0  0  0  0  0999 V2000
   35.2710   29.1800   48.6130 C   0  0  2  0  0  0  0  0  0  0  0  0
   34.0380   29.2930   49.3830 C   0  0  0  0  0  0  0  0  0  0  0  0
   34.4180   27.9500   49.0610 C   0  0  1  0  0  0  0  0  0  0  0  0
   35.2930   29.3970   47.5360 H   0  0  0  0  0  0  0  0  0  0  0  0
   34.1340   29.6340   50.4550 H   0  0  0  0  0  0  0  0  0  0  0  0
   33.1300   29.7750   48.9130 H   0  0  0  0  0  0  0  0  0  0  0  0
   34.9810   27.2430   49.6730 H   0  0  0  0  0  0  0  0  0  0  0  0
   36.5810   29.2430   49.4160 C   0  0  0  0  0  0  0  0  0  0  0  0
   36.3450   29.1940   50.5000 H   0  0  0  0  0  0  0  0  0  0  0  0
   37.2080   28.3460   49.1780 H   0  0  0  0  0  0  0  0  0  0  0  0
   37.6480   32.7340   49.5650 C   0  0  0  0  0  0  0  0  0  0  0  0
   38.5030   32.8440   48.4600 C   0  0  0  0  0  0  0  0  0  0  0  0
   38.7030   31.6920   47.6670 C   0  0  0  0  0  0  0  0  0  0  0  0
   38.0520   30.5340   48.0190 N   0  0  0  0  0  0  0  0  0  0  0  0
   37.2450   30.4930   49.0890 C   0  0  0  0  0  0  0  0  0  0  0  0
   37.0480   31.5960   49.8550 N   0  0  0  0  0  0  0  0  0  0  0  0
   37.4680   33.5940   50.1960 H   0  0  0  0  0  0  0  0  0  0  0  0
   38.9960   33.7860   48.2220 H   0  0  0  0  0  0  0  0  0  0  0  0
   39.3630   31.7440   46.8010 H   0  0  0  0  0  0  0  0  0  0  0  0
   33.5990   27.2820   47.9730 C   0  0  0  0  0  0  0  0  0  0  0  0
   33.8750   26.0280   47.8240 O   0  0  0  0  0  0  0  0  0  0  0  0
   32.6320   27.8870   47.1800 O   0  0  0  0  0  0  0  0  0  0  0  0
   31.3540   28.1330   47.5810 C   0  0  0  0  0  0  0  0  0  0  0  0
   30.7770   27.6510   48.8510 C   0  0  0  0  0  0  0  0  0  0  0  0
   29.4930   27.9520   49.1640 C   0  0  0  0  0  0  0  0  0  0  0  0
   28.7140   28.7300   48.2640 C   0  0  0  0  0  0  0  0  0  0  0  0
   29.8870   29.0680   46.8570 S   0  0  0  0  0  0  0  0  0  0  0  0
   31.3940   27.0630   49.5080 H   0  0  0  0  0  0  0  0  0  0  0  0
   28.9720   27.6580   50.0540 H   0  0  0  0  0  0  0  0  0  0  0  0
   27.4910   29.1990   48.2040 N   0  0  0  0  0  0  0  0  0  0  0  0
   26.3280   28.5200   47.6620 C   0  0  0  0  0  0  0  0  0  0  0  0
   25.4390   28.2320   48.8610 C   0  0  0  0  0  0  0  0  0  0  0  0
   25.0070   29.5520   49.4410 C   0  0  0  0  0  0  0  0  0  0  0  0
   25.2700   29.5610   50.5200 H   0  0  0  0  0  0  0  0  0  0  0  0
   25.6490   30.7310   48.7720 C   0  0  0  0  0  0  0  0  0  0  0  0
   27.1460   30.5320   48.7160 C   0  0  0  0  0  0  0  0  0  0  0  0
  1  4  1  6  0  0  0
  1  3  1  0  0  0  0
  1  2  1  0  0  0  0
  1  8  1  0  0  0  0
  2  5  1  0  0  0  0
  3  2  1  0  0  0  0
  3  7  1  1  0  0  0
  6  2  1  0  0  0  0
  8  9  1  0  0  0  0
 10  8  1  0  0  0  0
 11 16  1  0  0  0  0
 11 17  1  0  0  0  0
 12 11  2  0  0  0  0
 13 14  2  0  0  0  0
 13 12  1  0  0  0  0
 14 15  1  0  0  0  0
 15  8  1  0  0  0  0
 15 16  2  0  0  0  0
 18 12  1  0  0  0  0
 19 13  1  0  0  0  0
 20  3  1  0  0  0  0
 21 20  2  0  0  0  0
 22 23  1  0  0  0  0
 22 20  1  0  0  0  0
 23 24  2  0  0  0  0
 24 25  1  0  0  0  0
 24 28  1  0  0  0  0
 25 29  1  0  0  0  0
 26 25  2  0  0  0  0
 27 23  1  0  0  0  0
 27 26  1  0  0  0  0
 30 26  1  0  0  0  0
 30 36  1  0  0  0  0
 31 30  1  0  0  0  0
 31 32  1  0  0  0  0
 32 33  1  0  0  0  0
 33 34  1  0  0  0  0
 35 33  1  0  0  0  0
 36 35  1  0  0  0  0
M  END
>  <minimizedAffinity>
-6.36666775

>  <minimizedRMSD>
1.78746688

$$$$
