
 OpenBabel03252512363D

 31 33  0  0  1  0  0  0  0  0999 V2000
   38.4590   31.3810   46.9570 C   0  0  2  0  0  0  0  0  0  0  0  0
   38.9860   32.7240   47.3700 C   0  0  0  0  0  0  0  0  0  0  0  0
   40.1000   33.0960   46.3940 C   0  0  0  0  0  0  0  0  0  0  0  0
   39.6200   33.0960   45.0150 C   0  0  0  0  0  0  0  0  0  0  0  0
   38.2380   32.5700   44.7500 C   0  0  0  0  0  0  0  0  0  0  0  0
   37.7870   31.4700   45.6620 C   0  0  1  0  0  0  0  0  0  0  0  0
   39.3620   30.7280   46.9140 H   0  0  0  0  0  0  0  0  0  0  0  0
   39.5210   32.7200   48.3440 H   0  0  0  0  0  0  0  0  0  0  0  0
   38.2220   33.5170   47.4210 H   0  0  0  0  0  0  0  0  0  0  0  0
   40.4900   34.0790   46.7330 H   0  0  0  0  0  0  0  0  0  0  0  0
   40.9390   32.3740   46.6030 H   0  0  0  0  0  0  0  0  0  0  0  0
   39.6950   34.1200   44.5940 H   0  0  0  0  0  0  0  0  0  0  0  0
   40.3540   32.5110   44.3860 H   0  0  0  0  0  0  0  0  0  0  0  0
   38.2240   32.2930   43.6760 H   0  0  0  0  0  0  0  0  0  0  0  0
   37.5620   33.4540   44.8160 H   0  0  0  0  0  0  0  0  0  0  0  0
   36.6910   31.6830   45.8580 H   0  0  0  0  0  0  0  0  0  0  0  0
   38.0670   30.3950   49.2410 C   0  0  0  0  0  0  0  0  0  0  0  0
   37.5840   30.7830   47.9820 C   0  0  0  0  0  0  0  0  0  0  0  0
   36.2260   30.5860   47.7020 C   0  0  0  0  0  0  0  0  0  0  0  0
   35.4410   30.0290   48.6600 N   0  0  0  0  0  0  0  0  0  0  0  0
   35.9540   29.6680   49.8700 C   0  0  0  0  0  0  0  0  0  0  0  0
   37.2460   29.8500   50.1460 N   0  0  0  0  0  0  0  0  0  0  0  0
   39.0890   30.5300   49.4840 H   0  0  0  0  0  0  0  0  0  0  0  0
   35.7050   30.8220   46.7920 H   0  0  0  0  0  0  0  0  0  0  0  0
   35.2430   29.2280   50.5750 H   0  0  0  0  0  0  0  0  0  0  0  0
   37.7890   30.2700   44.8700 N   0  0  0  0  0  0  0  0  0  0  0  0
   39.0750   29.6850   44.6570 C   0  0  0  0  0  0  0  0  0  0  0  0
   39.4520   29.5500   43.2080 C   0  0  0  0  0  0  0  0  0  0  0  0
   38.4750   28.9230   42.4510 O   0  0  0  0  0  0  0  0  0  0  0  0
   37.2090   28.9360   43.0190 C   0  0  0  0  0  0  0  0  0  0  0  0
   36.9280   30.2550   43.7480 C   0  0  0  0  0  0  0  0  0  0  0  0
  1  7  1  6  0  0  0
  1  2  1  0  0  0  0
  1 18  1  0  0  0  0
  2  9  1  0  0  0  0
  2  8  1  0  0  0  0
  3 11  1  0  0  0  0
  3 10  1  0  0  0  0
  3  2  1  0  0  0  0
  4  3  1  0  0  0  0
  5 15  1  0  0  0  0
  5  4  1  0  0  0  0
  5  6  1  0  0  0  0
  6 16  1  1  0  0  0
  6  1  1  0  0  0  0
 12  4  1  0  0  0  0
 13  4  1  0  0  0  0
 14  5  1  0  0  0  0
 17 23  1  0  0  0  0
 17 22  1  0  0  0  0
 18 17  2  0  0  0  0
 19 18  1  0  0  0  0
 19 20  2  0  0  0  0
 20 21  1  0  0  0  0
 21 22  2  0  0  0  0
 21 25  1  0  0  0  0
 24 19  1  0  0  0  0
 26  6  1  0  0  0  0
 27 26  1  0  0  0  0
 28 27  1  0  0  0  0
 29 30  1  0  0  0  0
 29 28  1  0  0  0  0
 30 31  1  0  0  0  0
 31 26  1  0  0  0  0
M  END
>  <minimizedAffinity>
-5.04917288

>  <minimizedRMSD>
1.48065937

$$$$
