
 OpenBabel03252513593D

 25 26  0  0  1  0  0  0  0  0999 V2000
   35.4100   29.4600   49.0330 C   0  0  2  0  0  0  0  0  0  0  0  0
   34.2890   29.4030   49.9830 C   0  0  0  0  0  0  0  0  0  0  0  0
   34.6410   28.1550   49.3210 C   0  0  1  0  0  0  0  0  0  0  0  0
   35.3280   29.8220   48.0070 H   0  0  0  0  0  0  0  0  0  0  0  0
   33.3610   29.9430   49.6850 H   0  0  0  0  0  0  0  0  0  0  0  0
   34.4840   29.5050   51.0720 H   0  0  0  0  0  0  0  0  0  0  0  0
   35.3020   27.3580   49.6730 H   0  0  0  0  0  0  0  0  0  0  0  0
   36.8230   29.4170   49.6160 C   0  0  0  0  0  0  0  0  0  0  0  0
   37.2880   28.4350   49.3560 H   0  0  0  0  0  0  0  0  0  0  0  0
   36.7370   29.4830   50.7090 H   0  0  0  0  0  0  0  0  0  0  0  0
   38.4100   32.7120   49.3870 C   0  0  0  0  0  0  0  0  0  0  0  0
   38.9300   32.7180   48.0840 C   0  0  0  0  0  0  0  0  0  0  0  0
   38.7260   31.5750   47.2930 C   0  0  0  0  0  0  0  0  0  0  0  0
   38.0310   30.5200   47.8380 N   0  0  0  0  0  0  0  0  0  0  0  0
   37.5570   30.5660   49.0860 C   0  0  0  0  0  0  0  0  0  0  0  0
   37.7530   31.6670   49.8500 N   0  0  0  0  0  0  0  0  0  0  0  0
   38.5130   33.5380   50.0730 H   0  0  0  0  0  0  0  0  0  0  0  0
   39.4660   33.5980   47.7390 H   0  0  0  0  0  0  0  0  0  0  0  0
   39.1170   31.5700   46.3020 H   0  0  0  0  0  0  0  0  0  0  0  0
   33.6690   27.6860   48.2770 C   0  0  0  0  0  0  0  0  0  0  0  0
   34.0020   26.5750   47.6980 O   0  0  0  0  0  0  0  0  0  0  0  0
   32.4920   28.3190   47.9130 O   0  0  0  0  0  0  0  0  0  0  0  0
   32.2670   28.7460   46.5870 C   0  0  0  0  0  2  0  0  0  0  0  0
   32.9530   30.0850   46.3360 C   0  0  0  0  0  2  0  0  0  0  0  0
   32.4520   30.5390   45.4560 H   0  0  0  0  0  0  0  0  0  0  0  0
  1  4  1  6  0  0  0
  1  3  1  0  0  0  0
  1  8  1  0  0  0  0
  1  2  1  0  0  0  0
  2  6  1  0  0  0  0
  3  7  1  1  0  0  0
  3  2  1  0  0  0  0
  5  2  1  0  0  0  0
  8 10  1  0  0  0  0
  9  8  1  0  0  0  0
 11 16  1  0  0  0  0
 11 17  1  0  0  0  0
 12 11  2  0  0  0  0
 13 14  2  0  0  0  0
 13 12  1  0  0  0  0
 14 15  1  0  0  0  0
 15  8  1  0  0  0  0
 15 16  2  0  0  0  0
 18 12  1  0  0  0  0
 19 13  1  0  0  0  0
 20  3  1  0  0  0  0
 21 20  2  0  0  0  0
 22 20  1  0  0  0  0
 23 22  1  0  0  0  0
 24 23  1  0  0  0  0
 25 24  1  0  0  0  0
M  END
>  <minimizedAffinity>
-4.45911169

>  <minimizedRMSD>
0.850975692

$$$$
