
 OpenBabel03252511053D

 18 19  0  0  0  0  0  0  0  0999 V2000
   37.4340   30.5330   50.8550 C   0  0  0  0  0  0  0  0  0  0  0  0
   38.3140   31.2320   49.9950 C   0  0  0  0  0  0  0  0  0  0  0  0
   37.9190   31.4130   48.6640 C   0  0  0  0  0  0  0  0  0  0  0  0
   36.7230   30.9100   48.2870 N   0  0  0  0  0  0  0  0  0  0  0  0
   35.9060   30.2480   49.1280 C   0  0  0  0  0  0  0  0  0  0  0  0
   36.2640   30.0610   50.4110 N   0  0  0  0  0  0  0  0  0  0  0  0
   37.7270   30.3900   51.8700 H   0  0  0  0  0  0  0  0  0  0  0  0
   39.2710   31.6290   50.3170 H   0  0  0  0  0  0  0  0  0  0  0  0
   34.6630   29.7500   48.6470 N   0  0  0  0  0  0  0  0  0  0  0  0
   33.9520   28.7640   49.4620 C   0  0  0  0  0  0  0  0  0  0  0  0
   33.1180   27.8450   48.6010 C   0  0  0  0  0  0  0  0  0  0  0  0
   33.4550   27.9480   47.2530 O   0  0  0  0  0  0  0  0  0  0  0  0
   33.0820   29.2340   46.8650 C   0  0  0  0  0  0  0  0  0  0  0  0
   34.1090   30.1940   47.4010 C   0  0  0  0  0  0  0  0  0  0  0  0
   38.7770   32.1390   47.6740 C   0  0  0  0  0  0  0  0  0  0  0  0
   38.0210   32.6450   46.6160 F   0  0  0  0  0  0  0  0  0  0  0  0
   39.3650   33.2610   48.2600 F   0  0  0  0  0  0  0  0  0  0  0  0
   39.6990   31.2730   47.1400 F   0  0  0  0  0  0  0  0  0  0  0  0
  1  7  1  0  0  0  0
  2  8  1  0  0  0  0
  2  1  2  0  0  0  0
  3  2  1  0  0  0  0
  4  3  2  0  0  0  0
  4  5  1  0  0  0  0
  5  6  2  0  0  0  0
  6  1  1  0  0  0  0
  9  5  1  0  0  0  0
  9 10  1  0  0  0  0
 11 10  1  0  0  0  0
 12 11  1  0  0  0  0
 13 12  1  0  0  0  0
 13 14  1  0  0  0  0
 14  9  1  0  0  0  0
 15 17  1  0  0  0  0
 15  3  1  0  0  0  0
 16 15  1  0  0  0  0
 18 15  1  0  0  0  0
M  END
>  <minimizedAffinity>
-5.42515516

>  <minimizedRMSD>
1.44866848

$$$$
