
 OpenBabel03252513593D

 25 26  0  0  1  0  0  0  0  0999 V2000
   35.8000   29.8640   49.8600 C   0  0  2  0  0  0  0  0  0  0  0  0
   34.9830   29.1920   50.8810 C   0  0  0  0  0  0  0  0  0  0  0  0
   35.2270   28.4470   49.6550 C   0  0  1  0  0  0  0  0  0  0  0  0
   35.4220   30.6150   49.1660 H   0  0  0  0  0  0  0  0  0  0  0  0
   33.9750   29.6280   51.0720 H   0  0  0  0  0  0  0  0  0  0  0  0
   35.4560   28.8420   51.8240 H   0  0  0  0  0  0  0  0  0  0  0  0
   36.0090   27.7130   49.4460 H   0  0  0  0  0  0  0  0  0  0  0  0
   37.3180   29.8300   50.0470 C   0  0  0  0  0  0  0  0  0  0  0  0
   37.6800   28.7890   49.8570 H   0  0  0  0  0  0  0  0  0  0  0  0
   37.5330   30.0880   51.0930 H   0  0  0  0  0  0  0  0  0  0  0  0
   38.7640   32.9550   48.7920 C   0  0  0  0  0  0  0  0  0  0  0  0
   38.9830   32.6750   47.4350 C   0  0  0  0  0  0  0  0  0  0  0  0
   38.6260   31.3990   46.9650 C   0  0  0  0  0  0  0  0  0  0  0  0
   38.0860   30.5020   47.8570 N   0  0  0  0  0  0  0  0  0  0  0  0
   37.8990   30.8210   49.1410 C   0  0  0  0  0  0  0  0  0  0  0  0
   38.2410   32.0490   49.5960 N   0  0  0  0  0  0  0  0  0  0  0  0
   39.0030   33.9010   49.2510 H   0  0  0  0  0  0  0  0  0  0  0  0
   39.4150   33.4470   46.8060 H   0  0  0  0  0  0  0  0  0  0  0  0
   38.7890   31.1770   45.9350 H   0  0  0  0  0  0  0  0  0  0  0  0
   34.0430   28.3120   48.7400 C   0  0  0  0  0  0  0  0  0  0  0  0
   34.3350   28.3600   47.4780 O   0  0  0  0  0  0  0  0  0  0  0  0
   32.7260   28.1370   49.1290 O   0  0  0  0  0  0  0  0  0  0  0  0
   31.7260   27.7820   48.1990 C   0  0  0  0  0  2  0  0  0  0  0  0
   31.5260   26.2700   48.1840 C   0  0  0  0  0  2  0  0  0  0  0  0
   31.0390   26.0230   47.2180 H   0  0  0  0  0  0  0  0  0  0  0  0
  1  4  1  6  0  0  0
  1  8  1  0  0  0  0
  1  2  1  0  0  0  0
  2  5  1  0  0  0  0
  2  6  1  0  0  0  0
  3  7  1  1  0  0  0
  3  1  1  0  0  0  0
  3  2  1  0  0  0  0
  8 10  1  0  0  0  0
  9  8  1  0  0  0  0
 11 17  1  0  0  0  0
 11 16  1  0  0  0  0
 12 11  2  0  0  0  0
 13 12  1  0  0  0  0
 13 14  2  0  0  0  0
 14 15  1  0  0  0  0
 15 16  2  0  0  0  0
 15  8  1  0  0  0  0
 18 12  1  0  0  0  0
 19 13  1  0  0  0  0
 20 22  1  0  0  0  0
 20  3  1  0  0  0  0
 21 20  2  0  0  0  0
 23 22  1  0  0  0  0
 24 23  1  0  0  0  0
 25 24  1  0  0  0  0
M  END
>  <minimizedAffinity>
-4.52422953

>  <minimizedRMSD>
0.859335423

$$$$
