
 OpenBabel03252513593D

 25 26  0  0  1  0  0  0  0  0999 V2000
   35.3790   29.4270   49.0390 C   0  0  2  0  0  0  0  0  0  0  0  0
   34.2580   29.4250   49.9900 C   0  0  0  0  0  0  0  0  0  0  0  0
   34.5910   28.1470   49.3800 C   0  0  1  0  0  0  0  0  0  0  0  0
   35.3020   29.7490   47.9990 H   0  0  0  0  0  0  0  0  0  0  0  0
   33.3390   29.9670   49.6710 H   0  0  0  0  0  0  0  0  0  0  0  0
   34.4550   29.5690   51.0750 H   0  0  0  0  0  0  0  0  0  0  0  0
   35.2400   27.3540   49.7630 H   0  0  0  0  0  0  0  0  0  0  0  0
   36.7920   29.3860   49.6240 C   0  0  0  0  0  0  0  0  0  0  0  0
   37.2600   28.4060   49.3610 H   0  0  0  0  0  0  0  0  0  0  0  0
   36.7040   29.4490   50.7170 H   0  0  0  0  0  0  0  0  0  0  0  0
   38.3650   32.6890   49.4010 C   0  0  0  0  0  0  0  0  0  0  0  0
   38.8920   32.6960   48.1020 C   0  0  0  0  0  0  0  0  0  0  0  0
   38.6990   31.5510   47.3110 C   0  0  0  0  0  0  0  0  0  0  0  0
   38.0060   30.4930   47.8530 N   0  0  0  0  0  0  0  0  0  0  0  0
   37.5240   30.5380   49.0970 C   0  0  0  0  0  0  0  0  0  0  0  0
   37.7090   31.6400   49.8610 N   0  0  0  0  0  0  0  0  0  0  0  0
   38.4590   33.5160   50.0870 H   0  0  0  0  0  0  0  0  0  0  0  0
   39.4260   33.5780   47.7600 H   0  0  0  0  0  0  0  0  0  0  0  0
   39.0970   31.5480   46.3220 H   0  0  0  0  0  0  0  0  0  0  0  0
   33.6110   27.6510   48.3550 C   0  0  0  0  0  0  0  0  0  0  0  0
   33.9640   26.5510   47.7660 O   0  0  0  0  0  0  0  0  0  0  0  0
   32.4090   28.2490   48.0180 O   0  0  0  0  0  0  0  0  0  0  0  0
   31.1960   27.5280   48.0460 C   0  0  0  0  0  2  0  0  0  0  0  0
   30.5020   27.7070   49.3930 C   0  0  0  0  0  2  0  0  0  0  0  0
   29.7930   26.8610   49.5000 H   0  0  0  0  0  0  0  0  0  0  0  0
  1  4  1  6  0  0  0
  1  3  1  0  0  0  0
  1  8  1  0  0  0  0
  1  2  1  0  0  0  0
  2  6  1  0  0  0  0
  3  7  1  1  0  0  0
  3  2  1  0  0  0  0
  5  2  1  0  0  0  0
  8 10  1  0  0  0  0
  9  8  1  0  0  0  0
 11 16  1  0  0  0  0
 11 17  1  0  0  0  0
 12 11  2  0  0  0  0
 13 14  2  0  0  0  0
 13 12  1  0  0  0  0
 14 15  1  0  0  0  0
 15  8  1  0  0  0  0
 15 16  2  0  0  0  0
 18 12  1  0  0  0  0
 19 13  1  0  0  0  0
 20  3  1  0  0  0  0
 21 20  2  0  0  0  0
 22 23  1  0  0  0  0
 22 20  1  0  0  0  0
 23 24  1  0  0  0  0
 24 25  1  0  0  0  0
M  END
>  <minimizedAffinity>
-4.60656023

>  <minimizedRMSD>
0.812435508

$$$$
