
 OpenBabel03252513593D

 25 26  0  0  1  0  0  0  0  0999 V2000
   35.3430   29.4480   49.0760 C   0  0  2  0  0  0  0  0  0  0  0  0
   34.2490   29.4520   50.0590 C   0  0  0  0  0  0  0  0  0  0  0  0
   34.5630   28.1700   49.4450 C   0  0  1  0  0  0  0  0  0  0  0  0
   35.2390   29.7640   48.0380 H   0  0  0  0  0  0  0  0  0  0  0  0
   33.3220   29.9940   49.7620 H   0  0  0  0  0  0  0  0  0  0  0  0
   34.4760   29.6000   51.1370 H   0  0  0  0  0  0  0  0  0  0  0  0
   35.2210   27.3780   49.8140 H   0  0  0  0  0  0  0  0  0  0  0  0
   36.7720   29.4070   49.6230 C   0  0  0  0  0  0  0  0  0  0  0  0
   37.2500   28.4490   49.3040 H   0  0  0  0  0  0  0  0  0  0  0  0
   36.7120   29.4190   50.7200 H   0  0  0  0  0  0  0  0  0  0  0  0
   38.1110   32.8130   49.4390 C   0  0  0  0  0  0  0  0  0  0  0  0
   38.7720   32.8220   48.2020 C   0  0  0  0  0  0  0  0  0  0  0  0
   38.7490   31.6420   47.4390 C   0  0  0  0  0  0  0  0  0  0  0  0
   38.0830   30.5510   47.9460 N   0  0  0  0  0  0  0  0  0  0  0  0
   37.4680   30.5960   49.1310 C   0  0  0  0  0  0  0  0  0  0  0  0
   37.4900   31.7320   49.8680 N   0  0  0  0  0  0  0  0  0  0  0  0
   38.0710   33.6650   50.0980 H   0  0  0  0  0  0  0  0  0  0  0  0
   39.2730   33.7320   47.8830 H   0  0  0  0  0  0  0  0  0  0  0  0
   39.2490   31.6390   46.4980 H   0  0  0  0  0  0  0  0  0  0  0  0
   33.5540   27.6710   48.4500 C   0  0  0  0  0  0  0  0  0  0  0  0
   33.9990   26.7470   47.6570 O   0  0  0  0  0  0  0  0  0  0  0  0
   32.2430   28.0990   48.3320 O   0  0  0  0  0  0  0  0  0  0  0  0
   31.1610   27.2340   48.6030 C   0  0  0  0  0  2  0  0  0  0  0  0
   30.2620   27.8330   49.6810 C   0  0  0  0  0  2  0  0  0  0  0  0
   29.6800   26.9940   50.1130 H   0  0  0  0  0  0  0  0  0  0  0  0
  1  4  1  6  0  0  0
  1  3  1  0  0  0  0
  1  8  1  0  0  0  0
  1  2  1  0  0  0  0
  2  6  1  0  0  0  0
  3  7  1  1  0  0  0
  3  2  1  0  0  0  0
  5  2  1  0  0  0  0
  8 10  1  0  0  0  0
  9  8  1  0  0  0  0
 11 16  1  0  0  0  0
 11 17  1  0  0  0  0
 12 11  2  0  0  0  0
 13 14  2  0  0  0  0
 13 12  1  0  0  0  0
 14 15  1  0  0  0  0
 15  8  1  0  0  0  0
 15 16  2  0  0  0  0
 18 12  1  0  0  0  0
 19 13  1  0  0  0  0
 20  3  1  0  0  0  0
 21 20  2  0  0  0  0
 22 20  1  0  0  0  0
 22 23  1  0  0  0  0
 23 24  1  0  0  0  0
 24 25  1  0  0  0  0
M  END
>  <minimizedAffinity>
-4.68949127

>  <minimizedRMSD>
0.585570872

$$$$
