
 OpenBabel03252511203D

 40 43  0  0  1  0  0  0  0  0999 V2000
   38.6120   31.3730   47.6120 C   0  0  1  0  0  0  0  0  0  0  0  0
   39.6670   31.3000   48.1160 H   0  0  0  0  0  0  0  0  0  0  0  0
   37.7960   30.5780   48.5290 C   0  0  0  0  0  0  0  0  0  0  0  0
   38.2700   30.2310   49.7160 N   0  0  0  0  0  0  0  0  0  0  0  0
   37.5680   29.4970   50.5990 C   0  0  0  0  0  0  0  0  0  0  0  0
   36.3380   29.0600   50.3520 N   0  0  0  0  0  0  0  0  0  0  0  0
   35.7330   29.3420   49.1850 C   0  0  0  0  0  0  0  0  0  0  0  0
   34.4860   28.8900   48.8960 C   0  0  0  0  0  0  0  0  0  0  0  0
   33.8920   29.1610   47.7100 C   0  0  0  0  0  0  0  0  0  0  0  0
   34.6240   29.9250   46.8060 C   0  0  0  0  0  0  0  0  0  0  0  0
   35.8860   30.3620   47.1410 C   0  0  0  0  0  0  0  0  0  0  0  0
   36.4940   30.0970   48.3160 C   0  0  0  0  0  0  0  0  0  0  0  0
   37.9850   29.2180   51.5880 H   0  0  0  0  0  0  0  0  0  0  0  0
   34.0030   28.3010   49.6810 H   0  0  0  0  0  0  0  0  0  0  0  0
   32.9010   28.7940   47.4960 H   0  0  0  0  0  0  0  0  0  0  0  0
   34.1870   30.1660   45.8430 H   0  0  0  0  0  0  0  0  0  0  0  0
   36.3730   30.9860   46.4080 H   0  0  0  0  0  0  0  0  0  0  0  0
   39.0330   31.1560   46.2650 C   0  0  0  0  0  0  0  0  0  0  0  0
   40.0660   32.0620   45.9380 C   0  0  0  0  0  0  0  0  0  0  0  0
   40.7810   31.9390   44.7070 C   0  0  0  0  0  0  0  0  0  0  0  0
   40.3930   30.9490   43.9500 N   0  0  0  0  0  0  0  0  0  0  0  0
   39.3790   30.0780   44.2710 C   0  0  0  0  0  0  0  0  0  0  0  0
   38.7280   30.1910   45.4060 N   0  0  0  0  0  0  0  0  0  0  0  0
   40.5490   32.9170   46.3860 H   0  0  0  0  0  0  0  0  0  0  0  0
   41.5660   32.5130   44.3140 H   0  0  0  0  0  0  0  0  0  0  0  0
   38.8840   29.0760   43.3020 C   0  0  0  0  0  0  0  0  0  0  0  0
   38.5350   29.6140   42.3790 H   0  0  0  0  0  0  0  0  0  0  0  0
   37.9680   28.5900   43.6950 H   0  0  0  0  0  0  0  0  0  0  0  0
   39.8290   28.0580   42.9620 N   0  0  0  0  0  0  0  0  0  0  0  0
   39.1420   26.7840   42.9970 C   0  0  0  0  0  0  0  0  0  0  0  0
   38.2810   26.5350   41.7800 C   0  0  0  0  0  0  0  0  0  0  0  0
   38.9750   26.7180   40.5890 O   0  0  0  0  0  0  0  0  0  0  0  0
   39.5900   27.9460   40.5090 C   0  0  0  0  0  0  0  0  0  0  0  0
   40.4670   28.2330   41.7010 C   0  0  0  0  0  0  0  0  0  0  0  0
   38.2720   32.6480   48.0130 O   0  0  0  0  0  0  0  0  0  0  0  0
   38.9880   33.5380   48.7870 C   0  0  0  0  0  0  0  0  0  0  0  0
   39.7610   34.6310   48.1960 N   0  0  0  0  0  0  0  0  0  0  0  0
   39.0110   33.4560   50.0430 O   0  0  0  0  0  0  0  0  0  0  0  0
   40.7910   34.6940   48.2010 H   0  0  0  0  0  0  0  0  0  0  0  0
   39.2380   35.4090   47.7320 H   0  0  0  0  0  0  0  0  0  0  0  0
  1 35  1  0  0  0  0
  1  2  1  1  0  0  0
  1  3  1  0  0  0  0
  3  4  1  0  0  0  0
  4  5  2  0  0  0  0
  5 13  1  0  0  0  0
  6  5  1  0  0  0  0
  7  6  2  0  0  0  0
  8  7  1  0  0  0  0
  8 14  1  0  0  0  0
  9  8  2  0  0  0  0
 10 11  2  0  0  0  0
 10  9  1  0  0  0  0
 11 12  1  0  0  0  0
 12  3  2  0  0  0  0
 12  7  1  0  0  0  0
 15  9  1  0  0  0  0
 16 10  1  0  0  0  0
 17 11  1  0  0  0  0
 18  1  1  0  0  0  0
 19 18  1  0  0  0  0
 19 24  1  0  0  0  0
 20 19  2  0  0  0  0
 21 22  2  0  0  0  0
 21 20  1  0  0  0  0
 22 23  1  0  0  0  0
 23 18  2  0  0  0  0
 25 20  1  0  0  0  0
 26 28  1  0  0  0  0
 26 22  1  0  0  0  0
 27 26  1  0  0  0  0
 29 30  1  0  0  0  0
 29 26  1  0  0  0  0
 31 30  1  0  0  0  0
 32 31  1  0  0  0  0
 33 32  1  0  0  0  0
 33 34  1  0  0  0  0
 34 29  1  0  0  0  0
 35 36  1  0  0  0  0
 36 38  2  0  0  0  0
 37 39  1  0  0  0  0
 37 36  1  0  0  0  0
 40 37  1  0  0  0  0
M  END
>  <minimizedAffinity>
-6.79100704

>  <minimizedRMSD>
1.07951939

$$$$
