
 OpenBabel03252513193D

 18 19  0  0  0  0  0  0  0  0999 V2000
   35.2960   29.2200   50.4050 C   0  0  0  0  0  0  0  0  0  0  0  0
   36.1290   30.1880   49.7960 C   0  0  0  0  0  0  0  0  0  0  0  0
   35.8220   30.5300   48.4800 C   0  0  0  0  0  0  0  0  0  0  0  0
   34.7620   29.9330   47.8530 N   0  0  0  0  0  0  0  0  0  0  0  0
   33.9980   29.0070   48.4930 C   0  0  0  0  0  0  0  0  0  0  0  0
   34.2700   28.6650   49.7470 N   0  0  0  0  0  0  0  0  0  0  0  0
   35.5770   28.9890   51.4310 H   0  0  0  0  0  0  0  0  0  0  0  0
   36.4160   31.2660   47.9470 H   0  0  0  0  0  0  0  0  0  0  0  0
   32.9210   28.4500   47.7480 N   0  0  0  0  0  0  0  0  0  0  0  0
   32.4690   29.0620   46.5350 C   0  0  0  0  0  0  0  0  0  0  0  0
   31.0040   28.9560   46.2890 C   0  0  0  0  0  0  0  0  0  0  0  0
   30.2740   28.1530   47.0830 O   0  0  0  0  0  0  0  0  0  0  0  0
   30.7810   27.6540   48.2340 C   0  0  0  0  0  0  0  0  0  0  0  0
   32.2370   27.2450   48.1820 C   0  0  0  0  0  0  0  0  0  0  0  0
   37.2720   30.8240   50.4900 C   0  0  0  0  0  0  0  0  0  0  0  0
   38.4880   30.4530   49.9860 F   0  0  0  0  0  0  0  0  0  0  0  0
   37.2810   30.5230   51.8310 F   0  0  0  0  0  0  0  0  0  0  0  0
   37.1910   32.1970   50.3430 F   0  0  0  0  0  0  0  0  0  0  0  0
  1  7  1  0  0  0  0
  2  1  1  0  0  0  0
  2 15  1  0  0  0  0
  3  2  2  0  0  0  0
  4  3  1  0  0  0  0
  4  5  2  0  0  0  0
  5  6  1  0  0  0  0
  6  1  2  0  0  0  0
  8  3  1  0  0  0  0
  9 14  1  0  0  0  0
  9  5  1  0  0  0  0
 10  9  1  0  0  0  0
 11 10  1  0  0  0  0
 11 12  1  0  0  0  0
 12 13  1  0  0  0  0
 14 13  1  0  0  0  0
 15 17  1  0  0  0  0
 16 15  1  0  0  0  0
 18 15  1  0  0  0  0
M  END
>  <minimizedAffinity>
-5.26125193

>  <minimizedRMSD>
0.79618299

$$$$
