
 OpenBabel03252514073D

 40 43  0  0  0  0  0  0  0  0999 V2000
   34.6560   29.9860   47.3890 C   0  0  0  0  0  0  0  0  0  0  0  0
   35.5120   29.8970   48.4850 C   0  0  0  0  0  0  0  0  0  0  0  0
   35.4100   28.7310   49.2360 C   0  0  0  0  0  0  0  0  0  0  0  0
   34.5310   27.7680   48.9020 N   0  0  0  0  0  0  0  0  0  0  0  0
   33.7190   27.8840   47.8410 C   0  0  0  0  0  0  0  0  0  0  0  0
   33.7840   28.9960   47.0860 N   0  0  0  0  0  0  0  0  0  0  0  0
   34.7070   30.8890   46.7720 H   0  0  0  0  0  0  0  0  0  0  0  0
   36.0700   28.6330   50.1050 H   0  0  0  0  0  0  0  0  0  0  0  0
   36.4000   30.9640   48.7420 N   0  0  0  0  0  0  0  0  0  0  0  0
   36.3750   31.7190   49.8620 C   0  0  0  0  0  0  0  0  0  0  0  0
   37.3560   32.6510   49.7910 N   0  0  0  0  0  0  0  0  0  0  0  0
   37.9890   32.4610   48.6110 C   0  0  0  0  0  0  0  0  0  0  0  0
   39.0510   33.0780   47.9690 C   0  0  0  0  0  0  0  0  0  0  0  0
   39.4750   32.6760   46.7790 N   0  0  0  0  0  0  0  0  0  0  0  0
   38.8950   31.6360   46.1200 C   0  0  0  0  0  0  0  0  0  0  0  0
   37.8590   31.0380   46.7520 N   0  0  0  0  0  0  0  0  0  0  0  0
   37.4000   31.4080   47.9440 C   0  0  0  0  0  0  0  0  0  0  0  0
   35.7240   31.6590   50.7040 H   0  0  0  0  0  0  0  0  0  0  0  0
   39.2580   31.3120   45.1380 H   0  0  0  0  0  0  0  0  0  0  0  0
   39.6860   34.1630   48.5960 N   0  0  0  0  0  0  0  0  0  0  0  0
   40.6020   34.5610   48.2850 H   0  0  0  0  0  0  0  0  0  0  0  0
   39.4040   34.7380   49.4210 H   0  0  0  0  0  0  0  0  0  0  0  0
   32.7310   26.8490   47.4080 C   0  0  0  0  0  0  0  0  0  0  0  0
   31.5830   26.8380   48.4500 C   0  0  0  0  0  0  0  0  0  0  0  0
   31.9200   27.3230   49.3770 H   0  0  0  0  0  0  0  0  0  0  0  0
   31.3410   25.7820   48.6330 H   0  0  0  0  0  0  0  0  0  0  0  0
   30.6970   27.3660   48.0950 H   0  0  0  0  0  0  0  0  0  0  0  0
   32.0740   27.1970   46.1100 C   0  0  0  0  0  0  0  0  0  0  0  0
   32.6770   27.0960   45.2120 H   0  0  0  0  0  0  0  0  0  0  0  0
   31.8860   28.3260   46.1880 H   0  0  0  0  0  0  0  0  0  0  0  0
   31.0490   26.7750   46.0760 H   0  0  0  0  0  0  0  0  0  0  0  0
   33.3550   25.4970   47.3370 C   0  0  0  0  0  0  0  0  0  0  0  0
   33.7060   25.2740   48.3840 H   0  0  0  0  0  0  0  0  0  0  0  0
   34.3350   25.6510   46.7860 H   0  0  0  0  0  0  0  0  0  0  0  0
   32.5550   24.4440   46.8100 N   0  0  0  0  0  0  0  0  0  0  0  0
   32.7300   23.2880   47.7280 C   0  0  0  0  0  2  0  0  0  0  0  0
   34.1630   23.1010   48.0390 C   0  0  0  0  0  2  0  0  0  0  0  0
   35.0300   23.1220   46.9860 O   0  0  0  0  0  0  0  0  0  0  0  0
   34.5850   23.5380   45.7780 C   0  0  0  0  0  2  0  0  0  0  0  0
   33.1550   23.8490   45.5930 C   0  0  0  0  0  2  0  0  0  0  0  0
  1  2  1  0  0  0  0
  2  9  1  0  0  0  0
  2  3  2  0  0  0  0
  3  8  1  0  0  0  0
  4  3  1  0  0  0  0
  5  4  2  0  0  0  0
  6  1  2  0  0  0  0
  6  5  1  0  0  0  0
  7  1  1  0  0  0  0
  9 10  1  0  0  0  0
 10 18  1  0  0  0  0
 11 10  2  0  0  0  0
 12 11  1  0  0  0  0
 13 20  1  0  0  0  0
 13 12  1  0  0  0  0
 14 13  2  0  0  0  0
 15 16  2  0  0  0  0
 15 14  1  0  0  0  0
 16 17  1  0  0  0  0
 17 12  2  0  0  0  0
 17  9  1  0  0  0  0
 19 15  1  0  0  0  0
 20 22  1  0  0  0  0
 21 20  1  0  0  0  0
 23  5  1  0  0  0  0
 23 24  1  0  0  0  0
 24 26  1  0  0  0  0
 24 25  1  0  0  0  0
 27 24  1  0  0  0  0
 28 30  1  0  0  0  0
 28 23  1  0  0  0  0
 29 28  1  0  0  0  0
 31 28  1  0  0  0  0
 32 23  1  0  0  0  0
 32 33  1  0  0  0  0
 34 32  1  0  0  0  0
 35 32  1  0  0  0  0
 35 36  1  0  0  0  0
 36 37  1  0  0  0  0
 38 37  1  0  0  0  0
 39 38  1  0  0  0  0
 40 39  1  0  0  0  0
 40 35  1  0  0  0  0
M  END
>  <minimizedAffinity>
-5.39717865

>  <minimizedRMSD>
0.593432307

$$$$
