
 OpenBabel03252513113D

 35 38  0  0  0  0  0  0  0  0999 V2000
   36.8840   30.5660   46.1510 C   0  0  0  0  0  0  0  0  0  0  0  0
   35.7070   29.8790   46.4160 C   0  0  0  0  0  0  0  0  0  0  0  0
   35.0690   29.8610   47.6190 C   0  0  0  0  0  0  0  0  0  0  0  0
   35.5770   30.5520   48.6770 C   0  0  0  0  0  0  0  0  0  0  0  0
   36.7180   31.2430   48.4970 C   0  0  0  0  0  0  0  0  0  0  0  0
   37.2310   31.9420   49.5750 C   0  0  0  0  0  0  0  0  0  0  0  0
   38.3810   32.6670   49.4750 C   0  0  0  0  0  0  0  0  0  0  0  0
   39.0250   32.6830   48.2560 C   0  0  0  0  0  0  0  0  0  0  0  0
   38.4910   31.9800   47.2080 C   0  0  0  0  0  0  0  0  0  0  0  0
   37.3660   31.2580   47.2690 C   0  0  0  0  0  0  0  0  0  0  0  0
   35.2730   29.3170   45.5930 H   0  0  0  0  0  0  0  0  0  0  0  0
   34.1510   29.2960   47.7370 H   0  0  0  0  0  0  0  0  0  0  0  0
   36.7240   31.9320   50.5410 H   0  0  0  0  0  0  0  0  0  0  0  0
   38.7600   33.2040   50.3330 H   0  0  0  0  0  0  0  0  0  0  0  0
   39.9370   33.2610   48.1880 H   0  0  0  0  0  0  0  0  0  0  0  0
   39.0320   32.0180   46.2600 H   0  0  0  0  0  0  0  0  0  0  0  0
   39.2660   29.4390   43.7150 C   0  0  0  0  0  0  0  0  0  0  0  0
   39.0950   30.2130   42.5780 C   0  0  0  0  0  0  0  0  0  0  0  0
   38.1170   31.1710   42.6450 C   0  0  0  0  0  0  0  0  0  0  0  0
   37.4250   31.2720   43.7800 N   0  0  0  0  0  0  0  0  0  0  0  0
   37.5500   30.5730   44.8630 C   0  0  0  0  0  0  0  0  0  0  0  0
   38.5050   29.6470   44.7790 N   0  0  0  0  0  0  0  0  0  0  0  0
   40.0480   28.6780   43.6510 H   0  0  0  0  0  0  0  0  0  0  0  0
   39.6550   30.1270   41.6690 H   0  0  0  0  0  0  0  0  0  0  0  0
   37.7720   32.0710   41.6040 N   0  0  0  0  0  0  0  0  0  0  0  0
   38.7690   32.8150   40.8250 C   0  0  0  0  0  0  0  0  0  0  0  0
   38.4230   34.2770   40.7420 C   0  0  0  0  0  0  0  0  0  0  0  0
   37.0930   34.5290   40.5120 O   0  0  0  0  0  0  0  0  0  0  0  0
   36.2410   33.8850   41.3890 C   0  0  0  0  0  0  0  0  0  0  0  0
   36.4240   32.3790   41.1670 C   0  0  0  0  0  0  0  0  0  0  0  0
   34.9060   30.5150   49.8880 O   0  0  0  0  0  0  0  0  0  0  0  0
   34.6750   29.3150   50.5570 C   0  0  0  0  0  0  0  0  0  0  0  0
   35.0480   29.3090   51.8820 F   0  0  0  0  0  0  0  0  0  0  0  0
   33.3050   29.0780   50.5290 F   0  0  0  0  0  0  0  0  0  0  0  0
   35.3610   28.3250   49.8420 F   0  0  0  0  0  0  0  0  0  0  0  0
  1  2  2  0  0  0  0
  1 10  1  0  0  0  0
  2  3  1  0  0  0  0
  3 12  1  0  0  0  0
  3  4  2  0  0  0  0
  4 31  1  0  0  0  0
  5  4  1  0  0  0  0
  5  6  1  0  0  0  0
  6 13  1  0  0  0  0
  7  6  2  0  0  0  0
  7 14  1  0  0  0  0
  8  7  1  0  0  0  0
  9 10  1  0  0  0  0
  9  8  2  0  0  0  0
 10  5  2  0  0  0  0
 11  2  1  0  0  0  0
 15  8  1  0  0  0  0
 16  9  1  0  0  0  0
 17 22  1  0  0  0  0
 18 19  1  0  0  0  0
 18 17  2  0  0  0  0
 19 20  2  0  0  0  0
 20 21  1  0  0  0  0
 21  1  1  0  0  0  0
 22 21  2  0  0  0  0
 23 17  1  0  0  0  0
 24 18  1  0  0  0  0
 25 19  1  0  0  0  0
 26 25  1  0  0  0  0
 27 26  1  0  0  0  0
 28 27  1  0  0  0  0
 28 29  1  0  0  0  0
 30 29  1  0  0  0  0
 30 25  1  0  0  0  0
 31 32  1  0  0  0  0
 32 33  1  0  0  0  0
 34 32  1  0  0  0  0
 35 32  1  0  0  0  0
M  END
>  <minimizedAffinity>
-6.52467155

>  <minimizedRMSD>
3.79107809

$$$$
