
 OpenBabel03252511483D

 39 43  0  0  1  0  0  0  0  0999 V2000
   34.2790   30.2120   47.3780 C   0  0  0  0  0  0  0  0  0  0  0  0
   35.4190   30.0850   48.1540 C   0  0  0  0  0  0  0  0  0  0  0  0
   35.4250   28.9270   48.9980 C   0  0  0  0  0  0  0  0  0  0  0  0
   34.3670   28.0740   48.9820 N   0  0  0  0  0  0  0  0  0  0  0  0
   33.3090   28.2750   48.2010 C   0  0  0  0  0  0  0  0  0  0  0  0
   33.2670   29.3340   47.4080 N   0  0  0  0  0  0  0  0  0  0  0  0
   34.3040   31.0990   46.7500 H   0  0  0  0  0  0  0  0  0  0  0  0
   36.2380   28.6710   49.6700 H   0  0  0  0  0  0  0  0  0  0  0  0
   36.5850   30.9330   48.2430 C   0  0  0  0  0  0  0  0  0  0  0  0
   36.6750   31.5240   49.4730 C   0  0  0  0  0  0  0  0  0  0  0  0
   37.7260   32.3900   49.7870 C   0  0  0  0  0  0  0  0  0  0  0  0
   38.6930   32.6550   48.8370 C   0  0  0  0  0  0  0  0  0  0  0  0
   38.5800   32.0450   47.5990 C   0  0  0  0  0  0  0  0  0  0  0  0
   39.5060   32.2450   46.5640 C   0  0  0  0  0  0  0  0  0  0  0  0
   39.3380   31.6120   45.3610 C   0  0  0  0  0  0  0  0  0  0  0  0
   38.2910   30.7760   45.1110 C   0  0  0  0  0  0  0  0  0  0  0  0
   37.3680   30.5700   46.1270 C   0  0  0  0  0  0  0  0  0  0  0  0
   37.5440   31.2060   47.3240 C   0  0  0  0  0  0  0  0  0  0  0  0
   36.0030   31.4160   50.3100 H   0  0  0  0  0  0  0  0  0  0  0  0
   37.8470   32.8840   50.7410 H   0  0  0  0  0  0  0  0  0  0  0  0
   39.5360   33.3180   49.0160 H   0  0  0  0  0  0  0  0  0  0  0  0
   40.3240   32.9250   46.8200 H   0  0  0  0  0  0  0  0  0  0  0  0
   40.0950   31.8070   44.5860 H   0  0  0  0  0  0  0  0  0  0  0  0
   38.2190   30.3090   44.1380 H   0  0  0  0  0  0  0  0  0  0  0  0
   36.5300   29.8950   45.9130 H   0  0  0  0  0  0  0  0  0  0  0  0
   32.1870   27.2880   48.2370 C   0  0  1  0  0  0  0  0  0  0  0  0
   31.0260   27.5540   49.1480 C   0  0  0  0  0  0  0  0  0  0  0  0
   30.8690   27.6400   47.6410 C   0  0  2  0  0  0  0  0  0  0  0  0
   32.5020   26.2210   48.2180 H   0  0  0  0  0  0  0  0  0  0  0  0
   30.9910   28.4960   49.7320 H   0  0  0  0  0  0  0  0  0  0  0  0
   30.5440   26.6950   49.6540 H   0  0  0  0  0  0  0  0  0  0  0  0
   30.8240   28.6910   47.2390 H   0  0  0  0  0  0  0  0  0  0  0  0
   29.9790   26.3550   46.7520 S   0  0  0  0  0  0  0  0  0  0  0  0
   27.3940   26.6710   48.3540 H   0  0  0  0  0  0  0  0  0  0  0  0
   27.6990   27.4640   47.7190 N   0  0  0  0  0  0  0  0  0  0  0  0
   26.5210   28.1610   47.2630 C   0  0  0  0  0  0  0  0  0  0  0  0
   26.6370   28.3410   45.7670 C   0  0  0  0  0  0  0  0  0  0  0  0
   28.0990   27.9540   45.5020 C   0  0  0  0  0  0  0  0  0  0  0  0
   28.2620   26.8650   46.5510 C   0  0  1  0  0  0  0  0  0  0  0  0
  1  6  2  0  0  0  0
  1  2  1  0  0  0  0
  2  9  1  0  0  0  0
  2  3  2  0  0  0  0
  3  8  1  0  0  0  0
  4  3  1  0  0  0  0
  5 26  1  0  0  0  0
  5  4  2  0  0  0  0
  6  5  1  0  0  0  0
  7  1  1  0  0  0  0
  9 10  1  0  0  0  0
 10 11  2  0  0  0  0
 10 19  1  0  0  0  0
 11 20  1  0  0  0  0
 12 21  1  0  0  0  0
 12 11  1  0  0  0  0
 13 12  2  0  0  0  0
 14 22  1  0  0  0  0
 14 13  1  0  0  0  0
 15 14  2  0  0  0  0
 16 15  1  0  0  0  0
 16 17  2  0  0  0  0
 17 18  1  0  0  0  0
 18 13  1  0  0  0  0
 18  9  2  0  0  0  0
 23 15  1  0  0  0  0
 24 16  1  0  0  0  0
 25 17  1  0  0  0  0
 26 29  1  6  0  0  0
 26 27  1  0  0  0  0
 27 31  1  0  0  0  0
 27 30  1  0  0  0  0
 28 32  1  6  0  0  0
 28 26  1  0  0  0  0
 28 27  1  0  0  0  0
 33 28  1  0  0  0  0
 35 34  1  0  0  0  0
 36 35  1  0  0  0  0
 37 36  1  0  0  0  0
 38 37  1  0  0  0  0
 38 39  1  0  0  0  0
 39 33  1  1  0  0  0
 39 35  1  0  0  0  0
M  END
>  <minimizedAffinity>
-6.90013504

>  <minimizedRMSD>
2.96954727

$$$$
