
 OpenBabel03252510253D

 28 29  0  0  0  0  0  0  0  0999 V2000
   35.9470   30.4320   47.9400 C   0  0  0  0  0  0  0  0  0  0  0  0
   37.2060   30.8490   47.5090 C   0  0  0  0  0  0  0  0  0  0  0  0
   37.3910   30.8910   46.1140 C   0  0  0  0  0  0  0  0  0  0  0  0
   36.3840   30.5390   45.2790 N   0  0  0  0  0  0  0  0  0  0  0  0
   35.1830   30.1410   45.7540 C   0  0  0  0  0  0  0  0  0  0  0  0
   34.9860   30.0950   47.0800 N   0  0  0  0  0  0  0  0  0  0  0  0
   34.1420   29.7760   44.8620 N   0  0  0  0  0  0  0  0  0  0  0  0
   34.4490   28.9430   43.7430 C   0  0  0  0  0  0  0  0  0  0  0  0
   35.4960   28.1600   43.7840 N   0  0  0  0  0  0  0  0  0  0  0  0
   33.5720   29.0210   42.6220 N   0  0  0  0  0  0  0  0  0  0  0  0
   35.7130   27.5440   42.9560 H   0  0  0  0  0  0  0  0  0  0  0  0
   37.9780   31.1200   48.2100 H   0  0  0  0  0  0  0  0  0  0  0  0
   33.1820   30.1340   45.0590 H   0  0  0  0  0  0  0  0  0  0  0  0
   32.5160   28.9060   42.6630 H   0  0  0  0  0  0  0  0  0  0  0  0
   34.0380   29.2070   41.7030 H   0  0  0  0  0  0  0  0  0  0  0  0
   38.6610   31.3120   45.6340 N   0  0  0  0  0  0  0  0  0  0  0  0
   39.1100   31.1140   44.2740 C   0  0  0  0  0  0  0  0  0  0  0  0
   40.5590   31.5470   44.2730 C   0  0  0  0  0  0  0  0  0  0  0  0
   40.5280   32.6470   45.3280 C   0  0  0  0  0  0  0  0  0  0  0  0
   39.6870   31.9890   46.4050 C   0  0  0  0  0  0  0  0  0  0  0  0
   39.1900   32.7520   47.0510 H   0  0  0  0  0  0  0  0  0  0  0  0
   35.6960   30.3680   49.3760 C   0  0  0  0  0  0  0  0  0  0  0  0
   34.7750   29.6630   49.8430 O   0  0  0  0  0  0  0  0  0  0  0  0
   36.4970   31.1100   50.2470 O   0  0  0  0  0  0  0  0  0  0  0  0
   37.5460   30.4100   50.8970 C   0  0  0  0  0  0  0  0  0  0  0  0
   37.2850   30.2640   52.2480 F   0  0  0  0  0  0  0  0  0  0  0  0
   38.7260   31.0900   50.6780 F   0  0  0  0  0  0  0  0  0  0  0  0
   37.6890   29.1520   50.3730 F   0  0  0  0  0  0  0  0  0  0  0  0
  1 22  1  0  0  0  0
  2  1  1  0  0  0  0
  2 12  1  0  0  0  0
  3  2  2  0  0  0  0
  4  5  2  0  0  0  0
  4  3  1  0  0  0  0
  5  6  1  0  0  0  0
  6  1  2  0  0  0  0
  7 13  1  0  0  0  0
  7  5  1  0  0  0  0
  8  9  2  0  0  0  0
  8  7  1  0  0  0  0
 10 14  1  0  0  0  0
 10  8  1  0  0  0  0
 11  9  1  0  0  0  0
 15 10  1  0  0  0  0
 16  3  1  0  0  0  0
 16 20  1  0  0  0  0
 17 16  1  0  0  0  0
 18 17  1  0  0  0  0
 18 19  1  0  0  0  0
 19 20  1  0  0  0  0
 20 21  1  0  0  0  0
 22 23  2  0  0  0  0
 22 24  1  0  0  0  0
 24 25  1  0  0  0  0
 25 26  1  0  0  0  0
 27 25  1  0  0  0  0
 28 25  1  0  0  0  0
M  END
>  <minimizedAffinity>
-6.13059092

>  <minimizedRMSD>
4.26024723

$$$$
