
 OpenBabel03252514073D

 40 43  0  0  0  0  0  0  0  0999 V2000
   33.9390   30.0700   47.3810 C   0  0  0  0  0  0  0  0  0  0  0  0
   34.9180   29.6600   48.3140 C   0  0  0  0  0  0  0  0  0  0  0  0
   34.8620   28.3340   48.7600 C   0  0  0  0  0  0  0  0  0  0  0  0
   33.8850   27.5320   48.2760 N   0  0  0  0  0  0  0  0  0  0  0  0
   32.9630   27.9540   47.3830 C   0  0  0  0  0  0  0  0  0  0  0  0
   32.9910   29.2150   46.9390 N   0  0  0  0  0  0  0  0  0  0  0  0
   33.9600   31.0770   47.0270 H   0  0  0  0  0  0  0  0  0  0  0  0
   35.6180   28.0640   49.4630 H   0  0  0  0  0  0  0  0  0  0  0  0
   35.8850   30.6180   48.7250 N   0  0  0  0  0  0  0  0  0  0  0  0
   35.9480   31.1490   49.9670 C   0  0  0  0  0  0  0  0  0  0  0  0
   36.9810   32.0240   50.0100 N   0  0  0  0  0  0  0  0  0  0  0  0
   37.5440   32.0220   48.7880 C   0  0  0  0  0  0  0  0  0  0  0  0
   38.6120   32.6990   48.2440 C   0  0  0  0  0  0  0  0  0  0  0  0
   38.9800   32.5090   46.9600 N   0  0  0  0  0  0  0  0  0  0  0  0
   38.3110   31.6420   46.1490 C   0  0  0  0  0  0  0  0  0  0  0  0
   37.2710   30.9900   46.6990 N   0  0  0  0  0  0  0  0  0  0  0  0
   36.8690   31.1470   47.9750 C   0  0  0  0  0  0  0  0  0  0  0  0
   35.3380   30.9820   50.8480 H   0  0  0  0  0  0  0  0  0  0  0  0
   38.6320   31.5140   45.1240 H   0  0  0  0  0  0  0  0  0  0  0  0
   39.3470   33.6120   49.0300 N   0  0  0  0  0  0  0  0  0  0  0  0
   39.3490   33.6570   50.0610 H   0  0  0  0  0  0  0  0  0  0  0  0
   39.9750   34.3480   48.6190 H   0  0  0  0  0  0  0  0  0  0  0  0
   31.9240   27.0250   46.8860 C   0  0  0  0  0  0  0  0  0  0  0  0
   31.4550   26.1170   48.0250 C   0  0  0  0  0  0  0  0  0  0  0  0
   31.3510   25.0920   47.6130 H   0  0  0  0  0  0  0  0  0  0  0  0
   30.4960   26.4150   48.4500 H   0  0  0  0  0  0  0  0  0  0  0  0
   32.2370   26.0750   48.8320 H   0  0  0  0  0  0  0  0  0  0  0  0
   30.6630   27.8260   46.5080 C   0  0  0  0  0  0  0  0  0  0  0  0
   30.9180   28.6170   45.7830 H   0  0  0  0  0  0  0  0  0  0  0  0
   29.9760   27.0640   46.0740 H   0  0  0  0  0  0  0  0  0  0  0  0
   30.2320   28.1730   47.4530 H   0  0  0  0  0  0  0  0  0  0  0  0
   32.2840   26.2450   45.6800 C   0  0  0  0  0  0  0  0  0  0  0  0
   31.3880   26.2320   45.0140 H   0  0  0  0  0  0  0  0  0  0  0  0
   32.5100   25.1690   45.9360 H   0  0  0  0  0  0  0  0  0  0  0  0
   33.3720   26.8290   44.9680 N   0  0  0  0  0  0  0  0  0  0  0  0
   34.4680   26.0050   44.6180 C   0  0  0  0  0  2  0  0  0  0  0  0
   35.2380   26.7780   43.5230 C   0  0  0  0  0  2  0  0  0  0  0  0
   34.3210   27.9100   43.1680 C   0  0  0  0  0  2  0  0  0  0  0  0
   32.9850   27.4890   43.7530 C   0  0  0  0  0  3  0  0  0  0  0  0
   32.5110   26.8100   43.0170 H   0  0  0  0  0  0  0  0  0  0  0  0
  1  2  1  0  0  0  0
  2  9  1  0  0  0  0
  2  3  2  0  0  0  0
  3  8  1  0  0  0  0
  4  3  1  0  0  0  0
  5  4  2  0  0  0  0
  6  1  2  0  0  0  0
  6  5  1  0  0  0  0
  7  1  1  0  0  0  0
  9 10  1  0  0  0  0
 10 11  2  0  0  0  0
 10 18  1  0  0  0  0
 12 11  1  0  0  0  0
 13 12  1  0  0  0  0
 13 20  1  0  0  0  0
 14 13  2  0  0  0  0
 15 16  2  0  0  0  0
 15 14  1  0  0  0  0
 16 17  1  0  0  0  0
 17  9  1  0  0  0  0
 17 12  2  0  0  0  0
 19 15  1  0  0  0  0
 20 21  1  0  0  0  0
 22 20  1  0  0  0  0
 23  5  1  0  0  0  0
 23 24  1  0  0  0  0
 24 26  1  0  0  0  0
 24 27  1  0  0  0  0
 25 24  1  0  0  0  0
 28 23  1  0  0  0  0
 28 31  1  0  0  0  0
 29 28  1  0  0  0  0
 30 28  1  0  0  0  0
 32 34  1  0  0  0  0
 32 23  1  0  0  0  0
 33 32  1  0  0  0  0
 35 32  1  0  0  0  0
 36 35  1  0  0  0  0
 37 36  1  0  0  0  0
 38 37  1  0  0  0  0
 38 39  1  0  0  0  0
 39 35  1  0  0  0  0
 40 39  1  0  0  0  0
M  END
>  <minimizedAffinity>
-4.93515491

>  <minimizedRMSD>
1.39144599

$$$$
