
 OpenBabel03252511003D

 29 31  0  0  0  0  0  0  0  0999 V2000
   37.1900   31.3660   48.5810 C   0  0  0  0  0  0  0  0  0  0  0  0
   37.5520   32.4210   49.4620 C   0  0  0  0  0  0  0  0  0  0  0  0
   38.5580   33.3030   49.0460 C   0  0  0  0  0  0  0  0  0  0  0  0
   39.1280   33.0860   47.8050 N   0  0  0  0  0  0  0  0  0  0  0  0
   38.7500   32.0890   47.0300 C   0  0  0  0  0  0  0  0  0  0  0  0
   37.7680   31.2010   47.4000 N   0  0  0  0  0  0  0  0  0  0  0  0
   37.0660   32.5290   50.4140 H   0  0  0  0  0  0  0  0  0  0  0  0
   38.8560   34.1050   49.6790 H   0  0  0  0  0  0  0  0  0  0  0  0
   39.3680   31.8820   45.7230 C   0  0  0  0  0  0  0  0  0  0  0  0
   40.5710   31.2380   45.5270 C   0  0  0  0  0  0  0  0  0  0  0  0
   40.8430   31.2280   44.1650 C   0  0  0  0  0  0  0  0  0  0  0  0
   39.7520   31.8880   43.5890 C   0  0  0  0  0  0  0  0  0  0  0  0
   38.9280   32.2460   44.5350 O   0  0  0  0  0  0  0  0  0  0  0  0
   41.2330   30.7970   46.2720 H   0  0  0  0  0  0  0  0  0  0  0  0
   41.6770   30.8240   43.6110 H   0  0  0  0  0  0  0  0  0  0  0  0
   39.5100   32.1650   42.1940 N   0  0  0  0  0  0  0  0  0  0  0  0
   39.9580   31.3820   41.0330 C   0  0  0  0  0  0  0  0  0  0  0  0
   38.8750   31.7260   40.0320 C   0  0  0  0  0  0  0  0  0  0  0  0
   38.7760   33.2410   40.2560 C   0  0  0  0  0  0  0  0  0  0  0  0
   38.7370   33.3360   41.7620 C   0  0  0  0  0  0  0  0  0  0  0  0
   37.6820   33.2520   42.0830 H   0  0  0  0  0  0  0  0  0  0  0  0
   36.1430   30.4670   49.0430 C   0  0  0  0  0  0  0  0  0  0  0  0
   34.9300   30.6880   48.7150 O   0  0  0  0  0  0  0  0  0  0  0  0
   36.4820   29.3800   49.8340 O   0  0  0  0  0  0  0  0  0  0  0  0
   36.5010   29.4400   51.2180 C   0  0  0  0  0  0  0  0  0  0  0  0
   37.6740   29.7340   51.9490 N   0  0  0  0  0  0  0  0  0  0  0  0
   35.4010   29.2150   51.7600 O   0  0  0  0  0  0  0  0  0  0  0  0
   38.6370   29.3420   51.9810 H   0  0  0  0  0  0  0  0  0  0  0  0
   37.7570   30.4930   52.6600 H   0  0  0  0  0  0  0  0  0  0  0  0
  1 22  1  0  0  0  0
  1  2  1  0  0  0  0
  2  7  1  0  0  0  0
  3  2  2  0  0  0  0
  3  8  1  0  0  0  0
  4  3  1  0  0  0  0
  5  6  1  0  0  0  0
  5  4  2  0  0  0  0
  6  1  2  0  0  0  0
  9  5  1  0  0  0  0
 10  9  2  0  0  0  0
 10 14  1  0  0  0  0
 11 10  1  0  0  0  0
 12 11  2  0  0  0  0
 12 13  1  0  0  0  0
 13  9  1  0  0  0  0
 15 11  1  0  0  0  0
 16 12  1  0  0  0  0
 17 16  1  0  0  0  0
 18 19  1  0  0  0  0
 18 17  1  0  0  0  0
 19 20  1  0  0  0  0
 20 21  1  0  0  0  0
 20 16  1  0  0  0  0
 22 24  1  0  0  0  0
 23 22  2  0  0  0  0
 24 25  1  0  0  0  0
 25 27  2  0  0  0  0
 25 26  1  0  0  0  0
 26 28  1  0  0  0  0
 26 29  1  0  0  0  0
M  END
>  <minimizedAffinity>
-5.71786594

>  <minimizedRMSD>
0.925811112

$$$$
