
 OpenBabel03252514073D

 40 43  0  0  0  0  0  0  0  0999 V2000
   34.0350   29.9690   47.4620 C   0  0  0  0  0  0  0  0  0  0  0  0
   35.0000   29.7560   48.4730 C   0  0  0  0  0  0  0  0  0  0  0  0
   34.8340   28.6310   49.2890 C   0  0  0  0  0  0  0  0  0  0  0  0
   33.7720   27.8220   49.0640 N   0  0  0  0  0  0  0  0  0  0  0  0
   32.8670   28.0530   48.0880 C   0  0  0  0  0  0  0  0  0  0  0  0
   32.9990   29.1200   47.2920 N   0  0  0  0  0  0  0  0  0  0  0  0
   34.1390   30.8220   46.8270 H   0  0  0  0  0  0  0  0  0  0  0  0
   35.5820   28.5050   50.0390 H   0  0  0  0  0  0  0  0  0  0  0  0
   36.0640   30.6930   48.5820 N   0  0  0  0  0  0  0  0  0  0  0  0
   36.3940   31.3370   49.7250 C   0  0  0  0  0  0  0  0  0  0  0  0
   37.4470   32.1520   49.4720 N   0  0  0  0  0  0  0  0  0  0  0  0
   37.7520   32.0000   48.1710 C   0  0  0  0  0  0  0  0  0  0  0  0
   38.7130   32.5590   47.3590 C   0  0  0  0  0  0  0  0  0  0  0  0
   38.8080   32.2260   46.0550 N   0  0  0  0  0  0  0  0  0  0  0  0
   37.9590   31.3230   45.4870 C   0  0  0  0  0  0  0  0  0  0  0  0
   37.0270   30.7880   46.2960 N   0  0  0  0  0  0  0  0  0  0  0  0
   36.8960   31.0900   47.6030 C   0  0  0  0  0  0  0  0  0  0  0  0
   35.9690   31.2900   50.7210 H   0  0  0  0  0  0  0  0  0  0  0  0
   38.0630   31.0800   44.4380 H   0  0  0  0  0  0  0  0  0  0  0  0
   39.6240   33.5010   47.8840 N   0  0  0  0  0  0  0  0  0  0  0  0
   39.8350   33.6440   48.8840 H   0  0  0  0  0  0  0  0  0  0  0  0
   40.1830   34.1560   47.2820 H   0  0  0  0  0  0  0  0  0  0  0  0
   31.7310   27.1260   47.8870 C   0  0  0  0  0  0  0  0  0  0  0  0
   30.6850   27.3470   48.9810 C   0  0  0  0  0  0  0  0  0  0  0  0
   30.3280   26.3490   49.3080 H   0  0  0  0  0  0  0  0  0  0  0  0
   29.8230   27.9270   48.6470 H   0  0  0  0  0  0  0  0  0  0  0  0
   31.1570   27.8420   49.8740 H   0  0  0  0  0  0  0  0  0  0  0  0
   30.9920   27.5000   46.5870 C   0  0  0  0  0  0  0  0  0  0  0  0
   31.6960   27.5100   45.7390 H   0  0  0  0  0  0  0  0  0  0  0  0
   30.2150   26.7100   46.4790 H   0  0  0  0  0  0  0  0  0  0  0  0
   30.4850   28.4490   46.7910 H   0  0  0  0  0  0  0  0  0  0  0  0
   32.0860   25.6950   47.7530 C   0  0  0  0  0  0  0  0  0  0  0  0
   31.1370   25.1100   47.8180 H   0  0  0  0  0  0  0  0  0  0  0  0
   32.7360   25.3490   48.6080 H   0  0  0  0  0  0  0  0  0  0  0  0
   32.7100   25.4110   46.5030 N   0  0  0  0  0  0  0  0  0  0  0  0
   32.4220   26.2490   45.4000 C   0  0  0  0  0  2  0  0  0  0  0  0
   33.5340   25.9720   44.3640 C   0  0  0  0  0  2  0  0  0  0  0  0
   34.5310   25.1440   45.1170 C   0  0  0  0  0  2  0  0  0  0  0  0
   34.1430   25.3460   46.5710 C   0  0  0  0  0  3  0  0  0  0  0  0
   34.6090   26.2960   46.8990 H   0  0  0  0  0  0  0  0  0  0  0  0
  1  2  1  0  0  0  0
  2  9  1  0  0  0  0
  2  3  2  0  0  0  0
  3  8  1  0  0  0  0
  4  3  1  0  0  0  0
  5  4  2  0  0  0  0
  6  1  2  0  0  0  0
  6  5  1  0  0  0  0
  7  1  1  0  0  0  0
  9 10  1  0  0  0  0
 10 18  1  0  0  0  0
 11 10  2  0  0  0  0
 12 11  1  0  0  0  0
 13 20  1  0  0  0  0
 13 12  2  0  0  0  0
 14 13  1  0  0  0  0
 15 14  2  0  0  0  0
 15 16  1  0  0  0  0
 16 17  2  0  0  0  0
 17 12  1  0  0  0  0
 17  9  1  0  0  0  0
 19 15  1  0  0  0  0
 20 21  1  0  0  0  0
 22 20  1  0  0  0  0
 23  5  1  0  0  0  0
 23 24  1  0  0  0  0
 24 25  1  0  0  0  0
 24 27  1  0  0  0  0
 26 24  1  0  0  0  0
 28 31  1  0  0  0  0
 28 23  1  0  0  0  0
 29 28  1  0  0  0  0
 30 28  1  0  0  0  0
 32 33  1  0  0  0  0
 32 23  1  0  0  0  0
 32 34  1  0  0  0  0
 35 39  1  0  0  0  0
 35 32  1  0  0  0  0
 36 35  1  0  0  0  0
 37 38  1  0  0  0  0
 37 36  1  0  0  0  0
 38 39  1  0  0  0  0
 39 40  1  0  0  0  0
M  END
>  <minimizedAffinity>
-5.2764554

>  <minimizedRMSD>
1.11972988

$$$$
