
 OpenBabel03252514073D

 40 43  0  0  0  0  0  0  0  0999 V2000
   34.0470   29.9280   47.3480 C   0  0  0  0  0  0  0  0  0  0  0  0
   34.9960   29.7730   48.3840 C   0  0  0  0  0  0  0  0  0  0  0  0
   34.7820   28.7330   49.2960 C   0  0  0  0  0  0  0  0  0  0  0  0
   33.6940   27.9450   49.1330 N   0  0  0  0  0  0  0  0  0  0  0  0
   32.8050   28.1190   48.1310 C   0  0  0  0  0  0  0  0  0  0  0  0
   32.9820   29.1050   47.2440 N   0  0  0  0  0  0  0  0  0  0  0  0
   34.1880   30.7160   46.6400 H   0  0  0  0  0  0  0  0  0  0  0  0
   35.5200   28.6480   50.0620 H   0  0  0  0  0  0  0  0  0  0  0  0
   36.0930   30.6770   48.4200 N   0  0  0  0  0  0  0  0  0  0  0  0
   36.5030   31.3290   49.5320 C   0  0  0  0  0  0  0  0  0  0  0  0
   37.5660   32.1050   49.2090 N   0  0  0  0  0  0  0  0  0  0  0  0
   37.7960   31.9220   47.8960 C   0  0  0  0  0  0  0  0  0  0  0  0
   38.7300   32.4360   47.0260 C   0  0  0  0  0  0  0  0  0  0  0  0
   38.7460   32.0790   45.7240 N   0  0  0  0  0  0  0  0  0  0  0  0
   37.8400   31.1940   45.2190 C   0  0  0  0  0  0  0  0  0  0  0  0
   36.9360   30.7020   46.0850 N   0  0  0  0  0  0  0  0  0  0  0  0
   36.8830   31.0310   47.3910 C   0  0  0  0  0  0  0  0  0  0  0  0
   36.1300   31.3130   50.5500 H   0  0  0  0  0  0  0  0  0  0  0  0
   37.8800   30.9300   44.1710 H   0  0  0  0  0  0  0  0  0  0  0  0
   39.6960   33.3570   47.4840 N   0  0  0  0  0  0  0  0  0  0  0  0
   39.9640   33.5110   48.4690 H   0  0  0  0  0  0  0  0  0  0  0  0
   40.2420   33.9850   46.8420 H   0  0  0  0  0  0  0  0  0  0  0  0
   31.6380   27.2190   48.0020 C   0  0  0  0  0  0  0  0  0  0  0  0
   30.6480   27.4920   49.1370 C   0  0  0  0  0  0  0  0  0  0  0  0
   30.2800   26.5110   49.5010 H   0  0  0  0  0  0  0  0  0  0  0  0
   29.7870   28.0880   48.8280 H   0  0  0  0  0  0  0  0  0  0  0  0
   31.1730   27.9930   49.9960 H   0  0  0  0  0  0  0  0  0  0  0  0
   30.8500   27.5850   46.7280 C   0  0  0  0  0  0  0  0  0  0  0  0
   31.5150   27.5580   45.8490 H   0  0  0  0  0  0  0  0  0  0  0  0
   30.0490   26.8140   46.6730 H   0  0  0  0  0  0  0  0  0  0  0  0
   30.3780   28.5520   46.9330 H   0  0  0  0  0  0  0  0  0  0  0  0
   31.9480   25.7760   47.8840 C   0  0  0  0  0  0  0  0  0  0  0  0
   30.9810   25.2230   47.9420 H   0  0  0  0  0  0  0  0  0  0  0  0
   32.5760   25.4180   48.7510 H   0  0  0  0  0  0  0  0  0  0  0  0
   32.5800   25.4620   46.6460 N   0  0  0  0  0  0  0  0  0  0  0  0
   32.1780   26.1690   45.4860 C   0  0  0  0  0  2  0  0  0  0  0  0
   33.2960   25.9340   44.4470 C   0  0  0  0  0  2  0  0  0  0  0  0
   34.3960   25.2880   45.2380 C   0  0  0  0  0  2  0  0  0  0  0  0
   34.0110   25.5650   46.6800 C   0  0  0  0  0  3  0  0  0  0  0  0
   34.3710   26.5850   46.9190 H   0  0  0  0  0  0  0  0  0  0  0  0
  1  2  1  0  0  0  0
  2  9  1  0  0  0  0
  2  3  2  0  0  0  0
  3  8  1  0  0  0  0
  4  3  1  0  0  0  0
  5  4  2  0  0  0  0
  6  1  2  0  0  0  0
  6  5  1  0  0  0  0
  7  1  1  0  0  0  0
  9 10  1  0  0  0  0
 10 18  1  0  0  0  0
 11 10  2  0  0  0  0
 12 11  1  0  0  0  0
 13 20  1  0  0  0  0
 13 12  2  0  0  0  0
 14 13  1  0  0  0  0
 15 14  2  0  0  0  0
 15 16  1  0  0  0  0
 16 17  2  0  0  0  0
 17 12  1  0  0  0  0
 17  9  1  0  0  0  0
 19 15  1  0  0  0  0
 20 21  1  0  0  0  0
 22 20  1  0  0  0  0
 23  5  1  0  0  0  0
 23 24  1  0  0  0  0
 24 25  1  0  0  0  0
 24 27  1  0  0  0  0
 26 24  1  0  0  0  0
 28 31  1  0  0  0  0
 28 23  1  0  0  0  0
 29 28  1  0  0  0  0
 30 28  1  0  0  0  0
 32 33  1  0  0  0  0
 32 23  1  0  0  0  0
 32 34  1  0  0  0  0
 35 39  1  0  0  0  0
 35 32  1  0  0  0  0
 36 35  1  0  0  0  0
 37 38  1  0  0  0  0
 37 36  1  0  0  0  0
 38 39  1  0  0  0  0
 39 40  1  0  0  0  0
M  END
>  <minimizedAffinity>
-5.27377558

>  <minimizedRMSD>
1.29068339

$$$$
