
 OpenBabel03252510143D

 15 16  0  0  0  0  0  0  0  0999 V2000
   36.1460   29.9290   50.3390 C   0  0  0  0  0  0  0  0  0  0  0  0
   36.3800   30.4410   49.0410 C   0  0  0  0  0  0  0  0  0  0  0  0
   35.5130   30.0510   48.0030 C   0  0  0  0  0  0  0  0  0  0  0  0
   34.4920   29.1910   48.3310 N   0  0  0  0  0  0  0  0  0  0  0  0
   34.3040   28.7260   49.5790 C   0  0  0  0  0  0  0  0  0  0  0  0
   35.1290   29.0950   50.5760 N   0  0  0  0  0  0  0  0  0  0  0  0
   36.8530   30.2670   51.1030 H   0  0  0  0  0  0  0  0  0  0  0  0
   35.6080   30.3850   46.9840 H   0  0  0  0  0  0  0  0  0  0  0  0
   33.4650   28.0430   49.7590 H   0  0  0  0  0  0  0  0  0  0  0  0
   37.4410   31.3270   48.7270 N   0  0  0  0  0  0  0  0  0  0  0  0
   38.3760   31.9730   49.6550 C   0  0  0  0  0  0  0  0  0  0  0  0
   38.6980   33.2280   48.8410 C   0  0  0  0  0  0  0  0  0  0  0  0
   39.0540   32.5320   47.5230 C   0  0  0  0  0  0  0  0  0  0  0  0
   37.7590   31.7350   47.3550 C   0  0  0  0  0  0  0  0  0  0  0  0
   37.8960   30.8610   46.6910 H   0  0  0  0  0  0  0  0  0  0  0  0
  1  6  1  0  0  0  0
  1  7  1  0  0  0  0
  2  1  2  0  0  0  0
  3  4  2  0  0  0  0
  3  2  1  0  0  0  0
  4  5  1  0  0  0  0
  5  9  1  0  0  0  0
  5  6  2  0  0  0  0
  8  3  1  0  0  0  0
 10  2  1  0  0  0  0
 10 11  1  0  0  0  0
 12 11  1  0  0  0  0
 13 12  1  0  0  0  0
 14 13  1  0  0  0  0
 14 10  1  0  0  0  0
 15 14  1  0  0  0  0
M  END
>  <minimizedAffinity>
-3.99227262

>  <minimizedRMSD>
2.55187273

$$$$
