
 OpenBabel03252511513D

 26 29  0  0  0  0  0  0  0  0999 V2000
   37.1920   30.5000   47.7090 N   0  0  0  0  0  0  0  0  0  0  0  0
   38.4000   31.0160   47.4530 C   0  0  0  0  0  0  0  0  0  0  0  0
   38.5400   31.2930   46.1580 N   0  0  0  0  0  0  0  0  0  0  0  0
   37.3870   30.9470   45.5450 C   0  0  0  0  0  0  0  0  0  0  0  0
   36.9140   30.9850   44.2590 C   0  0  0  0  0  0  0  0  0  0  0  0
   35.6880   30.5680   43.8920 N   0  0  0  0  0  0  0  0  0  0  0  0
   34.9190   30.0950   44.8900 C   0  0  0  0  0  0  0  0  0  0  0  0
   35.3570   30.0510   46.1460 N   0  0  0  0  0  0  0  0  0  0  0  0
   36.5620   30.4540   46.5440 C   0  0  0  0  0  0  0  0  0  0  0  0
   39.1610   31.1840   48.2060 H   0  0  0  0  0  0  0  0  0  0  0  0
   33.8960   29.7240   44.7300 H   0  0  0  0  0  0  0  0  0  0  0  0
   37.7390   31.4860   43.2090 N   0  0  0  0  0  0  0  0  0  0  0  0
   38.8730   30.8750   42.5440 C   0  0  0  0  0  0  0  0  0  0  0  0
   39.9680   31.9000   42.8570 C   0  0  0  0  0  0  0  0  0  0  0  0
   39.1960   33.1840   42.5380 C   0  0  0  0  0  0  0  0  0  0  0  0
   37.7320   32.7340   42.4690 C   0  0  0  0  0  0  0  0  0  0  0  0
   37.5120   32.4580   41.4100 H   0  0  0  0  0  0  0  0  0  0  0  0
   35.3620   29.8940   49.2010 C   0  0  0  0  0  0  0  0  0  0  0  0
   36.7230   30.0990   48.9750 C   0  0  0  0  0  0  0  0  0  0  0  0
   37.5970   29.8960   50.0390 C   0  0  0  0  0  0  0  0  0  0  0  0
   37.0580   29.5070   51.2390 N   0  0  0  0  0  0  0  0  0  0  0  0
   35.7390   29.3200   51.4110 C   0  0  0  0  0  0  0  0  0  0  0  0
   34.8900   29.5130   50.3930 N   0  0  0  0  0  0  0  0  0  0  0  0
   34.7060   30.0600   48.3540 H   0  0  0  0  0  0  0  0  0  0  0  0
   38.6410   30.0510   49.8760 H   0  0  0  0  0  0  0  0  0  0  0  0
   35.4480   29.0130   52.4080 H   0  0  0  0  0  0  0  0  0  0  0  0
  1 19  1  0  0  0  0
  2  1  1  0  0  0  0
  2 10  1  0  0  0  0
  3  2  2  0  0  0  0
  4  3  1  0  0  0  0
  4  9  1  0  0  0  0
  5  4  2  0  0  0  0
  6  5  1  0  0  0  0
  6  7  2  0  0  0  0
  7  8  1  0  0  0  0
  8  9  2  0  0  0  0
  9  1  1  0  0  0  0
 11  7  1  0  0  0  0
 12  5  1  0  0  0  0
 13 14  1  0  0  0  0
 13 12  1  0  0  0  0
 15 14  1  0  0  0  0
 16 15  1  0  0  0  0
 16 12  1  0  0  0  0
 17 16  1  0  0  0  0
 18 23  1  0  0  0  0
 19 18  2  0  0  0  0
 19 20  1  0  0  0  0
 20 21  2  0  0  0  0
 21 22  1  0  0  0  0
 22 26  1  0  0  0  0
 23 22  2  0  0  0  0
 24 18  1  0  0  0  0
 25 20  1  0  0  0  0
M  END
>  <minimizedAffinity>
-4.97302818

>  <minimizedRMSD>
3.39161468

$$$$
