
 OpenBabel03252514073D

 40 43  0  0  0  0  0  0  0  0999 V2000
   34.0870   30.0080   47.3460 C   0  0  0  0  0  0  0  0  0  0  0  0
   35.0830   29.8150   48.3310 C   0  0  0  0  0  0  0  0  0  0  0  0
   34.9210   28.7310   49.2020 C   0  0  0  0  0  0  0  0  0  0  0  0
   33.8330   27.9400   49.0510 N   0  0  0  0  0  0  0  0  0  0  0  0
   32.8980   28.1500   48.0990 C   0  0  0  0  0  0  0  0  0  0  0  0
   33.0260   29.1780   47.2520 N   0  0  0  0  0  0  0  0  0  0  0  0
   34.1870   30.8290   46.6710 H   0  0  0  0  0  0  0  0  0  0  0  0
   35.6930   28.6200   49.9290 H   0  0  0  0  0  0  0  0  0  0  0  0
   36.1720   30.7290   48.3600 N   0  0  0  0  0  0  0  0  0  0  0  0
   36.5450   31.4310   49.4540 C   0  0  0  0  0  0  0  0  0  0  0  0
   37.6100   32.2020   49.1290 N   0  0  0  0  0  0  0  0  0  0  0  0
   37.8810   31.9640   47.8330 C   0  0  0  0  0  0  0  0  0  0  0  0
   38.8360   32.4490   46.9680 C   0  0  0  0  0  0  0  0  0  0  0  0
   38.8920   32.0360   45.6840 N   0  0  0  0  0  0  0  0  0  0  0  0
   38.0080   31.1240   45.1910 C   0  0  0  0  0  0  0  0  0  0  0  0
   37.0830   30.6620   46.0510 N   0  0  0  0  0  0  0  0  0  0  0  0
   36.9890   31.0450   47.3400 C   0  0  0  0  0  0  0  0  0  0  0  0
   36.1410   31.4560   50.4600 H   0  0  0  0  0  0  0  0  0  0  0  0
   38.0810   30.8150   44.1570 H   0  0  0  0  0  0  0  0  0  0  0  0
   39.7820   33.3970   47.4150 N   0  0  0  0  0  0  0  0  0  0  0  0
   40.0200   33.5940   48.3990 H   0  0  0  0  0  0  0  0  0  0  0  0
   40.3420   34.0000   46.7620 H   0  0  0  0  0  0  0  0  0  0  0  0
   31.7340   27.2440   47.9810 C   0  0  0  0  0  0  0  0  0  0  0  0
   30.7480   27.5190   49.1180 C   0  0  0  0  0  0  0  0  0  0  0  0
   30.3870   26.5380   49.4900 H   0  0  0  0  0  0  0  0  0  0  0  0
   29.8830   28.1080   48.8100 H   0  0  0  0  0  0  0  0  0  0  0  0
   31.2750   28.0270   49.9720 H   0  0  0  0  0  0  0  0  0  0  0  0
   30.9400   27.5980   46.7080 C   0  0  0  0  0  0  0  0  0  0  0  0
   31.6010   27.5690   45.8270 H   0  0  0  0  0  0  0  0  0  0  0  0
   30.1420   26.8230   46.6610 H   0  0  0  0  0  0  0  0  0  0  0  0
   30.4640   28.5640   46.9090 H   0  0  0  0  0  0  0  0  0  0  0  0
   32.0510   25.8020   47.8710 C   0  0  0  0  0  0  0  0  0  0  0  0
   31.0910   25.2420   47.9700 H   0  0  0  0  0  0  0  0  0  0  0  0
   32.7120   25.4590   48.7190 H   0  0  0  0  0  0  0  0  0  0  0  0
   32.6400   25.4760   46.6140 N   0  0  0  0  0  0  0  0  0  0  0  0
   32.2990   26.2610   45.4870 C   0  0  0  0  0  2  0  0  0  0  0  0
   33.3830   25.9590   44.4270 C   0  0  0  0  0  2  0  0  0  0  0  0
   34.4200   25.1810   45.1810 C   0  0  0  0  0  2  0  0  0  0  0  0
   34.0750   25.4370   46.6360 C   0  0  0  0  0  3  0  0  0  0  0  0
   34.5350   26.4090   46.9100 H   0  0  0  0  0  0  0  0  0  0  0  0
  1  2  1  0  0  0  0
  2  9  1  0  0  0  0
  2  3  2  0  0  0  0
  3  8  1  0  0  0  0
  4  3  1  0  0  0  0
  5  4  2  0  0  0  0
  6  1  2  0  0  0  0
  6  5  1  0  0  0  0
  7  1  1  0  0  0  0
  9 10  1  0  0  0  0
 10 18  1  0  0  0  0
 11 10  2  0  0  0  0
 12 11  1  0  0  0  0
 13 20  1  0  0  0  0
 13 12  2  0  0  0  0
 14 13  1  0  0  0  0
 15 14  2  0  0  0  0
 15 16  1  0  0  0  0
 16 17  2  0  0  0  0
 17 12  1  0  0  0  0
 17  9  1  0  0  0  0
 19 15  1  0  0  0  0
 20 21  1  0  0  0  0
 22 20  1  0  0  0  0
 23  5  1  0  0  0  0
 23 24  1  0  0  0  0
 24 25  1  0  0  0  0
 24 27  1  0  0  0  0
 26 24  1  0  0  0  0
 28 31  1  0  0  0  0
 28 23  1  0  0  0  0
 29 28  1  0  0  0  0
 30 28  1  0  0  0  0
 32 33  1  0  0  0  0
 32 23  1  0  0  0  0
 32 34  1  0  0  0  0
 35 39  1  0  0  0  0
 35 32  1  0  0  0  0
 36 35  1  0  0  0  0
 37 38  1  0  0  0  0
 37 36  1  0  0  0  0
 38 39  1  0  0  0  0
 39 40  1  0  0  0  0
M  END
>  <minimizedAffinity>
-5.24368668

>  <minimizedRMSD>
1.26493967

$$$$
