
 OpenBabel03252514073D

 40 43  0  0  0  0  0  0  0  0999 V2000
   34.3780   30.1590   47.6230 C   0  0  0  0  0  0  0  0  0  0  0  0
   35.3940   29.9410   48.5800 C   0  0  0  0  0  0  0  0  0  0  0  0
   35.4020   28.7040   49.2350 C   0  0  0  0  0  0  0  0  0  0  0  0
   34.4480   27.7990   48.9150 N   0  0  0  0  0  0  0  0  0  0  0  0
   33.4890   28.0370   47.9940 C   0  0  0  0  0  0  0  0  0  0  0  0
   33.4550   29.2110   47.3520 N   0  0  0  0  0  0  0  0  0  0  0  0
   34.3490   31.0960   47.1120 H   0  0  0  0  0  0  0  0  0  0  0  0
   36.1850   28.5780   49.9490 H   0  0  0  0  0  0  0  0  0  0  0  0
   36.3310   30.9880   48.8030 N   0  0  0  0  0  0  0  0  0  0  0  0
   36.3630   31.7530   49.9180 C   0  0  0  0  0  0  0  0  0  0  0  0
   37.3740   32.6480   49.7970 N   0  0  0  0  0  0  0  0  0  0  0  0
   37.9530   32.4210   48.6040 C   0  0  0  0  0  0  0  0  0  0  0  0
   39.0110   33.0070   47.9470 C   0  0  0  0  0  0  0  0  0  0  0  0
   39.4020   32.5790   46.7280 N   0  0  0  0  0  0  0  0  0  0  0  0
   38.7670   31.5510   46.0980 C   0  0  0  0  0  0  0  0  0  0  0  0
   37.7360   30.9910   46.7560 N   0  0  0  0  0  0  0  0  0  0  0  0
   37.3120   31.3850   47.9730 C   0  0  0  0  0  0  0  0  0  0  0  0
   35.7460   31.7460   50.8090 H   0  0  0  0  0  0  0  0  0  0  0  0
   39.1050   31.2340   45.1210 H   0  0  0  0  0  0  0  0  0  0  0  0
   39.7120   34.0770   48.5440 N   0  0  0  0  0  0  0  0  0  0  0  0
   39.6990   34.3230   49.5460 H   0  0  0  0  0  0  0  0  0  0  0  0
   40.3270   34.7340   48.0020 H   0  0  0  0  0  0  0  0  0  0  0  0
   32.4770   27.0040   47.6830 C   0  0  0  0  0  0  0  0  0  0  0  0
   31.2610   27.1810   48.5950 C   0  0  0  0  0  0  0  0  0  0  0  0
   30.9420   26.1710   48.9250 H   0  0  0  0  0  0  0  0  0  0  0  0
   30.4160   27.6640   48.1040 H   0  0  0  0  0  0  0  0  0  0  0  0
   31.5500   27.7570   49.5170 H   0  0  0  0  0  0  0  0  0  0  0  0
   31.9160   27.2480   46.2680 C   0  0  0  0  0  0  0  0  0  0  0  0
   32.7390   27.2820   45.5340 H   0  0  0  0  0  0  0  0  0  0  0  0
   31.2330   26.3870   46.0940 H   0  0  0  0  0  0  0  0  0  0  0  0
   31.3090   28.1570   46.3380 H   0  0  0  0  0  0  0  0  0  0  0  0
   32.9640   25.6050   47.6890 C   0  0  0  0  0  0  0  0  0  0  0  0
   32.1560   24.9750   48.1310 H   0  0  0  0  0  0  0  0  0  0  0  0
   33.8660   25.4850   48.3560 H   0  0  0  0  0  0  0  0  0  0  0  0
   33.2460   25.1300   46.3750 N   0  0  0  0  0  0  0  0  0  0  0  0
   34.6000   24.9750   45.9900 C   0  0  0  0  0  2  0  0  0  0  0  0
   34.5760   24.0680   44.7400 C   0  0  0  0  0  2  0  0  0  0  0  0
   33.1610   23.5720   44.6790 C   0  0  0  0  0  2  0  0  0  0  0  0
   32.6120   23.8800   46.0610 C   0  0  0  0  0  3  0  0  0  0  0  0
   32.9270   23.0500   46.7240 H   0  0  0  0  0  0  0  0  0  0  0  0
  1  2  1  0  0  0  0
  2  9  1  0  0  0  0
  2  3  2  0  0  0  0
  3  8  1  0  0  0  0
  4  3  1  0  0  0  0
  5  4  2  0  0  0  0
  6  1  2  0  0  0  0
  6  5  1  0  0  0  0
  7  1  1  0  0  0  0
  9 10  1  0  0  0  0
 10 18  1  0  0  0  0
 11 10  2  0  0  0  0
 12 11  1  0  0  0  0
 13 20  1  0  0  0  0
 13 12  2  0  0  0  0
 14 13  1  0  0  0  0
 15 14  2  0  0  0  0
 15 16  1  0  0  0  0
 16 17  2  0  0  0  0
 17 12  1  0  0  0  0
 17  9  1  0  0  0  0
 19 15  1  0  0  0  0
 20 21  1  0  0  0  0
 22 20  1  0  0  0  0
 23 32  1  0  0  0  0
 23  5  1  0  0  0  0
 23 24  1  0  0  0  0
 24 25  1  0  0  0  0
 24 27  1  0  0  0  0
 26 24  1  0  0  0  0
 28 31  1  0  0  0  0
 28 23  1  0  0  0  0
 29 28  1  0  0  0  0
 30 28  1  0  0  0  0
 32 33  1  0  0  0  0
 32 34  1  0  0  0  0
 35 32  1  0  0  0  0
 36 35  1  0  0  0  0
 37 36  1  0  0  0  0
 38 37  1  0  0  0  0
 38 39  1  0  0  0  0
 39 35  1  0  0  0  0
 39 40  1  0  0  0  0
M  END
>  <minimizedAffinity>
-5.20097494

>  <minimizedRMSD>
1.24071062

$$$$
