
 OpenBabel03252512503D

 20 22  0  0  0  0  0  0  0  0999 V2000
   38.0900   31.9020   48.8510 C   0  0  0  0  0  0  0  0  0  0  0  0
   38.6130   33.1100   49.0850 N   0  0  0  0  0  0  0  0  0  0  0  0
   39.3490   33.4910   48.0920 O   0  0  0  0  0  0  0  0  0  0  0  0
   39.3200   32.5330   47.1850 C   0  0  0  0  0  0  0  0  0  0  0  0
   38.5450   31.5220   47.6200 N   0  0  0  0  0  0  0  0  0  0  0  0
   39.9770   32.5070   45.9310 N   0  0  0  0  0  0  0  0  0  0  0  0
   40.9680   31.5680   45.4130 C   0  0  0  0  0  0  0  0  0  0  0  0
   40.4380   31.2560   44.0290 C   0  0  0  0  0  0  0  0  0  0  0  0
   39.7910   32.5410   43.5730 C   0  0  0  0  0  0  0  0  0  0  0  0
   39.8290   33.4310   44.8130 C   0  0  0  0  0  0  0  0  0  0  0  0
   38.8810   34.0000   44.9380 H   0  0  0  0  0  0  0  0  0  0  0  0
   36.7030   29.6010   51.4790 C   0  0  0  0  0  0  0  0  0  0  0  0
   37.6260   30.4330   50.8240 C   0  0  0  0  0  0  0  0  0  0  0  0
   37.2050   31.0170   49.6180 C   0  0  0  0  0  0  0  0  0  0  0  0
   35.9470   30.7630   49.1390 N   0  0  0  0  0  0  0  0  0  0  0  0
   35.1050   29.9540   49.8140 C   0  0  0  0  0  0  0  0  0  0  0  0
   35.4770   29.3720   50.9820 N   0  0  0  0  0  0  0  0  0  0  0  0
   37.0050   29.1390   52.4120 H   0  0  0  0  0  0  0  0  0  0  0  0
   38.6200   30.6410   51.1910 H   0  0  0  0  0  0  0  0  0  0  0  0
   34.1590   29.8510   49.3160 H   0  0  0  0  0  0  0  0  0  0  0  0
  1  2  2  0  0  0  0
  1 14  1  0  0  0  0
  3  2  1  0  0  0  0
  4  5  2  0  0  0  0
  4  3  1  0  0  0  0
  5  1  1  0  0  0  0
  6  4  1  0  0  0  0
  7  6  1  0  0  0  0
  8  7  1  0  0  0  0
  9  8  1  0  0  0  0
  9 10  1  0  0  0  0
 10 11  1  0  0  0  0
 10  6  1  0  0  0  0
 12 18  1  0  0  0  0
 13 19  1  0  0  0  0
 13 12  2  0  0  0  0
 14 13  1  0  0  0  0
 15 14  2  0  0  0  0
 15 16  1  0  0  0  0
 16 17  2  0  0  0  0
 17 12  1  0  0  0  0
 20 16  1  0  0  0  0
M  END
>  <minimizedAffinity>
-5.98182583

>  <minimizedRMSD>
1.31498313

$$$$
