
 OpenBabel03252514073D

 40 43  0  0  0  0  0  0  0  0999 V2000
   34.2300   30.0560   47.5810 C   0  0  0  0  0  0  0  0  0  0  0  0
   35.2480   29.8100   48.5300 C   0  0  0  0  0  0  0  0  0  0  0  0
   35.2300   28.5710   49.1810 C   0  0  0  0  0  0  0  0  0  0  0  0
   34.2510   27.6910   48.8670 N   0  0  0  0  0  0  0  0  0  0  0  0
   33.2920   27.9550   47.9530 C   0  0  0  0  0  0  0  0  0  0  0  0
   33.2820   29.1310   47.3150 N   0  0  0  0  0  0  0  0  0  0  0  0
   34.2210   30.9950   47.0720 H   0  0  0  0  0  0  0  0  0  0  0  0
   36.0150   28.4240   49.8900 H   0  0  0  0  0  0  0  0  0  0  0  0
   36.2120   30.8320   48.7490 N   0  0  0  0  0  0  0  0  0  0  0  0
   36.3250   31.5350   49.8990 C   0  0  0  0  0  0  0  0  0  0  0  0
   37.3390   32.4240   49.7620 N   0  0  0  0  0  0  0  0  0  0  0  0
   37.8380   32.2570   48.5240 C   0  0  0  0  0  0  0  0  0  0  0  0
   38.8610   32.8660   47.8330 C   0  0  0  0  0  0  0  0  0  0  0  0
   39.1680   32.5020   46.5710 N   0  0  0  0  0  0  0  0  0  0  0  0
   38.4790   31.5170   45.9270 C   0  0  0  0  0  0  0  0  0  0  0  0
   37.4840   30.9330   46.6190 N   0  0  0  0  0  0  0  0  0  0  0  0
   37.1430   31.2640   47.8800 C   0  0  0  0  0  0  0  0  0  0  0  0
   35.7660   31.4860   50.8260 H   0  0  0  0  0  0  0  0  0  0  0  0
   38.7500   31.2500   44.9150 H   0  0  0  0  0  0  0  0  0  0  0  0
   39.6140   33.8940   48.4410 N   0  0  0  0  0  0  0  0  0  0  0  0
   39.6680   34.0850   49.4540 H   0  0  0  0  0  0  0  0  0  0  0  0
   40.2030   34.5730   47.8970 H   0  0  0  0  0  0  0  0  0  0  0  0
   32.2520   26.9480   47.6470 C   0  0  0  0  0  0  0  0  0  0  0  0
   31.0800   27.1040   48.6190 C   0  0  0  0  0  0  0  0  0  0  0  0
   30.7610   26.0850   48.9220 H   0  0  0  0  0  0  0  0  0  0  0  0
   30.2210   27.6170   48.1850 H   0  0  0  0  0  0  0  0  0  0  0  0
   31.4180   27.6390   49.5480 H   0  0  0  0  0  0  0  0  0  0  0  0
   31.6330   27.2560   46.2690 C   0  0  0  0  0  0  0  0  0  0  0  0
   32.4230   27.3090   45.5010 H   0  0  0  0  0  0  0  0  0  0  0  0
   30.9300   26.4110   46.0920 H   0  0  0  0  0  0  0  0  0  0  0  0
   31.0420   28.1690   46.4020 H   0  0  0  0  0  0  0  0  0  0  0  0
   32.7190   25.5440   47.5760 C   0  0  0  0  0  0  0  0  0  0  0  0
   31.8560   24.8940   47.8540 H   0  0  0  0  0  0  0  0  0  0  0  0
   33.5310   25.3410   48.3320 H   0  0  0  0  0  0  0  0  0  0  0  0
   33.1530   25.1890   46.2660 N   0  0  0  0  0  0  0  0  0  0  0  0
   34.5440   25.0740   46.0260 C   0  0  0  0  0  2  0  0  0  0  0  0
   34.6750   24.2820   44.7060 C   0  0  0  0  0  2  0  0  0  0  0  0
   33.2830   23.7890   44.4400 C   0  0  0  0  0  2  0  0  0  0  0  0
   32.5770   23.9710   45.7710 C   0  0  0  0  0  3  0  0  0  0  0  0
   32.8250   23.0860   46.3900 H   0  0  0  0  0  0  0  0  0  0  0  0
  1  2  1  0  0  0  0
  2  9  1  0  0  0  0
  2  3  2  0  0  0  0
  3  8  1  0  0  0  0
  4  3  1  0  0  0  0
  5  4  2  0  0  0  0
  6  1  2  0  0  0  0
  6  5  1  0  0  0  0
  7  1  1  0  0  0  0
  9 10  1  0  0  0  0
 10 18  1  0  0  0  0
 11 10  2  0  0  0  0
 12 11  1  0  0  0  0
 13 20  1  0  0  0  0
 13 12  2  0  0  0  0
 14 13  1  0  0  0  0
 15 14  2  0  0  0  0
 15 16  1  0  0  0  0
 16 17  2  0  0  0  0
 17 12  1  0  0  0  0
 17  9  1  0  0  0  0
 19 15  1  0  0  0  0
 20 21  1  0  0  0  0
 22 20  1  0  0  0  0
 23  5  1  0  0  0  0
 23 24  1  0  0  0  0
 24 25  1  0  0  0  0
 24 27  1  0  0  0  0
 26 24  1  0  0  0  0
 28 31  1  0  0  0  0
 28 23  1  0  0  0  0
 29 28  1  0  0  0  0
 30 28  1  0  0  0  0
 32 23  1  0  0  0  0
 32 33  1  0  0  0  0
 32 34  1  0  0  0  0
 35 32  1  0  0  0  0
 36 35  1  0  0  0  0
 37 36  1  0  0  0  0
 38 37  1  0  0  0  0
 38 39  1  0  0  0  0
 39 35  1  0  0  0  0
 39 40  1  0  0  0  0
M  END
>  <minimizedAffinity>
-5.2201252

>  <minimizedRMSD>
1.19866705

$$$$
