
 OpenBabel03252513593D

 26 27  0  0  1  0  0  0  0  0999 V2000
   35.2830   29.4420   49.0430 C   0  0  2  0  0  0  0  0  0  0  0  0
   34.1450   29.4380   49.9730 C   0  0  0  0  0  0  0  0  0  0  0  0
   34.5000   28.1580   49.3860 C   0  0  1  0  0  0  0  0  0  0  0  0
   35.2390   29.6880   47.9890 H   0  0  0  0  0  0  0  0  0  0  0  0
   34.4120   29.7180   51.0260 H   0  0  0  0  0  0  0  0  0  0  0  0
   33.2510   30.0270   49.6240 H   0  0  0  0  0  0  0  0  0  0  0  0
   35.1550   27.3830   49.7980 H   0  0  0  0  0  0  0  0  0  0  0  0
   36.6910   29.4230   49.6370 C   0  0  0  0  0  0  0  0  0  0  0  0
   37.1930   28.5430   49.1890 H   0  0  0  0  0  0  0  0  0  0  0  0
   36.6620   29.3100   50.7240 H   0  0  0  0  0  0  0  0  0  0  0  0
   37.9220   32.8680   49.4490 C   0  0  0  0  0  0  0  0  0  0  0  0
   38.6860   32.8690   48.2720 C   0  0  0  0  0  0  0  0  0  0  0  0
   38.7680   31.6660   47.5500 C   0  0  0  0  0  0  0  0  0  0  0  0
   38.0960   30.5580   48.0380 N   0  0  0  0  0  0  0  0  0  0  0  0
   37.3860   30.6260   49.1660 C   0  0  0  0  0  0  0  0  0  0  0  0
   37.3070   31.7770   49.8590 N   0  0  0  0  0  0  0  0  0  0  0  0
   37.9320   33.8430   49.9170 H   0  0  0  0  0  0  0  0  0  0  0  0
   39.2350   33.6980   47.8360 H   0  0  0  0  0  0  0  0  0  0  0  0
   39.3120   31.4990   46.6290 H   0  0  0  0  0  0  0  0  0  0  0  0
   33.5520   27.6420   48.3390 C   0  0  0  0  0  0  0  0  0  0  0  0
   33.9740   26.6040   47.6890 O   0  0  0  0  0  0  0  0  0  0  0  0
   32.3070   28.1750   48.0450 O   0  0  0  0  0  0  0  0  0  0  0  0
   31.1810   27.6210   48.7000 C   0  0  0  0  0  0  0  0  0  0  0  0
   31.0730   28.1460   49.9860 F   0  0  0  0  0  0  0  0  0  0  0  0
   30.0080   27.9180   48.0030 F   0  0  0  0  0  0  0  0  0  0  0  0
   31.2510   26.2350   48.7550 F   0  0  0  0  0  0  0  0  0  0  0  0
  1  4  1  6  0  0  0
  1  3  1  0  0  0  0
  1  8  1  0  0  0  0
  1  2  1  0  0  0  0
  2  5  1  0  0  0  0
  3  7  1  1  0  0  0
  3  2  1  0  0  0  0
  6  2  1  0  0  0  0
  8 10  1  0  0  0  0
  9  8  1  0  0  0  0
 11 16  1  0  0  0  0
 11 17  1  0  0  0  0
 12 11  2  0  0  0  0
 13 14  2  0  0  0  0
 13 12  1  0  0  0  0
 14 15  1  0  0  0  0
 15  8  1  0  0  0  0
 15 16  2  0  0  0  0
 18 12  1  0  0  0  0
 19 13  1  0  0  0  0
 20  3  1  0  0  0  0
 21 20  2  0  0  0  0
 22 20  1  0  0  0  0
 22 23  1  0  0  0  0
 23 26  1  0  0  0  0
 23 24  1  0  0  0  0
 25 23  1  0  0  0  0
M  END
>  <minimizedAffinity>
-5.06949806

>  <minimizedRMSD>
1.00907075

$$$$
