
 OpenBabel03252513593D

 26 27  0  0  1  0  0  0  0  0999 V2000
   35.3110   29.4210   49.0150 C   0  0  2  0  0  0  0  0  0  0  0  0
   34.1670   29.4460   49.9370 C   0  0  0  0  0  0  0  0  0  0  0  0
   34.5090   28.1520   49.3710 C   0  0  1  0  0  0  0  0  0  0  0  0
   35.2780   29.6520   47.9560 H   0  0  0  0  0  0  0  0  0  0  0  0
   34.4300   29.7380   50.9870 H   0  0  0  0  0  0  0  0  0  0  0  0
   33.2830   30.0410   49.5730 H   0  0  0  0  0  0  0  0  0  0  0  0
   35.1510   27.3760   49.7990 H   0  0  0  0  0  0  0  0  0  0  0  0
   36.7150   29.3930   49.6190 C   0  0  0  0  0  0  0  0  0  0  0  0
   37.2080   28.4980   49.1890 H   0  0  0  0  0  0  0  0  0  0  0  0
   36.6770   29.2980   50.7070 H   0  0  0  0  0  0  0  0  0  0  0  0
   38.0970   32.7810   49.4440 C   0  0  0  0  0  0  0  0  0  0  0  0
   38.7650   32.7880   48.2110 C   0  0  0  0  0  0  0  0  0  0  0  0
   38.7310   31.6100   47.4460 C   0  0  0  0  0  0  0  0  0  0  0  0
   38.0450   30.5180   47.9500 N   0  0  0  0  0  0  0  0  0  0  0  0
   37.4300   30.5780   49.1330 C   0  0  0  0  0  0  0  0  0  0  0  0
   37.4620   31.7060   49.8660 N   0  0  0  0  0  0  0  0  0  0  0  0
   38.1920   33.7370   49.9400 H   0  0  0  0  0  0  0  0  0  0  0  0
   39.3190   33.6060   47.7590 H   0  0  0  0  0  0  0  0  0  0  0  0
   39.1910   31.4500   46.4800 H   0  0  0  0  0  0  0  0  0  0  0  0
   33.5620   27.6330   48.3260 C   0  0  0  0  0  0  0  0  0  0  0  0
   33.9750   26.5800   47.6960 O   0  0  0  0  0  0  0  0  0  0  0  0
   32.3260   28.1780   48.0150 O   0  0  0  0  0  0  0  0  0  0  0  0
   31.1890   27.6530   48.6740 C   0  0  0  0  0  0  0  0  0  0  0  0
   30.0350   27.9780   47.9630 F   0  0  0  0  0  0  0  0  0  0  0  0
   31.2700   26.2620   48.7690 F   0  0  0  0  0  0  0  0  0  0  0  0
   31.0920   28.1210   49.9790 F   0  0  0  0  0  0  0  0  0  0  0  0
  1  4  1  6  0  0  0
  1  3  1  0  0  0  0
  1  8  1  0  0  0  0
  1  2  1  0  0  0  0
  2  5  1  0  0  0  0
  3  7  1  1  0  0  0
  3  2  1  0  0  0  0
  6  2  1  0  0  0  0
  8 10  1  0  0  0  0
  9  8  1  0  0  0  0
 11 16  1  0  0  0  0
 11 17  1  0  0  0  0
 12 11  2  0  0  0  0
 13 14  2  0  0  0  0
 13 12  1  0  0  0  0
 14 15  1  0  0  0  0
 15  8  1  0  0  0  0
 15 16  2  0  0  0  0
 18 12  1  0  0  0  0
 19 13  1  0  0  0  0
 20  3  1  0  0  0  0
 21 20  2  0  0  0  0
 22 20  1  0  0  0  0
 22 23  1  0  0  0  0
 23 25  1  0  0  0  0
 23 26  1  0  0  0  0
 24 23  1  0  0  0  0
M  END
>  <minimizedAffinity>
-5.05464125

>  <minimizedRMSD>
1.21512711

$$$$
