
 OpenBabel03252513413D

 14 14  0  0  0  0  0  0  0  0999 V2000
   37.9710   30.9340   49.2490 C   0  0  0  0  0  0  0  0  0  0  0  0
   38.3880   32.2560   49.5610 C   0  0  0  0  0  0  0  0  0  0  0  0
   38.8750   33.0480   48.5190 C   0  0  0  0  0  0  0  0  0  0  0  0
   38.9260   32.5160   47.2630 N   0  0  0  0  0  0  0  0  0  0  0  0
   38.5180   31.2590   47.0240 C   0  0  0  0  0  0  0  0  0  0  0  0
   38.0460   30.4680   47.9890 N   0  0  0  0  0  0  0  0  0  0  0  0
   38.3300   32.6400   50.5720 H   0  0  0  0  0  0  0  0  0  0  0  0
   39.2100   34.0680   48.6970 H   0  0  0  0  0  0  0  0  0  0  0  0
   38.5540   30.8220   46.0210 H   0  0  0  0  0  0  0  0  0  0  0  0
   37.4930   30.1630   50.2770 O   0  0  0  0  0  0  0  0  0  0  0  0
   36.1670   29.7520   50.4320 C   0  0  0  0  0  0  0  0  0  0  0  0
   35.8420   29.4210   51.7340 F   0  0  0  0  0  0  0  0  0  0  0  0
   35.2480   30.6300   49.9240 F   0  0  0  0  0  0  0  0  0  0  0  0
   36.0430   28.5780   49.6790 F   0  0  0  0  0  0  0  0  0  0  0  0
  1  2  1  0  0  0  0
  1 10  1  0  0  0  0
  2  7  1  0  0  0  0
  3  8  1  0  0  0  0
  3  2  2  0  0  0  0
  4  3  1  0  0  0  0
  5  4  2  0  0  0  0
  5  6  1  0  0  0  0
  6  1  2  0  0  0  0
  9  5  1  0  0  0  0
 10 11  1  0  0  0  0
 11 12  1  0  0  0  0
 13 11  1  0  0  0  0
 14 11  1  0  0  0  0
M  END
>  <minimizedAffinity>
-4.29469728

>  <minimizedRMSD>
3.10550261

$$$$
