
 OpenBabel03252514023D

 35 38  0  0  1  0  0  0  0  0999 V2000
   35.2930   29.2450   48.7300 C   0  0  2  0  0  0  0  0  0  0  0  0
   34.1070   29.2390   49.5790 C   0  0  0  0  0  0  0  0  0  0  0  0
   34.5120   27.9440   49.1190 C   0  0  1  0  0  0  0  0  0  0  0  0
   35.2380   29.5200   47.6760 H   0  0  0  0  0  0  0  0  0  0  0  0
   33.1470   29.7300   49.2390 H   0  0  0  0  0  0  0  0  0  0  0  0
   34.2670   29.5000   50.6660 H   0  0  0  0  0  0  0  0  0  0  0  0
   35.1260   27.2360   49.6710 H   0  0  0  0  0  0  0  0  0  0  0  0
   36.6480   29.2860   49.4520 C   0  0  0  0  0  0  0  0  0  0  0  0
   36.4870   29.2330   50.5430 H   0  0  0  0  0  0  0  0  0  0  0  0
   37.2400   28.3970   49.1720 H   0  0  0  0  0  0  0  0  0  0  0  0
   37.7180   32.7750   49.5430 C   0  0  0  0  0  0  0  0  0  0  0  0
   38.5540   32.8730   48.4080 C   0  0  0  0  0  0  0  0  0  0  0  0
   38.7300   31.7080   47.6250 C   0  0  0  0  0  0  0  0  0  0  0  0
   38.0870   30.5640   48.0090 N   0  0  0  0  0  0  0  0  0  0  0  0
   37.3070   30.5310   49.0950 C   0  0  0  0  0  0  0  0  0  0  0  0
   37.1300   31.6440   49.8560 N   0  0  0  0  0  0  0  0  0  0  0  0
   37.6390   33.7160   50.0880 H   0  0  0  0  0  0  0  0  0  0  0  0
   39.0390   33.7820   48.1390 H   0  0  0  0  0  0  0  0  0  0  0  0
   39.3640   31.7580   46.7510 H   0  0  0  0  0  0  0  0  0  0  0  0
   33.6530   27.3420   48.0250 C   0  0  0  0  0  0  0  0  0  0  0  0
   33.9210   26.1030   47.7860 O   0  0  0  0  0  0  0  0  0  0  0  0
   32.6530   27.9840   47.3080 O   0  0  0  0  0  0  0  0  0  0  0  0
   31.3600   28.1110   47.7450 C   0  0  0  0  0  0  0  0  0  0  0  0
   30.8410   27.6080   49.0400 C   0  0  0  0  0  0  0  0  0  0  0  0
   29.5390   27.8170   49.3220 C   0  0  0  0  0  0  0  0  0  0  0  0
   28.6910   28.4910   48.4270 C   0  0  0  0  0  0  0  0  0  0  0  0
   29.8050   28.9000   46.9990 S   0  0  0  0  0  0  0  0  0  0  0  0
   31.5470   27.1040   49.6710 H   0  0  0  0  0  0  0  0  0  0  0  0
   29.0980   27.4780   50.2430 H   0  0  0  0  0  0  0  0  0  0  0  0
   27.4170   28.8220   48.4560 N   0  0  0  0  0  0  0  0  0  0  0  0
   26.9620   30.1970   48.5110 C   0  0  0  0  0  0  0  0  0  0  0  0
   25.5100   30.1400   48.9370 C   0  0  0  0  0  0  0  0  0  0  0  0
   25.2410   28.7010   49.2870 C   0  0  0  0  0  0  0  0  0  0  0  0
   26.2520   27.9620   48.4400 C   0  0  0  0  0  0  0  0  0  0  0  0
   25.8520   27.9220   47.4020 H   0  0  0  0  0  0  0  0  0  0  0  0
  1  4  1  6  0  0  0
  1  3  1  0  0  0  0
  1  8  1  0  0  0  0
  1  2  1  0  0  0  0
  2  6  1  0  0  0  0
  3  2  1  0  0  0  0
  3  7  1  1  0  0  0
  5  2  1  0  0  0  0
  8  9  1  0  0  0  0
 10  8  1  0  0  0  0
 11 16  1  0  0  0  0
 11 17  1  0  0  0  0
 12 11  2  0  0  0  0
 13 14  2  0  0  0  0
 13 12  1  0  0  0  0
 14 15  1  0  0  0  0
 15  8  1  0  0  0  0
 15 16  2  0  0  0  0
 18 12  1  0  0  0  0
 19 13  1  0  0  0  0
 20  3  1  0  0  0  0
 21 20  2  0  0  0  0
 22 23  1  0  0  0  0
 22 20  1  0  0  0  0
 23 24  2  0  0  0  0
 24 25  1  0  0  0  0
 24 28  1  0  0  0  0
 25 29  1  0  0  0  0
 26 30  1  0  0  0  0
 26 25  2  0  0  0  0
 27 23  1  0  0  0  0
 27 26  1  0  0  0  0
 30 31  1  0  0  0  0
 31 32  1  0  0  0  0
 32 33  1  0  0  0  0
 34 30  1  0  0  0  0
 34 33  1  0  0  0  0
 35 34  1  0  0  0  0
M  END
>  <minimizedAffinity>
-6.31849194

>  <minimizedRMSD>
1.573403

$$$$
