
 OpenBabel03252513293D

 41 44  0  0  1  0  0  0  0  0999 V2000
   31.5790   26.5140   47.7730 C   0  0  0  0  0  0  0  0  0  0  0  0
   31.3320   25.3300   47.1790 C   0  0  0  0  0  0  0  0  0  0  0  0
   32.3320   24.4710   46.7450 C   0  0  0  0  0  0  0  0  0  0  0  0
   33.6300   24.8960   46.9540 C   0  0  0  0  0  0  0  0  0  0  0  0
   33.9010   26.1000   47.5580 C   0  0  0  0  0  0  0  0  0  0  0  0
   32.8800   26.9240   47.9750 C   0  0  0  0  0  0  0  0  0  0  0  0
   30.2810   25.0620   47.0480 H   0  0  0  0  0  0  0  0  0  0  0  0
   31.9890   23.5540   46.2850 H   0  0  0  0  0  0  0  0  0  0  0  0
   34.4000   24.2100   46.6070 H   0  0  0  0  0  0  0  0  0  0  0  0
   34.9370   26.3800   47.6960 H   0  0  0  0  0  0  0  0  0  0  0  0
   29.0650   28.2260   49.8560 C   0  0  0  0  0  0  0  0  0  0  0  0
   28.4400   29.0910   48.9200 C   0  0  0  0  0  0  0  0  0  0  0  0
   28.9070   29.0550   47.6020 C   0  0  0  0  0  0  0  0  0  0  0  0
   29.9330   28.1940   47.2840 N   0  0  0  0  0  0  0  0  0  0  0  0
   30.4930   27.3910   48.2170 C   0  0  0  0  0  0  0  0  0  0  0  0
   30.0530   27.4230   49.4710 N   0  0  0  0  0  0  0  0  0  0  0  0
   28.6860   28.2740   50.8680 H   0  0  0  0  0  0  0  0  0  0  0  0
   28.4680   29.6890   46.8530 H   0  0  0  0  0  0  0  0  0  0  0  0
   27.3360   30.0060   49.2920 C   0  0  0  0  0  0  0  0  0  0  0  0
   27.7160   30.9960   50.1540 F   0  0  0  0  0  0  0  0  0  0  0  0
   26.2830   29.3230   49.8740 F   0  0  0  0  0  0  0  0  0  0  0  0
   26.8460   30.6350   48.1310 F   0  0  0  0  0  0  0  0  0  0  0  0
   33.1270   28.2230   48.6280 C   0  0  0  0  0  0  0  0  0  0  0  0
   32.1410   28.7440   48.8000 H   0  0  0  0  0  0  0  0  0  0  0  0
   33.4900   27.9990   49.6450 H   0  0  0  0  0  0  0  0  0  0  0  0
   33.9500   29.1750   47.8350 C   0  0  0  0  0  0  0  0  0  0  0  0
   34.2480   28.6440   46.8860 H   0  0  0  0  0  0  0  0  0  0  0  0
   33.4010   30.1170   47.5760 H   0  0  0  0  0  0  0  0  0  0  0  0
   35.1840   29.5060   48.5470 C   0  0  0  0  0  0  0  0  0  0  0  0
   35.6360   28.8090   49.6540 C   0  0  0  0  0  0  0  0  0  0  0  0
   36.8190   29.3640   50.0940 C   0  0  0  0  0  0  0  0  0  0  0  0
   37.0520   30.4010   49.2200 N   0  0  0  0  0  0  0  0  0  0  0  0
   36.0920   30.4810   48.3150 N   0  0  0  0  0  0  0  0  0  0  0  0
   35.2770   27.9610   50.2210 H   0  0  0  0  0  0  0  0  0  0  0  0
   37.4900   29.1160   50.9260 H   0  0  0  0  0  0  0  0  0  0  0  0
   38.5990   30.6300   47.3670 H   0  0  0  0  0  0  0  0  0  0  0  0
   38.9630   31.2950   48.0650 N   0  0  0  0  0  0  0  0  0  0  0  0
   39.0790   32.6610   47.6160 C   0  0  0  0  0  0  0  0  0  0  0  0
   38.9090   33.4780   48.8760 C   0  0  0  0  0  0  0  0  0  0  0  0
   37.8420   32.7000   49.6090 C   0  0  0  0  0  0  0  0  0  0  0  0
   38.2150   31.2890   49.2990 C   0  0  1  0  0  0  0  0  0  0  0  0
  1  6  1  0  0  0  0
  1 15  1  0  0  0  0
  2  1  2  0  0  0  0
  3  4  2  0  0  0  0
  3  2  1  0  0  0  0
  4  5  1  0  0  0  0
  5 10  1  0  0  0  0
  5  6  2  0  0  0  0
  6 23  1  0  0  0  0
  7  2  1  0  0  0  0
  8  3  1  0  0  0  0
  9  4  1  0  0  0  0
 11 17  1  0  0  0  0
 12 19  1  0  0  0  0
 12 11  2  0  0  0  0
 13 12  1  0  0  0  0
 14 13  2  0  0  0  0
 14 15  1  0  0  0  0
 15 16  2  0  0  0  0
 16 11  1  0  0  0  0
 18 13  1  0  0  0  0
 19 21  1  0  0  0  0
 19 20  1  0  0  0  0
 22 19  1  0  0  0  0
 23 24  1  0  0  0  0
 23 25  1  0  0  0  0
 26 29  1  0  0  0  0
 26 23  1  0  0  0  0
 27 26  1  0  0  0  0
 28 26  1  0  0  0  0
 29 30  1  0  0  0  0
 30 31  2  0  0  0  0
 30 34  1  0  0  0  0
 31 35  1  0  0  0  0
 32 31  1  0  0  0  0
 33 29  2  0  0  0  0
 33 32  1  0  0  0  0
 36 37  1  0  0  0  0
 37 41  1  0  0  0  0
 38 37  1  0  0  0  0
 38 39  1  0  0  0  0
 39 40  1  0  0  0  0
 41 32  1  6  0  0  0
 41 40  1  0  0  0  0
M  END
>  <minimizedAffinity>
-7.33574772

>  <minimizedRMSD>
0.966196418

$$$$
