
 OpenBabel03252513473D

 24 24  0  0  0  0  0  0  0  0999 V2000
   36.5650   30.3440   47.9610 C   0  0  0  0  0  0  0  0  0  0  0  0
   36.8340   31.3890   48.8890 C   0  0  0  0  0  0  0  0  0  0  0  0
   37.9590   32.1970   48.6680 C   0  0  0  0  0  0  0  0  0  0  0  0
   38.7050   31.9200   47.5860 N   0  0  0  0  0  0  0  0  0  0  0  0
   38.4340   30.9330   46.7270 C   0  0  0  0  0  0  0  0  0  0  0  0
   37.3740   30.1630   46.9240 N   0  0  0  0  0  0  0  0  0  0  0  0
   36.2230   31.5820   49.7360 H   0  0  0  0  0  0  0  0  0  0  0  0
   38.2410   33.2290   49.5740 N   0  0  0  0  0  0  0  0  0  0  0  0
   39.3600   34.0670   49.3810 C   0  0  0  0  0  0  0  0  0  0  0  0
   39.7100   34.4340   48.2000 N   0  0  0  0  0  0  0  0  0  0  0  0
   40.1390   34.5370   50.4890 N   0  0  0  0  0  0  0  0  0  0  0  0
   37.6360   33.3960   50.4040 H   0  0  0  0  0  0  0  0  0  0  0  0
   39.2680   34.1940   47.3080 H   0  0  0  0  0  0  0  0  0  0  0  0
   41.1650   34.5890   50.6720 H   0  0  0  0  0  0  0  0  0  0  0  0
   39.5320   34.9060   51.2800 H   0  0  0  0  0  0  0  0  0  0  0  0
   39.3840   30.7890   45.5880 C   0  0  0  0  0  0  0  0  0  0  0  0
   39.2190   31.8330   44.6860 F   0  0  0  0  0  0  0  0  0  0  0  0
   40.6770   30.8610   46.0490 F   0  0  0  0  0  0  0  0  0  0  0  0
   39.2390   29.5690   44.9390 F   0  0  0  0  0  0  0  0  0  0  0  0
   35.4550   29.5580   48.1910 O   0  0  0  0  0  0  0  0  0  0  0  0
   35.2030   28.8420   49.3440 C   0  0  0  0  0  0  0  0  0  0  0  0
   36.3300   28.4730   50.0530 F   0  0  0  0  0  0  0  0  0  0  0  0
   34.2970   29.4520   50.1930 F   0  0  0  0  0  0  0  0  0  0  0  0
   34.5830   27.6570   48.9260 F   0  0  0  0  0  0  0  0  0  0  0  0
  1 20  1  0  0  0  0
  1  2  1  0  0  0  0
  2  7  1  0  0  0  0
  3  2  2  0  0  0  0
  3  8  1  0  0  0  0
  4  3  1  0  0  0  0
  5  6  1  0  0  0  0
  5  4  2  0  0  0  0
  6  1  2  0  0  0  0
  8 12  1  0  0  0  0
  9  8  1  0  0  0  0
  9 11  1  0  0  0  0
 10  9  2  0  0  0  0
 11 14  1  0  0  0  0
 11 15  1  0  0  0  0
 13 10  1  0  0  0  0
 16 18  1  0  0  0  0
 16  5  1  0  0  0  0
 17 16  1  0  0  0  0
 19 16  1  0  0  0  0
 20 21  1  0  0  0  0
 21 22  1  0  0  0  0
 21 23  1  0  0  0  0
 24 21  1  0  0  0  0
M  END
>  <minimizedAffinity>
-5.71479559

>  <minimizedRMSD>
1.22690916

$$$$
