
 OpenBabel03252513123D

 44 46  0  0  0  0  0  0  0  0999 V2000
   36.2350   31.3450   42.5610 C   0  0  0  0  0  0  0  0  0  0  0  0
   37.4200   31.0610   41.8860 C   0  0  0  0  0  0  0  0  0  0  0  0
   38.4910   30.6750   42.6500 C   0  0  0  0  0  0  0  0  0  0  0  0
   38.2910   30.6100   43.9580 N   0  0  0  0  0  0  0  0  0  0  0  0
   37.2310   30.8540   44.6580 C   0  0  0  0  0  0  0  0  0  0  0  0
   36.2070   31.2280   43.8920 N   0  0  0  0  0  0  0  0  0  0  0  0
   35.3360   31.6660   42.0200 H   0  0  0  0  0  0  0  0  0  0  0  0
   36.9080   30.8180   46.0620 C   0  0  0  0  0  0  0  0  0  0  0  0
   35.8720   30.0390   46.5890 C   0  0  0  0  0  0  0  0  0  0  0  0
   35.5370   29.9810   47.9060 C   0  0  0  0  0  0  0  0  0  0  0  0
   36.2410   30.7270   48.8210 C   0  0  0  0  0  0  0  0  0  0  0  0
   37.2460   31.4930   48.3730 C   0  0  0  0  0  0  0  0  0  0  0  0
   37.9510   32.2420   49.3040 C   0  0  0  0  0  0  0  0  0  0  0  0
   38.9870   33.0480   48.9350 C   0  0  0  0  0  0  0  0  0  0  0  0
   39.3250   33.1030   47.5920 C   0  0  0  0  0  0  0  0  0  0  0  0
   38.6010   32.3470   46.7070 C   0  0  0  0  0  0  0  0  0  0  0  0
   37.5800   31.5470   47.0410 C   0  0  0  0  0  0  0  0  0  0  0  0
   35.3000   29.4400   45.8910 H   0  0  0  0  0  0  0  0  0  0  0  0
   34.7170   29.3470   48.2190 H   0  0  0  0  0  0  0  0  0  0  0  0
   37.7440   32.2500   50.3640 H   0  0  0  0  0  0  0  0  0  0  0  0
   39.5620   33.6500   49.6470 H   0  0  0  0  0  0  0  0  0  0  0  0
   40.1450   33.7370   47.2800 H   0  0  0  0  0  0  0  0  0  0  0  0
   38.9000   32.4190   45.6580 H   0  0  0  0  0  0  0  0  0  0  0  0
   35.8880   30.6570   50.1550 O   0  0  0  0  0  0  0  0  0  0  0  0
   36.4060   29.6420   50.9810 C   0  0  0  0  0  0  0  0  0  0  0  0
   37.2270   28.7370   50.3660 F   0  0  0  0  0  0  0  0  0  0  0  0
   37.1950   30.2530   51.9550 F   0  0  0  0  0  0  0  0  0  0  0  0
   35.3140   28.9890   51.5550 F   0  0  0  0  0  0  0  0  0  0  0  0
   39.7630   30.3390   42.1300 N   0  0  0  0  0  0  0  0  0  0  0  0
   40.8580   29.9650   42.9450 C   0  0  0  0  0  0  0  0  0  0  0  0
   41.0230   30.6050   44.0620 N   0  0  0  0  0  0  0  0  0  0  0  0
   41.7340   28.9290   42.5550 N   0  0  0  0  0  0  0  0  0  0  0  0
   41.7390   30.4400   44.7600 H   0  0  0  0  0  0  0  0  0  0  0  0
   40.0000   30.3350   41.0890 H   0  0  0  0  0  0  0  0  0  0  0  0
   41.4110   27.9400   42.3770 H   0  0  0  0  0  0  0  0  0  0  0  0
   42.7770   29.0600   42.4080 H   0  0  0  0  0  0  0  0  0  0  0  0
   37.5430   31.1690   40.4990 N   0  0  0  0  0  0  0  0  0  0  0  0
   38.5460   31.9400   39.8360 C   0  0  0  0  0  0  0  0  0  0  0  0
   38.7120   33.1460   40.3280 N   0  0  0  0  0  0  0  0  0  0  0  0
   39.2760   31.3770   38.7250 N   0  0  0  0  0  0  0  0  0  0  0  0
   36.8750   30.6590   39.8540 H   0  0  0  0  0  0  0  0  0  0  0  0
   39.4230   33.7430   39.8860 H   0  0  0  0  0  0  0  0  0  0  0  0
   40.2740   31.7410   38.7230 H   0  0  0  0  0  0  0  0  0  0  0  0
   38.7380   30.7250   38.1130 H   0  0  0  0  0  0  0  0  0  0  0  0
  1  6  1  0  0  0  0
  2  1  2  0  0  0  0
  2  3  1  0  0  0  0
  3  4  2  0  0  0  0
  4  5  1  0  0  0  0
  5  8  1  0  0  0  0
  6  5  2  0  0  0  0
  7  1  1  0  0  0  0
  8  9  2  0  0  0  0
  8 17  1  0  0  0  0
  9 10  1  0  0  0  0
 10 19  1  0  0  0  0
 10 11  2  0  0  0  0
 11 24  1  0  0  0  0
 12 11  1  0  0  0  0
 12 13  1  0  0  0  0
 13 20  1  0  0  0  0
 14 13  2  0  0  0  0
 14 21  1  0  0  0  0
 15 14  1  0  0  0  0
 16 17  1  0  0  0  0
 16 15  2  0  0  0  0
 17 12  2  0  0  0  0
 18  9  1  0  0  0  0
 22 15  1  0  0  0  0
 23 16  1  0  0  0  0
 24 25  1  0  0  0  0
 25 28  1  0  0  0  0
 25 27  1  0  0  0  0
 26 25  1  0  0  0  0
 29  3  1  0  0  0  0
 29 30  1  0  0  0  0
 30 31  2  0  0  0  0
 31 33  1  0  0  0  0
 32 30  1  0  0  0  0
 34 29  1  0  0  0  0
 35 32  1  0  0  0  0
 36 32  1  0  0  0  0
 37  2  1  0  0  0  0
 38 39  2  0  0  0  0
 38 37  1  0  0  0  0
 40 38  1  0  0  0  0
 41 37  1  0  0  0  0
 42 39  1  0  0  0  0
 43 40  1  0  0  0  0
 44 40  1  0  0  0  0
M  END
>  <minimizedAffinity>
-7.45378351

>  <minimizedRMSD>
0.64528352

$$$$
