
 OpenBabel03252514073D

 42 44  0  0  0  0  0  0  0  0999 V2000
   29.2930   30.9970   44.7070 C   0  0  0  0  0  0  0  0  0  0  0  0
   30.6690   31.1470   45.0000 C   0  0  0  0  0  0  0  0  0  0  0  0
   31.2160   30.1790   45.8200 C   0  0  0  0  0  0  0  0  0  0  0  0
   30.4420   29.1710   46.2860 N   0  0  0  0  0  0  0  0  0  0  0  0
   29.1430   29.0500   45.9970 C   0  0  0  0  0  0  0  0  0  0  0  0
   28.5740   29.9790   45.1970 N   0  0  0  0  0  0  0  0  0  0  0  0
   28.7470   31.7060   44.0660 H   0  0  0  0  0  0  0  0  0  0  0  0
   32.2600   30.3020   46.0350 H   0  0  0  0  0  0  0  0  0  0  0  0
   31.3460   32.2520   44.4420 N   0  0  0  0  0  0  0  0  0  0  0  0
   30.8890   33.5360   44.5250 C   0  0  0  0  0  0  0  0  0  0  0  0
   31.7660   34.3450   43.8920 N   0  0  0  0  0  0  0  0  0  0  0  0
   32.7580   33.5560   43.4240 C   0  0  0  0  0  0  0  0  0  0  0  0
   33.9080   33.8110   42.7090 C   0  0  0  0  0  0  0  0  0  0  0  0
   34.7440   32.8100   42.3640 N   0  0  0  0  0  0  0  0  0  0  0  0
   34.4860   31.5280   42.7020 C   0  0  0  0  0  0  0  0  0  0  0  0
   33.3620   31.2910   43.3970 N   0  0  0  0  0  0  0  0  0  0  0  0
   32.5030   32.2380   43.7650 C   0  0  0  0  0  0  0  0  0  0  0  0
   30.0020   33.9480   44.9860 H   0  0  0  0  0  0  0  0  0  0  0  0
   35.1620   30.7280   42.4200 H   0  0  0  0  0  0  0  0  0  0  0  0
   34.2200   35.1330   42.3350 N   0  0  0  0  0  0  0  0  0  0  0  0
   33.4610   35.8730   42.2400 H   0  0  0  0  0  0  0  0  0  0  0  0
   35.1980   35.4520   42.1330 H   0  0  0  0  0  0  0  0  0  0  0  0
   28.3110   27.9430   46.5190 C   0  0  0  0  0  0  0  0  0  0  0  0
   26.8490   28.3550   46.5040 C   0  0  0  0  0  0  0  0  0  0  0  0
   26.6950   29.3420   46.9810 H   0  0  0  0  0  0  0  0  0  0  0  0
   26.1890   27.5540   46.8520 H   0  0  0  0  0  0  0  0  0  0  0  0
   26.5390   28.5280   45.4280 H   0  0  0  0  0  0  0  0  0  0  0  0
   28.3820   26.7430   45.5560 C   0  0  0  0  0  0  0  0  0  0  0  0
   27.4590   26.1290   45.6270 H   0  0  0  0  0  0  0  0  0  0  0  0
   28.3760   27.2240   44.5440 H   0  0  0  0  0  0  0  0  0  0  0  0
   29.2770   26.1360   45.7240 H   0  0  0  0  0  0  0  0  0  0  0  0
   28.7660   27.4220   47.8370 C   0  0  0  0  0  0  0  0  0  0  0  0
   29.1020   26.3550   47.6540 H   0  0  0  0  0  0  0  0  0  0  0  0
   29.6880   27.9430   48.1860 H   0  0  0  0  0  0  0  0  0  0  0  0
   27.7560   27.3770   48.8660 N   0  0  0  0  0  0  0  0  0  0  0  0
   27.9710   27.3900   50.2660 C   0  0  0  0  0  0  0  0  0  0  0  0
   29.0450   28.0270   50.6390 N   0  0  0  0  0  0  0  0  0  0  0  0
   27.1060   26.7790   51.2130 N   0  0  0  0  0  0  0  0  0  0  0  0
   26.7450   27.3260   48.5360 H   0  0  0  0  0  0  0  0  0  0  0  0
   29.3160   28.1120   51.6350 H   0  0  0  0  0  0  0  0  0  0  0  0
   26.8880   27.4580   51.9970 H   0  0  0  0  0  0  0  0  0  0  0  0
   26.6560   25.8520   51.3070 H   0  0  0  0  0  0  0  0  0  0  0  0
  1  2  2  0  0  0  0
  1  6  1  0  0  0  0
  2  3  1  0  0  0  0
  3  8  1  0  0  0  0
  3  4  2  0  0  0  0
  5  4  1  0  0  0  0
  5 23  1  0  0  0  0
  6  5  2  0  0  0  0
  7  1  1  0  0  0  0
  9 10  1  0  0  0  0
  9  2  1  0  0  0  0
 10 18  1  0  0  0  0
 11 10  2  0  0  0  0
 12 17  1  0  0  0  0
 12 11  1  0  0  0  0
 13 12  2  0  0  0  0
 14 15  2  0  0  0  0
 14 13  1  0  0  0  0
 15 16  1  0  0  0  0
 16 17  2  0  0  0  0
 17  9  1  0  0  0  0
 19 15  1  0  0  0  0
 20 13  1  0  0  0  0
 21 20  1  0  0  0  0
 22 20  1  0  0  0  0
 23 32  1  0  0  0  0
 24 23  1  0  0  0  0
 24 26  1  0  0  0  0
 24 25  1  0  0  0  0
 27 24  1  0  0  0  0
 28 29  1  0  0  0  0
 28 31  1  0  0  0  0
 28 23  1  0  0  0  0
 30 28  1  0  0  0  0
 32 34  1  0  0  0  0
 32 35  1  0  0  0  0
 33 32  1  0  0  0  0
 35 36  1  0  0  0  0
 36 37  2  0  0  0  0
 36 38  1  0  0  0  0
 37 40  1  0  0  0  0
 38 42  1  0  0  0  0
 38 41  1  0  0  0  0
 39 35  1  0  0  0  0
M  END
>  <minimizedAffinity>
-4.82570601

>  <minimizedRMSD>
6.52107239

$$$$
