
 OpenBabel03252514053D

 30 32  0  0  0  0  0  0  0  0999 V2000
   36.4170   30.3310   45.7880 C   0  0  0  0  0  0  0  0  0  0  0  0
   37.3920   31.3030   46.0350 C   0  0  0  0  0  0  0  0  0  0  0  0
   37.7460   31.5050   47.3680 C   0  0  0  0  0  0  0  0  0  0  0  0
   37.1490   30.7720   48.3430 N   0  0  0  0  0  0  0  0  0  0  0  0
   36.2060   29.8370   48.0630 C   0  0  0  0  0  0  0  0  0  0  0  0
   35.8570   29.6330   46.7900 N   0  0  0  0  0  0  0  0  0  0  0  0
   36.0980   30.1270   44.7670 H   0  0  0  0  0  0  0  0  0  0  0  0
   38.4890   32.2470   47.5420 H   0  0  0  0  0  0  0  0  0  0  0  0
   35.6050   29.0910   49.1170 N   0  0  0  0  0  0  0  0  0  0  0  0
   34.8850   29.7520   50.1510 C   0  0  0  0  0  0  0  0  0  0  0  0
   34.2500   30.8380   49.8630 N   0  0  0  0  0  0  0  0  0  0  0  0
   34.8840   29.1990   51.4620 N   0  0  0  0  0  0  0  0  0  0  0  0
   35.6960   28.0520   49.1270 H   0  0  0  0  0  0  0  0  0  0  0  0
   33.7040   31.3660   50.5770 H   0  0  0  0  0  0  0  0  0  0  0  0
   34.6330   28.6970   52.3240 H   0  0  0  0  0  0  0  0  0  0  0  0
   35.6080   29.2780   52.2300 H   0  0  0  0  0  0  0  0  0  0  0  0
   37.9450   32.0060   44.9320 N   0  0  0  0  0  0  0  0  0  0  0  0
   39.1870   32.5340   44.9160 C   0  0  0  0  0  0  0  0  0  0  0  0
   39.3890   33.1310   43.7160 N   0  0  0  0  0  0  0  0  0  0  0  0
   38.2760   32.9660   43.0100 C   0  0  0  0  0  0  0  0  0  0  0  0
   37.8820   33.3430   41.7420 C   0  0  0  0  0  0  0  0  0  0  0  0
   36.6680   33.0390   41.2620 N   0  0  0  0  0  0  0  0  0  0  0  0
   35.7550   32.3410   41.9990 C   0  0  0  0  0  0  0  0  0  0  0  0
   36.1390   31.9740   43.2340 N   0  0  0  0  0  0  0  0  0  0  0  0
   37.3430   32.2590   43.7490 C   0  0  0  0  0  0  0  0  0  0  0  0
   38.7510   34.0630   40.9100 N   0  0  0  0  0  0  0  0  0  0  0  0
   39.9140   32.4890   45.7340 H   0  0  0  0  0  0  0  0  0  0  0  0
   34.7950   32.1290   41.5520 H   0  0  0  0  0  0  0  0  0  0  0  0
   39.1970   33.7450   40.0090 H   0  0  0  0  0  0  0  0  0  0  0  0
   38.9760   35.0420   41.2390 H   0  0  0  0  0  0  0  0  0  0  0  0
  1  2  2  0  0  0  0
  1  6  1  0  0  0  0
  2  3  1  0  0  0  0
  3  8  1  0  0  0  0
  3  4  2  0  0  0  0
  5  4  1  0  0  0  0
  5  9  1  0  0  0  0
  6  5  2  0  0  0  0
  7  1  1  0  0  0  0
  9 13  1  0  0  0  0
  9 10  1  0  0  0  0
 10 12  1  0  0  0  0
 11 10  2  0  0  0  0
 11 14  1  0  0  0  0
 12 16  1  0  0  0  0
 12 15  1  0  0  0  0
 17  2  1  0  0  0  0
 18 17  1  0  0  0  0
 18 27  1  0  0  0  0
 19 18  2  0  0  0  0
 20 19  1  0  0  0  0
 20 25  1  0  0  0  0
 21 20  2  0  0  0  0
 22 21  1  0  0  0  0
 22 23  2  0  0  0  0
 23 24  1  0  0  0  0
 24 25  2  0  0  0  0
 25 17  1  0  0  0  0
 26 30  1  0  0  0  0
 26 21  1  0  0  0  0
 28 23  1  0  0  0  0
 29 26  1  0  0  0  0
M  END
>  <minimizedAffinity>
-4.26185036

>  <minimizedRMSD>
4.19483852

$$$$
