
 OpenBabel03252514063D

 30 32  0  0  0  0  0  0  0  0999 V2000
   36.4940   30.6230   46.2850 C   0  0  0  0  0  0  0  0  0  0  0  0
   37.7280   31.2740   46.3820 C   0  0  0  0  0  0  0  0  0  0  0  0
   38.4040   31.1470   47.5950 C   0  0  0  0  0  0  0  0  0  0  0  0
   37.8540   30.4200   48.6010 N   0  0  0  0  0  0  0  0  0  0  0  0
   36.6540   29.8020   48.4680 C   0  0  0  0  0  0  0  0  0  0  0  0
   35.9940   29.9150   47.3120 N   0  0  0  0  0  0  0  0  0  0  0  0
   35.9170   30.6850   45.3630 H   0  0  0  0  0  0  0  0  0  0  0  0
   39.3420   31.6470   47.6550 H   0  0  0  0  0  0  0  0  0  0  0  0
   36.1140   29.0500   49.5490 N   0  0  0  0  0  0  0  0  0  0  0  0
   35.0410   29.5680   50.3270 C   0  0  0  0  0  0  0  0  0  0  0  0
   34.1760   30.3350   49.7520 N   0  0  0  0  0  0  0  0  0  0  0  0
   34.9530   29.2290   51.7060 N   0  0  0  0  0  0  0  0  0  0  0  0
   36.5110   28.1090   49.7690 H   0  0  0  0  0  0  0  0  0  0  0  0
   33.3700   30.7450   50.2690 H   0  0  0  0  0  0  0  0  0  0  0  0
   34.7030   28.7930   52.6040 H   0  0  0  0  0  0  0  0  0  0  0  0
   35.4570   29.6440   52.5400 H   0  0  0  0  0  0  0  0  0  0  0  0
   38.2000   32.0070   45.2610 N   0  0  0  0  0  0  0  0  0  0  0  0
   39.3400   32.7300   45.2550 C   0  0  0  0  0  0  0  0  0  0  0  0
   39.4880   33.2960   44.0320 N   0  0  0  0  0  0  0  0  0  0  0  0
   38.4440   32.9180   43.3030 C   0  0  0  0  0  0  0  0  0  0  0  0
   38.0420   33.1650   42.0060 C   0  0  0  0  0  0  0  0  0  0  0  0
   36.9120   32.6440   41.5060 N   0  0  0  0  0  0  0  0  0  0  0  0
   36.0980   31.8400   42.2510 C   0  0  0  0  0  0  0  0  0  0  0  0
   36.4900   31.5990   43.5150 N   0  0  0  0  0  0  0  0  0  0  0  0
   37.6110   32.1020   44.0490 C   0  0  0  0  0  0  0  0  0  0  0  0
   38.8130   33.9790   41.1640 N   0  0  0  0  0  0  0  0  0  0  0  0
   40.0330   32.8430   46.0950 H   0  0  0  0  0  0  0  0  0  0  0  0
   35.2040   31.4530   41.7870 H   0  0  0  0  0  0  0  0  0  0  0  0
   39.3390   33.6970   40.2940 H   0  0  0  0  0  0  0  0  0  0  0  0
   38.8640   34.9950   41.4480 H   0  0  0  0  0  0  0  0  0  0  0  0
  1  2  2  0  0  0  0
  1  6  1  0  0  0  0
  2  3  1  0  0  0  0
  3  8  1  0  0  0  0
  3  4  2  0  0  0  0
  5  4  1  0  0  0  0
  5  9  1  0  0  0  0
  6  5  2  0  0  0  0
  7  1  1  0  0  0  0
  9 13  1  0  0  0  0
  9 10  1  0  0  0  0
 10 12  1  0  0  0  0
 11 14  1  0  0  0  0
 11 10  2  0  0  0  0
 12 16  1  0  0  0  0
 12 15  1  0  0  0  0
 17  2  1  0  0  0  0
 18 17  1  0  0  0  0
 18 27  1  0  0  0  0
 19 18  2  0  0  0  0
 20 19  1  0  0  0  0
 20 25  1  0  0  0  0
 21 20  2  0  0  0  0
 22 21  1  0  0  0  0
 22 23  2  0  0  0  0
 23 24  1  0  0  0  0
 24 25  2  0  0  0  0
 25 17  1  0  0  0  0
 26 30  1  0  0  0  0
 26 21  1  0  0  0  0
 28 23  1  0  0  0  0
 29 26  1  0  0  0  0
M  END
>  <minimizedAffinity>
-5.08057165

>  <minimizedRMSD>
3.83879566

$$$$
