
 OpenBabel03252513493D

 30 32  0  0  1  0  0  0  0  0999 V2000
   33.9510   29.6920   46.5490 C   0  0  0  0  0  0  0  0  0  0  0  0
   35.3860   29.8870   46.4440 C   0  0  0  0  0  0  0  0  0  0  0  0
   35.8900   30.3850   45.2530 C   0  0  0  0  0  0  0  0  0  0  0  0
   34.9860   30.6490   44.2630 N   0  0  0  0  0  0  0  0  0  0  0  0
   33.6780   30.4610   44.3890 C   0  0  0  0  0  0  0  0  0  0  0  0
   33.1650   29.9870   45.5180 N   0  0  0  0  0  0  0  0  0  0  0  0
   36.0060   29.6490   47.2720 H   0  0  0  0  0  0  0  0  0  0  0  0
   32.8800   30.8340   43.2030 C   0  0  0  0  0  0  0  0  0  0  0  0
   33.7230   31.0870   42.1010 F   0  0  0  0  0  0  0  0  0  0  0  0
   32.0680   29.8050   42.8440 F   0  0  0  0  0  0  0  0  0  0  0  0
   32.0530   31.9390   43.4420 F   0  0  0  0  0  0  0  0  0  0  0  0
   37.3140   30.6220   45.1650 C   0  0  1  0  0  0  0  0  0  0  0  0
   38.0200   29.7670   44.5130 O   0  0  0  0  0  0  0  0  0  0  0  0
   38.2240   31.6430   45.6490 C   0  0  0  0  0  0  0  0  0  0  0  0
   39.0650   32.2240   44.7620 N   0  0  0  0  0  0  0  0  0  0  0  0
   39.9570   33.1940   45.1310 C   0  0  0  0  0  0  0  0  0  0  0  0
   40.0520   33.6290   46.4000 N   0  0  0  0  0  0  0  0  0  0  0  0
   39.2550   33.1020   47.3330 C   0  0  0  0  0  0  0  0  0  0  0  0
   39.3300   33.4980   48.6460 C   0  0  0  0  0  0  0  0  0  0  0  0
   38.5260   32.9420   49.6370 C   0  0  0  0  0  0  0  0  0  0  0  0
   38.6390   33.3000   50.6400 H   0  0  0  0  0  0  0  0  0  0  0  0
   37.6280   31.9510   49.2340 C   0  0  0  0  0  0  0  0  0  0  0  0
   37.0070   31.5220   50.0060 H   0  0  0  0  0  0  0  0  0  0  0  0
   37.5900   31.5900   47.9070 C   0  0  0  0  0  0  0  0  0  0  0  0
   38.3730   32.1310   46.9250 C   0  0  0  0  0  0  0  0  0  0  0  0
   33.4460   29.1970   47.7330 O   0  0  0  0  0  0  0  0  0  0  0  0
   33.6700   27.9200   48.2230 C   0  0  0  0  0  0  0  0  0  0  0  0
   34.7670   27.8390   49.0770 F   0  0  0  0  0  0  0  0  0  0  0  0
   32.5700   27.3370   48.8040 F   0  0  0  0  0  0  0  0  0  0  0  0
   33.9930   27.1460   47.0980 F   0  0  0  0  0  0  0  0  0  0  0  0
  1 26  1  0  0  0  0
  2  1  1  0  0  0  0
  2  7  1  0  0  0  0
  3  2  2  0  0  0  0
  4  5  2  0  0  0  0
  4  3  1  0  0  0  0
  5  6  1  0  0  0  0
  6  1  2  0  0  0  0
  8 11  1  0  0  0  0
  8  5  1  0  0  0  0
  9  8  1  0  0  0  0
 10  8  1  0  0  0  0
 12 13  1  6  0  0  0
 12  3  1  0  0  0  0
 12 14  1  0  0  0  0
 14 25  1  0  0  0  0
 15 16  1  0  0  0  0
 15 14  2  0  0  0  0
 16 17  2  0  0  0  0
 17 18  1  0  0  0  0
 18 19  1  0  0  0  0
 19 20  2  0  0  0  0
 20 21  1  0  0  0  0
 22 20  1  0  0  0  0
 22 23  1  0  0  0  0
 24 22  2  0  0  0  0
 25 18  2  0  0  0  0
 25 24  1  0  0  0  0
 26 27  1  0  0  0  0
 27 29  1  0  0  0  0
 27 28  1  0  0  0  0
 30 27  1  0  0  0  0
M  END
>  <minimizedAffinity>
-5.52344275

>  <minimizedRMSD>
5.11926079

$$$$
