
 OpenBabel03252513593D

 25 26  0  0  1  0  0  0  0  0999 V2000
   35.4720   29.5080   49.1250 C   0  0  2  0  0  0  0  0  0  0  0  0
   34.4650   29.5310   50.1960 C   0  0  0  0  0  0  0  0  0  0  0  0
   34.7030   28.2440   49.5590 C   0  0  1  0  0  0  0  0  0  0  0  0
   35.3000   29.7690   48.0780 H   0  0  0  0  0  0  0  0  0  0  0  0
   34.8040   29.7650   51.2310 H   0  0  0  0  0  0  0  0  0  0  0  0
   33.5270   30.1160   49.9660 H   0  0  0  0  0  0  0  0  0  0  0  0
   35.3960   27.4670   49.8950 H   0  0  0  0  0  0  0  0  0  0  0  0
   36.9430   29.4520   49.5360 C   0  0  0  0  0  0  0  0  0  0  0  0
   36.9650   29.4030   50.6390 H   0  0  0  0  0  0  0  0  0  0  0  0
   37.4220   28.5440   49.0940 H   0  0  0  0  0  0  0  0  0  0  0  0
   38.0710   32.9370   49.3820 C   0  0  0  0  0  0  0  0  0  0  0  0
   38.7770   32.9810   48.1710 C   0  0  0  0  0  0  0  0  0  0  0  0
   38.8610   31.8010   47.4120 C   0  0  0  0  0  0  0  0  0  0  0  0
   38.2460   30.6730   47.9000 N   0  0  0  0  0  0  0  0  0  0  0  0
   37.5840   30.6790   49.0590 C   0  0  0  0  0  0  0  0  0  0  0  0
   37.5040   31.8170   49.7890 N   0  0  0  0  0  0  0  0  0  0  0  0
   37.9540   33.7870   50.0270 H   0  0  0  0  0  0  0  0  0  0  0  0
   39.2230   33.9070   47.8730 H   0  0  0  0  0  0  0  0  0  0  0  0
   39.3990   31.8140   46.4790 H   0  0  0  0  0  0  0  0  0  0  0  0
   33.6070   27.7670   48.6480 C   0  0  0  0  0  0  0  0  0  0  0  0
   34.0000   26.9510   47.7220 O   0  0  0  0  0  0  0  0  0  0  0  0
   32.2680   28.1130   48.7330 O   0  0  0  0  0  0  0  0  0  0  0  0
   31.2140   27.3020   48.3200 C   0  0  0  0  0  3  0  0  0  0  0  0
   30.5840   27.9540   47.0890 C   0  0  0  0  0  1  0  0  0  0  0  0
   30.1580   27.3470   49.4060 C   0  0  0  0  0  1  0  0  0  0  0  0
  1  4  1  6  0  0  0
  1  8  1  0  0  0  0
  1  3  1  0  0  0  0
  1  2  1  0  0  0  0
  2  5  1  0  0  0  0
  3  7  1  1  0  0  0
  3  2  1  0  0  0  0
  6  2  1  0  0  0  0
  8  9  1  0  0  0  0
 10  8  1  0  0  0  0
 11 16  1  0  0  0  0
 11 17  1  0  0  0  0
 12 11  2  0  0  0  0
 13 14  2  0  0  0  0
 13 12  1  0  0  0  0
 14 15  1  0  0  0  0
 15  8  1  0  0  0  0
 15 16  2  0  0  0  0
 18 12  1  0  0  0  0
 19 13  1  0  0  0  0
 20 22  1  0  0  0  0
 20  3  1  0  0  0  0
 21 20  2  0  0  0  0
 23 22  1  0  0  0  0
 23 25  1  0  0  0  0
 24 23  1  0  0  0  0
M  END
>  <minimizedAffinity>
-4.7712388

>  <minimizedRMSD>
0.690094829

$$$$
