
 OpenBabel03252513253D

 36 37  0  0  0  0  0  0  0  0999 V2000
   32.8600   27.8230   48.5570 C   0  0  0  0  0  0  0  0  0  0  0  0
   31.7440   28.2080   49.2250 C   0  0  0  0  0  0  0  0  0  0  0  0
   30.5230   27.5700   49.1590 C   0  0  0  0  0  0  0  0  0  0  0  0
   30.4730   26.4560   48.3390 C   0  0  0  0  0  0  0  0  0  0  0  0
   31.5760   26.0350   47.6490 C   0  0  0  0  0  0  0  0  0  0  0  0
   32.7850   26.7010   47.7390 C   0  0  0  0  0  0  0  0  0  0  0  0
   31.8460   29.0940   49.8570 H   0  0  0  0  0  0  0  0  0  0  0  0
   29.6640   27.8970   49.6960 H   0  0  0  0  0  0  0  0  0  0  0  0
   29.5080   25.9580   48.2910 H   0  0  0  0  0  0  0  0  0  0  0  0
   31.4410   25.1580   47.0360 H   0  0  0  0  0  0  0  0  0  0  0  0
   36.1750   28.9580   49.6510 C   0  0  0  0  0  0  0  0  0  0  0  0
   36.4660   29.9690   48.7260 C   0  0  0  0  0  0  0  0  0  0  0  0
   35.5120   30.2320   47.7510 C   0  0  0  0  0  0  0  0  0  0  0  0
   34.3470   29.5030   47.7350 N   0  0  0  0  0  0  0  0  0  0  0  0
   34.1190   28.5320   48.6590 C   0  0  0  0  0  0  0  0  0  0  0  0
   35.0240   28.2800   49.5890 N   0  0  0  0  0  0  0  0  0  0  0  0
   36.9220   28.7570   50.4100 H   0  0  0  0  0  0  0  0  0  0  0  0
   35.6970   30.9960   47.0270 H   0  0  0  0  0  0  0  0  0  0  0  0
   37.7230   30.7530   48.7460 C   0  0  0  0  0  0  0  0  0  0  0  0
   38.5330   30.5260   47.6620 F   0  0  0  0  0  0  0  0  0  0  0  0
   38.4600   30.4910   49.8750 F   0  0  0  0  0  0  0  0  0  0  0  0
   37.4300   32.1250   48.7350 F   0  0  0  0  0  0  0  0  0  0  0  0
   33.9840   26.2680   47.0140 C   0  0  0  0  0  0  0  0  0  0  0  0
   34.7820   26.0450   47.7880 H   0  0  0  0  0  0  0  0  0  0  0  0
   34.4400   27.0770   46.4070 H   0  0  0  0  0  0  0  0  0  0  0  0
   33.8340   25.0360   46.2030 C   0  0  0  0  0  0  0  0  0  0  0  0
   33.8450   25.2840   45.1110 H   0  0  0  0  0  0  0  0  0  0  0  0
   32.8000   24.6360   46.3740 H   0  0  0  0  0  0  0  0  0  0  0  0
   34.7310   23.9590   46.5200 N   0  0  0  0  0  0  0  0  0  0  0  0
   35.8040   23.8420   45.5980 C   0  0  0  0  0  0  0  0  0  0  0  0
   36.0010   24.3470   44.4300 N   0  0  0  0  0  0  0  0  0  0  0  0
   36.9350   23.0160   45.9480 N   0  0  0  0  0  0  0  0  0  0  0  0
   34.6680   23.2970   47.3200 H   0  0  0  0  0  0  0  0  0  0  0  0
   35.2470   24.9840   44.0280 H   0  0  0  0  0  0  0  0  0  0  0  0
   37.0510   22.0350   46.3380 H   0  0  0  0  0  0  0  0  0  0  0  0
   37.7560   22.4210   46.2020 H   0  0  0  0  0  0  0  0  0  0  0  0
  1 15  1  0  0  0  0
  1  2  1  0  0  0  0
  2  7  1  0  0  0  0
  3  2  2  0  0  0  0
  3  8  1  0  0  0  0
  4  3  1  0  0  0  0
  5  6  1  0  0  0  0
  5  4  2  0  0  0  0
  6  1  2  0  0  0  0
  9  4  1  0  0  0  0
 10  5  1  0  0  0  0
 11 17  1  0  0  0  0
 12 19  1  0  0  0  0
 12 11  2  0  0  0  0
 13 12  1  0  0  0  0
 14 13  2  0  0  0  0
 14 15  1  0  0  0  0
 15 16  2  0  0  0  0
 16 11  1  0  0  0  0
 18 13  1  0  0  0  0
 19 21  1  0  0  0  0
 20 19  1  0  0  0  0
 22 19  1  0  0  0  0
 23  6  1  0  0  0  0
 23 24  1  0  0  0  0
 25 23  1  0  0  0  0
 26 28  1  0  0  0  0
 26 29  1  0  0  0  0
 26 23  1  0  0  0  0
 27 26  1  0  0  0  0
 29 33  1  0  0  0  0
 30 32  1  0  0  0  0
 30 29  1  0  0  0  0
 31 30  2  0  0  0  0
 32 36  1  0  0  0  0
 32 35  1  0  0  0  0
 34 31  1  0  0  0  0
M  END
>  <minimizedAffinity>
-4.90777397

>  <minimizedRMSD>
0.815004826

$$$$
