
 OpenBabel03252513193D

 20 20  0  0  0  0  0  0  0  0999 V2000
   35.3960   29.1230   50.3610 C   0  0  0  0  0  0  0  0  0  0  0  0
   36.1400   30.1640   49.7810 C   0  0  0  0  0  0  0  0  0  0  0  0
   35.8610   30.4810   48.4580 C   0  0  0  0  0  0  0  0  0  0  0  0
   34.8980   29.7900   47.7800 N   0  0  0  0  0  0  0  0  0  0  0  0
   34.1990   28.7830   48.3870 C   0  0  0  0  0  0  0  0  0  0  0  0
   34.4590   28.4730   49.6530 N   0  0  0  0  0  0  0  0  0  0  0  0
   35.6530   28.9130   51.4030 H   0  0  0  0  0  0  0  0  0  0  0  0
   36.4200   31.2740   47.9950 H   0  0  0  0  0  0  0  0  0  0  0  0
   33.2070   28.0930   47.6410 N   0  0  0  0  0  0  0  0  0  0  0  0
   31.9210   27.7850   48.1420 C   0  0  0  0  0  0  0  0  0  0  0  0
   31.6130   28.2410   49.3280 N   0  0  0  0  0  0  0  0  0  0  0  0
   30.9980   26.9950   47.3620 N   0  0  0  0  0  0  0  0  0  0  0  0
   33.3950   27.7790   46.6660 H   0  0  0  0  0  0  0  0  0  0  0  0
   30.6460   27.9930   49.6760 H   0  0  0  0  0  0  0  0  0  0  0  0
   30.1990   27.0580   46.6690 H   0  0  0  0  0  0  0  0  0  0  0  0
   31.1260   25.9590   47.4940 H   0  0  0  0  0  0  0  0  0  0  0  0
   37.1940   30.9320   50.4970 C   0  0  0  0  0  0  0  0  0  0  0  0
   38.4360   30.7700   49.9960 F   0  0  0  0  0  0  0  0  0  0  0  0
   37.2530   30.5510   51.8270 F   0  0  0  0  0  0  0  0  0  0  0  0
   36.9000   32.2870   50.4440 F   0  0  0  0  0  0  0  0  0  0  0  0
  1  7  1  0  0  0  0
  2  1  1  0  0  0  0
  2 17  1  0  0  0  0
  3  2  2  0  0  0  0
  4  5  2  0  0  0  0
  4  3  1  0  0  0  0
  5  6  1  0  0  0  0
  6  1  2  0  0  0  0
  8  3  1  0  0  0  0
  9 10  1  0  0  0  0
  9  5  1  0  0  0  0
 10 11  2  0  0  0  0
 11 14  1  0  0  0  0
 12 16  1  0  0  0  0
 12 10  1  0  0  0  0
 13  9  1  0  0  0  0
 15 12  1  0  0  0  0
 17 19  1  0  0  0  0
 18 17  1  0  0  0  0
 20 17  1  0  0  0  0
M  END
>  <minimizedAffinity>
-5.18888283

>  <minimizedRMSD>
0.391819358

$$$$
