
 OpenBabel03252512053D

 35 36  0  0  0  0  0  0  0  0999 V2000
   37.2390   32.0560   49.5840 C   0  0  0  0  0  0  0  0  0  0  0  0
   36.3320   32.6230   49.3870 H   0  0  0  0  0  0  0  0  0  0  0  0
   37.9030   32.7460   50.2020 H   0  0  0  0  0  0  0  0  0  0  0  0
   37.9780   31.8180   48.3210 C   0  0  0  0  0  0  0  0  0  0  0  0
   37.8880   30.6230   47.6990 C   0  0  0  0  0  0  0  0  0  0  0  0
   38.6210   30.3950   46.5340 C   0  0  0  0  0  0  0  0  0  0  0  0
   39.4040   31.4050   46.0660 N   0  0  0  0  0  0  0  0  0  0  0  0
   39.4730   32.5690   46.6910 C   0  0  0  0  0  0  0  0  0  0  0  0
   38.7780   32.8170   47.8220 N   0  0  0  0  0  0  0  0  0  0  0  0
   37.3820   29.7040   47.8330 H   0  0  0  0  0  0  0  0  0  0  0  0
   38.6990   29.5240   45.8850 H   0  0  0  0  0  0  0  0  0  0  0  0
   40.3090   33.6630   46.1510 C   0  0  0  0  0  0  0  0  0  0  0  0
   39.9230   34.6520   46.5140 H   0  0  0  0  0  0  0  0  0  0  0  0
   41.3580   33.6200   46.4420 H   0  0  0  0  0  0  0  0  0  0  0  0
   40.1290   33.7530   44.6210 C   0  0  0  0  0  0  0  0  0  0  0  0
   40.2400   34.7800   44.2590 H   0  0  0  0  0  0  0  0  0  0  0  0
   39.1820   33.2610   44.3260 H   0  0  0  0  0  0  0  0  0  0  0  0
   40.9950   33.1760   44.1880 H   0  0  0  0  0  0  0  0  0  0  0  0
   37.1220   30.7670   50.2930 C   0  0  0  0  0  0  0  0  0  0  0  0
   38.0400   30.1730   50.1050 H   0  0  0  0  0  0  0  0  0  0  0  0
   37.1300   30.9400   51.4040 H   0  0  0  0  0  0  0  0  0  0  0  0
   35.9830   28.6380   49.8720 C   0  0  0  0  0  0  0  0  0  0  0  0
   35.9750   30.0410   49.9190 C   0  0  0  0  0  0  0  0  0  0  0  0
   34.8080   30.6610   49.5630 C   0  0  0  0  0  0  0  0  0  0  0  0
   33.7190   29.9440   49.1820 N   0  0  0  0  0  0  0  0  0  0  0  0
   33.7530   28.6070   49.1440 C   0  0  0  0  0  0  0  0  0  0  0  0
   34.8590   27.9970   49.4840 N   0  0  0  0  0  0  0  0  0  0  0  0
   36.8870   28.1440   50.1500 H   0  0  0  0  0  0  0  0  0  0  0  0
   34.5970   31.7180   49.5360 H   0  0  0  0  0  0  0  0  0  0  0  0
   32.5750   27.8320   48.7370 C   0  0  0  0  0  0  0  0  0  0  0  0
   32.6350   27.0120   47.7890 O   0  0  0  0  0  0  0  0  0  0  0  0
   31.3590   27.9800   49.3830 O   0  0  0  0  0  0  0  0  0  0  0  0
   30.1400   27.4330   48.9780 C   0  0  0  0  0  0  0  0  0  0  0  0
   29.3200   27.1790   50.2500 C   0  0  0  0  0  0  0  0  0  0  0  0
   29.3340   28.3870   48.1250 C   0  0  0  0  0  0  0  0  0  0  0  0
  1  3  1  0  0  0  0
  1 19  1  0  0  0  0
  2  1  1  0  0  0  0
  4  1  1  0  0  0  0
  5 10  1  0  0  0  0
  5  4  2  0  0  0  0
  6  5  1  0  0  0  0
  7  6  2  0  0  0  0
  7  8  1  0  0  0  0
  8  9  2  0  0  0  0
  9  4  1  0  0  0  0
 11  6  1  0  0  0  0
 12 14  1  0  0  0  0
 12 13  1  0  0  0  0
 12  8  1  0  0  0  0
 15 12  1  0  0  0  0
 16 15  1  0  0  0  0
 17 15  1  0  0  0  0
 18 15  1  0  0  0  0
 19 21  1  0  0  0  0
 20 19  1  0  0  0  0
 22 23  1  0  0  0  0
 22 28  1  0  0  0  0
 23 19  1  0  0  0  0
 24 23  2  0  0  0  0
 25 24  1  0  0  0  0
 26 25  2  0  0  0  0
 26 27  1  0  0  0  0
 27 22  2  0  0  0  0
 29 24  1  0  0  0  0
 30 26  1  0  0  0  0
 30 32  1  0  0  0  0
 31 30  2  0  0  0  0
 33 32  1  0  0  0  0
 33 34  1  0  0  0  0
 35 33  1  0  0  0  0
M  END
>  <minimizedAffinity>
-5.19149017

>  <minimizedRMSD>
0.988845885

$$$$
