
 OpenBabel03252513593D

 26 27  0  0  1  0  0  0  0  0999 V2000
   35.5330   29.6200   49.3990 C   0  0  2  0  0  0  0  0  0  0  0  0
   34.6780   29.2630   50.5390 C   0  0  0  0  0  0  0  0  0  0  0  0
   34.7740   28.2820   49.4600 C   0  0  1  0  0  0  0  0  0  0  0  0
   35.1930   30.3300   48.6540 H   0  0  0  0  0  0  0  0  0  0  0  0
   33.7140   29.7880   50.7190 H   0  0  0  0  0  0  0  0  0  0  0  0
   35.1770   28.9950   51.5180 H   0  0  0  0  0  0  0  0  0  0  0  0
   35.4470   27.4350   49.3060 H   0  0  0  0  0  0  0  0  0  0  0  0
   37.0390   29.4240   49.5460 C   0  0  0  0  0  0  0  0  0  0  0  0
   37.4020   28.5290   49.0210 H   0  0  0  0  0  0  0  0  0  0  0  0
   37.2550   29.2840   50.6200 H   0  0  0  0  0  0  0  0  0  0  0  0
   38.3770   32.8310   49.4390 C   0  0  0  0  0  0  0  0  0  0  0  0
   38.9280   32.9220   48.1510 C   0  0  0  0  0  0  0  0  0  0  0  0
   38.8260   31.7870   47.3280 C   0  0  0  0  0  0  0  0  0  0  0  0
   38.2010   30.6680   47.8270 N   0  0  0  0  0  0  0  0  0  0  0  0
   37.6920   30.6480   49.0750 C   0  0  0  0  0  0  0  0  0  0  0  0
   37.7860   31.7370   49.8740 N   0  0  0  0  0  0  0  0  0  0  0  0
   38.4610   33.7110   50.0630 H   0  0  0  0  0  0  0  0  0  0  0  0
   39.4170   33.7770   47.7410 H   0  0  0  0  0  0  0  0  0  0  0  0
   39.2260   31.7870   46.3300 H   0  0  0  0  0  0  0  0  0  0  0  0
   33.5360   28.1610   48.6100 C   0  0  0  0  0  0  0  0  0  0  0  0
   33.7700   28.0960   47.3380 O   0  0  0  0  0  0  0  0  0  0  0  0
   32.2330   28.1070   49.0590 O   0  0  0  0  0  0  0  0  0  0  0  0
   31.1860   27.4500   48.4380 C   0  0  0  0  0  0  0  0  0  0  0  0
   31.6020   26.0360   48.0860 C   0  0  0  0  0  0  0  0  0  0  0  0
   30.6000   28.1210   47.2350 C   0  0  0  0  0  0  0  0  0  0  0  0
   30.0600   27.3730   49.4700 C   0  0  0  0  0  0  0  0  0  0  0  0
  1  4  1  6  0  0  0
  1  3  1  0  0  0  0
  1  8  1  0  0  0  0
  1  2  1  0  0  0  0
  2  5  1  0  0  0  0
  2  6  1  0  0  0  0
  3  7  1  1  0  0  0
  3  2  1  0  0  0  0
  8 10  1  0  0  0  0
  9  8  1  0  0  0  0
 11 16  1  0  0  0  0
 11 17  1  0  0  0  0
 12 11  2  0  0  0  0
 13 14  2  0  0  0  0
 13 12  1  0  0  0  0
 14 15  1  0  0  0  0
 15  8  1  0  0  0  0
 15 16  2  0  0  0  0
 18 12  1  0  0  0  0
 19 13  1  0  0  0  0
 20 22  1  0  0  0  0
 20  3  1  0  0  0  0
 21 20  2  0  0  0  0
 23 22  1  0  0  0  0
 23 26  1  0  0  0  0
 24 23  1  0  0  0  0
 25 23  1  0  0  0  0
M  END
>  <minimizedAffinity>
-4.97984695

>  <minimizedRMSD>
0.869819522

$$$$
