
 OpenBabel03252512583D

 38 41  0  0  0  0  0  0  0  0999 V2000
   38.1320   32.7250   49.6570 C   0  0  0  0  0  0  0  0  0  0  0  0
   38.8320   33.0710   48.4860 C   0  0  0  0  0  0  0  0  0  0  0  0
   38.5730   32.3140   47.3330 C   0  0  0  0  0  0  0  0  0  0  0  0
   37.6660   31.2790   47.3750 N   0  0  0  0  0  0  0  0  0  0  0  0
   37.0400   31.0150   48.5360 C   0  0  0  0  0  0  0  0  0  0  0  0
   37.2510   31.7100   49.6700 N   0  0  0  0  0  0  0  0  0  0  0  0
   36.1040   29.9320   48.5370 N   0  0  0  0  0  0  0  0  0  0  0  0
   35.1580   29.8030   47.4460 C   0  0  0  0  0  0  0  0  0  0  0  0
   33.7820   29.7480   48.1000 C   0  0  0  0  0  0  0  0  0  0  0  0
   33.7550   28.9140   49.2020 O   0  0  0  0  0  0  0  0  0  0  0  0
   34.8590   28.0620   49.2760 C   0  0  0  0  0  0  0  0  0  0  0  0
   36.0680   28.9510   49.5960 C   0  0  0  0  0  0  0  0  0  0  0  0
   38.3520   33.3300   50.5380 H   0  0  0  0  0  0  0  0  0  0  0  0
   39.5360   33.8800   48.4680 H   0  0  0  0  0  0  0  0  0  0  0  0
   35.1750   30.7140   46.8150 H   0  0  0  0  0  0  0  0  0  0  0  0
   35.3620   28.8870   46.8520 H   0  0  0  0  0  0  0  0  0  0  0  0
   33.1110   29.2950   47.3420 H   0  0  0  0  0  0  0  0  0  0  0  0
   33.4270   30.7800   48.2940 H   0  0  0  0  0  0  0  0  0  0  0  0
   35.0260   27.4660   48.3770 H   0  0  0  0  0  0  0  0  0  0  0  0
   34.6560   27.4060   50.1600 H   0  0  0  0  0  0  0  0  0  0  0  0
   35.9180   29.3920   50.5810 H   0  0  0  0  0  0  0  0  0  0  0  0
   36.9960   28.3210   49.5860 H   0  0  0  0  0  0  0  0  0  0  0  0
   39.2590   32.6070   46.0710 C   0  0  0  0  0  0  0  0  0  0  0  0
   40.3020   33.3830   45.7460 N   0  0  0  0  0  0  0  0  0  0  0  0
   40.5290   33.3020   44.4670 O   0  0  0  0  0  0  0  0  0  0  0  0
   39.6510   32.4820   43.9430 C   0  0  0  0  0  0  0  0  0  0  0  0
   38.8360   32.0250   44.9180 N   0  0  0  0  0  0  0  0  0  0  0  0
   39.5180   32.0890   42.5660 N   0  0  0  0  0  0  0  0  0  0  0  0
   39.1490   32.9750   41.6390 N   0  0  0  0  0  0  0  0  0  0  0  0
   39.1090   32.3250   40.4440 C   0  0  0  0  0  0  0  0  0  0  0  0
   39.4720   31.0090   40.6930 C   0  0  0  0  0  0  0  0  0  0  0  0
   39.7210   30.8960   42.0350 C   0  0  0  0  0  0  0  0  0  0  0  0
   38.8430   32.7930   39.5260 H   0  0  0  0  0  0  0  0  0  0  0  0
   39.5360   30.2280   39.9360 H   0  0  0  0  0  0  0  0  0  0  0  0
   40.1280   29.6950   42.7240 C   0  0  0  0  0  0  0  0  0  0  0  0
   39.3560   28.9490   43.3530 O   0  0  0  0  0  0  0  0  0  0  0  0
   41.4760   29.2900   42.7170 O   0  0  0  0  0  0  0  0  0  0  0  0
   41.8060   28.6270   43.4060 H   0  0  0  0  0  0  0  0  0  0  0  0
  1  6  1  0  0  0  0
  1 13  1  0  0  0  0
  2  1  2  0  0  0  0
  3  4  2  0  0  0  0
  3  2  1  0  0  0  0
  4  5  1  0  0  0  0
  5  7  1  0  0  0  0
  5  6  2  0  0  0  0
  7 12  1  0  0  0  0
  8  9  1  0  0  0  0
  8  7  1  0  0  0  0
  9 18  1  0  0  0  0
  9 10  1  0  0  0  0
 10 11  1  0  0  0  0
 11 12  1  0  0  0  0
 11 20  1  0  0  0  0
 12 21  1  0  0  0  0
 14  2  1  0  0  0  0
 15  8  1  0  0  0  0
 16  8  1  0  0  0  0
 17  9  1  0  0  0  0
 19 11  1  0  0  0  0
 22 12  1  0  0  0  0
 23  3  1  0  0  0  0
 24 23  2  0  0  0  0
 25 24  1  0  0  0  0
 26 25  1  0  0  0  0
 26 27  2  0  0  0  0
 27 23  1  0  0  0  0
 28 26  1  0  0  0  0
 29 28  1  0  0  0  0
 30 31  1  0  0  0  0
 30 29  2  0  0  0  0
 31 32  2  0  0  0  0
 32 28  1  0  0  0  0
 32 35  1  0  0  0  0
 33 30  1  0  0  0  0
 34 31  1  0  0  0  0
 35 36  2  0  0  0  0
 37 35  1  0  0  0  0
 37 38  1  0  0  0  0
M  END
>  <minimizedAffinity>
-6.74636126

>  <minimizedRMSD>
1.00145972

$$$$
