
 OpenBabel03252513513D

 35 36  0  0  1  0  0  0  0  0999 V2000
   38.0820   31.3450   45.7210 C   0  0  0  0  0  0  0  0  0  0  0  0
   38.7210   32.1860   46.3850 O   0  0  0  0  0  0  0  0  0  0  0  0
   38.6570   31.0390   44.4720 N   0  0  0  0  0  0  0  0  0  0  0  0
   38.8030   29.6220   44.2050 C   0  0  0  0  0  0  0  0  0  0  0  0
   39.7400   29.4020   43.0310 C   0  0  0  0  0  0  0  0  0  0  0  0
   40.7190   30.3940   43.1040 O   0  0  0  0  0  0  0  0  0  0  0  0
   40.0750   31.5240   42.5210 C   0  0  0  0  0  0  0  0  0  0  0  0
   39.0720   32.0670   43.5280 C   0  0  2  0  0  0  0  0  0  0  0  0
   39.3380   29.0680   45.0300 H   0  0  0  0  0  0  0  0  0  0  0  0
   37.8410   29.1360   43.9860 H   0  0  0  0  0  0  0  0  0  0  0  0
   39.2090   29.4170   42.0660 H   0  0  0  0  0  0  0  0  0  0  0  0
   40.2640   28.4260   43.0860 H   0  0  0  0  0  0  0  0  0  0  0  0
   40.7740   32.2880   42.1960 H   0  0  0  0  0  0  0  0  0  0  0  0
   39.4720   31.1880   41.6460 H   0  0  0  0  0  0  0  0  0  0  0  0
   38.2410   32.6120   43.1050 H   0  0  0  0  0  0  0  0  0  0  0  0
   35.4980   30.1570   48.1280 C   0  0  0  0  0  0  0  0  0  0  0  0
   36.7190   30.6790   47.6250 C   0  0  0  0  0  0  0  0  0  0  0  0
   36.8650   30.7770   46.2520 C   0  0  0  0  0  0  0  0  0  0  0  0
   35.8160   30.3580   45.4940 N   0  0  0  0  0  0  0  0  0  0  0  0
   34.6960   29.8710   46.0050 C   0  0  0  0  0  0  0  0  0  0  0  0
   34.5460   29.7690   47.3190 N   0  0  0  0  0  0  0  0  0  0  0  0
   37.5200   30.9960   48.2510 H   0  0  0  0  0  0  0  0  0  0  0  0
   33.6020   29.5970   45.0520 C   0  0  0  0  0  0  0  0  0  0  0  0
   33.3850   30.8240   44.3790 F   0  0  0  0  0  0  0  0  0  0  0  0
   33.9700   28.7050   44.1280 F   0  0  0  0  0  0  0  0  0  0  0  0
   32.4340   29.1750   45.6380 F   0  0  0  0  0  0  0  0  0  0  0  0
   35.3260   30.0910   49.4780 O   0  0  0  0  0  0  0  0  0  0  0  0
   35.6060   29.0520   50.3160 C   0  0  0  0  0  0  0  0  0  0  0  0
   35.3930   29.2650   51.6710 F   0  0  0  0  0  0  0  0  0  0  0  0
   36.8660   28.6420   50.0700 F   0  0  0  0  0  0  0  0  0  0  0  0
   34.7380   28.0270   49.9060 F   0  0  0  0  0  0  0  0  0  0  0  0
   39.9370   33.0480   44.2980 C   0  0  0  0  0  0  0  0  0  0  0  0
   40.1830   34.2410   44.7040 O   0  0  0  0  0  0  0  0  0  0  0  0
   40.9690   32.2870   44.8220 O   0  0  0  0  0  0  0  0  0  0  0  0
   41.7130   32.7110   45.3460 H   0  0  0  0  0  0  0  0  0  0  0  0
  1 18  1  0  0  0  0
  1  2  2  0  0  0  0
  3  1  1  0  0  0  0
  4  3  1  0  0  0  0
  4  9  1  0  0  0  0
  5 12  1  0  0  0  0
  5  6  1  0  0  0  0
  5  4  1  0  0  0  0
  7  6  1  0  0  0  0
  7  8  1  0  0  0  0
  8 15  1  6  0  0  0
  8 32  1  0  0  0  0
  8  3  1  0  0  0  0
 10  4  1  0  0  0  0
 11  5  1  0  0  0  0
 13  7  1  0  0  0  0
 14  7  1  0  0  0  0
 16 27  1  0  0  0  0
 17 16  1  0  0  0  0
 17 22  1  0  0  0  0
 18 17  2  0  0  0  0
 19 20  2  0  0  0  0
 19 18  1  0  0  0  0
 20 21  1  0  0  0  0
 21 16  2  0  0  0  0
 23 26  1  0  0  0  0
 23 20  1  0  0  0  0
 24 23  1  0  0  0  0
 25 23  1  0  0  0  0
 27 28  1  0  0  0  0
 28 29  1  0  0  0  0
 30 28  1  0  0  0  0
 31 28  1  0  0  0  0
 32 33  2  0  0  0  0
 32 34  1  0  0  0  0
 34 35  1  0  0  0  0
M  END
>  <minimizedAffinity>
-5.88099098

>  <minimizedRMSD>
1.82790399

$$$$
