
 OpenBabel03252513203D

 16 16  0  0  0  0  0  0  0  0999 V2000
   35.6490   28.9800   50.2650 C   0  0  0  0  0  0  0  0  0  0  0  0
   36.2990   30.1090   49.7530 C   0  0  0  0  0  0  0  0  0  0  0  0
   36.0280   30.4640   48.4330 C   0  0  0  0  0  0  0  0  0  0  0  0
   35.1500   29.7090   47.6980 N   0  0  0  0  0  0  0  0  0  0  0  0
   34.5460   28.6170   48.2530 C   0  0  0  0  0  0  0  0  0  0  0  0
   34.8030   28.2740   49.5150 N   0  0  0  0  0  0  0  0  0  0  0  0
   35.8860   28.7340   51.2960 H   0  0  0  0  0  0  0  0  0  0  0  0
   36.4840   31.3230   47.9500 H   0  0  0  0  0  0  0  0  0  0  0  0
   37.2530   30.9370   50.5360 C   0  0  0  0  0  0  0  0  0  0  0  0
   38.5450   30.8710   50.0930 F   0  0  0  0  0  0  0  0  0  0  0  0
   37.2670   30.5550   51.8610 F   0  0  0  0  0  0  0  0  0  0  0  0
   36.8840   32.2760   50.4740 F   0  0  0  0  0  0  0  0  0  0  0  0
   33.6080   27.7970   47.4910 C   0  0  0  0  0  0  0  0  0  0  0  0
   33.7830   26.5660   47.2940 O   0  0  0  0  0  0  0  0  0  0  0  0
   32.4510   28.2620   46.9120 O   0  0  0  0  0  0  0  0  0  0  0  0
   32.2300   28.1150   45.9140 H   0  0  0  0  0  0  0  0  0  0  0  0
  1  7  1  0  0  0  0
  2  1  1  0  0  0  0
  2  9  1  0  0  0  0
  3  2  2  0  0  0  0
  4  5  2  0  0  0  0
  4  3  1  0  0  0  0
  5  6  1  0  0  0  0
  6  1  2  0  0  0  0
  8  3  1  0  0  0  0
  9 11  1  0  0  0  0
 10  9  1  0  0  0  0
 12  9  1  0  0  0  0
 13  5  1  0  0  0  0
 14 13  2  0  0  0  0
 15 13  1  0  0  0  0
 16 15  1  0  0  0  0
M  END
>  <minimizedAffinity>
-4.44504929

>  <minimizedRMSD>
0.199743524

$$$$
