
 OpenBabel03252510493D

 24 26  0  0  0  0  0  0  0  0999 V2000
   38.6680   31.4580   46.7920 N   0  0  0  0  0  0  0  0  0  0  0  0
   39.3720   32.6030   46.9480 C   0  0  0  0  0  0  0  0  0  0  0  0
   40.1980   32.7990   45.9110 N   0  0  0  0  0  0  0  0  0  0  0  0
   40.0350   31.7710   45.0650 C   0  0  0  0  0  0  0  0  0  0  0  0
   40.5690   31.3950   43.8580 C   0  0  0  0  0  0  0  0  0  0  0  0
   40.2350   30.2920   43.1880 N   0  0  0  0  0  0  0  0  0  0  0  0
   39.2960   29.5110   43.7740 C   0  0  0  0  0  0  0  0  0  0  0  0
   38.7650   29.8610   44.9470 N   0  0  0  0  0  0  0  0  0  0  0  0
   39.0740   30.9490   45.6390 C   0  0  0  0  0  0  0  0  0  0  0  0
   39.2680   33.2670   47.8140 H   0  0  0  0  0  0  0  0  0  0  0  0
   41.3230   32.0960   43.4680 H   0  0  0  0  0  0  0  0  0  0  0  0
   38.9560   28.5820   43.2980 H   0  0  0  0  0  0  0  0  0  0  0  0
   36.4100   30.6990   47.2470 C   0  0  0  0  0  0  0  0  0  0  0  0
   37.7170   30.9640   47.7010 C   0  0  0  0  0  0  0  0  0  0  0  0
   38.0270   30.7310   49.0260 C   0  0  0  0  0  0  0  0  0  0  0  0
   37.0270   30.2470   49.8380 N   0  0  0  0  0  0  0  0  0  0  0  0
   35.7860   30.0020   49.3780 C   0  0  0  0  0  0  0  0  0  0  0  0
   35.4690   30.2230   48.0960 N   0  0  0  0  0  0  0  0  0  0  0  0
   36.0910   30.8560   46.2270 H   0  0  0  0  0  0  0  0  0  0  0  0
   39.0220   30.9220   49.4090 H   0  0  0  0  0  0  0  0  0  0  0  0
   34.8420   29.4920   50.3660 C   0  0  0  0  0  0  0  0  0  0  0  0
   35.2550   29.1150   51.4680 O   0  0  0  0  0  0  0  0  0  0  0  0
   33.4760   29.4050   50.1360 O   0  0  0  0  0  0  0  0  0  0  0  0
   32.7910   29.5990   50.8780 H   0  0  0  0  0  0  0  0  0  0  0  0
  1  2  1  0  0  0  0
  1 14  1  0  0  0  0
  2 10  1  0  0  0  0
  3  2  2  0  0  0  0
  4  9  1  0  0  0  0
  4  3  1  0  0  0  0
  5  4  2  0  0  0  0
  6  7  2  0  0  0  0
  6  5  1  0  0  0  0
  7  8  1  0  0  0  0
  8  9  2  0  0  0  0
  9  1  1  0  0  0  0
 11  5  1  0  0  0  0
 12  7  1  0  0  0  0
 13 14  2  0  0  0  0
 13 18  1  0  0  0  0
 14 15  1  0  0  0  0
 15 20  1  0  0  0  0
 15 16  2  0  0  0  0
 17 16  1  0  0  0  0
 17 21  1  0  0  0  0
 18 17  2  0  0  0  0
 19 13  1  0  0  0  0
 21 22  2  0  0  0  0
 23 21  1  0  0  0  0
 23 24  1  0  0  0  0
M  END
>  <minimizedAffinity>
-5.23744583

>  <minimizedRMSD>
2.29230452

$$$$
