
 OpenBabel03252513323D

 16 16  0  0  0  0  0  0  0  0999 V2000
   37.5160   30.4780   49.7230 C   0  0  0  0  0  0  0  0  0  0  0  0
   38.2300   31.6590   49.9160 C   0  0  0  0  0  0  0  0  0  0  0  0
   38.5360   32.4370   48.8070 C   0  0  0  0  0  0  0  0  0  0  0  0
   38.1260   32.0120   47.5950 N   0  0  0  0  0  0  0  0  0  0  0  0
   37.4260   30.8480   47.4400 C   0  0  0  0  0  0  0  0  0  0  0  0
   37.1250   30.0890   48.4970 N   0  0  0  0  0  0  0  0  0  0  0  0
   38.5470   31.9760   50.8940 H   0  0  0  0  0  0  0  0  0  0  0  0
   37.1520   30.6120   46.4210 H   0  0  0  0  0  0  0  0  0  0  0  0
   37.1850   29.6360   50.9260 C   0  0  0  0  0  0  0  0  0  0  0  0
   35.8050   29.4950   51.0300 F   0  0  0  0  0  0  0  0  0  0  0  0
   37.8520   28.4590   50.8380 F   0  0  0  0  0  0  0  0  0  0  0  0
   37.6000   30.3560   52.0500 F   0  0  0  0  0  0  0  0  0  0  0  0
   39.2820   33.6740   49.0010 C   0  0  0  0  0  0  0  0  0  0  0  0
   39.5100   34.0440   50.1740 O   0  0  0  0  0  0  0  0  0  0  0  0
   39.7210   34.4090   47.9100 O   0  0  0  0  0  0  0  0  0  0  0  0
   40.0380   35.3840   48.0190 H   0  0  0  0  0  0  0  0  0  0  0  0
  1  2  1  0  0  0  0
  1  9  1  0  0  0  0
  2  7  1  0  0  0  0
  3 13  1  0  0  0  0
  3  2  2  0  0  0  0
  4  3  1  0  0  0  0
  5  4  2  0  0  0  0
  5  6  1  0  0  0  0
  6  1  2  0  0  0  0
  8  5  1  0  0  0  0
  9 10  1  0  0  0  0
  9 12  1  0  0  0  0
 11  9  1  0  0  0  0
 13 14  2  0  0  0  0
 15 16  1  0  0  0  0
 15 13  1  0  0  0  0
M  END
>  <minimizedAffinity>
-5.3538456

>  <minimizedRMSD>
0.736983359

$$$$
