
 OpenBabel03252514003D

 28 30  0  0  1  0  0  0  0  0999 V2000
   35.2720   29.4610   49.0790 C   0  0  2  0  0  0  0  0  0  0  0  0
   34.2310   29.4930   50.1150 C   0  0  0  0  0  0  0  0  0  0  0  0
   34.4760   28.2060   49.4870 C   0  0  1  0  0  0  0  0  0  0  0  0
   35.1170   29.8420   48.0810 H   0  0  0  0  0  0  0  0  0  0  0  0
   33.2900   30.0660   49.8790 H   0  0  0  0  0  0  0  0  0  0  0  0
   34.5760   29.7250   51.1530 H   0  0  0  0  0  0  0  0  0  0  0  0
   35.1070   27.4090   49.8620 H   0  0  0  0  0  0  0  0  0  0  0  0
   36.7260   29.3910   49.5530 C   0  0  0  0  0  0  0  0  0  0  0  0
   37.2060   28.4650   49.2190 H   0  0  0  0  0  0  0  0  0  0  0  0
   36.6950   29.3920   50.6600 H   0  0  0  0  0  0  0  0  0  0  0  0
   37.9000   32.8630   49.4170 C   0  0  0  0  0  0  0  0  0  0  0  0
   38.6540   32.8820   48.2340 C   0  0  0  0  0  0  0  0  0  0  0  0
   38.7560   31.7010   47.4920 C   0  0  0  0  0  0  0  0  0  0  0  0
   38.1080   30.5850   47.9660 N   0  0  0  0  0  0  0  0  0  0  0  0
   37.4000   30.6080   49.0960 C   0  0  0  0  0  0  0  0  0  0  0  0
   37.3040   31.7530   49.8110 N   0  0  0  0  0  0  0  0  0  0  0  0
   37.7590   33.7180   50.0600 H   0  0  0  0  0  0  0  0  0  0  0  0
   39.1270   33.8110   47.9450 H   0  0  0  0  0  0  0  0  0  0  0  0
   39.3310   31.7010   46.5830 H   0  0  0  0  0  0  0  0  0  0  0  0
   33.4180   27.7180   48.5440 C   0  0  0  0  0  0  0  0  0  0  0  0
   33.8510   26.9490   47.6020 O   0  0  0  0  0  0  0  0  0  0  0  0
   32.0690   28.0160   48.6190 O   0  0  0  0  0  0  0  0  0  0  0  0
   30.3790   26.9270   50.5350 H   0  0  0  0  0  0  0  0  0  0  0  0
   30.0890   27.0950   49.5770 N   0  0  0  0  0  0  0  0  0  0  0  0
   29.2310   28.2130   49.3220 C   0  0  0  0  0  0  0  0  0  0  0  0
   29.4040   28.5220   47.8490 C   0  0  0  0  0  0  0  0  0  0  0  0
   30.2150   27.3440   47.3450 C   0  0  0  0  0  0  0  0  0  0  0  0
   31.0820   27.0440   48.5560 C   0  0  1  0  0  0  0  0  0  0  0  0
  1  4  1  6  0  0  0
  1  3  1  0  0  0  0
  1  8  1  0  0  0  0
  1  2  1  0  0  0  0
  2  6  1  0  0  0  0
  3  7  1  1  0  0  0
  3  2  1  0  0  0  0
  5  2  1  0  0  0  0
  8 10  1  0  0  0  0
  9  8  1  0  0  0  0
 11 16  1  0  0  0  0
 11 17  1  0  0  0  0
 12 11  2  0  0  0  0
 13 14  2  0  0  0  0
 13 12  1  0  0  0  0
 14 15  1  0  0  0  0
 15  8  1  0  0  0  0
 15 16  2  0  0  0  0
 18 12  1  0  0  0  0
 19 13  1  0  0  0  0
 20 22  1  0  0  0  0
 20  3  1  0  0  0  0
 21 20  2  0  0  0  0
 24 23  1  0  0  0  0
 25 24  1  0  0  0  0
 26 25  1  0  0  0  0
 27 26  1  0  0  0  0
 27 28  1  0  0  0  0
 28 22  1  1  0  0  0
 28 24  1  0  0  0  0
M  END
>  <minimizedAffinity>
-5.16795206

>  <minimizedRMSD>
0.972030282

$$$$
