
 OpenBabel03252513303D

 42 45  0  0  0  0  0  0  0  0999 V2000
   31.7010   26.4720   47.8200 C   0  0  0  0  0  0  0  0  0  0  0  0
   31.4410   25.2590   47.2980 C   0  0  0  0  0  0  0  0  0  0  0  0
   32.4350   24.3940   46.8560 C   0  0  0  0  0  0  0  0  0  0  0  0
   33.7340   24.8500   46.9810 C   0  0  0  0  0  0  0  0  0  0  0  0
   34.0110   26.0780   47.5080 C   0  0  0  0  0  0  0  0  0  0  0  0
   33.0030   26.9120   47.9370 C   0  0  0  0  0  0  0  0  0  0  0  0
   30.3900   24.9720   47.2330 H   0  0  0  0  0  0  0  0  0  0  0  0
   32.1380   23.4440   46.4530 H   0  0  0  0  0  0  0  0  0  0  0  0
   34.5270   24.1890   46.6410 H   0  0  0  0  0  0  0  0  0  0  0  0
   35.0500   26.4090   47.5940 H   0  0  0  0  0  0  0  0  0  0  0  0
   29.2170   28.1960   49.9310 C   0  0  0  0  0  0  0  0  0  0  0  0
   28.5800   29.0560   49.0020 C   0  0  0  0  0  0  0  0  0  0  0  0
   29.0270   29.0150   47.6790 C   0  0  0  0  0  0  0  0  0  0  0  0
   30.0470   28.1550   47.3460 N   0  0  0  0  0  0  0  0  0  0  0  0
   30.6210   27.3540   48.2750 C   0  0  0  0  0  0  0  0  0  0  0  0
   30.2020   27.3880   49.5370 N   0  0  0  0  0  0  0  0  0  0  0  0
   28.8490   28.2530   50.9380 H   0  0  0  0  0  0  0  0  0  0  0  0
   28.5850   29.6410   46.9330 H   0  0  0  0  0  0  0  0  0  0  0  0
   27.4810   29.9710   49.3890 C   0  0  0  0  0  0  0  0  0  0  0  0
   27.8370   30.8730   50.3530 F   0  0  0  0  0  0  0  0  0  0  0  0
   26.3780   29.2790   49.8540 F   0  0  0  0  0  0  0  0  0  0  0  0
   27.0750   30.7060   48.2580 F   0  0  0  0  0  0  0  0  0  0  0  0
   33.2560   28.2480   48.5140 C   0  0  0  0  0  0  0  0  0  0  0  0
   33.7820   28.0800   49.4670 H   0  0  0  0  0  0  0  0  0  0  0  0
   32.2780   28.7130   48.8130 H   0  0  0  0  0  0  0  0  0  0  0  0
   33.9050   29.2150   47.5940 C   0  0  0  0  0  0  0  0  0  0  0  0
   33.2050   29.9600   47.1470 H   0  0  0  0  0  0  0  0  0  0  0  0
   34.3610   28.7060   46.7000 H   0  0  0  0  0  0  0  0  0  0  0  0
   34.9840   29.9300   48.2760 C   0  0  0  0  0  0  0  0  0  0  0  0
   35.1880   29.8850   49.6440 C   0  0  0  0  0  0  0  0  0  0  0  0
   36.2770   30.6630   49.9720 C   0  0  0  0  0  0  0  0  0  0  0  0
   36.7100   31.1640   48.7650 N   0  0  0  0  0  0  0  0  0  0  0  0
   35.9490   30.7320   47.7750 N   0  0  0  0  0  0  0  0  0  0  0  0
   34.6990   29.3950   50.4760 H   0  0  0  0  0  0  0  0  0  0  0  0
   36.7870   30.9150   50.8850 H   0  0  0  0  0  0  0  0  0  0  0  0
   37.7840   32.0260   48.4110 C   0  0  0  0  0  0  0  0  0  0  0  0
   38.1390   32.9570   49.3620 C   0  0  0  0  0  0  0  0  0  0  0  0
   39.1610   33.8610   49.1620 C   0  0  0  0  0  0  0  0  0  0  0  0
   39.8430   33.8080   47.9440 C   0  0  0  0  0  0  0  0  0  0  0  0
   40.6490   34.5100   47.7690 H   0  0  0  0  0  0  0  0  0  0  0  0
   39.4610   32.8550   47.0010 C   0  0  0  0  0  0  0  0  0  0  0  0
   38.4460   31.9810   47.2410 N   0  0  0  0  0  0  0  0  0  0  0  0
  1  6  1  0  0  0  0
  1 15  1  0  0  0  0
  2  1  2  0  0  0  0
  3  4  2  0  0  0  0
  3  2  1  0  0  0  0
  4  5  1  0  0  0  0
  5 10  1  0  0  0  0
  5  6  2  0  0  0  0
  6 23  1  0  0  0  0
  7  2  1  0  0  0  0
  8  3  1  0  0  0  0
  9  4  1  0  0  0  0
 11 17  1  0  0  0  0
 12 19  1  0  0  0  0
 12 11  2  0  0  0  0
 13 12  1  0  0  0  0
 14 13  2  0  0  0  0
 14 15  1  0  0  0  0
 15 16  2  0  0  0  0
 16 11  1  0  0  0  0
 18 13  1  0  0  0  0
 19 21  1  0  0  0  0
 19 20  1  0  0  0  0
 22 19  1  0  0  0  0
 23 25  1  0  0  0  0
 23 24  1  0  0  0  0
 26 29  1  0  0  0  0
 26 23  1  0  0  0  0
 27 26  1  0  0  0  0
 28 26  1  0  0  0  0
 29 30  1  0  0  0  0
 30 31  2  0  0  0  0
 30 34  1  0  0  0  0
 31 35  1  0  0  0  0
 32 31  1  0  0  0  0
 33 29  2  0  0  0  0
 33 32  1  0  0  0  0
 36 32  1  0  0  0  0
 36 37  1  0  0  0  0
 38 37  2  0  0  0  0
 39 38  1  0  0  0  0
 40 39  1  0  0  0  0
 41 42  1  0  0  0  0
 41 39  2  0  0  0  0
 42 36  2  0  0  0  0
M  END
>  <minimizedAffinity>
-7.15482378

>  <minimizedRMSD>
1.40363228

$$$$
