
 OpenBabel03252514053D

 25 27  0  0  0  0  0  0  0  0999 V2000
   37.6240   31.0620   47.5810 N   0  0  0  0  0  0  0  0  0  0  0  0
   38.0990   32.1330   48.2610 C   0  0  0  0  0  0  0  0  0  0  0  0
   39.1630   32.6390   47.5730 N   0  0  0  0  0  0  0  0  0  0  0  0
   39.3240   31.8710   46.4840 C   0  0  0  0  0  0  0  0  0  0  0  0
   40.2180   31.8960   45.4380 C   0  0  0  0  0  0  0  0  0  0  0  0
   40.1570   30.9800   44.4420 N   0  0  0  0  0  0  0  0  0  0  0  0
   39.2160   30.0130   44.4430 C   0  0  0  0  0  0  0  0  0  0  0  0
   38.3440   29.9910   45.4650 N   0  0  0  0  0  0  0  0  0  0  0  0
   38.3710   30.8820   46.4720 C   0  0  0  0  0  0  0  0  0  0  0  0
   41.2200   32.8820   45.3850 N   0  0  0  0  0  0  0  0  0  0  0  0
   37.7150   32.5400   49.1970 H   0  0  0  0  0  0  0  0  0  0  0  0
   39.1380   29.2640   43.6630 H   0  0  0  0  0  0  0  0  0  0  0  0
   41.8970   33.1390   46.1250 H   0  0  0  0  0  0  0  0  0  0  0  0
   41.4240   33.5080   44.5620 H   0  0  0  0  0  0  0  0  0  0  0  0
   35.3280   30.3530   47.2460 C   0  0  0  0  0  0  0  0  0  0  0  0
   36.5190   30.2850   48.0000 C   0  0  0  0  0  0  0  0  0  0  0  0
   36.5080   29.4450   49.1150 C   0  0  0  0  0  0  0  0  0  0  0  0
   35.3680   28.7460   49.4110 N   0  0  0  0  0  0  0  0  0  0  0  0
   34.2630   28.8420   48.6660 C   0  0  0  0  0  0  0  0  0  0  0  0
   34.2400   29.6380   47.5920 N   0  0  0  0  0  0  0  0  0  0  0  0
   35.3020   30.9990   46.3690 H   0  0  0  0  0  0  0  0  0  0  0  0
   37.4210   29.4020   49.6810 H   0  0  0  0  0  0  0  0  0  0  0  0
   33.0780   28.0780   49.0250 C   0  0  0  0  0  0  0  0  0  0  0  0
   32.9890   27.6320   50.0160 H   0  0  0  0  0  0  0  0  0  0  0  0
   32.1320   27.9080   48.2190 O   0  0  0  0  0  0  0  0  0  0  0  0
  1 16  1  0  0  0  0
  1  2  1  0  0  0  0
  2 11  1  0  0  0  0
  3  2  2  0  0  0  0
  4  3  1  0  0  0  0
  5  4  2  0  0  0  0
  6  7  2  0  0  0  0
  6  5  1  0  0  0  0
  7  8  1  0  0  0  0
  8  9  2  0  0  0  0
  9  4  1  0  0  0  0
  9  1  1  0  0  0  0
 10  5  1  0  0  0  0
 10 13  1  0  0  0  0
 12  7  1  0  0  0  0
 14 10  1  0  0  0  0
 15 20  2  0  0  0  0
 15 16  1  0  0  0  0
 16 17  2  0  0  0  0
 17 18  1  0  0  0  0
 17 22  1  0  0  0  0
 19 23  1  0  0  0  0
 19 18  2  0  0  0  0
 20 19  1  0  0  0  0
 21 15  1  0  0  0  0
 23 24  1  0  0  0  0
 25 23  2  0  0  0  0
M  END
>  <minimizedAffinity>
-4.63954639

>  <minimizedRMSD>
2.15976858

$$$$
