
 OpenBabel03252513553D

 22 23  0  0  1  0  0  0  0  0999 V2000
   36.4290   29.9760   48.7400 C   0  0  0  0  0  0  0  0  0  0  0  0
   37.0110   29.0540   48.8740 H   0  0  0  0  0  0  0  0  0  0  0  0
   35.8200   29.9590   47.8040 H   0  0  0  0  0  0  0  0  0  0  0  0
   38.0870   33.2020   49.3680 C   0  0  0  0  0  0  0  0  0  0  0  0
   39.0300   33.2690   48.3340 C   0  0  0  0  0  0  0  0  0  0  0  0
   39.1010   32.2150   47.4210 C   0  0  0  0  0  0  0  0  0  0  0  0
   38.2240   31.1660   47.6050 N   0  0  0  0  0  0  0  0  0  0  0  0
   37.3280   31.1440   48.6230 C   0  0  0  0  0  0  0  0  0  0  0  0
   37.2650   32.1650   49.5010 N   0  0  0  0  0  0  0  0  0  0  0  0
   38.0910   34.0630   50.0440 H   0  0  0  0  0  0  0  0  0  0  0  0
   39.7310   34.0600   48.1470 H   0  0  0  0  0  0  0  0  0  0  0  0
   39.7780   32.1420   46.5810 H   0  0  0  0  0  0  0  0  0  0  0  0
   35.5350   30.2160   49.9220 C   0  0  2  0  0  0  0  0  0  0  0  0
   35.5380   29.2760   51.0760 C   0  0  0  0  0  0  0  0  0  0  0  0
   34.4280   29.1900   50.1100 C   0  0  2  0  0  0  0  0  0  0  0  0
   35.2800   31.2910   50.1430 H   0  0  0  0  0  0  0  0  0  0  0  0
   35.3540   29.6250   52.1120 H   0  0  0  0  0  0  0  0  0  0  0  0
   36.2760   28.4250   51.0720 H   0  0  0  0  0  0  0  0  0  0  0  0
   33.4350   29.6370   50.3570 H   0  0  0  0  0  0  0  0  0  0  0  0
   34.3130   28.1250   49.0870 C   0  0  0  0  0  0  0  0  0  0  0  0
   35.1850   27.7050   48.6390 H   0  0  0  0  0  0  0  0  0  0  0  0
   33.1160   27.8700   48.8980 O   0  0  0  0  0  0  0  0  0  0  0  0
  1  2  1  0  0  0  0
  1 13  1  0  0  0  0
  3  1  1  0  0  0  0
  4  9  1  0  0  0  0
  4 10  1  0  0  0  0
  5  4  2  0  0  0  0
  6  7  2  0  0  0  0
  6  5  1  0  0  0  0
  7  8  1  0  0  0  0
  8  1  1  0  0  0  0
  8  9  2  0  0  0  0
 11  5  1  0  0  0  0
 12  6  1  0  0  0  0
 13 15  1  0  0  0  0
 13 16  1  1  0  0  0
 13 14  1  0  0  0  0
 14 17  1  0  0  0  0
 15 19  1  1  0  0  0
 15 14  1  0  0  0  0
 18 14  1  0  0  0  0
 20 15  1  0  0  0  0
 21 20  1  0  0  0  0
 22 20  2  0  0  0  0
M  END
>  <minimizedAffinity>
-4.41099167

>  <minimizedRMSD>
1.30938923

$$$$
