
 OpenBabel03252514063D

 25 27  0  0  0  0  0  0  0  0999 V2000
   37.8440   31.4910   46.1160 N   0  0  0  0  0  0  0  0  0  0  0  0
   38.7500   32.4880   46.2560 C   0  0  0  0  0  0  0  0  0  0  0  0
   39.1310   32.8980   45.0120 N   0  0  0  0  0  0  0  0  0  0  0  0
   38.4530   32.1460   44.1300 C   0  0  0  0  0  0  0  0  0  0  0  0
   38.4250   32.1050   42.7540 C   0  0  0  0  0  0  0  0  0  0  0  0
   37.6310   31.2260   42.0970 N   0  0  0  0  0  0  0  0  0  0  0  0
   36.8430   30.3630   42.7690 C   0  0  0  0  0  0  0  0  0  0  0  0
   36.8720   30.4050   44.1110 N   0  0  0  0  0  0  0  0  0  0  0  0
   37.6450   31.2620   44.8010 C   0  0  0  0  0  0  0  0  0  0  0  0
   39.2270   32.9820   42.0020 N   0  0  0  0  0  0  0  0  0  0  0  0
   39.1240   32.9090   47.1900 H   0  0  0  0  0  0  0  0  0  0  0  0
   36.1950   29.6460   42.2750 H   0  0  0  0  0  0  0  0  0  0  0  0
   40.2450   33.1480   42.0940 H   0  0  0  0  0  0  0  0  0  0  0  0
   38.8910   33.6050   41.2200 H   0  0  0  0  0  0  0  0  0  0  0  0
   35.8640   30.4790   47.0880 C   0  0  0  0  0  0  0  0  0  0  0  0
   37.2290   30.8230   47.2000 C   0  0  0  0  0  0  0  0  0  0  0  0
   37.8680   30.4700   48.3900 C   0  0  0  0  0  0  0  0  0  0  0  0
   37.1540   29.8230   49.3640 N   0  0  0  0  0  0  0  0  0  0  0  0
   35.8620   29.5180   49.2120 C   0  0  0  0  0  0  0  0  0  0  0  0
   35.2200   29.8420   48.0850 N   0  0  0  0  0  0  0  0  0  0  0  0
   35.3340   30.7400   46.1720 H   0  0  0  0  0  0  0  0  0  0  0  0
   38.9070   30.7370   48.4630 H   0  0  0  0  0  0  0  0  0  0  0  0
   35.1490   28.8310   50.2780 C   0  0  0  0  0  0  0  0  0  0  0  0
   34.4870   27.9960   50.0500 H   0  0  0  0  0  0  0  0  0  0  0  0
   35.2720   29.1700   51.4800 O   0  0  0  0  0  0  0  0  0  0  0  0
  1  2  1  0  0  0  0
  1 16  1  0  0  0  0
  2 11  1  0  0  0  0
  3  2  2  0  0  0  0
  4  9  1  0  0  0  0
  4  3  1  0  0  0  0
  5  4  2  0  0  0  0
  6  5  1  0  0  0  0
  6  7  2  0  0  0  0
  7  8  1  0  0  0  0
  8  9  2  0  0  0  0
  9  1  1  0  0  0  0
 10 13  1  0  0  0  0
 10  5  1  0  0  0  0
 12  7  1  0  0  0  0
 14 10  1  0  0  0  0
 15 16  2  0  0  0  0
 15 20  1  0  0  0  0
 16 17  1  0  0  0  0
 17 22  1  0  0  0  0
 17 18  2  0  0  0  0
 19 18  1  0  0  0  0
 19 23  1  0  0  0  0
 20 19  2  0  0  0  0
 21 15  1  0  0  0  0
 23 25  2  0  0  0  0
 24 23  1  0  0  0  0
M  END
>  <minimizedAffinity>
-4.39846134

>  <minimizedRMSD>
3.01282167

$$$$
