
 OpenBabel03252511593D

 27 29  0  0  0  0  0  0  0  0999 V2000
   38.0200   32.8680   48.9560 C   0  0  0  0  0  0  0  0  0  0  0  0
   38.2170   33.7810   49.5470 H   0  0  0  0  0  0  0  0  0  0  0  0
   36.9540   32.7540   48.6710 H   0  0  0  0  0  0  0  0  0  0  0  0
   38.7950   32.8940   47.7170 N   0  0  0  0  0  0  0  0  0  0  0  0
   39.9140   33.5680   47.4040 C   0  0  0  0  0  0  0  0  0  0  0  0
   40.2880   33.2920   46.1370 N   0  0  0  0  0  0  0  0  0  0  0  0
   39.3770   32.4290   45.6620 C   0  0  0  0  0  0  0  0  0  0  0  0
   39.1940   31.7750   44.4540 C   0  0  0  0  0  0  0  0  0  0  0  0
   38.1610   30.9240   44.2120 N   0  0  0  0  0  0  0  0  0  0  0  0
   37.2740   30.7130   45.2080 C   0  0  0  0  0  0  0  0  0  0  0  0
   37.4230   31.3310   46.3930 N   0  0  0  0  0  0  0  0  0  0  0  0
   38.4350   32.1670   46.6360 C   0  0  0  0  0  0  0  0  0  0  0  0
   40.1090   31.9760   43.3830 N   0  0  0  0  0  0  0  0  0  0  0  0
   39.9400   32.2950   42.3850 H   0  0  0  0  0  0  0  0  0  0  0  0
   41.0790   31.7470   43.7210 H   0  0  0  0  0  0  0  0  0  0  0  0
   38.4420   31.6820   49.8030 C   0  0  0  0  0  0  0  0  0  0  0  0
   38.9780   32.0110   50.7030 H   0  0  0  0  0  0  0  0  0  0  0  0
   39.1030   31.0560   49.1320 H   0  0  0  0  0  0  0  0  0  0  0  0
   37.3170   30.0440   51.2450 C   0  0  0  0  0  0  0  0  0  0  0  0
   37.2770   30.9050   50.1420 C   0  0  0  0  0  0  0  0  0  0  0  0
   36.0920   30.9640   49.4160 C   0  0  0  0  0  0  0  0  0  0  0  0
   35.0310   30.1940   49.8010 N   0  0  0  0  0  0  0  0  0  0  0  0
   35.1000   29.3700   50.8750 C   0  0  0  0  0  0  0  0  0  0  0  0
   36.2410   29.3020   51.5860 N   0  0  0  0  0  0  0  0  0  0  0  0
   38.2300   29.9820   51.8220 H   0  0  0  0  0  0  0  0  0  0  0  0
   35.9690   31.5870   48.5630 H   0  0  0  0  0  0  0  0  0  0  0  0
   34.2910   28.7490   51.2100 H   0  0  0  0  0  0  0  0  0  0  0  0
  1  2  1  0  0  0  0
  1 16  1  0  0  0  0
  3  1  1  0  0  0  0
  4  1  1  0  0  0  0
  5  4  1  0  0  0  0
  6  5  2  0  0  0  0
  7  6  1  0  0  0  0
  7 12  1  0  0  0  0
  8  7  2  0  0  0  0
  9  8  1  0  0  0  0
  9 10  2  0  0  0  0
 10 11  1  0  0  0  0
 11 12  2  0  0  0  0
 12  4  1  0  0  0  0
 13 15  1  0  0  0  0
 13  8  1  0  0  0  0
 14 13  1  0  0  0  0
 16 20  1  0  0  0  0
 16 17  1  0  0  0  0
 18 16  1  0  0  0  0
 19 24  1  0  0  0  0
 19 25  1  0  0  0  0
 20 19  2  0  0  0  0
 21 22  2  0  0  0  0
 21 20  1  0  0  0  0
 22 23  1  0  0  0  0
 23 27  1  0  0  0  0
 23 24  2  0  0  0  0
 26 21  1  0  0  0  0
M  END
>  <minimizedAffinity>
-5.13022947

>  <minimizedRMSD>
3.13594627

$$$$
