
 OpenBabel03252510453D

 32 34  0  0  1  0  0  0  0  0999 V2000
   37.5420   31.3640   48.6530 N   0  0  0  0  0  0  0  0  0  0  0  0
   38.4200   31.6440   49.7840 C   0  0  0  0  0  0  0  0  0  0  0  0
   38.7440   33.0890   49.5680 C   0  0  0  0  0  0  0  0  0  0  0  0
   39.0480   33.0760   48.0850 C   0  0  0  0  0  0  0  0  0  0  0  0
   37.8710   32.2740   47.5890 C   0  0  1  0  0  0  0  0  0  0  0  0
   39.3340   31.0350   49.7880 H   0  0  0  0  0  0  0  0  0  0  0  0
   37.8100   31.5640   50.7080 H   0  0  0  0  0  0  0  0  0  0  0  0
   39.6970   33.2780   50.1430 H   0  0  0  0  0  0  0  0  0  0  0  0
   37.9180   33.7370   49.8510 H   0  0  0  0  0  0  0  0  0  0  0  0
   40.0250   32.6390   47.8970 H   0  0  0  0  0  0  0  0  0  0  0  0
   38.9580   34.1150   47.6730 H   0  0  0  0  0  0  0  0  0  0  0  0
   37.0210   32.9710   47.5180 H   0  0  0  0  0  0  0  0  0  0  0  0
   36.4490   29.2730   49.4370 C   0  0  0  0  0  0  0  0  0  0  0  0
   36.5390   30.3820   48.5820 C   0  0  0  0  0  0  0  0  0  0  0  0
   35.5620   30.5370   47.5750 C   0  0  0  0  0  0  0  0  0  0  0  0
   34.5720   29.6060   47.4730 N   0  0  0  0  0  0  0  0  0  0  0  0
   34.5200   28.5420   48.3240 C   0  0  0  0  0  0  0  0  0  0  0  0
   35.4560   28.3770   49.3030 N   0  0  0  0  0  0  0  0  0  0  0  0
   37.2380   29.2410   50.1730 H   0  0  0  0  0  0  0  0  0  0  0  0
   35.5410   31.3510   46.8680 H   0  0  0  0  0  0  0  0  0  0  0  0
   33.7150   27.8290   48.2050 H   0  0  0  0  0  0  0  0  0  0  0  0
   38.2320   31.6340   46.3280 C   0  0  0  0  0  0  0  0  0  0  0  0
   39.0400   30.5090   46.0950 C   0  0  0  0  0  0  0  0  0  0  0  0
   39.2670   30.0720   44.8210 C   0  0  0  0  0  0  0  0  0  0  0  0
   38.7040   30.7360   43.8060 N   0  0  0  0  0  0  0  0  0  0  0  0
   37.9260   31.8130   43.9890 C   0  0  0  0  0  0  0  0  0  0  0  0
   37.7160   32.2290   45.2570 N   0  0  0  0  0  0  0  0  0  0  0  0
   39.4260   30.0760   47.0080 H   0  0  0  0  0  0  0  0  0  0  0  0
   39.8940   29.2090   44.7370 H   0  0  0  0  0  0  0  0  0  0  0  0
   37.3250   32.5150   42.8370 C   0  0  0  0  0  0  0  0  0  0  0  0
   37.9340   32.6950   41.9720 H   0  0  0  0  0  0  0  0  0  0  0  0
   36.1240   32.8400   42.9910 O   0  0  0  0  0  0  0  0  0  0  0  0
  1  2  1  0  0  0  0
  2  6  1  0  0  0  0
  2  7  1  0  0  0  0
  3  2  1  0  0  0  0
  3  9  1  0  0  0  0
  3  8  1  0  0  0  0
  4  3  1  0  0  0  0
  5 12  1  6  0  0  0
  5  4  1  0  0  0  0
  5  1  1  0  0  0  0
 10  4  1  0  0  0  0
 11  4  1  0  0  0  0
 13 19  1  0  0  0  0
 14  1  1  0  0  0  0
 14 13  2  0  0  0  0
 15 14  1  0  0  0  0
 16 15  2  0  0  0  0
 16 17  1  0  0  0  0
 17 18  2  0  0  0  0
 18 13  1  0  0  0  0
 20 15  1  0  0  0  0
 21 17  1  0  0  0  0
 22  5  1  0  0  0  0
 23 22  1  0  0  0  0
 23 28  1  0  0  0  0
 24 23  2  0  0  0  0
 25 26  2  0  0  0  0
 25 24  1  0  0  0  0
 26 27  1  0  0  0  0
 27 22  2  0  0  0  0
 29 24  1  0  0  0  0
 30 32  2  0  0  0  0
 30 26  1  0  0  0  0
 31 30  1  0  0  0  0
M  END
>  <minimizedAffinity>
-5.16743565

>  <minimizedRMSD>
0.142777592

$$$$
