
 OpenBabel03252512553D

 24 26  0  0  0  0  0  0  0  0999 V2000
   38.3860   31.5830   48.2130 C   0  0  0  0  0  0  0  0  0  0  0  0
   39.0220   32.7700   48.2290 N   0  0  0  0  0  0  0  0  0  0  0  0
   39.5000   33.0360   47.0460 O   0  0  0  0  0  0  0  0  0  0  0  0
   39.1940   32.0560   46.2540 C   0  0  0  0  0  0  0  0  0  0  0  0
   38.4910   31.1090   46.9330 N   0  0  0  0  0  0  0  0  0  0  0  0
   39.5080   31.9100   44.8630 N   0  0  0  0  0  0  0  0  0  0  0  0
   38.9790   32.7220   43.9350 N   0  0  0  0  0  0  0  0  0  0  0  0
   39.4490   32.3530   42.7210 C   0  0  0  0  0  0  0  0  0  0  0  0
   40.2960   31.2690   42.9480 C   0  0  0  0  0  0  0  0  0  0  0  0
   40.3270   30.9980   44.3000 C   0  0  0  0  0  0  0  0  0  0  0  0
   39.1480   32.8790   41.8180 H   0  0  0  0  0  0  0  0  0  0  0  0
   40.8150   30.7700   42.1400 H   0  0  0  0  0  0  0  0  0  0  0  0
   40.8830   30.2280   44.7930 H   0  0  0  0  0  0  0  0  0  0  0  0
   37.2910   30.1000   51.4790 C   0  0  0  0  0  0  0  0  0  0  0  0
   38.0300   30.8810   50.5780 C   0  0  0  0  0  0  0  0  0  0  0  0
   37.6810   30.8100   49.2360 C   0  0  0  0  0  0  0  0  0  0  0  0
   36.6580   30.0030   48.8660 N   0  0  0  0  0  0  0  0  0  0  0  0
   35.9690   29.2670   49.7530 C   0  0  0  0  0  0  0  0  0  0  0  0
   36.2770   29.3060   51.0680 N   0  0  0  0  0  0  0  0  0  0  0  0
   37.5490   30.1410   52.5400 H   0  0  0  0  0  0  0  0  0  0  0  0
   38.8450   31.5220   50.8900 H   0  0  0  0  0  0  0  0  0  0  0  0
   34.8770   28.4140   49.3010 C   0  0  0  0  0  0  0  0  0  0  0  0
   35.0760   27.5180   48.7370 H   0  0  0  0  0  0  0  0  0  0  0  0
   33.6880   28.6820   49.5450 O   0  0  0  0  0  0  0  0  0  0  0  0
  1  2  2  0  0  0  0
  1 16  1  0  0  0  0
  3  2  1  0  0  0  0
  4  5  2  0  0  0  0
  4  3  1  0  0  0  0
  5  1  1  0  0  0  0
  6  4  1  0  0  0  0
  7  6  1  0  0  0  0
  8  9  1  0  0  0  0
  8  7  2  0  0  0  0
  9 10  2  0  0  0  0
 10 13  1  0  0  0  0
 10  6  1  0  0  0  0
 11  8  1  0  0  0  0
 12  9  1  0  0  0  0
 14 20  1  0  0  0  0
 15 21  1  0  0  0  0
 15 14  2  0  0  0  0
 16 15  1  0  0  0  0
 17 16  2  0  0  0  0
 17 18  1  0  0  0  0
 18 19  2  0  0  0  0
 19 14  1  0  0  0  0
 22 24  2  0  0  0  0
 22 18  1  0  0  0  0
 23 22  1  0  0  0  0
M  END
>  <minimizedAffinity>
-5.87737083

>  <minimizedRMSD>
0.446801543

$$$$
