
 OpenBabel03252512293D

 32 34  0  0  1  0  0  0  0  0999 V2000
   35.7480   30.0890   48.4340 C   0  0  0  0  0  0  0  0  0  0  0  0
   35.6250   28.9620   49.2490 C   0  0  0  0  0  0  0  0  0  0  0  0
   34.5360   28.1870   49.0490 C   0  0  0  0  0  0  0  0  0  0  0  0
   33.6610   28.5210   48.1190 C   0  0  0  0  0  0  0  0  0  0  0  0
   34.2870   30.0570   47.3590 S   0  0  0  0  0  0  0  0  0  0  0  0
   36.4260   28.7960   49.9870 H   0  0  0  0  0  0  0  0  0  0  0  0
   34.3660   27.2880   49.6430 H   0  0  0  0  0  0  0  0  0  0  0  0
   37.9260   32.8430   49.5060 C   0  0  0  0  0  0  0  0  0  0  0  0
   38.8400   32.9670   48.4500 C   0  0  0  0  0  0  0  0  0  0  0  0
   38.6940   32.1070   47.3930 C   0  0  0  0  0  0  0  0  0  0  0  0
   37.6880   31.2010   47.4330 N   0  0  0  0  0  0  0  0  0  0  0  0
   36.8490   31.1130   48.4380 C   0  0  0  0  0  0  0  0  0  0  0  0
   36.9050   31.9300   49.5550 N   0  0  0  0  0  0  0  0  0  0  0  0
   37.9520   33.4780   50.4000 H   0  0  0  0  0  0  0  0  0  0  0  0
   39.5980   33.7250   48.5300 H   0  0  0  0  0  0  0  0  0  0  0  0
   39.3650   32.1620   46.5670 H   0  0  0  0  0  0  0  0  0  0  0  0
   32.4120   27.8770   47.6700 C   0  0  2  0  0  0  0  0  0  0  0  0
   32.6890   26.8940   47.2070 H   0  0  0  0  0  0  0  0  0  0  0  0
   31.7380   28.7190   46.6820 C   0  0  0  0  0  0  0  0  0  0  0  0
   32.4400   29.5050   46.2860 H   0  0  0  0  0  0  0  0  0  0  0  0
   31.2540   28.1870   45.8600 H   0  0  0  0  0  0  0  0  0  0  0  0
   30.9550   29.3250   47.2250 H   0  0  0  0  0  0  0  0  0  0  0  0
   31.5850   27.5270   48.8840 C   0  0  0  0  0  0  0  0  0  0  0  0
   32.0360   28.1120   49.7280 H   0  0  0  0  0  0  0  0  0  0  0  0
   31.6730   26.4610   49.1800 H   0  0  0  0  0  0  0  0  0  0  0  0
   30.2820   27.8720   48.7810 O   0  0  0  0  0  0  0  0  0  0  0  0
   29.1110   29.8570   50.9080 H   0  0  0  0  0  0  0  0  0  0  0  0
   28.8920   29.2560   50.0810 N   0  0  0  0  0  0  0  0  0  0  0  0
   27.5480   28.7570   50.2750 C   0  0  0  0  0  0  0  0  0  0  0  0
   27.7670   27.5780   51.2020 C   0  0  0  0  0  0  0  0  0  0  0  0
   28.9970   26.9360   50.5960 C   0  0  0  0  0  0  0  0  0  0  0  0
   29.7560   28.1020   50.0500 C   0  0  1  0  0  0  0  0  0  0  0  0
  1 12  1  0  0  0  0
  1  2  2  0  0  0  0
  2  6  1  0  0  0  0
  3  2  1  0  0  0  0
  3  7  1  0  0  0  0
  4  3  2  0  0  0  0
  5  4  1  0  0  0  0
  5  1  1  0  0  0  0
  8 13  1  0  0  0  0
  8 14  1  0  0  0  0
  9 15  1  0  0  0  0
  9  8  2  0  0  0  0
 10 11  2  0  0  0  0
 10  9  1  0  0  0  0
 11 12  1  0  0  0  0
 12 13  2  0  0  0  0
 16 10  1  0  0  0  0
 17 18  1  6  0  0  0
 17  4  1  0  0  0  0
 17 23  1  0  0  0  0
 19 22  1  0  0  0  0
 19 17  1  0  0  0  0
 20 19  1  0  0  0  0
 21 19  1  0  0  0  0
 23 25  1  0  0  0  0
 23 24  1  0  0  0  0
 26 23  1  0  0  0  0
 28 29  1  0  0  0  0
 28 27  1  0  0  0  0
 29 30  1  0  0  0  0
 31 30  1  0  0  0  0
 32 26  1  6  0  0  0
 32 28  1  0  0  0  0
 32 31  1  0  0  0  0
M  END
>  <minimizedAffinity>
-6.19833422

>  <minimizedRMSD>
3.52340436

$$$$
