
 OpenBabel03252512593D

 37 40  0  0  0  0  0  0  0  0999 V2000
   38.3270   32.7000   49.6940 C   0  0  0  0  0  0  0  0  0  0  0  0
   38.9680   33.1150   48.5040 C   0  0  0  0  0  0  0  0  0  0  0  0
   38.6210   32.4360   47.3260 C   0  0  0  0  0  0  0  0  0  0  0  0
   37.6930   31.4100   47.3500 N   0  0  0  0  0  0  0  0  0  0  0  0
   37.1260   31.0710   48.5270 C   0  0  0  0  0  0  0  0  0  0  0  0
   37.4200   31.6890   49.6950 N   0  0  0  0  0  0  0  0  0  0  0  0
   36.1810   30.0140   48.5090 N   0  0  0  0  0  0  0  0  0  0  0  0
   35.1620   29.9820   47.4730 C   0  0  0  0  0  0  0  0  0  0  0  0
   33.8320   29.8880   48.2070 C   0  0  0  0  0  0  0  0  0  0  0  0
   33.8550   28.9780   49.2480 O   0  0  0  0  0  0  0  0  0  0  0  0
   34.9470   28.1110   49.1880 C   0  0  0  0  0  0  0  0  0  0  0  0
   36.1960   28.9530   49.4980 C   0  0  0  0  0  0  0  0  0  0  0  0
   38.5860   33.2160   50.6130 H   0  0  0  0  0  0  0  0  0  0  0  0
   39.6840   33.9090   48.4870 H   0  0  0  0  0  0  0  0  0  0  0  0
   35.1510   30.9400   46.9100 H   0  0  0  0  0  0  0  0  0  0  0  0
   35.3040   29.1660   46.7600 H   0  0  0  0  0  0  0  0  0  0  0  0
   33.1070   29.5040   47.4580 H   0  0  0  0  0  0  0  0  0  0  0  0
   33.4920   30.8920   48.5100 H   0  0  0  0  0  0  0  0  0  0  0  0
   34.7950   27.3140   49.9330 H   0  0  0  0  0  0  0  0  0  0  0  0
   35.1090   27.6990   48.1650 H   0  0  0  0  0  0  0  0  0  0  0  0
   37.1230   28.3590   49.3860 H   0  0  0  0  0  0  0  0  0  0  0  0
   36.1070   29.4080   50.5150 H   0  0  0  0  0  0  0  0  0  0  0  0
   39.2270   32.7910   46.0450 C   0  0  0  0  0  0  0  0  0  0  0  0
   40.1430   33.7140   45.6880 N   0  0  0  0  0  0  0  0  0  0  0  0
   40.3660   33.6460   44.4030 O   0  0  0  0  0  0  0  0  0  0  0  0
   39.6220   32.7050   43.9130 C   0  0  0  0  0  0  0  0  0  0  0  0
   38.8810   32.1300   44.9010 N   0  0  0  0  0  0  0  0  0  0  0  0
   39.5220   32.2650   42.5600 N   0  0  0  0  0  0  0  0  0  0  0  0
   39.0240   33.0350   41.6000 N   0  0  0  0  0  0  0  0  0  0  0  0
   39.0450   32.3840   40.4290 C   0  0  0  0  0  0  0  0  0  0  0  0
   39.5880   31.1390   40.6820 C   0  0  0  0  0  0  0  0  0  0  0  0
   39.8710   31.1090   42.0220 C   0  0  0  0  0  0  0  0  0  0  0  0
   38.6970   32.7770   39.4730 H   0  0  0  0  0  0  0  0  0  0  0  0
   39.7620   30.3390   39.9850 H   0  0  0  0  0  0  0  0  0  0  0  0
   40.4470   30.0420   42.7960 C   0  0  0  0  0  0  0  0  0  0  0  0
   40.1300   29.6060   43.7320 H   0  0  0  0  0  0  0  0  0  0  0  0
   41.4990   29.4630   42.3890 O   0  0  0  0  0  0  0  0  0  0  0  0
  1  6  1  0  0  0  0
  1 13  1  0  0  0  0
  2  1  2  0  0  0  0
  3  4  2  0  0  0  0
  3  2  1  0  0  0  0
  4  5  1  0  0  0  0
  5  6  2  0  0  0  0
  7  5  1  0  0  0  0
  7 12  1  0  0  0  0
  8  9  1  0  0  0  0
  8  7  1  0  0  0  0
  9 18  1  0  0  0  0
  9 10  1  0  0  0  0
 11 10  1  0  0  0  0
 11 12  1  0  0  0  0
 11 19  1  0  0  0  0
 12 22  1  0  0  0  0
 14  2  1  0  0  0  0
 15  8  1  0  0  0  0
 16  8  1  0  0  0  0
 17  9  1  0  0  0  0
 20 11  1  0  0  0  0
 21 12  1  0  0  0  0
 23  3  1  0  0  0  0
 24 23  2  0  0  0  0
 25 24  1  0  0  0  0
 26 25  1  0  0  0  0
 26 27  2  0  0  0  0
 27 23  1  0  0  0  0
 28 26  1  0  0  0  0
 29 28  1  0  0  0  0
 30 31  1  0  0  0  0
 30 29  2  0  0  0  0
 31 32  2  0  0  0  0
 32 28  1  0  0  0  0
 32 35  1  0  0  0  0
 33 30  1  0  0  0  0
 34 31  1  0  0  0  0
 35 36  1  0  0  0  0
 37 35  2  0  0  0  0
M  END
>  <minimizedAffinity>
-6.27946472

>  <minimizedRMSD>
1.01273024

$$$$
