
 OpenBabel03252514063D

 25 27  0  0  0  0  0  0  0  0999 V2000
   38.8310   31.9390   45.2000 N   0  0  0  0  0  0  0  0  0  0  0  0
   39.4380   33.0780   44.7870 C   0  0  0  0  0  0  0  0  0  0  0  0
   39.7440   32.9440   43.4640 N   0  0  0  0  0  0  0  0  0  0  0  0
   39.3200   31.7270   43.0870 C   0  0  0  0  0  0  0  0  0  0  0  0
   39.3550   31.0480   41.8910 C   0  0  0  0  0  0  0  0  0  0  0  0
   38.8430   29.7980   41.7810 N   0  0  0  0  0  0  0  0  0  0  0  0
   38.2840   29.1800   42.8400 C   0  0  0  0  0  0  0  0  0  0  0  0
   38.2510   29.8450   44.0070 N   0  0  0  0  0  0  0  0  0  0  0  0
   38.7470   31.0860   44.1570 C   0  0  0  0  0  0  0  0  0  0  0  0
   39.9260   31.6440   40.7520 N   0  0  0  0  0  0  0  0  0  0  0  0
   39.6550   33.9610   45.3880 H   0  0  0  0  0  0  0  0  0  0  0  0
   37.8650   28.1800   42.7880 H   0  0  0  0  0  0  0  0  0  0  0  0
   40.8610   32.0810   40.6670 H   0  0  0  0  0  0  0  0  0  0  0  0
   39.4680   31.7280   39.8060 H   0  0  0  0  0  0  0  0  0  0  0  0
   37.2100   30.9420   46.7040 C   0  0  0  0  0  0  0  0  0  0  0  0
   38.3730   31.7210   46.5190 C   0  0  0  0  0  0  0  0  0  0  0  0
   38.9830   32.2190   47.6720 C   0  0  0  0  0  0  0  0  0  0  0  0
   38.4330   31.9320   48.8930 N   0  0  0  0  0  0  0  0  0  0  0  0
   37.3310   31.1890   49.0190 C   0  0  0  0  0  0  0  0  0  0  0  0
   36.7220   30.6960   47.9360 N   0  0  0  0  0  0  0  0  0  0  0  0
   36.7080   30.5360   45.8260 H   0  0  0  0  0  0  0  0  0  0  0  0
   39.8670   32.8110   47.5180 H   0  0  0  0  0  0  0  0  0  0  0  0
   36.7880   30.9140   50.3410 C   0  0  0  0  0  0  0  0  0  0  0  0
   36.6360   31.7230   51.0550 H   0  0  0  0  0  0  0  0  0  0  0  0
   36.4820   29.7510   50.7000 O   0  0  0  0  0  0  0  0  0  0  0  0
  1 16  1  0  0  0  0
  2  1  1  0  0  0  0
  2 11  1  0  0  0  0
  3  2  2  0  0  0  0
  4  3  1  0  0  0  0
  4  9  1  0  0  0  0
  5  4  2  0  0  0  0
  6  5  1  0  0  0  0
  6  7  2  0  0  0  0
  7  8  1  0  0  0  0
  8  9  2  0  0  0  0
  9  1  1  0  0  0  0
 10  5  1  0  0  0  0
 12  7  1  0  0  0  0
 13 10  1  0  0  0  0
 14 10  1  0  0  0  0
 15 20  1  0  0  0  0
 16 15  2  0  0  0  0
 16 17  1  0  0  0  0
 17 18  2  0  0  0  0
 18 19  1  0  0  0  0
 19 23  1  0  0  0  0
 20 19  2  0  0  0  0
 21 15  1  0  0  0  0
 22 17  1  0  0  0  0
 23 25  2  0  0  0  0
 23 24  1  0  0  0  0
M  END
>  <minimizedAffinity>
-4.47638607

>  <minimizedRMSD>
4.05149031

$$$$
