
 OpenBabel03252512483D

 45 49  0  0  1  0  0  0  0  0999 V2000
   38.2410   32.5460   44.7870 C   0  0  0  0  0  0  0  0  0  0  0  0
   37.4270   32.9870   45.3990 H   0  0  0  0  0  0  0  0  0  0  0  0
   38.5130   33.2640   43.9720 H   0  0  0  0  0  0  0  0  0  0  0  0
   37.7640   31.3000   44.2710 N   0  0  0  0  0  0  0  0  0  0  0  0
   36.7170   30.5260   44.6150 C   0  0  0  0  0  0  0  0  0  0  0  0
   36.7200   29.4560   43.7990 N   0  0  0  0  0  0  0  0  0  0  0  0
   37.7400   29.5270   42.9420 C   0  0  0  0  0  0  0  0  0  0  0  0
   38.1420   28.6900   41.9310 C   0  0  0  0  0  0  0  0  0  0  0  0
   37.5460   27.6120   41.6390 O   0  0  0  0  0  0  0  0  0  0  0  0
   39.2230   28.9840   41.1730 N   0  0  0  0  0  0  0  0  0  0  0  0
   39.8450   30.1280   41.4900 C   0  0  0  0  0  0  0  0  0  0  0  0
   41.0180   30.5250   40.7500 N   0  0  0  0  0  0  0  0  0  0  0  0
   39.4850   30.9750   42.4730 N   0  0  0  0  0  0  0  0  0  0  0  0
   38.4130   30.6970   43.2320 C   0  0  0  0  0  0  0  0  0  0  0  0
   36.0350   30.7740   45.4120 H   0  0  0  0  0  0  0  0  0  0  0  0
   40.5480   31.0540   39.9820 H   0  0  0  0  0  0  0  0  0  0  0  0
   41.7640   30.0830   41.3530 H   0  0  0  0  0  0  0  0  0  0  0  0
   39.7740   28.2440   40.0980 C   0  0  0  0  0  0  0  0  0  0  0  0
   40.4570   27.0610   40.1560 C   0  0  0  0  0  0  0  0  0  0  0  0
   40.9680   26.3940   39.0730 C   0  0  0  0  0  0  0  0  0  0  0  0
   40.8100   26.9110   37.8080 C   0  0  0  0  0  0  0  0  0  0  0  0
   41.2030   26.4030   36.9450 H   0  0  0  0  0  0  0  0  0  0  0  0
   40.1230   28.1030   37.7430 C   0  0  0  0  0  0  0  0  0  0  0  0
   39.6510   28.7000   38.8440 N   0  0  0  0  0  0  0  0  0  0  0  0
   39.4620   32.3950   45.7110 C   0  0  2  0  0  0  0  0  0  0  0  0
   39.8960   31.4030   45.5660 H   0  0  0  0  0  0  0  0  0  0  0  0
   37.9100   31.8730   49.0000 C   0  0  0  0  0  0  0  0  0  0  0  0
   38.4080   33.0410   49.6370 C   0  0  0  0  0  0  0  0  0  0  0  0
   39.4180   33.8630   48.3350 S   0  0  0  0  0  0  0  0  0  0  0  0
   38.9680   32.4310   47.1300 C   0  0  0  0  0  0  0  0  0  0  0  0
   38.3240   31.7850   47.7580 N   0  0  0  0  0  0  0  0  0  0  0  0
   38.2250   33.3660   50.6680 H   0  0  0  0  0  0  0  0  0  0  0  0
   37.4710   30.4080   50.9340 C   0  0  0  0  0  0  0  0  0  0  0  0
   37.0430   30.9710   49.7420 C   0  0  0  0  0  0  0  0  0  0  0  0
   35.7500   30.6230   49.3250 C   0  0  0  0  0  0  0  0  0  0  0  0
   35.0080   29.7870   50.0720 N   0  0  0  0  0  0  0  0  0  0  0  0
   35.4700   29.2690   51.2210 C   0  0  0  0  0  0  0  0  0  0  0  0
   36.7080   29.5800   51.6540 N   0  0  0  0  0  0  0  0  0  0  0  0
   38.4740   30.6640   51.2790 H   0  0  0  0  0  0  0  0  0  0  0  0
   35.3820   31.0390   48.4050 H   0  0  0  0  0  0  0  0  0  0  0  0
   34.9270   28.5910   51.8700 H   0  0  0  0  0  0  0  0  0  0  0  0
   40.4110   33.5140   45.5290 C   0  0  0  0  0  0  0  0  0  0  0  0
   40.1940   33.9930   44.5450 H   0  0  0  0  0  0  0  0  0  0  0  0
   41.4770   33.2100   45.5830 H   0  0  0  0  0  0  0  0  0  0  0  0
   40.2340   34.2970   46.2830 H   0  0  0  0  0  0  0  0  0  0  0  0
  1  2  1  0  0  0  0
  1 25  1  0  0  0  0
  3  1  1  0  0  0  0
  4  5  1  0  0  0  0
  4  1  1  0  0  0  0
  5 15  1  0  0  0  0
  6  5  2  0  0  0  0
  7 14  2  0  0  0  0
  7  6  1  0  0  0  0
  8  7  1  0  0  0  0
  9  8  2  0  0  0  0
 10 11  1  0  0  0  0
 10  8  1  0  0  0  0
 11 13  2  0  0  0  0
 12 17  1  0  0  0  0
 12 11  1  0  0  0  0
 13 14  1  0  0  0  0
 14  4  1  0  0  0  0
 16 12  1  0  0  0  0
 18 19  1  0  0  0  0
 18 10  1  0  0  0  0
 20 19  2  0  0  0  0
 21 20  1  0  0  0  0
 22 21  1  0  0  0  0
 23 21  2  0  0  0  0
 23 24  1  0  0  0  0
 24 18  2  0  0  0  0
 25 26  1  6  0  0  0
 25 30  1  0  0  0  0
 27 28  2  0  0  0  0
 27 34  1  0  0  0  0
 28 32  1  0  0  0  0
 29 28  1  0  0  0  0
 30 31  2  0  0  0  0
 30 29  1  0  0  0  0
 31 27  1  0  0  0  0
 33 39  1  0  0  0  0
 33 38  1  0  0  0  0
 34 33  2  0  0  0  0
 35 34  1  0  0  0  0
 35 36  2  0  0  0  0
 36 37  1  0  0  0  0
 37 38  2  0  0  0  0
 37 41  1  0  0  0  0
 40 35  1  0  0  0  0
 42 44  1  0  0  0  0
 42 25  1  0  0  0  0
 42 45  1  0  0  0  0
 43 42  1  0  0  0  0
M  END
>  <minimizedAffinity>
-5.84223175

>  <minimizedRMSD>
1.46245515

$$$$
