
 OpenBabel03252514063D

 25 27  0  0  0  0  0  0  0  0999 V2000
   38.0340   31.3790   46.5330 N   0  0  0  0  0  0  0  0  0  0  0  0
   38.9140   32.4040   46.6320 C   0  0  0  0  0  0  0  0  0  0  0  0
   39.3980   32.6740   45.3860 N   0  0  0  0  0  0  0  0  0  0  0  0
   38.8080   31.8110   44.5430 C   0  0  0  0  0  0  0  0  0  0  0  0
   38.9010   31.6100   43.1850 C   0  0  0  0  0  0  0  0  0  0  0  0
   38.1760   30.6450   42.5690 N   0  0  0  0  0  0  0  0  0  0  0  0
   37.3410   29.8500   43.2680 C   0  0  0  0  0  0  0  0  0  0  0  0
   37.2520   30.0480   44.5940 N   0  0  0  0  0  0  0  0  0  0  0  0
   37.9530   30.9950   45.2420 C   0  0  0  0  0  0  0  0  0  0  0  0
   39.7560   32.4100   42.4060 N   0  0  0  0  0  0  0  0  0  0  0  0
   39.2020   32.9370   47.5390 H   0  0  0  0  0  0  0  0  0  0  0  0
   36.7460   29.0680   42.8080 H   0  0  0  0  0  0  0  0  0  0  0  0
   40.7600   32.6060   42.5650 H   0  0  0  0  0  0  0  0  0  0  0  0
   39.4840   32.9300   41.5310 H   0  0  0  0  0  0  0  0  0  0  0  0
   35.9420   30.6280   47.5060 C   0  0  0  0  0  0  0  0  0  0  0  0
   37.3340   30.8290   47.6310 C   0  0  0  0  0  0  0  0  0  0  0  0
   37.9120   30.4630   48.8480 C   0  0  0  0  0  0  0  0  0  0  0  0
   37.1170   29.9400   49.8340 N   0  0  0  0  0  0  0  0  0  0  0  0
   35.8020   29.7680   49.6680 C   0  0  0  0  0  0  0  0  0  0  0  0
   35.2170   30.1080   48.5150 N   0  0  0  0  0  0  0  0  0  0  0  0
   35.4580   30.9030   46.5690 H   0  0  0  0  0  0  0  0  0  0  0  0
   38.9720   30.6210   48.9320 H   0  0  0  0  0  0  0  0  0  0  0  0
   35.0030   29.2090   50.7470 C   0  0  0  0  0  0  0  0  0  0  0  0
   35.4600   28.5620   51.4950 H   0  0  0  0  0  0  0  0  0  0  0  0
   33.7750   29.4480   50.8520 O   0  0  0  0  0  0  0  0  0  0  0  0
  1  2  1  0  0  0  0
  1 16  1  0  0  0  0
  2 11  1  0  0  0  0
  3  2  2  0  0  0  0
  4  9  1  0  0  0  0
  4  3  1  0  0  0  0
  5  4  2  0  0  0  0
  6  5  1  0  0  0  0
  6  7  2  0  0  0  0
  7  8  1  0  0  0  0
  8  9  2  0  0  0  0
  9  1  1  0  0  0  0
 10 13  1  0  0  0  0
 10  5  1  0  0  0  0
 12  7  1  0  0  0  0
 14 10  1  0  0  0  0
 15 16  2  0  0  0  0
 15 20  1  0  0  0  0
 16 17  1  0  0  0  0
 17 22  1  0  0  0  0
 17 18  2  0  0  0  0
 19 18  1  0  0  0  0
 19 23  1  0  0  0  0
 20 19  2  0  0  0  0
 21 15  1  0  0  0  0
 23 25  2  0  0  0  0
 23 24  1  0  0  0  0
M  END
>  <minimizedAffinity>
-4.26816845

>  <minimizedRMSD>
2.67076039

$$$$
