
 OpenBabel03252512323D

 36 38  0  0  1  0  0  0  0  0999 V2000
   31.9880   27.9190   47.3310 C   0  0  2  0  0  0  0  0  0  0  0  0
   32.2030   26.8790   46.9410 H   0  0  0  0  0  0  0  0  0  0  0  0
   35.3950   29.7210   48.6360 C   0  0  0  0  0  0  0  0  0  0  0  0
   35.0600   28.5530   49.3470 C   0  0  0  0  0  0  0  0  0  0  0  0
   33.9370   27.9080   48.9790 C   0  0  0  0  0  0  0  0  0  0  0  0
   33.2260   28.3970   47.9920 C   0  0  0  0  0  0  0  0  0  0  0  0
   34.0760   29.9060   47.4130 S   0  0  0  0  0  0  0  0  0  0  0  0
   35.7370   28.2390   50.1590 H   0  0  0  0  0  0  0  0  0  0  0  0
   33.6010   27.0010   49.4690 H   0  0  0  0  0  0  0  0  0  0  0  0
   38.2960   31.3300   50.2060 C   0  0  0  0  0  0  0  0  0  0  0  0
   38.8100   32.1350   49.1730 C   0  0  0  0  0  0  0  0  0  0  0  0
   38.1450   32.1140   47.9600 C   0  0  0  0  0  0  0  0  0  0  0  0
   37.0430   31.3300   47.8210 N   0  0  0  0  0  0  0  0  0  0  0  0
   36.6050   30.5840   48.8500 C   0  0  0  0  0  0  0  0  0  0  0  0
   37.1870   30.5310   50.0920 N   0  0  0  0  0  0  0  0  0  0  0  0
   38.7980   31.3240   51.1740 H   0  0  0  0  0  0  0  0  0  0  0  0
   39.6760   32.7190   49.3620 H   0  0  0  0  0  0  0  0  0  0  0  0
   38.5200   32.7230   47.1490 H   0  0  0  0  0  0  0  0  0  0  0  0
   31.5840   28.8110   46.2690 C   0  0  0  0  0  0  0  0  0  0  0  0
   32.4430   29.3860   45.8550 H   0  0  0  0  0  0  0  0  0  0  0  0
   30.8640   29.5750   46.6340 H   0  0  0  0  0  0  0  0  0  0  0  0
   31.0580   28.3160   45.4060 H   0  0  0  0  0  0  0  0  0  0  0  0
   30.9530   27.6760   48.4260 C   0  0  0  0  0  0  0  0  0  0  0  0
   30.3150   28.6040   48.4410 H   0  0  0  0  0  0  0  0  0  0  0  0
   31.4130   27.6340   49.4380 H   0  0  0  0  0  0  0  0  0  0  0  0
   30.1650   26.6030   48.2020 O   0  0  0  0  0  0  0  0  0  0  0  0
   29.2910   26.5380   47.1370 C   0  0  0  0  0  0  0  0  0  0  0  0
   29.0460   25.7460   46.0330 C   0  0  0  0  0  0  0  0  0  0  0  0
   27.9630   26.3130   45.3880 C   0  0  0  0  0  0  0  0  0  0  0  0
   27.5970   27.4260   46.1300 C   0  0  0  0  0  0  0  0  0  0  0  0
   28.4210   27.5000   47.1470 O   0  0  0  0  0  0  0  0  0  0  0  0
   29.6980   24.8990   45.8960 H   0  0  0  0  0  0  0  0  0  0  0  0
   27.5860   25.8640   44.4930 H   0  0  0  0  0  0  0  0  0  0  0  0
   26.4710   28.2900   45.7480 C   0  0  0  0  0  0  0  0  0  0  0  0
   26.3190   29.1660   46.3960 H   0  0  0  0  0  0  0  0  0  0  0  0
   25.7970   27.9820   44.7570 O   0  0  0  0  0  0  0  0  0  0  0  0
  1  2  1  6  0  0  0
  1  6  1  0  0  0  0
  1 23  1  0  0  0  0
  3 14  1  0  0  0  0
  3  4  2  0  0  0  0
  4  8  1  0  0  0  0
  5  4  1  0  0  0  0
  5  9  1  0  0  0  0
  6  5  2  0  0  0  0
  7  6  1  0  0  0  0
  7  3  1  0  0  0  0
 10 16  1  0  0  0  0
 11 17  1  0  0  0  0
 11 10  2  0  0  0  0
 12 11  1  0  0  0  0
 13 12  2  0  0  0  0
 13 14  1  0  0  0  0
 14 15  2  0  0  0  0
 15 10  1  0  0  0  0
 18 12  1  0  0  0  0
 19 21  1  0  0  0  0
 19  1  1  0  0  0  0
 20 19  1  0  0  0  0
 22 19  1  0  0  0  0
 23 24  1  0  0  0  0
 23 25  1  0  0  0  0
 26 23  1  0  0  0  0
 27 31  1  0  0  0  0
 27 26  1  0  0  0  0
 28 27  2  0  0  0  0
 29 28  1  0  0  0  0
 29 30  2  0  0  0  0
 30 31  1  0  0  0  0
 32 28  1  0  0  0  0
 33 29  1  0  0  0  0
 34 30  1  0  0  0  0
 34 35  1  0  0  0  0
 36 34  2  0  0  0  0
M  END
>  <minimizedAffinity>
-4.83674812

>  <minimizedRMSD>
0.661543012

$$$$
