
 OpenBabel03252513493D

 24 25  0  0  0  0  0  0  0  0999 V2000
   34.9390   29.8820   47.6230 C   0  0  0  0  0  0  0  0  0  0  0  0
   35.9010   30.3840   48.5720 C   0  0  0  0  0  0  0  0  0  0  0  0
   37.0900   30.9200   48.0740 C   0  0  0  0  0  0  0  0  0  0  0  0
   37.2560   30.9290   46.7320 N   0  0  0  0  0  0  0  0  0  0  0  0
   36.3490   30.4570   45.8700 C   0  0  0  0  0  0  0  0  0  0  0  0
   35.2100   29.9430   46.3120 N   0  0  0  0  0  0  0  0  0  0  0  0
   35.7150   30.3510   49.6370 H   0  0  0  0  0  0  0  0  0  0  0  0
   36.7120   30.5550   44.4390 C   0  0  0  0  0  0  0  0  0  0  0  0
   37.9670   31.1420   44.3010 F   0  0  0  0  0  0  0  0  0  0  0  0
   36.8360   29.2850   43.9050 F   0  0  0  0  0  0  0  0  0  0  0  0
   35.7570   31.2120   43.6890 F   0  0  0  0  0  0  0  0  0  0  0  0
   38.0920   31.4390   48.9870 C   0  0  0  0  0  0  0  0  0  0  0  0
   38.3470   30.8290   50.0480 O   0  0  0  0  0  0  0  0  0  0  0  0
   38.8320   32.6680   48.7190 C   0  0  0  0  0  0  0  0  0  0  0  0
   39.4490   32.9280   47.5530 N   0  0  0  0  0  0  0  0  0  0  0  0
   40.0200   34.0880   47.6080 O   0  0  0  0  0  0  0  0  0  0  0  0
   39.8110   34.6460   48.7990 C   0  0  0  0  0  0  0  0  0  0  0  0
   40.1720   35.6160   49.1250 H   0  0  0  0  0  0  0  0  0  0  0  0
   39.0610   33.7430   49.4930 N   0  0  0  0  0  0  0  0  0  0  0  0
   33.7680   29.3550   48.1130 O   0  0  0  0  0  0  0  0  0  0  0  0
   33.6650   28.5840   49.2620 C   0  0  0  0  0  0  0  0  0  0  0  0
   34.6590   27.6210   49.3900 F   0  0  0  0  0  0  0  0  0  0  0  0
   33.5760   29.3090   50.4310 F   0  0  0  0  0  0  0  0  0  0  0  0
   32.4430   27.8950   49.1520 F   0  0  0  0  0  0  0  0  0  0  0  0
  1 20  1  0  0  0  0
  1  2  1  0  0  0  0
  2  7  1  0  0  0  0
  3  2  2  0  0  0  0
  3 12  1  0  0  0  0
  4  3  1  0  0  0  0
  5  6  1  0  0  0  0
  5  4  2  0  0  0  0
  6  1  2  0  0  0  0
  8  5  1  0  0  0  0
  9  8  1  0  0  0  0
 10  8  1  0  0  0  0
 11  8  1  0  0  0  0
 12 13  2  0  0  0  0
 14 12  1  0  0  0  0
 14 19  1  0  0  0  0
 15 16  1  0  0  0  0
 15 14  2  0  0  0  0
 16 17  1  0  0  0  0
 17 18  1  0  0  0  0
 17 19  2  0  0  0  0
 20 21  1  0  0  0  0
 21 22  1  0  0  0  0
 21 23  1  0  0  0  0
 24 21  1  0  0  0  0
M  END
>  <minimizedAffinity>
-5.28688526

>  <minimizedRMSD>
2.78305292

$$$$
