
 OpenBabel03252514053D

 25 27  0  0  0  0  0  0  0  0999 V2000
   38.3510   31.7650   47.8150 N   0  0  0  0  0  0  0  0  0  0  0  0
   38.9640   32.9350   48.1160 C   0  0  0  0  0  0  0  0  0  0  0  0
   39.7480   33.2930   47.0590 N   0  0  0  0  0  0  0  0  0  0  0  0
   39.6050   32.3360   46.1270 C   0  0  0  0  0  0  0  0  0  0  0  0
   40.1400   32.1580   44.8720 C   0  0  0  0  0  0  0  0  0  0  0  0
   39.8200   31.0760   44.1220 N   0  0  0  0  0  0  0  0  0  0  0  0
   38.9660   30.1390   44.5810 C   0  0  0  0  0  0  0  0  0  0  0  0
   38.4450   30.3160   45.8070 N   0  0  0  0  0  0  0  0  0  0  0  0
   38.7360   31.3750   46.5820 C   0  0  0  0  0  0  0  0  0  0  0  0
   41.0370   33.1040   44.3420 N   0  0  0  0  0  0  0  0  0  0  0  0
   38.8620   33.5120   49.0360 H   0  0  0  0  0  0  0  0  0  0  0  0
   38.6880   29.2610   44.0080 H   0  0  0  0  0  0  0  0  0  0  0  0
   41.8930   33.4820   44.7830 H   0  0  0  0  0  0  0  0  0  0  0  0
   40.9560   33.5660   43.3980 H   0  0  0  0  0  0  0  0  0  0  0  0
   36.1420   30.8530   48.2320 C   0  0  0  0  0  0  0  0  0  0  0  0
   37.4590   31.0930   48.6820 C   0  0  0  0  0  0  0  0  0  0  0  0
   37.7750   30.6420   49.9640 C   0  0  0  0  0  0  0  0  0  0  0  0
   36.8140   30.0040   50.7020 N   0  0  0  0  0  0  0  0  0  0  0  0
   35.5800   29.7980   50.2340 C   0  0  0  0  0  0  0  0  0  0  0  0
   35.2440   30.2180   49.0100 N   0  0  0  0  0  0  0  0  0  0  0  0
   35.8610   31.1920   47.2360 H   0  0  0  0  0  0  0  0  0  0  0  0
   38.7810   30.8320   50.2950 H   0  0  0  0  0  0  0  0  0  0  0  0
   34.5960   29.1150   51.0590 C   0  0  0  0  0  0  0  0  0  0  0  0
   34.9050   28.3330   51.7530 H   0  0  0  0  0  0  0  0  0  0  0  0
   33.3750   29.3990   51.0030 O   0  0  0  0  0  0  0  0  0  0  0  0
  1  2  1  0  0  0  0
  1 16  1  0  0  0  0
  2 11  1  0  0  0  0
  3  2  2  0  0  0  0
  4  9  1  0  0  0  0
  4  3  1  0  0  0  0
  5  4  2  0  0  0  0
  6  7  2  0  0  0  0
  6  5  1  0  0  0  0
  7  8  1  0  0  0  0
  8  9  2  0  0  0  0
  9  1  1  0  0  0  0
 10 13  1  0  0  0  0
 10  5  1  0  0  0  0
 12  7  1  0  0  0  0
 14 10  1  0  0  0  0
 15 16  2  0  0  0  0
 15 20  1  0  0  0  0
 16 17  1  0  0  0  0
 17 22  1  0  0  0  0
 17 18  2  0  0  0  0
 19 18  1  0  0  0  0
 19 23  1  0  0  0  0
 20 19  2  0  0  0  0
 21 15  1  0  0  0  0
 23 24  1  0  0  0  0
 25 23  2  0  0  0  0
M  END
>  <minimizedAffinity>
-3.89395189

>  <minimizedRMSD>
1.4267894

$$$$
