
 OpenBabel03252510513D

 30 33  0  0  1  0  0  0  0  0999 V2000
   35.8310   30.4180   47.0240 C   0  0  0  0  0  0  0  0  0  0  0  0
   36.9740   30.5350   47.8240 C   0  0  0  0  0  0  0  0  0  0  0  0
   37.0370   29.7850   48.9850 C   0  0  0  0  0  0  0  0  0  0  0  0
   35.9600   28.9720   49.2690 N   0  0  0  0  0  0  0  0  0  0  0  0
   34.8940   28.8850   48.4880 C   0  0  0  0  0  0  0  0  0  0  0  0
   34.8220   29.6010   47.3720 N   0  0  0  0  0  0  0  0  0  0  0  0
   35.7400   30.9840   46.1120 H   0  0  0  0  0  0  0  0  0  0  0  0
   37.8980   29.8280   49.6520 H   0  0  0  0  0  0  0  0  0  0  0  0
   38.0090   31.3880   47.4450 N   0  0  0  0  0  0  0  0  0  0  0  0
   38.4140   32.4840   48.1170 C   0  0  0  0  0  0  0  0  0  0  0  0
   39.4320   33.1050   47.5080 N   0  0  0  0  0  0  0  0  0  0  0  0
   39.7040   32.3940   46.4030 C   0  0  0  0  0  0  0  0  0  0  0  0
   40.6040   32.4780   45.3670 C   0  0  0  0  0  0  0  0  0  0  0  0
   40.6860   31.6180   44.3400 N   0  0  0  0  0  0  0  0  0  0  0  0
   39.7930   30.5930   44.3570 C   0  0  0  0  0  0  0  0  0  0  0  0
   38.9100   30.4890   45.3520 N   0  0  0  0  0  0  0  0  0  0  0  0
   38.8030   31.3220   46.3810 C   0  0  0  0  0  0  0  0  0  0  0  0
   37.9550   32.8170   49.0490 H   0  0  0  0  0  0  0  0  0  0  0  0
   41.2900   33.3310   45.4260 H   0  0  0  0  0  0  0  0  0  0  0  0
   39.8120   29.8730   43.5600 H   0  0  0  0  0  0  0  0  0  0  0  0
   33.7790   27.9770   48.8960 C   0  0  2  0  0  0  0  0  0  0  0  0
   33.6600   26.7120   47.9800 C   0  0  0  0  0  0  0  0  0  0  0  0
   32.6150   27.7480   48.0280 C   0  0  2  0  0  0  0  0  0  0  0  0
   33.7490   27.7280   49.9920 H   0  0  0  0  0  0  0  0  0  0  0  0
   34.2870   26.6960   47.0710 H   0  0  0  0  0  0  0  0  0  0  0  0
   33.4760   25.7670   48.5140 H   0  0  0  0  0  0  0  0  0  0  0  0
   31.6720   27.4830   48.5890 H   0  0  0  0  0  0  0  0  0  0  0  0
   32.3980   28.7080   46.9150 C   0  0  0  0  0  0  0  0  0  0  0  0
   32.8710   29.3090   46.1680 H   0  0  0  0  0  0  0  0  0  0  0  0
   31.3020   29.1010   46.5480 O   0  0  0  0  0  0  0  0  0  0  0  0
  1  6  2  0  0  0  0
  1  2  1  0  0  0  0
  2  3  2  0  0  0  0
  3  4  1  0  0  0  0
  3  8  1  0  0  0  0
  5 21  1  0  0  0  0
  5  4  2  0  0  0  0
  6  5  1  0  0  0  0
  7  1  1  0  0  0  0
  9  2  1  0  0  0  0
  9 10  1  0  0  0  0
 10 18  1  0  0  0  0
 11 10  2  0  0  0  0
 12 11  1  0  0  0  0
 13 19  1  0  0  0  0
 13 12  2  0  0  0  0
 14 15  2  0  0  0  0
 14 13  1  0  0  0  0
 15 16  1  0  0  0  0
 16 17  2  0  0  0  0
 17 12  1  0  0  0  0
 17  9  1  0  0  0  0
 20 15  1  0  0  0  0
 21 24  1  1  0  0  0
 22 23  1  0  0  0  0
 22 26  1  0  0  0  0
 22 21  1  0  0  0  0
 23 27  1  1  0  0  0
 23 21  1  0  0  0  0
 25 22  1  0  0  0  0
 28 23  1  0  0  0  0
 29 28  1  0  0  0  0
 30 28  2  0  0  0  0
M  END
>  <minimizedAffinity>
-5.40657663

>  <minimizedRMSD>
0.5116871

$$$$
