
     RDKit          3D

 37 41  0  0  0  0  0  0  0  0999 V2000
   63.5170   56.9600   27.1390 C   0  0  0  0  0  0  0  0  0  0  0  0
   62.2080   57.4120   27.3620 C   0  0  0  0  0  0  0  0  0  0  0  0
   61.9800   58.1090   28.5590 C   0  0  0  0  0  0  0  0  0  0  0  0
   63.0230   58.2950   29.4000 N   0  0  0  0  0  0  0  0  0  0  0  0
   64.2590   57.8520   29.1550 C   0  0  0  0  0  0  0  0  0  0  0  0
   64.5160   57.1790   28.0200 N   0  0  0  0  0  0  0  0  0  0  0  0
   65.3050   58.0870   30.0920 N   0  0  0  0  0  0  0  0  0  0  0  0
   66.1750   57.1050   30.4090 C   0  0  0  0  0  0  0  0  0  0  0  0
   67.0790   57.5430   31.3090 N   0  0  0  0  0  0  0  0  0  0  0  0
   66.7900   58.8200   31.5750 C   0  0  0  0  0  0  0  0  0  0  0  0
   67.2670   59.8480   32.3620 C   0  0  0  0  0  0  0  0  0  0  0  0
   66.7200   61.0790   32.4030 N   0  0  0  0  0  0  0  0  0  0  0  0
   65.6440   61.3160   31.6280 C   0  0  0  0  0  0  0  0  0  0  0  0
   65.1080   60.3620   30.8230 N   0  0  0  0  0  0  0  0  0  0  0  0
   65.6850   59.1390   30.8090 C   0  0  0  0  0  0  0  0  0  0  0  0
   61.2880   57.0760   26.2940 C   0  0  0  0  0  0  0  0  0  0  0  0
   60.8680   55.7460   26.2840 C   0  0  0  0  0  0  0  0  0  0  0  0
   59.9960   55.2200   25.3600 C   0  0  0  0  0  0  0  0  0  0  0  0
   59.5010   56.0540   24.3770 C   0  0  0  0  0  0  0  0  0  0  0  0
   59.8950   57.3640   24.3610 C   0  0  0  0  0  0  0  0  0  0  0  0
   59.4550   58.2650   23.4190 C   0  0  0  0  0  0  0  0  0  0  0  0
   59.8540   59.5910   23.3990 C   0  0  0  0  0  0  0  0  0  0  0  0
   60.7400   60.0580   24.3660 C   0  0  0  0  0  0  0  0  0  0  0  0
   61.2020   59.1810   25.3260 C   0  0  0  0  0  0  0  0  0  0  0  0
   60.7710   57.8710   25.2980 C   0  0  0  0  0  0  0  0  0  0  0  0
   63.7372   56.4076   26.2136 H   0  0  0  0  0  0  0  0  0  0  0  0
   60.9796   58.4937   28.8065 H   0  0  0  0  0  0  0  0  0  0  0  0
   66.1502   56.0878   29.9910 H   0  0  0  0  0  0  0  0  0  0  0  0
   68.1459   59.6511   32.9935 H   0  0  0  0  0  0  0  0  0  0  0  0
   65.1841   62.3151   31.6476 H   0  0  0  0  0  0  0  0  0  0  0  0
   61.2587   55.0760   27.0640 H   0  0  0  0  0  0  0  0  0  0  0  0
   59.7002   54.1614   25.4028 H   0  0  0  0  0  0  0  0  0  0  0  0
   58.8014   55.6713   23.6193 H   0  0  0  0  0  0  0  0  0  0  0  0
   58.7541   57.9162   22.6463 H   0  0  0  0  0  0  0  0  0  0  0  0
   59.4730   60.2715   22.6233 H   0  0  0  0  0  0  0  0  0  0  0  0
   61.0663   61.1085   24.3648 H   0  0  0  0  0  0  0  0  0  0  0  0
   61.9034   59.5215   26.1019 H   0  0  0  0  0  0  0  0  0  0  0  0
  1  2  2  0
  1  6  1  0
  2  3  1  0
  3  4  2  0
  5  4  1  0
  5  7  1  0
  6  5  2  0
  7  8  1  0
  7 15  1  0
  8  9  2  0
  9 10  1  0
 10 11  2  0
 11 12  1  0
 13 12  2  0
 14 13  1  0
 15 14  2  0
 15 10  1  0
 16  2  1  0
 17 16  2  0
 18 17  1  0
 19 18  2  0
 20 19  1  0
 20 25  2  0
 21 20  1  0
 22 21  2  0
 22 23  1  0
 23 24  2  0
 25 24  1  0
 25 16  1  0
  1 26  1  0
  3 27  1  0
  8 28  1  0
 11 29  1  0
 13 30  1  0
 17 31  1  0
 18 32  1  0
 19 33  1  0
 21 34  1  0
 22 35  1  0
 23 36  1  0
 24 37  1  0
M  END
>  <Score>  (1) 
-7.72499

$$$$
