
     RDKit          3D

 51 54  0  0  0  0  0  0  0  0999 V2000
   60.9380   58.7360   26.1280 N   0  0  0  0  0  0  0  0  0  0  0  0
   61.2020   58.5870   24.7130 C   0  0  0  0  0  0  0  0  0  0  0  0
   61.1740   59.8700   23.9550 C   0  0  0  0  0  0  0  0  0  0  0  0
   59.7250   60.3090   24.1210 C   0  0  0  0  0  0  0  0  0  0  0  0
   59.5960   60.7740   25.5280 C   0  0  0  0  0  0  0  0  0  0  0  0
   60.2420   59.9290   26.5460 C   0  0  0  0  0  0  0  0  0  0  0  0
   60.1340   60.3050   27.8860 N   0  0  0  0  0  0  0  0  0  0  0  0
   61.2640   60.9250   28.5640 C   0  0  0  0  0  0  0  0  0  0  0  0
   60.8590   62.3650   28.9140 C   0  0  0  0  0  0  0  0  0  0  0  0
   59.5660   62.3440   29.4980 N   0  0  0  0  0  0  0  0  0  0  0  0
   59.0590   61.0760   29.9190 C   0  0  0  0  0  0  0  0  0  0  0  0
   58.9570   60.1410   28.7400 C   0  0  0  0  0  0  0  0  0  0  0  0
   61.3020   57.7220   26.9270 C   0  0  0  0  0  0  0  0  0  0  0  0
   64.8800   56.9650   26.4200 C   0  0  0  0  0  0  0  0  0  0  0  0
   63.5130   57.1720   26.1680 C   0  0  0  0  0  0  0  0  0  0  0  0
   62.6910   57.5030   27.1980 C   0  0  0  0  0  0  0  0  0  0  0  0
   63.2540   57.6060   28.4020 N   0  0  0  0  0  0  0  0  0  0  0  0
   64.5660   57.4080   28.6590 C   0  0  0  0  0  0  0  0  0  0  0  0
   65.3600   57.0870   27.6410 N   0  0  0  0  0  0  0  0  0  0  0  0
   65.0520   57.5470   30.0030 N   0  0  0  0  0  0  0  0  0  0  0  0
   66.2030   56.9420   30.3940 C   0  0  0  0  0  0  0  0  0  0  0  0
   66.6780   57.0710   31.6860 C   0  0  0  0  0  0  0  0  0  0  0  0
   65.9460   57.8420   32.5890 C   0  0  0  0  0  0  0  0  0  0  0  0
   66.3490   58.0410   33.9470 N   0  0  0  0  0  0  0  0  0  0  0  0
   64.8080   58.4250   32.1540 N   0  0  0  0  0  0  0  0  0  0  0  0
   64.3510   58.2910   30.8830 C   0  0  0  0  0  0  0  0  0  0  0  0
   63.2780   58.8520   30.5050 O   0  0  0  0  0  0  0  0  0  0  0  0
   62.1975   58.1350   24.5921 H   0  0  0  0  0  0  0  0  0  0  0  0
   60.3993   57.9564   24.3031 H   0  0  0  0  0  0  0  0  0  0  0  0
   61.4245   59.7130   22.8955 H   0  0  0  0  0  0  0  0  0  0  0  0
   61.9040   60.6109   24.3130 H   0  0  0  0  0  0  0  0  0  0  0  0
   59.4917   61.1281   23.4249 H   0  0  0  0  0  0  0  0  0  0  0  0
   59.0275   59.4869   23.9028 H   0  0  0  0  0  0  0  0  0  0  0  0
   59.0515   61.6927   25.7917 H   0  0  0  0  0  0  0  0  0  0  0  0
   61.5026   60.3682   29.4822 H   0  0  0  0  0  0  0  0  0  0  0  0
   62.1542   60.9191   27.9179 H   0  0  0  0  0  0  0  0  0  0  0  0
   61.5807   62.7896   29.6274 H   0  0  0  0  0  0  0  0  0  0  0  0
   60.8498   62.9836   28.0045 H   0  0  0  0  0  0  0  0  0  0  0  0
   59.5896   62.9580   30.3246 H   0  0  0  0  0  0  0  0  0  0  0  0
   59.7379   60.6435   30.6686 H   0  0  0  0  0  0  0  0  0  0  0  0
   58.0590   61.2152   30.3556 H   0  0  0  0  0  0  0  0  0  0  0  0
   58.0499   60.3750   28.1635 H   0  0  0  0  0  0  0  0  0  0  0  0
   58.9050   59.1023   29.0984 H   0  0  0  0  0  0  0  0  0  0  0  0
   60.8084   57.8851   27.8964 H   0  0  0  0  0  0  0  0  0  0  0  0
   61.0043   56.8268   26.3613 H   0  0  0  0  0  0  0  0  0  0  0  0
   65.5539   56.6993   25.5922 H   0  0  0  0  0  0  0  0  0  0  0  0
   63.1131   57.0673   25.1486 H   0  0  0  0  0  0  0  0  0  0  0  0
   66.7682   56.3378   29.6691 H   0  0  0  0  0  0  0  0  0  0  0  0
   67.6113   56.5772   31.9946 H   0  0  0  0  0  0  0  0  0  0  0  0
   65.7736   58.6197   34.5754 H   0  0  0  0  0  0  0  0  0  0  0  0
   67.2146   57.6056   34.2964 H   0  0  0  0  0  0  0  0  0  0  0  0
  1  6  1  0
  1 13  1  0
  2  1  1  0
  3  4  1  0
  3  2  1  0
  4  5  1  0
  5  6  2  0
  6  7  1  0
  7  8  1  0
  7 12  1  0
  8  9  1  0
  9 10  1  0
 10 11  1  0
 12 11  1  0
 13 16  1  0
 14 19  2  0
 15 14  1  0
 15 16  2  0
 16 17  1  0
 17 18  2  0
 18 20  1  0
 19 18  1  0
 20 21  1  0
 20 26  1  0
 21 22  2  0
 22 23  1  0
 23 24  1  0
 25 23  2  0
 26 25  1  0
 27 26  2  0
  2 28  1  0
  2 29  1  0
  3 30  1  0
  3 31  1  0
  4 32  1  0
  4 33  1  0
  5 34  1  0
  8 35  1  0
  8 36  1  0
  9 37  1  0
  9 38  1  0
 10 39  1  0
 11 40  1  0
 11 41  1  0
 12 42  1  0
 12 43  1  0
 13 44  1  0
 13 45  1  0
 14 46  1  0
 15 47  1  0
 21 48  1  0
 22 49  1  0
 24 50  1  0
 24 51  1  0
M  END
>  <Score>  (1) 
-7.01318

$$$$
