
     RDKit          3D

 40 43  0  0  0  0  0  0  0  0999 V2000
   61.3300   57.0860   26.3160 C   0  0  0  0  0  0  0  0  0  0  0  0
   60.9150   55.7520   26.3300 C   0  0  0  0  0  0  0  0  0  0  0  0
   60.0290   55.2140   25.4180 C   0  0  0  0  0  0  0  0  0  0  0  0
   59.5240   56.0260   24.4400 C   0  0  0  0  0  0  0  0  0  0  0  0
   59.9120   57.3340   24.4030 C   0  0  0  0  0  0  0  0  0  0  0  0
   59.4500   58.2200   23.4500 C   0  0  0  0  0  0  0  0  0  0  0  0
   59.8400   59.5410   23.4080 C   0  0  0  0  0  0  0  0  0  0  0  0
   60.7310   60.0240   24.3490 C   0  0  0  0  0  0  0  0  0  0  0  0
   61.2160   59.1710   25.3180 C   0  0  0  0  0  0  0  0  0  0  0  0
   60.7960   57.8590   25.3170 C   0  0  0  0  0  0  0  0  0  0  0  0
   63.5840   56.9990   27.1080 C   0  0  0  0  0  0  0  0  0  0  0  0
   62.2620   57.4360   27.3620 C   0  0  0  0  0  0  0  0  0  0  0  0
   62.0640   58.1230   28.5600 C   0  0  0  0  0  0  0  0  0  0  0  0
   63.1020   58.3290   29.3880 N   0  0  0  0  0  0  0  0  0  0  0  0
   64.3490   57.9010   29.1210 C   0  0  0  0  0  0  0  0  0  0  0  0
   64.5940   57.2300   27.9730 N   0  0  0  0  0  0  0  0  0  0  0  0
   65.4060   58.1510   30.0390 N   0  0  0  0  0  0  0  0  0  0  0  0
   66.3390   57.1170   30.3890 C   0  0  0  0  0  0  0  0  0  0  0  0
   66.1970   56.8560   31.8840 C   0  0  0  0  0  0  0  0  0  0  0  0
   65.5470   57.9350   32.5660 N   0  0  0  0  0  0  0  0  0  0  0  0
   65.8920   59.2490   32.0930 C   0  0  0  0  0  0  0  0  0  0  0  0
   65.5490   59.4640   30.6350 C   0  0  0  0  0  0  0  0  0  0  0  0
   61.3174   55.0923   27.1128 H   0  0  0  0  0  0  0  0  0  0  0  0
   59.7356   54.1555   25.4766 H   0  0  0  0  0  0  0  0  0  0  0  0
   58.8168   55.6313   23.6956 H   0  0  0  0  0  0  0  0  0  0  0  0
   58.7406   57.8559   22.6923 H   0  0  0  0  0  0  0  0  0  0  0  0
   59.4441   60.2089   22.6288 H   0  0  0  0  0  0  0  0  0  0  0  0
   61.0492   61.0767   24.3248 H   0  0  0  0  0  0  0  0  0  0  0  0
   61.9251   59.5316   26.0777 H   0  0  0  0  0  0  0  0  0  0  0  0
   63.7950   56.4539   26.1762 H   0  0  0  0  0  0  0  0  0  0  0  0
   61.0631   58.4942   28.8254 H   0  0  0  0  0  0  0  0  0  0  0  0
   66.1122   56.2003   29.8249 H   0  0  0  0  0  0  0  0  0  0  0  0
   67.3667   57.4251   30.1462 H   0  0  0  0  0  0  0  0  0  0  0  0
   65.6061   55.9395   32.0283 H   0  0  0  0  0  0  0  0  0  0  0  0
   67.2082   56.7532   32.3047 H   0  0  0  0  0  0  0  0  0  0  0  0
   64.5297   57.8139   32.4592 H   0  0  0  0  0  0  0  0  0  0  0  0
   65.3470   59.9917   32.6941 H   0  0  0  0  0  0  0  0  0  0  0  0
   66.9820   59.3579   32.1931 H   0  0  0  0  0  0  0  0  0  0  0  0
   66.3550   60.0209   30.1348 H   0  0  0  0  0  0  0  0  0  0  0  0
   64.6224   60.0474   30.5301 H   0  0  0  0  0  0  0  0  0  0  0  0
  1  2  2  0
  1 12  1  0
  3  2  1  0
  4  3  2  0
  5  4  1  0
  5 10  2  0
  6  5  1  0
  7  6  2  0
  7  8  1  0
  8  9  2  0
 10  9  1  0
 10  1  1  0
 11 12  2  0
 11 16  1  0
 12 13  1  0
 13 14  2  0
 15 14  1  0
 15 17  1  0
 16 15  2  0
 17 18  1  0
 17 22  1  0
 18 19  1  0
 19 20  1  0
 21 20  1  0
 22 21  1  0
  2 23  1  0
  3 24  1  0
  4 25  1  0
  6 26  1  0
  7 27  1  0
  8 28  1  0
  9 29  1  0
 11 30  1  0
 13 31  1  0
 18 32  1  0
 18 33  1  0
 19 34  1  0
 19 35  1  0
 20 36  1  0
 21 37  1  0
 21 38  1  0
 22 39  1  0
 22 40  1  0
M  END
>  <Score>  (1) 
-7.28545

$$$$
