
     RDKit          3D

 41 44  0  0  1  0  0  0  0  0999 V2000
   61.0960   58.3940   26.7290 C   0  0  0  0  0  0  0  0  0  0  0  0
   60.3630   59.5970   26.8230 C   0  0  0  0  0  0  0  0  0  0  0  0
   60.5320   60.3320   28.0010 C   0  0  0  0  0  0  0  0  0  0  0  0
   61.3770   59.8630   28.9790 N   0  0  0  0  0  0  0  0  0  0  0  0
   62.0440   58.7130   28.8270 C   0  0  0  0  0  0  0  0  0  0  0  0
   61.9020   57.9950   27.7160 N   0  0  0  0  0  0  0  0  0  0  0  0
   62.9010   58.2600   29.8550 N   0  0  0  0  0  0  0  0  0  0  0  0
   63.8410   57.2180   29.6030 C   0  0  0  0  0  0  0  0  0  0  0  0
   63.5510   56.4020   28.6490 N   0  0  0  0  0  0  0  0  0  0  0  0
   64.9980   57.1960   30.4380 N   0  0  0  0  0  0  0  0  0  0  0  0
   64.1470   55.6220   28.3540 H   0  0  0  0  0  0  0  0  0  0  0  0
   59.7690   61.6090   28.1650 C   0  0  2  0  0  0  0  0  0  0  0  0
   60.5070   62.8710   28.5390 C   0  0  0  0  0  0  0  0  0  0  0  0
   59.5710   62.1830   29.5010 C   0  0  1  0  0  0  0  0  0  0  0  0
   58.2520   62.6990   29.8350 C   0  0  0  0  0  0  0  0  0  0  0  0
   57.6830   62.1360   30.9840 C   0  0  0  0  0  0  0  0  0  0  0  0
   56.4520   62.6970   31.1630 N   0  0  0  0  0  0  0  0  0  0  0  0
   56.1980   63.5920   30.1900 C   0  0  0  0  0  0  0  0  0  0  0  0
   55.1970   64.4590   29.8100 C   0  0  0  0  0  0  0  0  0  0  0  0
   55.3400   65.2530   28.6820 C   0  0  0  0  0  0  0  0  0  0  0  0
   56.4770   65.2270   27.8780 C   0  0  0  0  0  0  0  0  0  0  0  0
   57.4820   64.3580   28.2590 C   0  0  0  0  0  0  0  0  0  0  0  0
   57.3140   63.5810   29.3830 C   0  0  0  0  0  0  0  0  0  0  0  0
   60.9190   57.6040   25.4560 C   0  0  0  0  0  0  0  0  0  0  0  0
   59.7280   56.9910   25.3640 F   0  0  0  0  0  0  0  0  0  0  0  0
   61.0980   58.5200   24.3930 F   0  0  0  0  0  0  0  0  0  0  0  0
   61.9940   56.7200   25.3190 F   0  0  0  0  0  0  0  0  0  0  0  0
   59.6971   59.9368   26.0160 H   0  0  0  0  0  0  0  0  0  0  0  0
   62.8464   58.6849   30.7917 H   0  0  0  0  0  0  0  0  0  0  0  0
   65.7145   56.4679   30.3061 H   0  0  0  0  0  0  0  0  0  0  0  0
   65.1166   57.9082   31.1726 H   0  0  0  0  0  0  0  0  0  0  0  0
   59.0946   61.3169   27.3465 H   0  0  0  0  0  0  0  0  0  0  0  0
   61.5934   62.8486   28.7100 H   0  0  0  0  0  0  0  0  0  0  0  0
   60.6011   63.8831   28.1185 H   0  0  0  0  0  0  0  0  0  0  0  0
   59.6903   61.8514   30.5430 H   0  0  0  0  0  0  0  0  0  0  0  0
   58.1469   61.3752   31.6290 H   0  0  0  0  0  0  0  0  0  0  0  0
   55.8082   62.4680   31.9337 H   0  0  0  0  0  0  0  0  0  0  0  0
   54.2753   64.5221   30.4071 H   0  0  0  0  0  0  0  0  0  0  0  0
   54.5193   65.9332   28.4103 H   0  0  0  0  0  0  0  0  0  0  0  0
   56.5703   65.8646   26.9865 H   0  0  0  0  0  0  0  0  0  0  0  0
   58.4079   64.2878   27.6693 H   0  0  0  0  0  0  0  0  0  0  0  0
  1  2  2  0
  1  6  1  0
  2  3  1  0
  3 12  1  0
  3  4  2  0
  5  4  1  0
  5  7  1  0
  6  5  2  0
  8  7  1  0
  8 10  1  0
  9  8  2  0
 11  9  1  0
 12 13  1  0
 12 14  1  0
 13 14  1  0
 14 15  1  0
 15 16  2  0
 16 17  1  0
 18 17  1  0
 19 18  2  0
 20 19  1  0
 21 22  1  0
 21 20  2  0
 22 23  2  0
 23 15  1  0
 23 18  1  0
 24  1  1  0
 25 24  1  0
 26 24  1  0
 27 24  1  0
  2 28  1  0
  7 29  1  0
 10 30  1  0
 10 31  1  0
 12 32  1  6
 13 33  1  0
 13 34  1  0
 14 35  1  1
 16 36  1  0
 17 37  1  0
 19 38  1  0
 20 39  1  0
 21 40  1  0
 22 41  1  0
M  END
>  <Score>  (1) 
-7.79783

$$$$
