
     RDKit          3D

 48 52  0  0  0  0  0  0  0  0999 V2000
   63.5190   56.9570   27.1510 C   0  0  0  0  0  0  0  0  0  0  0  0
   62.1980   57.4480   27.3710 C   0  0  0  0  0  0  0  0  0  0  0  0
   61.9980   58.1760   28.5420 C   0  0  0  0  0  0  0  0  0  0  0  0
   63.0210   58.3800   29.3890 N   0  0  0  0  0  0  0  0  0  0  0  0
   64.2500   57.9110   29.1670 C   0  0  0  0  0  0  0  0  0  0  0  0
   64.5080   57.1970   28.0470 N   0  0  0  0  0  0  0  0  0  0  0  0
   61.2870   57.0920   26.3160 C   0  0  0  0  0  0  0  0  0  0  0  0
   60.8750   55.7720   26.3150 C   0  0  0  0  0  0  0  0  0  0  0  0
   60.0050   55.2280   25.3920 C   0  0  0  0  0  0  0  0  0  0  0  0
   59.5060   56.0350   24.4040 C   0  0  0  0  0  0  0  0  0  0  0  0
   59.8940   57.3360   24.3830 C   0  0  0  0  0  0  0  0  0  0  0  0
   59.4430   58.2240   23.4240 C   0  0  0  0  0  0  0  0  0  0  0  0
   59.8280   59.5490   23.3890 C   0  0  0  0  0  0  0  0  0  0  0  0
   60.7030   60.0340   24.3420 C   0  0  0  0  0  0  0  0  0  0  0  0
   61.1800   59.1780   25.3200 C   0  0  0  0  0  0  0  0  0  0  0  0
   60.7610   57.8740   25.3030 C   0  0  0  0  0  0  0  0  0  0  0  0
   65.3140   58.1650   30.1230 C   0  0  0  0  0  0  0  0  0  0  0  0
   66.0380   57.1040   30.6570 C   0  0  0  0  0  0  0  0  0  0  0  0
   67.0510   57.3950   31.5720 C   0  0  0  0  0  0  0  0  0  0  0  0
   67.3410   58.6800   31.9460 N   0  0  0  0  0  0  0  0  0  0  0  0
   66.6090   59.6400   31.3940 C   0  0  0  0  0  0  0  0  0  0  0  0
   65.6080   59.4210   30.4970 N   0  0  0  0  0  0  0  0  0  0  0  0
   66.8660   60.9950   31.7460 N   0  0  0  0  0  0  0  0  0  0  0  0
   68.2180   61.5160   31.8140 C   0  0  0  0  0  0  0  0  0  0  0  0
   68.3130   62.6010   30.7790 C   0  0  0  0  0  0  0  0  0  0  0  0
   67.1690   63.4480   30.6820 N   0  0  0  0  0  0  0  0  0  0  0  0
   66.2390   63.3630   31.7750 C   0  0  0  0  0  0  0  0  0  0  0  0
   65.8100   61.9400   32.0590 C   0  0  0  0  0  0  0  0  0  0  0  0
   63.7382   56.3762   26.2429 H   0  0  0  0  0  0  0  0  0  0  0  0
   61.0028   58.5837   28.7731 H   0  0  0  0  0  0  0  0  0  0  0  0
   61.2668   55.1114   27.1025 H   0  0  0  0  0  0  0  0  0  0  0  0
   59.7180   54.1676   25.4486 H   0  0  0  0  0  0  0  0  0  0  0  0
   58.8105   55.6401   23.6488 H   0  0  0  0  0  0  0  0  0  0  0  0
   58.7466   57.8584   22.6550 H   0  0  0  0  0  0  0  0  0  0  0  0
   59.4397   60.2163   22.6054 H   0  0  0  0  0  0  0  0  0  0  0  0
   61.0170   61.0881   24.3239 H   0  0  0  0  0  0  0  0  0  0  0  0
   61.8779   59.5360   26.0912 H   0  0  0  0  0  0  0  0  0  0  0  0
   65.8186   56.0660   30.3666 H   0  0  0  0  0  0  0  0  0  0  0  0
   67.6332   56.5683   32.0052 H   0  0  0  0  0  0  0  0  0  0  0  0
   68.4161   61.9277   32.8146 H   0  0  0  0  0  0  0  0  0  0  0  0
   68.9580   60.7239   31.6271 H   0  0  0  0  0  0  0  0  0  0  0  0
   69.1823   63.2293   31.0231 H   0  0  0  0  0  0  0  0  0  0  0  0
   68.3992   62.0910   29.8082 H   0  0  0  0  0  0  0  0  0  0  0  0
   67.4997   64.4216   30.6222 H   0  0  0  0  0  0  0  0  0  0  0  0
   66.7154   63.7748   32.6769 H   0  0  0  0  0  0  0  0  0  0  0  0
   65.3413   63.9343   31.4963 H   0  0  0  0  0  0  0  0  0  0  0  0
   64.9263   61.7041   31.4480 H   0  0  0  0  0  0  0  0  0  0  0  0
   65.5777   61.8563   33.1309 H   0  0  0  0  0  0  0  0  0  0  0  0
  1  2  2  0
  1  6  1  0
  2  3  1  0
  3  4  2  0
  5  4  1  0
  5 17  1  0
  6  5  2  0
  7  2  1  0
  8  7  2  0
  9  8  1  0
 10  9  2  0
 11 10  1  0
 11 16  2  0
 12 11  1  0
 13 12  2  0
 13 14  1  0
 14 15  2  0
 16 15  1  0
 16  7  1  0
 17 22  1  0
 17 18  2  0
 18 19  1  0
 19 20  2  0
 21 23  1  0
 21 20  1  0
 22 21  2  0
 23 24  1  0
 23 28  1  0
 25 24  1  0
 26 25  1  0
 26 27  1  0
 27 28  1  0
  1 29  1  0
  3 30  1  0
  8 31  1  0
  9 32  1  0
 10 33  1  0
 12 34  1  0
 13 35  1  0
 14 36  1  0
 15 37  1  0
 18 38  1  0
 19 39  1  0
 24 40  1  0
 24 41  1  0
 25 42  1  0
 25 43  1  0
 26 44  1  0
 27 45  1  0
 27 46  1  0
 28 47  1  0
 28 48  1  0
M  END
>  <Score>  (1) 
-7.59149

$$$$
