
     RDKit          3D

 51 55  0  0  0  0  0  0  0  0999 V2000
   65.2800   56.7830   26.0000 C   0  0  0  0  0  0  0  0  0  0  0  0
   63.9370   56.6840   25.5550 C   0  0  0  0  0  0  0  0  0  0  0  0
   62.9150   56.8410   26.4640 C   0  0  0  0  0  0  0  0  0  0  0  0
   63.2350   57.0890   27.7710 N   0  0  0  0  0  0  0  0  0  0  0  0
   64.5250   57.1770   28.1570 C   0  0  0  0  0  0  0  0  0  0  0  0
   65.5490   57.0320   27.3130 N   0  0  0  0  0  0  0  0  0  0  0  0
   64.7790   57.4490   29.5950 C   0  0  0  0  0  0  0  0  0  0  0  0
   63.9410   58.0180   30.5070 C   0  0  0  0  0  0  0  0  0  0  0  0
   64.4230   58.1530   31.7750 C   0  0  0  0  0  0  0  0  0  0  0  0
   65.6970   57.7130   32.0320 C   0  0  0  0  0  0  0  0  0  0  0  0
   66.2410   57.0980   30.4890 S   0  0  0  0  0  0  0  0  0  0  0  0
   66.4500   57.7200   33.2150 N   0  0  0  0  0  0  0  0  0  0  0  0
   67.6550   57.0630   33.3440 C   0  0  0  0  0  0  0  0  0  0  0  0
   67.8750   55.9200   32.7780 N   0  0  0  0  0  0  0  0  0  0  0  0
   68.6680   57.7120   34.1470 N   0  0  0  0  0  0  0  0  0  0  0  0
   67.1750   55.4390   32.2360 H   0  0  0  0  0  0  0  0  0  0  0  0
   61.5230   56.7440   26.0430 C   0  0  0  0  0  0  0  0  0  0  0  0
   60.7740   55.6120   26.0240 C   0  0  0  0  0  0  0  0  0  0  0  0
   59.5190   56.0190   25.5460 C   0  0  0  0  0  0  0  0  0  0  0  0
   59.5890   57.3750   25.3070 C   0  0  0  0  0  0  0  0  0  0  0  0
   60.8200   57.7300   25.6290 O   0  0  0  0  0  0  0  0  0  0  0  0
   58.6880   58.3460   24.8330 N   0  0  0  0  0  0  0  0  0  0  0  0
   59.0980   59.6260   24.8630 C   0  0  0  0  0  0  0  0  0  0  0  0
   58.0880   60.4180   24.3950 C   0  0  0  0  0  0  0  0  0  0  0  0
   57.0580   59.5760   24.0780 N   0  0  0  0  0  0  0  0  0  0  0  0
   57.4380   58.3140   24.3500 C   0  0  0  0  0  0  0  0  0  0  0  0
   56.7190   57.0960   24.1890 N   0  0  0  0  0  0  0  0  0  0  0  0
   55.3620   56.8210   23.7210 C   0  0  0  0  0  0  0  0  0  0  0  0
   55.4870   55.5130   22.9300 C   0  0  0  0  0  0  0  0  0  0  0  0
   55.6180   54.4680   23.8080 O   0  0  0  0  0  0  0  0  0  0  0  0
   56.5920   54.6900   24.7550 C   0  0  0  0  0  0  0  0  0  0  0  0
   57.4450   55.8940   24.5400 C   0  0  0  0  0  0  0  0  0  0  0  0
   66.1061   56.6586   25.2844 H   0  0  0  0  0  0  0  0  0  0  0  0
   63.7146   56.4842   24.4964 H   0  0  0  0  0  0  0  0  0  0  0  0
   62.9287   58.3509   30.2341 H   0  0  0  0  0  0  0  0  0  0  0  0
   63.8083   58.6017   32.5692 H   0  0  0  0  0  0  0  0  0  0  0  0
   66.0856   58.2405   34.0256 H   0  0  0  0  0  0  0  0  0  0  0  0
   69.5869   57.2651   34.2767 H   0  0  0  0  0  0  0  0  0  0  0  0
   68.4705   58.6211   34.5892 H   0  0  0  0  0  0  0  0  0  0  0  0
   61.0830   54.5982   26.3186 H   0  0  0  0  0  0  0  0  0  0  0  0
   58.6410   55.3748   25.3906 H   0  0  0  0  0  0  0  0  0  0  0  0
   60.0822   59.9769   25.2069 H   0  0  0  0  0  0  0  0  0  0  0  0
   58.1007   61.5132   24.2935 H   0  0  0  0  0  0  0  0  0  0  0  0
   54.6750   56.6973   24.5711 H   0  0  0  0  0  0  0  0  0  0  0  0
   54.9551   57.6414   23.1116 H   0  0  0  0  0  0  0  0  0  0  0  0
   54.5866   55.3669   22.3153 H   0  0  0  0  0  0  0  0  0  0  0  0
   56.3694   55.5592   22.2749 H   0  0  0  0  0  0  0  0  0  0  0  0
   56.0955   54.7982   25.7306 H   0  0  0  0  0  0  0  0  0  0  0  0
   57.2718   53.8276   24.6916 H   0  0  0  0  0  0  0  0  0  0  0  0
   58.1525   55.6718   23.7276 H   0  0  0  0  0  0  0  0  0  0  0  0
   57.9392   56.0996   25.5010 H   0  0  0  0  0  0  0  0  0  0  0  0
  1  6  2  0
  2  1  1  0
  2  3  2  0
  3  4  1  0
  4  5  2  0
  5  7  1  0
  6  5  1  0
  7 11  1  0
  7  8  2  0
  8  9  1  0
  9 10  2  0
 10 12  1  0
 11 10  1  0
 12 13  1  0
 13 15  1  0
 14 13  2  0
 16 14  1  0
 17  3  1  0
 18 17  2  0
 19 18  1  0
 20 19  2  0
 20 21  1  0
 21 17  1  0
 22 23  1  0
 22 20  1  0
 24 23  2  0
 25 26  2  0
 25 24  1  0
 26 22  1  0
 27 26  1  0
 27 32  1  0
 28 27  1  0
 29 28  1  0
 29 30  1  0
 30 31  1  0
 32 31  1  0
  1 33  1  0
  2 34  1  0
  8 35  1  0
  9 36  1  0
 12 37  1  0
 15 38  1  0
 15 39  1  0
 18 40  1  0
 19 41  1  0
 23 42  1  0
 24 43  1  0
 28 44  1  0
 28 45  1  0
 29 46  1  0
 29 47  1  0
 31 48  1  0
 31 49  1  0
 32 50  1  0
 32 51  1  0
M  END
>  <Score>  (1) 
-7.56499

$$$$
