
     RDKit          3D

 44 48  0  0  0  0  0  0  0  0999 V2000
   63.5150   56.9540   27.1290 C   0  0  0  0  0  0  0  0  0  0  0  0
   62.1940   57.4380   27.3570 C   0  0  0  0  0  0  0  0  0  0  0  0
   61.9950   58.1600   28.5310 C   0  0  0  0  0  0  0  0  0  0  0  0
   63.0200   58.3640   29.3740 N   0  0  0  0  0  0  0  0  0  0  0  0
   64.2500   57.9040   29.1450 C   0  0  0  0  0  0  0  0  0  0  0  0
   64.5040   57.1980   28.0250 N   0  0  0  0  0  0  0  0  0  0  0  0
   61.2760   57.0830   26.3030 C   0  0  0  0  0  0  0  0  0  0  0  0
   60.8620   55.7620   26.3020 C   0  0  0  0  0  0  0  0  0  0  0  0
   59.9910   55.2230   25.3840 C   0  0  0  0  0  0  0  0  0  0  0  0
   59.4880   56.0360   24.3950 C   0  0  0  0  0  0  0  0  0  0  0  0
   59.8800   57.3360   24.3740 C   0  0  0  0  0  0  0  0  0  0  0  0
   59.4250   58.2230   23.4180 C   0  0  0  0  0  0  0  0  0  0  0  0
   59.8150   59.5530   23.3830 C   0  0  0  0  0  0  0  0  0  0  0  0
   60.6930   60.0320   24.3350 C   0  0  0  0  0  0  0  0  0  0  0  0
   61.1760   59.1820   25.3130 C   0  0  0  0  0  0  0  0  0  0  0  0
   60.7500   57.8700   25.2940 C   0  0  0  0  0  0  0  0  0  0  0  0
   65.3140   58.1640   30.1050 C   0  0  0  0  0  0  0  0  0  0  0  0
   66.0060   57.0990   30.6730 C   0  0  0  0  0  0  0  0  0  0  0  0
   67.0190   57.3910   31.5880 C   0  0  0  0  0  0  0  0  0  0  0  0
   67.3390   58.6580   31.9280 N   0  0  0  0  0  0  0  0  0  0  0  0
   66.6360   59.6400   31.3450 C   0  0  0  0  0  0  0  0  0  0  0  0
   65.6340   59.4260   30.4450 N   0  0  0  0  0  0  0  0  0  0  0  0
   66.9340   61.0440   31.6720 C   0  0  0  0  0  0  0  0  0  0  0  0
   67.7750   61.7790   30.8630 C   0  0  0  0  0  0  0  0  0  0  0  0
   68.0770   63.1140   31.1460 C   0  0  0  0  0  0  0  0  0  0  0  0
   67.5130   63.6950   32.2680 C   0  0  0  0  0  0  0  0  0  0  0  0
   66.6690   62.9900   33.0990 C   0  0  0  0  0  0  0  0  0  0  0  0
   66.4000   61.6760   32.7780 C   0  0  0  0  0  0  0  0  0  0  0  0
   63.7346   56.3774   26.2183 H   0  0  0  0  0  0  0  0  0  0  0  0
   60.9991   58.5628   28.7675 H   0  0  0  0  0  0  0  0  0  0  0  0
   61.2556   55.0997   27.0872 H   0  0  0  0  0  0  0  0  0  0  0  0
   59.7024   54.1630   25.4396 H   0  0  0  0  0  0  0  0  0  0  0  0
   58.7880   55.6442   23.6424 H   0  0  0  0  0  0  0  0  0  0  0  0
   58.7240   57.8590   22.6525 H   0  0  0  0  0  0  0  0  0  0  0  0
   59.4272   60.2228   22.6013 H   0  0  0  0  0  0  0  0  0  0  0  0
   61.0071   61.0860   24.3155 H   0  0  0  0  0  0  0  0  0  0  0  0
   61.8771   59.5403   26.0811 H   0  0  0  0  0  0  0  0  0  0  0  0
   65.7624   56.0592   30.4093 H   0  0  0  0  0  0  0  0  0  0  0  0
   67.5754   56.5608   32.0476 H   0  0  0  0  0  0  0  0  0  0  0  0
   68.2180   61.3040   29.9752 H   0  0  0  0  0  0  0  0  0  0  0  0
   68.7479   63.6898   30.4915 H   0  0  0  0  0  0  0  0  0  0  0  0
   67.7437   64.7447   32.5024 H   0  0  0  0  0  0  0  0  0  0  0  0
   66.2247   63.4599   33.9888 H   0  0  0  0  0  0  0  0  0  0  0  0
   65.7279   61.1038   33.4343 H   0  0  0  0  0  0  0  0  0  0  0  0
  1  2  2  0
  1  6  1  0
  2  3  1  0
  3  4  2  0
  5  4  1  0
  5 17  1  0
  6  5  2  0
  7  2  1  0
  8  7  2  0
  9  8  1  0
 10  9  2  0
 11 10  1  0
 11 16  2  0
 12 11  1  0
 13 12  2  0
 13 14  1  0
 14 15  2  0
 16 15  1  0
 16  7  1  0
 17 22  1  0
 17 18  2  0
 18 19  1  0
 19 20  2  0
 21 23  1  0
 21 20  1  0
 22 21  2  0
 23 28  2  0
 24 25  2  0
 24 23  1  0
 25 26  1  0
 26 27  2  0
 28 27  1  0
  1 29  1  0
  3 30  1  0
  8 31  1  0
  9 32  1  0
 10 33  1  0
 12 34  1  0
 13 35  1  0
 14 36  1  0
 15 37  1  0
 18 38  1  0
 19 39  1  0
 24 40  1  0
 25 41  1  0
 26 42  1  0
 27 43  1  0
 28 44  1  0
M  END
>  <Score>  (1) 
-7.10819

$$$$
