
     RDKit          3D

 54 58  0  0  0  0  0  0  0  0999 V2000
   65.2350   56.8710   26.0600 C   0  0  0  0  0  0  0  0  0  0  0  0
   63.8830   56.7640   25.6480 C   0  0  0  0  0  0  0  0  0  0  0  0
   62.8890   56.8860   26.5840 C   0  0  0  0  0  0  0  0  0  0  0  0
   63.2400   57.1090   27.8810 N   0  0  0  0  0  0  0  0  0  0  0  0
   64.5380   57.2060   28.2420 C   0  0  0  0  0  0  0  0  0  0  0  0
   65.5310   57.0930   27.3710 N   0  0  0  0  0  0  0  0  0  0  0  0
   64.8200   57.4500   29.6800 C   0  0  0  0  0  0  0  0  0  0  0  0
   64.0100   58.0100   30.6190 C   0  0  0  0  0  0  0  0  0  0  0  0
   64.5200   58.1180   31.8810 C   0  0  0  0  0  0  0  0  0  0  0  0
   65.7950   57.6590   32.0990 C   0  0  0  0  0  0  0  0  0  0  0  0
   66.2980   57.0660   30.5330 S   0  0  0  0  0  0  0  0  0  0  0  0
   66.5740   57.6360   33.2670 N   0  0  0  0  0  0  0  0  0  0  0  0
   67.7560   56.9380   33.3670 C   0  0  0  0  0  0  0  0  0  0  0  0
   67.9260   55.7890   32.7970 N   0  0  0  0  0  0  0  0  0  0  0  0
   68.8130   57.5320   34.1390 N   0  0  0  0  0  0  0  0  0  0  0  0
   67.1990   55.3300   32.2660 H   0  0  0  0  0  0  0  0  0  0  0  0
   61.4920   56.7840   26.2010 C   0  0  0  0  0  0  0  0  0  0  0  0
   60.8330   55.6360   25.8500 C   0  0  0  0  0  0  0  0  0  0  0  0
   59.5230   56.0490   25.5690 C   0  0  0  0  0  0  0  0  0  0  0  0
   59.4650   57.4180   25.7660 C   0  0  0  0  0  0  0  0  0  0  0  0
   60.6630   57.7520   26.1330 O   0  0  0  0  0  0  0  0  0  0  0  0
   58.4590   58.3710   25.6480 N   0  0  0  0  0  0  0  0  0  0  0  0
   58.6570   59.5380   26.3250 C   0  0  0  0  0  0  0  0  0  0  0  0
   57.5560   60.3650   26.0360 C   0  0  0  0  0  0  0  0  0  0  0  0
   56.7570   59.6600   25.2100 N   0  0  0  0  0  0  0  0  0  0  0  0
   57.3130   58.4680   24.9900 C   0  0  0  0  0  0  0  0  0  0  0  0
   56.7150   57.4240   24.1610 C   0  0  0  0  0  0  0  0  0  0  0  0
   56.6770   56.1340   24.9620 C   0  0  0  0  0  0  0  0  0  0  0  0
   56.0650   55.0140   24.1900 C   0  0  0  0  0  0  0  0  0  0  0  0
   56.5420   54.8790   22.7790 C   0  0  0  0  0  0  0  0  0  0  0  0
   56.8720   56.1690   22.1000 C   0  0  0  0  0  0  0  0  0  0  0  0
   57.6640   57.1250   22.9870 C   0  0  0  0  0  0  0  0  0  0  0  0
   66.0446   56.7748   25.3216 H   0  0  0  0  0  0  0  0  0  0  0  0
   63.6348   56.5855   24.5914 H   0  0  0  0  0  0  0  0  0  0  0  0
   62.9957   58.3581   30.3739 H   0  0  0  0  0  0  0  0  0  0  0  0
   63.9281   58.5587   32.6967 H   0  0  0  0  0  0  0  0  0  0  0  0
   66.2457   58.1660   34.0869 H   0  0  0  0  0  0  0  0  0  0  0  0
   69.7142   57.0436   34.2398 H   0  0  0  0  0  0  0  0  0  0  0  0
   68.6692   58.4461   34.5914 H   0  0  0  0  0  0  0  0  0  0  0  0
   61.2411   54.6157   25.7997 H   0  0  0  0  0  0  0  0  0  0  0  0
   58.6921   55.4026   25.2499 H   0  0  0  0  0  0  0  0  0  0  0  0
   59.5118   59.7850   26.9717 H   0  0  0  0  0  0  0  0  0  0  0  0
   57.3817   61.3847   26.4099 H   0  0  0  0  0  0  0  0  0  0  0  0
   55.7183   57.7517   23.8305 H   0  0  0  0  0  0  0  0  0  0  0  0
   57.7054   55.8559   25.2362 H   0  0  0  0  0  0  0  0  0  0  0  0
   56.0597   56.3074   25.8558 H   0  0  0  0  0  0  0  0  0  0  0  0
   56.2897   54.0748   24.7167 H   0  0  0  0  0  0  0  0  0  0  0  0
   54.9895   55.2366   24.1291 H   0  0  0  0  0  0  0  0  0  0  0  0
   57.4469   54.2535   22.7826 H   0  0  0  0  0  0  0  0  0  0  0  0
   55.7091   54.4367   22.2128 H   0  0  0  0  0  0  0  0  0  0  0  0
   57.4678   55.9497   21.2017 H   0  0  0  0  0  0  0  0  0  0  0  0
   55.9208   56.6626   21.8520 H   0  0  0  0  0  0  0  0  0  0  0  0
   58.5892   56.6495   23.3446 H   0  0  0  0  0  0  0  0  0  0  0  0
   57.9743   58.0355   22.4535 H   0  0  0  0  0  0  0  0  0  0  0  0
  1  6  2  0
  2  1  1  0
  2  3  2  0
  3  4  1  0
  4  5  2  0
  5  7  1  0
  6  5  1  0
  7 11  1  0
  7  8  2  0
  8  9  1  0
  9 10  2  0
 10 12  1  0
 11 10  1  0
 12 13  1  0
 13 15  1  0
 14 13  2  0
 16 14  1  0
 17  3  1  0
 18 17  2  0
 19 20  2  0
 19 18  1  0
 20 21  1  0
 21 17  1  0
 22 20  1  0
 22 23  1  0
 24 23  2  0
 25 24  1  0
 26 25  2  0
 26 22  1  0
 27 28  1  0
 27 26  1  0
 29 28  1  0
 30 29  1  0
 31 30  1  0
 31 32  1  0
 32 27  1  0
  1 33  1  0
  2 34  1  0
  8 35  1  0
  9 36  1  0
 12 37  1  0
 15 38  1  0
 15 39  1  0
 18 40  1  0
 19 41  1  0
 23 42  1  0
 24 43  1  0
 27 44  1  0
 28 45  1  0
 28 46  1  0
 29 47  1  0
 29 48  1  0
 30 49  1  0
 30 50  1  0
 31 51  1  0
 31 52  1  0
 32 53  1  0
 32 54  1  0
M  END
>  <Score>  (1) 
-7.29443

$$$$
