
     RDKit          3D

 50 54  0  0  1  0  0  0  0  0999 V2000
   62.1910   56.1150   25.9020 C   0  0  0  0  0  0  0  0  0  0  0  0
   61.3200   57.2550   25.4590 C   0  0  0  0  0  0  0  0  0  0  0  0
   61.7520   58.5740   25.3640 C   0  0  0  0  0  0  0  0  0  0  0  0
   60.8000   59.4800   24.9210 C   0  0  0  0  0  0  0  0  0  0  0  0
   59.5660   59.0760   24.6160 N   0  0  0  0  0  0  0  0  0  0  0  0
   59.1640   57.8150   24.7110 C   0  0  0  0  0  0  0  0  0  0  0  0
   60.0820   56.9390   25.1390 N   0  0  0  0  0  0  0  0  0  0  0  0
   57.8590   57.1920   24.4230 C   0  0  0  0  0  0  0  0  0  0  0  0
   56.7810   57.9190   24.0020 N   0  0  0  0  0  0  0  0  0  0  0  0
   55.5860   57.3900   23.7330 C   0  0  0  0  0  0  0  0  0  0  0  0
   55.3550   56.0710   23.8610 N   0  0  0  0  0  0  0  0  0  0  0  0
   56.3750   55.2640   24.2770 C   0  0  0  0  0  0  0  0  0  0  0  0
   56.1410   53.9130   24.4080 C   0  0  0  0  0  0  0  0  0  0  0  0
   57.1510   53.0580   24.8280 C   0  0  0  0  0  0  0  0  0  0  0  0
   58.3830   53.6590   25.0980 C   0  0  0  0  0  0  0  0  0  0  0  0
   58.5490   55.0030   24.9480 C   0  0  0  0  0  0  0  0  0  0  0  0
   57.5690   55.8540   24.5360 C   0  0  0  0  0  0  0  0  0  0  0  0
   62.0900   56.0510   27.4120 C   0  0  0  0  0  0  0  0  0  0  0  0
   63.2730   56.5710   28.0600 N   0  0  0  0  0  0  0  0  0  0  0  0
   64.2690   57.0880   27.3490 C   0  0  0  0  0  0  0  0  0  0  0  0
   65.2920   57.3400   28.1530 N   0  0  0  0  0  0  0  0  0  0  0  0
   64.8220   57.2290   29.4230 C   0  0  2  0  0  0  0  0  0  0  0  0
   63.5840   56.7310   29.3350 N   0  0  0  0  0  0  0  0  0  0  0  0
   65.2480   57.4820   30.8220 C   0  0  0  0  0  0  0  0  0  0  0  0
   64.5000   58.1260   31.7750 C   0  0  0  0  0  0  0  0  0  0  0  0
   65.0200   58.2880   33.0380 C   0  0  0  0  0  0  0  0  0  0  0  0
   66.2940   57.7850   33.2900 C   0  0  0  0  0  0  0  0  0  0  0  0
   67.0640   57.1290   32.3360 C   0  0  0  0  0  0  0  0  0  0  0  0
   66.5200   56.9780   31.0690 C   0  0  0  0  0  0  0  0  0  0  0  0
   63.2332   56.2943   25.5991 H   0  0  0  0  0  0  0  0  0  0  0  0
   61.8677   55.1688   25.4435 H   0  0  0  0  0  0  0  0  0  0  0  0
   62.7773   58.8772   25.6223 H   0  0  0  0  0  0  0  0  0  0  0  0
   61.0654   60.5427   24.8201 H   0  0  0  0  0  0  0  0  0  0  0  0
   54.7704   58.0480   23.3986 H   0  0  0  0  0  0  0  0  0  0  0  0
   55.1447   53.5077   24.1777 H   0  0  0  0  0  0  0  0  0  0  0  0
   56.9913   51.9755   24.9411 H   0  0  0  0  0  0  0  0  0  0  0  0
   59.2279   53.0406   25.4352 H   0  0  0  0  0  0  0  0  0  0  0  0
   59.5381   55.4279   25.1742 H   0  0  0  0  0  0  0  0  0  0  0  0
   61.2203   56.6424   27.7344 H   0  0  0  0  0  0  0  0  0  0  0  0
   61.9838   54.9945   27.6993 H   0  0  0  0  0  0  0  0  0  0  0  0
   64.5781   56.3718   26.5734 H   0  0  0  0  0  0  0  0  0  0  0  0
   63.9364   58.0206   26.8698 H   0  0  0  0  0  0  0  0  0  0  0  0
   66.0471   56.6581   27.9923 H   0  0  0  0  0  0  0  0  0  0  0  0
   65.2278   56.2084   29.4840 H   0  0  0  0  0  0  0  0  0  0  0  0
   62.9178   57.3827   29.7736 H   0  0  0  0  0  0  0  0  0  0  0  0
   63.4974   58.5078   31.5321 H   0  0  0  0  0  0  0  0  0  0  0  0
   64.4469   58.7995   33.8254 H   0  0  0  0  0  0  0  0  0  0  0  0
   66.7139   57.9137   34.2985 H   0  0  0  0  0  0  0  0  0  0  0  0
   68.0661   56.7445   32.5768 H   0  0  0  0  0  0  0  0  0  0  0  0
   67.0847   56.4688   30.2741 H   0  0  0  0  0  0  0  0  0  0  0  0
  1 18  1  0
  2  1  1  0
  3  2  2  0
  4  3  1  0
  5  6  1  0
  5  4  2  0
  6  7  2  0
  7  2  1  0
  8 17  1  0
  8  6  1  0
  9  8  2  0
 10 11  2  0
 10  9  1  0
 11 12  1  0
 12 13  1  0
 12 17  2  0
 13 14  2  0
 14 15  1  0
 16 15  2  0
 17 16  1  0
 18 19  1  0
 19 23  1  0
 20 19  1  0
 20 21  1  0
 21 22  1  0
 22 24  1  0
 23 22  1  0
 24 29  1  0
 24 25  2  0
 25 26  1  0
 26 27  2  0
 28 27  1  0
 29 28  2  0
  1 30  1  0
  1 31  1  0
  3 32  1  0
  4 33  1  0
 10 34  1  0
 13 35  1  0
 14 36  1  0
 15 37  1  0
 16 38  1  0
 18 39  1  0
 18 40  1  0
 20 41  1  0
 20 42  1  0
 21 43  1  0
 22 44  1  1
 23 45  1  0
 25 46  1  0
 26 47  1  0
 27 48  1  0
 28 49  1  0
 29 50  1  0
M  END
>  <Score>  (1) 
-7.73592

$$$$
