
     RDKit          3D

 44 47  0  0  0  0  0  0  0  0999 V2000
   61.5710   57.8830   26.0950 C   0  0  0  0  0  0  0  0  0  0  0  0
   65.1880   56.7130   26.0840 C   0  0  0  0  0  0  0  0  0  0  0  0
   63.9090   57.0380   25.6100 C   0  0  0  0  0  0  0  0  0  0  0  0
   62.9510   57.5130   26.5160 C   0  0  0  0  0  0  0  0  0  0  0  0
   63.3460   57.6280   27.8300 N   0  0  0  0  0  0  0  0  0  0  0  0
   64.5890   57.3020   28.2300 C   0  0  0  0  0  0  0  0  0  0  0  0
   65.5130   56.8440   27.3670 N   0  0  0  0  0  0  0  0  0  0  0  0
   64.9240   57.4540   29.6540 C   0  0  0  0  0  0  0  0  0  0  0  0
   64.0510   58.0720   30.5210 C   0  0  0  0  0  0  0  0  0  0  0  0
   64.4400   58.1720   31.8300 C   0  0  0  0  0  0  0  0  0  0  0  0
   65.6090   57.7040   32.2890 N   0  0  0  0  0  0  0  0  0  0  0  0
   66.4430   57.1050   31.4260 C   0  0  0  0  0  0  0  0  0  0  0  0
   66.1070   56.9780   30.1110 N   0  0  0  0  0  0  0  0  0  0  0  0
   60.7140   56.6760   25.7890 C   0  0  0  0  0  0  0  0  0  0  0  0
   61.6370   58.7400   24.8700 C   0  0  0  0  0  0  0  0  0  0  0  0
   60.9110   58.6800   27.2190 C   0  0  0  0  0  0  0  0  0  0  0  0
   60.2130   59.8750   26.7560 C   0  0  0  0  0  0  0  0  0  0  0  0
   60.3730   61.0910   27.3820 C   0  0  0  0  0  0  0  0  0  0  0  0
   59.5790   62.0110   26.7030 C   0  0  0  0  0  0  0  0  0  0  0  0
   58.9620   61.3680   25.7010 N   0  0  0  0  0  0  0  0  0  0  0  0
   59.3570   60.1410   25.7720 N   0  0  0  0  0  0  0  0  0  0  0  0
   56.6310   62.3020   23.1280 N   0  0  0  0  0  0  0  0  0  0  0  0
   57.3570   61.3790   23.7510 N   0  0  0  0  0  0  0  0  0  0  0  0
   58.0570   61.9470   24.7650 C   0  0  0  0  0  0  0  0  0  0  0  0
   57.7380   63.2980   24.7610 C   0  0  0  0  0  0  0  0  0  0  0  0
   56.8530   63.4770   23.7330 C   0  0  0  0  0  0  0  0  0  0  0  0
   65.9426   56.3398   25.3759 H   0  0  0  0  0  0  0  0  0  0  0  0
   63.6616   56.9220   24.5445 H   0  0  0  0  0  0  0  0  0  0  0  0
   63.0839   58.4678   30.1773 H   0  0  0  0  0  0  0  0  0  0  0  0
   63.7583   58.6614   32.5412 H   0  0  0  0  0  0  0  0  0  0  0  0
   67.4068   56.7127   31.7826 H   0  0  0  0  0  0  0  0  0  0  0  0
   60.3846   56.2120   26.7304 H   0  0  0  0  0  0  0  0  0  0  0  0
   59.8346   56.9888   25.2070 H   0  0  0  0  0  0  0  0  0  0  0  0
   61.2992   55.9488   25.2070 H   0  0  0  0  0  0  0  0  0  0  0  0
   61.7184   59.7964   25.1655 H   0  0  0  0  0  0  0  0  0  0  0  0
   62.5161   58.4578   24.2720 H   0  0  0  0  0  0  0  0  0  0  0  0
   60.7251   58.5957   24.2720 H   0  0  0  0  0  0  0  0  0  0  0  0
   60.1852   58.0284   27.7275 H   0  0  0  0  0  0  0  0  0  0  0  0
   61.7145   59.0158   27.8911 H   0  0  0  0  0  0  0  0  0  0  0  0
   61.0093   61.2969   28.2554 H   0  0  0  0  0  0  0  0  0  0  0  0
   59.4758   63.0789   26.9460 H   0  0  0  0  0  0  0  0  0  0  0  0
   56.0084   62.1424   22.3232 H   0  0  0  0  0  0  0  0  0  0  0  0
   58.1198   64.0692   25.4462 H   0  0  0  0  0  0  0  0  0  0  0  0
   56.3952   64.4357   23.4477 H   0  0  0  0  0  0  0  0  0  0  0  0
  1  4  1  0
  1 16  1  0
  2  7  2  0
  3  2  1  0
  3  4  2  0
  4  5  1  0
  5  6  2  0
  6  8  1  0
  7  6  1  0
  8 13  1  0
  8  9  2  0
  9 10  1  0
 10 11  2  0
 12 11  1  0
 13 12  2  0
 14  1  1  0
 15  1  1  0
 17 16  1  0
 17 18  1  0
 19 18  2  0
 20 21  1  0
 20 19  1  0
 21 17  2  0
 22 26  1  0
 22 23  1  0
 23 24  2  0
 24 20  1  0
 25 24  1  0
 26 25  2  0
  2 27  1  0
  3 28  1  0
  9 29  1  0
 10 30  1  0
 12 31  1  0
 14 32  1  0
 14 33  1  0
 14 34  1  0
 15 35  1  0
 15 36  1  0
 15 37  1  0
 16 38  1  0
 16 39  1  0
 18 40  1  0
 19 41  1  0
 22 42  1  0
 25 43  1  0
 26 44  1  0
M  END
>  <Score>  (1) 
-7.04763

$$$$
