
     RDKit          3D

 42 46  0  0  0  0  0  0  0  0999 V2000
   65.1610   56.8100   26.0070 C   0  0  0  0  0  0  0  0  0  0  0  0
   63.8050   56.8040   25.5810 C   0  0  0  0  0  0  0  0  0  0  0  0
   62.8160   57.0150   26.5010 C   0  0  0  0  0  0  0  0  0  0  0  0
   63.1770   57.2260   27.7970 N   0  0  0  0  0  0  0  0  0  0  0  0
   64.4640   57.2300   28.1820 C   0  0  0  0  0  0  0  0  0  0  0  0
   65.4620   57.0280   27.3230 N   0  0  0  0  0  0  0  0  0  0  0  0
   64.7550   57.4680   29.6080 C   0  0  0  0  0  0  0  0  0  0  0  0
   63.9520   58.0250   30.5670 C   0  0  0  0  0  0  0  0  0  0  0  0
   64.4550   58.1420   31.8260 C   0  0  0  0  0  0  0  0  0  0  0  0
   65.7520   57.6790   32.0260 C   0  0  0  0  0  0  0  0  0  0  0  0
   66.2500   57.0880   30.4460 S   0  0  0  0  0  0  0  0  0  0  0  0
   66.5280   57.6690   33.2020 N   0  0  0  0  0  0  0  0  0  0  0  0
   67.7090   56.9650   33.2980 C   0  0  0  0  0  0  0  0  0  0  0  0
   67.8760   55.8260   32.7310 N   0  0  0  0  0  0  0  0  0  0  0  0
   68.7620   57.5640   34.0710 N   0  0  0  0  0  0  0  0  0  0  0  0
   67.1500   55.3550   32.1980 H   0  0  0  0  0  0  0  0  0  0  0  0
   61.4090   57.0170   26.1100 C   0  0  0  0  0  0  0  0  0  0  0  0
   60.7030   55.9220   25.6640 C   0  0  0  0  0  0  0  0  0  0  0  0
   59.4090   56.4040   25.4140 C   0  0  0  0  0  0  0  0  0  0  0  0
   59.4280   57.7570   25.7270 C   0  0  0  0  0  0  0  0  0  0  0  0
   60.6350   58.0670   26.1340 O   0  0  0  0  0  0  0  0  0  0  0  0
   58.2780   58.5820   25.5950 N   0  0  0  0  0  0  0  0  0  0  0  0
   57.3530   58.9400   26.5340 C   0  0  0  0  0  0  0  0  0  0  0  0
   56.4300   59.7460   25.9400 N   0  0  0  0  0  0  0  0  0  0  0  0
   56.7900   59.8820   24.6300 C   0  0  0  0  0  0  0  0  0  0  0  0
   56.1230   60.6190   23.6680 C   0  0  0  0  0  0  0  0  0  0  0  0
   56.6960   60.5860   22.4430 N   0  0  0  0  0  0  0  0  0  0  0  0
   57.8220   59.8900   22.1830 C   0  0  0  0  0  0  0  0  0  0  0  0
   58.4310   59.1890   23.1570 N   0  0  0  0  0  0  0  0  0  0  0  0
   57.9460   59.1540   24.4130 C   0  0  0  0  0  0  0  0  0  0  0  0
   65.9676   56.6394   25.2787 H   0  0  0  0  0  0  0  0  0  0  0  0
   63.5544   56.6317   24.5239 H   0  0  0  0  0  0  0  0  0  0  0  0
   62.9341   58.3666   30.3277 H   0  0  0  0  0  0  0  0  0  0  0  0
   63.8658   58.5807   32.6448 H   0  0  0  0  0  0  0  0  0  0  0  0
   66.2015   58.2062   34.0179 H   0  0  0  0  0  0  0  0  0  0  0  0
   69.6648   57.0791   34.1743 H   0  0  0  0  0  0  0  0  0  0  0  0
   68.6139   58.4782   34.5218 H   0  0  0  0  0  0  0  0  0  0  0  0
   61.0725   54.8943   25.5325 H   0  0  0  0  0  0  0  0  0  0  0  0
   58.5501   55.8251   25.0436 H   0  0  0  0  0  0  0  0  0  0  0  0
   57.3535   58.6302   27.5895 H   0  0  0  0  0  0  0  0  0  0  0  0
   55.2038   61.1844   23.8812 H   0  0  0  0  0  0  0  0  0  0  0  0
   58.2453   59.8955   21.1677 H   0  0  0  0  0  0  0  0  0  0  0  0
  1  6  2  0
  2  1  1  0
  2  3  2  0
  3  4  1  0
  4  5  2  0
  5  7  1  0
  6  5  1  0
  7 11  1  0
  7  8  2  0
  8  9  1  0
  9 10  2  0
 10 12  1  0
 11 10  1  0
 12 13  1  0
 13 15  1  0
 14 13  2  0
 16 14  1  0
 17 21  1  0
 17  3  1  0
 18 17  2  0
 19 18  1  0
 19 20  2  0
 20 21  1  0
 22 20  1  0
 22 23  1  0
 24 23  2  0
 25 24  1  0
 26 25  2  0
 27 26  1  0
 28 27  2  0
 28 29  1  0
 29 30  2  0
 30 25  1  0
 30 22  1  0
  1 31  1  0
  2 32  1  0
  8 33  1  0
  9 34  1  0
 12 35  1  0
 15 36  1  0
 15 37  1  0
 18 38  1  0
 19 39  1  0
 23 40  1  0
 26 41  1  0
 28 42  1  0
M  END
>  <Score>  (1) 
-7.35433

$$$$
