
     RDKit          3D

 51 55  0  0  1  0  0  0  0  0999 V2000
   61.4300   56.8230   26.4200 N   0  0  0  0  0  0  0  0  0  0  0  0
   61.0020   55.5040   26.0120 C   0  0  0  0  0  0  0  0  0  0  0  0
   59.9650   55.7290   24.9590 C   0  0  0  0  0  0  0  0  0  0  0  0
   59.3520   57.0550   25.3730 C   0  0  0  0  0  0  0  0  0  0  0  0
   60.6210   57.8020   25.7410 C   0  0  1  0  0  0  0  0  0  0  0  0
   60.4150   59.0370   26.3790 N   0  0  0  0  0  0  0  0  0  0  0  0
   60.8760   59.4220   27.5770 C   0  0  0  0  0  0  0  0  0  0  0  0
   60.4720   60.6620   27.8250 N   0  0  0  0  0  0  0  0  0  0  0  0
   59.7240   61.0940   26.7620 C   0  0  0  0  0  0  0  0  0  0  0  0
   59.0650   62.2970   26.5910 C   0  0  0  0  0  0  0  0  0  0  0  0
   59.1280   63.1860   27.4650 O   0  0  0  0  0  0  0  0  0  0  0  0
   58.3660   62.4350   25.4510 N   0  0  0  0  0  0  0  0  0  0  0  0
   58.3140   61.4570   24.5370 C   0  0  0  0  0  0  0  0  0  0  0  0
   57.5680   61.6410   23.3410 N   0  0  0  0  0  0  0  0  0  0  0  0
   58.9720   60.3020   24.7490 N   0  0  0  0  0  0  0  0  0  0  0  0
   59.7010   60.0450   25.8500 C   0  0  0  0  0  0  0  0  0  0  0  0
   63.8440   57.1160   26.9350 C   0  0  0  0  0  0  0  0  0  0  0  0
   62.4550   57.1310   27.3210 C   0  0  0  0  0  0  0  0  0  0  0  0
   62.2140   57.4740   28.6250 C   0  0  0  0  0  0  0  0  0  0  0  0
   63.2170   57.7750   29.4640 N   0  0  0  0  0  0  0  0  0  0  0  0
   64.4930   57.7470   29.0540 C   0  0  0  0  0  0  0  0  0  0  0  0
   64.8210   57.4230   27.8080 N   0  0  0  0  0  0  0  0  0  0  0  0
   65.4850   58.0820   30.0160 N   0  0  0  0  0  0  0  0  0  0  0  0
   66.5150   57.1170   30.3700 C   0  0  0  0  0  0  0  0  0  0  0  0
   66.3100   56.7120   31.8210 C   0  0  0  0  0  0  0  0  0  0  0  0
   65.7150   57.8350   32.6340 C   0  0  0  0  0  0  0  0  0  0  0  0
   66.1390   59.1890   32.1020 C   0  0  0  0  0  0  0  0  0  0  0  0
   65.5520   59.3620   30.6980 C   0  0  0  0  0  0  0  0  0  0  0  0
   61.8491   54.9346   25.6020 H   0  0  0  0  0  0  0  0  0  0  0  0
   60.6055   54.9235   26.8581 H   0  0  0  0  0  0  0  0  0  0  0  0
   59.2135   54.9257   24.9641 H   0  0  0  0  0  0  0  0  0  0  0  0
   60.3740   55.7368   23.9379 H   0  0  0  0  0  0  0  0  0  0  0  0
   58.8157   57.5380   24.5429 H   0  0  0  0  0  0  0  0  0  0  0  0
   58.5920   56.9965   26.1660 H   0  0  0  0  0  0  0  0  0  0  0  0
   61.1630   58.1795   24.8614 H   0  0  0  0  0  0  0  0  0  0  0  0
   61.4924   58.8071   28.2493 H   0  0  0  0  0  0  0  0  0  0  0  0
   57.8582   63.3139   25.2761 H   0  0  0  0  0  0  0  0  0  0  0  0
   57.0645   62.5248   23.1789 H   0  0  0  0  0  0  0  0  0  0  0  0
   57.5309   60.8905   22.6365 H   0  0  0  0  0  0  0  0  0  0  0  0
   64.1115   56.8472   25.9024 H   0  0  0  0  0  0  0  0  0  0  0  0
   61.1774   57.5033   28.9918 H   0  0  0  0  0  0  0  0  0  0  0  0
   66.4344   56.2320   29.7217 H   0  0  0  0  0  0  0  0  0  0  0  0
   67.5126   57.5611   30.2374 H   0  0  0  0  0  0  0  0  0  0  0  0
   65.6315   55.8470   31.8574 H   0  0  0  0  0  0  0  0  0  0  0  0
   67.2915   56.4607   32.2493 H   0  0  0  0  0  0  0  0  0  0  0  0
   64.6181   57.7628   32.5947 H   0  0  0  0  0  0  0  0  0  0  0  0
   66.0761   57.7416   33.6688 H   0  0  0  0  0  0  0  0  0  0  0  0
   65.7612   59.9829   32.7631 H   0  0  0  0  0  0  0  0  0  0  0  0
   67.2364   59.2532   32.0634 H   0  0  0  0  0  0  0  0  0  0  0  0
   66.1897   60.0474   30.1205 H   0  0  0  0  0  0  0  0  0  0  0  0
   64.5356   59.7738   30.7845 H   0  0  0  0  0  0  0  0  0  0  0  0
  1 18  1  0
  2  1  1  0
  3  4  1  0
  3  2  1  0
  4  5  1  0
  5  6  1  0
  5  1  1  0
  6  7  1  0
  7  8  2  0
  9  8  1  0
 10  9  1  0
 10 11  2  0
 12 10  1  0
 13 15  2  0
 13 12  1  0
 14 13  1  0
 15 16  1  0
 16  6  1  0
 16  9  2  0
 17 18  2  0
 17 22  1  0
 18 19  1  0
 19 20  2  0
 21 20  1  0
 21 23  1  0
 22 21  2  0
 23 24  1  0
 23 28  1  0
 24 25  1  0
 25 26  1  0
 27 26  1  0
 28 27  1  0
  2 29  1  0
  2 30  1  0
  3 31  1  0
  3 32  1  0
  4 33  1  0
  4 34  1  0
  5 35  1  6
  7 36  1  0
 12 37  1  0
 14 38  1  0
 14 39  1  0
 17 40  1  0
 19 41  1  0
 24 42  1  0
 24 43  1  0
 25 44  1  0
 25 45  1  0
 26 46  1  0
 26 47  1  0
 27 48  1  0
 27 49  1  0
 28 50  1  0
 28 51  1  0
M  END
>  <Score>  (1) 
-7.06541

$$$$
