
     RDKit          3D

 47 51  0  0  0  0  0  0  0  0999 V2000
   63.4110   57.3560   28.3560 C   0  0  0  0  0  0  0  0  0  0  0  0
   64.4440   56.9330   27.5290 C   0  0  0  0  0  0  0  0  0  0  0  0
   64.2050   56.9650   26.1400 C   0  0  0  0  0  0  0  0  0  0  0  0
   63.0010   57.3980   25.6770 N   0  0  0  0  0  0  0  0  0  0  0  0
   62.0220   57.8020   26.5240 C   0  0  0  0  0  0  0  0  0  0  0  0
   62.2270   57.7820   27.8680 N   0  0  0  0  0  0  0  0  0  0  0  0
   60.7720   58.2500   26.0070 N   0  0  0  0  0  0  0  0  0  0  0  0
   60.0080   59.2460   26.7430 C   0  0  0  0  0  0  0  0  0  0  0  0
   58.5750   59.2970   26.4160 C   0  0  0  0  0  0  0  0  0  0  0  0
   58.2000   58.9560   25.0890 N   0  0  0  0  0  0  0  0  0  0  0  0
   59.3120   58.7440   24.1910 C   0  0  0  0  0  0  0  0  0  0  0  0
   60.2740   57.7210   24.7680 C   0  0  0  0  0  0  0  0  0  0  0  0
   63.6480   57.3250   29.7130 O   0  0  0  0  0  0  0  0  0  0  0  0
   64.3700   58.2390   30.4500 C   0  0  0  0  0  0  0  0  0  0  0  0
   64.7550   57.8050   31.7030 C   0  0  0  0  0  0  0  0  0  0  0  0
   65.4950   58.6330   32.5560 C   0  0  0  0  0  0  0  0  0  0  0  0
   65.8160   59.8730   32.1040 N   0  0  0  0  0  0  0  0  0  0  0  0
   65.4410   60.2830   30.8910 C   0  0  0  0  0  0  0  0  0  0  0  0
   64.7330   59.4900   30.0760 N   0  0  0  0  0  0  0  0  0  0  0  0
   65.8730   58.1560   33.8370 N   0  0  0  0  0  0  0  0  0  0  0  0
   65.3570   58.2980   35.0930 C   0  0  0  0  0  0  0  0  0  0  0  0
   66.1380   57.6140   35.9620 N   0  0  0  0  0  0  0  0  0  0  0  0
   67.1370   57.0490   35.2450 C   0  0  0  0  0  0  0  0  0  0  0  0
   68.1860   56.2530   35.6950 C   0  0  0  0  0  0  0  0  0  0  0  0
   69.1000   55.7750   34.8120 N   0  0  0  0  0  0  0  0  0  0  0  0
   68.9010   56.1290   33.5280 C   0  0  0  0  0  0  0  0  0  0  0  0
   67.9150   56.8840   33.0630 N   0  0  0  0  0  0  0  0  0  0  0  0
   66.9780   57.3860   33.9040 C   0  0  0  0  0  0  0  0  0  0  0  0
   65.7810   61.6310   30.3790 C   0  0  0  0  0  0  0  0  0  0  0  0
   64.6670   62.3910   30.0760 F   0  0  0  0  0  0  0  0  0  0  0  0
   66.5380   61.5650   29.2090 F   0  0  0  0  0  0  0  0  0  0  0  0
   66.6300   62.2480   31.2930 F   0  0  0  0  0  0  0  0  0  0  0  0
   65.4048   56.5887   27.9393 H   0  0  0  0  0  0  0  0  0  0  0  0
   64.9860   56.6423   25.4358 H   0  0  0  0  0  0  0  0  0  0  0  0
   60.1054   59.0260   27.8164 H   0  0  0  0  0  0  0  0  0  0  0  0
   60.4232   60.2240   26.4580 H   0  0  0  0  0  0  0  0  0  0  0  0
   58.0557   58.6047   27.0950 H   0  0  0  0  0  0  0  0  0  0  0  0
   58.2961   60.3553   26.5267 H   0  0  0  0  0  0  0  0  0  0  0  0
   57.6441   58.0896   25.1238 H   0  0  0  0  0  0  0  0  0  0  0  0
   59.8428   59.6958   24.0411 H   0  0  0  0  0  0  0  0  0  0  0  0
   58.9275   58.3689   23.2311 H   0  0  0  0  0  0  0  0  0  0  0  0
   59.7490   56.7714   24.9487 H   0  0  0  0  0  0  0  0  0  0  0  0
   61.1005   57.5275   24.0684 H   0  0  0  0  0  0  0  0  0  0  0  0
   64.4764   56.7943   32.0359 H   0  0  0  0  0  0  0  0  0  0  0  0
   64.4564   58.8726   35.3553 H   0  0  0  0  0  0  0  0  0  0  0  0
   68.2746   56.0114   36.7645 H   0  0  0  0  0  0  0  0  0  0  0  0
   69.6282   55.7549   32.7923 H   0  0  0  0  0  0  0  0  0  0  0  0
  1 13  1  0
  2  1  2  0
  3  2  1  0
  4  3  2  0
  4  5  1  0
  5  6  2  0
  6  1  1  0
  7  5  1  0
  7  8  1  0
  9  8  1  0
 10  9  1  0
 11 12  1  0
 11 10  1  0
 12  7  1  0
 13 14  1  0
 14 15  2  0
 15 16  1  0
 16 20  1  0
 17 16  2  0
 18 17  1  0
 19 14  1  0
 19 18  2  0
 20 28  1  0
 20 21  1  0
 21 22  2  0
 23 24  2  0
 23 22  1  0
 25 24  1  0
 26 25  2  0
 27 26  1  0
 27 28  2  0
 28 23  1  0
 29 18  1  0
 29 32  1  0
 30 29  1  0
 31 29  1  0
  2 33  1  0
  3 34  1  0
  8 35  1  0
  8 36  1  0
  9 37  1  0
  9 38  1  0
 10 39  1  0
 11 40  1  0
 11 41  1  0
 12 42  1  0
 12 43  1  0
 15 44  1  0
 21 45  1  0
 24 46  1  0
 26 47  1  0
M  END
>  <Score>  (1) 
-7.50399

$$$$
