
     RDKit          3D

 49 52  0  0  1  0  0  0  0  0999 V2000
   62.2590   55.9340   27.5650 C   0  0  0  0  0  0  0  0  0  0  0  0
   63.4230   56.5240   28.2050 N   0  0  0  0  0  0  0  0  0  0  0  0
   64.3150   57.2290   27.5220 C   0  0  0  0  0  0  0  0  0  0  0  0
   65.3090   57.5660   28.3270 N   0  0  0  0  0  0  0  0  0  0  0  0
   64.8850   57.3150   29.5980 C   0  0  2  0  0  0  0  0  0  0  0  0
   63.7080   56.6840   29.4870 N   0  0  0  0  0  0  0  0  0  0  0  0
   65.3090   57.5180   31.0040 C   0  0  0  0  0  0  0  0  0  0  0  0
   64.5860   58.1890   31.9660 C   0  0  0  0  0  0  0  0  0  0  0  0
   65.1060   58.2970   33.2300 C   0  0  0  0  0  0  0  0  0  0  0  0
   66.3450   57.7270   33.4920 C   0  0  0  0  0  0  0  0  0  0  0  0
   67.0830   57.0520   32.5400 C   0  0  0  0  0  0  0  0  0  0  0  0
   66.5390   56.9470   31.2510 C   0  0  0  0  0  0  0  0  0  0  0  0
   62.3930   55.9250   26.0570 C   0  0  0  0  0  0  0  0  0  0  0  0
   61.1580   56.5670   25.5210 C   0  0  0  0  0  0  0  0  0  0  0  0
   61.0060   57.9410   25.2640 C   0  0  0  0  0  0  0  0  0  0  0  0
   59.7930   58.3680   24.7670 C   0  0  0  0  0  0  0  0  0  0  0  0
   58.8230   57.4640   24.5540 N   0  0  0  0  0  0  0  0  0  0  0  0
   58.9830   56.1660   24.8030 C   0  0  0  0  0  0  0  0  0  0  0  0
   60.1690   55.7080   25.2950 N   0  0  0  0  0  0  0  0  0  0  0  0
   57.8140   55.2840   24.5160 C   0  0  0  0  0  0  0  0  0  0  0  0
   56.8850   55.2050   25.7130 C   0  0  0  0  0  0  0  0  0  0  0  0
   56.2790   53.8420   25.7430 C   0  0  0  0  0  0  0  0  0  0  0  0
   57.1290   52.9840   24.8630 C   0  0  0  0  0  0  0  0  0  0  0  0
   58.2350   53.8640   24.3230 C   0  0  0  0  0  0  0  0  0  0  0  0
   62.1441   54.8988   27.9188 H   0  0  0  0  0  0  0  0  0  0  0  0
   61.3795   56.5403   27.8273 H   0  0  0  0  0  0  0  0  0  0  0  0
   64.7040   56.6237   26.6900 H   0  0  0  0  0  0  0  0  0  0  0  0
   63.8406   58.1361   27.1193 H   0  0  0  0  0  0  0  0  0  0  0  0
   66.1449   57.0033   28.1139 H   0  0  0  0  0  0  0  0  0  0  0  0
   65.4063   56.3465   29.5806 H   0  0  0  0  0  0  0  0  0  0  0  0
   62.9713   57.2461   29.9368 H   0  0  0  0  0  0  0  0  0  0  0  0
   63.6080   58.6306   31.7240 H   0  0  0  0  0  0  0  0  0  0  0  0
   64.5528   58.8247   34.0209 H   0  0  0  0  0  0  0  0  0  0  0  0
   66.7585   57.8177   34.5073 H   0  0  0  0  0  0  0  0  0  0  0  0
   68.0617   56.6126   32.7833 H   0  0  0  0  0  0  0  0  0  0  0  0
   67.0831   56.4196   30.4536 H   0  0  0  0  0  0  0  0  0  0  0  0
   63.2821   56.4956   25.7506 H   0  0  0  0  0  0  0  0  0  0  0  0
   62.5090   54.9008   25.6729 H   0  0  0  0  0  0  0  0  0  0  0  0
   61.8256   58.6499   25.4527 H   0  0  0  0  0  0  0  0  0  0  0  0
   59.6224   59.4325   24.5484 H   0  0  0  0  0  0  0  0  0  0  0  0
   57.3391   55.7157   23.6226 H   0  0  0  0  0  0  0  0  0  0  0  0
   57.4538   55.3802   26.6381 H   0  0  0  0  0  0  0  0  0  0  0  0
   56.0979   55.9694   25.6344 H   0  0  0  0  0  0  0  0  0  0  0  0
   56.2768   53.4490   26.7704 H   0  0  0  0  0  0  0  0  0  0  0  0
   55.2358   53.8612   25.3946 H   0  0  0  0  0  0  0  0  0  0  0  0
   57.5565   52.1535   25.4440 H   0  0  0  0  0  0  0  0  0  0  0  0
   56.5354   52.5521   24.0438 H   0  0  0  0  0  0  0  0  0  0  0  0
   58.3886   53.6600   23.2531 H   0  0  0  0  0  0  0  0  0  0  0  0
   59.1801   53.6652   24.8496 H   0  0  0  0  0  0  0  0  0  0  0  0
  1  2  1  0
  2  6  1  0
  3  2  1  0
  3  4  1  0
  4  5  1  0
  5  7  1  0
  6  5  1  0
  7 12  1  0
  7  8  2  0
  8  9  1  0
  9 10  2  0
 11 10  1  0
 12 11  2  0
 13  1  1  0
 14 13  1  0
 15 14  2  0
 16 15  1  0
 17 16  2  0
 17 18  1  0
 18 19  2  0
 19 14  1  0
 20 18  1  0
 20 21  1  0
 21 22  1  0
 23 22  1  0
 24 20  1  0
 24 23  1  0
  1 25  1  0
  1 26  1  0
  3 27  1  0
  3 28  1  0
  4 29  1  0
  5 30  1  6
  6 31  1  0
  8 32  1  0
  9 33  1  0
 10 34  1  0
 11 35  1  0
 12 36  1  0
 13 37  1  0
 13 38  1  0
 15 39  1  0
 16 40  1  0
 20 41  1  0
 21 42  1  0
 21 43  1  0
 22 44  1  0
 22 45  1  0
 23 46  1  0
 23 47  1  0
 24 48  1  0
 24 49  1  0
M  END
>  <Score>  (1) 
-7.07824

$$$$
