
     RDKit          3D

 37 39  0  0  0  0  0  0  0  0999 V2000
   62.7680   57.1870   27.5130 C   0  0  0  0  0  0  0  0  0  0  0  0
   61.7190   58.0930   27.2950 C   0  0  0  0  0  0  0  0  0  0  0  0
   61.5530   59.1340   28.2340 C   0  0  0  0  0  0  0  0  0  0  0  0
   62.4200   59.1810   29.2750 N   0  0  0  0  0  0  0  0  0  0  0  0
   63.4010   58.3170   29.4590 C   0  0  0  0  0  0  0  0  0  0  0  0
   63.5700   57.3310   28.5860 N   0  0  0  0  0  0  0  0  0  0  0  0
   63.0980   56.0830   26.7000 N   0  0  0  0  0  0  0  0  0  0  0  0
   64.2390   56.1120   25.8100 C   0  0  0  0  0  0  0  0  0  0  0  0
   64.5270   57.1890   25.1660 N   0  0  0  0  0  0  0  0  0  0  0  0
   65.1490   55.0160   25.5340 N   0  0  0  0  0  0  0  0  0  0  0  0
   64.0680   58.0950   25.1610 H   0  0  0  0  0  0  0  0  0  0  0  0
   64.2830   58.4560   30.6140 C   0  0  0  0  0  0  0  0  0  0  0  0
   64.6390   57.4170   31.4380 C   0  0  0  0  0  0  0  0  0  0  0  0
   65.4570   57.9080   32.3920 N   0  0  0  0  0  0  0  0  0  0  0  0
   65.6160   59.2330   32.1750 C   0  0  0  0  0  0  0  0  0  0  0  0
   66.3470   60.2270   32.8470 C   0  0  0  0  0  0  0  0  0  0  0  0
   66.3220   61.5290   32.3890 C   0  0  0  0  0  0  0  0  0  0  0  0
   65.5990   61.9030   31.2820 C   0  0  0  0  0  0  0  0  0  0  0  0
   64.8780   60.9160   30.6230 C   0  0  0  0  0  0  0  0  0  0  0  0
   64.8900   59.6210   31.0620 C   0  0  0  0  0  0  0  0  0  0  0  0
   60.4590   60.0840   28.0140 C   0  0  0  0  0  0  0  0  0  0  0  0
   60.4790   61.1160   28.9550 F   0  0  0  0  0  0  0  0  0  0  0  0
   59.1890   59.5170   28.1540 F   0  0  0  0  0  0  0  0  0  0  0  0
   60.5330   60.7340   26.8220 F   0  0  0  0  0  0  0  0  0  0  0  0
   60.8770   57.8750   26.0980 C   0  0  0  0  0  0  0  0  0  0  0  0
   61.2760   58.7470   25.0610 F   0  0  0  0  0  0  0  0  0  0  0  0
   59.5350   58.2520   26.2830 F   0  0  0  0  0  0  0  0  0  0  0  0
   60.9870   56.6340   25.5450 F   0  0  0  0  0  0  0  0  0  0  0  0
   62.5133   55.2360   26.7405 H   0  0  0  0  0  0  0  0  0  0  0  0
   65.9324   55.1496   24.8788 H   0  0  0  0  0  0  0  0  0  0  0  0
   65.0115   54.1044   25.9933 H   0  0  0  0  0  0  0  0  0  0  0  0
   64.3150   56.3706   31.3381 H   0  0  0  0  0  0  0  0  0  0  0  0
   65.8869   57.3661   33.1552 H   0  0  0  0  0  0  0  0  0  0  0  0
   66.9388   59.9679   33.7373 H   0  0  0  0  0  0  0  0  0  0  0  0
   66.9006   62.2932   32.9287 H   0  0  0  0  0  0  0  0  0  0  0  0
   65.5916   62.9454   30.9309 H   0  0  0  0  0  0  0  0  0  0  0  0
   64.2876   61.1802   29.7333 H   0  0  0  0  0  0  0  0  0  0  0  0
  1  6  2  0
  2  1  1  0
  2  3  2  0
  3  4  1  0
  4  5  2  0
  5 12  1  0
  6  5  1  0
  7  1  1  0
  8  7  1  0
  9  8  2  0
 10  8  1  0
 11  9  1  0
 12 20  1  0
 12 13  2  0
 13 14  1  0
 15 14  1  0
 15 16  2  0
 17 16  1  0
 18 17  2  0
 19 20  2  0
 19 18  1  0
 20 15  1  0
 21 23  1  0
 21  3  1  0
 21 22  1  0
 24 21  1  0
 25 27  1  0
 25  2  1  0
 26 25  1  0
 28 25  1  0
  7 29  1  0
 10 30  1  0
 10 31  1  0
 13 32  1  0
 14 33  1  0
 16 34  1  0
 17 35  1  0
 18 36  1  0
 19 37  1  0
M  END
>  <Score>  (1) 
-7.32814

$$$$
