
     RDKit          3D

 49 53  0  0  0  0  0  0  0  0999 V2000
   63.5130   56.9650   27.1250 C   0  0  0  0  0  0  0  0  0  0  0  0
   62.1900   57.4460   27.3540 C   0  0  0  0  0  0  0  0  0  0  0  0
   61.9910   58.1700   28.5280 C   0  0  0  0  0  0  0  0  0  0  0  0
   63.0200   58.3780   29.3720 N   0  0  0  0  0  0  0  0  0  0  0  0
   64.2500   57.9180   29.1370 C   0  0  0  0  0  0  0  0  0  0  0  0
   64.5050   57.2140   28.0220 N   0  0  0  0  0  0  0  0  0  0  0  0
   61.2750   57.0880   26.3050 C   0  0  0  0  0  0  0  0  0  0  0  0
   60.8610   55.7610   26.3050 C   0  0  0  0  0  0  0  0  0  0  0  0
   59.9910   55.2220   25.3890 C   0  0  0  0  0  0  0  0  0  0  0  0
   59.4880   56.0320   24.3970 C   0  0  0  0  0  0  0  0  0  0  0  0
   59.8770   57.3340   24.3750 C   0  0  0  0  0  0  0  0  0  0  0  0
   59.4220   58.2190   23.4180 C   0  0  0  0  0  0  0  0  0  0  0  0
   59.8070   59.5430   23.3800 C   0  0  0  0  0  0  0  0  0  0  0  0
   60.6850   60.0300   24.3270 C   0  0  0  0  0  0  0  0  0  0  0  0
   61.1700   59.1800   25.3100 C   0  0  0  0  0  0  0  0  0  0  0  0
   60.7450   57.8700   25.2910 C   0  0  0  0  0  0  0  0  0  0  0  0
   65.3130   58.1850   30.0990 C   0  0  0  0  0  0  0  0  0  0  0  0
   65.9960   57.1170   30.6730 C   0  0  0  0  0  0  0  0  0  0  0  0
   67.0070   57.4220   31.5890 C   0  0  0  0  0  0  0  0  0  0  0  0
   67.3330   58.6920   31.9260 N   0  0  0  0  0  0  0  0  0  0  0  0
   66.6340   59.6650   31.3360 C   0  0  0  0  0  0  0  0  0  0  0  0
   65.6370   59.4470   30.4340 N   0  0  0  0  0  0  0  0  0  0  0  0
   66.9020   61.0360   31.6250 N   0  0  0  0  0  0  0  0  0  0  0  0
   66.0660   61.8720   32.4500 C   0  0  0  0  0  0  0  0  0  0  0  0
   65.6990   63.1790   31.8070 C   0  0  0  0  0  0  0  0  0  0  0  0
   66.7290   63.7440   30.8900 C   0  0  0  0  0  0  0  0  0  0  0  0
   67.5030   62.7340   30.0960 C   0  0  0  0  0  0  0  0  0  0  0  0
   68.0750   61.7190   31.0940 C   0  0  0  0  0  0  0  0  0  0  0  0
   63.7332   56.3876   26.2150 H   0  0  0  0  0  0  0  0  0  0  0  0
   60.9946   58.5712   28.7652 H   0  0  0  0  0  0  0  0  0  0  0  0
   61.2560   55.0993   27.0899 H   0  0  0  0  0  0  0  0  0  0  0  0
   59.7017   54.1623   25.4474 H   0  0  0  0  0  0  0  0  0  0  0  0
   58.7909   55.6370   23.6433 H   0  0  0  0  0  0  0  0  0  0  0  0
   58.7221   57.8524   22.6526 H   0  0  0  0  0  0  0  0  0  0  0  0
   59.4153   60.2089   22.5970 H   0  0  0  0  0  0  0  0  0  0  0  0
   60.9978   61.0843   24.3024 H   0  0  0  0  0  0  0  0  0  0  0  0
   61.8701   59.5398   26.0784 H   0  0  0  0  0  0  0  0  0  0  0  0
   65.7505   56.0759   30.4165 H   0  0  0  0  0  0  0  0  0  0  0  0
   67.5614   56.5946   32.0560 H   0  0  0  0  0  0  0  0  0  0  0  0
   65.1396   61.3231   32.6747 H   0  0  0  0  0  0  0  0  0  0  0  0
   66.6427   62.1097   33.3561 H   0  0  0  0  0  0  0  0  0  0  0  0
   64.7752   63.0271   31.2295 H   0  0  0  0  0  0  0  0  0  0  0  0
   65.5888   63.9035   32.6273 H   0  0  0  0  0  0  0  0  0  0  0  0
   66.2220   64.4165   30.1824 H   0  0  0  0  0  0  0  0  0  0  0  0
   67.4625   64.2528   31.5327 H   0  0  0  0  0  0  0  0  0  0  0  0
   66.8388   62.2268   29.3807 H   0  0  0  0  0  0  0  0  0  0  0  0
   68.3086   63.2185   29.5248 H   0  0  0  0  0  0  0  0  0  0  0  0
   68.7436   61.0079   30.5867 H   0  0  0  0  0  0  0  0  0  0  0  0
   68.6757   62.1969   31.8819 H   0  0  0  0  0  0  0  0  0  0  0  0
  1  2  2  0
  1  6  1  0
  2  3  1  0
  3  4  2  0
  5  4  1  0
  5 17  1  0
  6  5  2  0
  7  2  1  0
  8  7  2  0
  9  8  1  0
 10  9  2  0
 11 10  1  0
 11 16  2  0
 12 11  1  0
 13 12  2  0
 13 14  1  0
 14 15  2  0
 16 15  1  0
 16  7  1  0
 17 22  1  0
 17 18  2  0
 18 19  1  0
 19 20  2  0
 21 23  1  0
 21 20  1  0
 22 21  2  0
 23 24  1  0
 25 24  1  0
 26 25  1  0
 27 26  1  0
 27 28  1  0
 28 23  1  0
  1 29  1  0
  3 30  1  0
  8 31  1  0
  9 32  1  0
 10 33  1  0
 12 34  1  0
 13 35  1  0
 14 36  1  0
 15 37  1  0
 18 38  1  0
 19 39  1  0
 24 40  1  0
 24 41  1  0
 25 42  1  0
 25 43  1  0
 26 44  1  0
 26 45  1  0
 27 46  1  0
 27 47  1  0
 28 48  1  0
 28 49  1  0
M  END
>  <Score>  (1) 
-7.62505

$$$$
