
     RDKit          3D

 40 42  0  0  1  0  0  0  0  0999 V2000
   60.8450   58.7430   26.4720 C   0  0  0  0  0  0  0  0  0  0  0  0
   60.1580   59.9310   26.7920 C   0  0  0  0  0  0  0  0  0  0  0  0
   60.3810   60.4450   28.0850 C   0  0  0  0  0  0  0  0  0  0  0  0
   61.2220   59.7870   28.9250 N   0  0  0  0  0  0  0  0  0  0  0  0
   61.8460   58.6640   28.5660 C   0  0  0  0  0  0  0  0  0  0  0  0
   61.6570   58.1510   27.3510 N   0  0  0  0  0  0  0  0  0  0  0  0
   62.7100   58.0110   29.4790 N   0  0  0  0  0  0  0  0  0  0  0  0
   63.5990   56.9910   29.0300 C   0  0  0  0  0  0  0  0  0  0  0  0
   63.2490   56.3530   27.9670 N   0  0  0  0  0  0  0  0  0  0  0  0
   64.7750   56.7920   29.8110 N   0  0  0  0  0  0  0  0  0  0  0  0
   63.7680   55.5920   27.5430 H   0  0  0  0  0  0  0  0  0  0  0  0
   59.6660   61.7000   28.4810 C   0  0  2  0  0  0  0  0  0  0  0  0
   60.3350   62.6600   29.4330 C   0  0  0  0  0  0  0  0  0  0  0  0
   59.1130   61.8180   29.8340 C   0  0  1  0  0  0  0  0  0  0  0  0
   57.8870   62.5080   30.1410 N   0  0  0  0  0  0  0  0  0  0  0  0
   57.4250   63.3400   29.1750 C   0  0  0  0  0  0  0  0  0  0  0  0
   56.2590   64.0550   29.3530 C   0  0  0  0  0  0  0  0  0  0  0  0
   55.7860   64.9650   28.2510 C   0  0  0  0  0  0  0  0  0  0  0  0
   55.5260   63.9510   30.5180 C   0  0  0  0  0  0  0  0  0  0  0  0
   54.4590   64.5930   30.7090 O   0  0  0  0  0  0  0  0  0  0  0  0
   56.0220   63.1230   31.4350 N   0  0  0  0  0  0  0  0  0  0  0  0
   57.1580   62.4210   31.2670 C   0  0  0  0  0  0  0  0  0  0  0  0
   57.6090   61.6420   32.1480 O   0  0  0  0  0  0  0  0  0  0  0  0
   60.6140   58.1840   25.0920 C   0  0  0  0  0  0  0  0  0  0  0  0
   59.3180   58.1070   24.7520 F   0  0  0  0  0  0  0  0  0  0  0  0
   61.3110   59.0350   24.2010 F   0  0  0  0  0  0  0  0  0  0  0  0
   61.2520   56.9480   24.9860 F   0  0  0  0  0  0  0  0  0  0  0  0
   59.4875   60.4276   26.0751 H   0  0  0  0  0  0  0  0  0  0  0  0
   62.6958   58.2750   30.4745 H   0  0  0  0  0  0  0  0  0  0  0  0
   65.4576   56.0700   29.5394 H   0  0  0  0  0  0  0  0  0  0  0  0
   64.9421   57.3702   30.6469 H   0  0  0  0  0  0  0  0  0  0  0  0
   59.2401   61.7948   27.4712 H   0  0  0  0  0  0  0  0  0  0  0  0
   61.3283   62.4319   29.8470 H   0  0  0  0  0  0  0  0  0  0  0  0
   60.5928   63.7294   29.4283 H   0  0  0  0  0  0  0  0  0  0  0  0
   58.8598   61.0706   30.6003 H   0  0  0  0  0  0  0  0  0  0  0  0
   57.9881   63.4462   28.2361 H   0  0  0  0  0  0  0  0  0  0  0  0
   55.3207   65.8603   28.6891 H   0  0  0  0  0  0  0  0  0  0  0  0
   56.6428   65.2641   27.6293 H   0  0  0  0  0  0  0  0  0  0  0  0
   55.0489   64.4356   27.6293 H   0  0  0  0  0  0  0  0  0  0  0  0
   55.5085   63.0137   32.3211 H   0  0  0  0  0  0  0  0  0  0  0  0
  1  2  2  0
  1  6  1  0
  2  3  1  0
  3 12  1  0
  3  4  2  0
  5  4  1  0
  5  7  1  0
  6  5  2  0
  8  7  1  0
  8 10  1  0
  9  8  2  0
 11  9  1  0
 12 13  1  0
 12 14  1  0
 13 14  1  0
 14 15  1  0
 15 22  1  0
 16 17  2  0
 16 15  1  0
 17 19  1  0
 18 17  1  0
 19 20  2  0
 19 21  1  0
 22 21  1  0
 22 23  2  0
 24  1  1  0
 25 24  1  0
 26 24  1  0
 27 24  1  0
  2 28  1  0
  7 29  1  0
 10 30  1  0
 10 31  1  0
 12 32  1  6
 13 33  1  0
 13 34  1  0
 14 35  1  1
 16 36  1  0
 18 37  1  0
 18 38  1  0
 18 39  1  0
 21 40  1  0
M  END
>  <Score>  (1) 
-7.23845

$$$$
