
     RDKit          3D

 50 53  0  0  0  0  0  0  0  0999 V2000
   65.3350   56.7100   25.9870 C   0  0  0  0  0  0  0  0  0  0  0  0
   64.0030   56.6820   25.4990 C   0  0  0  0  0  0  0  0  0  0  0  0
   62.9650   56.9060   26.3750 C   0  0  0  0  0  0  0  0  0  0  0  0
   63.2590   57.1480   27.6860 N   0  0  0  0  0  0  0  0  0  0  0  0
   64.5260   57.1690   28.1190 C   0  0  0  0  0  0  0  0  0  0  0  0
   65.5730   56.9580   27.3090 N   0  0  0  0  0  0  0  0  0  0  0  0
   64.7590   57.4470   29.5520 C   0  0  0  0  0  0  0  0  0  0  0  0
   63.9110   58.0350   30.4360 C   0  0  0  0  0  0  0  0  0  0  0  0
   64.3500   58.1960   31.7250 C   0  0  0  0  0  0  0  0  0  0  0  0
   65.6310   57.7400   32.0020 C   0  0  0  0  0  0  0  0  0  0  0  0
   66.1960   57.1000   30.4800 S   0  0  0  0  0  0  0  0  0  0  0  0
   66.3590   57.7580   33.2010 N   0  0  0  0  0  0  0  0  0  0  0  0
   67.5770   57.1250   33.3480 C   0  0  0  0  0  0  0  0  0  0  0  0
   67.8300   55.9880   32.7850 N   0  0  0  0  0  0  0  0  0  0  0  0
   68.5690   57.7790   34.1590 N   0  0  0  0  0  0  0  0  0  0  0  0
   67.1580   55.4890   32.2150 H   0  0  0  0  0  0  0  0  0  0  0  0
   61.5970   56.8840   25.9090 C   0  0  0  0  0  0  0  0  0  0  0  0
   60.7530   55.8000   25.9520 C   0  0  0  0  0  0  0  0  0  0  0  0
   59.5530   56.2570   25.3940 C   0  0  0  0  0  0  0  0  0  0  0  0
   59.7400   57.5860   25.0480 C   0  0  0  0  0  0  0  0  0  0  0  0
   60.9670   57.8650   25.3870 O   0  0  0  0  0  0  0  0  0  0  0  0
   58.9030   58.5370   24.4620 N   0  0  0  0  0  0  0  0  0  0  0  0
   59.0780   58.6830   23.1040 C   0  0  0  0  0  0  0  0  0  0  0  0
   58.2320   59.6580   22.6450 C   0  0  0  0  0  0  0  0  0  0  0  0
   57.5420   60.0970   23.7370 N   0  0  0  0  0  0  0  0  0  0  0  0
   57.9710   59.3990   24.8220 C   0  0  0  0  0  0  0  0  0  0  0  0
   57.5150   59.5160   26.1960 C   0  0  0  0  0  0  0  0  0  0  0  0
   56.4890   60.6740   26.2090 C   0  0  0  0  0  0  0  0  0  0  0  0
   58.5140   59.8870   27.2260 C   0  0  0  0  0  0  0  0  0  0  0  0
   56.6230   58.3270   26.5820 C   0  0  0  0  0  0  0  0  0  0  0  0
   66.1760   56.5320   25.3007 H   0  0  0  0  0  0  0  0  0  0  0  0
   63.8026   56.4841   24.4357 H   0  0  0  0  0  0  0  0  0  0  0  0
   62.9091   58.3696   30.1289 H   0  0  0  0  0  0  0  0  0  0  0  0
   63.7207   58.6615   32.4978 H   0  0  0  0  0  0  0  0  0  0  0  0
   65.9676   58.2658   34.0071 H   0  0  0  0  0  0  0  0  0  0  0  0
   69.4918   57.3424   34.2958 H   0  0  0  0  0  0  0  0  0  0  0  0
   68.3564   58.6838   34.6029 H   0  0  0  0  0  0  0  0  0  0  0  0
   60.9722   54.7942   26.3397 H   0  0  0  0  0  0  0  0  0  0  0  0
   58.6328   55.6703   25.2559 H   0  0  0  0  0  0  0  0  0  0  0  0
   59.7842   58.1086   22.4864 H   0  0  0  0  0  0  0  0  0  0  0  0
   58.1301   60.0137   21.6091 H   0  0  0  0  0  0  0  0  0  0  0  0
   56.2516   60.9419   27.2491 H   0  0  0  0  0  0  0  0  0  0  0  0
   56.9152   61.5473   25.6936 H   0  0  0  0  0  0  0  0  0  0  0  0
   55.5707   60.3561   25.6936 H   0  0  0  0  0  0  0  0  0  0  0  0
   58.0855   59.7279   28.2265 H   0  0  0  0  0  0  0  0  0  0  0  0
   59.4117   59.2623   27.1080 H   0  0  0  0  0  0  0  0  0  0  0  0
   58.7863   60.9462   27.1080 H   0  0  0  0  0  0  0  0  0  0  0  0
   56.5665   58.2516   27.6780 H   0  0  0  0  0  0  0  0  0  0  0  0
   55.6134   58.4778   26.1723 H   0  0  0  0  0  0  0  0  0  0  0  0
   57.0503   57.3999   26.1723 H   0  0  0  0  0  0  0  0  0  0  0  0
  1  6  2  0
  2  1  1  0
  2  3  2  0
  3  4  1  0
  4  5  2  0
  5  7  1  0
  6  5  1  0
  7  8  2  0
  7 11  1  0
  8  9  1  0
  9 10  2  0
 10 12  1  0
 11 10  1  0
 12 13  1  0
 13 15  1  0
 14 13  2  0
 16 14  1  0
 17 18  2  0
 17  3  1  0
 19 18  1  0
 20 21  1  0
 20 19  2  0
 21 17  1  0
 22 26  1  0
 22 20  1  0
 23 22  1  0
 24 23  2  0
 24 25  1  0
 25 26  2  0
 26 27  1  0
 27 28  1  0
 27 30  1  0
 27 29  1  0
  1 31  1  0
  2 32  1  0
  8 33  1  0
  9 34  1  0
 12 35  1  0
 15 36  1  0
 15 37  1  0
 18 38  1  0
 19 39  1  0
 23 40  1  0
 24 41  1  0
 28 42  1  0
 28 43  1  0
 28 44  1  0
 29 45  1  0
 29 46  1  0
 29 47  1  0
 30 48  1  0
 30 49  1  0
 30 50  1  0
M  END
>  <Score>  (1) 
-7.18585

$$$$
