
     RDKit          3D

 52 56  0  0  1  0  0  0  0  0999 V2000
   62.0950   56.0510   27.4070 C   0  0  0  0  0  0  0  0  0  0  0  0
   63.2820   56.5730   28.0570 N   0  0  0  0  0  0  0  0  0  0  0  0
   64.2800   57.1010   27.3490 C   0  0  0  0  0  0  0  0  0  0  0  0
   65.3000   57.3400   28.1610 N   0  0  0  0  0  0  0  0  0  0  0  0
   64.8250   57.2250   29.4300 C   0  0  2  0  0  0  0  0  0  0  0  0
   63.5840   56.7260   29.3350 N   0  0  0  0  0  0  0  0  0  0  0  0
   65.2560   57.4760   30.8260 C   0  0  0  0  0  0  0  0  0  0  0  0
   64.4990   58.1260   31.7790 C   0  0  0  0  0  0  0  0  0  0  0  0
   65.0240   58.2910   33.0420 C   0  0  0  0  0  0  0  0  0  0  0  0
   66.2980   57.7920   33.2940 C   0  0  0  0  0  0  0  0  0  0  0  0
   67.0670   57.1370   32.3450 C   0  0  0  0  0  0  0  0  0  0  0  0
   66.5150   56.9810   31.0730 C   0  0  0  0  0  0  0  0  0  0  0  0
   62.2060   56.1180   25.8940 C   0  0  0  0  0  0  0  0  0  0  0  0
   61.3210   57.2530   25.4510 C   0  0  0  0  0  0  0  0  0  0  0  0
   61.7210   58.5830   25.3820 C   0  0  0  0  0  0  0  0  0  0  0  0
   60.7620   59.4750   24.9480 C   0  0  0  0  0  0  0  0  0  0  0  0
   59.5420   59.0430   24.6270 N   0  0  0  0  0  0  0  0  0  0  0  0
   59.1590   57.7770   24.6910 C   0  0  0  0  0  0  0  0  0  0  0  0
   60.0920   56.9220   25.1110 N   0  0  0  0  0  0  0  0  0  0  0  0
   57.8640   57.1510   24.3740 C   0  0  0  0  0  0  0  0  0  0  0  0
   56.7910   57.9040   23.8820 C   0  0  0  0  0  0  0  0  0  0  0  0
   55.5660   57.3740   23.5720 C   0  0  0  0  0  0  0  0  0  0  0  0
   55.3400   56.0340   23.7370 C   0  0  0  0  0  0  0  0  0  0  0  0
   56.3590   55.2550   24.2150 C   0  0  0  0  0  0  0  0  0  0  0  0
   56.1010   53.9110   24.3700 C   0  0  0  0  0  0  0  0  0  0  0  0
   57.0690   53.0570   24.8440 C   0  0  0  0  0  0  0  0  0  0  0  0
   58.3060   53.6370   25.1490 C   0  0  0  0  0  0  0  0  0  0  0  0
   58.5190   54.9840   24.9790 C   0  0  0  0  0  0  0  0  0  0  0  0
   57.5640   55.8330   24.5100 C   0  0  0  0  0  0  0  0  0  0  0  0
   61.9562   55.0021   27.7079 H   0  0  0  0  0  0  0  0  0  0  0  0
   61.2372   56.6670   27.7149 H   0  0  0  0  0  0  0  0  0  0  0  0
   64.5899   56.3956   26.5639 H   0  0  0  0  0  0  0  0  0  0  0  0
   63.9492   58.0386   26.8785 H   0  0  0  0  0  0  0  0  0  0  0  0
   66.0507   56.6535   27.9994 H   0  0  0  0  0  0  0  0  0  0  0  0
   65.2293   56.2037   29.4888 H   0  0  0  0  0  0  0  0  0  0  0  0
   62.9154   57.3756   29.7732 H   0  0  0  0  0  0  0  0  0  0  0  0
   63.4956   58.5052   31.5350 H   0  0  0  0  0  0  0  0  0  0  0  0
   64.4517   58.8032   33.8295 H   0  0  0  0  0  0  0  0  0  0  0  0
   66.7181   57.9246   34.3019 H   0  0  0  0  0  0  0  0  0  0  0  0
   68.0707   56.7560   32.5846 H   0  0  0  0  0  0  0  0  0  0  0  0
   67.0789   56.4694   30.2791 H   0  0  0  0  0  0  0  0  0  0  0  0
   63.2477   56.3101   25.5974 H   0  0  0  0  0  0  0  0  0  0  0  0
   61.8989   55.1692   25.4299 H   0  0  0  0  0  0  0  0  0  0  0  0
   62.7370   58.9035   25.6559 H   0  0  0  0  0  0  0  0  0  0  0  0
   61.0044   60.5449   24.8666 H   0  0  0  0  0  0  0  0  0  0  0  0
   56.9401   58.9840   23.7358 H   0  0  0  0  0  0  0  0  0  0  0  0
   54.7651   58.0246   23.1910 H   0  0  0  0  0  0  0  0  0  0  0  0
   54.3624   55.5936   23.4912 H   0  0  0  0  0  0  0  0  0  0  0  0
   55.1077   53.5156   24.1113 H   0  0  0  0  0  0  0  0  0  0  0  0
   56.8822   51.9810   24.9758 H   0  0  0  0  0  0  0  0  0  0  0  0
   59.1208   53.0043   25.5309 H   0  0  0  0  0  0  0  0  0  0  0  0
   59.5070   55.3951   25.2337 H   0  0  0  0  0  0  0  0  0  0  0  0
  1  2  1  0
  2  6  1  0
  3  2  1  0
  3  4  1  0
  4  5  1  0
  5  7  1  0
  6  5  1  0
  7 12  1  0
  7  8  2  0
  8  9  1  0
  9 10  2  0
 11 10  1  0
 12 11  2  0
 13  1  1  0
 14 13  1  0
 15 14  2  0
 16 15  1  0
 17 18  1  0
 17 16  2  0
 18 19  2  0
 19 14  1  0
 20 29  1  0
 20 18  1  0
 21 20  2  0
 22 23  2  0
 22 21  1  0
 23 24  1  0
 24 25  1  0
 24 29  2  0
 25 26  2  0
 26 27  1  0
 28 27  2  0
 29 28  1  0
  1 30  1  0
  1 31  1  0
  3 32  1  0
  3 33  1  0
  4 34  1  0
  5 35  1  1
  6 36  1  0
  8 37  1  0
  9 38  1  0
 10 39  1  0
 11 40  1  0
 12 41  1  0
 13 42  1  0
 13 43  1  0
 15 44  1  0
 16 45  1  0
 21 46  1  0
 22 47  1  0
 23 48  1  0
 25 49  1  0
 26 50  1  0
 27 51  1  0
 28 52  1  0
M  END
>  <Score>  (1) 
-7.71633

$$$$
