
     RDKit          3D

 43 46  0  0  1  0  0  0  0  0999 V2000
   60.5310   59.9210   25.8220 C   0  0  0  0  0  0  0  0  0  0  0  0
   60.0120   61.1720   26.2110 C   0  0  0  0  0  0  0  0  0  0  0  0
   60.0920   61.4900   27.5640 C   0  0  0  0  0  0  0  0  0  0  0  0
   60.6600   60.5900   28.4360 N   0  0  0  0  0  0  0  0  0  0  0  0
   61.1390   59.4060   28.0070 C   0  0  0  0  0  0  0  0  0  0  0  0
   61.0660   59.0960   26.7160 N   0  0  0  0  0  0  0  0  0  0  0  0
   61.7100   58.5030   28.9310 N   0  0  0  0  0  0  0  0  0  0  0  0
   62.4850   57.4030   28.4720 C   0  0  0  0  0  0  0  0  0  0  0  0
   62.2240   56.9690   27.2920 N   0  0  0  0  0  0  0  0  0  0  0  0
   63.4700   56.9060   29.3930 N   0  0  0  0  0  0  0  0  0  0  0  0
   62.7180   56.2030   26.8270 H   0  0  0  0  0  0  0  0  0  0  0  0
   59.5460   62.7930   28.0520 C   0  0  2  0  0  0  0  0  0  0  0  0
   59.6910   63.1600   29.5110 C   0  0  0  0  0  0  0  0  0  0  0  0
   58.3320   62.8290   28.8670 C   0  0  1  0  0  0  0  0  0  0  0  0
   57.3320   63.9030   28.7200 C   0  0  0  0  0  0  0  0  0  0  0  0
   57.2690   64.8000   27.6910 C   0  0  0  0  0  0  0  0  0  0  0  0
   56.2800   65.7830   27.6430 C   0  0  0  0  0  0  0  0  0  0  0  0
   55.3380   65.8490   28.6690 C   0  0  0  0  0  0  0  0  0  0  0  0
   55.4180   64.9340   29.7020 C   0  0  0  0  0  0  0  0  0  0  0  0
   54.4820   64.9900   30.7350 C   0  0  0  0  0  0  0  0  0  0  0  0
   54.4950   64.1050   31.8120 C   0  0  0  0  0  0  0  0  0  0  0  0
   55.4850   63.1340   31.8410 C   0  0  0  0  0  0  0  0  0  0  0  0
   56.4150   63.0630   30.8350 C   0  0  0  0  0  0  0  0  0  0  0  0
   56.4020   63.9420   29.7660 C   0  0  0  0  0  0  0  0  0  0  0  0
   60.4480   59.5810   24.3590 C   0  0  0  0  0  0  0  0  0  0  0  0
   59.4140   60.1580   23.7280 F   0  0  0  0  0  0  0  0  0  0  0  0
   61.6720   60.0030   23.7850 F   0  0  0  0  0  0  0  0  0  0  0  0
   60.4570   58.1950   24.2080 F   0  0  0  0  0  0  0  0  0  0  0  0
   59.5655   61.8635   25.4813 H   0  0  0  0  0  0  0  0  0  0  0  0
   61.5644   58.6420   29.9411 H   0  0  0  0  0  0  0  0  0  0  0  0
   64.0680   56.1105   29.1277 H   0  0  0  0  0  0  0  0  0  0  0  0
   63.5779   57.3454   30.3183 H   0  0  0  0  0  0  0  0  0  0  0  0
   59.8379   63.2713   27.1054 H   0  0  0  0  0  0  0  0  0  0  0  0
   60.1581   62.4590   30.2183 H   0  0  0  0  0  0  0  0  0  0  0  0
   60.1160   64.0005   30.0793 H   0  0  0  0  0  0  0  0  0  0  0  0
   57.5214   62.1093   29.0540 H   0  0  0  0  0  0  0  0  0  0  0  0
   58.0138   64.7459   26.8834 H   0  0  0  0  0  0  0  0  0  0  0  0
   56.2439   66.4966   26.8067 H   0  0  0  0  0  0  0  0  0  0  0  0
   54.5473   66.6136   28.6566 H   0  0  0  0  0  0  0  0  0  0  0  0
   53.7016   65.7644   30.6981 H   0  0  0  0  0  0  0  0  0  0  0  0
   53.7443   64.1745   32.6130 H   0  0  0  0  0  0  0  0  0  0  0  0
   55.5246   62.4174   32.6746 H   0  0  0  0  0  0  0  0  0  0  0  0
   57.1924   62.2861   30.8792 H   0  0  0  0  0  0  0  0  0  0  0  0
  1  2  2  0
  1  6  1  0
  2  3  1  0
  3 12  1  0
  3  4  2  0
  5  4  1  0
  5  7  1  0
  6  5  2  0
  8  7  1  0
  8 10  1  0
  9  8  2  0
 11  9  1  0
 12 14  1  0
 12 13  1  0
 14 13  1  0
 15 14  1  0
 15 24  1  0
 16 15  2  0
 17 16  1  0
 17 18  2  0
 18 19  1  0
 19 24  2  0
 19 20  1  0
 20 21  2  0
 21 22  1  0
 23 22  2  0
 24 23  1  0
 25  1  1  0
 26 25  1  0
 27 25  1  0
 28 25  1  0
  2 29  1  0
  7 30  1  0
 10 31  1  0
 10 32  1  0
 12 33  1  6
 13 34  1  0
 13 35  1  0
 14 36  1  1
 16 37  1  0
 17 38  1  0
 18 39  1  0
 20 40  1  0
 21 41  1  0
 22 42  1  0
 23 43  1  0
M  END
>  <Score>  (1) 
-7.78188

$$$$
