
     RDKit          3D

 44 47  0  0  0  0  0  0  0  0999 V2000
   62.0790   55.9430   27.4460 C   0  0  0  0  0  0  0  0  0  0  0  0
   63.2290   56.5550   28.0790 N   0  0  0  0  0  0  0  0  0  0  0  0
   64.1930   57.1250   27.3400 C   0  0  0  0  0  0  0  0  0  0  0  0
   65.2090   57.4440   28.1300 N   0  0  0  0  0  0  0  0  0  0  0  0
   64.7860   57.2560   29.4090 C   0  0  0  0  0  0  0  0  0  0  0  0
   63.5850   56.6710   29.3420 N   0  0  0  0  0  0  0  0  0  0  0  0
   65.2360   57.4930   30.8010 C   0  0  0  0  0  0  0  0  0  0  0  0
   64.4920   58.1340   31.7790 C   0  0  0  0  0  0  0  0  0  0  0  0
   65.0450   58.2810   33.0310 C   0  0  0  0  0  0  0  0  0  0  0  0
   66.3190   57.7860   33.2670 C   0  0  0  0  0  0  0  0  0  0  0  0
   67.0580   57.1500   32.2990 C   0  0  0  0  0  0  0  0  0  0  0  0
   66.5080   56.9930   31.0200 C   0  0  0  0  0  0  0  0  0  0  0  0
   62.1960   55.9160   25.9340 C   0  0  0  0  0  0  0  0  0  0  0  0
   61.1140   56.8110   25.4150 C   0  0  0  0  0  0  0  0  0  0  0  0
   61.2540   58.1950   25.2930 C   0  0  0  0  0  0  0  0  0  0  0  0
   60.1610   58.8960   24.7950 C   0  0  0  0  0  0  0  0  0  0  0  0
   59.0420   58.2340   24.4600 N   0  0  0  0  0  0  0  0  0  0  0  0
   58.9350   56.9060   24.5880 C   0  0  0  0  0  0  0  0  0  0  0  0
   59.9830   56.2060   25.0690 N   0  0  0  0  0  0  0  0  0  0  0  0
   57.7460   56.1670   24.2370 N   0  0  0  0  0  0  0  0  0  0  0  0
   57.4650   55.0300   24.8980 C   0  0  0  0  0  0  0  0  0  0  0  0
   56.3040   54.4050   24.4800 C   0  0  0  0  0  0  0  0  0  0  0  0
   55.4930   54.8930   23.4740 C   0  0  0  0  0  0  0  0  0  0  0  0
   54.4520   54.2790   23.1410 O   0  0  0  0  0  0  0  0  0  0  0  0
   55.8890   56.0430   22.8920 N   0  0  0  0  0  0  0  0  0  0  0  0
   56.9980   56.7040   23.2420 C   0  0  0  0  0  0  0  0  0  0  0  0
   57.3500   57.7830   22.6810 O   0  0  0  0  0  0  0  0  0  0  0  0
   61.9832   54.9098   27.8112 H   0  0  0  0  0  0  0  0  0  0  0  0
   61.1952   56.5455   27.7028 H   0  0  0  0  0  0  0  0  0  0  0  0
   64.5330   56.4185   26.5685 H   0  0  0  0  0  0  0  0  0  0  0  0
   63.8021   58.0302   26.8524 H   0  0  0  0  0  0  0  0  0  0  0  0
   63.0269   56.3604   30.1500 H   0  0  0  0  0  0  0  0  0  0  0  0
   63.4840   58.5160   31.5600 H   0  0  0  0  0  0  0  0  0  0  0  0
   64.4845   58.7839   33.8329 H   0  0  0  0  0  0  0  0  0  0  0  0
   66.7552   57.9075   34.2695 H   0  0  0  0  0  0  0  0  0  0  0  0
   68.0654   56.7701   32.5245 H   0  0  0  0  0  0  0  0  0  0  0  0
   67.0676   56.4898   30.2177 H   0  0  0  0  0  0  0  0  0  0  0  0
   63.1823   56.2893   25.6212 H   0  0  0  0  0  0  0  0  0  0  0  0
   62.0924   54.8933   25.5423 H   0  0  0  0  0  0  0  0  0  0  0  0
   62.1852   58.7068   25.5775 H   0  0  0  0  0  0  0  0  0  0  0  0
   60.2130   59.9883   24.6761 H   0  0  0  0  0  0  0  0  0  0  0  0
   58.1028   54.6318   25.7009 H   0  0  0  0  0  0  0  0  0  0  0  0
   56.0105   53.4680   24.9759 H   0  0  0  0  0  0  0  0  0  0  0  0
   55.3064   56.4334   22.1376 H   0  0  0  0  0  0  0  0  0  0  0  0
  1  2  1  0
  2  6  1  0
  3  2  1  0
  3  4  1  0
  4  5  2  0
  5  7  1  0
  6  5  1  0
  7 12  1  0
  7  8  2  0
  8  9  1  0
  9 10  2  0
 11 10  1  0
 12 11  2  0
 13  1  1  0
 14 13  1  0
 15 14  2  0
 16 15  1  0
 17 18  1  0
 17 16  2  0
 18 19  2  0
 19 14  1  0
 20 18  1  0
 20 21  1  0
 22 21  2  0
 23 22  1  0
 24 23  2  0
 25 26  1  0
 25 23  1  0
 26 20  1  0
 27 26  2  0
  1 28  1  0
  1 29  1  0
  3 30  1  0
  3 31  1  0
  6 32  1  0
  8 33  1  0
  9 34  1  0
 10 35  1  0
 11 36  1  0
 12 37  1  0
 13 38  1  0
 13 39  1  0
 15 40  1  0
 16 41  1  0
 21 42  1  0
 22 43  1  0
 25 44  1  0
M  END
>  <Score>  (1) 
-7.39014

$$$$
