
     RDKit          3D

 49 53  0  0  0  0  0  0  0  0999 V2000
   63.5670   57.3530   29.7740 O   0  0  0  0  0  0  0  0  0  0  0  0
   63.3660   57.3950   28.4020 C   0  0  0  0  0  0  0  0  0  0  0  0
   64.4460   57.0030   27.6060 C   0  0  0  0  0  0  0  0  0  0  0  0
   64.2510   57.0410   26.2140 C   0  0  0  0  0  0  0  0  0  0  0  0
   63.0510   57.4470   25.7090 N   0  0  0  0  0  0  0  0  0  0  0  0
   62.0410   57.8150   26.5210 C   0  0  0  0  0  0  0  0  0  0  0  0
   62.2030   57.7870   27.8740 N   0  0  0  0  0  0  0  0  0  0  0  0
   60.7830   58.2400   25.9770 N   0  0  0  0  0  0  0  0  0  0  0  0
   59.9720   59.2040   26.6840 C   0  0  0  0  0  0  0  0  0  0  0  0
   58.5400   59.2100   26.3230 C   0  0  0  0  0  0  0  0  0  0  0  0
   58.2310   58.9140   24.9610 N   0  0  0  0  0  0  0  0  0  0  0  0
   59.3650   58.7030   24.1230 C   0  0  0  0  0  0  0  0  0  0  0  0
   60.3350   57.6980   24.7210 C   0  0  0  0  0  0  0  0  0  0  0  0
   64.2940   58.2310   30.5280 C   0  0  0  0  0  0  0  0  0  0  0  0
   64.8150   57.7170   31.6890 C   0  0  0  0  0  0  0  0  0  0  0  0
   65.5790   58.5100   32.5550 C   0  0  0  0  0  0  0  0  0  0  0  0
   65.7820   59.8090   32.1940 N   0  0  0  0  0  0  0  0  0  0  0  0
   65.2750   60.3060   31.0670 C   0  0  0  0  0  0  0  0  0  0  0  0
   64.5450   59.5450   30.2440 N   0  0  0  0  0  0  0  0  0  0  0  0
   66.1240   57.9840   33.7620 N   0  0  0  0  0  0  0  0  0  0  0  0
   65.6520   58.1340   35.0320 C   0  0  0  0  0  0  0  0  0  0  0  0
   66.4850   57.4660   35.8530 N   0  0  0  0  0  0  0  0  0  0  0  0
   67.4640   56.9030   35.1280 C   0  0  0  0  0  0  0  0  0  0  0  0
   68.5690   56.1230   35.4070 C   0  0  0  0  0  0  0  0  0  0  0  0
   69.3930   55.6980   34.4310 N   0  0  0  0  0  0  0  0  0  0  0  0
   69.1730   56.0170   33.1340 C   0  0  0  0  0  0  0  0  0  0  0  0
   68.1030   56.7760   32.8410 N   0  0  0  0  0  0  0  0  0  0  0  0
   67.2480   57.2250   33.7900 C   0  0  0  0  0  0  0  0  0  0  0  0
   65.4850   61.7160   30.6590 C   0  0  0  0  0  0  0  0  0  0  0  0
   66.0400   61.8330   29.4100 F   0  0  0  0  0  0  0  0  0  0  0  0
   66.2720   62.4060   31.5500 F   0  0  0  0  0  0  0  0  0  0  0  0
   64.2290   62.3580   30.7330 F   0  0  0  0  0  0  0  0  0  0  0  0
   68.8350   55.7650   36.7590 N   0  0  0  0  0  0  0  0  0  0  0  0
   65.4010   56.6808   28.0466 H   0  0  0  0  0  0  0  0  0  0  0  0
   65.0636   56.7442   25.5346 H   0  0  0  0  0  0  0  0  0  0  0  0
   60.0503   58.9898   27.7601 H   0  0  0  0  0  0  0  0  0  0  0  0
   60.3608   60.1936   26.4021 H   0  0  0  0  0  0  0  0  0  0  0  0
   58.0325   58.4637   26.9519 H   0  0  0  0  0  0  0  0  0  0  0  0
   58.2009   60.2441   26.4832 H   0  0  0  0  0  0  0  0  0  0  0  0
   57.6548   58.0605   24.9413 H   0  0  0  0  0  0  0  0  0  0  0  0
   59.8871   59.6612   23.9839 H   0  0  0  0  0  0  0  0  0  0  0  0
   59.0083   58.3015   23.1630 H   0  0  0  0  0  0  0  0  0  0  0  0
   59.8284   56.7354   24.8844 H   0  0  0  0  0  0  0  0  0  0  0  0
   61.1844   57.5224   24.0444 H   0  0  0  0  0  0  0  0  0  0  0  0
   64.6293   56.6632   31.9442 H   0  0  0  0  0  0  0  0  0  0  0  0
   64.7557   58.6970   35.3313 H   0  0  0  0  0  0  0  0  0  0  0  0
   69.8507   55.6651   32.3422 H   0  0  0  0  0  0  0  0  0  0  0  0
   69.6545   55.1839   36.9862 H   0  0  0  0  0  0  0  0  0  0  0  0
   68.2080   56.0871   37.5100 H   0  0  0  0  0  0  0  0  0  0  0  0
  1 14  1  0
  2  1  1  0
  3  2  2  0
  4  3  1  0
  5  4  2  0
  5  6  1  0
  6  7  2  0
  7  2  1  0
  8  6  1  0
  8  9  1  0
 10  9  1  0
 11 10  1  0
 12 13  1  0
 12 11  1  0
 13  8  1  0
 14 15  2  0
 15 16  1  0
 16 20  1  0
 17 16  2  0
 18 17  1  0
 19 14  1  0
 19 18  2  0
 20 28  1  0
 20 21  1  0
 21 22  2  0
 23 24  2  0
 23 22  1  0
 24 33  1  0
 25 24  1  0
 26 25  2  0
 27 26  1  0
 27 28  2  0
 28 23  1  0
 29 32  1  0
 29 18  1  0
 29 31  1  0
 30 29  1  0
  3 34  1  0
  4 35  1  0
  9 36  1  0
  9 37  1  0
 10 38  1  0
 10 39  1  0
 11 40  1  0
 12 41  1  0
 12 42  1  0
 13 43  1  0
 13 44  1  0
 15 45  1  0
 21 46  1  0
 26 47  1  0
 33 48  1  0
 33 49  1  0
M  END
>  <Score>  (1) 
-7.27295

$$$$
