
     RDKit          3D

 44 47  0  0  0  0  0  0  0  0999 V2000
   65.2600   56.7540   25.9630 C   0  0  0  0  0  0  0  0  0  0  0  0
   63.9260   56.6550   25.5070 C   0  0  0  0  0  0  0  0  0  0  0  0
   62.8890   56.8240   26.4060 C   0  0  0  0  0  0  0  0  0  0  0  0
   63.2140   57.0780   27.6960 N   0  0  0  0  0  0  0  0  0  0  0  0
   64.4900   57.1680   28.1110 C   0  0  0  0  0  0  0  0  0  0  0  0
   65.5250   57.0140   27.2820 N   0  0  0  0  0  0  0  0  0  0  0  0
   64.7270   57.4520   29.5390 C   0  0  0  0  0  0  0  0  0  0  0  0
   63.8870   58.0440   30.4460 C   0  0  0  0  0  0  0  0  0  0  0  0
   64.3480   58.1980   31.7230 C   0  0  0  0  0  0  0  0  0  0  0  0
   65.6140   57.7480   31.9930 C   0  0  0  0  0  0  0  0  0  0  0  0
   66.1760   57.1020   30.4560 S   0  0  0  0  0  0  0  0  0  0  0  0
   66.3520   57.7720   33.1980 N   0  0  0  0  0  0  0  0  0  0  0  0
   67.5710   57.1420   33.3310 C   0  0  0  0  0  0  0  0  0  0  0  0
   67.8120   56.0050   32.7770 N   0  0  0  0  0  0  0  0  0  0  0  0
   68.5880   57.7930   34.1150 N   0  0  0  0  0  0  0  0  0  0  0  0
   67.1330   55.4960   32.2170 H   0  0  0  0  0  0  0  0  0  0  0  0
   61.5020   56.7300   25.9720 C   0  0  0  0  0  0  0  0  0  0  0  0
   60.7390   55.5950   25.9850 C   0  0  0  0  0  0  0  0  0  0  0  0
   59.4930   55.9860   25.4860 C   0  0  0  0  0  0  0  0  0  0  0  0
   59.5860   57.3430   25.2010 C   0  0  0  0  0  0  0  0  0  0  0  0
   60.8050   57.7210   25.5130 O   0  0  0  0  0  0  0  0  0  0  0  0
   58.5820   58.2920   24.6520 C   0  0  0  0  0  0  0  0  0  0  0  0
   58.6260   58.3990   23.1470 C   0  0  0  0  0  0  0  0  0  0  0  0
   58.3170   59.8120   22.7740 C   0  0  0  0  0  0  0  0  0  0  0  0
   58.4800   60.6240   24.0240 C   0  0  0  0  0  0  0  0  0  0  0  0
   58.7640   59.7040   25.1670 C   0  0  0  0  0  0  0  0  0  0  0  0
   66.0909   56.6215   25.2545 H   0  0  0  0  0  0  0  0  0  0  0  0
   63.7148   56.4457   24.4480 H   0  0  0  0  0  0  0  0  0  0  0  0
   62.8809   58.3820   30.1571 H   0  0  0  0  0  0  0  0  0  0  0  0
   63.7280   58.6643   32.5028 H   0  0  0  0  0  0  0  0  0  0  0  0
   65.9648   58.2789   34.0067 H   0  0  0  0  0  0  0  0  0  0  0  0
   69.5097   57.3488   34.2340 H   0  0  0  0  0  0  0  0  0  0  0  0
   68.3939   58.7029   34.5569 H   0  0  0  0  0  0  0  0  0  0  0  0
   61.0408   54.5906   26.3167 H   0  0  0  0  0  0  0  0  0  0  0  0
   58.6106   55.3443   25.3461 H   0  0  0  0  0  0  0  0  0  0  0  0
   57.6237   57.8677   24.9862 H   0  0  0  0  0  0  0  0  0  0  0  0
   59.6279   58.1276   22.7829 H   0  0  0  0  0  0  0  0  0  0  0  0
   57.8923   57.7158   22.6943 H   0  0  0  0  0  0  0  0  0  0  0  0
   59.0145   60.1623   21.9989 H   0  0  0  0  0  0  0  0  0  0  0  0
   57.2988   59.9042   22.3680 H   0  0  0  0  0  0  0  0  0  0  0  0
   59.3162   61.3279   23.9003 H   0  0  0  0  0  0  0  0  0  0  0  0
   57.5582   61.1905   24.2225 H   0  0  0  0  0  0  0  0  0  0  0  0
   58.0632   59.8987   25.9922 H   0  0  0  0  0  0  0  0  0  0  0  0
   59.7844   59.8548   25.5491 H   0  0  0  0  0  0  0  0  0  0  0  0
  1  6  2  0
  2  1  1  0
  2  3  2  0
  3  4  1  0
  4  5  2  0
  5  7  1  0
  6  5  1  0
  7  8  2  0
  7 11  1  0
  8  9  1  0
  9 10  2  0
 10 12  1  0
 11 10  1  0
 12 13  1  0
 13 15  1  0
 14 13  2  0
 16 14  1  0
 17 18  2  0
 17  3  1  0
 19 18  1  0
 20 19  2  0
 20 21  1  0
 21 17  1  0
 22 26  1  0
 22 20  1  0
 23 22  1  0
 24 23  1  0
 24 25  1  0
 25 26  1  0
  1 27  1  0
  2 28  1  0
  8 29  1  0
  9 30  1  0
 12 31  1  0
 15 32  1  0
 15 33  1  0
 18 34  1  0
 19 35  1  0
 22 36  1  0
 23 37  1  0
 23 38  1  0
 24 39  1  0
 24 40  1  0
 25 41  1  0
 25 42  1  0
 26 43  1  0
 26 44  1  0
M  END
>  <Score>  (1) 
-7.03595

$$$$
