
     RDKit          3D

 45 50  0  0  0  0  0  0  0  0999 V2000
   57.9650   57.5280   23.5360 C   0  0  0  0  0  0  0  0  0  0  0  0
   57.6230   56.4840   22.8410 C   0  0  0  0  0  0  0  0  0  0  0  0
   56.2820   56.1630   22.7160 C   0  0  0  0  0  0  0  0  0  0  0  0
   55.3840   57.0580   23.3980 C   0  0  0  0  0  0  0  0  0  0  0  0
   56.4980   58.2740   24.1560 S   0  0  0  0  0  0  0  0  0  0  0  0
   53.9620   57.1160   23.5420 C   0  0  0  0  0  0  0  0  0  0  0  0
   52.9810   56.1920   23.2880 N   0  0  0  0  0  0  0  0  0  0  0  0
   51.8290   56.6930   23.5650 O   0  0  0  0  0  0  0  0  0  0  0  0
   51.9510   57.9380   24.0080 C   0  0  0  0  0  0  0  0  0  0  0  0
   53.2760   58.1740   23.9830 N   0  0  0  0  0  0  0  0  0  0  0  0
   51.0180   58.9200   24.4420 N   0  0  0  0  0  0  0  0  0  0  0  0
   50.0680   59.6790   23.8670 C   0  0  0  0  0  0  0  0  0  0  0  0
   49.4810   60.4490   24.7980 N   0  0  0  0  0  0  0  0  0  0  0  0
   50.0670   60.1740   25.9790 C   0  0  0  0  0  0  0  0  0  0  0  0
   49.7940   60.7200   27.2110 C   0  0  0  0  0  0  0  0  0  0  0  0
   48.9090   61.5970   27.4000 O   0  0  0  0  0  0  0  0  0  0  0  0
   50.4880   60.3190   28.2930 N   0  0  0  0  0  0  0  0  0  0  0  0
   51.4360   59.3770   28.0820 C   0  0  0  0  0  0  0  0  0  0  0  0
   52.2780   58.8210   29.0980 N   0  0  0  0  0  0  0  0  0  0  0  0
   51.6930   58.8530   26.8790 N   0  0  0  0  0  0  0  0  0  0  0  0
   51.0330   59.2130   25.7600 C   0  0  0  0  0  0  0  0  0  0  0  0
   59.3910   57.8510   23.6490 C   0  0  0  0  0  0  0  0  0  0  0  0
   59.9060   58.6640   22.8690 O   0  0  0  0  0  0  0  0  0  0  0  0
   61.6710   56.7590   26.1760 C   0  0  0  0  0  0  0  0  0  0  0  0
   60.8510   55.6320   26.1610 C   0  0  0  0  0  0  0  0  0  0  0  0
   59.8930   55.9450   25.1860 C   0  0  0  0  0  0  0  0  0  0  0  0
   60.1780   57.2080   24.6780 C   0  0  0  0  0  0  0  0  0  0  0  0
   61.2250   57.6240   25.2980 O   0  0  0  0  0  0  0  0  0  0  0  0
   64.1060   57.1090   26.4910 C   0  0  0  0  0  0  0  0  0  0  0  0
   62.8210   56.9300   27.0260 C   0  0  0  0  0  0  0  0  0  0  0  0
   62.6820   56.9230   28.4100 C   0  0  0  0  0  0  0  0  0  0  0  0
   63.8440   57.0940   29.1200 N   0  0  0  0  0  0  0  0  0  0  0  0
   65.0370   57.2600   28.6030 C   0  0  0  0  0  0  0  0  0  0  0  0
   65.1680   57.2670   27.2900 N   0  0  0  0  0  0  0  0  0  0  0  0
   58.3908   55.8623   22.3574 H   0  0  0  0  0  0  0  0  0  0  0  0
   55.9307   55.2933   22.1413 H   0  0  0  0  0  0  0  0  0  0  0  0
   49.8110   59.6704   22.7975 H   0  0  0  0  0  0  0  0  0  0  0  0
   50.3072   60.7079   29.2295 H   0  0  0  0  0  0  0  0  0  0  0  0
   52.9771   58.1054   28.8528 H   0  0  0  0  0  0  0  0  0  0  0  0
   52.1846   59.1366   30.0740 H   0  0  0  0  0  0  0  0  0  0  0  0
   60.9350   54.7181   26.7674 H   0  0  0  0  0  0  0  0  0  0  0  0
   59.0574   55.3006   24.8754 H   0  0  0  0  0  0  0  0  0  0  0  0
   64.2423   57.1196   25.3995 H   0  0  0  0  0  0  0  0  0  0  0  0
   61.7072   56.7895   28.9019 H   0  0  0  0  0  0  0  0  0  0  0  0
   65.9146   57.3913   29.2530 H   0  0  0  0  0  0  0  0  0  0  0  0
  1 22  1  0
  1  5  1  0
  2  1  2  0
  3  2  1  0
  3  4  2  0
  4  6  1  0
  4  5  1  0
  6 10  1  0
  7  6  2  0
  7  8  1  0
  8  9  1  0
  9 11  1  0
 10  9  2  0
 11 21  1  0
 12 11  1  0
 12 13  2  0
 13 14  1  0
 14 15  1  0
 15 16  2  0
 15 17  1  0
 18 17  1  0
 18 19  1  0
 20 18  2  0
 21 14  2  0
 21 20  1  0
 22 27  1  0
 23 22  2  0
 24 30  1  0
 25 24  2  0
 26 25  1  0
 27 26  2  0
 27 28  1  0
 28 24  1  0
 29 30  2  0
 29 34  1  0
 30 31  1  0
 31 32  2  0
 33 32  1  0
 34 33  2  0
  2 35  1  0
  3 36  1  0
 12 37  1  0
 17 38  1  0
 19 39  1  0
 19 40  1  0
 25 41  1  0
 26 42  1  0
 29 43  1  0
 31 44  1  0
 33 45  1  0
M  END
>  <Score>  (1) 
-7.20658

$$$$
