
     RDKit          3D

 37 40  0  0  0  0  0  0  0  0999 V2000
   63.1720   57.2690   27.5600 C   0  0  0  0  0  0  0  0  0  0  0  0
   61.9990   58.0460   27.6540 C   0  0  0  0  0  0  0  0  0  0  0  0
   61.8120   58.7400   28.8600 C   0  0  0  0  0  0  0  0  0  0  0  0
   62.7290   58.6380   29.8320 N   0  0  0  0  0  0  0  0  0  0  0  0
   63.8420   57.8860   29.7110 C   0  0  0  0  0  0  0  0  0  0  0  0
   64.0720   57.1910   28.5610 N   0  0  0  0  0  0  0  0  0  0  0  0
   64.7830   57.8150   30.7850 N   0  0  0  0  0  0  0  0  0  0  0  0
   64.4210   58.3820   31.9640 C   0  0  0  0  0  0  0  0  0  0  0  0
   65.3160   58.3320   33.0320 C   0  0  0  0  0  0  0  0  0  0  0  0
   66.5120   57.6940   32.7800 C   0  0  0  0  0  0  0  0  0  0  0  0
   67.4650   57.6110   33.8300 N   0  0  0  0  0  0  0  0  0  0  0  0
   66.8610   57.1340   31.6030 N   0  0  0  0  0  0  0  0  0  0  0  0
   65.9660   57.1990   30.5770 C   0  0  0  0  0  0  0  0  0  0  0  0
   66.2340   56.7000   29.4680 O   0  0  0  0  0  0  0  0  0  0  0  0
   61.1710   57.9900   26.4720 C   0  0  0  0  0  0  0  0  0  0  0  0
   61.0900   56.7350   25.8690 C   0  0  0  0  0  0  0  0  0  0  0  0
   60.3600   56.4600   24.7380 C   0  0  0  0  0  0  0  0  0  0  0  0
   59.6580   57.4950   24.1570 C   0  0  0  0  0  0  0  0  0  0  0  0
   59.7170   58.7370   24.7230 C   0  0  0  0  0  0  0  0  0  0  0  0
   59.0460   59.8210   24.2030 C   0  0  0  0  0  0  0  0  0  0  0  0
   59.0980   61.0790   24.7660 C   0  0  0  0  0  0  0  0  0  0  0  0
   59.8580   61.2790   25.9100 C   0  0  0  0  0  0  0  0  0  0  0  0
   60.5440   60.2200   26.4610 C   0  0  0  0  0  0  0  0  0  0  0  0
   60.4520   58.9900   25.8540 C   0  0  0  0  0  0  0  0  0  0  0  0
   63.3600   56.7049   26.6346 H   0  0  0  0  0  0  0  0  0  0  0  0
   60.9179   59.3639   29.0063 H   0  0  0  0  0  0  0  0  0  0  0  0
   63.4418   58.8708   32.0746 H   0  0  0  0  0  0  0  0  0  0  0  0
   65.0829   58.7731   34.0124 H   0  0  0  0  0  0  0  0  0  0  0  0
   68.3671   57.1402   33.6707 H   0  0  0  0  0  0  0  0  0  0  0  0
   67.2539   58.0216   34.7507 H   0  0  0  0  0  0  0  0  0  0  0  0
   61.6493   55.9081   26.3309 H   0  0  0  0  0  0  0  0  0  0  0  0
   60.3363   55.4470   24.3098 H   0  0  0  0  0  0  0  0  0  0  0  0
   59.0590   57.3230   23.2506 H   0  0  0  0  0  0  0  0  0  0  0  0
   58.4402   59.6770   23.2962 H   0  0  0  0  0  0  0  0  0  0  0  0
   58.5435   61.9143   24.3135 H   0  0  0  0  0  0  0  0  0  0  0  0
   59.9118   62.2755   26.3727 H   0  0  0  0  0  0  0  0  0  0  0  0
   61.1525   60.3552   27.3673 H   0  0  0  0  0  0  0  0  0  0  0  0
  1  2  2  0
  1  6  1  0
  2  3  1  0
  3  4  2  0
  5  4  1  0
  5  7  1  0
  6  5  2  0
  7  8  1  0
  8  9  2  0
 10  9  1  0
 10 11  1  0
 12 10  2  0
 13  7  1  0
 13 12  1  0
 14 13  2  0
 15  2  1  0
 16 15  2  0
 17 16  1  0
 18 19  1  0
 18 17  2  0
 19 24  2  0
 20 19  1  0
 20 21  2  0
 21 22  1  0
 22 23  2  0
 24 23  1  0
 24 15  1  0
  1 25  1  0
  3 26  1  0
  8 27  1  0
  9 28  1  0
 11 29  1  0
 11 30  1  0
 16 31  1  0
 17 32  1  0
 18 33  1  0
 20 34  1  0
 21 35  1  0
 22 36  1  0
 23 37  1  0
M  END
>  <Score>  (1) 
-7.41284

$$$$
