
     RDKit          3D

 54 59  0  0  1  0  0  0  0  0999 V2000
   65.4410   58.4940   32.4240 C   0  0  1  0  0  0  0  0  0  0  0  0
   65.7980   57.7940   33.7160 C   0  0  0  0  0  0  0  0  0  0  0  0
   66.3010   58.9170   34.6010 C   0  0  0  0  0  0  0  0  0  0  0  0
   66.5340   60.0940   33.6740 C   0  0  0  0  0  0  0  0  0  0  0  0
   66.5170   59.4810   32.2870 C   0  0  2  0  0  0  0  0  0  0  0  0
   65.6610   57.7850   29.9650 C   0  0  2  0  0  0  0  0  0  0  0  0
   66.4170   56.8370   30.8070 C   0  0  0  0  0  0  0  0  0  0  0  0
   65.2700   57.5510   31.2370 C   0  0  1  0  0  0  0  0  0  0  0  0
   64.2720   56.9590   26.6230 C   0  0  0  0  0  0  0  0  0  0  0  0
   62.9540   56.5210   26.9560 C   0  0  0  0  0  0  0  0  0  0  0  0
   62.6150   56.5300   28.3140 C   0  0  0  0  0  0  0  0  0  0  0  0
   63.5320   56.9420   29.2180 N   0  0  0  0  0  0  0  0  0  0  0  0
   64.7800   57.3530   28.8510 C   0  0  0  0  0  0  0  0  0  0  0  0
   65.1430   57.3580   27.5550 N   0  0  0  0  0  0  0  0  0  0  0  0
   66.0820   60.5270   31.3570 N   0  0  0  0  0  0  0  0  0  0  0  0
   64.8640   60.9770   31.0600 C   0  0  0  0  0  0  0  0  0  0  0  0
   64.9740   61.9510   30.1270 N   0  0  0  0  0  0  0  0  0  0  0  0
   66.2440   62.1120   29.8380 C   0  0  0  0  0  0  0  0  0  0  0  0
   66.8990   61.2410   30.5950 N   0  0  0  0  0  0  0  0  0  0  0  0
   67.0660   62.9440   28.9570 C   0  0  0  0  0  0  0  0  0  0  0  0
   66.5710   63.8170   27.9810 C   0  0  0  0  0  0  0  0  0  0  0  0
   67.3710   64.5840   27.1720 C   0  0  0  0  0  0  0  0  0  0  0  0
   68.7410   64.5300   27.2860 C   0  0  0  0  0  0  0  0  0  0  0  0
   69.2870   63.6880   28.2300 C   0  0  0  0  0  0  0  0  0  0  0  0
   70.6500   63.6700   28.3040 C   0  0  0  0  0  0  0  0  0  0  0  0
   71.2800   62.8620   29.2140 C   0  0  0  0  0  0  0  0  0  0  0  0
   70.4850   62.0860   30.0340 C   0  0  0  0  0  0  0  0  0  0  0  0
   69.1300   62.1470   29.9130 C   0  0  0  0  0  0  0  0  0  0  0  0
   68.4410   62.9380   29.0190 C   0  0  0  0  0  0  0  0  0  0  0  0
   64.4478   58.9665   32.4438 H   0  0  0  0  0  0  0  0  0  0  0  0
   64.9143   57.3108   34.1583 H   0  0  0  0  0  0  0  0  0  0  0  0
   66.5392   56.9930   33.5781 H   0  0  0  0  0  0  0  0  0  0  0  0
   65.5495   59.1713   35.3629 H   0  0  0  0  0  0  0  0  0  0  0  0
   67.2189   58.6330   35.1366 H   0  0  0  0  0  0  0  0  0  0  0  0
   65.7328   60.8401   33.7811 H   0  0  0  0  0  0  0  0  0  0  0  0
   67.4741   60.6226   33.8906 H   0  0  0  0  0  0  0  0  0  0  0  0
   67.4727   59.0639   31.9368 H   0  0  0  0  0  0  0  0  0  0  0  0
   65.9537   58.6585   29.3639 H   0  0  0  0  0  0  0  0  0  0  0  0
   66.3667   55.7545   30.6182 H   0  0  0  0  0  0  0  0  0  0  0  0
   67.4578   56.7139   31.1411 H   0  0  0  0  0  0  0  0  0  0  0  0
   64.2680   57.3128   31.6233 H   0  0  0  0  0  0  0  0  0  0  0  0
   64.5798   56.9683   25.5670 H   0  0  0  0  0  0  0  0  0  0  0  0
   62.2416   56.1933   26.1846 H   0  0  0  0  0  0  0  0  0  0  0  0
   61.6160   56.2062   28.6413 H   0  0  0  0  0  0  0  0  0  0  0  0
   64.2520   60.1532   30.6640 H   0  0  0  0  0  0  0  0  0  0  0  0
   64.3833   61.3785   31.9643 H   0  0  0  0  0  0  0  0  0  0  0  0
   67.9232   61.1322   30.5911 H   0  0  0  0  0  0  0  0  0  0  0  0
   65.4807   63.8922   27.8557 H   0  0  0  0  0  0  0  0  0  0  0  0
   66.9125   65.2486   26.4250 H   0  0  0  0  0  0  0  0  0  0  0  0
   69.3848   65.1441   26.6392 H   0  0  0  0  0  0  0  0  0  0  0  0
   71.2442   64.3059   27.6313 H   0  0  0  0  0  0  0  0  0  0  0  0
   72.3771   62.8327   29.2884 H   0  0  0  0  0  0  0  0  0  0  0  0
   70.9439   61.4219   30.7812 H   0  0  0  0  0  0  0  0  0  0  0  0
   68.5352   61.5114   30.5855 H   0  0  0  0  0  0  0  0  0  0  0  0
  1  2  1  0
  2  3  1  0
  4  3  1  0
  5  1  1  0
  5  4  1  0
  6  7  1  0
  6  8  1  0
  7  8  1  0
  8  1  1  0
  9 10  2  0
  9 14  1  0
 10 11  1  0
 11 12  2  0
 13 12  1  0
 13  6  1  0
 14 13  2  0
 15 19  1  0
 15  5  1  0
 16 15  1  0
 17 16  1  0
 18 17  2  0
 18 19  1  0
 20 29  1  0
 20 18  1  0
 21 20  2  0
 22 23  2  0
 22 21  1  0
 23 24  1  0
 24 25  1  0
 24 29  2  0
 25 26  2  0
 26 27  1  0
 28 27  2  0
 29 28  1  0
  1 30  1  1
  2 31  1  0
  2 32  1  0
  3 33  1  0
  3 34  1  0
  4 35  1  0
  4 36  1  0
  5 37  1  6
  6 38  1  1
  7 39  1  0
  7 40  1  0
  8 41  1  6
  9 42  1  0
 10 43  1  0
 11 44  1  0
 16 45  1  0
 16 46  1  0
 19 47  1  0
 21 48  1  0
 22 49  1  0
 23 50  1  0
 25 51  1  0
 26 52  1  0
 27 53  1  0
 28 54  1  0
M  END
>  <Score>  (1) 
-7.53088

$$$$
