
     RDKit          3D

 41 44  0  0  0  0  0  0  0  0999 V2000
   65.3380   56.7010   26.0010 C   0  0  0  0  0  0  0  0  0  0  0  0
   64.0090   56.7130   25.5100 C   0  0  0  0  0  0  0  0  0  0  0  0
   62.9690   56.9710   26.3850 C   0  0  0  0  0  0  0  0  0  0  0  0
   63.2790   57.2060   27.6950 N   0  0  0  0  0  0  0  0  0  0  0  0
   64.5550   57.1870   28.1290 C   0  0  0  0  0  0  0  0  0  0  0  0
   65.5890   56.9430   27.3250 N   0  0  0  0  0  0  0  0  0  0  0  0
   64.7850   57.4560   29.5580 C   0  0  0  0  0  0  0  0  0  0  0  0
   63.9360   58.0340   30.4650 C   0  0  0  0  0  0  0  0  0  0  0  0
   64.3850   58.1790   31.7490 C   0  0  0  0  0  0  0  0  0  0  0  0
   65.6640   57.7250   32.0200 C   0  0  0  0  0  0  0  0  0  0  0  0
   66.2320   57.0970   30.4760 S   0  0  0  0  0  0  0  0  0  0  0  0
   66.3820   57.7410   33.2220 N   0  0  0  0  0  0  0  0  0  0  0  0
   67.5960   57.1050   33.3700 C   0  0  0  0  0  0  0  0  0  0  0  0
   67.8540   55.9780   32.8000 N   0  0  0  0  0  0  0  0  0  0  0  0
   68.5960   57.7290   34.1900 N   0  0  0  0  0  0  0  0  0  0  0  0
   67.1760   55.4760   32.2330 H   0  0  0  0  0  0  0  0  0  0  0  0
   61.5890   56.9920   25.9220 C   0  0  0  0  0  0  0  0  0  0  0  0
   60.7560   55.8840   25.8830 C   0  0  0  0  0  0  0  0  0  0  0  0
   59.5440   56.3830   25.3730 C   0  0  0  0  0  0  0  0  0  0  0  0
   59.7390   57.7500   25.1440 C   0  0  0  0  0  0  0  0  0  0  0  0
   60.9690   58.0360   25.4910 O   0  0  0  0  0  0  0  0  0  0  0  0
   58.8750   58.7580   24.6400 N   0  0  0  0  0  0  0  0  0  0  0  0
   58.9060   58.9170   23.2960 C   0  0  0  0  0  0  0  0  0  0  0  0
   58.1160   59.8620   22.6560 C   0  0  0  0  0  0  0  0  0  0  0  0
   57.3010   60.6300   23.4660 C   0  0  0  0  0  0  0  0  0  0  0  0
   56.5560   61.5070   22.9770 O   0  0  0  0  0  0  0  0  0  0  0  0
   57.3050   60.4360   24.7970 N   0  0  0  0  0  0  0  0  0  0  0  0
   58.0710   59.5190   25.4110 C   0  0  0  0  0  0  0  0  0  0  0  0
   58.0790   59.3320   26.6570 O   0  0  0  0  0  0  0  0  0  0  0  0
   66.1728   56.4961   25.3146 H   0  0  0  0  0  0  0  0  0  0  0  0
   63.8067   56.5196   24.4462 H   0  0  0  0  0  0  0  0  0  0  0  0
   62.9303   58.3691   30.1714 H   0  0  0  0  0  0  0  0  0  0  0  0
   63.7587   58.6352   32.5297 H   0  0  0  0  0  0  0  0  0  0  0  0
   65.9876   58.2479   34.0272 H   0  0  0  0  0  0  0  0  0  0  0  0
   69.5124   57.2766   34.3185 H   0  0  0  0  0  0  0  0  0  0  0  0
   68.3970   58.6290   34.6497 H   0  0  0  0  0  0  0  0  0  0  0  0
   60.9896   54.8516   26.1823 H   0  0  0  0  0  0  0  0  0  0  0  0
   58.6226   55.8107   25.1898 H   0  0  0  0  0  0  0  0  0  0  0  0
   59.5739   58.2814   22.6961 H   0  0  0  0  0  0  0  0  0  0  0  0
   58.1374   59.9925   21.5640 H   0  0  0  0  0  0  0  0  0  0  0  0
   56.6875   61.0221   25.3767 H   0  0  0  0  0  0  0  0  0  0  0  0
  1  6  2  0
  2  1  1  0
  2  3  2  0
  3  4  1  0
  4  5  2  0
  5  7  1  0
  6  5  1  0
  7  8  2  0
  7 11  1  0
  8  9  1  0
  9 10  2  0
 10 12  1  0
 11 10  1  0
 12 13  1  0
 13 15  1  0
 14 13  2  0
 16 14  1  0
 17  3  1  0
 18 17  2  0
 19 18  1  0
 20 19  2  0
 20 21  1  0
 21 17  1  0
 22 20  1  0
 22 28  1  0
 23 22  1  0
 24 23  2  0
 24 25  1  0
 25 27  1  0
 26 25  2  0
 27 28  1  0
 28 29  2  0
  1 30  1  0
  2 31  1  0
  8 32  1  0
  9 33  1  0
 12 34  1  0
 15 35  1  0
 15 36  1  0
 18 37  1  0
 19 38  1  0
 23 39  1  0
 24 40  1  0
 27 41  1  0
M  END
>  <Score>  (1) 
-7.25163

$$$$
