
     RDKit          3D

 42 46  0  0  0  0  0  0  0  0999 V2000
   63.6520   57.0020   26.9110 C   0  0  0  0  0  0  0  0  0  0  0  0
   62.3340   57.2800   27.2990 C   0  0  0  0  0  0  0  0  0  0  0  0
   62.1490   57.7520   28.5870 C   0  0  0  0  0  0  0  0  0  0  0  0
   63.2450   57.9050   29.3690 N   0  0  0  0  0  0  0  0  0  0  0  0
   64.4900   57.6400   28.9960 C   0  0  0  0  0  0  0  0  0  0  0  0
   64.6740   57.1910   27.7700 N   0  0  0  0  0  0  0  0  0  0  0  0
   61.3580   57.0100   26.2480 C   0  0  0  0  0  0  0  0  0  0  0  0
   60.8850   55.6800   26.2340 C   0  0  0  0  0  0  0  0  0  0  0  0
   59.9630   55.2200   25.3260 C   0  0  0  0  0  0  0  0  0  0  0  0
   59.4720   56.0830   24.3860 C   0  0  0  0  0  0  0  0  0  0  0  0
   59.9170   57.3770   24.3820 C   0  0  0  0  0  0  0  0  0  0  0  0
   59.4750   58.3080   23.4650 C   0  0  0  0  0  0  0  0  0  0  0  0
   59.9290   59.6150   23.4590 C   0  0  0  0  0  0  0  0  0  0  0  0
   60.8720   60.0350   24.4070 C   0  0  0  0  0  0  0  0  0  0  0  0
   61.3240   59.1210   25.3290 C   0  0  0  0  0  0  0  0  0  0  0  0
   60.8390   57.8370   25.2900 C   0  0  0  0  0  0  0  0  0  0  0  0
   65.4300   57.9160   30.0780 C   0  0  0  0  0  0  0  0  0  0  0  0
   66.2610   56.9620   30.6010 C   0  0  0  0  0  0  0  0  0  0  0  0
   67.1610   57.1790   31.6200 C   0  0  0  0  0  0  0  0  0  0  0  0
   67.2720   58.4190   32.1860 C   0  0  0  0  0  0  0  0  0  0  0  0
   66.4740   59.4130   31.7100 C   0  0  0  0  0  0  0  0  0  0  0  0
   66.6020   60.6530   32.2940 C   0  0  0  0  0  0  0  0  0  0  0  0
   65.8290   61.7120   31.8690 C   0  0  0  0  0  0  0  0  0  0  0  0
   64.9270   61.4560   30.8330 C   0  0  0  0  0  0  0  0  0  0  0  0
   64.8350   60.2140   30.2880 C   0  0  0  0  0  0  0  0  0  0  0  0
   65.5910   59.1410   30.6900 C   0  0  0  0  0  0  0  0  0  0  0  0
   63.8542   56.6264   25.8971 H   0  0  0  0  0  0  0  0  0  0  0  0
   61.1445   57.9951   28.9637 H   0  0  0  0  0  0  0  0  0  0  0  0
   61.2736   54.9782   26.9866 H   0  0  0  0  0  0  0  0  0  0  0  0
   59.6248   54.1737   25.3545 H   0  0  0  0  0  0  0  0  0  0  0  0
   58.7324   55.7431   23.6461 H   0  0  0  0  0  0  0  0  0  0  0  0
   58.7350   58.0002   22.7115 H   0  0  0  0  0  0  0  0  0  0  0  0
   59.5495   60.3251   22.7095 H   0  0  0  0  0  0  0  0  0  0  0  0
   61.2415   61.0711   24.4131 H   0  0  0  0  0  0  0  0  0  0  0  0
   62.0643   59.4143   26.0879 H   0  0  0  0  0  0  0  0  0  0  0  0
   66.2056   55.9488   30.1763 H   0  0  0  0  0  0  0  0  0  0  0  0
   67.7923   56.3531   31.9797 H   0  0  0  0  0  0  0  0  0  0  0  0
   67.9853   58.6072   33.0019 H   0  0  0  0  0  0  0  0  0  0  0  0
   67.3279   60.8000   33.1073 H   0  0  0  0  0  0  0  0  0  0  0  0
   65.9178   62.7099   32.3232 H   0  0  0  0  0  0  0  0  0  0  0  0
   64.2860   62.2662   30.4553 H   0  0  0  0  0  0  0  0  0  0  0  0
   64.1103   60.0593   29.4750 H   0  0  0  0  0  0  0  0  0  0  0  0
  1  2  2  0
  1  6  1  0
  2  3  1  0
  3  4  2  0
  5  4  1  0
  5 17  1  0
  6  5  2  0
  7  2  1  0
  8  7  2  0
  9  8  1  0
 10  9  2  0
 11 10  1  0
 11 16  2  0
 12 11  1  0
 13 12  2  0
 13 14  1  0
 14 15  2  0
 16 15  1  0
 16  7  1  0
 17 18  2  0
 17 26  1  0
 18 19  1  0
 19 20  2  0
 21 20  1  0
 21 22  2  0
 23 22  1  0
 24 23  2  0
 25 26  2  0
 25 24  1  0
 26 21  1  0
  1 27  1  0
  3 28  1  0
  8 29  1  0
  9 30  1  0
 10 31  1  0
 12 32  1  0
 13 33  1  0
 14 34  1  0
 15 35  1  0
 18 36  1  0
 19 37  1  0
 20 38  1  0
 22 39  1  0
 23 40  1  0
 24 41  1  0
 25 42  1  0
M  END
>  <Score>  (1) 
-7.87023

$$$$
