
     RDKit          3D

 41 45  0  0  0  0  0  0  0  0999 V2000
   60.2830   58.5090   25.5200 C   0  0  0  0  0  0  0  0  0  0  0  0
   61.1090   59.2590   24.7060 C   0  0  0  0  0  0  0  0  0  0  0  0
   60.3410   59.8950   23.7280 C   0  0  0  0  0  0  0  0  0  0  0  0
   59.0450   59.4700   24.0230 C   0  0  0  0  0  0  0  0  0  0  0  0
   59.0790   58.6890   25.0460 O   0  0  0  0  0  0  0  0  0  0  0  0
   57.8790   59.8940   23.2420 C   0  0  0  0  0  0  0  0  0  0  0  0
   57.1930   59.1910   22.2770 C   0  0  0  0  0  0  0  0  0  0  0  0
   56.1980   59.9420   21.8140 N   0  0  0  0  0  0  0  0  0  0  0  0
   56.1890   61.1260   22.4350 C   0  0  0  0  0  0  0  0  0  0  0  0
   55.3550   62.1910   22.2800 C   0  0  0  0  0  0  0  0  0  0  0  0
   55.5930   63.2990   23.0740 C   0  0  0  0  0  0  0  0  0  0  0  0
   56.6280   63.3770   24.0090 C   0  0  0  0  0  0  0  0  0  0  0  0
   57.4280   62.2540   24.1050 C   0  0  0  0  0  0  0  0  0  0  0  0
   57.2410   61.1120   23.3360 C   0  0  0  0  0  0  0  0  0  0  0  0
   60.6720   57.7290   26.6110 O   0  0  0  0  0  0  0  0  0  0  0  0
   61.5850   56.7010   26.3600 C   0  0  0  0  0  0  0  0  0  0  0  0
   61.2550   55.6600   25.7730 O   0  0  0  0  0  0  0  0  0  0  0  0
   65.3180   56.9100   26.4140 C   0  0  0  0  0  0  0  0  0  0  0  0
   64.0050   56.7460   25.9160 C   0  0  0  0  0  0  0  0  0  0  0  0
   62.9600   56.8570   26.8020 C   0  0  0  0  0  0  0  0  0  0  0  0
   63.2340   57.1210   28.1140 N   0  0  0  0  0  0  0  0  0  0  0  0
   64.5120   57.2720   28.5550 C   0  0  0  0  0  0  0  0  0  0  0  0
   65.5350   57.1680   27.7190 N   0  0  0  0  0  0  0  0  0  0  0  0
   64.7250   57.5450   29.9360 N   0  0  0  0  0  0  0  0  0  0  0  0
   63.9370   58.1910   30.7740 N   0  0  0  0  0  0  0  0  0  0  0  0
   64.4480   58.2620   31.9930 C   0  0  0  0  0  0  0  0  0  0  0  0
   65.6760   57.6120   31.9670 C   0  0  0  0  0  0  0  0  0  0  0  0
   65.8030   57.1800   30.6530 C   0  0  0  0  0  0  0  0  0  0  0  0
   62.2008   59.3424   24.8114 H   0  0  0  0  0  0  0  0  0  0  0  0
   60.6755   60.5660   22.9231 H   0  0  0  0  0  0  0  0  0  0  0  0
   57.4303   58.1704   21.9423 H   0  0  0  0  0  0  0  0  0  0  0  0
   55.5315   59.6536   21.0836 H   0  0  0  0  0  0  0  0  0  0  0  0
   54.5279   62.1715   21.5551 H   0  0  0  0  0  0  0  0  0  0  0  0
   54.9288   64.1687   22.9625 H   0  0  0  0  0  0  0  0  0  0  0  0
   56.7950   64.2716   24.6270 H   0  0  0  0  0  0  0  0  0  0  0  0
   58.2565   62.2649   24.8285 H   0  0  0  0  0  0  0  0  0  0  0  0
   66.1735   56.8260   25.7276 H   0  0  0  0  0  0  0  0  0  0  0  0
   63.8251   56.5359   24.8514 H   0  0  0  0  0  0  0  0  0  0  0  0
   63.9858   58.7463   32.8658 H   0  0  0  0  0  0  0  0  0  0  0  0
   66.3847   57.4718   32.7965 H   0  0  0  0  0  0  0  0  0  0  0  0
   66.6621   56.6196   30.2556 H   0  0  0  0  0  0  0  0  0  0  0  0
  1 15  1  0
  2  1  2  0
  3  4  2  0
  3  2  1  0
  4  5  1  0
  5  1  1  0
  6 14  1  0
  6  4  1  0
  7  6  2  0
  8  7  1  0
  8  9  1  0
  9 14  2  0
 10  9  1  0
 10 11  2  0
 11 12  1  0
 12 13  2  0
 14 13  1  0
 16 15  1  0
 16 20  1  0
 17 16  2  0
 18 23  2  0
 19 18  1  0
 19 20  2  0
 20 21  1  0
 21 22  2  0
 22 24  1  0
 23 22  1  0
 24 28  1  0
 24 25  1  0
 25 26  2  0
 27 26  1  0
 28 27  2  0
  2 29  1  0
  3 30  1  0
  7 31  1  0
  8 32  1  0
 10 33  1  0
 11 34  1  0
 12 35  1  0
 13 36  1  0
 18 37  1  0
 19 38  1  0
 26 39  1  0
 27 40  1  0
 28 41  1  0
M  END
>  <Score>  (1) 
-7.09206

$$$$
