
     RDKit          3D

 43 47  0  0  1  0  0  0  0  0999 V2000
   61.6690   56.9610   26.4350 N   0  0  0  0  0  0  0  0  0  0  0  0
   61.2380   55.6980   26.2580 C   0  0  0  0  0  0  0  0  0  0  0  0
   60.0990   55.5050   25.4630 C   0  0  0  0  0  0  0  0  0  0  0  0
   59.4720   56.6140   24.8970 C   0  0  0  0  0  0  0  0  0  0  0  0
   58.4370   56.4820   24.1690 O   0  0  0  0  0  0  0  0  0  0  0  0
   59.9480   57.8240   25.1110 N   0  0  0  0  0  0  0  0  0  0  0  0
   61.0460   58.0220   25.8760 C   0  0  0  0  0  0  0  0  0  0  0  0
   61.5290   59.1820   26.0990 O   0  0  0  0  0  0  0  0  0  0  0  0
   64.0530   57.1200   26.6220 C   0  0  0  0  0  0  0  0  0  0  0  0
   62.8190   57.0520   27.2490 C   0  0  0  0  0  0  0  0  0  0  0  0
   62.8040   57.0800   28.6430 C   0  0  0  0  0  0  0  0  0  0  0  0
   63.9820   57.1710   29.3150 N   0  0  0  0  0  0  0  0  0  0  0  0
   65.1630   57.2350   28.6660 C   0  0  0  0  0  0  0  0  0  0  0  0
   65.1940   57.2090   27.3010 N   0  0  0  0  0  0  0  0  0  0  0  0
   59.3150   59.0100   24.5320 C   0  0  1  0  0  0  0  0  0  0  0  0
   60.1570   59.8580   23.6370 C   0  0  0  0  0  0  0  0  0  0  0  0
   58.9280   59.0820   23.1250 C   0  0  2  0  0  0  0  0  0  0  0  0
   57.7040   59.8420   22.7880 C   0  0  0  0  0  0  0  0  0  0  0  0
   56.7750   59.4630   21.8400 C   0  0  0  0  0  0  0  0  0  0  0  0
   55.6430   60.2370   21.5790 C   0  0  0  0  0  0  0  0  0  0  0  0
   55.4170   61.4110   22.2640 C   0  0  0  0  0  0  0  0  0  0  0  0
   56.3370   61.8050   23.2160 C   0  0  0  0  0  0  0  0  0  0  0  0
   56.0670   62.9880   23.8750 C   0  0  0  0  0  0  0  0  0  0  0  0
   56.9620   63.4160   24.8320 C   0  0  0  0  0  0  0  0  0  0  0  0
   58.0930   62.6830   25.1230 C   0  0  0  0  0  0  0  0  0  0  0  0
   58.3230   61.5030   24.4370 C   0  0  0  0  0  0  0  0  0  0  0  0
   57.4570   61.0290   23.4660 C   0  0  0  0  0  0  0  0  0  0  0  0
   61.7606   54.8477   26.7205 H   0  0  0  0  0  0  0  0  0  0  0  0
   59.7058   54.4926   25.2884 H   0  0  0  0  0  0  0  0  0  0  0  0
   64.0907   57.0997   25.5228 H   0  0  0  0  0  0  0  0  0  0  0  0
   61.8518   57.0291   29.1914 H   0  0  0  0  0  0  0  0  0  0  0  0
   66.1008   57.3081   29.2362 H   0  0  0  0  0  0  0  0  0  0  0  0
   58.7364   59.1627   25.4550 H   0  0  0  0  0  0  0  0  0  0  0  0
   60.1281   60.9545   23.7201 H   0  0  0  0  0  0  0  0  0  0  0  0
   61.2235   59.9154   23.3736 H   0  0  0  0  0  0  0  0  0  0  0  0
   58.7508   58.3528   22.3207 H   0  0  0  0  0  0  0  0  0  0  0  0
   56.9301   58.5304   21.2777 H   0  0  0  0  0  0  0  0  0  0  0  0
   54.9223   59.9055   20.8169 H   0  0  0  0  0  0  0  0  0  0  0  0
   54.5247   62.0203   22.0575 H   0  0  0  0  0  0  0  0  0  0  0  0
   55.1640   63.5718   23.6430 H   0  0  0  0  0  0  0  0  0  0  0  0
   56.7712   64.3556   25.3712 H   0  0  0  0  0  0  0  0  0  0  0  0
   58.8019   63.0308   25.8889 H   0  0  0  0  0  0  0  0  0  0  0  0
   59.2263   60.9208   24.6716 H   0  0  0  0  0  0  0  0  0  0  0  0
  1 10  1  0
  2  1  1  0
  3  2  2  0
  4  6  1  0
  4  3  1  0
  5  4  2  0
  6  7  1  0
  7  8  2  0
  7  1  1  0
  9 10  2  0
  9 14  1  0
 10 11  1  0
 11 12  2  0
 13 12  1  0
 14 13  2  0
 15  6  1  0
 16 15  1  0
 17 16  1  0
 17 15  1  0
 18 17  1  0
 18 27  1  0
 19 18  2  0
 20 19  1  0
 20 21  2  0
 21 22  1  0
 22 27  2  0
 22 23  1  0
 23 24  2  0
 24 25  1  0
 26 25  2  0
 27 26  1  0
  2 28  1  0
  3 29  1  0
  9 30  1  0
 11 31  1  0
 13 32  1  0
 15 33  1  1
 16 34  1  0
 16 35  1  0
 17 36  1  6
 19 37  1  0
 20 38  1  0
 21 39  1  0
 23 40  1  0
 24 41  1  0
 25 42  1  0
 26 43  1  0
M  END
>  <Score>  (1) 
-7.17323

$$$$
