
     RDKit          3D

 36 39  0  0  0  0  0  0  0  0999 V2000
   61.3820   57.1030   26.3540 C   0  0  0  0  0  0  0  0  0  0  0  0
   60.9510   55.7620   26.3550 C   0  0  0  0  0  0  0  0  0  0  0  0
   60.0730   55.2490   25.4380 C   0  0  0  0  0  0  0  0  0  0  0  0
   59.5780   56.0660   24.4610 C   0  0  0  0  0  0  0  0  0  0  0  0
   59.9790   57.3730   24.4350 C   0  0  0  0  0  0  0  0  0  0  0  0
   59.5410   58.2830   23.4910 C   0  0  0  0  0  0  0  0  0  0  0  0
   59.9480   59.6000   23.4640 C   0  0  0  0  0  0  0  0  0  0  0  0
   60.8370   60.0570   24.4190 C   0  0  0  0  0  0  0  0  0  0  0  0
   61.3020   59.1860   25.3820 C   0  0  0  0  0  0  0  0  0  0  0  0
   60.8630   57.8890   25.3590 C   0  0  0  0  0  0  0  0  0  0  0  0
   63.6460   57.0080   27.1390 C   0  0  0  0  0  0  0  0  0  0  0  0
   62.3140   57.4290   27.4170 C   0  0  0  0  0  0  0  0  0  0  0  0
   62.0920   58.0750   28.6430 C   0  0  0  0  0  0  0  0  0  0  0  0
   63.1410   58.2560   29.4700 N   0  0  0  0  0  0  0  0  0  0  0  0
   64.3820   57.8540   29.1900 C   0  0  0  0  0  0  0  0  0  0  0  0
   64.6370   57.2310   28.0280 N   0  0  0  0  0  0  0  0  0  0  0  0
   65.4430   58.0770   30.1110 N   0  0  0  0  0  0  0  0  0  0  0  0
   66.0480   56.9690   30.6250 C   0  0  0  0  0  0  0  0  0  0  0  0
   67.0920   57.1790   31.5310 C   0  0  0  0  0  0  0  0  0  0  0  0
   67.4760   58.4720   31.8750 C   0  0  0  0  0  0  0  0  0  0  0  0
   68.4240   58.6860   32.6980 O   0  0  0  0  0  0  0  0  0  0  0  0
   66.8550   59.5430   31.3470 N   0  0  0  0  0  0  0  0  0  0  0  0
   65.8460   59.3200   30.4710 C   0  0  0  0  0  0  0  0  0  0  0  0
   65.1860   60.2550   29.9080 O   0  0  0  0  0  0  0  0  0  0  0  0
   61.3407   55.0907   27.1344 H   0  0  0  0  0  0  0  0  0  0  0  0
   59.7700   54.1927   25.4872 H   0  0  0  0  0  0  0  0  0  0  0  0
   58.8717   55.6803   23.7111 H   0  0  0  0  0  0  0  0  0  0  0  0
   58.8324   57.9392   22.7231 H   0  0  0  0  0  0  0  0  0  0  0  0
   59.5684   60.2817   22.6887 H   0  0  0  0  0  0  0  0  0  0  0  0
   61.1703   61.1053   24.4109 H   0  0  0  0  0  0  0  0  0  0  0  0
   62.0103   59.5258   26.1520 H   0  0  0  0  0  0  0  0  0  0  0  0
   63.8692   56.4964   26.1911 H   0  0  0  0  0  0  0  0  0  0  0  0
   61.0872   58.4249   28.9221 H   0  0  0  0  0  0  0  0  0  0  0  0
   65.7293   55.9555   30.3399 H   0  0  0  0  0  0  0  0  0  0  0  0
   67.6129   56.3176   31.9745 H   0  0  0  0  0  0  0  0  0  0  0  0
   67.1376   60.5005   31.6006 H   0  0  0  0  0  0  0  0  0  0  0  0
  1  2  2  0
  1 12  1  0
  3  2  1  0
  4  3  2  0
  5  4  1  0
  5 10  2  0
  6  5  1  0
  7  6  2  0
  7  8  1  0
  8  9  2  0
 10  9  1  0
 10  1  1  0
 11 12  2  0
 11 16  1  0
 12 13  1  0
 13 14  2  0
 15 14  1  0
 15 17  1  0
 16 15  2  0
 17 23  1  0
 17 18  1  0
 18 19  2  0
 19 20  1  0
 20 21  2  0
 22 20  1  0
 23 22  1  0
 24 23  2  0
  2 25  1  0
  3 26  1  0
  4 27  1  0
  6 28  1  0
  7 29  1  0
  8 30  1  0
  9 31  1  0
 11 32  1  0
 13 33  1  0
 18 34  1  0
 19 35  1  0
 22 36  1  0
M  END
>  <Score>  (1) 
-7.39584

$$$$
