
     RDKit          3D

 34 36  0  0  0  0  0  0  0  0999 V2000
   64.9050   58.1600   30.0290 C   0  0  0  0  0  0  0  0  0  0  0  0
   64.3790   59.3820   30.4480 C   0  0  0  0  0  0  0  0  0  0  0  0
   65.0290   59.9580   31.5260 C   0  0  0  0  0  0  0  0  0  0  0  0
   66.1060   59.3240   32.0960 C   0  0  0  0  0  0  0  0  0  0  0  0
   66.5950   58.1240   31.6550 C   0  0  0  0  0  0  0  0  0  0  0  0
   65.9660   57.5510   30.6020 N   0  0  0  0  0  0  0  0  0  0  0  0
   67.7100   57.5500   32.3080 N   0  0  0  0  0  0  0  0  0  0  0  0
   67.5730   56.4810   33.1380 C   0  0  0  0  0  0  0  0  0  0  0  0
   68.6410   55.9100   33.7810 C   0  0  0  0  0  0  0  0  0  0  0  0
   68.5060   54.7370   34.6940 C   0  0  0  0  0  0  0  0  0  0  0  0
   69.9200   56.3910   33.6210 C   0  0  0  0  0  0  0  0  0  0  0  0
   70.9470   55.9310   34.1680 O   0  0  0  0  0  0  0  0  0  0  0  0
   70.0320   57.4610   32.7870 N   0  0  0  0  0  0  0  0  0  0  0  0
   68.9510   58.0070   32.1610 C   0  0  0  0  0  0  0  0  0  0  0  0
   69.1940   58.9870   31.4200 O   0  0  0  0  0  0  0  0  0  0  0  0
   64.2880   56.8610   26.6530 C   0  0  0  0  0  0  0  0  0  0  0  0
   63.0900   56.1530   26.7800 C   0  0  0  0  0  0  0  0  0  0  0  0
   62.5010   56.1370   28.0650 C   0  0  0  0  0  0  0  0  0  0  0  0
   63.1340   56.8050   29.0770 N   0  0  0  0  0  0  0  0  0  0  0  0
   64.2870   57.4700   28.8970 C   0  0  0  0  0  0  0  0  0  0  0  0
   64.8530   57.4920   27.6840 N   0  0  0  0  0  0  0  0  0  0  0  0
   64.9130   56.9000   25.3700 N   0  0  0  0  0  0  0  0  0  0  0  0
   63.5133   59.8524   29.9589 H   0  0  0  0  0  0  0  0  0  0  0  0
   64.6833   60.9227   31.9258 H   0  0  0  0  0  0  0  0  0  0  0  0
   66.6015   59.8059   32.9517 H   0  0  0  0  0  0  0  0  0  0  0  0
   66.5697   56.0596   33.2991 H   0  0  0  0  0  0  0  0  0  0  0  0
   68.5454   55.0791   35.7387 H   0  0  0  0  0  0  0  0  0  0  0  0
   67.5443   54.2364   34.5081 H   0  0  0  0  0  0  0  0  0  0  0  0
   69.3288   54.0310   34.5081 H   0  0  0  0  0  0  0  0  0  0  0  0
   70.9627   57.8710   32.6238 H   0  0  0  0  0  0  0  0  0  0  0  0
   62.6297   55.6356   25.9254 H   0  0  0  0  0  0  0  0  0  0  0  0
   61.5577   55.6010   28.2464 H   0  0  0  0  0  0  0  0  0  0  0  0
   65.7969   57.4134   25.2431 H   0  0  0  0  0  0  0  0  0  0  0  0
   64.4800   56.4148   24.5713 H   0  0  0  0  0  0  0  0  0  0  0  0
  1  2  2  0
  1  6  1  0
  2  3  1  0
  3  4  2  0
  5  4  1  0
  5  7  1  0
  6  5  2  0
  7  8  1  0
  8  9  2  0
  9 10  1  0
 11  9  1  0
 11 12  2  0
 13 11  1  0
 14  7  1  0
 14 13  1  0
 15 14  2  0
 16 17  2  0
 16 21  1  0
 17 18  1  0
 18 19  2  0
 20 19  1  0
 20  1  1  0
 21 20  2  0
 22 16  1  0
  2 23  1  0
  3 24  1  0
  4 25  1  0
  8 26  1  0
 10 27  1  0
 10 28  1  0
 10 29  1  0
 13 30  1  0
 17 31  1  0
 18 32  1  0
 22 33  1  0
 22 34  1  0
M  END
>  <Score>  (1) 
-7.0648

$$$$
