
     RDKit          3D

 41 45  0  0  1  0  0  0  0  0999 V2000
   61.6000   56.9190   26.4410 N   0  0  0  0  0  0  0  0  0  0  0  0
   61.2170   55.6360   26.2890 C   0  0  0  0  0  0  0  0  0  0  0  0
   60.0780   55.3810   25.5160 C   0  0  0  0  0  0  0  0  0  0  0  0
   59.3950   56.4460   24.9460 C   0  0  0  0  0  0  0  0  0  0  0  0
   58.3550   56.2600   24.2360 O   0  0  0  0  0  0  0  0  0  0  0  0
   59.8260   57.6940   25.1360 N   0  0  0  0  0  0  0  0  0  0  0  0
   60.9250   57.9340   25.8800 C   0  0  0  0  0  0  0  0  0  0  0  0
   61.3560   59.1230   26.0750 O   0  0  0  0  0  0  0  0  0  0  0  0
   63.9940   57.0940   26.5690 C   0  0  0  0  0  0  0  0  0  0  0  0
   62.7630   57.0740   27.2380 C   0  0  0  0  0  0  0  0  0  0  0  0
   62.7860   57.2060   28.6070 C   0  0  0  0  0  0  0  0  0  0  0  0
   63.9680   57.3480   29.2540 N   0  0  0  0  0  0  0  0  0  0  0  0
   65.1440   57.3630   28.5760 C   0  0  0  0  0  0  0  0  0  0  0  0
   65.1490   57.2350   27.2320 N   0  0  0  0  0  0  0  0  0  0  0  0
   59.1290   58.8190   24.5490 C   0  0  1  0  0  0  0  0  0  0  0  0
   59.9650   59.8160   23.8270 C   0  0  0  0  0  0  0  0  0  0  0  0
   58.9230   58.9560   23.0970 C   0  0  2  0  0  0  0  0  0  0  0  0
   57.6340   59.5960   22.7070 C   0  0  0  0  0  0  0  0  0  0  0  0
   56.7830   58.9650   21.8490 N   0  0  0  0  0  0  0  0  0  0  0  0
   55.6140   59.5140   21.4770 C   0  0  0  0  0  0  0  0  0  0  0  0
   55.2380   60.7330   21.9530 N   0  0  0  0  0  0  0  0  0  0  0  0
   56.0450   61.3940   22.8030 C   0  0  0  0  0  0  0  0  0  0  0  0
   55.7040   62.6340   23.3100 C   0  0  0  0  0  0  0  0  0  0  0  0
   56.5230   63.3370   24.1910 C   0  0  0  0  0  0  0  0  0  0  0  0
   57.7200   62.7590   24.5630 C   0  0  0  0  0  0  0  0  0  0  0  0
   58.0770   61.5220   24.0670 C   0  0  0  0  0  0  0  0  0  0  0  0
   57.2470   60.8440   23.1930 C   0  0  0  0  0  0  0  0  0  0  0  0
   61.7810   54.8157   26.7571 H   0  0  0  0  0  0  0  0  0  0  0  0
   59.7288   54.3493   25.3624 H   0  0  0  0  0  0  0  0  0  0  0  0
   64.0121   56.9915   25.4739 H   0  0  0  0  0  0  0  0  0  0  0  0
   61.8449   57.1963   29.1764 H   0  0  0  0  0  0  0  0  0  0  0  0
   66.0922   57.4794   29.1213 H   0  0  0  0  0  0  0  0  0  0  0  0
   58.4177   58.8300   25.3880 H   0  0  0  0  0  0  0  0  0  0  0  0
   59.7927   60.8928   23.9712 H   0  0  0  0  0  0  0  0  0  0  0  0
   61.0423   60.0097   23.7183 H   0  0  0  0  0  0  0  0  0  0  0  0
   58.9569   58.2979   22.2162 H   0  0  0  0  0  0  0  0  0  0  0  0
   54.9549   58.9736   20.7816 H   0  0  0  0  0  0  0  0  0  0  0  0
   54.7474   63.0838   23.0056 H   0  0  0  0  0  0  0  0  0  0  0  0
   56.2248   64.3225   24.5783 H   0  0  0  0  0  0  0  0  0  0  0  0
   58.3913   63.2861   25.2569 H   0  0  0  0  0  0  0  0  0  0  0  0
   59.0328   61.0699   24.3702 H   0  0  0  0  0  0  0  0  0  0  0  0
  1 10  1  0
  2  1  1  0
  3  2  2  0
  4  6  1  0
  4  3  1  0
  5  4  2  0
  6  7  1  0
  7  8  2  0
  7  1  1  0
  9 14  2  0
  9 10  1  0
 10 11  2  0
 11 12  1  0
 13 12  2  0
 14 13  1  0
 15  6  1  0
 16 15  1  0
 17 16  1  0
 17 15  1  0
 18 17  1  0
 18 27  1  0
 19 18  2  0
 20 19  1  0
 20 21  2  0
 21 22  1  0
 22 27  2  0
 22 23  1  0
 23 24  2  0
 24 25  1  0
 26 25  2  0
 27 26  1  0
  2 28  1  0
  3 29  1  0
  9 30  1  0
 11 31  1  0
 13 32  1  0
 15 33  1  1
 16 34  1  0
 16 35  1  0
 17 36  1  6
 20 37  1  0
 23 38  1  0
 24 39  1  0
 25 40  1  0
 26 41  1  0
M  END
>  <Score>  (1) 
-7.02156

$$$$
