
     RDKit          3D

 42 46  0  0  0  0  0  0  0  0999 V2000
   60.3660   58.6700   25.6160 C   0  0  0  0  0  0  0  0  0  0  0  0
   61.2550   59.2410   24.7130 C   0  0  0  0  0  0  0  0  0  0  0  0
   60.5270   59.9570   23.7640 C   0  0  0  0  0  0  0  0  0  0  0  0
   59.2060   59.7780   24.1540 C   0  0  0  0  0  0  0  0  0  0  0  0
   59.1870   59.0390   25.2090 O   0  0  0  0  0  0  0  0  0  0  0  0
   58.0800   60.3650   23.4300 C   0  0  0  0  0  0  0  0  0  0  0  0
   57.5290   59.9640   22.2380 C   0  0  0  0  0  0  0  0  0  0  0  0
   56.5150   60.7750   21.9290 N   0  0  0  0  0  0  0  0  0  0  0  0
   56.3740   61.6960   22.8660 C   0  0  0  0  0  0  0  0  0  0  0  0
   55.4740   62.7250   22.9670 C   0  0  0  0  0  0  0  0  0  0  0  0
   55.5730   63.5380   24.0810 C   0  0  0  0  0  0  0  0  0  0  0  0
   56.5170   63.3720   25.0860 C   0  0  0  0  0  0  0  0  0  0  0  0
   57.3940   62.3140   24.9190 C   0  0  0  0  0  0  0  0  0  0  0  0
   57.3530   61.4610   23.8310 C   0  0  0  0  0  0  0  0  0  0  0  0
   60.6960   57.8720   26.7220 O   0  0  0  0  0  0  0  0  0  0  0  0
   61.4950   56.7350   26.4530 C   0  0  0  0  0  0  0  0  0  0  0  0
   61.0450   55.6970   25.9960 O   0  0  0  0  0  0  0  0  0  0  0  0
   65.2330   56.8110   26.0960 C   0  0  0  0  0  0  0  0  0  0  0  0
   63.8570   56.7050   25.7570 C   0  0  0  0  0  0  0  0  0  0  0  0
   62.9230   56.8350   26.7490 C   0  0  0  0  0  0  0  0  0  0  0  0
   63.3640   57.0550   28.0010 N   0  0  0  0  0  0  0  0  0  0  0  0
   64.6760   57.1540   28.3180 C   0  0  0  0  0  0  0  0  0  0  0  0
   65.5990   57.0360   27.3920 N   0  0  0  0  0  0  0  0  0  0  0  0
   64.9850   57.3960   29.7230 C   0  0  0  0  0  0  0  0  0  0  0  0
   64.0720   58.0290   30.5320 C   0  0  0  0  0  0  0  0  0  0  0  0
   64.4730   58.2020   31.8390 C   0  0  0  0  0  0  0  0  0  0  0  0
   65.6560   57.8020   32.3390 N   0  0  0  0  0  0  0  0  0  0  0  0
   66.5420   57.1760   31.5120 C   0  0  0  0  0  0  0  0  0  0  0  0
   66.1600   57.0060   30.2470 N   0  0  0  0  0  0  0  0  0  0  0  0
   62.3503   59.1441   24.7423 H   0  0  0  0  0  0  0  0  0  0  0  0
   60.9095   60.5300   22.9064 H   0  0  0  0  0  0  0  0  0  0  0  0
   57.8692   59.1101   21.6338 H   0  0  0  0  0  0  0  0  0  0  0  0
   55.9294   60.6949   21.0855 H   0  0  0  0  0  0  0  0  0  0  0  0
   54.7077   62.8962   22.1966 H   0  0  0  0  0  0  0  0  0  0  0  0
   54.8587   64.3690   24.1774 H   0  0  0  0  0  0  0  0  0  0  0  0
   56.5648   64.0390   25.9594 H   0  0  0  0  0  0  0  0  0  0  0  0
   58.1608   62.1434   25.6890 H   0  0  0  0  0  0  0  0  0  0  0  0
   66.0019   56.7119   25.3156 H   0  0  0  0  0  0  0  0  0  0  0  0
   63.5484   56.5220   24.7172 H   0  0  0  0  0  0  0  0  0  0  0  0
   63.0939   58.3720   30.1636 H   0  0  0  0  0  0  0  0  0  0  0  0
   63.7741   58.7043   32.5240 H   0  0  0  0  0  0  0  0  0  0  0  0
   67.5221   56.8292   31.8713 H   0  0  0  0  0  0  0  0  0  0  0  0
  1 15  1  0
  2  1  2  0
  3  4  2  0
  3  2  1  0
  4  5  1  0
  5  1  1  0
  6 14  1  0
  6  4  1  0
  7  6  2  0
  8  7  1  0
  8  9  1  0
  9 10  2  0
  9 14  1  0
 10 11  1  0
 11 12  2  0
 13 12  1  0
 14 13  2  0
 16 15  1  0
 16 20  1  0
 17 16  2  0
 18 23  2  0
 19 18  1  0
 19 20  2  0
 20 21  1  0
 21 22  2  0
 22 24  1  0
 23 22  1  0
 24 29  1  0
 24 25  2  0
 25 26  1  0
 26 27  2  0
 28 27  1  0
 29 28  2  0
  2 30  1  0
  3 31  1  0
  7 32  1  0
  8 33  1  0
 10 34  1  0
 11 35  1  0
 12 36  1  0
 13 37  1  0
 18 38  1  0
 19 39  1  0
 25 40  1  0
 26 41  1  0
 28 42  1  0
M  END
>  <Score>  (1) 
-7.16022

$$$$
