
     RDKit          3D

 46 50  0  0  0  0  0  0  0  0999 V2000
   63.5040   56.9550   27.1630 C   0  0  0  0  0  0  0  0  0  0  0  0
   62.1940   57.4520   27.3660 C   0  0  0  0  0  0  0  0  0  0  0  0
   61.9890   58.1860   28.5320 C   0  0  0  0  0  0  0  0  0  0  0  0
   63.0030   58.3920   29.3950 N   0  0  0  0  0  0  0  0  0  0  0  0
   64.2390   57.9050   29.1710 C   0  0  0  0  0  0  0  0  0  0  0  0
   64.4950   57.1860   28.0580 N   0  0  0  0  0  0  0  0  0  0  0  0
   61.2840   57.1020   26.3120 C   0  0  0  0  0  0  0  0  0  0  0  0
   60.8660   55.7680   26.3110 C   0  0  0  0  0  0  0  0  0  0  0  0
   59.9970   55.2340   25.3880 C   0  0  0  0  0  0  0  0  0  0  0  0
   59.4990   56.0400   24.4020 C   0  0  0  0  0  0  0  0  0  0  0  0
   59.8870   57.3430   24.3780 C   0  0  0  0  0  0  0  0  0  0  0  0
   59.4360   58.2290   23.4200 C   0  0  0  0  0  0  0  0  0  0  0  0
   59.8250   59.5510   23.3870 C   0  0  0  0  0  0  0  0  0  0  0  0
   60.7020   60.0380   24.3400 C   0  0  0  0  0  0  0  0  0  0  0  0
   61.1760   59.1810   25.3170 C   0  0  0  0  0  0  0  0  0  0  0  0
   60.7560   57.8780   25.2990 C   0  0  0  0  0  0  0  0  0  0  0  0
   65.3000   58.1530   30.1290 C   0  0  0  0  0  0  0  0  0  0  0  0
   66.0770   57.1010   30.6050 C   0  0  0  0  0  0  0  0  0  0  0  0
   67.0830   57.3990   31.5240 C   0  0  0  0  0  0  0  0  0  0  0  0
   67.3220   58.6670   31.9610 N   0  0  0  0  0  0  0  0  0  0  0  0
   66.5450   59.6220   31.4670 C   0  0  0  0  0  0  0  0  0  0  0  0
   65.5400   59.4170   30.5660 N   0  0  0  0  0  0  0  0  0  0  0  0
   66.7410   60.9700   31.8820 N   0  0  0  0  0  0  0  0  0  0  0  0
   65.7990   62.0660   32.0060 C   0  0  0  0  0  0  0  0  0  0  0  0
   66.5360   63.2060   31.2980 C   0  0  0  0  0  0  0  0  0  0  0  0
   67.9970   62.7650   31.2770 C   0  0  0  0  0  0  0  0  0  0  0  0
   67.9670   61.6250   32.3020 C   0  0  0  0  0  0  0  0  0  0  0  0
   63.7223   56.3682   26.2586 H   0  0  0  0  0  0  0  0  0  0  0  0
   60.9933   58.5999   28.7495 H   0  0  0  0  0  0  0  0  0  0  0  0
   61.2561   55.1044   27.0968 H   0  0  0  0  0  0  0  0  0  0  0  0
   59.7070   54.1743   25.4423 H   0  0  0  0  0  0  0  0  0  0  0  0
   58.8026   55.6446   23.6479 H   0  0  0  0  0  0  0  0  0  0  0  0
   58.7378   57.8651   22.6518 H   0  0  0  0  0  0  0  0  0  0  0  0
   59.4382   60.2188   22.6031 H   0  0  0  0  0  0  0  0  0  0  0  0
   61.0178   61.0915   24.3210 H   0  0  0  0  0  0  0  0  0  0  0  0
   61.8733   59.5377   26.0894 H   0  0  0  0  0  0  0  0  0  0  0  0
   65.9034   56.0685   30.2676 H   0  0  0  0  0  0  0  0  0  0  0  0
   67.7068   56.5795   31.9104 H   0  0  0  0  0  0  0  0  0  0  0  0
   64.8480   61.8335   31.5045 H   0  0  0  0  0  0  0  0  0  0  0  0
   65.5232   62.2963   33.0457 H   0  0  0  0  0  0  0  0  0  0  0  0
   66.1554   63.3380   30.2744 H   0  0  0  0  0  0  0  0  0  0  0  0
   66.3988   64.1714   31.8072 H   0  0  0  0  0  0  0  0  0  0  0  0
   68.2975   62.4066   30.2814 H   0  0  0  0  0  0  0  0  0  0  0  0
   68.7176   63.5642   31.5052 H   0  0  0  0  0  0  0  0  0  0  0  0
   67.9009   62.0004   33.3338 H   0  0  0  0  0  0  0  0  0  0  0  0
   68.8612   60.9847   32.3219 H   0  0  0  0  0  0  0  0  0  0  0  0
  1  2  2  0
  1  6  1  0
  2  3  1  0
  3  4  2  0
  5  4  1  0
  5 17  1  0
  6  5  2  0
  7  2  1  0
  8  7  2  0
  9  8  1  0
 10  9  2  0
 11 10  1  0
 11 16  2  0
 12 11  1  0
 13 12  2  0
 13 14  1  0
 14 15  2  0
 16 15  1  0
 16  7  1  0
 17 22  1  0
 17 18  2  0
 18 19  1  0
 19 20  2  0
 21 23  1  0
 21 20  1  0
 22 21  2  0
 23 24  1  0
 23 27  1  0
 25 24  1  0
 26 25  1  0
 26 27  1  0
  1 28  1  0
  3 29  1  0
  8 30  1  0
  9 31  1  0
 10 32  1  0
 12 33  1  0
 13 34  1  0
 14 35  1  0
 15 36  1  0
 18 37  1  0
 19 38  1  0
 24 39  1  0
 24 40  1  0
 25 41  1  0
 25 42  1  0
 26 43  1  0
 26 44  1  0
 27 45  1  0
 27 46  1  0
M  END
>  <Score>  (1) 
-7.47572

$$$$
