
     RDKit          3D

 48 53  0  0  0  0  0  0  0  0999 V2000
   63.4780   56.9890   27.0990 C   0  0  0  0  0  0  0  0  0  0  0  0
   62.1580   57.4520   27.3190 C   0  0  0  0  0  0  0  0  0  0  0  0
   61.9460   58.1760   28.4920 C   0  0  0  0  0  0  0  0  0  0  0  0
   62.9600   58.4040   29.3450 N   0  0  0  0  0  0  0  0  0  0  0  0
   64.2070   57.9490   29.1070 C   0  0  0  0  0  0  0  0  0  0  0  0
   64.4710   57.2420   27.9870 N   0  0  0  0  0  0  0  0  0  0  0  0
   61.2440   57.0880   26.2750 C   0  0  0  0  0  0  0  0  0  0  0  0
   60.8320   55.7580   26.2860 C   0  0  0  0  0  0  0  0  0  0  0  0
   59.9610   55.2060   25.3750 C   0  0  0  0  0  0  0  0  0  0  0  0
   59.4550   56.0100   24.3790 C   0  0  0  0  0  0  0  0  0  0  0  0
   59.8390   57.3100   24.3430 C   0  0  0  0  0  0  0  0  0  0  0  0
   59.3780   58.1860   23.3760 C   0  0  0  0  0  0  0  0  0  0  0  0
   59.7620   59.5150   23.3280 C   0  0  0  0  0  0  0  0  0  0  0  0
   60.6430   60.0140   24.2740 C   0  0  0  0  0  0  0  0  0  0  0  0
   61.1250   59.1680   25.2570 C   0  0  0  0  0  0  0  0  0  0  0  0
   60.7090   57.8550   25.2560 C   0  0  0  0  0  0  0  0  0  0  0  0
   65.2760   58.2150   30.0520 C   0  0  0  0  0  0  0  0  0  0  0  0
   65.9450   57.1640   30.6690 C   0  0  0  0  0  0  0  0  0  0  0  0
   66.9660   57.4830   31.5670 C   0  0  0  0  0  0  0  0  0  0  0  0
   67.3160   58.7590   31.8480 N   0  0  0  0  0  0  0  0  0  0  0  0
   66.6360   59.7220   31.2230 C   0  0  0  0  0  0  0  0  0  0  0  0
   65.6330   59.4800   30.3390 N   0  0  0  0  0  0  0  0  0  0  0  0
   66.9560   61.1280   31.4750 C   0  0  0  0  0  0  0  0  0  0  0  0
   67.1890   61.7670   32.6850 C   0  0  0  0  0  0  0  0  0  0  0  0
   67.4530   63.0720   32.4950 N   0  0  0  0  0  0  0  0  0  0  0  0
   67.4030   63.3250   31.1750 C   0  0  0  0  0  0  0  0  0  0  0  0
   67.6080   64.5250   30.5150 C   0  0  0  0  0  0  0  0  0  0  0  0
   67.4880   64.4640   29.1410 C   0  0  0  0  0  0  0  0  0  0  0  0
   67.1870   63.3140   28.4530 C   0  0  0  0  0  0  0  0  0  0  0  0
   66.9900   62.1270   29.1680 C   0  0  0  0  0  0  0  0  0  0  0  0
   67.0990   62.1370   30.5380 C   0  0  0  0  0  0  0  0  0  0  0  0
   63.7023   56.4125   26.1894 H   0  0  0  0  0  0  0  0  0  0  0  0
   60.9422   58.5632   28.7209 H   0  0  0  0  0  0  0  0  0  0  0  0
   61.2297   55.1044   27.0764 H   0  0  0  0  0  0  0  0  0  0  0  0
   59.6754   54.1458   25.4412 H   0  0  0  0  0  0  0  0  0  0  0  0
   58.7563   55.6079   23.6306 H   0  0  0  0  0  0  0  0  0  0  0  0
   58.6781   57.8110   22.6147 H   0  0  0  0  0  0  0  0  0  0  0  0
   59.3684   60.1740   22.5401 H   0  0  0  0  0  0  0  0  0  0  0  0
   60.9549   61.0684   24.2439 H   0  0  0  0  0  0  0  0  0  0  0  0
   61.8246   59.5357   26.0220 H   0  0  0  0  0  0  0  0  0  0  0  0
   65.6795   56.1177   30.4573 H   0  0  0  0  0  0  0  0  0  0  0  0
   67.5066   56.6647   32.0652 H   0  0  0  0  0  0  0  0  0  0  0  0
   67.1614   61.2725   33.6672 H   0  0  0  0  0  0  0  0  0  0  0  0
   67.6583   63.7598   33.2337 H   0  0  0  0  0  0  0  0  0  0  0  0
   67.8486   65.4577   31.0461 H   0  0  0  0  0  0  0  0  0  0  0  0
   67.6421   65.3883   28.5649 H   0  0  0  0  0  0  0  0  0  0  0  0
   67.1020   63.3257   27.3563 H   0  0  0  0  0  0  0  0  0  0  0  0
   66.7499   61.1937   28.6377 H   0  0  0  0  0  0  0  0  0  0  0  0
  1  2  2  0
  1  6  1  0
  2  3  1  0
  3  4  2  0
  5  4  1  0
  5 17  1  0
  6  5  2  0
  7  8  2  0
  7  2  1  0
  9  8  1  0
 10  9  2  0
 11 10  1  0
 11 16  2  0
 12 11  1  0
 13 12  2  0
 13 14  1  0
 14 15  2  0
 16 15  1  0
 16  7  1  0
 17 22  1  0
 17 18  2  0
 18 19  1  0
 19 20  2  0
 21 23  1  0
 21 20  1  0
 22 21  2  0
 23 24  2  0
 25 24  1  0
 26 25  1  0
 27 26  2  0
 28 27  1  0
 29 28  2  0
 29 30  1  0
 30 31  2  0
 31 26  1  0
 31 23  1  0
  1 32  1  0
  3 33  1  0
  8 34  1  0
  9 35  1  0
 10 36  1  0
 12 37  1  0
 13 38  1  0
 14 39  1  0
 15 40  1  0
 18 41  1  0
 19 42  1  0
 24 43  1  0
 25 44  1  0
 27 45  1  0
 28 46  1  0
 29 47  1  0
 30 48  1  0
M  END
>  <Score>  (1) 
-7.94973

$$$$
