
     RDKit          3D

 42 45  0  0  1  0  0  0  0  0999 V2000
   65.2320   56.6920   25.7750 C   0  0  0  0  0  0  0  0  0  0  0  0
   63.9350   56.4210   25.3310 C   0  0  0  0  0  0  0  0  0  0  0  0
   62.8810   56.4670   26.2270 C   0  0  0  0  0  0  0  0  0  0  0  0
   63.1730   56.7770   27.5130 N   0  0  0  0  0  0  0  0  0  0  0  0
   64.4000   57.0340   27.9430 C   0  0  0  0  0  0  0  0  0  0  0  0
   65.3970   56.9880   27.0770 N   0  0  0  0  0  0  0  0  0  0  0  0
   61.5280   56.0560   26.0100 C   0  0  0  0  0  0  0  0  0  0  0  0
   60.3580   55.7000   25.8230 N   0  0  0  0  0  0  0  0  0  0  0  0
   59.2120   55.2920   25.6640 C   0  0  0  0  0  0  0  0  0  0  0  0
   58.7810   56.4150   25.0850 N   0  0  0  0  0  0  0  0  0  0  0  0
   59.6710   57.4420   24.9250 C   0  0  0  0  0  0  0  0  0  0  0  0
   59.0710   58.5990   24.3590 C   0  0  0  0  0  0  0  0  0  0  0  0
   59.8900   59.6870   24.2450 C   0  0  0  0  0  0  0  0  0  0  0  0
   61.2080   59.7560   24.6220 C   0  0  0  0  0  0  0  0  0  0  0  0
   61.6130   58.5480   25.1440 C   0  0  0  0  0  0  0  0  0  0  0  0
   61.0070   57.2630   25.3790 C   0  0  0  0  0  0  0  0  0  0  0  0
   64.6330   57.3730   29.3340 C   0  0  0  0  0  0  0  0  0  0  0  0
   63.7480   58.0020   30.2020 C   0  0  0  0  0  0  0  0  0  0  0  0
   64.1940   58.2230   31.4830 C   0  0  0  0  0  0  0  0  0  0  0  0
   65.4630   57.8100   31.8010 C   0  0  0  0  0  0  0  0  0  0  0  0
   66.0560   57.0960   30.2820 S   0  0  0  0  0  0  0  0  0  0  0  0
   66.1650   57.9080   33.0100 N   0  0  0  0  0  0  0  0  0  0  0  0
   67.4160   57.3210   33.1880 C   0  0  0  0  0  0  0  0  0  0  0  0
   67.6930   56.1730   32.6880 N   0  0  0  0  0  0  0  0  0  0  0  0
   68.4060   58.0340   33.9530 N   0  0  0  0  0  0  0  0  0  0  0  0
   67.0320   55.6150   32.1370 H   0  0  0  0  0  0  0  0  0  0  0  0
   66.0878   56.6643   25.0844 H   0  0  0  0  0  0  0  0  0  0  0  0
   63.7527   56.1725   24.2751 H   0  0  0  0  0  0  0  0  0  0  0  0
   61.8753   55.2832   25.3084 H   0  0  0  0  0  0  0  0  0  0  0  0
   60.0094   56.5289   26.3253 H   0  0  0  0  0  0  0  0  0  0  0  0
   59.1543   54.4157   25.0016 H   0  0  0  0  0  0  0  0  0  0  0  0
   58.6678   54.9247   26.5466 H   0  0  0  0  0  0  0  0  0  0  0  0
   57.8054   56.5059   24.7674 H   0  0  0  0  0  0  0  0  0  0  0  0
   58.0200   58.6176   24.0350 H   0  0  0  0  0  0  0  0  0  0  0  0
   59.4502   60.5959   23.8086 H   0  0  0  0  0  0  0  0  0  0  0  0
   61.8469   60.6458   24.5218 H   0  0  0  0  0  0  0  0  0  0  0  0
   62.6658   58.5701   25.4620 H   0  0  0  0  0  0  0  0  0  0  0  0
   62.7416   58.3074   29.8798 H   0  0  0  0  0  0  0  0  0  0  0  0
   63.5537   58.7155   32.2297 H   0  0  0  0  0  0  0  0  0  0  0  0
   65.7430   58.4301   33.7912 H   0  0  0  0  0  0  0  0  0  0  0  0
   69.3387   57.6221   34.0994 H   0  0  0  0  0  0  0  0  0  0  0  0
   68.1815   58.9559   34.3538 H   0  0  0  0  0  0  0  0  0  0  0  0
  1  6  2  0
  2  1  1  0
  2  3  2  0
  3  4  1  0
  4  5  2  0
  5 17  1  0
  6  5  1  0
  7  3  1  0
  8  7  1  0
  9  8  1  0
 10  9  1  0
 11 10  1  0
 11 16  2  0
 12 11  1  0
 13 12  2  0
 13 14  1  0
 14 15  2  0
 15 16  1  0
 16  7  1  0
 17 18  2  0
 17 21  1  0
 18 19  1  0
 19 20  2  0
 20 22  1  0
 21 20  1  0
 22 23  1  0
 23 25  1  0
 24 23  2  0
 26 24  1  0
  1 27  1  0
  2 28  1  0
  7 29  1  0
  8 30  1  0
  9 31  1  0
  9 32  1  0
 10 33  1  0
 12 34  1  0
 13 35  1  0
 14 36  1  0
 15 37  1  0
 18 38  1  0
 19 39  1  0
 22 40  1  0
 25 41  1  0
 25 42  1  0
M  END
>  <Score>  (1) 
-7.2576

$$$$
