
     RDKit          3D

 42 46  0  0  0  0  0  0  0  0999 V2000
   63.5150   56.9480   27.1230 C   0  0  0  0  0  0  0  0  0  0  0  0
   62.1910   57.4320   27.3500 C   0  0  0  0  0  0  0  0  0  0  0  0
   61.9890   58.1550   28.5240 C   0  0  0  0  0  0  0  0  0  0  0  0
   63.0120   58.3600   29.3660 N   0  0  0  0  0  0  0  0  0  0  0  0
   64.2420   57.9000   29.1380 C   0  0  0  0  0  0  0  0  0  0  0  0
   64.5000   57.1950   28.0220 N   0  0  0  0  0  0  0  0  0  0  0  0
   61.2700   57.0780   26.2950 C   0  0  0  0  0  0  0  0  0  0  0  0
   60.8550   55.7570   26.2940 C   0  0  0  0  0  0  0  0  0  0  0  0
   59.9840   55.2250   25.3780 C   0  0  0  0  0  0  0  0  0  0  0  0
   59.4810   56.0380   24.3880 C   0  0  0  0  0  0  0  0  0  0  0  0
   59.8750   57.3380   24.3700 C   0  0  0  0  0  0  0  0  0  0  0  0
   59.4220   58.2290   23.4130 C   0  0  0  0  0  0  0  0  0  0  0  0
   59.8110   59.5530   23.3780 C   0  0  0  0  0  0  0  0  0  0  0  0
   60.6910   60.0310   24.3280 C   0  0  0  0  0  0  0  0  0  0  0  0
   61.1710   59.1760   25.3050 C   0  0  0  0  0  0  0  0  0  0  0  0
   60.7470   57.8630   25.2900 C   0  0  0  0  0  0  0  0  0  0  0  0
   65.3100   58.1580   30.0960 C   0  0  0  0  0  0  0  0  0  0  0  0
   66.0090   57.0930   30.6540 C   0  0  0  0  0  0  0  0  0  0  0  0
   67.0240   57.3760   31.5660 C   0  0  0  0  0  0  0  0  0  0  0  0
   67.3370   58.6580   31.9150 N   0  0  0  0  0  0  0  0  0  0  0  0
   66.6290   59.6290   31.3440 C   0  0  0  0  0  0  0  0  0  0  0  0
   65.6280   59.4160   30.4470 N   0  0  0  0  0  0  0  0  0  0  0  0
   66.9270   61.0230   31.6850 C   0  0  0  0  0  0  0  0  0  0  0  0
   67.9250   61.7380   31.0810 C   0  0  0  0  0  0  0  0  0  0  0  0
   68.2260   63.0540   31.3860 C   0  0  0  0  0  0  0  0  0  0  0  0
   67.4660   63.6350   32.3420 N   0  0  0  0  0  0  0  0  0  0  0  0
   66.4690   62.9310   32.9500 C   0  0  0  0  0  0  0  0  0  0  0  0
   66.1850   61.6380   32.6400 N   0  0  0  0  0  0  0  0  0  0  0  0
   63.7375   56.3711   26.2132 H   0  0  0  0  0  0  0  0  0  0  0  0
   60.9924   58.5567   28.7594 H   0  0  0  0  0  0  0  0  0  0  0  0
   61.2487   55.0925   27.0772 H   0  0  0  0  0  0  0  0  0  0  0  0
   59.6922   54.1659   25.4336 H   0  0  0  0  0  0  0  0  0  0  0  0
   58.7814   55.6472   23.6344 H   0  0  0  0  0  0  0  0  0  0  0  0
   58.7212   57.8663   22.6466 H   0  0  0  0  0  0  0  0  0  0  0  0
   59.4219   60.2234   22.5975 H   0  0  0  0  0  0  0  0  0  0  0  0
   61.0086   61.0840   24.3088 H   0  0  0  0  0  0  0  0  0  0  0  0
   61.8721   59.5339   26.0733 H   0  0  0  0  0  0  0  0  0  0  0  0
   65.7671   56.0548   30.3827 H   0  0  0  0  0  0  0  0  0  0  0  0
   67.5872   56.5452   32.0161 H   0  0  0  0  0  0  0  0  0  0  0  0
   68.5241   61.2368   30.3065 H   0  0  0  0  0  0  0  0  0  0  0  0
   69.0376   63.5968   30.8794 H   0  0  0  0  0  0  0  0  0  0  0  0
   65.8687   63.4306   33.7246 H   0  0  0  0  0  0  0  0  0  0  0  0
  1  2  2  0
  1  6  1  0
  2  3  1  0
  3  4  2  0
  5  4  1  0
  5 17  1  0
  6  5  2  0
  7  2  1  0
  8  7  2  0
  9  8  1  0
 10  9  2  0
 11 10  1  0
 11 16  2  0
 12 11  1  0
 13 12  2  0
 13 14  1  0
 14 15  2  0
 16 15  1  0
 16  7  1  0
 17 22  1  0
 17 18  2  0
 18 19  1  0
 19 20  2  0
 21 23  1  0
 21 20  1  0
 22 21  2  0
 23 28  2  0
 24 25  2  0
 24 23  1  0
 25 26  1  0
 26 27  2  0
 28 27  1  0
  1 29  1  0
  3 30  1  0
  8 31  1  0
  9 32  1  0
 10 33  1  0
 12 34  1  0
 13 35  1  0
 14 36  1  0
 15 37  1  0
 18 38  1  0
 19 39  1  0
 24 40  1  0
 25 41  1  0
 27 42  1  0
M  END
>  <Score>  (1) 
-7.10953

$$$$
