
     RDKit          3D

 52 55  0  0  1  0  0  0  0  0999 V2000
   62.1860   55.7840   27.4560 C   0  0  0  0  0  0  0  0  0  0  0  0
   63.3240   56.4380   28.0790 N   0  0  0  0  0  0  0  0  0  0  0  0
   64.1940   57.1450   27.3700 C   0  0  0  0  0  0  0  0  0  0  0  0
   65.1880   57.5220   28.1560 N   0  0  0  0  0  0  0  0  0  0  0  0
   64.7880   57.2760   29.4390 C   0  0  2  0  0  0  0  0  0  0  0  0
   63.6310   56.6070   29.3550 N   0  0  0  0  0  0  0  0  0  0  0  0
   65.2250   57.5150   30.8320 C   0  0  0  0  0  0  0  0  0  0  0  0
   64.4810   58.1540   31.8020 C   0  0  0  0  0  0  0  0  0  0  0  0
   65.0200   58.3050   33.0590 C   0  0  0  0  0  0  0  0  0  0  0  0
   66.2810   57.8100   33.2920 C   0  0  0  0  0  0  0  0  0  0  0  0
   67.0460   57.1690   32.3440 C   0  0  0  0  0  0  0  0  0  0  0  0
   66.4920   57.0190   31.0690 C   0  0  0  0  0  0  0  0  0  0  0  0
   62.1840   55.9590   25.9510 C   0  0  0  0  0  0  0  0  0  0  0  0
   60.8530   56.5450   25.5930 C   0  0  0  0  0  0  0  0  0  0  0  0
   60.6230   57.8870   25.2810 C   0  0  0  0  0  0  0  0  0  0  0  0
   59.3260   58.2580   24.9730 C   0  0  0  0  0  0  0  0  0  0  0  0
   58.3600   57.3280   24.9850 N   0  0  0  0  0  0  0  0  0  0  0  0
   58.6060   56.0490   25.2870 C   0  0  0  0  0  0  0  0  0  0  0  0
   59.8690   55.6460   25.5950 N   0  0  0  0  0  0  0  0  0  0  0  0
   57.4300   55.1410   25.2570 C   0  0  0  0  0  0  0  0  0  0  0  0
   56.5410   55.5620   24.1040 C   0  0  0  0  0  0  0  0  0  0  0  0
   55.5230   54.5210   23.7590 C   0  0  0  0  0  0  0  0  0  0  0  0
   55.4550   53.3910   24.7640 C   0  0  0  0  0  0  0  0  0  0  0  0
   56.7960   52.7430   25.0080 C   0  0  0  0  0  0  0  0  0  0  0  0
   57.9200   53.7270   24.9310 C   0  0  0  0  0  0  0  0  0  0  0  0
   62.2230   54.7095   27.6884 H   0  0  0  0  0  0  0  0  0  0  0  0
   61.2699   56.2459   27.8527 H   0  0  0  0  0  0  0  0  0  0  0  0
   64.5875   56.5281   26.5487 H   0  0  0  0  0  0  0  0  0  0  0  0
   63.6964   58.0319   26.9506 H   0  0  0  0  0  0  0  0  0  0  0  0
   66.0372   56.9810   27.9389 H   0  0  0  0  0  0  0  0  0  0  0  0
   65.3405   56.3249   29.4289 H   0  0  0  0  0  0  0  0  0  0  0  0
   62.8864   57.1446   29.8213 H   0  0  0  0  0  0  0  0  0  0  0  0
   63.4748   58.5360   31.5747 H   0  0  0  0  0  0  0  0  0  0  0  0
   64.4559   58.8092   33.8574 H   0  0  0  0  0  0  0  0  0  0  0  0
   66.7054   57.9339   34.2992 H   0  0  0  0  0  0  0  0  0  0  0  0
   68.0515   56.7904   32.5797 H   0  0  0  0  0  0  0  0  0  0  0  0
   67.0549   56.5152   30.2694 H   0  0  0  0  0  0  0  0  0  0  0  0
   62.9930   56.6392   25.6464 H   0  0  0  0  0  0  0  0  0  0  0  0
   62.3470   54.9994   25.4386 H   0  0  0  0  0  0  0  0  0  0  0  0
   61.4421   58.6212   25.2802 H   0  0  0  0  0  0  0  0  0  0  0  0
   59.0903   59.3026   24.7215 H   0  0  0  0  0  0  0  0  0  0  0  0
   56.8999   55.1758   26.2202 H   0  0  0  0  0  0  0  0  0  0  0  0
   56.0181   56.4892   24.3814 H   0  0  0  0  0  0  0  0  0  0  0  0
   57.1823   55.7091   23.2224 H   0  0  0  0  0  0  0  0  0  0  0  0
   54.5353   55.0024   23.7081 H   0  0  0  0  0  0  0  0  0  0  0  0
   55.8212   54.0816   22.7957 H   0  0  0  0  0  0  0  0  0  0  0  0
   55.0794   53.7909   25.7174 H   0  0  0  0  0  0  0  0  0  0  0  0
   54.7857   52.6215   24.3519 H   0  0  0  0  0  0  0  0  0  0  0  0
   56.7923   52.2866   26.0089 H   0  0  0  0  0  0  0  0  0  0  0  0
   56.9539   51.9871   24.2246 H   0  0  0  0  0  0  0  0  0  0  0  0
   58.6997   53.4406   25.6521 H   0  0  0  0  0  0  0  0  0  0  0  0
   58.3233   53.7214   23.9076 H   0  0  0  0  0  0  0  0  0  0  0  0
  1  2  1  0
  2  6  1  0
  3  2  1  0
  3  4  1  0
  4  5  1  0
  5  7  1  0
  6  5  1  0
  7 12  1  0
  7  8  2  0
  8  9  1  0
  9 10  2  0
 11 10  1  0
 12 11  2  0
 13  1  1  0
 14 19  1  0
 14 13  1  0
 15 14  2  0
 16 17  2  0
 16 15  1  0
 17 18  1  0
 18 19  2  0
 20 18  1  0
 21 20  1  0
 22 21  1  0
 22 23  1  0
 23 24  1  0
 25 24  1  0
 25 20  1  0
  1 26  1  0
  1 27  1  0
  3 28  1  0
  3 29  1  0
  4 30  1  0
  5 31  1  6
  6 32  1  0
  8 33  1  0
  9 34  1  0
 10 35  1  0
 11 36  1  0
 12 37  1  0
 13 38  1  0
 13 39  1  0
 15 40  1  0
 16 41  1  0
 20 42  1  0
 21 43  1  0
 21 44  1  0
 22 45  1  0
 22 46  1  0
 23 47  1  0
 23 48  1  0
 24 49  1  0
 24 50  1  0
 25 51  1  0
 25 52  1  0
M  END
>  <Score>  (1) 
-7.21076

$$$$
