
     RDKit          3D

 42 46  0  0  0  0  0  0  0  0999 V2000
   65.7820   58.0340   31.7550 C   0  0  0  0  0  0  0  0  0  0  0  0
   66.4150   57.2970   30.8000 C   0  0  0  0  0  0  0  0  0  0  0  0
   65.7270   56.9150   29.6510 C   0  0  0  0  0  0  0  0  0  0  0  0
   64.4110   57.2610   29.4500 C   0  0  0  0  0  0  0  0  0  0  0  0
   63.7860   57.9970   30.4100 C   0  0  0  0  0  0  0  0  0  0  0  0
   64.4590   58.3820   31.5520 C   0  0  0  0  0  0  0  0  0  0  0  0
   63.5410   56.8870   25.9210 C   0  0  0  0  0  0  0  0  0  0  0  0
   62.3530   56.1480   25.9580 C   0  0  0  0  0  0  0  0  0  0  0  0
   61.8610   55.7830   27.2150 C   0  0  0  0  0  0  0  0  0  0  0  0
   62.5580   56.1640   28.3350 N   0  0  0  0  0  0  0  0  0  0  0  0
   63.6830   56.8660   28.2510 C   0  0  0  0  0  0  0  0  0  0  0  0
   64.1860   57.2340   27.0400 N   0  0  0  0  0  0  0  0  0  0  0  0
   66.7010   58.4720   33.1550 S   0  0  0  0  0  0  0  0  0  0  0  0
   67.6180   57.3800   33.5250 O   0  0  0  0  0  0  0  0  0  0  0  0
   65.7930   58.8390   34.3080 O   0  0  0  0  0  0  0  0  0  0  0  0
   67.6490   59.9000   32.7000 C   0  0  0  0  0  0  0  0  0  0  0  0
   68.3460   60.7560   33.4940 N   0  0  0  0  0  0  0  0  0  0  0  0
   68.9060   61.6750   32.7800 O   0  0  0  0  0  0  0  0  0  0  0  0
   68.6060   61.4650   31.5090 C   0  0  0  0  0  0  0  0  0  0  0  0
   67.8260   60.3650   31.4420 N   0  0  0  0  0  0  0  0  0  0  0  0
   69.0030   62.2330   30.3110 C   0  0  0  0  0  0  0  0  0  0  0  0
   70.2910   62.5210   29.8600 C   0  0  0  0  0  0  0  0  0  0  0  0
   70.0990   63.2400   28.7400 N   0  0  0  0  0  0  0  0  0  0  0  0
   68.7970   63.4220   28.4580 C   0  0  0  0  0  0  0  0  0  0  0  0
   68.1560   64.0840   27.4280 C   0  0  0  0  0  0  0  0  0  0  0  0
   66.7700   64.0680   27.4570 C   0  0  0  0  0  0  0  0  0  0  0  0
   66.0340   63.4410   28.4380 C   0  0  0  0  0  0  0  0  0  0  0  0
   66.6770   62.7820   29.4630 C   0  0  0  0  0  0  0  0  0  0  0  0
   68.0670   62.7880   29.4490 C   0  0  0  0  0  0  0  0  0  0  0  0
   67.4666   57.0044   30.9361 H   0  0  0  0  0  0  0  0  0  0  0  0
   66.2488   56.3220   28.8854 H   0  0  0  0  0  0  0  0  0  0  0  0
   62.7339   58.2878   30.2741 H   0  0  0  0  0  0  0  0  0  0  0  0
   63.9337   58.9762   32.3142 H   0  0  0  0  0  0  0  0  0  0  0  0
   63.9543   57.1898   24.9476 H   0  0  0  0  0  0  0  0  0  0  0  0
   61.8268   55.8653   25.0343 H   0  0  0  0  0  0  0  0  0  0  0  0
   60.9320   55.2009   27.3050 H   0  0  0  0  0  0  0  0  0  0  0  0
   71.2473   62.2266   30.3170 H   0  0  0  0  0  0  0  0  0  0  0  0
   70.8659   63.6110   28.1611 H   0  0  0  0  0  0  0  0  0  0  0  0
   68.7143   64.5950   26.6298 H   0  0  0  0  0  0  0  0  0  0  0  0
   66.2278   64.5849   26.6515 H   0  0  0  0  0  0  0  0  0  0  0  0
   64.9348   63.4663   28.4032 H   0  0  0  0  0  0  0  0  0  0  0  0
   66.1141   62.2725   30.2590 H   0  0  0  0  0  0  0  0  0  0  0  0
  1 13  1  0
  2  1  2  0
  3  2  1  0
  4  3  2  0
  4  5  1  0
  5  6  2  0
  6  1  1  0
  7  8  2  0
  7 12  1  0
  8  9  1  0
  9 10  2  0
 11 10  1  0
 11  4  1  0
 12 11  2  0
 13 14  2  0
 13 15  2  0
 16 13  1  0
 16 17  2  0
 18 17  1  0
 19 18  1  0
 20 19  2  0
 20 16  1  0
 21 19  1  0
 22 21  2  0
 23 22  1  0
 24 23  1  0
 24 29  2  0
 25 26  2  0
 25 24  1  0
 26 27  1  0
 27 28  2  0
 29 28  1  0
 29 21  1  0
  2 30  1  0
  3 31  1  0
  5 32  1  0
  6 33  1  0
  7 34  1  0
  8 35  1  0
  9 36  1  0
 22 37  1  0
 23 38  1  0
 25 39  1  0
 26 40  1  0
 27 41  1  0
 28 42  1  0
M  END
>  <Score>  (1) 
-7.03942

$$$$
