
     RDKit          3D

 47 51  0  0  0  0  0  0  0  0999 V2000
   63.5240   56.9760   27.1330 C   0  0  0  0  0  0  0  0  0  0  0  0
   62.2030   57.4520   27.3560 C   0  0  0  0  0  0  0  0  0  0  0  0
   61.9880   58.1780   28.5280 C   0  0  0  0  0  0  0  0  0  0  0  0
   63.0130   58.3910   29.3770 N   0  0  0  0  0  0  0  0  0  0  0  0
   64.2490   57.9330   29.1470 C   0  0  0  0  0  0  0  0  0  0  0  0
   64.5080   57.2250   28.0290 N   0  0  0  0  0  0  0  0  0  0  0  0
   61.2870   57.0940   26.3080 C   0  0  0  0  0  0  0  0  0  0  0  0
   60.8730   55.7630   26.3130 C   0  0  0  0  0  0  0  0  0  0  0  0
   60.0040   55.2170   25.4020 C   0  0  0  0  0  0  0  0  0  0  0  0
   59.4960   56.0240   24.4070 C   0  0  0  0  0  0  0  0  0  0  0  0
   59.8830   57.3270   24.3790 C   0  0  0  0  0  0  0  0  0  0  0  0
   59.4260   58.2090   23.4200 C   0  0  0  0  0  0  0  0  0  0  0  0
   59.8120   59.5400   23.3790 C   0  0  0  0  0  0  0  0  0  0  0  0
   60.6900   60.0220   24.3270 C   0  0  0  0  0  0  0  0  0  0  0  0
   61.1720   59.1710   25.3050 C   0  0  0  0  0  0  0  0  0  0  0  0
   60.7530   57.8530   25.3000 C   0  0  0  0  0  0  0  0  0  0  0  0
   65.3120   58.1970   30.1050 C   0  0  0  0  0  0  0  0  0  0  0  0
   66.0390   57.1370   30.6390 C   0  0  0  0  0  0  0  0  0  0  0  0
   67.0490   57.4350   31.5520 C   0  0  0  0  0  0  0  0  0  0  0  0
   67.3360   58.7160   31.9260 N   0  0  0  0  0  0  0  0  0  0  0  0
   66.6010   59.6770   31.3760 C   0  0  0  0  0  0  0  0  0  0  0  0
   65.6000   59.4570   30.4780 N   0  0  0  0  0  0  0  0  0  0  0  0
   66.8690   61.0380   31.7410 N   0  0  0  0  0  0  0  0  0  0  0  0
   67.5760   61.8530   30.7460 C   0  0  0  0  0  0  0  0  0  0  0  0
   67.2910   63.3140   30.8790 C   0  0  0  0  0  0  0  0  0  0  0  0
   66.3730   63.6120   31.8990 O   0  0  0  0  0  0  0  0  0  0  0  0
   66.8680   63.0330   33.0580 C   0  0  0  0  0  0  0  0  0  0  0  0
   66.4600   61.5760   33.0280 C   0  0  0  0  0  0  0  0  0  0  0  0
   63.7488   56.3997   26.2234 H   0  0  0  0  0  0  0  0  0  0  0  0
   60.9879   58.5742   28.7577 H   0  0  0  0  0  0  0  0  0  0  0  0
   61.2698   55.1057   27.1007 H   0  0  0  0  0  0  0  0  0  0  0  0
   59.7186   54.1565   25.4647 H   0  0  0  0  0  0  0  0  0  0  0  0
   58.7973   55.6252   23.6568 H   0  0  0  0  0  0  0  0  0  0  0  0
   58.7259   57.8400   22.6560 H   0  0  0  0  0  0  0  0  0  0  0  0
   59.4209   60.2065   22.5962 H   0  0  0  0  0  0  0  0  0  0  0  0
   61.0047   61.0758   24.3055 H   0  0  0  0  0  0  0  0  0  0  0  0
   61.8735   59.5347   26.0703 H   0  0  0  0  0  0  0  0  0  0  0  0
   65.8234   56.0978   30.3498 H   0  0  0  0  0  0  0  0  0  0  0  0
   67.6342   56.6106   31.9855 H   0  0  0  0  0  0  0  0  0  0  0  0
   67.2680   61.5257   29.7420 H   0  0  0  0  0  0  0  0  0  0  0  0
   68.6543   61.7117   30.9111 H   0  0  0  0  0  0  0  0  0  0  0  0
   68.2350   63.8352   31.0962 H   0  0  0  0  0  0  0  0  0  0  0  0
   66.8422   63.6452   29.9309 H   0  0  0  0  0  0  0  0  0  0  0  0
   67.9643   63.1187   33.0857 H   0  0  0  0  0  0  0  0  0  0  0  0
   66.4697   63.5360   33.9515 H   0  0  0  0  0  0  0  0  0  0  0  0
   65.3696   61.4882   33.1432 H   0  0  0  0  0  0  0  0  0  0  0  0
   66.9359   61.0217   33.8504 H   0  0  0  0  0  0  0  0  0  0  0  0
  1  2  2  0
  1  6  1  0
  2  3  1  0
  3  4  2  0
  5  4  1  0
  5 17  1  0
  6  5  2  0
  7  8  2  0
  7  2  1  0
  9  8  1  0
 10  9  2  0
 11 10  1  0
 11 16  2  0
 12 11  1  0
 13 12  2  0
 13 14  1  0
 14 15  2  0
 16 15  1  0
 16  7  1  0
 17 22  1  0
 17 18  2  0
 18 19  1  0
 19 20  2  0
 21 23  1  0
 21 20  1  0
 22 21  2  0
 23 28  1  0
 24 25  1  0
 24 23  1  0
 25 26  1  0
 26 27  1  0
 28 27  1  0
  1 29  1  0
  3 30  1  0
  8 31  1  0
  9 32  1  0
 10 33  1  0
 12 34  1  0
 13 35  1  0
 14 36  1  0
 15 37  1  0
 18 38  1  0
 19 39  1  0
 24 40  1  0
 24 41  1  0
 25 42  1  0
 25 43  1  0
 27 44  1  0
 27 45  1  0
 28 46  1  0
 28 47  1  0
M  END
>  <Score>  (1) 
-7.51971

$$$$
