
     RDKit          3D

 49 53  0  0  0  0  0  0  0  0999 V2000
   60.2570   58.5190   25.4440 C   0  0  0  0  0  0  0  0  0  0  0  0
   61.0850   59.2940   24.6260 C   0  0  0  0  0  0  0  0  0  0  0  0
   60.2870   59.9220   23.6790 C   0  0  0  0  0  0  0  0  0  0  0  0
   58.9990   59.4890   23.9750 C   0  0  0  0  0  0  0  0  0  0  0  0
   59.0390   58.6940   24.9860 O   0  0  0  0  0  0  0  0  0  0  0  0
   57.8280   59.9180   23.2050 C   0  0  0  0  0  0  0  0  0  0  0  0
   57.1270   59.2110   22.2400 C   0  0  0  0  0  0  0  0  0  0  0  0
   56.1350   59.9580   21.7880 N   0  0  0  0  0  0  0  0  0  0  0  0
   56.1340   61.1330   22.4030 C   0  0  0  0  0  0  0  0  0  0  0  0
   55.2940   62.2130   22.2550 C   0  0  0  0  0  0  0  0  0  0  0  0
   55.5490   63.3170   23.0510 C   0  0  0  0  0  0  0  0  0  0  0  0
   56.5920   63.3970   23.9790 C   0  0  0  0  0  0  0  0  0  0  0  0
   57.3910   62.2760   24.0710 C   0  0  0  0  0  0  0  0  0  0  0  0
   57.1960   61.1460   23.3130 C   0  0  0  0  0  0  0  0  0  0  0  0
   60.6480   57.7140   26.5370 O   0  0  0  0  0  0  0  0  0  0  0  0
   61.5920   56.7140   26.2560 C   0  0  0  0  0  0  0  0  0  0  0  0
   61.3140   55.7010   25.5980 O   0  0  0  0  0  0  0  0  0  0  0  0
   65.3390   56.8650   26.4600 C   0  0  0  0  0  0  0  0  0  0  0  0
   64.0350   56.6890   25.9400 C   0  0  0  0  0  0  0  0  0  0  0  0
   62.9400   56.8860   26.7580 C   0  0  0  0  0  0  0  0  0  0  0  0
   63.1730   57.2420   28.0350 N   0  0  0  0  0  0  0  0  0  0  0  0
   64.4350   57.4050   28.5150 C   0  0  0  0  0  0  0  0  0  0  0  0
   65.4990   57.2270   27.7690 N   0  0  0  0  0  0  0  0  0  0  0  0
   64.5770   57.7830   29.8800 N   0  0  0  0  0  0  0  0  0  0  0  0
   63.7730   58.8280   30.4880 C   0  0  0  0  0  0  0  0  0  0  0  0
   64.6710   60.0430   30.6030 C   0  0  0  0  0  0  0  0  0  0  0  0
   66.0340   59.5790   30.9970 C   0  0  0  0  0  0  0  0  0  0  0  0
   66.0480   58.2440   31.7120 C   0  0  0  0  0  0  0  0  0  0  0  0
   65.5310   57.1660   30.7860 C   0  0  0  0  0  0  0  0  0  0  0  0
   62.1771   59.3894   24.7168 H   0  0  0  0  0  0  0  0  0  0  0  0
   60.6019   60.6062   22.8773 H   0  0  0  0  0  0  0  0  0  0  0  0
   57.3598   58.1898   21.9038 H   0  0  0  0  0  0  0  0  0  0  0  0
   55.4613   59.6699   21.0641 H   0  0  0  0  0  0  0  0  0  0  0  0
   54.4596   62.1999   21.5384 H   0  0  0  0  0  0  0  0  0  0  0  0
   54.8870   64.1892   22.9464 H   0  0  0  0  0  0  0  0  0  0  0  0
   56.7637   64.2928   24.5939 H   0  0  0  0  0  0  0  0  0  0  0  0
   58.2261   62.2871   24.7869 H   0  0  0  0  0  0  0  0  0  0  0  0
   66.2176   56.7118   25.8161 H   0  0  0  0  0  0  0  0  0  0  0  0
   63.8941   56.3966   24.8890 H   0  0  0  0  0  0  0  0  0  0  0  0
   62.9029   59.0561   29.8549 H   0  0  0  0  0  0  0  0  0  0  0  0
   63.3922   58.5178   31.4722 H   0  0  0  0  0  0  0  0  0  0  0  0
   64.7199   60.5630   29.6349 H   0  0  0  0  0  0  0  0  0  0  0  0
   64.2739   60.7395   31.3561 H   0  0  0  0  0  0  0  0  0  0  0  0
   66.6456   59.4903   30.0870 H   0  0  0  0  0  0  0  0  0  0  0  0
   66.4311   60.3225   31.7038 H   0  0  0  0  0  0  0  0  0  0  0  0
   67.0772   58.0025   32.0160 H   0  0  0  0  0  0  0  0  0  0  0  0
   65.4041   58.3000   32.6021 H   0  0  0  0  0  0  0  0  0  0  0  0
   65.0363   56.3759   31.3700 H   0  0  0  0  0  0  0  0  0  0  0  0
   66.3594   56.7117   30.2227 H   0  0  0  0  0  0  0  0  0  0  0  0
  1 15  1  0
  2  1  2  0
  3  4  2  0
  3  2  1  0
  4  5  1  0
  5  1  1  0
  6 14  1  0
  6  4  1  0
  7  6  2  0
  8  7  1  0
  8  9  1  0
  9 14  2  0
 10  9  1  0
 10 11  2  0
 11 12  1  0
 12 13  2  0
 14 13  1  0
 16 15  1  0
 16 20  1  0
 17 16  2  0
 18 23  2  0
 19 18  1  0
 19 20  2  0
 20 21  1  0
 21 22  2  0
 22 24  1  0
 23 22  1  0
 24 25  1  0
 24 29  1  0
 25 26  1  0
 26 27  1  0
 27 28  1  0
 29 28  1  0
  2 30  1  0
  3 31  1  0
  7 32  1  0
  8 33  1  0
 10 34  1  0
 11 35  1  0
 12 36  1  0
 13 37  1  0
 18 38  1  0
 19 39  1  0
 25 40  1  0
 25 41  1  0
 26 42  1  0
 26 43  1  0
 27 44  1  0
 27 45  1  0
 28 46  1  0
 28 47  1  0
 29 48  1  0
 29 49  1  0
M  END
>  <Score>  (1) 
-7.00055

$$$$
