
     RDKit          3D

 46 50  0  0  1  0  0  0  0  0999 V2000
   61.7120   56.7390   26.5220 N   0  0  0  0  0  0  0  0  0  0  0  0
   61.2680   55.4480   26.0450 C   0  0  0  0  0  0  0  0  0  0  0  0
   60.2550   55.7510   24.9810 C   0  0  0  0  0  0  0  0  0  0  0  0
   59.6370   57.0470   25.4900 C   0  0  0  0  0  0  0  0  0  0  0  0
   60.9070   57.7650   25.9070 C   0  0  1  0  0  0  0  0  0  0  0  0
   64.0840   57.3260   27.0070 C   0  0  0  0  0  0  0  0  0  0  0  0
   62.7480   56.9880   27.4300 C   0  0  0  0  0  0  0  0  0  0  0  0
   62.5450   56.9360   28.7970 C   0  0  0  0  0  0  0  0  0  0  0  0
   63.5480   57.1940   29.6570 N   0  0  0  0  0  0  0  0  0  0  0  0
   64.7760   57.5070   29.2000 C   0  0  0  0  0  0  0  0  0  0  0  0
   65.0610   57.5750   27.8950 N   0  0  0  0  0  0  0  0  0  0  0  0
   65.7100   57.7490   30.2520 N   0  0  0  0  0  0  0  0  0  0  0  0
   66.4200   56.6950   30.7330 C   0  0  0  0  0  0  0  0  0  0  0  0
   67.3440   56.8990   31.7640 C   0  0  0  0  0  0  0  0  0  0  0  0
   67.4300   58.2070   32.1920 C   0  0  0  0  0  0  0  0  0  0  0  0
   68.2570   58.4370   33.1280 O   0  0  0  0  0  0  0  0  0  0  0  0
   66.7420   59.2700   31.7360 N   0  0  0  0  0  0  0  0  0  0  0  0
   65.8590   59.0040   30.7320 C   0  0  0  0  0  0  0  0  0  0  0  0
   65.1920   59.9690   30.2740 O   0  0  0  0  0  0  0  0  0  0  0  0
   60.7040   58.9540   26.6240 N   0  0  0  0  0  0  0  0  0  0  0  0
   61.1460   59.2500   27.8550 C   0  0  0  0  0  0  0  0  0  0  0  0
   60.7620   60.4790   28.1780 N   0  0  0  0  0  0  0  0  0  0  0  0
   60.0440   60.9970   27.1280 C   0  0  0  0  0  0  0  0  0  0  0  0
   59.4140   62.2210   27.0290 C   0  0  0  0  0  0  0  0  0  0  0  0
   59.4730   63.0500   27.9540 O   0  0  0  0  0  0  0  0  0  0  0  0
   58.7420   62.4510   25.9010 N   0  0  0  0  0  0  0  0  0  0  0  0
   58.6840   61.5290   24.9090 C   0  0  0  0  0  0  0  0  0  0  0  0
   57.9270   61.7930   23.7330 N   0  0  0  0  0  0  0  0  0  0  0  0
   59.3150   60.3520   25.0580 N   0  0  0  0  0  0  0  0  0  0  0  0
   60.0200   60.0100   26.1500 C   0  0  0  0  0  0  0  0  0  0  0  0
   62.1115   54.8808   25.6246 H   0  0  0  0  0  0  0  0  0  0  0  0
   60.8450   54.8334   26.8533 H   0  0  0  0  0  0  0  0  0  0  0  0
   59.5027   54.9520   24.9066 H   0  0  0  0  0  0  0  0  0  0  0  0
   60.6837   55.8314   23.9712 H   0  0  0  0  0  0  0  0  0  0  0  0
   59.0988   57.5870   24.6971 H   0  0  0  0  0  0  0  0  0  0  0  0
   58.8770   56.9326   26.2770 H   0  0  0  0  0  0  0  0  0  0  0  0
   61.4512   58.1988   25.0551 H   0  0  0  0  0  0  0  0  0  0  0  0
   64.3089   57.3814   25.9317 H   0  0  0  0  0  0  0  0  0  0  0  0
   61.5490   56.6800   29.1874 H   0  0  0  0  0  0  0  0  0  0  0  0
   66.2696   55.6887   30.3150 H   0  0  0  0  0  0  0  0  0  0  0  0
   67.9485   56.0874   32.1951 H   0  0  0  0  0  0  0  0  0  0  0  0
   66.8733   60.2173   32.1184 H   0  0  0  0  0  0  0  0  0  0  0  0
   61.7351   58.5788   28.4972 H   0  0  0  0  0  0  0  0  0  0  0  0
   58.2553   63.3507   25.7803 H   0  0  0  0  0  0  0  0  0  0  0  0
   57.4449   62.6965   23.6229 H   0  0  0  0  0  0  0  0  0  0  0  0
   57.8613   61.0805   22.9921 H   0  0  0  0  0  0  0  0  0  0  0  0
  1  7  1  0
  2  1  1  0
  3  4  1  0
  3  2  1  0
  4  5  1  0
  5  1  1  0
  5 20  1  0
  6  7  2  0
  6 11  1  0
  7  8  1  0
  8  9  2  0
 10  9  1  0
 10 12  1  0
 11 10  2  0
 12 18  1  0
 12 13  1  0
 13 14  2  0
 14 15  1  0
 15 16  2  0
 17 15  1  0
 18 17  1  0
 19 18  2  0
 20 21  1  0
 21 22  2  0
 23 22  1  0
 24 23  1  0
 24 25  2  0
 26 24  1  0
 27 29  2  0
 27 26  1  0
 28 27  1  0
 29 30  1  0
 30 20  1  0
 30 23  2  0
  2 31  1  0
  2 32  1  0
  3 33  1  0
  3 34  1  0
  4 35  1  0
  4 36  1  0
  5 37  1  6
  6 38  1  0
  8 39  1  0
 13 40  1  0
 14 41  1  0
 17 42  1  0
 21 43  1  0
 26 44  1  0
 28 45  1  0
 28 46  1  0
M  END
>  <Score>  (1) 
-7.26077

$$$$
