
     RDKit          3D

 45 50  0  0  0  0  0  0  0  0999 V2000
   63.4880   56.9610   27.0960 C   0  0  0  0  0  0  0  0  0  0  0  0
   62.1680   57.4300   27.3210 C   0  0  0  0  0  0  0  0  0  0  0  0
   61.9600   58.1480   28.4980 C   0  0  0  0  0  0  0  0  0  0  0  0
   62.9890   58.3560   29.3390 N   0  0  0  0  0  0  0  0  0  0  0  0
   64.2210   57.9050   29.1040 C   0  0  0  0  0  0  0  0  0  0  0  0
   64.4770   57.2080   27.9880 N   0  0  0  0  0  0  0  0  0  0  0  0
   65.2890   58.1690   30.0620 C   0  0  0  0  0  0  0  0  0  0  0  0
   65.9690   57.1040   30.6430 C   0  0  0  0  0  0  0  0  0  0  0  0
   66.9860   57.3920   31.5570 C   0  0  0  0  0  0  0  0  0  0  0  0
   67.3140   58.6790   31.8820 N   0  0  0  0  0  0  0  0  0  0  0  0
   66.6210   59.6480   31.2880 C   0  0  0  0  0  0  0  0  0  0  0  0
   65.6210   59.4300   30.3900 N   0  0  0  0  0  0  0  0  0  0  0  0
   66.8320   61.0590   31.5110 N   0  0  0  0  0  0  0  0  0  0  0  0
   66.9410   61.5350   32.7780 C   0  0  0  0  0  0  0  0  0  0  0  0
   67.1320   62.8760   32.6910 N   0  0  0  0  0  0  0  0  0  0  0  0
   67.1430   63.2290   31.3880 C   0  0  0  0  0  0  0  0  0  0  0  0
   67.2870   64.3800   30.6390 C   0  0  0  0  0  0  0  0  0  0  0  0
   67.2400   64.3500   29.2840 N   0  0  0  0  0  0  0  0  0  0  0  0
   67.0500   63.1870   28.6160 C   0  0  0  0  0  0  0  0  0  0  0  0
   66.9030   62.0190   29.2800 N   0  0  0  0  0  0  0  0  0  0  0  0
   66.9520   62.0710   30.6390 C   0  0  0  0  0  0  0  0  0  0  0  0
   61.2500   57.0740   26.2730 C   0  0  0  0  0  0  0  0  0  0  0  0
   60.8320   55.7530   26.2730 C   0  0  0  0  0  0  0  0  0  0  0  0
   59.9570   55.2190   25.3550 C   0  0  0  0  0  0  0  0  0  0  0  0
   59.4540   56.0240   24.3690 C   0  0  0  0  0  0  0  0  0  0  0  0
   59.8470   57.3240   24.3440 C   0  0  0  0  0  0  0  0  0  0  0  0
   59.3920   58.2120   23.3860 C   0  0  0  0  0  0  0  0  0  0  0  0
   59.7790   59.5320   23.3470 C   0  0  0  0  0  0  0  0  0  0  0  0
   60.6620   60.0170   24.2960 C   0  0  0  0  0  0  0  0  0  0  0  0
   61.1450   59.1690   25.2730 C   0  0  0  0  0  0  0  0  0  0  0  0
   60.7200   57.8540   25.2620 C   0  0  0  0  0  0  0  0  0  0  0  0
   63.7115   56.3884   26.1838 H   0  0  0  0  0  0  0  0  0  0  0  0
   60.9611   58.5417   28.7372 H   0  0  0  0  0  0  0  0  0  0  0  0
   65.7135   56.0644   30.3902 H   0  0  0  0  0  0  0  0  0  0  0  0
   67.5361   56.5632   32.0265 H   0  0  0  0  0  0  0  0  0  0  0  0
   66.8849   60.9433   33.7036 H   0  0  0  0  0  0  0  0  0  0  0  0
   67.4430   65.3406   31.1517 H   0  0  0  0  0  0  0  0  0  0  0  0
   67.0148   63.1933   27.5166 H   0  0  0  0  0  0  0  0  0  0  0  0
   61.2247   55.0887   27.0569 H   0  0  0  0  0  0  0  0  0  0  0  0
   59.6658   54.1598   25.4128 H   0  0  0  0  0  0  0  0  0  0  0  0
   58.7523   55.6299   23.6191 H   0  0  0  0  0  0  0  0  0  0  0  0
   58.6900   57.8470   22.6218 H   0  0  0  0  0  0  0  0  0  0  0  0
   59.3881   60.1991   22.5646 H   0  0  0  0  0  0  0  0  0  0  0  0
   60.9769   61.0707   24.2722 H   0  0  0  0  0  0  0  0  0  0  0  0
   61.8480   59.5299   26.0382 H   0  0  0  0  0  0  0  0  0  0  0  0
  1  2  2  0
  1  6  1  0
  2  3  1  0
  3  4  2  0
  5  4  1  0
  5  7  1  0
  6  5  2  0
  7 12  1  0
  7  8  2  0
  8  9  1  0
  9 10  2  0
 11 13  1  0
 11 10  1  0
 12 11  2  0
 13 14  1  0
 15 14  2  0
 16 15  1  0
 17 16  2  0
 18 17  1  0
 19 20  1  0
 19 18  2  0
 20 21  2  0
 21 16  1  0
 21 13  1  0
 22 23  2  0
 22  2  1  0
 24 23  1  0
 25 24  2  0
 26 25  1  0
 26 31  2  0
 27 26  1  0
 28 27  2  0
 28 29  1  0
 29 30  2  0
 31 30  1  0
 31 22  1  0
  1 32  1  0
  3 33  1  0
  8 34  1  0
  9 35  1  0
 14 36  1  0
 17 37  1  0
 19 38  1  0
 23 39  1  0
 24 40  1  0
 25 41  1  0
 27 42  1  0
 28 43  1  0
 29 44  1  0
 30 45  1  0
M  END
>  <Score>  (1) 
-8.14314

$$$$
