
     RDKit          3D

 50 54  0  0  1  0  0  0  0  0999 V2000
   60.8280   58.8440   25.9150 C   0  0  1  0  0  0  0  0  0  0  0  0
   61.1680   59.5230   24.6600 C   0  0  0  0  0  0  0  0  0  0  0  0
   60.3570   60.7420   24.3190 C   0  0  0  0  0  0  0  0  0  0  0  0
   59.8820   61.5190   25.4650 C   0  0  0  0  0  0  0  0  0  0  0  0
   60.3270   60.9800   26.8180 C   0  0  0  0  0  0  0  0  0  0  0  0
   59.8780   59.5330   26.8510 C   0  0  1  0  0  0  0  0  0  0  0  0
   58.4520   59.4430   26.5810 C   0  0  0  0  0  0  0  0  0  0  0  0
   57.8250   59.3220   25.4220 N   0  0  0  0  0  0  0  0  0  0  0  0
   56.5640   59.2280   25.1080 C   0  0  0  0  0  0  0  0  0  0  0  0
   55.6460   59.2460   26.0600 N   0  0  0  0  0  0  0  0  0  0  0  0
   56.0760   59.3640   27.3240 C   0  0  0  0  0  0  0  0  0  0  0  0
   55.1320   59.3840   28.3240 C   0  0  0  0  0  0  0  0  0  0  0  0
   55.5160   59.5020   29.6220 C   0  0  0  0  0  0  0  0  0  0  0  0
   56.8740   59.6020   29.9540 C   0  0  0  0  0  0  0  0  0  0  0  0
   57.7510   59.5730   28.8940 C   0  0  0  0  0  0  0  0  0  0  0  0
   57.4540   59.4590   27.5610 C   0  0  0  0  0  0  0  0  0  0  0  0
   61.0910   56.3160   26.2220 C   0  0  0  0  0  0  0  0  0  0  0  0
   60.5710   55.0670   25.9990 C   0  0  0  0  0  0  0  0  0  0  0  0
   59.3860   54.9400   25.3070 C   0  0  0  0  0  0  0  0  0  0  0  0
   58.6930   56.0050   24.8250 C   0  0  0  0  0  0  0  0  0  0  0  0
   59.1800   57.2560   25.0290 C   0  0  0  0  0  0  0  0  0  0  0  0
   60.3810   57.4280   25.7290 C   0  0  0  0  0  0  0  0  0  0  0  0
   63.5360   56.9560   26.2570 C   0  0  0  0  0  0  0  0  0  0  0  0
   62.3170   56.6690   26.8940 C   0  0  0  0  0  0  0  0  0  0  0  0
   62.3360   56.7620   28.2980 C   0  0  0  0  0  0  0  0  0  0  0  0
   63.4750   57.1090   28.9300 N   0  0  0  0  0  0  0  0  0  0  0  0
   64.6370   57.3780   28.2570 C   0  0  0  0  0  0  0  0  0  0  0  0
   64.6530   57.2980   26.9290 N   0  0  0  0  0  0  0  0  0  0  0  0
   61.8078   58.8781   26.4139 H   0  0  0  0  0  0  0  0  0  0  0  0
   62.2229   59.8288   24.7200 H   0  0  0  0  0  0  0  0  0  0  0  0
   60.9496   58.7947   23.8651 H   0  0  0  0  0  0  0  0  0  0  0  0
   60.9799   61.4011   23.6964 H   0  0  0  0  0  0  0  0  0  0  0  0
   59.4557   60.3738   23.8070 H   0  0  0  0  0  0  0  0  0  0  0  0
   60.2589   62.5474   25.3634 H   0  0  0  0  0  0  0  0  0  0  0  0
   58.7836   61.4615   25.4499 H   0  0  0  0  0  0  0  0  0  0  0  0
   61.4208   61.0445   26.9156 H   0  0  0  0  0  0  0  0  0  0  0  0
   59.8942   61.5583   27.6476 H   0  0  0  0  0  0  0  0  0  0  0  0
   59.9383   59.0246   27.8246 H   0  0  0  0  0  0  0  0  0  0  0  0
   56.2637   59.1339   24.0540 H   0  0  0  0  0  0  0  0  0  0  0  0
   54.0641   59.3043   28.0725 H   0  0  0  0  0  0  0  0  0  0  0  0
   54.7563   59.5192   30.4173 H   0  0  0  0  0  0  0  0  0  0  0  0
   57.2167   59.6975   30.9949 H   0  0  0  0  0  0  0  0  0  0  0  0
   58.8187   59.6506   29.1470 H   0  0  0  0  0  0  0  0  0  0  0  0
   61.0954   54.1738   26.3694 H   0  0  0  0  0  0  0  0  0  0  0  0
   58.9828   53.9308   25.1371 H   0  0  0  0  0  0  0  0  0  0  0  0
   57.7508   55.8557   24.2773 H   0  0  0  0  0  0  0  0  0  0  0  0
   58.6337   58.1306   24.6462 H   0  0  0  0  0  0  0  0  0  0  0  0
   63.5807   56.8989   25.1594 H   0  0  0  0  0  0  0  0  0  0  0  0
   61.4249   56.5523   28.8776 H   0  0  0  0  0  0  0  0  0  0  0  0
   65.5470   57.6571   28.8083 H   0  0  0  0  0  0  0  0  0  0  0  0
  1  6  1  0
  2  1  1  0
  3  2  1  0
  3  4  1  0
  4  5  1  0
  5  6  1  0
  7  6  1  0
  7 16  1  0
  8  7  2  0
  9  8  1  0
  9 10  2  0
 10 11  1  0
 11 16  2  0
 11 12  1  0
 12 13  2  0
 13 14  1  0
 15 14  2  0
 16 15  1  0
 17 24  1  0
 18 17  2  0
 19 18  1  0
 20 21  1  0
 20 19  2  0
 21 22  2  0
 22  1  1  0
 22 17  1  0
 23 24  2  0
 23 28  1  0
 24 25  1  0
 25 26  2  0
 27 26  1  0
 28 27  2  0
  1 29  1  1
  2 30  1  0
  2 31  1  0
  3 32  1  0
  3 33  1  0
  4 34  1  0
  4 35  1  0
  5 36  1  0
  5 37  1  0
  6 38  1  1
  9 39  1  0
 12 40  1  0
 13 41  1  0
 14 42  1  0
 15 43  1  0
 18 44  1  0
 19 45  1  0
 20 46  1  0
 21 47  1  0
 23 48  1  0
 25 49  1  0
 27 50  1  0
M  END
>  <Score>  (1) 
-7.11108

$$$$
