
     RDKit          3D

 52 57  0  0  1  0  0  0  0  0999 V2000
   61.5990   56.7560   26.4470 N   0  0  0  0  0  0  0  0  0  0  0  0
   61.1400   55.4730   25.9670 C   0  0  0  0  0  0  0  0  0  0  0  0
   60.1250   55.8000   24.9080 C   0  0  0  0  0  0  0  0  0  0  0  0
   59.5230   57.0980   25.4360 C   0  0  0  0  0  0  0  0  0  0  0  0
   60.8060   57.7980   25.8440 C   0  0  1  0  0  0  0  0  0  0  0  0
   60.6230   58.9840   26.5750 N   0  0  0  0  0  0  0  0  0  0  0  0
   61.0830   59.2690   27.8010 C   0  0  0  0  0  0  0  0  0  0  0  0
   60.7120   60.5000   28.1340 N   0  0  0  0  0  0  0  0  0  0  0  0
   59.9860   61.0290   27.0970 C   0  0  0  0  0  0  0  0  0  0  0  0
   59.3650   62.2600   27.0140 C   0  0  0  0  0  0  0  0  0  0  0  0
   59.4530   63.0830   27.9510 O   0  0  0  0  0  0  0  0  0  0  0  0
   58.6690   62.4930   25.8740 N   0  0  0  0  0  0  0  0  0  0  0  0
   58.6010   61.5830   24.9010 C   0  0  0  0  0  0  0  0  0  0  0  0
   57.8590   61.8780   23.7260 N   0  0  0  0  0  0  0  0  0  0  0  0
   59.2240   60.4030   25.0350 N   0  0  0  0  0  0  0  0  0  0  0  0
   59.9430   60.0470   26.1160 C   0  0  0  0  0  0  0  0  0  0  0  0
   63.9690   57.3450   26.9300 C   0  0  0  0  0  0  0  0  0  0  0  0
   62.6430   56.9850   27.3550 C   0  0  0  0  0  0  0  0  0  0  0  0
   62.4840   56.8960   28.7030 C   0  0  0  0  0  0  0  0  0  0  0  0
   63.5120   57.1390   29.5370 N   0  0  0  0  0  0  0  0  0  0  0  0
   64.7190   57.4700   29.1080 C   0  0  0  0  0  0  0  0  0  0  0  0
   64.9510   57.5710   27.8240 N   0  0  0  0  0  0  0  0  0  0  0  0
   65.6210   57.6720   30.2480 C   0  0  0  0  0  0  0  0  0  0  0  0
   66.3920   56.6710   30.7870 C   0  0  0  0  0  0  0  0  0  0  0  0
   67.2510   56.8090   31.8530 C   0  0  0  0  0  0  0  0  0  0  0  0
   67.3820   58.0280   32.4600 C   0  0  0  0  0  0  0  0  0  0  0  0
   66.6360   59.0710   31.9650 C   0  0  0  0  0  0  0  0  0  0  0  0
   66.7940   60.2810   32.6010 C   0  0  0  0  0  0  0  0  0  0  0  0
   66.1020   61.3780   32.1910 C   0  0  0  0  0  0  0  0  0  0  0  0
   65.2330   61.2190   31.1050 C   0  0  0  0  0  0  0  0  0  0  0  0
   65.1170   59.9830   30.5100 C   0  0  0  0  0  0  0  0  0  0  0  0
   65.7950   58.8720   30.8980 C   0  0  0  0  0  0  0  0  0  0  0  0
   61.9746   54.8980   25.5394 H   0  0  0  0  0  0  0  0  0  0  0  0
   60.7155   54.8559   26.7726 H   0  0  0  0  0  0  0  0  0  0  0  0
   59.3636   55.0103   24.8267 H   0  0  0  0  0  0  0  0  0  0  0  0
   60.5507   55.8873   23.8975 H   0  0  0  0  0  0  0  0  0  0  0  0
   58.9810   57.6505   24.6543 H   0  0  0  0  0  0  0  0  0  0  0  0
   58.7699   56.9847   26.2298 H   0  0  0  0  0  0  0  0  0  0  0  0
   61.3484   58.2313   24.9907 H   0  0  0  0  0  0  0  0  0  0  0  0
   61.6749   58.5900   28.4324 H   0  0  0  0  0  0  0  0  0  0  0  0
   58.1818   63.3929   25.7566 H   0  0  0  0  0  0  0  0  0  0  0  0
   57.3837   62.7869   23.6317 H   0  0  0  0  0  0  0  0  0  0  0  0
   57.7963   61.1830   22.9684 H   0  0  0  0  0  0  0  0  0  0  0  0
   64.1852   57.4375   25.8554 H   0  0  0  0  0  0  0  0  0  0  0  0
   61.5024   56.6218   29.1169 H   0  0  0  0  0  0  0  0  0  0  0  0
   66.3162   55.6745   30.3274 H   0  0  0  0  0  0  0  0  0  0  0  0
   67.8283   55.9453   32.2146 H   0  0  0  0  0  0  0  0  0  0  0  0
   68.0606   58.1686   33.3143 H   0  0  0  0  0  0  0  0  0  0  0  0
   67.4879   60.3621   33.4507 H   0  0  0  0  0  0  0  0  0  0  0  0
   66.2204   62.3500   32.6922 H   0  0  0  0  0  0  0  0  0  0  0  0
   64.6489   62.0728   30.7310 H   0  0  0  0  0  0  0  0  0  0  0  0
   64.4258   59.8885   29.6595 H   0  0  0  0  0  0  0  0  0  0  0  0
  1 18  1  0
  2  1  1  0
  3  4  1  0
  3  2  1  0
  4  5  1  0
  5  1  1  0
  5  6  1  0
  6  7  1  0
  7  8  2  0
  9  8  1  0
 10  9  1  0
 10 11  2  0
 12 10  1  0
 13 15  2  0
 13 12  1  0
 14 13  1  0
 15 16  1  0
 16  6  1  0
 16  9  2  0
 17 18  2  0
 17 22  1  0
 18 19  1  0
 19 20  2  0
 21 20  1  0
 21 23  1  0
 22 21  2  0
 23 24  2  0
 23 32  1  0
 24 25  1  0
 25 26  2  0
 27 26  1  0
 27 28  2  0
 29 28  1  0
 30 29  2  0
 31 32  2  0
 31 30  1  0
 32 27  1  0
  2 33  1  0
  2 34  1  0
  3 35  1  0
  3 36  1  0
  4 37  1  0
  4 38  1  0
  5 39  1  6
  7 40  1  0
 12 41  1  0
 14 42  1  0
 14 43  1  0
 17 44  1  0
 19 45  1  0
 24 46  1  0
 25 47  1  0
 26 48  1  0
 28 49  1  0
 29 50  1  0
 30 51  1  0
 31 52  1  0
M  END
>  <Score>  (1) 
-7.61686

$$$$
