
     RDKit          3D

 41 44  0  0  0  0  0  0  0  0999 V2000
   63.5240   56.9520   27.1440 C   0  0  0  0  0  0  0  0  0  0  0  0
   62.2090   57.4360   27.3630 C   0  0  0  0  0  0  0  0  0  0  0  0
   62.0030   58.1620   28.5350 C   0  0  0  0  0  0  0  0  0  0  0  0
   63.0240   58.3710   29.3860 N   0  0  0  0  0  0  0  0  0  0  0  0
   64.2620   57.8980   29.1480 C   0  0  0  0  0  0  0  0  0  0  0  0
   64.5130   57.1930   28.0370 N   0  0  0  0  0  0  0  0  0  0  0  0
   61.2890   57.0850   26.3110 C   0  0  0  0  0  0  0  0  0  0  0  0
   60.8680   55.7650   26.3050 C   0  0  0  0  0  0  0  0  0  0  0  0
   59.9980   55.2290   25.3920 C   0  0  0  0  0  0  0  0  0  0  0  0
   59.4950   56.0440   24.4020 C   0  0  0  0  0  0  0  0  0  0  0  0
   59.8870   57.3440   24.3800 C   0  0  0  0  0  0  0  0  0  0  0  0
   59.4360   58.2360   23.4260 C   0  0  0  0  0  0  0  0  0  0  0  0
   59.8280   59.5560   23.3940 C   0  0  0  0  0  0  0  0  0  0  0  0
   60.7090   60.0350   24.3430 C   0  0  0  0  0  0  0  0  0  0  0  0
   61.1890   59.1790   25.3200 C   0  0  0  0  0  0  0  0  0  0  0  0
   60.7620   57.8650   25.3040 C   0  0  0  0  0  0  0  0  0  0  0  0
   65.3270   58.1580   30.1130 C   0  0  0  0  0  0  0  0  0  0  0  0
   66.0220   57.0880   30.6640 C   0  0  0  0  0  0  0  0  0  0  0  0
   67.0340   57.3830   31.5830 C   0  0  0  0  0  0  0  0  0  0  0  0
   67.3470   58.6560   31.9420 N   0  0  0  0  0  0  0  0  0  0  0  0
   66.6350   59.6460   31.3710 C   0  0  0  0  0  0  0  0  0  0  0  0
   65.6370   59.4160   30.4690 N   0  0  0  0  0  0  0  0  0  0  0  0
   66.9310   60.9920   31.7200 N   0  0  0  0  0  0  0  0  0  0  0  0
   67.6300   61.8320   30.8390 C   0  0  0  0  0  0  0  0  0  0  0  0
   67.6080   61.6240   29.5770 N   0  0  0  0  0  0  0  0  0  0  0  0
   68.3590   62.9160   31.4040 N   0  0  0  0  0  0  0  0  0  0  0  0
   68.1360   62.2650   28.9570 H   0  0  0  0  0  0  0  0  0  0  0  0
   63.7438   56.3723   26.2353 H   0  0  0  0  0  0  0  0  0  0  0  0
   61.0052   58.5643   28.7642 H   0  0  0  0  0  0  0  0  0  0  0  0
   61.2600   55.1001   27.0888 H   0  0  0  0  0  0  0  0  0  0  0  0
   59.7073   54.1696   25.4485 H   0  0  0  0  0  0  0  0  0  0  0  0
   58.7947   55.6524   23.6495 H   0  0  0  0  0  0  0  0  0  0  0  0
   58.7339   57.8766   22.6593 H   0  0  0  0  0  0  0  0  0  0  0  0
   59.4399   60.2273   22.6138 H   0  0  0  0  0  0  0  0  0  0  0  0
   61.0270   61.0878   24.3232 H   0  0  0  0  0  0  0  0  0  0  0  0
   61.8912   59.5355   26.0880 H   0  0  0  0  0  0  0  0  0  0  0  0
   65.7854   56.0498   30.3881 H   0  0  0  0  0  0  0  0  0  0  0  0
   67.5984   56.5528   32.0326 H   0  0  0  0  0  0  0  0  0  0  0  0
   66.6276   61.3568   32.6342 H   0  0  0  0  0  0  0  0  0  0  0  0
   68.8857   63.5564   30.7930 H   0  0  0  0  0  0  0  0  0  0  0  0
   68.3598   63.0601   32.4239 H   0  0  0  0  0  0  0  0  0  0  0  0
  1  2  2  0
  1  6  1  0
  2  3  1  0
  3  4  2  0
  5  4  1  0
  5 17  1  0
  6  5  2  0
  7  2  1  0
  8  7  2  0
  9  8  1  0
 10  9  2  0
 11 10  1  0
 11 16  2  0
 12 11  1  0
 13 12  2  0
 13 14  1  0
 14 15  2  0
 16 15  1  0
 16  7  1  0
 17 22  1  0
 17 18  2  0
 18 19  1  0
 19 20  2  0
 21 23  1  0
 21 20  1  0
 22 21  2  0
 24 26  1  0
 24 23  1  0
 25 24  2  0
 27 25  1  0
  1 28  1  0
  3 29  1  0
  8 30  1  0
  9 31  1  0
 10 32  1  0
 12 33  1  0
 13 34  1  0
 14 35  1  0
 15 36  1  0
 18 37  1  0
 19 38  1  0
 23 39  1  0
 26 40  1  0
 26 41  1  0
M  END
>  <Score>  (1) 
-7.63338

$$$$
