
     RDKit          3D

 38 42  0  0  0  0  0  0  0  0999 V2000
   58.8430   55.4880   24.7770 C   0  0  0  0  0  0  0  0  0  0  0  0
   58.7930   54.1410   25.1160 C   0  0  0  0  0  0  0  0  0  0  0  0
   57.6970   53.3780   24.7330 C   0  0  0  0  0  0  0  0  0  0  0  0
   56.7000   54.0440   24.0140 C   0  0  0  0  0  0  0  0  0  0  0  0
   56.7630   55.3740   23.6860 C   0  0  0  0  0  0  0  0  0  0  0  0
   57.8560   56.0870   24.0810 N   0  0  0  0  0  0  0  0  0  0  0  0
   55.7410   56.0370   22.9540 N   0  0  0  0  0  0  0  0  0  0  0  0
   54.5090   55.5910   22.7170 C   0  0  0  0  0  0  0  0  0  0  0  0
   53.8040   56.4820   21.9870 N   0  0  0  0  0  0  0  0  0  0  0  0
   54.6150   57.5420   21.7470 C   0  0  0  0  0  0  0  0  0  0  0  0
   54.4270   58.7270   21.0630 C   0  0  0  0  0  0  0  0  0  0  0  0
   53.3420   59.0110   20.5030 O   0  0  0  0  0  0  0  0  0  0  0  0
   55.4160   59.6270   20.9730 N   0  0  0  0  0  0  0  0  0  0  0  0
   56.5980   59.3270   21.5780 C   0  0  0  0  0  0  0  0  0  0  0  0
   57.7630   60.1520   21.5940 N   0  0  0  0  0  0  0  0  0  0  0  0
   56.7750   58.1690   22.2450 N   0  0  0  0  0  0  0  0  0  0  0  0
   55.8120   57.2370   22.3600 C   0  0  0  0  0  0  0  0  0  0  0  0
   61.8390   56.9030   26.2160 C   0  0  0  0  0  0  0  0  0  0  0  0
   61.4910   57.8060   25.3120 N   0  0  0  0  0  0  0  0  0  0  0  0
   60.3960   57.3910   24.7160 O   0  0  0  0  0  0  0  0  0  0  0  0
   60.0120   56.2360   25.2030 C   0  0  0  0  0  0  0  0  0  0  0  0
   60.9130   55.9150   26.1500 N   0  0  0  0  0  0  0  0  0  0  0  0
   64.3210   57.1080   26.5850 C   0  0  0  0  0  0  0  0  0  0  0  0
   63.0110   57.0090   27.0860 C   0  0  0  0  0  0  0  0  0  0  0  0
   62.8370   57.0160   28.4650 C   0  0  0  0  0  0  0  0  0  0  0  0
   63.9220   57.1140   29.2600 N   0  0  0  0  0  0  0  0  0  0  0  0
   65.1830   57.2080   28.7570 C   0  0  0  0  0  0  0  0  0  0  0  0
   65.3790   57.2040   27.4010 N   0  0  0  0  0  0  0  0  0  0  0  0
   59.6158   53.6821   25.6838 H   0  0  0  0  0  0  0  0  0  0  0  0
   57.6181   52.3094   24.9816 H   0  0  0  0  0  0  0  0  0  0  0  0
   55.8176   53.4703   23.6942 H   0  0  0  0  0  0  0  0  0  0  0  0
   54.1175   54.6252   23.0690 H   0  0  0  0  0  0  0  0  0  0  0  0
   55.2865   60.5134   20.4646 H   0  0  0  0  0  0  0  0  0  0  0  0
   58.6126   59.8340   22.0819 H   0  0  0  0  0  0  0  0  0  0  0  0
   57.7539   61.0652   21.1177 H   0  0  0  0  0  0  0  0  0  0  0  0
   64.4810   57.1066   25.4967 H   0  0  0  0  0  0  0  0  0  0  0  0
   61.8298   56.9427   28.9012 H   0  0  0  0  0  0  0  0  0  0  0  0
   66.0433   57.2870   29.4379 H   0  0  0  0  0  0  0  0  0  0  0  0
  1  2  2  0
  1 21  1  0
  3  2  1  0
  4  3  2  0
  5  4  1  0
  5  6  2  0
  6  1  1  0
  7  5  1  0
  8  7  1  0
  9  8  2  0
 10  9  1  0
 10 17  2  0
 11 10  1  0
 12 11  2  0
 13 11  1  0
 13 14  1  0
 14 15  1  0
 14 16  2  0
 16 17  1  0
 17  7  1  0
 18 24  1  0
 19 18  2  0
 20 21  1  0
 20 19  1  0
 21 22  2  0
 22 18  1  0
 23 24  2  0
 23 28  1  0
 24 25  1  0
 25 26  2  0
 27 26  1  0
 28 27  2  0
  2 29  1  0
  3 30  1  0
  4 31  1  0
  8 32  1  0
 13 33  1  0
 15 34  1  0
 15 35  1  0
 23 36  1  0
 25 37  1  0
 27 38  1  0
M  END
>  <Score>  (1) 
-7.15513

$$$$
