
     RDKit          3D

 41 45  0  0  0  0  0  0  0  0999 V2000
   60.3150   58.6300   25.5070 C   0  0  0  0  0  0  0  0  0  0  0  0
   61.2030   59.2600   24.6390 C   0  0  0  0  0  0  0  0  0  0  0  0
   60.4690   60.0370   23.7310 C   0  0  0  0  0  0  0  0  0  0  0  0
   59.1470   59.8200   24.1190 C   0  0  0  0  0  0  0  0  0  0  0  0
   59.1330   59.0190   25.1240 O   0  0  0  0  0  0  0  0  0  0  0  0
   58.0190   60.4410   23.4400 C   0  0  0  0  0  0  0  0  0  0  0  0
   57.4330   60.0940   22.2360 C   0  0  0  0  0  0  0  0  0  0  0  0
   56.4260   60.9220   21.9760 N   0  0  0  0  0  0  0  0  0  0  0  0
   56.3090   61.8170   22.9630 C   0  0  0  0  0  0  0  0  0  0  0  0
   55.4170   62.8460   23.1090 C   0  0  0  0  0  0  0  0  0  0  0  0
   55.5440   63.6150   24.2530 C   0  0  0  0  0  0  0  0  0  0  0  0
   56.5030   63.4020   25.2320 C   0  0  0  0  0  0  0  0  0  0  0  0
   57.3680   62.3440   25.0140 C   0  0  0  0  0  0  0  0  0  0  0  0
   57.3030   61.5330   23.8960 C   0  0  0  0  0  0  0  0  0  0  0  0
   60.6480   57.7700   26.5550 O   0  0  0  0  0  0  0  0  0  0  0  0
   61.5790   56.7480   26.2630 C   0  0  0  0  0  0  0  0  0  0  0  0
   61.2680   55.7460   25.6030 O   0  0  0  0  0  0  0  0  0  0  0  0
   65.3150   56.9000   26.4230 C   0  0  0  0  0  0  0  0  0  0  0  0
   64.0070   56.7600   25.9120 C   0  0  0  0  0  0  0  0  0  0  0  0
   62.9360   56.8860   26.7550 C   0  0  0  0  0  0  0  0  0  0  0  0
   63.1690   57.1430   28.0570 N   0  0  0  0  0  0  0  0  0  0  0  0
   64.4430   57.2780   28.5380 C   0  0  0  0  0  0  0  0  0  0  0  0
   65.4950   57.1580   27.7330 N   0  0  0  0  0  0  0  0  0  0  0  0
   64.6390   57.5580   29.9700 C   0  0  0  0  0  0  0  0  0  0  0  0
   65.7770   57.2900   30.7030 C   0  0  0  0  0  0  0  0  0  0  0  0
   65.5470   57.7020   31.9840 N   0  0  0  0  0  0  0  0  0  0  0  0
   64.2990   58.2020   32.0060 C   0  0  0  0  0  0  0  0  0  0  0  0
   63.7320   58.1220   30.7890 N   0  0  0  0  0  0  0  0  0  0  0  0
   62.2986   59.1642   24.6617 H   0  0  0  0  0  0  0  0  0  0  0  0
   60.8452   60.6659   22.9107 H   0  0  0  0  0  0  0  0  0  0  0  0
   57.7514   59.2607   21.5924 H   0  0  0  0  0  0  0  0  0  0  0  0
   55.8259   60.8805   21.1399 H   0  0  0  0  0  0  0  0  0  0  0  0
   54.6407   63.0505   22.3570 H   0  0  0  0  0  0  0  0  0  0  0  0
   54.8396   64.4479   24.3946 H   0  0  0  0  0  0  0  0  0  0  0  0
   56.5719   64.0361   26.1282 H   0  0  0  0  0  0  0  0  0  0  0  0
   58.1442   62.1384   25.7659 H   0  0  0  0  0  0  0  0  0  0  0  0
   66.1832   56.7990   25.7551 H   0  0  0  0  0  0  0  0  0  0  0  0
   63.8492   56.5511   24.8436 H   0  0  0  0  0  0  0  0  0  0  0  0
   66.7009   56.8286   30.3242 H   0  0  0  0  0  0  0  0  0  0  0  0
   63.8086   58.6195   32.8977 H   0  0  0  0  0  0  0  0  0  0  0  0
   62.7842   58.4331   30.5326 H   0  0  0  0  0  0  0  0  0  0  0  0
  1 15  1  0
  2  1  2  0
  3  4  2  0
  3  2  1  0
  4  5  1  0
  5  1  1  0
  6 14  1  0
  6  4  1  0
  7  6  2  0
  8  7  1  0
  8  9  1  0
  9 10  2  0
  9 14  1  0
 10 11  1  0
 11 12  2  0
 13 12  1  0
 14 13  2  0
 16 15  1  0
 16 20  1  0
 17 16  2  0
 18 23  2  0
 19 18  1  0
 19 20  2  0
 20 21  1  0
 21 22  2  0
 22 24  1  0
 23 22  1  0
 24 25  2  0
 24 28  1  0
 25 26  1  0
 26 27  2  0
 28 27  1  0
  2 29  1  0
  3 30  1  0
  7 31  1  0
  8 32  1  0
 10 33  1  0
 11 34  1  0
 12 35  1  0
 13 36  1  0
 18 37  1  0
 19 38  1  0
 25 39  1  0
 27 40  1  0
 28 41  1  0
M  END
>  <Score>  (1) 
-7.14564

$$$$
