
     RDKit          3D

 48 53  0  0  0  0  0  0  0  0999 V2000
   63.4810   56.9370   27.0900 C   0  0  0  0  0  0  0  0  0  0  0  0
   62.1620   57.4210   27.3220 C   0  0  0  0  0  0  0  0  0  0  0  0
   61.9660   58.1410   28.5010 C   0  0  0  0  0  0  0  0  0  0  0  0
   62.9970   58.3400   29.3440 N   0  0  0  0  0  0  0  0  0  0  0  0
   64.2260   57.8720   29.0990 C   0  0  0  0  0  0  0  0  0  0  0  0
   64.4770   57.1750   27.9850 N   0  0  0  0  0  0  0  0  0  0  0  0
   65.2960   58.1290   30.0590 C   0  0  0  0  0  0  0  0  0  0  0  0
   66.1010   57.0820   30.4950 C   0  0  0  0  0  0  0  0  0  0  0  0
   67.1100   57.3670   31.4100 C   0  0  0  0  0  0  0  0  0  0  0  0
   67.3260   58.6170   31.8820 N   0  0  0  0  0  0  0  0  0  0  0  0
   66.5160   59.5900   31.4240 C   0  0  0  0  0  0  0  0  0  0  0  0
   65.5130   59.3670   30.5280 N   0  0  0  0  0  0  0  0  0  0  0  0
   66.5810   60.9800   31.8010 N   0  0  0  0  0  0  0  0  0  0  0  0
   66.4040   61.4980   33.0430 C   0  0  0  0  0  0  0  0  0  0  0  0
   66.5490   62.8490   32.9710 N   0  0  0  0  0  0  0  0  0  0  0  0
   66.8150   63.1660   31.6910 C   0  0  0  0  0  0  0  0  0  0  0  0
   67.0610   64.3320   30.9710 C   0  0  0  0  0  0  0  0  0  0  0  0
   67.0530   65.4360   31.6030 O   0  0  0  0  0  0  0  0  0  0  0  0
   67.3020   64.3120   29.6480 N   0  0  0  0  0  0  0  0  0  0  0  0
   67.3090   63.1400   28.9870 C   0  0  0  0  0  0  0  0  0  0  0  0
   67.5660   63.1300   27.5870 N   0  0  0  0  0  0  0  0  0  0  0  0
   67.0800   61.9530   29.6040 N   0  0  0  0  0  0  0  0  0  0  0  0
   66.8370   61.9840   30.9430 C   0  0  0  0  0  0  0  0  0  0  0  0
   61.2430   57.0730   26.2720 C   0  0  0  0  0  0  0  0  0  0  0  0
   60.8200   55.7550   26.2650 C   0  0  0  0  0  0  0  0  0  0  0  0
   59.9470   55.2200   25.3470 C   0  0  0  0  0  0  0  0  0  0  0  0
   59.4490   56.0410   24.3620 C   0  0  0  0  0  0  0  0  0  0  0  0
   59.8460   57.3390   24.3430 C   0  0  0  0  0  0  0  0  0  0  0  0
   59.3940   58.2310   23.3880 C   0  0  0  0  0  0  0  0  0  0  0  0
   59.7900   59.5540   23.3570 C   0  0  0  0  0  0  0  0  0  0  0  0
   60.6730   60.0320   24.3100 C   0  0  0  0  0  0  0  0  0  0  0  0
   61.1490   59.1710   25.2840 C   0  0  0  0  0  0  0  0  0  0  0  0
   60.7210   57.8680   25.2640 C   0  0  0  0  0  0  0  0  0  0  0  0
   63.6968   56.3639   26.1762 H   0  0  0  0  0  0  0  0  0  0  0  0
   60.9715   58.5451   28.7413 H   0  0  0  0  0  0  0  0  0  0  0  0
   65.9445   56.0573   30.1269 H   0  0  0  0  0  0  0  0  0  0  0  0
   67.7544   56.5479   31.7619 H   0  0  0  0  0  0  0  0  0  0  0  0
   66.1810   60.9229   33.9538 H   0  0  0  0  0  0  0  0  0  0  0  0
   67.4807   65.1913   29.1422 H   0  0  0  0  0  0  0  0  0  0  0  0
   67.7435   64.0143   27.0897 H   0  0  0  0  0  0  0  0  0  0  0  0
   67.5744   62.2384   27.0713 H   0  0  0  0  0  0  0  0  0  0  0  0
   61.2095   55.0888   27.0488 H   0  0  0  0  0  0  0  0  0  0  0  0
   59.6540   54.1610   25.3991 H   0  0  0  0  0  0  0  0  0  0  0  0
   58.7465   55.6553   23.6085 H   0  0  0  0  0  0  0  0  0  0  0  0
   58.6906   57.8726   22.6220 H   0  0  0  0  0  0  0  0  0  0  0  0
   59.4044   60.2265   22.5765 H   0  0  0  0  0  0  0  0  0  0  0  0
   60.9929   61.0843   24.2935 H   0  0  0  0  0  0  0  0  0  0  0  0
   61.8519   59.5226   26.0536 H   0  0  0  0  0  0  0  0  0  0  0  0
  1  2  2  0
  1  6  1  0
  2  3  1  0
  3  4  2  0
  5  4  1  0
  5  7  1  0
  6  5  2  0
  7  8  2  0
  7 12  1  0
  8  9  1  0
  9 10  2  0
 11 13  1  0
 11 10  1  0
 12 11  2  0
 13 14  1  0
 15 14  2  0
 16 15  1  0
 17 18  2  0
 17 16  1  0
 19 17  1  0
 20 22  2  0
 20 19  1  0
 21 20  1  0
 22 23  1  0
 23 16  2  0
 23 13  1  0
 24  2  1  0
 25 24  2  0
 26 25  1  0
 27 26  2  0
 28 27  1  0
 28 33  2  0
 29 28  1  0
 30 29  2  0
 30 31  1  0
 31 32  2  0
 33 32  1  0
 33 24  1  0
  1 34  1  0
  3 35  1  0
  8 36  1  0
  9 37  1  0
 14 38  1  0
 19 39  1  0
 21 40  1  0
 21 41  1  0
 25 42  1  0
 26 43  1  0
 27 44  1  0
 29 45  1  0
 30 46  1  0
 31 47  1  0
 32 48  1  0
M  END
>  <Score>  (1) 
-8.69593

$$$$
