
     RDKit          3D

 43 46  0  0  1  0  0  0  0  0999 V2000
   61.2300   56.6060   26.2100 N   0  0  0  0  0  0  0  0  0  0  0  0
   60.6400   55.3530   25.7930 C   0  0  0  0  0  0  0  0  0  0  0  0
   59.5160   55.7360   24.8760 C   0  0  0  0  0  0  0  0  0  0  0  0
   59.0620   57.0650   25.4640 C   0  0  0  0  0  0  0  0  0  0  0  0
   60.4230   57.6910   25.7100 C   0  0  1  0  0  0  0  0  0  0  0  0
   63.6420   57.1980   26.3900 C   0  0  0  0  0  0  0  0  0  0  0  0
   62.3920   56.7740   26.9720 C   0  0  0  0  0  0  0  0  0  0  0  0
   62.4080   56.5550   28.3370 C   0  0  0  0  0  0  0  0  0  0  0  0
   63.5430   56.7440   29.0420 N   0  0  0  0  0  0  0  0  0  0  0  0
   64.6690   57.1390   28.4570 C   0  0  0  0  0  0  0  0  0  0  0  0
   64.7420   57.3700   27.1380 N   0  0  0  0  0  0  0  0  0  0  0  0
   65.8820   57.3490   29.1730 N   0  0  0  0  0  0  0  0  0  0  0  0
   65.8180   57.7630   30.5280 C   0  0  0  0  0  0  0  0  0  0  0  0
   64.9260   57.3090   31.3290 N   0  0  0  0  0  0  0  0  0  0  0  0
   66.7610   58.7130   31.0690 N   0  0  0  0  0  0  0  0  0  0  0  0
   64.1810   56.6380   31.1420 H   0  0  0  0  0  0  0  0  0  0  0  0
   60.3980   58.8820   26.4520 N   0  0  0  0  0  0  0  0  0  0  0  0
   60.9510   59.1060   27.6520 C   0  0  0  0  0  0  0  0  0  0  0  0
   60.7200   60.3630   28.0150 N   0  0  0  0  0  0  0  0  0  0  0  0
   59.9920   60.9720   27.0250 C   0  0  0  0  0  0  0  0  0  0  0  0
   59.4880   62.2570   26.9830 C   0  0  0  0  0  0  0  0  0  0  0  0
   59.6940   63.0580   27.9110 O   0  0  0  0  0  0  0  0  0  0  0  0
   58.7720   62.5740   25.9060 N   0  0  0  0  0  0  0  0  0  0  0  0
   58.5500   61.6850   24.9080 C   0  0  0  0  0  0  0  0  0  0  0  0
   57.7570   62.0570   23.7870 N   0  0  0  0  0  0  0  0  0  0  0  0
   59.0620   60.4470   25.0010 N   0  0  0  0  0  0  0  0  0  0  0  0
   59.7980   60.0110   26.0380 C   0  0  0  0  0  0  0  0  0  0  0  0
   61.3793   54.7362   25.2610 H   0  0  0  0  0  0  0  0  0  0  0  0
   60.2889   54.7578   26.6489 H   0  0  0  0  0  0  0  0  0  0  0  0
   58.7074   54.9907   24.9028 H   0  0  0  0  0  0  0  0  0  0  0  0
   59.8102   55.7981   23.8179 H   0  0  0  0  0  0  0  0  0  0  0  0
   58.4621   57.6487   24.7503 H   0  0  0  0  0  0  0  0  0  0  0  0
   58.4069   56.9943   26.3448 H   0  0  0  0  0  0  0  0  0  0  0  0
   60.8780   58.0969   24.7944 H   0  0  0  0  0  0  0  0  0  0  0  0
   63.6943   57.3847   25.3072 H   0  0  0  0  0  0  0  0  0  0  0  0
   61.4924   56.2256   28.8501 H   0  0  0  0  0  0  0  0  0  0  0  0
   66.7922   57.2024   28.7137 H   0  0  0  0  0  0  0  0  0  0  0  0
   66.6950   58.9990   32.0563 H   0  0  0  0  0  0  0  0  0  0  0  0
   67.4998   59.1048   30.4677 H   0  0  0  0  0  0  0  0  0  0  0  0
   61.5088   58.3652   28.2437 H   0  0  0  0  0  0  0  0  0  0  0  0
   58.3758   63.5217   25.8295 H   0  0  0  0  0  0  0  0  0  0  0  0
   57.3684   63.0088   23.7242 H   0  0  0  0  0  0  0  0  0  0  0  0
   57.5714   61.3745   23.0382 H   0  0  0  0  0  0  0  0  0  0  0  0
  1  7  1  0
  2  1  1  0
  3  4  1  0
  3  2  1  0
  4  5  1  0
  5  1  1  0
  5 17  1  0
  6  7  2  0
  6 11  1  0
  7  8  1  0
  8  9  2  0
 10  9  1  0
 10 12  1  0
 11 10  2  0
 12 13  1  0
 13 15  1  0
 13 14  2  0
 16 14  1  0
 17 18  1  0
 18 19  2  0
 20 19  1  0
 21 20  1  0
 21 22  2  0
 23 21  1  0
 24 26  2  0
 24 23  1  0
 25 24  1  0
 26 27  1  0
 27 17  1  0
 27 20  2  0
  2 28  1  0
  2 29  1  0
  3 30  1  0
  3 31  1  0
  4 32  1  0
  4 33  1  0
  5 34  1  6
  6 35  1  0
  8 36  1  0
 12 37  1  0
 15 38  1  0
 15 39  1  0
 18 40  1  0
 23 41  1  0
 25 42  1  0
 25 43  1  0
M  END
>  <Score>  (1) 
-7.47799

$$$$
