
     RDKit          3D

 43 47  0  0  0  0  0  0  0  0999 V2000
   63.5220   56.9640   27.1350 C   0  0  0  0  0  0  0  0  0  0  0  0
   62.2010   57.4420   27.3560 C   0  0  0  0  0  0  0  0  0  0  0  0
   61.9960   58.1660   28.5300 C   0  0  0  0  0  0  0  0  0  0  0  0
   63.0180   58.3760   29.3780 N   0  0  0  0  0  0  0  0  0  0  0  0
   64.2520   57.9160   29.1490 C   0  0  0  0  0  0  0  0  0  0  0  0
   64.5130   57.2060   28.0260 N   0  0  0  0  0  0  0  0  0  0  0  0
   61.2820   57.0870   26.3040 C   0  0  0  0  0  0  0  0  0  0  0  0
   60.8670   55.7630   26.3060 C   0  0  0  0  0  0  0  0  0  0  0  0
   59.9970   55.2210   25.3910 C   0  0  0  0  0  0  0  0  0  0  0  0
   59.4950   56.0390   24.4020 C   0  0  0  0  0  0  0  0  0  0  0  0
   59.8820   57.3360   24.3770 C   0  0  0  0  0  0  0  0  0  0  0  0
   59.4270   58.2230   23.4210 C   0  0  0  0  0  0  0  0  0  0  0  0
   59.8160   59.5480   23.3840 C   0  0  0  0  0  0  0  0  0  0  0  0
   60.6960   60.0330   24.3330 C   0  0  0  0  0  0  0  0  0  0  0  0
   61.1780   59.1810   25.3110 C   0  0  0  0  0  0  0  0  0  0  0  0
   60.7540   57.8670   25.2950 C   0  0  0  0  0  0  0  0  0  0  0  0
   65.3180   58.1750   30.1060 C   0  0  0  0  0  0  0  0  0  0  0  0
   66.0430   57.1150   30.6370 C   0  0  0  0  0  0  0  0  0  0  0  0
   67.0550   57.4050   31.5500 C   0  0  0  0  0  0  0  0  0  0  0  0
   67.3420   58.6770   31.9240 N   0  0  0  0  0  0  0  0  0  0  0  0
   66.6120   59.6440   31.3790 C   0  0  0  0  0  0  0  0  0  0  0  0
   65.6080   59.4340   30.4800 N   0  0  0  0  0  0  0  0  0  0  0  0
   66.8830   61.0300   31.7500 C   0  0  0  0  0  0  0  0  0  0  0  0
   67.8090   61.8110   31.0910 C   0  0  0  0  0  0  0  0  0  0  0  0
   68.0890   63.1140   31.4110 C   0  0  0  0  0  0  0  0  0  0  0  0
   67.3800   63.6730   32.4800 C   0  0  0  0  0  0  0  0  0  0  0  0
   66.4440   62.8840   33.1460 C   0  0  0  0  0  0  0  0  0  0  0  0
   66.2310   61.6170   32.7690 N   0  0  0  0  0  0  0  0  0  0  0  0
   63.7428   56.3876   26.2245 H   0  0  0  0  0  0  0  0  0  0  0  0
   60.9978   58.5655   28.7624 H   0  0  0  0  0  0  0  0  0  0  0  0
   61.2609   55.1030   27.0929 H   0  0  0  0  0  0  0  0  0  0  0  0
   59.7085   54.1610   25.4465 H   0  0  0  0  0  0  0  0  0  0  0  0
   58.7952   55.6466   23.6494 H   0  0  0  0  0  0  0  0  0  0  0  0
   58.7249   57.8588   22.6565 H   0  0  0  0  0  0  0  0  0  0  0  0
   59.4264   60.2154   22.6012 H   0  0  0  0  0  0  0  0  0  0  0  0
   61.0104   61.0869   24.3110 H   0  0  0  0  0  0  0  0  0  0  0  0
   61.8788   59.5401   26.0791 H   0  0  0  0  0  0  0  0  0  0  0  0
   65.8244   56.0772   30.3451 H   0  0  0  0  0  0  0  0  0  0  0  0
   67.6386   56.5778   31.9803 H   0  0  0  0  0  0  0  0  0  0  0  0
   68.3594   61.3583   30.2531 H   0  0  0  0  0  0  0  0  0  0  0  0
   68.8379   63.6945   30.8522 H   0  0  0  0  0  0  0  0  0  0  0  0
   67.5578   64.7138   32.7884 H   0  0  0  0  0  0  0  0  0  0  0  0
   65.8756   63.3055   33.9882 H   0  0  0  0  0  0  0  0  0  0  0  0
  1  2  2  0
  1  6  1  0
  2  3  1  0
  3  4  2  0
  5  4  1  0
  5 17  1  0
  6  5  2  0
  7  8  2  0
  7  2  1  0
  9  8  1  0
 10  9  2  0
 11 10  1  0
 11 16  2  0
 12 11  1  0
 13 12  2  0
 13 14  1  0
 14 15  2  0
 16 15  1  0
 16  7  1  0
 17 22  1  0
 17 18  2  0
 18 19  1  0
 19 20  2  0
 21 23  1  0
 21 20  1  0
 22 21  2  0
 23 28  2  0
 24 25  2  0
 24 23  1  0
 25 26  1  0
 26 27  2  0
 28 27  1  0
  1 29  1  0
  3 30  1  0
  8 31  1  0
  9 32  1  0
 10 33  1  0
 12 34  1  0
 13 35  1  0
 14 36  1  0
 15 37  1  0
 18 38  1  0
 19 39  1  0
 24 40  1  0
 25 41  1  0
 26 42  1  0
 27 43  1  0
M  END
>  <Score>  (1) 
-7.09921

$$$$
