
     RDKit          3D

 48 53  0  0  0  0  0  0  0  0999 V2000
   63.4920   56.9750   27.0950 C   0  0  0  0  0  0  0  0  0  0  0  0
   62.1730   57.4580   27.3260 C   0  0  0  0  0  0  0  0  0  0  0  0
   61.9550   58.1820   28.4980 C   0  0  0  0  0  0  0  0  0  0  0  0
   62.9810   58.3870   29.3420 N   0  0  0  0  0  0  0  0  0  0  0  0
   64.2290   57.9170   29.1000 C   0  0  0  0  0  0  0  0  0  0  0  0
   64.4770   57.2180   27.9860 N   0  0  0  0  0  0  0  0  0  0  0  0
   61.2510   57.1010   26.2710 C   0  0  0  0  0  0  0  0  0  0  0  0
   60.8380   55.7700   26.2850 C   0  0  0  0  0  0  0  0  0  0  0  0
   59.9680   55.2230   25.3740 C   0  0  0  0  0  0  0  0  0  0  0  0
   59.4630   56.0190   24.3870 C   0  0  0  0  0  0  0  0  0  0  0  0
   59.8430   57.3230   24.3440 C   0  0  0  0  0  0  0  0  0  0  0  0
   59.3850   58.2060   23.3820 C   0  0  0  0  0  0  0  0  0  0  0  0
   59.7740   59.5320   23.3410 C   0  0  0  0  0  0  0  0  0  0  0  0
   60.6530   60.0160   24.2870 C   0  0  0  0  0  0  0  0  0  0  0  0
   61.1400   59.1810   25.2670 C   0  0  0  0  0  0  0  0  0  0  0  0
   60.7200   57.8800   25.2580 C   0  0  0  0  0  0  0  0  0  0  0  0
   65.3020   58.1700   30.0570 C   0  0  0  0  0  0  0  0  0  0  0  0
   66.1300   57.1700   30.4770 C   0  0  0  0  0  0  0  0  0  0  0  0
   67.1240   57.4970   31.3890 C   0  0  0  0  0  0  0  0  0  0  0  0
   67.3040   58.7390   31.8700 N   0  0  0  0  0  0  0  0  0  0  0  0
   66.4720   59.7010   31.4370 C   0  0  0  0  0  0  0  0  0  0  0  0
   65.5010   59.3950   30.5490 N   0  0  0  0  0  0  0  0  0  0  0  0
   66.4010   61.1450   31.7570 C   0  0  0  0  0  0  0  0  0  0  0  0
   66.2280   61.6530   33.0020 N   0  0  0  0  0  0  0  0  0  0  0  0
   66.1640   62.9560   33.2780 C   0  0  0  0  0  0  0  0  0  0  0  0
   66.2660   63.9020   32.3340 N   0  0  0  0  0  0  0  0  0  0  0  0
   66.4400   63.4880   31.0690 C   0  0  0  0  0  0  0  0  0  0  0  0
   66.5430   64.4530   30.1060 C   0  0  0  0  0  0  0  0  0  0  0  0
   66.7210   64.1060   28.7840 C   0  0  0  0  0  0  0  0  0  0  0  0
   66.7900   62.7410   28.4840 C   0  0  0  0  0  0  0  0  0  0  0  0
   66.6780   61.8190   29.5020 C   0  0  0  0  0  0  0  0  0  0  0  0
   66.5020   62.1400   30.8140 C   0  0  0  0  0  0  0  0  0  0  0  0
   63.7105   56.3993   26.1835 H   0  0  0  0  0  0  0  0  0  0  0  0
   60.9560   58.5803   28.7288 H   0  0  0  0  0  0  0  0  0  0  0  0
   61.2340   55.1161   27.0759 H   0  0  0  0  0  0  0  0  0  0  0  0
   59.6833   54.1625   25.4386 H   0  0  0  0  0  0  0  0  0  0  0  0
   58.7629   55.6134   23.6418 H   0  0  0  0  0  0  0  0  0  0  0  0
   58.6831   57.8380   22.6192 H   0  0  0  0  0  0  0  0  0  0  0  0
   59.3841   60.1981   22.5572 H   0  0  0  0  0  0  0  0  0  0  0  0
   60.9653   61.0704   24.2584 H   0  0  0  0  0  0  0  0  0  0  0  0
   61.8422   59.5475   26.0303 H   0  0  0  0  0  0  0  0  0  0  0  0
   66.0139   56.1410   30.1059 H   0  0  0  0  0  0  0  0  0  0  0  0
   67.7981   56.6998   31.7354 H   0  0  0  0  0  0  0  0  0  0  0  0
   66.0216   63.2673   34.3234 H   0  0  0  0  0  0  0  0  0  0  0  0
   66.4834   65.5145   30.3884 H   0  0  0  0  0  0  0  0  0  0  0  0
   66.8053   64.8704   27.9975 H   0  0  0  0  0  0  0  0  0  0  0  0
   66.9323   62.4072   27.4456 H   0  0  0  0  0  0  0  0  0  0  0  0
   66.7345   60.7528   29.2375 H   0  0  0  0  0  0  0  0  0  0  0  0
  1  2  2  0
  1  6  1  0
  2  3  1  0
  3  4  2  0
  5  4  1  0
  5 17  1  0
  6  5  2  0
  7  8  2  0
  7  2  1  0
  9  8  1  0
 10  9  2  0
 11 10  1  0
 11 16  2  0
 12 11  1  0
 13 12  2  0
 13 14  1  0
 14 15  2  0
 16 15  1  0
 16  7  1  0
 17 18  2  0
 17 22  1  0
 18 19  1  0
 19 20  2  0
 21 23  1  0
 21 20  1  0
 22 21  2  0
 23 24  2  0
 24 25  1  0
 26 25  2  0
 27 26  1  0
 28 27  2  0
 29 28  1  0
 30 29  2  0
 30 31  1  0
 31 32  2  0
 32 27  1  0
 32 23  1  0
  1 33  1  0
  3 34  1  0
  8 35  1  0
  9 36  1  0
 10 37  1  0
 12 38  1  0
 13 39  1  0
 14 40  1  0
 15 41  1  0
 18 42  1  0
 19 43  1  0
 25 44  1  0
 28 45  1  0
 29 46  1  0
 30 47  1  0
 31 48  1  0
M  END
>  <Score>  (1) 
-8.21284

$$$$
