
     RDKit          3D

 47 50  0  0  0  0  0  0  0  0999 V2000
   65.3010   56.7180   25.9740 C   0  0  0  0  0  0  0  0  0  0  0  0
   63.9690   56.6900   25.4820 C   0  0  0  0  0  0  0  0  0  0  0  0
   62.9280   56.9190   26.3540 C   0  0  0  0  0  0  0  0  0  0  0  0
   63.2180   57.1660   27.6660 N   0  0  0  0  0  0  0  0  0  0  0  0
   64.4920   57.1860   28.0940 C   0  0  0  0  0  0  0  0  0  0  0  0
   65.5390   56.9700   27.2920 N   0  0  0  0  0  0  0  0  0  0  0  0
   64.7200   57.4680   29.5350 C   0  0  0  0  0  0  0  0  0  0  0  0
   63.8720   58.0560   30.4210 C   0  0  0  0  0  0  0  0  0  0  0  0
   64.3240   58.2070   31.7010 C   0  0  0  0  0  0  0  0  0  0  0  0
   65.5920   57.7540   31.9830 C   0  0  0  0  0  0  0  0  0  0  0  0
   66.1580   57.1160   30.4630 S   0  0  0  0  0  0  0  0  0  0  0  0
   66.3230   57.7710   33.1810 N   0  0  0  0  0  0  0  0  0  0  0  0
   67.5400   57.1410   33.3300 C   0  0  0  0  0  0  0  0  0  0  0  0
   67.7940   56.0040   32.7650 N   0  0  0  0  0  0  0  0  0  0  0  0
   68.5360   57.7930   34.1420 N   0  0  0  0  0  0  0  0  0  0  0  0
   67.1190   55.5060   32.2010 H   0  0  0  0  0  0  0  0  0  0  0  0
   61.5590   56.8950   25.8880 C   0  0  0  0  0  0  0  0  0  0  0  0
   60.7050   55.8260   25.9550 C   0  0  0  0  0  0  0  0  0  0  0  0
   59.5080   56.2810   25.3810 C   0  0  0  0  0  0  0  0  0  0  0  0
   59.7060   57.5910   25.0040 C   0  0  0  0  0  0  0  0  0  0  0  0
   60.9360   57.8680   25.3390 O   0  0  0  0  0  0  0  0  0  0  0  0
   58.8900   58.5480   24.3930 N   0  0  0  0  0  0  0  0  0  0  0  0
   59.0830   58.7040   23.0430 C   0  0  0  0  0  0  0  0  0  0  0  0
   58.2390   59.6810   22.5880 C   0  0  0  0  0  0  0  0  0  0  0  0
   57.5320   60.1130   23.6810 N   0  0  0  0  0  0  0  0  0  0  0  0
   57.9530   59.4080   24.7390 C   0  0  0  0  0  0  0  0  0  0  0  0
   57.4780   59.5680   26.1270 C   0  0  0  0  0  0  0  0  0  0  0  0
   56.7940   58.2560   26.5510 C   0  0  0  0  0  0  0  0  0  0  0  0
   58.6640   59.6960   27.0960 C   0  0  0  0  0  0  0  0  0  0  0  0
   66.1426   56.5358   25.2896 H   0  0  0  0  0  0  0  0  0  0  0  0
   63.7715   56.4881   24.4189 H   0  0  0  0  0  0  0  0  0  0  0  0
   62.8692   58.3941   30.1208 H   0  0  0  0  0  0  0  0  0  0  0  0
   63.6983   58.6729   32.4765 H   0  0  0  0  0  0  0  0  0  0  0  0
   65.9314   58.2784   33.9873 H   0  0  0  0  0  0  0  0  0  0  0  0
   69.4579   57.3541   34.2775 H   0  0  0  0  0  0  0  0  0  0  0  0
   68.3260   58.6979   34.5869 H   0  0  0  0  0  0  0  0  0  0  0  0
   60.9124   54.8281   26.3687 H   0  0  0  0  0  0  0  0  0  0  0  0
   58.5829   55.6993   25.2554 H   0  0  0  0  0  0  0  0  0  0  0  0
   59.7979   58.1374   22.4282 H   0  0  0  0  0  0  0  0  0  0  0  0
   58.1465   60.0459   21.5544 H   0  0  0  0  0  0  0  0  0  0  0  0
   56.8241   60.4519   26.1618 H   0  0  0  0  0  0  0  0  0  0  0  0
   56.7631   58.1968   27.6490 H   0  0  0  0  0  0  0  0  0  0  0  0
   55.7686   58.2320   26.1535 H   0  0  0  0  0  0  0  0  0  0  0  0
   57.3614   57.4016   26.1535 H   0  0  0  0  0  0  0  0  0  0  0  0
   58.2968   59.6564   28.1322 H   0  0  0  0  0  0  0  0  0  0  0  0
   59.3684   58.8687   26.9247 H   0  0  0  0  0  0  0  0  0  0  0  0
   59.1756   60.6546   26.9247 H   0  0  0  0  0  0  0  0  0  0  0  0
  1  6  2  0
  2  1  1  0
  2  3  2  0
  3  4  1  0
  4  5  2  0
  5  7  1  0
  6  5  1  0
  7  8  2  0
  7 11  1  0
  8  9  1  0
  9 10  2  0
 10 12  1  0
 11 10  1  0
 12 13  1  0
 13 15  1  0
 14 13  2  0
 16 14  1  0
 17 18  2  0
 17  3  1  0
 19 18  1  0
 20 21  1  0
 20 19  2  0
 21 17  1  0
 22 26  1  0
 22 20  1  0
 23 22  1  0
 24 23  2  0
 24 25  1  0
 25 26  2  0
 26 27  1  0
 27 28  1  0
 27 29  1  0
  1 30  1  0
  2 31  1  0
  8 32  1  0
  9 33  1  0
 12 34  1  0
 15 35  1  0
 15 36  1  0
 18 37  1  0
 19 38  1  0
 23 39  1  0
 24 40  1  0
 27 41  1  0
 28 42  1  0
 28 43  1  0
 28 44  1  0
 29 45  1  0
 29 46  1  0
 29 47  1  0
M  END
>  <Score>  (1) 
-7.05726

$$$$
