
     RDKit          3D

 36 38  0  0  0  0  0  0  0  0999 V2000
   60.9320   58.2260   25.4070 C   0  0  0  0  0  0  0  0  0  0  0  0
   61.0290   59.5280   24.7030 C   0  0  0  0  0  0  0  0  0  0  0  0
   59.5900   59.5230   23.6590 S   0  0  0  0  0  0  0  0  0  0  0  0
   59.0530   57.8250   24.2810 C   0  0  0  0  0  0  0  0  0  0  0  0
   59.8760   57.5890   25.0190 N   0  0  0  0  0  0  0  0  0  0  0  0
   57.8800   56.8670   23.9970 N   0  0  0  0  0  0  0  0  0  0  0  0
   57.8280   55.8670   24.8660 C   0  0  0  0  0  0  0  0  0  0  0  0
   56.8090   54.9650   24.6820 C   0  0  0  0  0  0  0  0  0  0  0  0
   55.9390   55.1640   23.6330 C   0  0  0  0  0  0  0  0  0  0  0  0
   54.9870   54.3720   23.4130 O   0  0  0  0  0  0  0  0  0  0  0  0
   56.1030   56.2380   22.8080 N   0  0  0  0  0  0  0  0  0  0  0  0
   57.0980   57.1360   22.9700 C   0  0  0  0  0  0  0  0  0  0  0  0
   57.2480   58.1130   22.2220 O   0  0  0  0  0  0  0  0  0  0  0  0
   63.1900   57.3970   25.8980 C   0  0  0  0  0  0  0  0  0  0  0  0
   61.9670   57.8730   26.3700 C   0  0  0  0  0  0  0  0  0  0  0  0
   61.8020   57.9860   27.7430 C   0  0  0  0  0  0  0  0  0  0  0  0
   62.8370   57.6280   28.5550 N   0  0  0  0  0  0  0  0  0  0  0  0
   64.0250   57.1640   28.0500 C   0  0  0  0  0  0  0  0  0  0  0  0
   64.1850   57.0540   26.7100 N   0  0  0  0  0  0  0  0  0  0  0  0
   65.0630   56.8090   28.9550 N   0  0  0  0  0  0  0  0  0  0  0  0
   64.9620   57.2410   30.2990 C   0  0  0  0  0  0  0  0  0  0  0  0
   63.9690   57.9210   30.7470 N   0  0  0  0  0  0  0  0  0  0  0  0
   66.0610   56.8590   31.1270 N   0  0  0  0  0  0  0  0  0  0  0  0
   63.9860   58.1930   31.7540 H   0  0  0  0  0  0  0  0  0  0  0  0
   56.5700   53.7850   25.5320 C   0  0  0  0  0  0  0  0  0  0  0  0
   61.8011   60.3052   24.8024 H   0  0  0  0  0  0  0  0  0  0  0  0
   58.5564   55.7661   25.6841 H   0  0  0  0  0  0  0  0  0  0  0  0
   55.4409   56.3691   22.0300 H   0  0  0  0  0  0  0  0  0  0  0  0
   63.3369   57.3017   24.8120 H   0  0  0  0  0  0  0  0  0  0  0  0
   60.8570   58.3563   28.1670 H   0  0  0  0  0  0  0  0  0  0  0  0
   65.8692   56.2507   28.6398 H   0  0  0  0  0  0  0  0  0  0  0  0
   66.0752   57.1289   32.1209 H   0  0  0  0  0  0  0  0  0  0  0  0
   66.8395   56.3136   30.7303 H   0  0  0  0  0  0  0  0  0  0  0  0
   56.6293   54.0777   26.5907 H   0  0  0  0  0  0  0  0  0  0  0  0
   55.5709   53.3766   25.3199 H   0  0  0  0  0  0  0  0  0  0  0  0
   57.3314   53.0200   25.3199 H   0  0  0  0  0  0  0  0  0  0  0  0
  1 15  1  0
  2  1  2  0
  3  4  1  0
  3  2  1  0
  4  5  2  0
  5  1  1  0
  6  4  1  0
  6  7  1  0
  8  7  2  0
  8 25  1  0
  9  8  1  0
 10  9  2  0
 11 12  1  0
 11  9  1  0
 12  6  1  0
 13 12  2  0
 14 15  2  0
 14 19  1  0
 15 16  1  0
 16 17  2  0
 18 17  1  0
 18 20  1  0
 19 18  2  0
 20 21  1  0
 21 22  2  0
 21 23  1  0
 22 24  1  0
  2 26  1  0
  7 27  1  0
 11 28  1  0
 14 29  1  0
 16 30  1  0
 20 31  1  0
 23 32  1  0
 23 33  1  0
 25 34  1  0
 25 35  1  0
 25 36  1  0
M  END
>  <Score>  (1) 
-7.32252

$$$$
