
     RDKit          3D

 40 44  0  0  0  0  0  0  0  0999 V2000
   63.5110   56.8670   27.1050 C   0  0  0  0  0  0  0  0  0  0  0  0
   62.2270   57.3920   27.3330 C   0  0  0  0  0  0  0  0  0  0  0  0
   62.0380   58.1210   28.5190 C   0  0  0  0  0  0  0  0  0  0  0  0
   63.0850   58.2660   29.3450 N   0  0  0  0  0  0  0  0  0  0  0  0
   64.2980   57.7610   29.1170 C   0  0  0  0  0  0  0  0  0  0  0  0
   64.5250   57.0510   27.9860 N   0  0  0  0  0  0  0  0  0  0  0  0
   65.3520   57.9660   30.0570 N   0  0  0  0  0  0  0  0  0  0  0  0
   66.2820   57.0800   30.4510 C   0  0  0  0  0  0  0  0  0  0  0  0
   67.0970   57.6800   31.3570 N   0  0  0  0  0  0  0  0  0  0  0  0
   66.6550   58.9410   31.5130 C   0  0  0  0  0  0  0  0  0  0  0  0
   67.0720   60.0060   32.2880 C   0  0  0  0  0  0  0  0  0  0  0  0
   68.0780   59.8040   33.0220 O   0  0  0  0  0  0  0  0  0  0  0  0
   66.4840   61.2190   32.3060 N   0  0  0  0  0  0  0  0  0  0  0  0
   65.4220   61.3350   31.4900 C   0  0  0  0  0  0  0  0  0  0  0  0
   64.7210   62.5540   31.4210 N   0  0  0  0  0  0  0  0  0  0  0  0
   64.9330   60.3510   30.6910 N   0  0  0  0  0  0  0  0  0  0  0  0
   65.5520   59.1350   30.6970 C   0  0  0  0  0  0  0  0  0  0  0  0
   61.2870   57.0730   26.2760 C   0  0  0  0  0  0  0  0  0  0  0  0
   60.8380   55.7380   26.2670 C   0  0  0  0  0  0  0  0  0  0  0  0
   59.9470   55.2290   25.3580 C   0  0  0  0  0  0  0  0  0  0  0  0
   59.4550   56.0660   24.3880 C   0  0  0  0  0  0  0  0  0  0  0  0
   59.8730   57.3670   24.3730 C   0  0  0  0  0  0  0  0  0  0  0  0
   59.4260   58.2700   23.4300 C   0  0  0  0  0  0  0  0  0  0  0  0
   59.8460   59.5820   23.4060 C   0  0  0  0  0  0  0  0  0  0  0  0
   60.7510   60.0370   24.3560 C   0  0  0  0  0  0  0  0  0  0  0  0
   61.2140   59.1560   25.3120 C   0  0  0  0  0  0  0  0  0  0  0  0
   60.7640   57.8600   25.2890 C   0  0  0  0  0  0  0  0  0  0  0  0
   63.6981   56.2911   26.1867 H   0  0  0  0  0  0  0  0  0  0  0  0
   61.0596   58.5603   28.7633 H   0  0  0  0  0  0  0  0  0  0  0  0
   66.3689   56.0416   30.0986 H   0  0  0  0  0  0  0  0  0  0  0  0
   66.8207   61.9930   32.8963 H   0  0  0  0  0  0  0  0  0  0  0  0
   63.9070   62.6453   30.7965 H   0  0  0  0  0  0  0  0  0  0  0  0
   65.0222   63.3545   31.9950 H   0  0  0  0  0  0  0  0  0  0  0  0
   61.2278   55.0594   27.0400 H   0  0  0  0  0  0  0  0  0  0  0  0
   59.6340   54.1755   25.4049 H   0  0  0  0  0  0  0  0  0  0  0  0
   58.7393   55.6974   23.6384 H   0  0  0  0  0  0  0  0  0  0  0  0
   58.7079   57.9297   22.6694 H   0  0  0  0  0  0  0  0  0  0  0  0
   59.4650   60.2682   22.6353 H   0  0  0  0  0  0  0  0  0  0  0  0
   61.0932   61.0824   24.3466 H   0  0  0  0  0  0  0  0  0  0  0  0
   61.9306   59.4866   26.0783 H   0  0  0  0  0  0  0  0  0  0  0  0
  1  2  2  0
  1  6  1  0
  2  3  1  0
  3  4  2  0
  5  4  1  0
  5  7  1  0
  6  5  2  0
  7  8  1  0
  7 17  1  0
  8  9  2  0
  9 10  1  0
 10 11  1  0
 11 13  1  0
 11 12  2  0
 14 13  1  0
 15 14  1  0
 16 17  1  0
 16 14  2  0
 17 10  2  0
 18  2  1  0
 19 18  2  0
 20 19  1  0
 21 20  2  0
 22 21  1  0
 22 27  2  0
 23 22  1  0
 24 23  2  0
 24 25  1  0
 25 26  2  0
 27 26  1  0
 27 18  1  0
  1 28  1  0
  3 29  1  0
  8 30  1  0
 13 31  1  0
 15 32  1  0
 15 33  1  0
 19 34  1  0
 20 35  1  0
 21 36  1  0
 23 37  1  0
 24 38  1  0
 25 39  1  0
 26 40  1  0
M  END
>  <Score>  (1) 
-8.19002

$$$$
