
     RDKit          3D

 56 59  0  0  1  0  0  0  0  0999 V2000
   60.8140   60.1810   24.4760 N   0  0  0  0  0  0  0  0  0  0  0  0
   59.9100   59.6080   23.6520 C   0  0  0  0  0  0  0  0  0  0  0  0
   59.6120   58.1770   24.0400 C   0  0  0  0  0  0  0  0  0  0  0  0
   59.4210   57.9430   25.4890 C   0  0  2  0  0  0  0  0  0  0  0  0
   60.3460   58.7050   26.3360 C   0  0  0  0  0  0  0  0  0  0  0  0
   60.5360   60.1220   25.8630 C   0  0  2  0  0  0  0  0  0  0  0  0
   59.6340   56.5270   25.7070 N   0  0  0  0  0  0  0  0  0  0  0  0
   60.8200   55.9870   25.2980 C   0  0  0  0  0  0  0  0  0  0  0  0
   61.5730   55.4680   26.4930 C   0  0  0  0  0  0  0  0  0  0  0  0
   65.0590   56.7720   26.0480 C   0  0  0  0  0  0  0  0  0  0  0  0
   63.8180   56.1460   25.8200 C   0  0  0  0  0  0  0  0  0  0  0  0
   62.8530   56.1340   26.7920 C   0  0  0  0  0  0  0  0  0  0  0  0
   63.1420   56.7350   27.9560 N   0  0  0  0  0  0  0  0  0  0  0  0
   64.3140   57.3320   28.1890 C   0  0  0  0  0  0  0  0  0  0  0  0
   65.2700   57.3520   27.2410 N   0  0  0  0  0  0  0  0  0  0  0  0
   64.4070   57.9060   29.4890 N   0  0  0  0  0  0  0  0  0  0  0  0
   63.5780   58.8980   29.8780 C   0  0  0  0  0  0  0  0  0  0  0  0
   63.9360   59.2000   31.1380 N   0  0  0  0  0  0  0  0  0  0  0  0
   64.9490   58.4230   31.5180 C   0  0  0  0  0  0  0  0  0  0  0  0
   65.7190   58.2680   32.6590 C   0  0  0  0  0  0  0  0  0  0  0  0
   66.6890   57.3550   32.6880 N   0  0  0  0  0  0  0  0  0  0  0  0
   67.0030   56.5360   31.6720 C   0  0  0  0  0  0  0  0  0  0  0  0
   66.2610   56.6780   30.5580 N   0  0  0  0  0  0  0  0  0  0  0  0
   65.2600   57.5960   30.4820 C   0  0  0  0  0  0  0  0  0  0  0  0
   59.5490   61.1040   26.3950 C   0  0  0  0  0  0  0  0  0  0  0  0
   60.0550   62.1200   27.3600 C   0  0  0  0  0  0  0  0  0  0  0  0
   58.9870   61.9140   25.2040 C   0  0  0  0  0  0  0  0  0  0  0  0
   58.3960   60.3930   27.0130 C   0  0  0  0  0  0  0  0  0  0  0  0
   60.8892   61.1744   24.2146 H   0  0  0  0  0  0  0  0  0  0  0  0
   60.3066   59.6219   22.6261 H   0  0  0  0  0  0  0  0  0  0  0  0
   58.9738   60.1807   23.7263 H   0  0  0  0  0  0  0  0  0  0  0  0
   58.6923   57.8684   23.5214 H   0  0  0  0  0  0  0  0  0  0  0  0
   60.4974   57.5919   23.7507 H   0  0  0  0  0  0  0  0  0  0  0  0
   58.4112   58.2775   25.7690 H   0  0  0  0  0  0  0  0  0  0  0  0
   59.9473   58.7269   27.3610 H   0  0  0  0  0  0  0  0  0  0  0  0
   61.3252   58.2060   26.2902 H   0  0  0  0  0  0  0  0  0  0  0  0
   61.4537   60.4947   26.3414 H   0  0  0  0  0  0  0  0  0  0  0  0
   59.5532   56.3574   26.7197 H   0  0  0  0  0  0  0  0  0  0  0  0
   60.6249   55.1597   24.5998 H   0  0  0  0  0  0  0  0  0  0  0  0
   61.4198   56.7587   24.7933 H   0  0  0  0  0  0  0  0  0  0  0  0
   60.9231   55.5782   27.3736 H   0  0  0  0  0  0  0  0  0  0  0  0
   61.8314   54.4268   26.2500 H   0  0  0  0  0  0  0  0  0  0  0  0
   65.8355   56.7855   25.2690 H   0  0  0  0  0  0  0  0  0  0  0  0
   63.6219   55.6620   24.8519 H   0  0  0  0  0  0  0  0  0  0  0  0
   62.7756   59.3629   29.2863 H   0  0  0  0  0  0  0  0  0  0  0  0
   65.5298   58.8982   33.5405 H   0  0  0  0  0  0  0  0  0  0  0  0
   67.8142   55.7966   31.7450 H   0  0  0  0  0  0  0  0  0  0  0  0
   59.8801   61.7687   28.3876 H   0  0  0  0  0  0  0  0  0  0  0  0
   61.1332   62.2703   27.2024 H   0  0  0  0  0  0  0  0  0  0  0  0
   59.5253   63.0711   27.2024 H   0  0  0  0  0  0  0  0  0  0  0  0
   58.3983   62.7625   25.5829 H   0  0  0  0  0  0  0  0  0  0  0  0
   59.8193   62.2899   24.5909 H   0  0  0  0  0  0  0  0  0  0  0  0
   58.3435   61.2659   24.5909 H   0  0  0  0  0  0  0  0  0  0  0  0
   58.4785   60.4438   28.1087 H   0  0  0  0  0  0  0  0  0  0  0  0
   57.4574   60.8694   26.6934 H   0  0  0  0  0  0  0  0  0  0  0  0
   58.4003   59.3405   26.6934 H   0  0  0  0  0  0  0  0  0  0  0  0
  1  6  1  0
  2  3  1  0
  2  1  1  0
  3  4  1  0
  4  7  1  0
  4  5  1  0
  6  5  1  0
  6 25  1  0
  8  7  1  0
  8  9  1  0
  9 12  1  0
 10 15  2  0
 11 10  1  0
 11 12  2  0
 12 13  1  0
 13 14  2  0
 14 16  1  0
 15 14  1  0
 16 17  1  0
 16 24  1  0
 17 18  2  0
 18 19  1  0
 19 20  2  0
 20 21  1  0
 22 21  2  0
 23 22  1  0
 24 23  2  0
 24 19  1  0
 25 28  1  0
 25 26  1  0
 27 25  1  0
  1 29  1  0
  2 30  1  0
  2 31  1  0
  3 32  1  0
  3 33  1  0
  4 34  1  1
  5 35  1  0
  5 36  1  0
  6 37  1  1
  7 38  1  0
  8 39  1  0
  8 40  1  0
  9 41  1  0
  9 42  1  0
 10 43  1  0
 11 44  1  0
 17 45  1  0
 20 46  1  0
 22 47  1  0
 26 48  1  0
 26 49  1  0
 26 50  1  0
 27 51  1  0
 27 52  1  0
 27 53  1  0
 28 54  1  0
 28 55  1  0
 28 56  1  0
M  END
>  <Score>  (1) 
-7.11754

$$$$
