
     RDKit          3D

 50 55  0  0  1  0  0  0  0  0999 V2000
   61.5130   56.8670   26.2360 N   0  0  0  0  0  0  0  0  0  0  0  0
   61.0540   55.6200   25.6620 C   0  0  0  0  0  0  0  0  0  0  0  0
   60.0930   56.0290   24.5770 C   0  0  0  0  0  0  0  0  0  0  0  0
   59.4900   57.3040   25.1520 C   0  0  0  0  0  0  0  0  0  0  0  0
   60.7660   57.9550   25.6610 C   0  0  1  0  0  0  0  0  0  0  0  0
   60.5700   59.1040   26.4450 N   0  0  0  0  0  0  0  0  0  0  0  0
   61.0350   59.3320   27.6820 C   0  0  0  0  0  0  0  0  0  0  0  0
   60.6450   60.5390   28.0790 N   0  0  0  0  0  0  0  0  0  0  0  0
   59.9030   61.1040   27.0780 C   0  0  0  0  0  0  0  0  0  0  0  0
   59.2590   62.3270   27.0600 C   0  0  0  0  0  0  0  0  0  0  0  0
   59.3350   63.1030   28.0360 O   0  0  0  0  0  0  0  0  0  0  0  0
   58.5550   62.6080   25.9400 N   0  0  0  0  0  0  0  0  0  0  0  0
   58.4910   61.7520   24.9160 C   0  0  0  0  0  0  0  0  0  0  0  0
   57.7550   62.0930   23.7580 N   0  0  0  0  0  0  0  0  0  0  0  0
   59.1380   60.5720   24.9890 N   0  0  0  0  0  0  0  0  0  0  0  0
   59.8690   60.1740   26.0470 C   0  0  0  0  0  0  0  0  0  0  0  0
   63.8600   57.4190   26.8530 C   0  0  0  0  0  0  0  0  0  0  0  0
   62.5180   57.0220   27.1980 C   0  0  0  0  0  0  0  0  0  0  0  0
   62.2950   56.8200   28.5340 C   0  0  0  0  0  0  0  0  0  0  0  0
   63.2740   56.9880   29.4380 N   0  0  0  0  0  0  0  0  0  0  0  0
   64.5060   57.3590   29.0640 C   0  0  0  0  0  0  0  0  0  0  0  0
   64.8120   57.5740   27.7900 N   0  0  0  0  0  0  0  0  0  0  0  0
   65.5760   57.5450   30.0360 C   0  0  0  0  0  0  0  0  0  0  0  0
   66.5620   56.6770   30.4630 C   0  0  0  0  0  0  0  0  0  0  0  0
   67.3520   57.2570   31.3810 N   0  0  0  0  0  0  0  0  0  0  0  0
   66.9080   58.5310   31.5880 C   0  0  0  0  0  0  0  0  0  0  0  0
   67.4200   59.4800   32.4420 C   0  0  0  0  0  0  0  0  0  0  0  0
   66.7620   60.6940   32.4440 C   0  0  0  0  0  0  0  0  0  0  0  0
   65.6630   60.9660   31.6550 C   0  0  0  0  0  0  0  0  0  0  0  0
   65.2230   59.9560   30.8330 C   0  0  0  0  0  0  0  0  0  0  0  0
   65.8170   58.7060   30.7620 C   0  0  0  0  0  0  0  0  0  0  0  0
   61.8973   55.0537   25.2399 H   0  0  0  0  0  0  0  0  0  0  0  0
   60.5826   54.9661   26.4105 H   0  0  0  0  0  0  0  0  0  0  0  0
   59.3229   55.2605   24.4147 H   0  0  0  0  0  0  0  0  0  0  0  0
   60.5667   56.1667   23.5938 H   0  0  0  0  0  0  0  0  0  0  0  0
   58.9952   57.9119   24.3802 H   0  0  0  0  0  0  0  0  0  0  0  0
   58.6985   57.1591   25.9020 H   0  0  0  0  0  0  0  0  0  0  0  0
   61.3568   58.4252   24.8611 H   0  0  0  0  0  0  0  0  0  0  0  0
   61.6425   58.6316   28.2739 H   0  0  0  0  0  0  0  0  0  0  0  0
   58.0547   63.5060   25.8746 H   0  0  0  0  0  0  0  0  0  0  0  0
   57.2626   62.9963   23.7082 H   0  0  0  0  0  0  0  0  0  0  0  0
   57.7112   61.4381   22.9642 H   0  0  0  0  0  0  0  0  0  0  0  0
   64.1115   57.5996   25.7975 H   0  0  0  0  0  0  0  0  0  0  0  0
   61.2944   56.5141   28.8734 H   0  0  0  0  0  0  0  0  0  0  0  0
   66.6840   55.6462   30.0989 H   0  0  0  0  0  0  0  0  0  0  0  0
   68.1562   56.8156   31.8493 H   0  0  0  0  0  0  0  0  0  0  0  0
   68.2945   59.2850   33.0802 H   0  0  0  0  0  0  0  0  0  0  0  0
   67.1337   61.4866   33.1101 H   0  0  0  0  0  0  0  0  0  0  0  0
   65.1625   61.9452   31.6826 H   0  0  0  0  0  0  0  0  0  0  0  0
   64.3488   60.1513   30.1946 H   0  0  0  0  0  0  0  0  0  0  0  0
  1 18  1  0
  2  1  1  0
  3  4  1  0
  3  2  1  0
  4  5  1  0
  5  1  1  0
  5  6  1  0
  6  7  1  0
  7  8  2  0
  9  8  1  0
 10  9  1  0
 10 11  2  0
 12 10  1  0
 13 15  2  0
 13 12  1  0
 14 13  1  0
 15 16  1  0
 16  6  1  0
 16  9  2  0
 17 18  2  0
 17 22  1  0
 18 19  1  0
 19 20  2  0
 21 20  1  0
 21 23  1  0
 22 21  2  0
 23 24  2  0
 23 31  1  0
 24 25  1  0
 25 26  1  0
 26 27  2  0
 27 28  1  0
 29 28  2  0
 30 29  1  0
 31 30  2  0
 31 26  1  0
  2 32  1  0
  2 33  1  0
  3 34  1  0
  3 35  1  0
  4 36  1  0
  4 37  1  0
  5 38  1  6
  7 39  1  0
 12 40  1  0
 14 41  1  0
 14 42  1  0
 17 43  1  0
 19 44  1  0
 24 45  1  0
 25 46  1  0
 27 47  1  0
 28 48  1  0
 29 49  1  0
 30 50  1  0
M  END
>  <Score>  (1) 
-7.1877

$$$$
