
     RDKit          3D

 47 50  0  0  0  0  0  0  0  0999 V2000
   63.0617   58.5238   29.7491 C   0  0  0  0  0  0  0  0  0  0  0  0
   63.3910   57.3646   29.0614 C   0  0  0  0  0  0  0  0  0  0  0  0
   62.6837   57.1203   27.8704 C   0  0  0  0  0  0  0  0  0  0  0  0
   61.7320   57.9986   27.4456 N   0  0  0  0  0  0  0  0  0  0  0  0
   61.4518   59.1176   28.1601 C   0  0  0  0  0  0  0  0  0  0  0  0
   62.1173   59.3675   29.3003 N   0  0  0  0  0  0  0  0  0  0  0  0
   60.4515   60.0316   27.7048 N   0  0  0  0  0  0  0  0  0  0  0  0
   60.5600   61.4379   28.0150 C   0  0  0  0  0  0  0  0  0  0  0  0
   59.2960   62.1928   27.9546 C   0  0  0  0  0  0  0  0  0  0  0  0
   58.3348   61.7599   27.0091 N   0  0  0  0  0  0  0  0  0  0  0  0
   58.7886   60.7021   26.1394 C   0  0  0  0  0  0  0  0  0  0  0  0
   59.3343   59.5341   26.9333 C   0  0  0  0  0  0  0  0  0  0  0  0
   63.7661   58.7517   30.9202 O   0  0  0  0  0  0  0  0  0  0  0  0
   64.9035   59.4967   31.0667 C   0  0  0  0  0  0  0  0  0  0  0  0
   65.7237   59.1219   32.1122 C   0  0  0  0  0  0  0  0  0  0  0  0
   66.9121   59.7901   32.3789 C   0  0  0  0  0  0  0  0  0  0  0  0
   67.2391   60.8312   31.5690 N   0  0  0  0  0  0  0  0  0  0  0  0
   66.4476   61.2045   30.5481 C   0  0  0  0  0  0  0  0  0  0  0  0
   65.3036   60.5443   30.3088 N   0  0  0  0  0  0  0  0  0  0  0  0
   66.7857   62.3310   29.6591 C   0  0  0  0  0  0  0  0  0  0  0  0
   65.7319   62.7097   28.8614 F   0  0  0  0  0  0  0  0  0  0  0  0
   67.8409   62.0475   28.8257 F   0  0  0  0  0  0  0  0  0  0  0  0
   67.2580   63.3796   30.4749 F   0  0  0  0  0  0  0  0  0  0  0  0
   64.1367   56.6381   29.3567 H   0  0  0  0  0  0  0  0  0  0  0  0
   62.8882   56.2281   27.2751 H   0  0  0  0  0  0  0  0  0  0  0  0
   61.2656   61.8723   27.2586 H   0  0  0  0  0  0  0  0  0  0  0  0
   61.0375   61.5976   29.0046 H   0  0  0  0  0  0  0  0  0  0  0  0
   58.8710   62.2221   28.9941 H   0  0  0  0  0  0  0  0  0  0  0  0
   59.5357   63.2576   27.7375 H   0  0  0  0  0  0  0  0  0  0  0  0
   57.5065   61.3755   27.5179 H   0  0  0  0  0  0  0  0  0  0  0  0
   57.9639   60.4314   25.4788 H   0  0  0  0  0  0  0  0  0  0  0  0
   59.6022   61.1316   25.5167 H   0  0  0  0  0  0  0  0  0  0  0  0
   58.5297   59.2216   27.6329 H   0  0  0  0  0  0  0  0  0  0  0  0
   59.6055   58.7341   26.2169 H   0  0  0  0  0  0  0  0  0  0  0  0
   65.5109   58.2987   32.7895 H   0  0  0  0  0  0  0  0  0  0  0  0
   67.7805   59.4310   33.4469 N   0  0  0  0  0  0  0  0  0  0  0  0
   67.9405   60.3328   34.4313 C   0  0  0  0  0  0  0  0  0  0  0  0
   68.7841   59.9782   35.4641 C   0  0  0  0  0  0  0  0  0  0  0  0
   69.3897   58.7407   35.4053 C   0  0  0  0  0  0  0  0  0  0  0  0
   70.2629   58.3567   36.4605 N   0  0  0  0  0  0  0  0  0  0  0  0
   69.1784   57.8908   34.3828 N   0  0  0  0  0  0  0  0  0  0  0  0
   68.3491   58.2233   33.3544 C   0  0  0  0  0  0  0  0  0  0  0  0
   68.1374   57.4499   32.3934 O   0  0  0  0  0  0  0  0  0  0  0  0
   67.4201   61.2817   34.3886 H   0  0  0  0  0  0  0  0  0  0  0  0
   68.9536   60.6602   36.2846 H   0  0  0  0  0  0  0  0  0  0  0  0
   70.4787   57.7681   37.2950 H   0  0  0  0  0  0  0  0  0  0  0  0
   69.7983   57.5950   37.0216 H   0  0  0  0  0  0  0  0  0  0  0  0
  1 13  1  0
  2  1  2  0
  3  2  1  0
  4  3  2  0
  4  5  1  0
  5  6  2  0
  6  1  1  0
  7  8  1  0
  7  5  1  0
  9  8  1  0
 10  9  1  0
 11 12  1  0
 11 10  1  0
 12  7  1  0
 13 14  1  0
 14 15  2  0
 15 16  1  0
 17 16  2  0
 18 17  1  0
 19 18  2  0
 19 14  1  0
 20 23  1  0
 20 18  1  0
 21 20  1  0
 22 20  1  0
  2 24  1  0
  3 25  1  0
  8 26  1  0
  8 27  1  0
  9 28  1  0
  9 29  1  0
 10 30  1  0
 11 31  1  0
 11 32  1  0
 12 33  1  0
 12 34  1  0
 15 35  1  0
 36 37  1  0
 37 38  2  0
 38 39  1  0
 39 40  1  0
 39 41  2  0
 41 42  1  0
 42 43  2  0
 42 36  1  0
 37 44  1  0
 38 45  1  0
 40 46  1  0
 40 47  1  0
 16 36  1  0
M  END
>  <Score>  (1) 
-7.04993

$$$$
