
     RDKit          3D

 40 44  0  0  0  0  0  0  0  0999 V2000
   63.4320   56.9030   27.2320 C   0  0  0  0  0  0  0  0  0  0  0  0
   62.1330   57.4730   27.3850 C   0  0  0  0  0  0  0  0  0  0  0  0
   61.9340   58.2640   28.5140 C   0  0  0  0  0  0  0  0  0  0  0  0
   62.9410   58.4490   29.3850 N   0  0  0  0  0  0  0  0  0  0  0  0
   64.1480   57.9070   29.2240 C   0  0  0  0  0  0  0  0  0  0  0  0
   64.4080   57.1270   28.1470 N   0  0  0  0  0  0  0  0  0  0  0  0
   61.2400   57.1170   26.3150 C   0  0  0  0  0  0  0  0  0  0  0  0
   60.8330   55.7900   26.3080 C   0  0  0  0  0  0  0  0  0  0  0  0
   59.9810   55.2460   25.3720 C   0  0  0  0  0  0  0  0  0  0  0  0
   59.4940   56.0560   24.3740 C   0  0  0  0  0  0  0  0  0  0  0  0
   59.8780   57.3580   24.3600 C   0  0  0  0  0  0  0  0  0  0  0  0
   59.4390   58.2460   23.3950 C   0  0  0  0  0  0  0  0  0  0  0  0
   59.8220   59.5740   23.3690 C   0  0  0  0  0  0  0  0  0  0  0  0
   60.6790   60.0570   24.3380 C   0  0  0  0  0  0  0  0  0  0  0  0
   61.1430   59.2020   25.3220 C   0  0  0  0  0  0  0  0  0  0  0  0
   60.7310   57.8960   25.2990 C   0  0  0  0  0  0  0  0  0  0  0  0
   65.1970   58.1460   30.2030 C   0  0  0  0  0  0  0  0  0  0  0  0
   66.1190   57.1460   30.4960 C   0  0  0  0  0  0  0  0  0  0  0  0
   67.1050   57.4250   31.4420 C   0  0  0  0  0  0  0  0  0  0  0  0
   67.1930   58.6170   32.0730 N   0  0  0  0  0  0  0  0  0  0  0  0
   66.2730   59.5430   31.7460 C   0  0  0  0  0  0  0  0  0  0  0  0
   65.2880   59.3280   30.8330 N   0  0  0  0  0  0  0  0  0  0  0  0
   66.1970   60.9060   32.3230 C   0  0  0  0  0  0  0  0  0  0  0  0
   66.8710   61.3340   33.4590 C   0  0  0  0  0  0  0  0  0  0  0  0
   66.3280   63.0960   33.5950 S   0  0  0  0  0  0  0  0  0  0  0  0
   65.2600   62.8950   32.0350 C   0  0  0  0  0  0  0  0  0  0  0  0
   65.4460   61.8240   31.7550 N   0  0  0  0  0  0  0  0  0  0  0  0
   63.6456   56.2712   26.3572 H   0  0  0  0  0  0  0  0  0  0  0  0
   60.9563   58.7356   28.6922 H   0  0  0  0  0  0  0  0  0  0  0  0
   61.2153   55.1303   27.1008 H   0  0  0  0  0  0  0  0  0  0  0  0
   59.6962   54.1847   25.4223 H   0  0  0  0  0  0  0  0  0  0  0  0
   58.8116   55.6600   23.6075 H   0  0  0  0  0  0  0  0  0  0  0  0
   58.7557   57.8799   22.6146 H   0  0  0  0  0  0  0  0  0  0  0  0
   59.4460   60.2425   22.5805 H   0  0  0  0  0  0  0  0  0  0  0  0
   60.9901   61.1121   24.3278 H   0  0  0  0  0  0  0  0  0  0  0  0
   61.8268   59.5628   26.1045 H   0  0  0  0  0  0  0  0  0  0  0  0
   66.0717   56.1666   29.9974 H   0  0  0  0  0  0  0  0  0  0  0  0
   67.8405   56.6437   31.6843 H   0  0  0  0  0  0  0  0  0  0  0  0
   67.5534   60.7692   34.1112 H   0  0  0  0  0  0  0  0  0  0  0  0
   64.6224   63.6386   31.5345 H   0  0  0  0  0  0  0  0  0  0  0  0
  1  2  2  0
  1  6  1  0
  2  3  1  0
  3  4  2  0
  5  4  1  0
  5 17  1  0
  6  5  2  0
  7  2  1  0
  8  7  2  0
  9  8  1  0
 10  9  2  0
 11 10  1  0
 11 16  2  0
 12 11  1  0
 13 12  2  0
 13 14  1  0
 14 15  2  0
 16 15  1  0
 16  7  1  0
 17 18  2  0
 17 22  1  0
 18 19  1  0
 19 20  2  0
 21 20  1  0
 21 23  1  0
 22 21  2  0
 23 24  2  0
 24 25  1  0
 26 25  1  0
 27 26  2  0
 27 23  1  0
  1 28  1  0
  3 29  1  0
  8 30  1  0
  9 31  1  0
 10 32  1  0
 12 33  1  0
 13 34  1  0
 14 35  1  0
 15 36  1  0
 18 37  1  0
 19 38  1  0
 24 39  1  0
 26 40  1  0
M  END
>  <Score>  (1) 
-7.08349

$$$$
