
     RDKit          3D

 47 51  0  0  0  0  0  0  0  0999 V2000
   60.3210   58.6350   25.5480 C   0  0  0  0  0  0  0  0  0  0  0  0
   61.2030   59.2580   24.6850 C   0  0  0  0  0  0  0  0  0  0  0  0
   60.4810   60.0280   23.7750 C   0  0  0  0  0  0  0  0  0  0  0  0
   59.1570   59.8150   24.1580 C   0  0  0  0  0  0  0  0  0  0  0  0
   59.1200   59.0160   25.1690 O   0  0  0  0  0  0  0  0  0  0  0  0
   58.0310   60.4400   23.4650 C   0  0  0  0  0  0  0  0  0  0  0  0
   57.4580   60.0850   22.2560 C   0  0  0  0  0  0  0  0  0  0  0  0
   56.4580   60.9150   21.9920 N   0  0  0  0  0  0  0  0  0  0  0  0
   56.3320   61.8060   22.9630 C   0  0  0  0  0  0  0  0  0  0  0  0
   55.4390   62.8400   23.1020 C   0  0  0  0  0  0  0  0  0  0  0  0
   55.5560   63.6110   24.2430 C   0  0  0  0  0  0  0  0  0  0  0  0
   56.5110   63.4060   25.2420 C   0  0  0  0  0  0  0  0  0  0  0  0
   57.3720   62.3450   25.0290 C   0  0  0  0  0  0  0  0  0  0  0  0
   57.3150   61.5340   23.9170 C   0  0  0  0  0  0  0  0  0  0  0  0
   60.6470   57.7730   26.6090 O   0  0  0  0  0  0  0  0  0  0  0  0
   61.5810   56.7480   26.3170 C   0  0  0  0  0  0  0  0  0  0  0  0
   61.3050   55.7710   25.6380 O   0  0  0  0  0  0  0  0  0  0  0  0
   65.3070   57.0780   26.6060 C   0  0  0  0  0  0  0  0  0  0  0  0
   64.0200   56.9300   26.0400 C   0  0  0  0  0  0  0  0  0  0  0  0
   62.9200   56.9000   26.8660 C   0  0  0  0  0  0  0  0  0  0  0  0
   63.1220   57.0170   28.2000 N   0  0  0  0  0  0  0  0  0  0  0  0
   64.3770   57.1600   28.7260 C   0  0  0  0  0  0  0  0  0  0  0  0
   65.4430   57.1910   27.9600 N   0  0  0  0  0  0  0  0  0  0  0  0
   64.4980   57.2820   30.2160 C   0  0  0  0  0  0  0  0  0  0  0  0
   65.9260   57.1740   30.6830 C   0  0  0  0  0  0  0  0  0  0  0  0
   66.0120   58.0350   31.9190 C   0  0  0  0  0  0  0  0  0  0  0  0
   64.5870   58.5110   32.1880 C   0  0  0  0  0  0  0  0  0  0  0  0
   64.0640   58.6050   30.7490 C   0  0  0  0  0  0  0  0  0  0  0  0
   62.2984   59.1615   24.7121 H   0  0  0  0  0  0  0  0  0  0  0  0
   60.8628   60.6524   22.9538 H   0  0  0  0  0  0  0  0  0  0  0  0
   57.7801   59.2493   21.6173 H   0  0  0  0  0  0  0  0  0  0  0  0
   55.8641   60.8725   21.1515 H   0  0  0  0  0  0  0  0  0  0  0  0
   54.6692   63.0443   22.3433 H   0  0  0  0  0  0  0  0  0  0  0  0
   54.8487   64.4432   24.3736 H   0  0  0  0  0  0  0  0  0  0  0  0
   56.5737   64.0442   26.1358 H   0  0  0  0  0  0  0  0  0  0  0  0
   58.1421   62.1380   25.7867 H   0  0  0  0  0  0  0  0  0  0  0  0
   66.1956   57.1020   25.9580 H   0  0  0  0  0  0  0  0  0  0  0  0
   63.8992   56.8397   24.9504 H   0  0  0  0  0  0  0  0  0  0  0  0
   63.8569   56.4650   30.5786 H   0  0  0  0  0  0  0  0  0  0  0  0
   66.1738   56.1297   30.9239 H   0  0  0  0  0  0  0  0  0  0  0  0
   66.6347   57.5008   29.9078 H   0  0  0  0  0  0  0  0  0  0  0  0
   66.3879   57.4483   32.7702 H   0  0  0  0  0  0  0  0  0  0  0  0
   66.7034   58.8791   31.7796 H   0  0  0  0  0  0  0  0  0  0  0  0
   64.0179   57.7814   32.7828 H   0  0  0  0  0  0  0  0  0  0  0  0
   64.5104   59.4404   32.7714 H   0  0  0  0  0  0  0  0  0  0  0  0
   64.5305   59.4367   30.2007 H   0  0  0  0  0  0  0  0  0  0  0  0
   62.9850   58.8017   30.6651 H   0  0  0  0  0  0  0  0  0  0  0  0
  1 15  1  0
  2  1  2  0
  3  4  2  0
  3  2  1  0
  4  5  1  0
  5  1  1  0
  6 14  1  0
  6  4  1  0
  7  6  2  0
  8  7  1  0
  8  9  1  0
  9 10  2  0
  9 14  1  0
 10 11  1  0
 11 12  2  0
 13 12  1  0
 14 13  2  0
 16 15  1  0
 16 20  1  0
 17 16  2  0
 18 23  2  0
 19 18  1  0
 19 20  2  0
 20 21  1  0
 21 22  2  0
 22 24  1  0
 23 22  1  0
 24 25  1  0
 24 28  1  0
 25 26  1  0
 26 27  1  0
 28 27  1  0
  2 29  1  0
  3 30  1  0
  7 31  1  0
  8 32  1  0
 10 33  1  0
 11 34  1  0
 12 35  1  0
 13 36  1  0
 18 37  1  0
 19 38  1  0
 24 39  1  0
 25 40  1  0
 25 41  1  0
 26 42  1  0
 26 43  1  0
 27 44  1  0
 27 45  1  0
 28 46  1  0
 28 47  1  0
M  END
>  <Score>  (1) 
-7.053

$$$$
