
     RDKit          3D

 50 55  0  0  1  0  0  0  0  0999 V2000
   61.7330   56.9470   26.3310 N   0  0  0  0  0  0  0  0  0  0  0  0
   61.2800   55.6790   25.7690 C   0  0  0  0  0  0  0  0  0  0  0  0
   60.3320   56.0670   24.6780 C   0  0  0  0  0  0  0  0  0  0  0  0
   59.6740   57.3010   25.2950 C   0  0  0  0  0  0  0  0  0  0  0  0
   61.0300   58.0080   25.7490 C   0  0  1  0  0  0  0  0  0  0  0  0
   60.6720   59.1580   26.5590 C   0  0  0  0  0  0  0  0  0  0  0  0
   60.9210   59.5610   27.8300 C   0  0  0  0  0  0  0  0  0  0  0  0
   60.4310   60.7770   28.1170 N   0  0  0  0  0  0  0  0  0  0  0  0
   59.8290   61.2050   27.0070 C   0  0  0  0  0  0  0  0  0  0  0  0
   59.1220   62.3710   26.8240 C   0  0  0  0  0  0  0  0  0  0  0  0
   58.4910   62.6260   25.6110 C   0  0  0  0  0  0  0  0  0  0  0  0
   58.6050   61.6750   24.6180 C   0  0  0  0  0  0  0  0  0  0  0  0
   59.3200   60.5170   24.8300 C   0  0  0  0  0  0  0  0  0  0  0  0
   59.9550   60.2490   26.0400 C   0  0  0  0  0  0  0  0  0  0  0  0
   64.0430   57.4600   27.0340 C   0  0  0  0  0  0  0  0  0  0  0  0
   62.7150   57.0650   27.3310 C   0  0  0  0  0  0  0  0  0  0  0  0
   62.4530   56.8280   28.6710 C   0  0  0  0  0  0  0  0  0  0  0  0
   63.4090   56.9750   29.6020 N   0  0  0  0  0  0  0  0  0  0  0  0
   64.6420   57.3510   29.2670 C   0  0  0  0  0  0  0  0  0  0  0  0
   64.9770   57.5950   27.9980 N   0  0  0  0  0  0  0  0  0  0  0  0
   65.7150   57.5280   30.2410 C   0  0  0  0  0  0  0  0  0  0  0  0
   66.7050   56.6360   30.6720 C   0  0  0  0  0  0  0  0  0  0  0  0
   67.4680   57.2340   31.5740 N   0  0  0  0  0  0  0  0  0  0  0  0
   67.0280   58.4780   31.7610 C   0  0  0  0  0  0  0  0  0  0  0  0
   67.5210   59.4420   32.6010 C   0  0  0  0  0  0  0  0  0  0  0  0
   66.8950   60.6650   32.6210 C   0  0  0  0  0  0  0  0  0  0  0  0
   65.7880   60.9620   31.8300 C   0  0  0  0  0  0  0  0  0  0  0  0
   65.3530   59.9340   31.0090 C   0  0  0  0  0  0  0  0  0  0  0  0
   65.9240   58.6990   30.9370 C   0  0  0  0  0  0  0  0  0  0  0  0
   62.1285   55.1095   25.3619 H   0  0  0  0  0  0  0  0  0  0  0  0
   60.8062   55.0338   26.5235 H   0  0  0  0  0  0  0  0  0  0  0  0
   59.5970   55.2731   24.4792 H   0  0  0  0  0  0  0  0  0  0  0  0
   60.8086   56.2449   23.7027 H   0  0  0  0  0  0  0  0  0  0  0  0
   59.1115   57.8946   24.5593 H   0  0  0  0  0  0  0  0  0  0  0  0
   58.9152   57.1278   26.0723 H   0  0  0  0  0  0  0  0  0  0  0  0
   61.6852   58.4589   24.9891 H   0  0  0  0  0  0  0  0  0  0  0  0
   61.4731   58.9482   28.5577 H   0  0  0  0  0  0  0  0  0  0  0  0
   60.5050   61.2784   29.0137 H   0  0  0  0  0  0  0  0  0  0  0  0
   59.0555   63.1049   27.6407 H   0  0  0  0  0  0  0  0  0  0  0  0
   57.9213   63.5530   25.4492 H   0  0  0  0  0  0  0  0  0  0  0  0
   58.1192   61.8435   23.6456 H   0  0  0  0  0  0  0  0  0  0  0  0
   59.3918   59.7797   24.0168 H   0  0  0  0  0  0  0  0  0  0  0  0
   64.3199   57.6621   25.9888 H   0  0  0  0  0  0  0  0  0  0  0  0
   61.4442   56.5140   28.9771 H   0  0  0  0  0  0  0  0  0  0  0  0
   66.8291   55.6022   30.3173 H   0  0  0  0  0  0  0  0  0  0  0  0
   68.2726   56.8063   32.0541 H   0  0  0  0  0  0  0  0  0  0  0  0
   68.3931   59.2424   33.2410 H   0  0  0  0  0  0  0  0  0  0  0  0
   67.2857   61.4443   33.2918 H   0  0  0  0  0  0  0  0  0  0  0  0
   65.2934   61.9442   31.8552 H   0  0  0  0  0  0  0  0  0  0  0  0
   64.4813   60.1297   30.3672 H   0  0  0  0  0  0  0  0  0  0  0  0
  1 16  1  0
  2  1  1  0
  3  4  1  0
  3  2  1  0
  4  5  1  0
  5  1  1  0
  5  6  1  0
  6  7  2  0
  7  8  1  0
  9  8  1  0
 10  9  2  0
 11 10  1  0
 12 13  1  0
 12 11  2  0
 13 14  2  0
 14  6  1  0
 14  9  1  0
 15 16  2  0
 15 20  1  0
 16 17  1  0
 17 18  2  0
 19 18  1  0
 19 21  1  0
 20 19  2  0
 21 22  2  0
 21 29  1  0
 22 23  1  0
 23 24  1  0
 24 25  2  0
 25 26  1  0
 27 26  2  0
 28 27  1  0
 29 28  2  0
 29 24  1  0
  2 30  1  0
  2 31  1  0
  3 32  1  0
  3 33  1  0
  4 34  1  0
  4 35  1  0
  5 36  1  6
  7 37  1  0
  8 38  1  0
 10 39  1  0
 11 40  1  0
 12 41  1  0
 13 42  1  0
 15 43  1  0
 17 44  1  0
 22 45  1  0
 23 46  1  0
 25 47  1  0
 26 48  1  0
 27 49  1  0
 28 50  1  0
M  END
>  <Score>  (1) 
-7.1576

$$$$
