
     RDKit          3D

 39 42  0  0  0  0  0  0  0  0999 V2000
   63.4820   56.9090   27.1800 C   0  0  0  0  0  0  0  0  0  0  0  0
   62.1850   57.4370   27.3630 C   0  0  0  0  0  0  0  0  0  0  0  0
   61.9740   58.1930   28.5270 C   0  0  0  0  0  0  0  0  0  0  0  0
   63.0060   58.3660   29.3790 N   0  0  0  0  0  0  0  0  0  0  0  0
   64.2230   57.8570   29.1840 C   0  0  0  0  0  0  0  0  0  0  0  0
   64.4740   57.1150   28.0680 N   0  0  0  0  0  0  0  0  0  0  0  0
   61.2650   57.0970   26.2970 C   0  0  0  0  0  0  0  0  0  0  0  0
   60.8410   55.7690   26.2930 C   0  0  0  0  0  0  0  0  0  0  0  0
   59.9720   55.2360   25.3740 C   0  0  0  0  0  0  0  0  0  0  0  0
   59.4820   56.0570   24.3900 C   0  0  0  0  0  0  0  0  0  0  0  0
   59.8810   57.3650   24.3720 C   0  0  0  0  0  0  0  0  0  0  0  0
   59.4360   58.2570   23.4180 C   0  0  0  0  0  0  0  0  0  0  0  0
   59.8320   59.5770   23.3910 C   0  0  0  0  0  0  0  0  0  0  0  0
   60.7110   60.0500   24.3480 C   0  0  0  0  0  0  0  0  0  0  0  0
   61.1790   59.1900   25.3180 C   0  0  0  0  0  0  0  0  0  0  0  0
   60.7510   57.8860   25.2980 C   0  0  0  0  0  0  0  0  0  0  0  0
   67.2600   58.5790   31.9620 C   0  0  0  0  0  0  0  0  0  0  0  0
   67.0710   57.2960   31.5260 C   0  0  0  0  0  0  0  0  0  0  0  0
   66.0620   57.0310   30.5980 C   0  0  0  0  0  0  0  0  0  0  0  0
   65.2890   58.0880   30.1540 C   0  0  0  0  0  0  0  0  0  0  0  0
   65.4860   59.3800   30.5980 C   0  0  0  0  0  0  0  0  0  0  0  0
   66.4960   59.6450   31.5280 C   0  0  0  0  0  0  0  0  0  0  0  0
   68.5400   58.8860   33.1330 S   0  0  0  0  0  0  0  0  0  0  0  0
   68.2630   60.1440   33.9200 O   0  0  0  0  0  0  0  0  0  0  0  0
   68.5320   57.7030   34.0810 O   0  0  0  0  0  0  0  0  0  0  0  0
   63.6894   56.3090   26.2817 H   0  0  0  0  0  0  0  0  0  0  0  0
   60.9892   58.6345   28.7398 H   0  0  0  0  0  0  0  0  0  0  0  0
   61.2287   55.1040   27.0787 H   0  0  0  0  0  0  0  0  0  0  0  0
   59.6760   54.1778   25.4251 H   0  0  0  0  0  0  0  0  0  0  0  0
   58.7837   55.6717   23.6324 H   0  0  0  0  0  0  0  0  0  0  0  0
   58.7367   57.9002   22.6475 H   0  0  0  0  0  0  0  0  0  0  0  0
   59.4501   60.2519   22.6108 H   0  0  0  0  0  0  0  0  0  0  0  0
   61.0333   61.1016   24.3352 H   0  0  0  0  0  0  0  0  0  0  0  0
   61.8794   59.5406   26.0904 H   0  0  0  0  0  0  0  0  0  0  0  0
   67.7074   56.4817   31.9027 H   0  0  0  0  0  0  0  0  0  0  0  0
   65.8868   56.0092   30.2302 H   0  0  0  0  0  0  0  0  0  0  0  0
   64.8520   60.1966   30.2223 H   0  0  0  0  0  0  0  0  0  0  0  0
   66.6755   60.6644   31.9002 H   0  0  0  0  0  0  0  0  0  0  0  0
   69.7439   59.0454   32.4990 H   0  0  0  0  0  0  0  0  0  0  0  0
  1  2  2  0
  1  6  1  0
  2  3  1  0
  3  4  2  0
  5  4  1  0
  5 20  1  0
  6  5  2  0
  7  2  1  0
  8  7  2  0
  9  8  1  0
 10  9  2  0
 11 10  1  0
 11 16  2  0
 12 11  1  0
 13 12  2  0
 13 14  1  0
 14 15  2  0
 16 15  1  0
 16  7  1  0
 17 23  1  0
 18 17  2  0
 19 18  1  0
 20 19  2  0
 20 21  1  0
 21 22  2  0
 22 17  1  0
 23 24  2  0
 23 25  2  0
  1 26  1  0
  3 27  1  0
  8 28  1  0
  9 29  1  0
 10 30  1  0
 12 31  1  0
 13 32  1  0
 14 33  1  0
 15 34  1  0
 18 35  1  0
 19 36  1  0
 21 37  1  0
 22 38  1  0
 23 39  1  0
M  END
>  <Score>  (1) 
-7.01141

$$$$
