
     RDKit          3D

 32 35  0  0  0  0  0  0  0  0999 V2000
   61.3020   57.0140   26.2170 C   0  0  0  0  0  0  0  0  0  0  0  0
   60.8140   55.7090   26.1890 C   0  0  0  0  0  0  0  0  0  0  0  0
   59.8950   55.2470   25.2800 C   0  0  0  0  0  0  0  0  0  0  0  0
   59.4140   56.1210   24.3310 C   0  0  0  0  0  0  0  0  0  0  0  0
   59.8710   57.4100   24.3300 C   0  0  0  0  0  0  0  0  0  0  0  0
   59.4480   58.3530   23.4200 C   0  0  0  0  0  0  0  0  0  0  0  0
   59.9060   59.6530   23.4140 C   0  0  0  0  0  0  0  0  0  0  0  0
   60.8330   60.0470   24.3590 C   0  0  0  0  0  0  0  0  0  0  0  0
   61.2870   59.1410   25.2920 C   0  0  0  0  0  0  0  0  0  0  0  0
   60.7940   57.8530   25.2500 C   0  0  0  0  0  0  0  0  0  0  0  0
   63.5710   56.8510   26.9500 C   0  0  0  0  0  0  0  0  0  0  0  0
   62.2680   57.2840   27.2620 C   0  0  0  0  0  0  0  0  0  0  0  0
   62.0900   57.8980   28.5110 C   0  0  0  0  0  0  0  0  0  0  0  0
   63.1620   58.0330   29.3230 N   0  0  0  0  0  0  0  0  0  0  0  0
   64.3880   57.6130   29.0020 C   0  0  0  0  0  0  0  0  0  0  0  0
   64.6010   57.0170   27.8070 N   0  0  0  0  0  0  0  0  0  0  0  0
   65.4180   57.8250   29.9610 N   0  0  0  0  0  0  0  0  0  0  0  0
   65.5310   59.0200   30.6010 C   0  0  0  0  0  0  0  0  0  0  0  0
   66.5600   59.0050   31.4540 N   0  0  0  0  0  0  0  0  0  0  0  0
   67.1060   57.7830   31.3540 C   0  0  0  0  0  0  0  0  0  0  0  0
   66.3990   57.0680   30.4370 N   0  0  0  0  0  0  0  0  0  0  0  0
   61.1897   55.0032   26.9445 H   0  0  0  0  0  0  0  0  0  0  0  0
   59.5508   54.2026   25.3091 H   0  0  0  0  0  0  0  0  0  0  0  0
   58.6753   55.7884   23.5869 H   0  0  0  0  0  0  0  0  0  0  0  0
   58.7093   58.0545   22.6616 H   0  0  0  0  0  0  0  0  0  0  0  0
   59.5372   60.3689   22.6647 H   0  0  0  0  0  0  0  0  0  0  0  0
   61.2076   61.0812   24.3666 H   0  0  0  0  0  0  0  0  0  0  0  0
   62.0248   59.4372   26.0522 H   0  0  0  0  0  0  0  0  0  0  0  0
   63.7549   56.3639   25.9810 H   0  0  0  0  0  0  0  0  0  0  0  0
   61.0996   58.2615   28.8225 H   0  0  0  0  0  0  0  0  0  0  0  0
   64.8662   59.8812   30.4387 H   0  0  0  0  0  0  0  0  0  0  0  0
   67.9780   57.4205   31.9182 H   0  0  0  0  0  0  0  0  0  0  0  0
  1 12  1  0
  2  1  2  0
  3  2  1  0
  4  3  2  0
  5  4  1  0
  5 10  2  0
  6  5  1  0
  7  6  2  0
  7  8  1  0
  8  9  2  0
 10  9  1  0
 10  1  1  0
 11 12  2  0
 11 16  1  0
 12 13  1  0
 13 14  2  0
 15 14  1  0
 15 17  1  0
 16 15  2  0
 17 21  1  0
 17 18  1  0
 18 19  2  0
 20 19  1  0
 21 20  2  0
  2 22  1  0
  3 23  1  0
  4 24  1  0
  6 25  1  0
  7 26  1  0
  8 27  1  0
  9 28  1  0
 11 29  1  0
 13 30  1  0
 18 31  1  0
 20 32  1  0
M  END
>  <Score>  (1) 
-7.09332

$$$$
