
     RDKit          3D

 42 46  0  0  0  0  0  0  0  0999 V2000
   66.8280   58.6680   33.2160 S   0  0  0  0  0  0  0  0  0  0  0  0
   67.7700   57.5900   33.5910 O   0  0  0  0  0  0  0  0  0  0  0  0
   65.9330   59.0360   34.3970 O   0  0  0  0  0  0  0  0  0  0  0  0
   65.8650   58.1770   31.8500 C   0  0  0  0  0  0  0  0  0  0  0  0
   66.5050   57.3840   30.9250 C   0  0  0  0  0  0  0  0  0  0  0  0
   65.7840   56.9610   29.8110 C   0  0  0  0  0  0  0  0  0  0  0  0
   64.4720   57.3060   29.6070 C   0  0  0  0  0  0  0  0  0  0  0  0
   63.8470   58.1010   30.5460 C   0  0  0  0  0  0  0  0  0  0  0  0
   64.5370   58.5390   31.6680 C   0  0  0  0  0  0  0  0  0  0  0  0
   63.5100   56.8470   26.1100 C   0  0  0  0  0  0  0  0  0  0  0  0
   62.3560   56.0650   26.1930 C   0  0  0  0  0  0  0  0  0  0  0  0
   61.9230   55.7030   27.4590 C   0  0  0  0  0  0  0  0  0  0  0  0
   62.6340   56.1210   28.5590 N   0  0  0  0  0  0  0  0  0  0  0  0
   63.7270   56.8650   28.4430 C   0  0  0  0  0  0  0  0  0  0  0  0
   64.1670   57.2300   27.2090 N   0  0  0  0  0  0  0  0  0  0  0  0
   67.7230   60.1030   32.7170 C   0  0  0  0  0  0  0  0  0  0  0  0
   68.2510   61.0980   33.4400 N   0  0  0  0  0  0  0  0  0  0  0  0
   68.8240   61.9580   32.6720 O   0  0  0  0  0  0  0  0  0  0  0  0
   68.7020   61.5740   31.4070 C   0  0  0  0  0  0  0  0  0  0  0  0
   68.0230   60.4320   31.4540 N   0  0  0  0  0  0  0  0  0  0  0  0
   69.2980   62.4380   30.3910 C   0  0  0  0  0  0  0  0  0  0  0  0
   70.6050   62.7480   30.3510 N   0  0  0  0  0  0  0  0  0  0  0  0
   71.1740   63.5370   29.4310 C   0  0  0  0  0  0  0  0  0  0  0  0
   70.4350   64.0880   28.4480 N   0  0  0  0  0  0  0  0  0  0  0  0
   69.0960   63.8410   28.3900 C   0  0  0  0  0  0  0  0  0  0  0  0
   68.3370   64.4030   27.3870 C   0  0  0  0  0  0  0  0  0  0  0  0
   66.9820   64.1640   27.3130 C   0  0  0  0  0  0  0  0  0  0  0  0
   66.4220   63.3380   28.2870 C   0  0  0  0  0  0  0  0  0  0  0  0
   67.2400   62.8120   29.2590 C   0  0  0  0  0  0  0  0  0  0  0  0
   68.5790   63.0200   29.3710 C   0  0  0  0  0  0  0  0  0  0  0  0
   67.5568   57.0924   31.0617 H   0  0  0  0  0  0  0  0  0  0  0  0
   66.2858   56.3259   29.0661 H   0  0  0  0  0  0  0  0  0  0  0  0
   62.7950   58.3895   30.4044 H   0  0  0  0  0  0  0  0  0  0  0  0
   64.0321   59.1723   32.4123 H   0  0  0  0  0  0  0  0  0  0  0  0
   63.8850   57.1533   25.1223 H   0  0  0  0  0  0  0  0  0  0  0  0
   61.8126   55.7491   25.2903 H   0  0  0  0  0  0  0  0  0  0  0  0
   61.0197   55.0875   27.5823 H   0  0  0  0  0  0  0  0  0  0  0  0
   72.2546   63.7373   29.4780 H   0  0  0  0  0  0  0  0  0  0  0  0
   68.8176   65.0491   26.6376 H   0  0  0  0  0  0  0  0  0  0  0  0
   66.3661   64.6074   26.5167 H   0  0  0  0  0  0  0  0  0  0  0  0
   65.3456   63.1114   28.2779 H   0  0  0  0  0  0  0  0  0  0  0  0
   66.7689   62.1650   30.0136 H   0  0  0  0  0  0  0  0  0  0  0  0
  1  2  2  0
  1  3  2  0
  4  1  1  0
  5  4  2  0
  6  5  1  0
  7  6  2  0
  7  8  1  0
  8  9  2  0
  9  4  1  0
 10 11  2  0
 10 15  1  0
 11 12  1  0
 12 13  2  0
 14 13  1  0
 14  7  1  0
 15 14  2  0
 16  1  1  0
 16 17  2  0
 18 17  1  0
 19 20  2  0
 19 18  1  0
 20 16  1  0
 21 19  1  0
 22 21  2  0
 23 22  1  0
 24 23  2  0
 25 24  1  0
 25 30  2  0
 26 25  1  0
 27 26  2  0
 27 28  1  0
 28 29  2  0
 29 30  1  0
 30 21  1  0
  5 31  1  0
  6 32  1  0
  8 33  1  0
  9 34  1  0
 10 35  1  0
 11 36  1  0
 12 37  1  0
 23 38  1  0
 26 39  1  0
 27 40  1  0
 28 41  1  0
 29 42  1  0
M  END
>  <Score>  (1) 
-7.09113

$$$$
