
     RDKit          3D

 50 54  0  0  0  0  0  0  0  0999 V2000
   63.7010   57.3480   29.5910 O   0  0  0  0  0  0  0  0  0  0  0  0
   63.3090   57.4120   28.2740 C   0  0  0  0  0  0  0  0  0  0  0  0
   64.2180   56.9410   27.3330 C   0  0  0  0  0  0  0  0  0  0  0  0
   63.8010   57.0140   25.9890 C   0  0  0  0  0  0  0  0  0  0  0  0
   62.5740   57.5230   25.6740 N   0  0  0  0  0  0  0  0  0  0  0  0
   61.7320   57.9670   26.6400 C   0  0  0  0  0  0  0  0  0  0  0  0
   62.1120   57.9050   27.9270 N   0  0  0  0  0  0  0  0  0  0  0  0
   60.4580   58.4920   26.2840 N   0  0  0  0  0  0  0  0  0  0  0  0
   59.8520   59.5290   27.0950 C   0  0  0  0  0  0  0  0  0  0  0  0
   58.3900   59.6580   26.9580 C   0  0  0  0  0  0  0  0  0  0  0  0
   57.8440   59.3670   25.6740 N   0  0  0  0  0  0  0  0  0  0  0  0
   58.8120   59.0730   24.6680 C   0  0  0  0  0  0  0  0  0  0  0  0
   59.7770   57.9910   25.1170 C   0  0  0  0  0  0  0  0  0  0  0  0
   64.4310   58.2740   30.3010 C   0  0  0  0  0  0  0  0  0  0  0  0
   64.8260   57.8980   31.5670 C   0  0  0  0  0  0  0  0  0  0  0  0
   65.5700   58.7400   32.3930 C   0  0  0  0  0  0  0  0  0  0  0  0
   65.8800   59.9450   31.8780 N   0  0  0  0  0  0  0  0  0  0  0  0
   65.5070   60.3220   30.6610 C   0  0  0  0  0  0  0  0  0  0  0  0
   64.7950   59.5110   29.8750 N   0  0  0  0  0  0  0  0  0  0  0  0
   65.8950   58.1740   33.6990 C   0  0  0  0  0  0  0  0  0  0  0  0
   65.1410   58.4030   34.7720 N   0  0  0  0  0  0  0  0  0  0  0  0
   65.4010   57.9110   35.9760 C   0  0  0  0  0  0  0  0  0  0  0  0
   66.4830   57.1120   36.2180 N   0  0  0  0  0  0  0  0  0  0  0  0
   67.3040   56.8280   35.1770 C   0  0  0  0  0  0  0  0  0  0  0  0
   68.3970   56.0300   35.3940 C   0  0  0  0  0  0  0  0  0  0  0  0
   69.2490   55.7200   34.3700 C   0  0  0  0  0  0  0  0  0  0  0  0
   68.9500   56.2530   33.1150 C   0  0  0  0  0  0  0  0  0  0  0  0
   67.8470   57.0430   32.9610 C   0  0  0  0  0  0  0  0  0  0  0  0
   66.9760   57.3710   33.9620 C   0  0  0  0  0  0  0  0  0  0  0  0
   65.8570   61.6540   30.1100 C   0  0  0  0  0  0  0  0  0  0  0  0
   64.7480   62.4130   29.8120 F   0  0  0  0  0  0  0  0  0  0  0  0
   66.5970   61.5620   28.9420 F   0  0  0  0  0  0  0  0  0  0  0  0
   66.7140   62.2960   31.0050 F   0  0  0  0  0  0  0  0  0  0  0  0
   65.2002   56.5371   27.6196 H   0  0  0  0  0  0  0  0  0  0  0  0
   64.4677   56.6590   25.1893 H   0  0  0  0  0  0  0  0  0  0  0  0
   60.0772   59.3117   28.1495 H   0  0  0  0  0  0  0  0  0  0  0  0
   60.2771   60.4803   26.7423 H   0  0  0  0  0  0  0  0  0  0  0  0
   57.9246   58.9732   27.6822 H   0  0  0  0  0  0  0  0  0  0  0  0
   58.1738   60.7224   27.1321 H   0  0  0  0  0  0  0  0  0  0  0  0
   57.2206   58.5524   25.7674 H   0  0  0  0  0  0  0  0  0  0  0  0
   59.3810   59.9871   24.4427 H   0  0  0  0  0  0  0  0  0  0  0  0
   58.2804   58.7099   23.7761 H   0  0  0  0  0  0  0  0  0  0  0  0
   59.2254   57.0726   25.3666 H   0  0  0  0  0  0  0  0  0  0  0  0
   60.4934   57.7478   24.3185 H   0  0  0  0  0  0  0  0  0  0  0  0
   64.5452   56.9012   31.9378 H   0  0  0  0  0  0  0  0  0  0  0  0
   64.7231   58.1542   36.8075 H   0  0  0  0  0  0  0  0  0  0  0  0
   68.5910   55.6348   36.4021 H   0  0  0  0  0  0  0  0  0  0  0  0
   70.1295   55.0800   34.5282 H   0  0  0  0  0  0  0  0  0  0  0  0
   69.5999   56.0376   32.2541 H   0  0  0  0  0  0  0  0  0  0  0  0
   67.6445   57.4451   31.9574 H   0  0  0  0  0  0  0  0  0  0  0  0
  1 14  1  0
  2  1  1  0
  3  2  2  0
  4  3  1  0
  5  4  2  0
  5  6  1  0
  6  7  2  0
  7  2  1  0
  8  6  1  0
  8  9  1  0
 10  9  1  0
 11 10  1  0
 12 13  1  0
 12 11  1  0
 13  8  1  0
 14 15  2  0
 15 16  1  0
 16 20  1  0
 17 16  2  0
 18 17  1  0
 19 14  1  0
 19 18  2  0
 20 29  1  0
 20 21  2  0
 21 22  1  0
 22 23  2  0
 24 25  2  0
 24 23  1  0
 26 25  1  0
 27 26  2  0
 28 27  1  0
 28 29  2  0
 29 24  1  0
 30 18  1  0
 30 33  1  0
 31 30  1  0
 32 30  1  0
  3 34  1  0
  4 35  1  0
  9 36  1  0
  9 37  1  0
 10 38  1  0
 10 39  1  0
 11 40  1  0
 12 41  1  0
 12 42  1  0
 13 43  1  0
 13 44  1  0
 15 45  1  0
 22 46  1  0
 25 47  1  0
 26 48  1  0
 27 49  1  0
 28 50  1  0
M  END
>  <Score>  (1) 
-7.07784

$$$$
