
     RDKit          3D

 43 45  0  0  0  0  0  0  0  0999 V2000
   62.9810   57.4860   28.2670 C   0  0  0  0  0  0  0  0  0  0  0  0
   63.8050   56.9710   27.2550 C   0  0  0  0  0  0  0  0  0  0  0  0
   63.3600   57.1240   25.9270 C   0  0  0  0  0  0  0  0  0  0  0  0
   62.1720   57.7540   25.6900 N   0  0  0  0  0  0  0  0  0  0  0  0
   61.4130   58.2340   26.7040 C   0  0  0  0  0  0  0  0  0  0  0  0
   61.8290   58.0930   27.9750 N   0  0  0  0  0  0  0  0  0  0  0  0
   60.1680   58.8920   26.4320 N   0  0  0  0  0  0  0  0  0  0  0  0
   59.6840   59.9270   27.3230 C   0  0  0  0  0  0  0  0  0  0  0  0
   58.2420   60.1980   27.2490 C   0  0  0  0  0  0  0  0  0  0  0  0
   57.6110   60.0090   25.9860 N   0  0  0  0  0  0  0  0  0  0  0  0
   58.5110   59.6830   24.9210 C   0  0  0  0  0  0  0  0  0  0  0  0
   59.4080   58.5130   25.2690 C   0  0  0  0  0  0  0  0  0  0  0  0
   63.4460   57.3200   29.5580 O   0  0  0  0  0  0  0  0  0  0  0  0
   64.2070   58.1910   30.2820 C   0  0  0  0  0  0  0  0  0  0  0  0
   65.0730   57.6080   31.1750 C   0  0  0  0  0  0  0  0  0  0  0  0
   65.9120   58.3910   31.9820 C   0  0  0  0  0  0  0  0  0  0  0  0
   65.8330   59.7350   31.8460 N   0  0  0  0  0  0  0  0  0  0  0  0
   64.9910   60.2980   30.9780 C   0  0  0  0  0  0  0  0  0  0  0  0
   64.1940   59.5440   30.2120 N   0  0  0  0  0  0  0  0  0  0  0  0
   66.8140   57.8260   32.9110 N   0  0  0  0  0  0  0  0  0  0  0  0
   67.6210   56.7220   32.5420 C   0  0  0  0  0  0  0  0  0  0  0  0
   67.1740   55.9840   31.5610 N   0  0  0  0  0  0  0  0  0  0  0  0
   68.8460   56.4320   33.2020 N   0  0  0  0  0  0  0  0  0  0  0  0
   67.6700   55.1540   31.2010 H   0  0  0  0  0  0  0  0  0  0  0  0
   64.8930   61.7700   30.8170 C   0  0  0  0  0  0  0  0  0  0  0  0
   63.7590   62.1560   30.1480 F   0  0  0  0  0  0  0  0  0  0  0  0
   65.9760   62.2910   30.1250 F   0  0  0  0  0  0  0  0  0  0  0  0
   64.9930   62.3420   32.0940 F   0  0  0  0  0  0  0  0  0  0  0  0
   64.7562   56.4700   27.4880 H   0  0  0  0  0  0  0  0  0  0  0  0
   63.9627   56.7403   25.0906 H   0  0  0  0  0  0  0  0  0  0  0  0
   59.9202   59.6250   28.3540 H   0  0  0  0  0  0  0  0  0  0  0  0
   60.1835   60.8554   27.0091 H   0  0  0  0  0  0  0  0  0  0  0  0
   57.7427   59.5357   27.9715 H   0  0  0  0  0  0  0  0  0  0  0  0
   58.1430   61.2732   27.4589 H   0  0  0  0  0  0  0  0  0  0  0  0
   56.9286   59.2429   26.0777 H   0  0  0  0  0  0  0  0  0  0  0  0
   59.1395   60.5601   24.7071 H   0  0  0  0  0  0  0  0  0  0  0  0
   57.9094   59.3989   24.0450 H   0  0  0  0  0  0  0  0  0  0  0  0
   58.7993   57.6237   25.4896 H   0  0  0  0  0  0  0  0  0  0  0  0
   60.0746   58.2679   24.4290 H   0  0  0  0  0  0  0  0  0  0  0  0
   65.1091   56.5118   31.2585 H   0  0  0  0  0  0  0  0  0  0  0  0
   66.8851   58.2185   33.8606 H   0  0  0  0  0  0  0  0  0  0  0  0
   69.4094   55.6211   32.9090 H   0  0  0  0  0  0  0  0  0  0  0  0
   69.1703   57.0328   33.9732 H   0  0  0  0  0  0  0  0  0  0  0  0
  1 13  1  0
  2  1  2  0
  3  2  1  0
  4  3  2  0
  4  5  1  0
  5  6  2  0
  6  1  1  0
  7  5  1  0
  7  8  1  0
  9  8  1  0
 10  9  1  0
 11 12  1  0
 11 10  1  0
 12  7  1  0
 13 14  1  0
 14 15  2  0
 15 16  1  0
 16 20  1  0
 17 16  2  0
 18 17  1  0
 19 14  1  0
 19 18  2  0
 21 20  1  0
 21 23  1  0
 22 21  2  0
 24 22  1  0
 25 18  1  0
 25 28  1  0
 26 25  1  0
 27 25  1  0
  2 29  1  0
  3 30  1  0
  8 31  1  0
  8 32  1  0
  9 33  1  0
  9 34  1  0
 10 35  1  0
 11 36  1  0
 11 37  1  0
 12 38  1  0
 12 39  1  0
 15 40  1  0
 20 41  1  0
 23 42  1  0
 23 43  1  0
M  END
>  <Score>  (1) 
-7.02743

$$$$
