
     RDKit          3D

 50 54  0  0  0  0  0  0  0  0999 V2000
   65.3570   56.7150   25.9470 C   0  0  0  0  0  0  0  0  0  0  0  0
   64.0280   56.6050   25.4630 C   0  0  0  0  0  0  0  0  0  0  0  0
   62.9830   56.7640   26.3460 C   0  0  0  0  0  0  0  0  0  0  0  0
   63.2580   57.0240   27.6620 N   0  0  0  0  0  0  0  0  0  0  0  0
   64.5310   57.1220   28.0810 C   0  0  0  0  0  0  0  0  0  0  0  0
   65.5860   56.9760   27.2680 N   0  0  0  0  0  0  0  0  0  0  0  0
   64.7600   57.4140   29.5140 C   0  0  0  0  0  0  0  0  0  0  0  0
   63.9030   57.9980   30.3920 C   0  0  0  0  0  0  0  0  0  0  0  0
   64.3320   58.1790   31.6800 C   0  0  0  0  0  0  0  0  0  0  0  0
   65.6220   57.7390   31.9660 C   0  0  0  0  0  0  0  0  0  0  0  0
   66.2010   57.0920   30.4500 S   0  0  0  0  0  0  0  0  0  0  0  0
   66.3480   57.7780   33.1670 N   0  0  0  0  0  0  0  0  0  0  0  0
   67.5490   57.1350   33.3390 C   0  0  0  0  0  0  0  0  0  0  0  0
   67.8150   56.0030   32.7820 N   0  0  0  0  0  0  0  0  0  0  0  0
   68.5110   57.7930   34.1790 N   0  0  0  0  0  0  0  0  0  0  0  0
   67.1570   55.5030   32.2030 H   0  0  0  0  0  0  0  0  0  0  0  0
   61.6100   56.6560   25.8900 C   0  0  0  0  0  0  0  0  0  0  0  0
   60.7300   55.6680   26.2260 C   0  0  0  0  0  0  0  0  0  0  0  0
   59.5410   55.9850   25.5480 C   0  0  0  0  0  0  0  0  0  0  0  0
   59.7800   57.1480   24.8460 C   0  0  0  0  0  0  0  0  0  0  0  0
   61.0240   57.4760   25.1020 O   0  0  0  0  0  0  0  0  0  0  0  0
   58.9960   57.9570   23.9890 N   0  0  0  0  0  0  0  0  0  0  0  0
   59.1420   59.3020   24.1490 C   0  0  0  0  0  0  0  0  0  0  0  0
   58.2980   59.9240   23.2640 C   0  0  0  0  0  0  0  0  0  0  0  0
   57.6560   58.9300   22.5790 N   0  0  0  0  0  0  0  0  0  0  0  0
   58.0980   57.7550   23.0390 C   0  0  0  0  0  0  0  0  0  0  0  0
   57.7230   56.4460   22.6280 N   0  0  0  0  0  0  0  0  0  0  0  0
   56.4570   56.4160   21.8860 C   0  0  0  0  0  0  0  0  0  0  0  0
   56.2900   54.9840   21.4680 C   0  0  0  0  0  0  0  0  0  0  0  0
   57.7440   54.4950   21.4120 C   0  0  0  0  0  0  0  0  0  0  0  0
   58.2440   55.1060   22.7280 C   0  0  0  0  0  0  0  0  0  0  0  0
   66.2046   56.5899   25.2572 H   0  0  0  0  0  0  0  0  0  0  0  0
   63.8353   56.3962   24.4003 H   0  0  0  0  0  0  0  0  0  0  0  0
   62.8974   58.3151   30.0785 H   0  0  0  0  0  0  0  0  0  0  0  0
   63.6939   58.6454   32.4451 H   0  0  0  0  0  0  0  0  0  0  0  0
   65.9613   58.3145   33.9567 H   0  0  0  0  0  0  0  0  0  0  0  0
   69.4305   57.3599   34.3461 H   0  0  0  0  0  0  0  0  0  0  0  0
   68.2812   58.6979   34.6141 H   0  0  0  0  0  0  0  0  0  0  0  0
   60.9128   54.8075   26.8865 H   0  0  0  0  0  0  0  0  0  0  0  0
   58.6004   55.4153   25.5723 H   0  0  0  0  0  0  0  0  0  0  0  0
   59.8164   59.8005   24.8609 H   0  0  0  0  0  0  0  0  0  0  0  0
   58.1643   61.0078   23.1317 H   0  0  0  0  0  0  0  0  0  0  0  0
   55.6230   56.7312   22.5302 H   0  0  0  0  0  0  0  0  0  0  0  0
   56.4643   57.1011   21.0254 H   0  0  0  0  0  0  0  0  0  0  0  0
   55.7062   54.4173   22.2082 H   0  0  0  0  0  0  0  0  0  0  0  0
   55.7439   54.8596   20.5212 H   0  0  0  0  0  0  0  0  0  0  0  0
   57.8118   53.3971   21.4133 H   0  0  0  0  0  0  0  0  0  0  0  0
   58.3075   54.7783   20.5108 H   0  0  0  0  0  0  0  0  0  0  0  0
   59.3427   55.1033   22.7823 H   0  0  0  0  0  0  0  0  0  0  0  0
   57.9241   54.5625   23.6293 H   0  0  0  0  0  0  0  0  0  0  0  0
  1  6  2  0
  2  1  1  0
  2  3  2  0
  3  4  1  0
  4  5  2  0
  5  7  1  0
  6  5  1  0
  7  8  2  0
  7 11  1  0
  8  9  1  0
  9 10  2  0
 10 12  1  0
 11 10  1  0
 12 13  1  0
 13 15  1  0
 14 13  2  0
 16 14  1  0
 17 18  2  0
 17  3  1  0
 19 18  1  0
 20 21  1  0
 20 19  2  0
 21 17  1  0
 22 23  1  0
 22 20  1  0
 24 23  2  0
 25 26  2  0
 25 24  1  0
 26 22  1  0
 27 31  1  0
 27 26  1  0
 28 27  1  0
 29 28  1  0
 30 29  1  0
 30 31  1  0
  1 32  1  0
  2 33  1  0
  8 34  1  0
  9 35  1  0
 12 36  1  0
 15 37  1  0
 15 38  1  0
 18 39  1  0
 19 40  1  0
 23 41  1  0
 24 42  1  0
 28 43  1  0
 28 44  1  0
 29 45  1  0
 29 46  1  0
 30 47  1  0
 30 48  1  0
 31 49  1  0
 31 50  1  0
M  END
>  <Score>  (1) 
-7.63898

$$$$
