
     RDKit          3D

 43 47  0  0  0  0  0  0  0  0999 V2000
   60.3550   58.6330   25.5830 C   0  0  0  0  0  0  0  0  0  0  0  0
   61.2480   59.2460   24.7180 C   0  0  0  0  0  0  0  0  0  0  0  0
   60.5370   59.9880   23.7770 C   0  0  0  0  0  0  0  0  0  0  0  0
   59.2100   59.7770   24.1330 C   0  0  0  0  0  0  0  0  0  0  0  0
   59.1740   58.9970   25.1680 O   0  0  0  0  0  0  0  0  0  0  0  0
   58.0830   60.3650   23.4180 C   0  0  0  0  0  0  0  0  0  0  0  0
   57.5150   59.9810   22.2300 C   0  0  0  0  0  0  0  0  0  0  0  0
   56.5060   60.7830   21.9270 N   0  0  0  0  0  0  0  0  0  0  0  0
   56.3700   61.6990   22.8700 C   0  0  0  0  0  0  0  0  0  0  0  0
   55.4720   62.7290   22.9830 C   0  0  0  0  0  0  0  0  0  0  0  0
   55.5770   63.5390   24.1020 C   0  0  0  0  0  0  0  0  0  0  0  0
   56.5300   63.3710   25.1070 C   0  0  0  0  0  0  0  0  0  0  0  0
   57.4010   62.3120   24.9240 C   0  0  0  0  0  0  0  0  0  0  0  0
   57.3560   61.4680   23.8390 C   0  0  0  0  0  0  0  0  0  0  0  0
   60.6630   57.7990   26.6700 O   0  0  0  0  0  0  0  0  0  0  0  0
   61.5140   56.7170   26.4050 C   0  0  0  0  0  0  0  0  0  0  0  0
   61.0910   55.6670   25.8980 O   0  0  0  0  0  0  0  0  0  0  0  0
   65.2450   56.8200   26.1450 C   0  0  0  0  0  0  0  0  0  0  0  0
   63.8820   56.7030   25.7600 C   0  0  0  0  0  0  0  0  0  0  0  0
   62.9210   56.8260   26.7310 C   0  0  0  0  0  0  0  0  0  0  0  0
   63.3180   57.0500   27.9980 N   0  0  0  0  0  0  0  0  0  0  0  0
   64.6270   57.1590   28.3470 C   0  0  0  0  0  0  0  0  0  0  0  0
   65.5790   57.0450   27.4310 N   0  0  0  0  0  0  0  0  0  0  0  0
   64.9790   57.4050   29.7520 C   0  0  0  0  0  0  0  0  0  0  0  0
   64.0690   58.0570   30.5810 C   0  0  0  0  0  0  0  0  0  0  0  0
   64.4190   58.2850   31.9170 C   0  0  0  0  0  0  0  0  0  0  0  0
   65.6590   57.8430   32.3280 C   0  0  0  0  0  0  0  0  0  0  0  0
   66.5520   57.1990   31.4980 C   0  0  0  0  0  0  0  0  0  0  0  0
   66.1880   56.9940   30.2200 N   0  0  0  0  0  0  0  0  0  0  0  0
   62.3436   59.1603   24.7667 H   0  0  0  0  0  0  0  0  0  0  0  0
   60.9318   60.5959   22.9496 H   0  0  0  0  0  0  0  0  0  0  0  0
   57.8492   59.1303   21.6179 H   0  0  0  0  0  0  0  0  0  0  0  0
   55.9173   60.7050   21.0854 H   0  0  0  0  0  0  0  0  0  0  0  0
   54.7013   62.9046   22.2180 H   0  0  0  0  0  0  0  0  0  0  0  0
   54.8623   64.3688   24.2048 H   0  0  0  0  0  0  0  0  0  0  0  0
   56.5849   64.0339   25.9831 H   0  0  0  0  0  0  0  0  0  0  0  0
   58.1720   62.1352   25.6883 H   0  0  0  0  0  0  0  0  0  0  0  0
   66.0353   56.7260   25.3856 H   0  0  0  0  0  0  0  0  0  0  0  0
   63.6051   56.5188   24.7115 H   0  0  0  0  0  0  0  0  0  0  0  0
   63.0938   58.3865   30.1931 H   0  0  0  0  0  0  0  0  0  0  0  0
   63.7338   58.7953   32.6099 H   0  0  0  0  0  0  0  0  0  0  0  0
   65.9514   58.0135   33.3746 H   0  0  0  0  0  0  0  0  0  0  0  0
   67.5314   56.8635   31.8697 H   0  0  0  0  0  0  0  0  0  0  0  0
  1 15  1  0
  2  1  2  0
  3  4  2  0
  3  2  1  0
  4  5  1  0
  5  1  1  0
  6 14  1  0
  6  4  1  0
  7  6  2  0
  8  7  1  0
  8  9  1  0
  9 10  2  0
  9 14  1  0
 10 11  1  0
 11 12  2  0
 13 12  1  0
 14 13  2  0
 16 15  1  0
 16 20  1  0
 17 16  2  0
 18 23  2  0
 19 18  1  0
 19 20  2  0
 20 21  1  0
 21 22  2  0
 22 24  1  0
 23 22  1  0
 24 29  1  0
 24 25  2  0
 25 26  1  0
 26 27  2  0
 28 27  1  0
 29 28  2  0
  2 30  1  0
  3 31  1  0
  7 32  1  0
  8 33  1  0
 10 34  1  0
 11 35  1  0
 12 36  1  0
 13 37  1  0
 18 38  1  0
 19 39  1  0
 25 40  1  0
 26 41  1  0
 27 42  1  0
 28 43  1  0
M  END
>  <Score>  (1) 
-7.36211

$$$$
