
     RDKit          3D

 33 36  0  0  0  0  0  0  0  0999 V2000
   61.2430   57.0370   26.2020 C   0  0  0  0  0  0  0  0  0  0  0  0
   60.7680   55.7090   26.1860 C   0  0  0  0  0  0  0  0  0  0  0  0
   59.8550   55.2380   25.2730 C   0  0  0  0  0  0  0  0  0  0  0  0
   59.3730   56.0970   24.3220 C   0  0  0  0  0  0  0  0  0  0  0  0
   59.8190   57.3880   24.3190 C   0  0  0  0  0  0  0  0  0  0  0  0
   59.3820   58.3160   23.3960 C   0  0  0  0  0  0  0  0  0  0  0  0
   59.8270   59.6330   23.3840 C   0  0  0  0  0  0  0  0  0  0  0  0
   60.7470   60.0420   24.3300 C   0  0  0  0  0  0  0  0  0  0  0  0
   61.2050   59.1390   25.2680 C   0  0  0  0  0  0  0  0  0  0  0  0
   60.7310   57.8570   25.2320 C   0  0  0  0  0  0  0  0  0  0  0  0
   63.4990   56.8340   26.9640 C   0  0  0  0  0  0  0  0  0  0  0  0
   62.2000   57.3160   27.2480 C   0  0  0  0  0  0  0  0  0  0  0  0
   62.0430   57.9700   28.4680 C   0  0  0  0  0  0  0  0  0  0  0  0
   63.0850   58.1140   29.2980 N   0  0  0  0  0  0  0  0  0  0  0  0
   64.3180   57.6410   28.9980 C   0  0  0  0  0  0  0  0  0  0  0  0
   64.5230   57.0020   27.8330 N   0  0  0  0  0  0  0  0  0  0  0  0
   65.4070   57.8330   29.9500 C   0  0  0  0  0  0  0  0  0  0  0  0
   65.6310   58.9180   30.7710 C   0  0  0  0  0  0  0  0  0  0  0  0
   66.7850   58.6510   31.4970 C   0  0  0  0  0  0  0  0  0  0  0  0
   67.2380   57.4350   31.1180 N   0  0  0  0  0  0  0  0  0  0  0  0
   66.3990   56.9700   30.1950 N   0  0  0  0  0  0  0  0  0  0  0  0
   61.1494   55.0116   26.9464 H   0  0  0  0  0  0  0  0  0  0  0  0
   59.5181   54.1914   25.3057 H   0  0  0  0  0  0  0  0  0  0  0  0
   58.6414   55.7544   23.5755 H   0  0  0  0  0  0  0  0  0  0  0  0
   58.6505   58.0003   22.6375 H   0  0  0  0  0  0  0  0  0  0  0  0
   59.4512   60.3408   22.6305 H   0  0  0  0  0  0  0  0  0  0  0  0
   61.1118   61.0797   24.3356 H   0  0  0  0  0  0  0  0  0  0  0  0
   61.9372   59.4448   26.0298 H   0  0  0  0  0  0  0  0  0  0  0  0
   63.6814   56.3101   26.0142 H   0  0  0  0  0  0  0  0  0  0  0  0
   61.0584   58.3703   28.7514 H   0  0  0  0  0  0  0  0  0  0  0  0
   65.0121   59.8248   30.8384 H   0  0  0  0  0  0  0  0  0  0  0  0
   67.2473   59.3108   32.2460 H   0  0  0  0  0  0  0  0  0  0  0  0
   68.0768   56.9569   31.4769 H   0  0  0  0  0  0  0  0  0  0  0  0
  1 12  1  0
  2  1  2  0
  3  2  1  0
  4  3  2  0
  5  4  1  0
  5 10  2  0
  6  5  1  0
  7  6  2  0
  7  8  1  0
  8  9  2  0
 10  9  1  0
 10  1  1  0
 11 12  2  0
 11 16  1  0
 12 13  1  0
 13 14  2  0
 15 14  1  0
 15 17  1  0
 16 15  2  0
 17 21  2  0
 17 18  1  0
 18 19  2  0
 20 19  1  0
 21 20  1  0
  2 22  1  0
  3 23  1  0
  4 24  1  0
  6 25  1  0
  7 26  1  0
  8 27  1  0
  9 28  1  0
 11 29  1  0
 13 30  1  0
 18 31  1  0
 19 32  1  0
 20 33  1  0
M  END
>  <Score>  (1) 
-7.00545

$$$$
