
     RDKit          3D

 41 44  0  0  1  0  0  0  0  0999 V2000
   59.6030   60.6560   28.0640 C   0  0  2  0  0  0  0  0  0  0  0  0
   59.9730   62.1230   28.0960 C   0  0  0  0  0  0  0  0  0  0  0  0
   59.2290   61.4170   29.2450 C   0  0  1  0  0  0  0  0  0  0  0  0
   61.9110   57.8360   27.1300 C   0  0  0  0  0  0  0  0  0  0  0  0
   60.8950   58.7880   27.0230 C   0  0  0  0  0  0  0  0  0  0  0  0
   60.6740   59.6380   28.1110 C   0  0  0  0  0  0  0  0  0  0  0  0
   61.4720   59.4860   29.2270 N   0  0  0  0  0  0  0  0  0  0  0  0
   62.4380   58.5510   29.2760 C   0  0  0  0  0  0  0  0  0  0  0  0
   62.6510   57.7370   28.2330 N   0  0  0  0  0  0  0  0  0  0  0  0
   63.2270   58.4270   30.4400 N   0  0  0  0  0  0  0  0  0  0  0  0
   64.4310   57.6720   30.4250 C   0  0  0  0  0  0  0  0  0  0  0  0
   64.4910   56.7220   29.5420 N   0  0  0  0  0  0  0  0  0  0  0  0
   65.4270   58.0440   31.3790 N   0  0  0  0  0  0  0  0  0  0  0  0
   65.3300   56.1410   29.3890 H   0  0  0  0  0  0  0  0  0  0  0  0
   62.1330   56.9380   25.9420 C   0  0  0  0  0  0  0  0  0  0  0  0
   61.9150   55.6380   26.1940 F   0  0  0  0  0  0  0  0  0  0  0  0
   61.2540   57.3970   24.9320 F   0  0  0  0  0  0  0  0  0  0  0  0
   63.4050   57.1810   25.4120 F   0  0  0  0  0  0  0  0  0  0  0  0
   57.9470   61.9730   29.5040 N   0  0  0  0  0  0  0  0  0  0  0  0
   57.8470   63.3140   29.7330 C   0  0  0  0  0  0  0  0  0  0  0  0
   56.5620   63.6530   29.9560 N   0  0  0  0  0  0  0  0  0  0  0  0
   55.8390   62.5180   29.8700 C   0  0  0  0  0  0  0  0  0  0  0  0
   54.4970   62.2640   30.0060 C   0  0  0  0  0  0  0  0  0  0  0  0
   53.6800   63.1730   30.2590 O   0  0  0  0  0  0  0  0  0  0  0  0
   54.0910   60.9880   29.8540 N   0  0  0  0  0  0  0  0  0  0  0  0
   54.9690   59.9980   29.5790 C   0  0  0  0  0  0  0  0  0  0  0  0
   54.3760   58.7120   29.4510 N   0  0  0  0  0  0  0  0  0  0  0  0
   56.3040   60.2320   29.4400 N   0  0  0  0  0  0  0  0  0  0  0  0
   56.7200   61.4840   29.5870 C   0  0  0  0  0  0  0  0  0  0  0  0
   59.0353   60.0145   27.3739 H   0  0  0  0  0  0  0  0  0  0  0  0
   61.0218   62.4320   28.2163 H   0  0  0  0  0  0  0  0  0  0  0  0
   59.8000   63.0015   27.4570 H   0  0  0  0  0  0  0  0  0  0  0  0
   59.3540   61.1649   30.3084 H   0  0  0  0  0  0  0  0  0  0  0  0
   60.2866   58.8669   26.1099 H   0  0  0  0  0  0  0  0  0  0  0  0
   62.9266   58.8890   31.3102 H   0  0  0  0  0  0  0  0  0  0  0  0
   66.3207   57.5334   31.4162 H   0  0  0  0  0  0  0  0  0  0  0  0
   65.2514   58.8229   32.0297 H   0  0  0  0  0  0  0  0  0  0  0  0
   58.6930   64.0170   29.7353 H   0  0  0  0  0  0  0  0  0  0  0  0
   53.0905   60.7625   29.9494 H   0  0  0  0  0  0  0  0  0  0  0  0
   54.9637   57.8924   29.2417 H   0  0  0  0  0  0  0  0  0  0  0  0
   53.3588   58.6000   29.5675 H   0  0  0  0  0  0  0  0  0  0  0  0
  1  2  1  0
  1  6  1  0
  1  3  1  0
  2  3  1  0
  3 19  1  0
  4  9  2  0
  5  4  1  0
  5  6  2  0
  6  7  1  0
  7  8  2  0
  8 10  1  0
  9  8  1  0
 11 10  1  0
 11 13  1  0
 12 11  2  0
 14 12  1  0
 15 16  1  0
 15  4  1  0
 17 15  1  0
 18 15  1  0
 19 29  1  0
 19 20  1  0
 20 21  2  0
 22 21  1  0
 22 23  1  0
 23 24  2  0
 25 23  1  0
 26 25  1  0
 27 26  1  0
 28 26  2  0
 28 29  1  0
 29 22  2  0
  1 30  1  6
  2 31  1  0
  2 32  1  0
  3 33  1  1
  5 34  1  0
 10 35  1  0
 13 36  1  0
 13 37  1  0
 20 38  1  0
 25 39  1  0
 27 40  1  0
 27 41  1  0
M  END
>  <Score>  (1) 
-7.43713

$$$$
