
     RDKit          3D

 50 54  0  0  1  0  0  0  0  0999 V2000
   61.4230   56.9250   26.3150 N   0  0  0  0  0  0  0  0  0  0  0  0
   60.8990   55.6030   25.9950 C   0  0  0  0  0  0  0  0  0  0  0  0
   59.9280   55.8420   24.8810 C   0  0  0  0  0  0  0  0  0  0  0  0
   59.3440   57.1910   25.2950 C   0  0  0  0  0  0  0  0  0  0  0  0
   60.7470   57.9020   25.5750 C   0  0  1  0  0  0  0  0  0  0  0  0
   60.4640   59.1910   26.1880 C   0  0  0  0  0  0  0  0  0  0  0  0
   60.8410   59.8240   27.3310 C   0  0  0  0  0  0  0  0  0  0  0  0
   60.3640   61.0700   27.4400 N   0  0  0  0  0  0  0  0  0  0  0  0
   59.6380   61.2890   26.3410 C   0  0  0  0  0  0  0  0  0  0  0  0
   58.8880   62.4020   25.9880 C   0  0  0  0  0  0  0  0  0  0  0  0
   58.1540   62.4300   24.8380 C   0  0  0  0  0  0  0  0  0  0  0  0
   58.1830   61.3250   24.0440 C   0  0  0  0  0  0  0  0  0  0  0  0
   58.9300   60.2030   24.3840 C   0  0  0  0  0  0  0  0  0  0  0  0
   59.6790   60.1680   25.5570 C   0  0  0  0  0  0  0  0  0  0  0  0
   63.8140   57.0930   26.9140 C   0  0  0  0  0  0  0  0  0  0  0  0
   62.4430   57.1700   27.2540 C   0  0  0  0  0  0  0  0  0  0  0  0
   62.1890   57.5190   28.5650 C   0  0  0  0  0  0  0  0  0  0  0  0
   63.1840   57.7640   29.4290 N   0  0  0  0  0  0  0  0  0  0  0  0
   64.4580   57.6780   29.0530 C   0  0  0  0  0  0  0  0  0  0  0  0
   64.7910   57.3440   27.8060 N   0  0  0  0  0  0  0  0  0  0  0  0
   65.4840   57.9470   30.0010 N   0  0  0  0  0  0  0  0  0  0  0  0
   66.4770   56.9540   30.3630 C   0  0  0  0  0  0  0  0  0  0  0  0
   66.7990   57.1360   31.8450 C   0  0  0  0  0  0  0  0  0  0  0  0
   65.6200   57.6270   32.5090 N   0  0  0  0  0  0  0  0  0  0  0  0
   65.3170   58.9980   32.1470 C   0  0  0  0  0  0  0  0  0  0  0  0
   65.6080   59.2290   30.6680 C   0  0  0  0  0  0  0  0  0  0  0  0
   61.7080   54.9332   25.6681 H   0  0  0  0  0  0  0  0  0  0  0  0
   60.4275   55.1195   26.8632 H   0  0  0  0  0  0  0  0  0  0  0  0
   59.1548   55.0605   24.8433 H   0  0  0  0  0  0  0  0  0  0  0  0
   60.3753   55.8284   23.8762 H   0  0  0  0  0  0  0  0  0  0  0  0
   58.7765   57.6746   24.4862 H   0  0  0  0  0  0  0  0  0  0  0  0
   58.6099   57.1897   26.1142 H   0  0  0  0  0  0  0  0  0  0  0  0
   61.3912   58.1830   24.7288 H   0  0  0  0  0  0  0  0  0  0  0  0
   61.4788   59.3556   28.0951 H   0  0  0  0  0  0  0  0  0  0  0  0
   60.5248   61.7279   28.2160 H   0  0  0  0  0  0  0  0  0  0  0  0
   58.8851   63.2808   26.6496 H   0  0  0  0  0  0  0  0  0  0  0  0
   57.5601   63.3140   24.5626 H   0  0  0  0  0  0  0  0  0  0  0  0
   57.6012   61.3196   23.1105 H   0  0  0  0  0  0  0  0  0  0  0  0
   58.9293   59.3292   23.7158 H   0  0  0  0  0  0  0  0  0  0  0  0
   64.0915   56.8186   25.8855 H   0  0  0  0  0  0  0  0  0  0  0  0
   61.1469   57.5978   28.9084 H   0  0  0  0  0  0  0  0  0  0  0  0
   66.0777   55.9441   30.1879 H   0  0  0  0  0  0  0  0  0  0  0  0
   67.3847   57.0779   29.7541 H   0  0  0  0  0  0  0  0  0  0  0  0
   67.0968   56.1713   32.2817 H   0  0  0  0  0  0  0  0  0  0  0  0
   67.6267   57.8502   31.9671 H   0  0  0  0  0  0  0  0  0  0  0  0
   64.8209   57.0312   32.2493 H   0  0  0  0  0  0  0  0  0  0  0  0
   64.2536   59.1992   32.3438 H   0  0  0  0  0  0  0  0  0  0  0  0
   65.9444   59.6744   32.7461 H   0  0  0  0  0  0  0  0  0  0  0  0
   66.6274   59.6226   30.5415 H   0  0  0  0  0  0  0  0  0  0  0  0
   64.9058   59.9605   30.2416 H   0  0  0  0  0  0  0  0  0  0  0  0
  1 16  1  0
  2  1  1  0
  3  4  1  0
  3  2  1  0
  4  5  1  0
  5  6  1  0
  5  1  1  0
  6  7  2  0
  7  8  1  0
  9  8  1  0
 10  9  2  0
 11 10  1  0
 12 13  1  0
 12 11  2  0
 13 14  2  0
 14  6  1  0
 14  9  1  0
 15 16  2  0
 15 20  1  0
 16 17  1  0
 17 18  2  0
 19 18  1  0
 19 21  1  0
 20 19  2  0
 21 22  1  0
 21 26  1  0
 22 23  1  0
 23 24  1  0
 25 24  1  0
 26 25  1  0
  2 27  1  0
  2 28  1  0
  3 29  1  0
  3 30  1  0
  4 31  1  0
  4 32  1  0
  5 33  1  6
  7 34  1  0
  8 35  1  0
 10 36  1  0
 11 37  1  0
 12 38  1  0
 13 39  1  0
 15 40  1  0
 17 41  1  0
 22 42  1  0
 22 43  1  0
 23 44  1  0
 23 45  1  0
 24 46  1  0
 25 47  1  0
 25 48  1  0
 26 49  1  0
 26 50  1  0
M  END
>  <Score>  (1) 
-7.03917

$$$$
