
     RDKit          3D

 48 53  0  0  0  0  0  0  0  0999 V2000
   60.8850   58.0950   27.0260 O   0  0  0  0  0  0  0  0  0  0  0  0
   60.5280   58.7600   25.8550 C   0  0  0  0  0  0  0  0  0  0  0  0
   61.3840   59.0890   24.8030 C   0  0  0  0  0  0  0  0  0  0  0  0
   60.6720   59.7500   23.8010 C   0  0  0  0  0  0  0  0  0  0  0  0
   59.3710   59.7830   24.3280 C   0  0  0  0  0  0  0  0  0  0  0  0
   59.3790   59.2130   25.4710 O   0  0  0  0  0  0  0  0  0  0  0  0
   58.2520   60.3910   23.6170 C   0  0  0  0  0  0  0  0  0  0  0  0
   57.6930   60.0240   22.4100 C   0  0  0  0  0  0  0  0  0  0  0  0
   56.6840   60.8510   22.1290 N   0  0  0  0  0  0  0  0  0  0  0  0
   56.5430   61.7620   23.0990 C   0  0  0  0  0  0  0  0  0  0  0  0
   55.6530   62.7840   23.2200 C   0  0  0  0  0  0  0  0  0  0  0  0
   55.7530   63.5710   24.3470 C   0  0  0  0  0  0  0  0  0  0  0  0
   56.6980   63.3760   25.3460 C   0  0  0  0  0  0  0  0  0  0  0  0
   57.5670   62.3190   25.1540 C   0  0  0  0  0  0  0  0  0  0  0  0
   57.5290   61.4890   24.0520 C   0  0  0  0  0  0  0  0  0  0  0  0
   61.6580   56.9310   26.8820 C   0  0  0  0  0  0  0  0  0  0  0  0
   61.1490   55.8410   26.5490 O   0  0  0  0  0  0  0  0  0  0  0  0
   65.3700   56.7970   26.4770 C   0  0  0  0  0  0  0  0  0  0  0  0
   63.9980   56.7160   26.1450 C   0  0  0  0  0  0  0  0  0  0  0  0
   63.0900   56.9930   27.1240 C   0  0  0  0  0  0  0  0  0  0  0  0
   63.5660   57.3180   28.3240 N   0  0  0  0  0  0  0  0  0  0  0  0
   64.8540   57.4040   28.6770 C   0  0  0  0  0  0  0  0  0  0  0  0
   65.7590   57.1340   27.7180 N   0  0  0  0  0  0  0  0  0  0  0  0
   65.5400   57.6470   29.9620 C   0  0  0  0  0  0  0  0  0  0  0  0
   66.1230   56.7640   30.6360 N   0  0  0  0  0  0  0  0  0  0  0  0
   66.7350   56.5810   31.7540 C   0  0  0  0  0  0  0  0  0  0  0  0
   66.7020   57.7940   32.3430 N   0  0  0  0  0  0  0  0  0  0  0  0
   66.1580   58.8810   31.8470 C   0  0  0  0  0  0  0  0  0  0  0  0
   66.1500   60.1350   32.4810 C   0  0  0  0  0  0  0  0  0  0  0  0
   65.5740   61.2230   31.9030 C   0  0  0  0  0  0  0  0  0  0  0  0
   64.9420   61.2320   30.6550 C   0  0  0  0  0  0  0  0  0  0  0  0
   64.9620   59.9680   30.0430 C   0  0  0  0  0  0  0  0  0  0  0  0
   65.5290   58.8870   30.6050 C   0  0  0  0  0  0  0  0  0  0  0  0
   62.4596   58.8613   24.7687 H   0  0  0  0  0  0  0  0  0  0  0  0
   61.0374   60.1450   22.8416 H   0  0  0  0  0  0  0  0  0  0  0  0
   58.0254   59.1851   21.7809 H   0  0  0  0  0  0  0  0  0  0  0  0
   56.0967   60.7959   21.2847 H   0  0  0  0  0  0  0  0  0  0  0  0
   54.8879   62.9736   22.4527 H   0  0  0  0  0  0  0  0  0  0  0  0
   55.0424   64.4027   24.4621 H   0  0  0  0  0  0  0  0  0  0  0  0
   56.7513   64.0225   26.2344 H   0  0  0  0  0  0  0  0  0  0  0  0
   58.3313   62.1286   25.9219 H   0  0  0  0  0  0  0  0  0  0  0  0
   66.1282   56.5814   25.7098 H   0  0  0  0  0  0  0  0  0  0  0  0
   63.6739   56.4388   25.1310 H   0  0  0  0  0  0  0  0  0  0  0  0
   67.1808   55.6520   32.1390 H   0  0  0  0  0  0  0  0  0  0  0  0
   66.6214   60.2392   33.4694 H   0  0  0  0  0  0  0  0  0  0  0  0
   65.6077   62.1705   32.4607 H   0  0  0  0  0  0  0  0  0  0  0  0
   64.4830   62.1248   30.2055 H   0  0  0  0  0  0  0  0  0  0  0  0
   64.4905   59.8575   29.0553 H   0  0  0  0  0  0  0  0  0  0  0  0
  2  1  1  0
  3  2  2  0
  4  5  2  0
  4  3  1  0
  5  6  1  0
  6  2  1  0
  7 15  1  0
  7  5  1  0
  8  7  2  0
  9  8  1  0
  9 10  1  0
 10 11  2  0
 10 15  1  0
 11 12  1  0
 12 13  2  0
 14 13  1  0
 15 14  2  0
 16  1  1  0
 16 20  1  0
 17 16  2  0
 18 23  2  0
 19 18  1  0
 19 20  2  0
 20 21  1  0
 21 22  2  0
 22 24  1  0
 23 22  1  0
 24 33  1  0
 24 25  2  0
 25 26  1  0
 26 27  2  0
 28 27  1  0
 28 29  2  0
 30 29  1  0
 31 30  2  0
 32 33  2  0
 32 31  1  0
 33 28  1  0
  3 34  1  0
  4 35  1  0
  8 36  1  0
  9 37  1  0
 11 38  1  0
 12 39  1  0
 13 40  1  0
 14 41  1  0
 18 42  1  0
 19 43  1  0
 26 44  1  0
 29 45  1  0
 30 46  1  0
 31 47  1  0
 32 48  1  0
M  END
>  <Score>  (1) 
-7.15448

$$$$
