
     RDKit          3D

 33 35  0  0  0  0  0  0  0  0999 V2000
   61.3210   56.7870   26.0710 C   0  0  0  0  0  0  0  0  0  0  0  0
   60.7220   55.5190   26.0630 C   0  0  0  0  0  0  0  0  0  0  0  0
   59.6760   55.1770   25.2420 C   0  0  0  0  0  0  0  0  0  0  0  0
   59.1800   56.1140   24.3810 C   0  0  0  0  0  0  0  0  0  0  0  0
   59.7520   57.3570   24.3750 C   0  0  0  0  0  0  0  0  0  0  0  0
   59.3180   58.3720   23.5340 C   0  0  0  0  0  0  0  0  0  0  0  0
   59.8900   59.6260   23.5210 C   0  0  0  0  0  0  0  0  0  0  0  0
   60.9420   59.9090   24.3720 C   0  0  0  0  0  0  0  0  0  0  0  0
   61.4030   58.9280   25.2230 C   0  0  0  0  0  0  0  0  0  0  0  0
   60.7960   57.7010   25.1920 C   0  0  0  0  0  0  0  0  0  0  0  0
   63.6880   57.0080   26.3900 C   0  0  0  0  0  0  0  0  0  0  0  0
   62.4140   56.9270   27.0200 C   0  0  0  0  0  0  0  0  0  0  0  0
   62.4040   56.9870   28.4130 C   0  0  0  0  0  0  0  0  0  0  0  0
   63.5770   57.1150   29.0600 N   0  0  0  0  0  0  0  0  0  0  0  0
   64.7620   57.1900   28.4540 C   0  0  0  0  0  0  0  0  0  0  0  0
   64.8280   57.1360   27.0950 N   0  0  0  0  0  0  0  0  0  0  0  0
   65.9630   57.3250   29.2050 N   0  0  0  0  0  0  0  0  0  0  0  0
   65.9150   57.7010   30.5810 C   0  0  0  0  0  0  0  0  0  0  0  0
   64.8470   57.3300   31.2420 N   0  0  0  0  0  0  0  0  0  0  0  0
   67.0210   58.4450   31.1320 N   0  0  0  0  0  0  0  0  0  0  0  0
   64.6710   57.5260   32.2310 H   0  0  0  0  0  0  0  0  0  0  0  0
   61.1118   54.7560   26.7528 H   0  0  0  0  0  0  0  0  0  0  0  0
   59.2448   54.1656   25.2771 H   0  0  0  0  0  0  0  0  0  0  0  0
   58.3420   55.8755   23.7095 H   0  0  0  0  0  0  0  0  0  0  0  0
   58.4822   58.1671   22.8488 H   0  0  0  0  0  0  0  0  0  0  0  0
   59.5108   60.3987   22.8360 H   0  0  0  0  0  0  0  0  0  0  0  0
   61.4060   60.9063   24.3699 H   0  0  0  0  0  0  0  0  0  0  0  0
   62.2385   59.1259   25.9106 H   0  0  0  0  0  0  0  0  0  0  0  0
   63.7429   56.9646   25.2922 H   0  0  0  0  0  0  0  0  0  0  0  0
   61.4577   56.9309   28.9710 H   0  0  0  0  0  0  0  0  0  0  0  0
   66.8720   57.1504   28.7532 H   0  0  0  0  0  0  0  0  0  0  0  0
   67.0091   58.7276   32.1224 H   0  0  0  0  0  0  0  0  0  0  0  0
   67.8227   58.6937   30.5351 H   0  0  0  0  0  0  0  0  0  0  0  0
  1 12  1  0
  2  1  2  0
  3  2  1  0
  4  3  2  0
  5  4  1  0
  5 10  2  0
  6  5  1  0
  7  6  2  0
  7  8  1  0
  8  9  2  0
 10  9  1  0
 10  1  1  0
 11 12  2  0
 11 16  1  0
 12 13  1  0
 13 14  2  0
 15 14  1  0
 15 17  1  0
 16 15  2  0
 17 18  1  0
 18 20  1  0
 18 19  2  0
 19 21  1  0
  2 22  1  0
  3 23  1  0
  4 24  1  0
  6 25  1  0
  7 26  1  0
  8 27  1  0
  9 28  1  0
 11 29  1  0
 13 30  1  0
 17 31  1  0
 20 32  1  0
 20 33  1  0
M  END
>  <Score>  (1) 
-7.94585

$$$$
