
     RDKit          3D

 41 45  0  0  0  0  0  0  0  0999 V2000
   63.5120   56.9680   27.1280 C   0  0  0  0  0  0  0  0  0  0  0  0
   62.1900   57.4470   27.3520 C   0  0  0  0  0  0  0  0  0  0  0  0
   61.9870   58.1730   28.5240 C   0  0  0  0  0  0  0  0  0  0  0  0
   63.0070   58.3850   29.3660 N   0  0  0  0  0  0  0  0  0  0  0  0
   64.2460   57.9270   29.1390 C   0  0  0  0  0  0  0  0  0  0  0  0
   64.5030   57.2180   28.0210 N   0  0  0  0  0  0  0  0  0  0  0  0
   61.2770   57.0870   26.3040 C   0  0  0  0  0  0  0  0  0  0  0  0
   60.8610   55.7640   26.3010 C   0  0  0  0  0  0  0  0  0  0  0  0
   59.9910   55.2260   25.3830 C   0  0  0  0  0  0  0  0  0  0  0  0
   59.4860   56.0330   24.3940 C   0  0  0  0  0  0  0  0  0  0  0  0
   59.8750   57.3340   24.3690 C   0  0  0  0  0  0  0  0  0  0  0  0
   59.4200   58.2220   23.4130 C   0  0  0  0  0  0  0  0  0  0  0  0
   59.8070   59.5440   23.3770 C   0  0  0  0  0  0  0  0  0  0  0  0
   60.6820   60.0270   24.3240 C   0  0  0  0  0  0  0  0  0  0  0  0
   61.1670   59.1800   25.3050 C   0  0  0  0  0  0  0  0  0  0  0  0
   60.7460   57.8650   25.2910 C   0  0  0  0  0  0  0  0  0  0  0  0
   65.3110   58.1940   30.0960 C   0  0  0  0  0  0  0  0  0  0  0  0
   66.0750   57.1380   30.5800 C   0  0  0  0  0  0  0  0  0  0  0  0
   67.0870   57.4290   31.4950 C   0  0  0  0  0  0  0  0  0  0  0  0
   67.3400   58.6910   31.9160 N   0  0  0  0  0  0  0  0  0  0  0  0
   66.5640   59.6670   31.4080 C   0  0  0  0  0  0  0  0  0  0  0  0
   65.5590   59.4480   30.5120 N   0  0  0  0  0  0  0  0  0  0  0  0
   66.7680   61.0540   31.8090 C   0  0  0  0  0  0  0  0  0  0  0  0
   67.9530   61.7650   31.7390 C   0  0  0  0  0  0  0  0  0  0  0  0
   67.7220   63.0410   32.2130 C   0  0  0  0  0  0  0  0  0  0  0  0
   66.4310   63.1020   32.5620 N   0  0  0  0  0  0  0  0  0  0  0  0
   65.8800   61.9220   32.3180 N   0  0  0  0  0  0  0  0  0  0  0  0
   63.7329   56.3880   26.2198 H   0  0  0  0  0  0  0  0  0  0  0  0
   60.9889   58.5721   28.7577 H   0  0  0  0  0  0  0  0  0  0  0  0
   61.2536   55.1008   27.0859 H   0  0  0  0  0  0  0  0  0  0  0  0
   59.7040   54.1656   25.4399 H   0  0  0  0  0  0  0  0  0  0  0  0
   58.7863   55.6372   23.6432 H   0  0  0  0  0  0  0  0  0  0  0  0
   58.7187   57.8579   22.6478 H   0  0  0  0  0  0  0  0  0  0  0  0
   59.4180   60.2115   22.5940 H   0  0  0  0  0  0  0  0  0  0  0  0
   60.9942   61.0815   24.3009 H   0  0  0  0  0  0  0  0  0  0  0  0
   61.8664   59.5431   26.0724 H   0  0  0  0  0  0  0  0  0  0  0  0
   65.8873   56.1051   30.2516 H   0  0  0  0  0  0  0  0  0  0  0  0
   67.7006   56.6050   31.8881 H   0  0  0  0  0  0  0  0  0  0  0  0
   68.9145   61.3796   31.3690 H   0  0  0  0  0  0  0  0  0  0  0  0
   68.4593   63.8538   32.2894 H   0  0  0  0  0  0  0  0  0  0  0  0
   65.9492   63.9243   32.9527 H   0  0  0  0  0  0  0  0  0  0  0  0
  1  2  2  0
  1  6  1  0
  2  3  1  0
  3  4  2  0
  5  4  1  0
  5 17  1  0
  6  5  2  0
  7  2  1  0
  8  7  2  0
  9  8  1  0
 10  9  2  0
 11 10  1  0
 11 16  2  0
 12 11  1  0
 13 12  2  0
 13 14  1  0
 14 15  2  0
 16 15  1  0
 16  7  1  0
 17 22  1  0
 17 18  2  0
 18 19  1  0
 19 20  2  0
 21 23  1  0
 21 20  1  0
 22 21  2  0
 23 27  2  0
 24 23  1  0
 24 25  2  0
 25 26  1  0
 27 26  1  0
  1 28  1  0
  3 29  1  0
  8 30  1  0
  9 31  1  0
 10 32  1  0
 12 33  1  0
 13 34  1  0
 14 35  1  0
 15 36  1  0
 18 37  1  0
 19 38  1  0
 24 39  1  0
 25 40  1  0
 26 41  1  0
M  END
>  <Score>  (1) 
-7.02747

$$$$
