
     RDKit          3D

 46 49  0  0  1  0  0  0  0  0999 V2000
   62.5560   57.1800   28.1820 C   0  0  0  0  0  0  0  0  0  0  0  0
   63.7850   57.1980   28.9470 N   0  0  0  0  0  0  0  0  0  0  0  0
   64.9670   57.2000   28.3400 C   0  0  0  0  0  0  0  0  0  0  0  0
   65.9270   57.1100   29.2550 N   0  0  0  0  0  0  0  0  0  0  0  0
   65.3390   57.3360   30.4570 C   0  0  2  0  0  0  0  0  0  0  0  0
   64.0170   57.3970   30.2340 N   0  0  0  0  0  0  0  0  0  0  0  0
   65.6830   57.5300   31.8870 C   0  0  0  0  0  0  0  0  0  0  0  0
   64.9300   58.2280   32.8030 C   0  0  0  0  0  0  0  0  0  0  0  0
   65.3760   58.3250   34.0970 C   0  0  0  0  0  0  0  0  0  0  0  0
   66.5680   57.7140   34.4290 C   0  0  0  0  0  0  0  0  0  0  0  0
   67.3380   57.0120   33.5300 C   0  0  0  0  0  0  0  0  0  0  0  0
   66.8870   56.9110   32.2100 C   0  0  0  0  0  0  0  0  0  0  0  0
   62.8130   57.0820   26.6890 C   0  0  0  0  0  0  0  0  0  0  0  0
   61.5260   57.4440   26.0260 C   0  0  0  0  0  0  0  0  0  0  0  0
   61.2300   58.7120   25.5270 C   0  0  0  0  0  0  0  0  0  0  0  0
   59.9730   58.8720   24.9360 C   0  0  0  0  0  0  0  0  0  0  0  0
   59.1150   57.8210   24.8720 N   0  0  0  0  0  0  0  0  0  0  0  0
   59.4340   56.6230   25.3600 C   0  0  0  0  0  0  0  0  0  0  0  0
   60.6390   56.4570   25.9300 N   0  0  0  0  0  0  0  0  0  0  0  0
   58.5020   55.5010   25.2830 C   0  0  0  0  0  0  0  0  0  0  0  0
   58.8780   54.3370   24.6430 C   0  0  0  0  0  0  0  0  0  0  0  0
   58.0650   53.2310   24.5230 C   0  0  0  0  0  0  0  0  0  0  0  0
   56.8040   53.3010   25.0800 C   0  0  0  0  0  0  0  0  0  0  0  0
   56.4390   54.4660   25.7160 C   0  0  0  0  0  0  0  0  0  0  0  0
   57.2530   55.5950   25.8440 C   0  0  0  0  0  0  0  0  0  0  0  0
   61.9556   56.3135   28.4960 H   0  0  0  0  0  0  0  0  0  0  0  0
   62.0249   58.1243   28.3726 H   0  0  0  0  0  0  0  0  0  0  0  0
   65.0302   56.3421   27.6544 H   0  0  0  0  0  0  0  0  0  0  0  0
   65.0875   58.1315   27.7675 H   0  0  0  0  0  0  0  0  0  0  0  0
   66.3486   56.1704   29.2366 H   0  0  0  0  0  0  0  0  0  0  0  0
   65.2612   56.2514   30.6229 H   0  0  0  0  0  0  0  0  0  0  0  0
   63.6634   58.3246   30.5087 H   0  0  0  0  0  0  0  0  0  0  0  0
   63.9838   58.7016   32.5022 H   0  0  0  0  0  0  0  0  0  0  0  0
   64.7969   58.8769   34.8521 H   0  0  0  0  0  0  0  0  0  0  0  0
   66.9216   57.7923   35.4677 H   0  0  0  0  0  0  0  0  0  0  0  0
   68.2830   56.5428   33.8413 H   0  0  0  0  0  0  0  0  0  0  0  0
   67.4645   56.3608   31.4525 H   0  0  0  0  0  0  0  0  0  0  0  0
   63.6069   57.7826   26.3909 H   0  0  0  0  0  0  0  0  0  0  0  0
   63.1443   56.0730   26.4023 H   0  0  0  0  0  0  0  0  0  0  0  0
   61.9478   59.5428   25.5948 H   0  0  0  0  0  0  0  0  0  0  0  0
   59.6792   59.8483   24.5232 H   0  0  0  0  0  0  0  0  0  0  0  0
   59.8852   54.2897   24.2033 H   0  0  0  0  0  0  0  0  0  0  0  0
   58.4085   52.3250   24.0022 H   0  0  0  0  0  0  0  0  0  0  0  0
   56.1102   52.4497   25.0174 H   0  0  0  0  0  0  0  0  0  0  0  0
   55.4319   54.5118   26.1562 H   0  0  0  0  0  0  0  0  0  0  0  0
   56.9132   56.5035   26.3628 H   0  0  0  0  0  0  0  0  0  0  0  0
  1  2  1  0
  2  6  1  0
  3  2  1  0
  3  4  1  0
  4  5  1  0
  5  7  1  0
  6  5  1  0
  7 12  1  0
  7  8  2  0
  8  9  1  0
  9 10  2  0
 11 10  1  0
 12 11  2  0
 13  1  1  0
 14 13  1  0
 15 14  2  0
 16 15  1  0
 17 16  2  0
 17 18  1  0
 18 19  2  0
 19 14  1  0
 20 18  1  0
 20 25  1  0
 21 20  2  0
 22 21  1  0
 22 23  2  0
 23 24  1  0
 24 25  2  0
  1 26  1  0
  1 27  1  0
  3 28  1  0
  3 29  1  0
  4 30  1  0
  5 31  1  1
  6 32  1  0
  8 33  1  0
  9 34  1  0
 10 35  1  0
 11 36  1  0
 12 37  1  0
 13 38  1  0
 13 39  1  0
 15 40  1  0
 16 41  1  0
 21 42  1  0
 22 43  1  0
 23 44  1  0
 24 45  1  0
 25 46  1  0
M  END
>  <Score>  (1) 
-7.12814

$$$$
