
     RDKit          3D

 37 40  0  0  0  0  0  0  0  0999 V2000
   63.4600   56.9160   27.1890 C   0  0  0  0  0  0  0  0  0  0  0  0
   62.1630   57.4480   27.3620 C   0  0  0  0  0  0  0  0  0  0  0  0
   61.9600   58.2120   28.5100 C   0  0  0  0  0  0  0  0  0  0  0  0
   62.9800   58.4020   29.3720 N   0  0  0  0  0  0  0  0  0  0  0  0
   64.1950   57.8880   29.1840 C   0  0  0  0  0  0  0  0  0  0  0  0
   64.4410   57.1410   28.0900 N   0  0  0  0  0  0  0  0  0  0  0  0
   61.2540   57.0980   26.3010 C   0  0  0  0  0  0  0  0  0  0  0  0
   60.8350   55.7760   26.2910 C   0  0  0  0  0  0  0  0  0  0  0  0
   59.9740   55.2330   25.3730 C   0  0  0  0  0  0  0  0  0  0  0  0
   59.4800   56.0500   24.3810 C   0  0  0  0  0  0  0  0  0  0  0  0
   59.8700   57.3510   24.3630 C   0  0  0  0  0  0  0  0  0  0  0  0
   59.4260   58.2420   23.4050 C   0  0  0  0  0  0  0  0  0  0  0  0
   59.8170   59.5670   23.3760 C   0  0  0  0  0  0  0  0  0  0  0  0
   60.6870   60.0450   24.3320 C   0  0  0  0  0  0  0  0  0  0  0  0
   61.1610   59.1920   25.3140 C   0  0  0  0  0  0  0  0  0  0  0  0
   60.7380   57.8830   25.2950 C   0  0  0  0  0  0  0  0  0  0  0  0
   65.2510   58.1300   30.1520 C   0  0  0  0  0  0  0  0  0  0  0  0
   66.1150   57.1030   30.5130 C   0  0  0  0  0  0  0  0  0  0  0  0
   67.1100   57.3870   31.4460 C   0  0  0  0  0  0  0  0  0  0  0  0
   67.2620   58.6080   32.0020 N   0  0  0  0  0  0  0  0  0  0  0  0
   66.3970   59.5610   31.6140 C   0  0  0  0  0  0  0  0  0  0  0  0
   65.4030   59.3470   30.7090 N   0  0  0  0  0  0  0  0  0  0  0  0
   66.4670   60.9560   32.1650 C   0  0  0  0  0  0  0  0  0  0  0  0
   67.5710   61.6420   31.7080 F   0  0  0  0  0  0  0  0  0  0  0  0
   65.2740   61.6280   31.9070 F   0  0  0  0  0  0  0  0  0  0  0  0
   66.5740   60.9250   33.5520 F   0  0  0  0  0  0  0  0  0  0  0  0
   63.6761   56.3046   26.3005 H   0  0  0  0  0  0  0  0  0  0  0  0
   60.9745   58.6571   28.7117 H   0  0  0  0  0  0  0  0  0  0  0  0
   61.2227   55.1135   27.0789 H   0  0  0  0  0  0  0  0  0  0  0  0
   59.6855   54.1729   25.4274 H   0  0  0  0  0  0  0  0  0  0  0  0
   58.7867   55.6589   23.6218 H   0  0  0  0  0  0  0  0  0  0  0  0
   58.7314   57.8811   22.6322 H   0  0  0  0  0  0  0  0  0  0  0  0
   59.4351   60.2380   22.5925 H   0  0  0  0  0  0  0  0  0  0  0  0
   61.0030   61.0985   24.3149 H   0  0  0  0  0  0  0  0  0  0  0  0
   61.8561   59.5507   26.0875 H   0  0  0  0  0  0  0  0  0  0  0  0
   66.0164   56.0983   30.0762 H   0  0  0  0  0  0  0  0  0  0  0  0
   67.8003   56.5833   31.7419 H   0  0  0  0  0  0  0  0  0  0  0  0
  1  2  2  0
  1  6  1  0
  2  3  1  0
  3  4  2  0
  5  4  1  0
  5 17  1  0
  6  5  2  0
  7  2  1  0
  8  7  2  0
  9  8  1  0
 10  9  2  0
 11 10  1  0
 11 16  2  0
 12 11  1  0
 13 12  2  0
 13 14  1  0
 14 15  2  0
 16 15  1  0
 16  7  1  0
 17 18  2  0
 17 22  1  0
 18 19  1  0
 19 20  2  0
 21 20  1  0
 21 23  1  0
 22 21  2  0
 23 26  1  0
 24 23  1  0
 25 23  1  0
  1 27  1  0
  3 28  1  0
  8 29  1  0
  9 30  1  0
 10 31  1  0
 12 32  1  0
 13 33  1  0
 14 34  1  0
 15 35  1  0
 18 36  1  0
 19 37  1  0
M  END
>  <Score>  (1) 
-7.007

$$$$
