
     RDKit          3D

 37 39  0  0  1  0  0  0  0  0999 V2000
   60.5500   59.8650   25.8640 C   0  0  0  0  0  0  0  0  0  0  0  0
   60.0390   61.0940   26.3130 C   0  0  0  0  0  0  0  0  0  0  0  0
   60.1280   61.3410   27.6850 C   0  0  0  0  0  0  0  0  0  0  0  0
   60.6960   60.3920   28.4930 N   0  0  0  0  0  0  0  0  0  0  0  0
   61.1640   59.2380   28.0030 C   0  0  0  0  0  0  0  0  0  0  0  0
   61.0850   58.9920   26.6980 N   0  0  0  0  0  0  0  0  0  0  0  0
   61.7390   58.2870   28.8760 N   0  0  0  0  0  0  0  0  0  0  0  0
   62.5090   57.2090   28.3530 C   0  0  0  0  0  0  0  0  0  0  0  0
   62.2250   56.8370   27.1480 N   0  0  0  0  0  0  0  0  0  0  0  0
   63.5100   56.6610   29.2280 N   0  0  0  0  0  0  0  0  0  0  0  0
   62.6990   56.0800   26.6610 H   0  0  0  0  0  0  0  0  0  0  0  0
   59.5950   62.6280   28.2350 C   0  0  2  0  0  0  0  0  0  0  0  0
   59.9300   63.0290   29.6510 C   0  0  0  0  0  0  0  0  0  0  0  0
   58.5170   62.6110   29.2280 C   0  0  1  0  0  0  0  0  0  0  0  0
   57.4690   63.6160   29.0470 C   0  0  0  0  0  0  0  0  0  0  0  0
   57.5480   64.4280   27.9150 C   0  0  0  0  0  0  0  0  0  0  0  0
   56.6020   65.4010   27.6680 C   0  0  0  0  0  0  0  0  0  0  0  0
   55.5510   65.5790   28.5580 C   0  0  0  0  0  0  0  0  0  0  0  0
   55.4490   64.7760   29.7000 C   0  0  0  0  0  0  0  0  0  0  0  0
   56.4300   63.8090   29.9030 C   0  0  0  0  0  0  0  0  0  0  0  0
   60.4500   59.6120   24.3720 C   0  0  0  0  0  0  0  0  0  0  0  0
   59.4170   60.2320   23.7800 F   0  0  0  0  0  0  0  0  0  0  0  0
   61.6760   60.0490   23.8140 F   0  0  0  0  0  0  0  0  0  0  0  0
   60.4430   58.2320   24.1490 F   0  0  0  0  0  0  0  0  0  0  0  0
   59.5925   61.8232   25.6210 H   0  0  0  0  0  0  0  0  0  0  0  0
   61.6009   58.3737   29.8930 H   0  0  0  0  0  0  0  0  0  0  0  0
   64.1005   55.8795   28.9094 H   0  0  0  0  0  0  0  0  0  0  0  0
   63.6364   57.0499   30.1733 H   0  0  0  0  0  0  0  0  0  0  0  0
   59.7192   63.1048   27.2515 H   0  0  0  0  0  0  0  0  0  0  0  0
   60.5385   62.3694   30.2871 H   0  0  0  0  0  0  0  0  0  0  0  0
   60.3838   63.9037   30.1398 H   0  0  0  0  0  0  0  0  0  0  0  0
   57.8035   61.8746   29.6263 H   0  0  0  0  0  0  0  0  0  0  0  0
   58.3789   64.2898   27.2075 H   0  0  0  0  0  0  0  0  0  0  0  0
   56.6797   66.0326   26.7708 H   0  0  0  0  0  0  0  0  0  0  0  0
   54.7952   66.3545   28.3647 H   0  0  0  0  0  0  0  0  0  0  0  0
   54.6215   64.9046   30.4132 H   0  0  0  0  0  0  0  0  0  0  0  0
   56.3615   63.1718   30.7970 H   0  0  0  0  0  0  0  0  0  0  0  0
  1  2  2  0
  1  6  1  0
  2  3  1  0
  3 12  1  0
  3  4  2  0
  5  4  1  0
  5  7  1  0
  6  5  2  0
  8  7  1  0
  8 10  1  0
  9  8  2  0
 11  9  1  0
 12 14  1  0
 12 13  1  0
 14 13  1  0
 15 14  1  0
 15 20  1  0
 16 15  2  0
 17 16  1  0
 17 18  2  0
 18 19  1  0
 19 20  2  0
 21  1  1  0
 22 21  1  0
 23 21  1  0
 24 21  1  0
  2 25  1  0
  7 26  1  0
 10 27  1  0
 10 28  1  0
 12 29  1  6
 13 30  1  0
 13 31  1  0
 14 32  1  1
 16 33  1  0
 17 34  1  0
 18 35  1  0
 19 36  1  0
 20 37  1  0
M  END
>  <Score>  (1) 
-7.07794

$$$$
