
     RDKit          3D

 49 52  0  0  0  0  0  0  0  0999 V2000
   62.3840   56.0280   27.7150 C   0  0  0  0  0  0  0  0  0  0  0  0
   63.5350   56.6010   28.3780 N   0  0  0  0  0  0  0  0  0  0  0  0
   64.4820   57.2530   27.6990 C   0  0  0  0  0  0  0  0  0  0  0  0
   65.4600   57.5830   28.5260 N   0  0  0  0  0  0  0  0  0  0  0  0
   65.0200   57.3370   29.7840 C   0  0  0  0  0  0  0  0  0  0  0  0
   63.8280   56.7240   29.6570 N   0  0  0  0  0  0  0  0  0  0  0  0
   65.4290   57.5260   31.1960 C   0  0  0  0  0  0  0  0  0  0  0  0
   64.6810   58.1890   32.1540 C   0  0  0  0  0  0  0  0  0  0  0  0
   65.1830   58.2910   33.4270 C   0  0  0  0  0  0  0  0  0  0  0  0
   66.4060   57.7310   33.6970 C   0  0  0  0  0  0  0  0  0  0  0  0
   67.1690   57.0650   32.7550 C   0  0  0  0  0  0  0  0  0  0  0  0
   66.6590   56.9610   31.4620 C   0  0  0  0  0  0  0  0  0  0  0  0
   62.5660   55.9790   26.2080 C   0  0  0  0  0  0  0  0  0  0  0  0
   61.3760   56.6650   25.6240 C   0  0  0  0  0  0  0  0  0  0  0  0
   61.3320   58.0460   25.3150 C   0  0  0  0  0  0  0  0  0  0  0  0
   60.1420   58.4990   24.7790 C   0  0  0  0  0  0  0  0  0  0  0  0
   59.1040   57.6440   24.5760 N   0  0  0  0  0  0  0  0  0  0  0  0
   59.1980   56.3530   24.8830 C   0  0  0  0  0  0  0  0  0  0  0  0
   60.3300   55.8370   25.4110 N   0  0  0  0  0  0  0  0  0  0  0  0
   58.0790   55.5040   24.6490 N   0  0  0  0  0  0  0  0  0  0  0  0
   58.1040   54.5870   23.5240 C   0  0  0  0  0  0  0  0  0  0  0  0
   58.0030   53.2070   24.1410 C   0  0  0  0  0  0  0  0  0  0  0  0
   56.8100   53.0330   25.0130 C   0  0  0  0  0  0  0  0  0  0  0  0
   56.4840   54.1530   25.9300 C   0  0  0  0  0  0  0  0  0  0  0  0
   56.9000   55.5150   25.4950 C   0  0  0  0  0  0  0  0  0  0  0  0
   62.2311   55.0047   28.0884 H   0  0  0  0  0  0  0  0  0  0  0  0
   61.5130   56.6634   27.9332 H   0  0  0  0  0  0  0  0  0  0  0  0
   64.8764   56.6046   26.9027 H   0  0  0  0  0  0  0  0  0  0  0  0
   64.0554   58.1617   27.2493 H   0  0  0  0  0  0  0  0  0  0  0  0
   63.2377   56.4017   30.4371 H   0  0  0  0  0  0  0  0  0  0  0  0
   63.7038   58.6253   31.8997 H   0  0  0  0  0  0  0  0  0  0  0  0
   64.6170   58.8106   34.2141 H   0  0  0  0  0  0  0  0  0  0  0  0
   66.8019   57.8164   34.7197 H   0  0  0  0  0  0  0  0  0  0  0  0
   68.1455   56.6319   33.0175 H   0  0  0  0  0  0  0  0  0  0  0  0
   67.2232   56.4414   30.6735 H   0  0  0  0  0  0  0  0  0  0  0  0
   63.4889   56.5026   25.9178 H   0  0  0  0  0  0  0  0  0  0  0  0
   62.6496   54.9433   25.8471 H   0  0  0  0  0  0  0  0  0  0  0  0
   62.1884   58.7138   25.4901 H   0  0  0  0  0  0  0  0  0  0  0  0
   60.0330   59.5610   24.5140 H   0  0  0  0  0  0  0  0  0  0  0  0
   59.0433   54.6911   22.9611 H   0  0  0  0  0  0  0  0  0  0  0  0
   57.2877   54.7826   22.8131 H   0  0  0  0  0  0  0  0  0  0  0  0
   57.9526   52.4657   23.3299 H   0  0  0  0  0  0  0  0  0  0  0  0
   58.8908   53.0705   24.7760 H   0  0  0  0  0  0  0  0  0  0  0  0
   55.9399   52.8740   24.3591 H   0  0  0  0  0  0  0  0  0  0  0  0
   57.0538   52.1846   25.6693 H   0  0  0  0  0  0  0  0  0  0  0  0
   55.3926   54.1654   26.0665 H   0  0  0  0  0  0  0  0  0  0  0  0
   57.0589   53.9536   26.8464 H   0  0  0  0  0  0  0  0  0  0  0  0
   57.1157   56.1181   26.3893 H   0  0  0  0  0  0  0  0  0  0  0  0
   56.0745   55.9384   24.9039 H   0  0  0  0  0  0  0  0  0  0  0  0
  1  2  1  0
  2  6  1  0
  3  2  1  0
  3  4  1  0
  4  5  2  0
  5  7  1  0
  6  5  1  0
  7 12  1  0
  7  8  2  0
  8  9  1  0
  9 10  2  0
 11 10  1  0
 12 11  2  0
 13  1  1  0
 14 13  1  0
 15 14  2  0
 16 15  1  0
 17 16  2  0
 17 18  1  0
 18 19  2  0
 19 14  1  0
 20 18  1  0
 20 25  1  0
 21 22  1  0
 21 20  1  0
 22 23  1  0
 23 24  1  0
 25 24  1  0
  1 26  1  0
  1 27  1  0
  3 28  1  0
  3 29  1  0
  6 30  1  0
  8 31  1  0
  9 32  1  0
 10 33  1  0
 11 34  1  0
 12 35  1  0
 13 36  1  0
 13 37  1  0
 15 38  1  0
 16 39  1  0
 21 40  1  0
 21 41  1  0
 22 42  1  0
 22 43  1  0
 23 44  1  0
 23 45  1  0
 24 46  1  0
 24 47  1  0
 25 48  1  0
 25 49  1  0
M  END
>  <Score>  (1) 
-7.34398

$$$$
