
     RDKit          3D

 47 51  0  0  0  0  0  0  0  0999 V2000
   60.3670   58.6570   25.6090 C   0  0  0  0  0  0  0  0  0  0  0  0
   61.2550   59.2350   24.7030 C   0  0  0  0  0  0  0  0  0  0  0  0
   60.5170   59.9790   23.7800 C   0  0  0  0  0  0  0  0  0  0  0  0
   59.2080   59.8030   24.1920 C   0  0  0  0  0  0  0  0  0  0  0  0
   59.1700   59.0440   25.2340 O   0  0  0  0  0  0  0  0  0  0  0  0
   58.0790   60.4190   23.4960 C   0  0  0  0  0  0  0  0  0  0  0  0
   57.5020   60.0590   22.2940 C   0  0  0  0  0  0  0  0  0  0  0  0
   56.4970   60.8760   22.0120 N   0  0  0  0  0  0  0  0  0  0  0  0
   56.3670   61.7820   22.9820 C   0  0  0  0  0  0  0  0  0  0  0  0
   55.4750   62.8070   23.1070 C   0  0  0  0  0  0  0  0  0  0  0  0
   55.5880   63.5890   24.2370 C   0  0  0  0  0  0  0  0  0  0  0  0
   56.5470   63.3980   25.2430 C   0  0  0  0  0  0  0  0  0  0  0  0
   57.4090   62.3390   25.0360 C   0  0  0  0  0  0  0  0  0  0  0  0
   57.3560   61.5140   23.9310 C   0  0  0  0  0  0  0  0  0  0  0  0
   60.6940   57.8280   26.7000 O   0  0  0  0  0  0  0  0  0  0  0  0
   61.5320   56.7350   26.4190 C   0  0  0  0  0  0  0  0  0  0  0  0
   61.0930   55.6970   25.9100 O   0  0  0  0  0  0  0  0  0  0  0  0
   65.2590   56.7800   26.1550 C   0  0  0  0  0  0  0  0  0  0  0  0
   63.8970   56.6750   25.7670 C   0  0  0  0  0  0  0  0  0  0  0  0
   62.9460   56.8280   26.7350 C   0  0  0  0  0  0  0  0  0  0  0  0
   63.3530   57.0680   27.9960 N   0  0  0  0  0  0  0  0  0  0  0  0
   64.6570   57.1650   28.3580 C   0  0  0  0  0  0  0  0  0  0  0  0
   65.5980   57.0250   27.4540 N   0  0  0  0  0  0  0  0  0  0  0  0
   65.5060   57.9680   32.4760 C   0  0  0  0  0  0  0  0  0  0  0  0
   64.3120   58.3690   31.9120 C   0  0  0  0  0  0  0  0  0  0  0  0
   64.0750   58.0920   30.5810 C   0  0  0  0  0  0  0  0  0  0  0  0
   64.9660   57.4280   29.7590 C   0  0  0  0  0  0  0  0  0  0  0  0
   66.1550   57.0350   30.3390 C   0  0  0  0  0  0  0  0  0  0  0  0
   66.4270   57.2990   31.6860 C   0  0  0  0  0  0  0  0  0  0  0  0
   65.8380   58.3030   34.1630 S   0  0  0  0  0  0  0  0  0  0  0  0
   66.4200   59.7050   34.2590 O   0  0  0  0  0  0  0  0  0  0  0  0
   66.8970   57.3600   34.6610 O   0  0  0  0  0  0  0  0  0  0  0  0
   62.3493   59.1240   24.7134 H   0  0  0  0  0  0  0  0  0  0  0  0
   60.8885   60.5661   22.9272 H   0  0  0  0  0  0  0  0  0  0  0  0
   57.8282   59.2185   21.6638 H   0  0  0  0  0  0  0  0  0  0  0  0
   55.9056   60.8196   21.1706 H   0  0  0  0  0  0  0  0  0  0  0  0
   54.7052   62.9996   22.3453 H   0  0  0  0  0  0  0  0  0  0  0  0
   54.8773   64.4198   24.3580 H   0  0  0  0  0  0  0  0  0  0  0  0
   56.6079   64.0441   26.1312 H   0  0  0  0  0  0  0  0  0  0  0  0
   58.1811   62.1421   25.7944 H   0  0  0  0  0  0  0  0  0  0  0  0
   66.0500   56.6625   25.3997 H   0  0  0  0  0  0  0  0  0  0  0  0
   63.6174   56.4770   24.7217 H   0  0  0  0  0  0  0  0  0  0  0  0
   63.5608   58.9012   32.5141 H   0  0  0  0  0  0  0  0  0  0  0  0
   63.1185   58.4197   30.1477 H   0  0  0  0  0  0  0  0  0  0  0  0
   66.9027   56.5044   29.7312 H   0  0  0  0  0  0  0  0  0  0  0  0
   67.3823   56.9719   32.1224 H   0  0  0  0  0  0  0  0  0  0  0  0
   64.6860   58.1708   34.8926 H   0  0  0  0  0  0  0  0  0  0  0  0
  1 15  1  0
  2  1  2  0
  3  4  2  0
  3  2  1  0
  4  5  1  0
  5  1  1  0
  6 14  1  0
  6  4  1  0
  7  6  2  0
  8  7  1  0
  8  9  1  0
  9 10  2  0
  9 14  1  0
 10 11  1  0
 11 12  2  0
 13 12  1  0
 14 13  2  0
 16 15  1  0
 16 20  1  0
 17 16  2  0
 18 23  2  0
 19 18  1  0
 19 20  2  0
 20 21  1  0
 21 22  2  0
 22 27  1  0
 23 22  1  0
 24 30  1  0
 25 24  2  0
 26 25  1  0
 27 28  1  0
 27 26  2  0
 28 29  2  0
 29 24  1  0
 30 31  2  0
 30 32  2  0
  2 33  1  0
  3 34  1  0
  7 35  1  0
  8 36  1  0
 10 37  1  0
 11 38  1  0
 12 39  1  0
 13 40  1  0
 18 41  1  0
 19 42  1  0
 25 43  1  0
 26 44  1  0
 28 45  1  0
 29 46  1  0
 30 47  1  0
M  END
>  <Score>  (1) 
-7.48868

$$$$
