
     RDKit          3D

 43 46  0  0  1  0  0  0  0  0999 V2000
   61.0250   56.6710   25.9630 N   0  0  0  0  0  0  0  0  0  0  0  0
   60.3550   55.4030   25.7010 C   0  0  0  0  0  0  0  0  0  0  0  0
   59.1680   55.7790   24.8620 C   0  0  0  0  0  0  0  0  0  0  0  0
   58.7940   57.1080   25.5160 C   0  0  0  0  0  0  0  0  0  0  0  0
   60.2840   57.7440   25.4420 C   0  0  1  0  0  0  0  0  0  0  0  0
   63.4540   57.1110   26.0110 C   0  0  0  0  0  0  0  0  0  0  0  0
   62.2400   56.7800   26.6690 C   0  0  0  0  0  0  0  0  0  0  0  0
   62.3310   56.5950   28.0470 C   0  0  0  0  0  0  0  0  0  0  0  0
   63.5150   56.7370   28.6590 N   0  0  0  0  0  0  0  0  0  0  0  0
   64.6250   57.0500   28.0000 C   0  0  0  0  0  0  0  0  0  0  0  0
   64.6140   57.2390   26.6770 N   0  0  0  0  0  0  0  0  0  0  0  0
   65.8580   57.1890   28.6970 N   0  0  0  0  0  0  0  0  0  0  0  0
   65.9240   57.3170   30.1120 C   0  0  0  0  0  0  0  0  0  0  0  0
   64.8450   56.9920   30.7780 N   0  0  0  0  0  0  0  0  0  0  0  0
   67.1380   57.7810   30.7400 N   0  0  0  0  0  0  0  0  0  0  0  0
   64.8930   57.0860   31.8160 H   0  0  0  0  0  0  0  0  0  0  0  0
   60.2380   58.9980   26.1830 C   0  0  0  0  0  0  0  0  0  0  0  0
   60.8050   59.4390   27.3780 C   0  0  0  0  0  0  0  0  0  0  0  0
   60.4790   60.7320   27.6270 N   0  0  0  0  0  0  0  0  0  0  0  0
   59.7120   61.1510   26.6140 C   0  0  0  0  0  0  0  0  0  0  0  0
   59.1640   62.3970   26.4470 C   0  0  0  0  0  0  0  0  0  0  0  0
   58.4140   62.6670   25.3450 C   0  0  0  0  0  0  0  0  0  0  0  0
   58.2350   61.6660   24.4360 C   0  0  0  0  0  0  0  0  0  0  0  0
   58.7950   60.4110   24.6200 C   0  0  0  0  0  0  0  0  0  0  0  0
   59.5510   60.1170   25.7190 C   0  0  0  0  0  0  0  0  0  0  0  0
   61.0182   54.7174   25.1532 H   0  0  0  0  0  0  0  0  0  0  0  0
   60.0685   54.8795   26.6250 H   0  0  0  0  0  0  0  0  0  0  0  0
   58.3576   55.0399   24.9461 H   0  0  0  0  0  0  0  0  0  0  0  0
   59.3622   55.8323   23.7806 H   0  0  0  0  0  0  0  0  0  0  0  0
   58.0569   57.6786   24.9320 H   0  0  0  0  0  0  0  0  0  0  0  0
   58.3094   57.0678   26.5027 H   0  0  0  0  0  0  0  0  0  0  0  0
   60.7229   58.0512   24.4813 H   0  0  0  0  0  0  0  0  0  0  0  0
   63.4445   57.2675   24.9222 H   0  0  0  0  0  0  0  0  0  0  0  0
   61.4355   56.3337   28.6298 H   0  0  0  0  0  0  0  0  0  0  0  0
   66.7349   57.1972   28.1568 H   0  0  0  0  0  0  0  0  0  0  0  0
   67.1849   57.8734   31.7648 H   0  0  0  0  0  0  0  0  0  0  0  0
   67.9574   58.0197   30.1634 H   0  0  0  0  0  0  0  0  0  0  0  0
   61.4346   58.8193   28.0334 H   0  0  0  0  0  0  0  0  0  0  0  0
   60.7683   61.2881   28.4443 H   0  0  0  0  0  0  0  0  0  0  0  0
   59.3309   63.1776   27.2039 H   0  0  0  0  0  0  0  0  0  0  0  0
   57.9665   63.6601   25.1918 H   0  0  0  0  0  0  0  0  0  0  0  0
   57.6324   61.8588   23.5361 H   0  0  0  0  0  0  0  0  0  0  0  0
   58.6262   59.6323   23.8616 H   0  0  0  0  0  0  0  0  0  0  0  0
  1  7  1  0
  2  1  1  0
  3  4  1  0
  3  2  1  0
  5  4  1  0
  5  1  1  0
  5 17  1  0
  6  7  2  0
  6 11  1  0
  7  8  1  0
  8  9  2  0
 10  9  1  0
 10 12  1  0
 11 10  2  0
 12 13  1  0
 13 15  1  0
 13 14  2  0
 14 16  1  0
 17 18  2  0
 18 19  1  0
 20 19  1  0
 21 20  2  0
 22 21  1  0
 23 24  1  0
 23 22  2  0
 24 25  2  0
 25 17  1  0
 25 20  1  0
  2 26  1  0
  2 27  1  0
  3 28  1  0
  3 29  1  0
  4 30  1  0
  4 31  1  0
  5 32  1  6
  6 33  1  0
  8 34  1  0
 12 35  1  0
 15 36  1  0
 15 37  1  0
 18 38  1  0
 19 39  1  0
 21 40  1  0
 22 41  1  0
 23 42  1  0
 24 43  1  0
M  END
>  <Score>  (1) 
-7.58841

$$$$
