
     RDKit          3D

 40 43  0  0  1  0  0  0  0  0999 V2000
   60.6850   59.5890   25.8680 C   0  0  0  0  0  0  0  0  0  0  0  0
   60.0740   60.7470   26.3750 C   0  0  0  0  0  0  0  0  0  0  0  0
   60.1500   60.9390   27.7560 C   0  0  0  0  0  0  0  0  0  0  0  0
   60.8030   60.0080   28.5250 N   0  0  0  0  0  0  0  0  0  0  0  0
   61.3710   58.9150   27.9800 C   0  0  0  0  0  0  0  0  0  0  0  0
   61.3090   58.7160   26.6680 N   0  0  0  0  0  0  0  0  0  0  0  0
   62.0310   57.9800   28.8100 N   0  0  0  0  0  0  0  0  0  0  0  0
   62.8790   56.9880   28.2430 C   0  0  0  0  0  0  0  0  0  0  0  0
   62.6200   56.6430   27.0210 N   0  0  0  0  0  0  0  0  0  0  0  0
   63.9170   56.4880   29.0970 N   0  0  0  0  0  0  0  0  0  0  0  0
   63.1740   55.9660   26.4880 H   0  0  0  0  0  0  0  0  0  0  0  0
   59.5080   62.1400   28.3680 C   0  0  2  0  0  0  0  0  0  0  0  0
   60.1420   62.7800   29.5820 C   0  0  0  0  0  0  0  0  0  0  0  0
   58.8000   62.0310   29.6440 C   0  0  1  0  0  0  0  0  0  0  0  0
   57.6130   62.7690   29.9570 N   0  0  0  0  0  0  0  0  0  0  0  0
   56.8270   62.5680   31.0480 C   0  0  0  0  0  0  0  0  0  0  0  0
   55.8260   63.4450   30.9880 N   0  0  0  0  0  0  0  0  0  0  0  0
   55.9580   64.2000   29.8840 C   0  0  0  0  0  0  0  0  0  0  0  0
   55.1510   65.2240   29.4310 C   0  0  0  0  0  0  0  0  0  0  0  0
   55.5340   65.8100   28.2780 N   0  0  0  0  0  0  0  0  0  0  0  0
   56.6390   65.3990   27.6320 C   0  0  0  0  0  0  0  0  0  0  0  0
   57.4310   64.3950   28.0730 N   0  0  0  0  0  0  0  0  0  0  0  0
   57.1060   63.7740   29.2120 C   0  0  0  0  0  0  0  0  0  0  0  0
   53.9840   65.6200   30.1600 N   0  0  0  0  0  0  0  0  0  0  0  0
   60.6060   59.3840   24.3720 C   0  0  0  0  0  0  0  0  0  0  0  0
   59.6620   60.1280   23.7790 F   0  0  0  0  0  0  0  0  0  0  0  0
   61.8860   59.7050   23.8610 F   0  0  0  0  0  0  0  0  0  0  0  0
   60.4500   58.0240   24.1020 F   0  0  0  0  0  0  0  0  0  0  0  0
   59.5620   61.4657   25.7183 H   0  0  0  0  0  0  0  0  0  0  0  0
   61.8973   58.0171   29.8306 H   0  0  0  0  0  0  0  0  0  0  0  0
   64.5670   55.7682   28.7503 H   0  0  0  0  0  0  0  0  0  0  0  0
   64.0125   56.8487   30.0570 H   0  0  0  0  0  0  0  0  0  0  0  0
   59.2194   62.4996   27.3693 H   0  0  0  0  0  0  0  0  0  0  0  0
   61.0449   62.3439   30.0342 H   0  0  0  0  0  0  0  0  0  0  0  0
   60.5036   63.7832   29.8519 H   0  0  0  0  0  0  0  0  0  0  0  0
   58.3810   61.1760   30.1949 H   0  0  0  0  0  0  0  0  0  0  0  0
   56.9882   61.8180   31.8364 H   0  0  0  0  0  0  0  0  0  0  0  0
   56.9136   65.9060   26.6952 H   0  0  0  0  0  0  0  0  0  0  0  0
   53.3923   66.3862   29.8082 H   0  0  0  0  0  0  0  0  0  0  0  0
   53.7362   65.1387   31.0362 H   0  0  0  0  0  0  0  0  0  0  0  0
  1  2  2  0
  1  6  1  0
  2  3  1  0
  3 12  1  0
  3  4  2  0
  5  4  1  0
  5  7  1  0
  6  5  2  0
  8  7  1  0
  8 10  1  0
  9  8  2  0
 11  9  1  0
 12 13  1  0
 12 14  1  0
 13 14  1  0
 14 15  1  0
 15 16  1  0
 17 16  2  0
 18 17  1  0
 19 18  2  0
 19 24  1  0
 20 19  1  0
 21 22  1  0
 21 20  2  0
 22 23  2  0
 23 18  1  0
 23 15  1  0
 25  1  1  0
 26 25  1  0
 27 25  1  0
 28 25  1  0
  2 29  1  0
  7 30  1  0
 10 31  1  0
 10 32  1  0
 12 33  1  6
 13 34  1  0
 13 35  1  0
 14 36  1  1
 16 37  1  0
 21 38  1  0
 24 39  1  0
 24 40  1  0
M  END
>  <Score>  (1) 
-7.34669

$$$$
