
     RDKit          3D

 46 50  0  0  0  0  0  0  0  0999 V2000
   39.2610   31.9160   44.9480 C   0  0  0  0  0  0  0  0  0  0  0  0
   38.1730   32.5660   45.0660 O   0  0  0  0  0  0  0  0  0  0  0  0
   39.9670   31.6450   46.1640 N   0  0  0  0  0  0  0  0  0  0  0  0
   39.1970   32.2280   42.5790 C   0  0  0  0  0  0  0  0  0  0  0  0
   39.7190   31.4960   43.6350 C   0  0  0  0  0  0  0  0  0  0  0  0
   40.5910   30.4630   43.4680 C   0  0  0  0  0  0  0  0  0  0  0  0
   40.9960   30.1010   42.1920 C   0  0  0  0  0  0  0  0  0  0  0  0
   41.8220   29.1550   41.7320 N   0  0  0  0  0  0  0  0  0  0  0  0
   41.8480   29.2540   40.4040 C   0  0  0  0  0  0  0  0  0  0  0  0
   41.0310   30.2740   40.0270 N   0  0  0  0  0  0  0  0  0  0  0  0
   40.4920   30.8130   41.1340 C   0  0  0  0  0  0  0  0  0  0  0  0
   39.5960   31.8770   41.2670 C   0  0  0  0  0  0  0  0  0  0  0  0
   39.0840   32.5980   40.2120 O   0  0  0  0  0  0  0  0  0  0  0  0
   37.7350   32.9220   40.2450 C   0  0  0  0  0  0  0  0  0  0  0  0
   36.8690   31.9020   39.8780 C   0  0  0  0  0  0  0  0  0  0  0  0
   35.5070   32.1450   39.8840 C   0  0  0  0  0  0  0  0  0  0  0  0
   35.0170   33.3530   40.2420 N   0  0  0  0  0  0  0  0  0  0  0  0
   35.8860   34.3350   40.5980 C   0  0  0  0  0  0  0  0  0  0  0  0
   37.2120   34.1160   40.5960 N   0  0  0  0  0  0  0  0  0  0  0  0
   38.1150   30.1570   47.4940 F   0  0  0  0  0  0  0  0  0  0  0  0
   38.3770   31.4050   47.9870 C   0  0  0  0  0  0  0  0  0  0  0  0
   37.7100   31.8330   49.1010 C   0  0  0  0  0  0  0  0  0  0  0  0
   38.0190   33.0950   49.5460 C   0  0  0  0  0  0  0  0  0  0  0  0
   38.9360   33.8920   48.9250 C   0  0  0  0  0  0  0  0  0  0  0  0
   39.5950   33.4210   47.7940 C   0  0  0  0  0  0  0  0  0  0  0  0
   39.3020   32.1580   47.3290 C   0  0  0  0  0  0  0  0  0  0  0  0
   36.0780   29.3540   51.4450 C   0  0  0  0  0  0  0  0  0  0  0  0
   37.0340   30.2130   50.8620 C   0  0  0  0  0  0  0  0  0  0  0  0
   36.7400   30.9400   49.7220 C   0  0  0  0  0  0  0  0  0  0  0  0
   35.4910   30.7860   49.1980 N   0  0  0  0  0  0  0  0  0  0  0  0
   34.5830   29.9670   49.7560 C   0  0  0  0  0  0  0  0  0  0  0  0
   34.8680   29.2710   50.8490 N   0  0  0  0  0  0  0  0  0  0  0  0
   40.8607   31.1342   46.1995 H   0  0  0  0  0  0  0  0  0  0  0  0
   38.4945   33.0559   42.7555 H   0  0  0  0  0  0  0  0  0  0  0  0
   40.9731   29.9172   44.3433 H   0  0  0  0  0  0  0  0  0  0  0  0
   42.3435   28.4734   42.3015 H   0  0  0  0  0  0  0  0  0  0  0  0
   42.4331   28.6166   39.7248 H   0  0  0  0  0  0  0  0  0  0  0  0
   37.2592   30.9156   39.5868 H   0  0  0  0  0  0  0  0  0  0  0  0
   34.8124   31.3432   39.5931 H   0  0  0  0  0  0  0  0  0  0  0  0
   35.4992   35.3220   40.8916 H   0  0  0  0  0  0  0  0  0  0  0  0
   37.5060   33.4792   50.4400 H   0  0  0  0  0  0  0  0  0  0  0  0
   39.1522   34.8976   49.3150 H   0  0  0  0  0  0  0  0  0  0  0  0
   40.3384   34.0474   47.2792 H   0  0  0  0  0  0  0  0  0  0  0  0
   36.3091   28.7738   52.3505 H   0  0  0  0  0  0  0  0  0  0  0  0
   38.0291   30.3061   51.3214 H   0  0  0  0  0  0  0  0  0  0  0  0
   33.5870   29.8722   49.2988 H   0  0  0  0  0  0  0  0  0  0  0  0
  1  2  2  0
  1  3  1  0
  3 26  1  0
  4  5  2  0
  5  1  1  0
  6  5  1  0
  7  6  2  0
  8  7  1  0
  9  8  1  0
 10  9  2  0
 10 11  1  0
 11 12  2  0
 11  7  1  0
 12  4  1  0
 13 14  1  0
 13 12  1  0
 14 19  2  0
 15 16  2  0
 15 14  1  0
 16 17  1  0
 17 18  2  0
 19 18  1  0
 20 21  1  0
 21 22  2  0
 22 23  1  0
 22 29  1  0
 24 23  2  0
 25 24  1  0
 26 25  2  0
 26 21  1  0
 28 27  2  0
 29 28  1  0
 30 29  2  0
 30 31  1  0
 31 32  2  0
 32 27  1  0
  3 33  1  0
  4 34  1  0
  6 35  1  0
  8 36  1  0
  9 37  1  0
 15 38  1  0
 16 39  1  0
 18 40  1  0
 23 41  1  0
 24 42  1  0
 25 43  1  0
 27 44  1  0
 28 45  1  0
 31 46  1  0
M  END
>  <Score>  (1) 
-7.38726

>  <Score_dual>  (1) 
-7.16

>  <Choices>  (1) 
[None, 8, ['9-19', 285], 19, ['12-4', 210], 22, ['34-10', 105], 36, ['2-1', 0], 37, ['19-9', 120]]

$$$$
