
     RDKit          3D

 45 49  0  0  0  0  0  0  0  0999 V2000
   39.2650   31.8880   44.9450 C   0  0  0  0  0  0  0  0  0  0  0  0
   38.1750   32.5410   45.0600 O   0  0  0  0  0  0  0  0  0  0  0  0
   39.9480   31.6280   46.1500 N   0  0  0  0  0  0  0  0  0  0  0  0
   39.1270   32.1600   42.5540 C   0  0  0  0  0  0  0  0  0  0  0  0
   39.6940   31.4820   43.6130 C   0  0  0  0  0  0  0  0  0  0  0  0
   40.6130   30.4780   43.4600 C   0  0  0  0  0  0  0  0  0  0  0  0
   41.0050   30.1170   42.1790 C   0  0  0  0  0  0  0  0  0  0  0  0
   41.8620   29.2030   41.7240 N   0  0  0  0  0  0  0  0  0  0  0  0
   41.8630   29.2750   40.3990 C   0  0  0  0  0  0  0  0  0  0  0  0
   41.0020   30.2410   40.0020 N   0  0  0  0  0  0  0  0  0  0  0  0
   40.4390   30.7960   41.1110 C   0  0  0  0  0  0  0  0  0  0  0  0
   39.5130   31.8050   41.2540 C   0  0  0  0  0  0  0  0  0  0  0  0
   38.9580   32.4670   40.1890 O   0  0  0  0  0  0  0  0  0  0  0  0
   37.6500   32.7800   39.9890 C   0  0  0  0  0  0  0  0  0  0  0  0
   37.4890   34.1390   39.6850 C   0  0  0  0  0  0  0  0  0  0  0  0
   36.1420   34.3890   39.4950 C   0  0  0  0  0  0  0  0  0  0  0  0
   35.5680   33.1770   39.6920 N   0  0  0  0  0  0  0  0  0  0  0  0
   36.4270   32.2220   39.9810 N   0  0  0  0  0  0  0  0  0  0  0  0
   38.1120   30.1430   47.4930 F   0  0  0  0  0  0  0  0  0  0  0  0
   38.3700   31.3850   47.9830 C   0  0  0  0  0  0  0  0  0  0  0  0
   37.7200   31.8300   49.0960 C   0  0  0  0  0  0  0  0  0  0  0  0
   38.0300   33.0900   49.5330 C   0  0  0  0  0  0  0  0  0  0  0  0
   38.9520   33.9000   48.9020 C   0  0  0  0  0  0  0  0  0  0  0  0
   39.6000   33.4250   47.7720 C   0  0  0  0  0  0  0  0  0  0  0  0
   39.3020   32.1520   47.3110 C   0  0  0  0  0  0  0  0  0  0  0  0
   36.0880   29.3650   51.4560 C   0  0  0  0  0  0  0  0  0  0  0  0
   37.0550   30.2190   50.8700 C   0  0  0  0  0  0  0  0  0  0  0  0
   36.7510   30.9380   49.7310 C   0  0  0  0  0  0  0  0  0  0  0  0
   35.4870   30.7900   49.2000 N   0  0  0  0  0  0  0  0  0  0  0  0
   34.5830   29.9790   49.7640 C   0  0  0  0  0  0  0  0  0  0  0  0
   34.8690   29.2810   50.8640 N   0  0  0  0  0  0  0  0  0  0  0  0
   40.8350   31.1060   46.1899 H   0  0  0  0  0  0  0  0  0  0  0  0
   38.3906   32.9590   42.7253 H   0  0  0  0  0  0  0  0  0  0  0  0
   41.0334   29.9663   44.3383 H   0  0  0  0  0  0  0  0  0  0  0  0
   42.4227   28.5570   42.2978 H   0  0  0  0  0  0  0  0  0  0  0  0
   42.4687   28.6479   39.7283 H   0  0  0  0  0  0  0  0  0  0  0  0
   38.2974   34.8812   39.6102 H   0  0  0  0  0  0  0  0  0  0  0  0
   35.6538   35.3423   39.2443 H   0  0  0  0  0  0  0  0  0  0  0  0
   34.5528   33.0177   39.6220 H   0  0  0  0  0  0  0  0  0  0  0  0
   37.5204   33.4745   50.4288 H   0  0  0  0  0  0  0  0  0  0  0  0
   39.1694   34.9064   49.2893 H   0  0  0  0  0  0  0  0  0  0  0  0
   40.3396   34.0490   47.2490 H   0  0  0  0  0  0  0  0  0  0  0  0
   36.3180   28.7874   52.3634 H   0  0  0  0  0  0  0  0  0  0  0  0
   38.0526   30.3096   51.3246 H   0  0  0  0  0  0  0  0  0  0  0  0
   33.5848   29.8866   49.3112 H   0  0  0  0  0  0  0  0  0  0  0  0
  1  2  2  0
  1  3  1  0
  3 25  1  0
  4  5  2  0
  5  1  1  0
  6  5  1  0
  7  6  2  0
  8  7  1  0
  9  8  1  0
 10  9  2  0
 10 11  1  0
 11 12  2  0
 11  7  1  0
 12  4  1  0
 13 12  1  0
 14 13  1  0
 15 14  1  0
 16 15  2  0
 16 17  1  0
 17 18  1  0
 18 14  2  0
 19 20  1  0
 20 21  2  0
 21 22  1  0
 21 28  1  0
 23 22  2  0
 24 23  1  0
 25 24  2  0
 25 20  1  0
 27 26  2  0
 28 27  1  0
 29 28  2  0
 29 30  1  0
 30 31  2  0
 31 26  1  0
  3 32  1  0
  4 33  1  0
  6 34  1  0
  8 35  1  0
  9 36  1  0
 15 37  1  0
 16 38  1  0
 17 39  1  0
 22 40  1  0
 23 41  1  0
 24 42  1  0
 26 43  1  0
 27 44  1  0
 30 45  1  0
M  END
>  <Score>  (1) 
-7.2644

>  <Score_dual>  (1) 
-7.35

>  <Choices>  (1) 
[None, 8, ['9-19', 285], 19, ['12-4', 210], 22, ['34-10', 105], 36, ['2-1', 0], 37, ['22-10', 210]]

$$$$
