
     RDKit          3D

 49 53  0  0  1  0  0  0  0  0999 V2000
   35.2120   29.5610   47.2200 C   0  0  0  0  0  0  0  0  0  0  0  0
   35.4050   30.2220   46.0010 C   0  0  0  0  0  0  0  0  0  0  0  0
   34.4700   29.9670   44.9910 C   0  0  0  0  0  0  0  0  0  0  0  0
   33.4430   29.0940   45.2710 N   0  0  0  0  0  0  0  0  0  0  0  0
   33.3050   28.4900   46.4470 C   0  0  0  0  0  0  0  0  0  0  0  0
   34.1910   28.7210   47.4300 N   0  0  0  0  0  0  0  0  0  0  0  0
   36.1720   29.8210   48.2650 N   0  0  0  0  0  0  0  0  0  0  0  0
   37.4510   30.4490   48.1220 C   0  0  0  0  0  0  0  0  0  0  0  0
   37.6590   31.0880   49.4930 C   0  0  2  0  0  0  0  0  0  0  0  0
   36.3720   30.8450   50.2710 C   0  0  0  0  0  0  0  0  0  0  0  0
   36.0220   29.4900   49.6720 C   0  0  0  0  0  0  0  0  0  0  0  0
   37.9980   32.5430   49.4060 C   0  0  0  0  0  0  0  0  0  0  0  0
   36.9380   33.2300   49.9560 F   0  0  0  0  0  0  0  0  0  0  0  0
   38.0300   32.8640   48.0660 F   0  0  0  0  0  0  0  0  0  0  0  0
   39.1840   32.8610   50.0080 F   0  0  0  0  0  0  0  0  0  0  0  0
   31.9590   27.3770   46.7390 S   0  0  0  0  0  0  0  0  0  0  0  0
   30.8200   27.7840   47.9140 C   0  0  0  0  0  0  0  0  0  0  0  0
   30.5990   27.8010   49.2540 C   0  0  0  0  0  0  0  0  0  0  0  0
   29.4630   28.2330   49.8770 C   0  0  0  0  0  0  0  0  0  0  0  0
   28.4320   28.7120   48.9320 C   0  0  0  0  0  0  0  0  0  0  0  0
   29.2050   28.4840   47.3030 S   0  0  0  0  0  0  0  0  0  0  0  0
   27.1330   29.1600   49.0720 C   0  0  0  0  0  0  0  0  0  0  0  0
   26.3060   28.3310   49.8490 C   0  0  0  0  0  0  0  0  0  0  0  0
   24.9700   28.6120   50.0930 C   0  0  0  0  0  0  0  0  0  0  0  0
   24.4030   29.7450   49.5650 C   0  0  0  0  0  0  0  0  0  0  0  0
   25.1410   30.6100   48.7900 C   0  0  0  0  0  0  0  0  0  0  0  0
   24.5860   31.7340   48.2200 C   0  0  0  0  0  0  0  0  0  0  0  0
   25.3310   32.5700   47.4140 C   0  0  0  0  0  0  0  0  0  0  0  0
   26.6630   32.2050   47.2160 C   0  0  0  0  0  0  0  0  0  0  0  0
   27.1750   31.0830   47.8010 C   0  0  0  0  0  0  0  0  0  0  0  0
   26.4500   30.2450   48.6050 C   0  0  0  0  0  0  0  0  0  0  0  0
   36.2503   30.9083   45.8446 H   0  0  0  0  0  0  0  0  0  0  0  0
   34.5531   30.4486   44.0055 H   0  0  0  0  0  0  0  0  0  0  0  0
   38.2354   29.7090   47.9049 H   0  0  0  0  0  0  0  0  0  0  0  0
   37.4965   31.1682   47.2909 H   0  0  0  0  0  0  0  0  0  0  0  0
   38.5229   30.6366   50.0029 H   0  0  0  0  0  0  0  0  0  0  0  0
   36.5440   30.7900   51.3561 H   0  0  0  0  0  0  0  0  0  0  0  0
   35.6010   31.6253   50.1888 H   0  0  0  0  0  0  0  0  0  0  0  0
   34.9944   29.1833   49.9168 H   0  0  0  0  0  0  0  0  0  0  0  0
   36.6282   28.6437   50.0272 H   0  0  0  0  0  0  0  0  0  0  0  0
   31.4111   27.4323   49.8978 H   0  0  0  0  0  0  0  0  0  0  0  0
   29.3291   28.2253   50.9688 H   0  0  0  0  0  0  0  0  0  0  0  0
   26.7381   27.4175   50.2835 H   0  0  0  0  0  0  0  0  0  0  0  0
   24.3662   27.9286   50.7081 H   0  0  0  0  0  0  0  0  0  0  0  0
   23.3437   29.9646   49.7642 H   0  0  0  0  0  0  0  0  0  0  0  0
   23.5287   31.9698   48.4109 H   0  0  0  0  0  0  0  0  0  0  0  0
   24.9000   33.4716   46.9543 H   0  0  0  0  0  0  0  0  0  0  0  0
   27.3085   32.8291   46.5806 H   0  0  0  0  0  0  0  0  0  0  0  0
   28.2312   30.8380   47.6157 H   0  0  0  0  0  0  0  0  0  0  0  0
  1  6  1  0
  1  7  1  0
  2  1  2  0
  3  4  2  0
  3  2  1  0
  4  5  1  0
  5 16  1  0
  5  6  2  0
  7 11  1  0
  8  7  1  0
  8  9  1  0
  9 10  1  0
 11 10  1  0
 12  9  1  0
 12 13  1  0
 12 15  1  0
 14 12  1  0
 16 17  1  0
 17 18  2  0
 18 19  1  0
 20 22  1  0
 20 19  2  0
 21 17  1  0
 21 20  1  0
 22 23  2  0
 23 24  1  0
 25 24  2  0
 26 25  1  0
 27 26  2  0
 28 27  1  0
 29 28  2  0
 29 30  1  0
 30 31  2  0
 31 26  1  0
 31 22  1  0
  2 32  1  0
  3 33  1  0
  8 34  1  0
  8 35  1  0
  9 36  1  1
 10 37  1  0
 10 38  1  0
 11 39  1  0
 11 40  1  0
 18 41  1  0
 19 42  1  0
 23 43  1  0
 24 44  1  0
 25 45  1  0
 27 46  1  0
 28 47  1  0
 29 48  1  0
 30 49  1  0
M  END
>  <Score>  (1) 
-7.22769

>  <Score_dual>  (1) 
-7.41

>  <Choices>  (1) 
[None, 6, ['13-5', 105], 17, ['11-12', 165], 24, ['17-12', 15], 25, ['25-11', 135], 32, ['26-24', 90]]

$$$$
