
     RDKit          3D

 42 46  0  0  0  0  0  0  0  0999 V2000
   35.6680   29.0960   49.8460 C   0  0  0  0  0  0  0  0  0  0  0  0
   34.5940   29.5920   50.5030 C   0  0  0  0  0  0  0  0  0  0  0  0
   33.4560   28.9800   49.9650 C   0  0  0  0  0  0  0  0  0  0  0  0
   33.9390   28.1150   48.9720 C   0  0  0  0  0  0  0  0  0  0  0  0
   35.2290   28.2420   48.9660 O   0  0  0  0  0  0  0  0  0  0  0  0
   33.5210   26.2930   47.3320 C   0  0  0  0  0  0  0  0  0  0  0  0
   33.0450   27.2890   48.1740 C   0  0  0  0  0  0  0  0  0  0  0  0
   31.6880   27.5420   48.2920 C   0  0  0  0  0  0  0  0  0  0  0  0
   30.8180   26.7650   47.5400 C   0  0  0  0  0  0  0  0  0  0  0  0
   29.4830   26.7880   47.4570 N   0  0  0  0  0  0  0  0  0  0  0  0
   29.1220   25.8370   46.5900 N   0  0  0  0  0  0  0  0  0  0  0  0
   30.2230   25.2200   46.1310 C   0  0  0  0  0  0  0  0  0  0  0  0
   31.3410   25.7840   46.7160 C   0  0  0  0  0  0  0  0  0  0  0  0
   32.6870   25.5230   46.5900 C   0  0  0  0  0  0  0  0  0  0  0  0
   37.0220   29.5140   50.1480 C   0  0  0  0  0  0  0  0  0  0  0  0
   37.6780   28.8720   51.0100 O   0  0  0  0  0  0  0  0  0  0  0  0
   37.5510   30.6520   49.4380 C   0  0  0  0  0  0  0  0  0  0  0  0
   37.4490   31.8950   50.0500 C   0  0  0  0  0  0  0  0  0  0  0  0
   37.9530   33.0060   49.3880 C   0  0  0  0  0  0  0  0  0  0  0  0
   38.5220   32.8030   48.1620 N   0  0  0  0  0  0  0  0  0  0  0  0
   38.6100   31.6060   47.5940 C   0  0  0  0  0  0  0  0  0  0  0  0
   38.1250   30.5300   48.2320 N   0  0  0  0  0  0  0  0  0  0  0  0
   39.2400   31.5070   46.2800 C   0  0  0  0  0  0  0  0  0  0  0  0
   40.1060   32.4560   45.7770 C   0  0  0  0  0  0  0  0  0  0  0  0
   40.6260   32.2340   44.5220 C   0  0  0  0  0  0  0  0  0  0  0  0
   40.3440   31.1470   43.7500 C   0  0  0  0  0  0  0  0  0  0  0  0
   39.4790   30.1810   44.2320 C   0  0  0  0  0  0  0  0  0  0  0  0
   38.9440   30.3960   45.5060 C   0  0  0  0  0  0  0  0  0  0  0  0
   34.6120   30.3384   51.3108 H   0  0  0  0  0  0  0  0  0  0  0  0
   32.4082   29.1424   50.2579 H   0  0  0  0  0  0  0  0  0  0  0  0
   34.6058   26.1236   47.2648 H   0  0  0  0  0  0  0  0  0  0  0  0
   31.3128   28.3320   48.9592 H   0  0  0  0  0  0  0  0  0  0  0  0
   28.8505   27.4212   47.9668 H   0  0  0  0  0  0  0  0  0  0  0  0
   30.2334   24.3950   45.4035 H   0  0  0  0  0  0  0  0  0  0  0  0
   33.0651   24.7333   45.9241 H   0  0  0  0  0  0  0  0  0  0  0  0
   36.9784   31.9967   51.0390 H   0  0  0  0  0  0  0  0  0  0  0  0
   37.8967   34.0105   49.8327 H   0  0  0  0  0  0  0  0  0  0  0  0
   40.3702   33.3536   46.3554 H   0  0  0  0  0  0  0  0  0  0  0  0
   41.3171   32.9862   44.1139 H   0  0  0  0  0  0  0  0  0  0  0  0
   40.7992   31.0389   42.7545 H   0  0  0  0  0  0  0  0  0  0  0  0
   39.2246   29.2879   43.6423 H   0  0  0  0  0  0  0  0  0  0  0  0
   38.2525   29.6446   45.9150 H   0  0  0  0  0  0  0  0  0  0  0  0
  1 15  1  0
  1  2  2  0
  3  2  1  0
  4  3  2  0
  5  4  1  0
  5  1  1  0
  6  7  2  0
  7  8  1  0
  7  4  1  0
  9  8  2  0
 10  9  1  0
 11 10  1  0
 12 11  2  0
 12 13  1  0
 13  9  1  0
 14 13  2  0
 14  6  1  0
 15 16  2  0
 17 18  2  0
 17 15  1  0
 19 18  1  0
 20 19  2  0
 21 20  1  0
 21 22  2  0
 22 17  1  0
 23 21  1  0
 24 23  2  0
 25 24  1  0
 26 27  1  0
 26 25  2  0
 27 28  2  0
 28 23  1  0
  2 29  1  0
  3 30  1  0
  6 31  1  0
  8 32  1  0
 10 33  1  0
 12 34  1  0
 14 35  1  0
 18 36  1  0
 19 37  1  0
 24 38  1  0
 25 39  1  0
 26 40  1  0
 27 41  1  0
 28 42  1  0
M  END
>  <Score>  (1) 
-7.45395

>  <Score_dual>  (1) 
-7.16

>  <Choices>  (1) 
[None, 6, ['5-8', 15], 11, ['43-11', 105], 18, ['54-8', 255], 31, ['1-25', 150]]

$$$$
