
     RDKit          3D

 47 52  0  0  0  0  0  0  0  0999 V2000
   34.4100   28.3660   49.7890 C   0  0  0  0  0  0  0  0  0  0  0  0
   37.3170   30.1000   51.2780 C   0  0  0  0  0  0  0  0  0  0  0  0
   37.8730   30.7290   50.1530 C   0  0  0  0  0  0  0  0  0  0  0  0
   37.2510   30.5560   48.9040 C   0  0  0  0  0  0  0  0  0  0  0  0
   36.1520   29.7890   48.8650 N   0  0  0  0  0  0  0  0  0  0  0  0
   35.6280   29.1850   49.9760 C   0  0  0  0  0  0  0  0  0  0  0  0
   36.2260   29.3610   51.1370 N   0  0  0  0  0  0  0  0  0  0  0  0
   37.1270   30.7400   46.5070 C   0  0  0  0  0  0  0  0  0  0  0  0
   37.7370   31.1600   47.6700 C   0  0  0  0  0  0  0  0  0  0  0  0
   38.7420   32.0950   47.6290 C   0  0  0  0  0  0  0  0  0  0  0  0
   39.2000   32.6650   46.4540 C   0  0  0  0  0  0  0  0  0  0  0  0
   40.1420   33.5760   46.1530 N   0  0  0  0  0  0  0  0  0  0  0  0
   40.1400   33.7370   44.8480 N   0  0  0  0  0  0  0  0  0  0  0  0
   39.2040   32.9420   44.2720 C   0  0  0  0  0  0  0  0  0  0  0  0
   38.5800   32.2380   45.2900 C   0  0  0  0  0  0  0  0  0  0  0  0
   37.5690   31.3010   45.3030 C   0  0  0  0  0  0  0  0  0  0  0  0
   34.3420   27.8180   48.3800 C   0  0  0  0  0  0  0  0  0  0  0  0
   32.8910   27.9250   47.9840 C   0  0  0  0  0  0  0  0  0  0  0  0
   31.8570   27.0910   48.3860 C   0  0  0  0  0  0  0  0  0  0  0  0
   30.6780   27.5360   47.7970 C   0  0  0  0  0  0  0  0  0  0  0  0
   31.0350   28.6190   47.0610 N   0  0  0  0  0  0  0  0  0  0  0  0
   32.3390   28.8460   47.1750 N   0  0  0  0  0  0  0  0  0  0  0  0
   28.6930   29.0780   46.3010 N   0  0  0  0  0  0  0  0  0  0  0  0
   30.0170   29.2960   46.3330 C   0  0  0  0  0  0  0  0  0  0  0  0
   30.2520   30.3420   45.4980 N   0  0  0  0  0  0  0  0  0  0  0  0
   29.1040   30.7630   44.9620 C   0  0  0  0  0  0  0  0  0  0  0  0
   28.8500   31.7830   44.0710 C   0  0  0  0  0  0  0  0  0  0  0  0
   27.5770   32.0020   43.6820 N   0  0  0  0  0  0  0  0  0  0  0  0
   26.5870   31.2170   44.1770 C   0  0  0  0  0  0  0  0  0  0  0  0
   26.8400   30.2110   45.0580 N   0  0  0  0  0  0  0  0  0  0  0  0
   28.1050   29.9700   45.4620 C   0  0  0  0  0  0  0  0  0  0  0  0
   34.4260   27.5281   50.5015 H   0  0  0  0  0  0  0  0  0  0  0  0
   33.5284   29.0003   49.9636 H   0  0  0  0  0  0  0  0  0  0  0  0
   37.7825   30.2194   52.2675 H   0  0  0  0  0  0  0  0  0  0  0  0
   38.7788   31.3460   50.2469 H   0  0  0  0  0  0  0  0  0  0  0  0
   36.3218   29.9908   46.5246 H   0  0  0  0  0  0  0  0  0  0  0  0
   39.2058   32.4062   48.5767 H   0  0  0  0  0  0  0  0  0  0  0  0
   40.7550   34.0606   46.8240 H   0  0  0  0  0  0  0  0  0  0  0  0
   38.9816   32.8695   43.1972 H   0  0  0  0  0  0  0  0  0  0  0  0
   37.1039   30.9903   44.3558 H   0  0  0  0  0  0  0  0  0  0  0  0
   34.9716   28.4144   47.7033 H   0  0  0  0  0  0  0  0  0  0  0  0
   34.7084   26.7824   48.3235 H   0  0  0  0  0  0  0  0  0  0  0  0
   31.9535   26.2246   49.0569 H   0  0  0  0  0  0  0  0  0  0  0  0
   29.6725   27.1032   47.9046 H   0  0  0  0  0  0  0  0  0  0  0  0
   28.1986   28.3464   46.8313 H   0  0  0  0  0  0  0  0  0  0  0  0
   29.6695   32.4067   43.6844 H   0  0  0  0  0  0  0  0  0  0  0  0
   25.5504   31.3989   43.8571 H   0  0  0  0  0  0  0  0  0  0  0  0
  1  6  1  0
  3  2  2  0
  4  3  1  0
  5  4  2  0
  5  6  1  0
  6  7  2  0
  7  2  1  0
  8  9  2  0
  9  4  1  0
 10  9  1  0
 11 10  2  0
 12 11  1  0
 13 12  1  0
 14 13  2  0
 14 15  1  0
 15 16  2  0
 15 11  1  0
 16  8  1  0
 17  1  1  0
 18 17  1  0
 18 19  1  0
 20 19  2  0
 21 22  1  0
 21 20  1  0
 22 18  2  0
 23 24  1  0
 24 21  1  0
 25 24  2  0
 26 31  2  0
 26 25  1  0
 27 26  1  0
 28 27  2  0
 28 29  1  0
 29 30  2  0
 30 31  1  0
 31 23  1  0
  1 32  1  0
  1 33  1  0
  2 34  1  0
  3 35  1  0
  8 36  1  0
 10 37  1  0
 12 38  1  0
 14 39  1  0
 16 40  1  0
 17 41  1  0
 17 42  1  0
 19 43  1  0
 20 44  1  0
 23 45  1  0
 27 46  1  0
 29 47  1  0
M  END
>  <Score>  (1) 
-7.97568

>  <Score_dual>  (1) 
-7.31

>  <Choices>  (1) 
[None, 9, ['4-11', 45], 15, ['22-7', 240], 22, ['45-20', 105], 33, ['54-9', 0]]

$$$$
