
     RDKit          3D

 45 49  0  0  0  0  0  0  0  0999 V2000
   37.3710   29.9970   50.9440 C   0  0  0  0  0  0  0  0  0  0  0  0
   38.1440   30.9120   50.2340 C   0  0  0  0  0  0  0  0  0  0  0  0
   37.7730   31.2200   48.9340 C   0  0  0  0  0  0  0  0  0  0  0  0
   36.6680   30.5890   48.4640 N   0  0  0  0  0  0  0  0  0  0  0  0
   35.9380   29.7220   49.1360 C   0  0  0  0  0  0  0  0  0  0  0  0
   36.3020   29.4290   50.3920 N   0  0  0  0  0  0  0  0  0  0  0  0
   38.6250   32.1770   48.2600 C   0  0  0  0  0  0  0  0  0  0  0  0
   38.9130   33.3570   48.8360 N   0  0  0  0  0  0  0  0  0  0  0  0
   39.6900   34.3020   48.2930 C   0  0  0  0  0  0  0  0  0  0  0  0
   40.2670   34.1530   47.0890 N   0  0  0  0  0  0  0  0  0  0  0  0
   40.0330   32.9960   46.4350 C   0  0  0  0  0  0  0  0  0  0  0  0
   40.5990   32.7880   45.1960 C   0  0  0  0  0  0  0  0  0  0  0  0
   40.3890   31.6200   44.4880 C   0  0  0  0  0  0  0  0  0  0  0  0
   39.5720   30.6600   45.0930 C   0  0  0  0  0  0  0  0  0  0  0  0
   39.0280   30.9130   46.3310 C   0  0  0  0  0  0  0  0  0  0  0  0
   39.2280   32.0520   47.0330 C   0  0  0  0  0  0  0  0  0  0  0  0
   34.7690   29.0850   48.5150 C   0  0  0  0  0  0  0  0  0  0  0  0
   34.3630   27.8400   48.9720 C   0  0  0  0  0  0  0  0  0  0  0  0
   33.2720   27.3330   48.3180 C   0  0  0  0  0  0  0  0  0  0  0  0
   32.6290   27.9970   47.2950 C   0  0  0  0  0  0  0  0  0  0  0  0
   33.0980   29.2230   46.9100 C   0  0  0  0  0  0  0  0  0  0  0  0
   34.1710   29.7580   47.5290 N   0  0  0  0  0  0  0  0  0  0  0  0
   30.0750   29.2450   46.8890 Cl  0  0  0  0  0  0  0  0  0  0  0  0
   31.1010   30.0440   45.7400 C   0  0  0  0  0  0  0  0  0  0  0  0
   32.4640   29.9700   45.8430 C   0  0  0  0  0  0  0  0  0  0  0  0
   33.1510   30.6630   44.8540 C   0  0  0  0  0  0  0  0  0  0  0  0
   32.5550   31.3700   43.8450 C   0  0  0  0  0  0  0  0  0  0  0  0
   31.1640   31.4190   43.7780 C   0  0  0  0  0  0  0  0  0  0  0  0
   30.4000   32.3170   42.5030 Cl  0  0  0  0  0  0  0  0  0  0  0  0
   30.4590   30.7460   44.7400 C   0  0  0  0  0  0  0  0  0  0  0  0
   37.6680   29.6070   52.3050 N   0  0  0  0  0  0  0  0  0  0  0  0
   39.0276   31.3792   50.6933 H   0  0  0  0  0  0  0  0  0  0  0  0
   39.8622   35.2334   48.8523 H   0  0  0  0  0  0  0  0  0  0  0  0
   41.2346   33.5722   44.7591 H   0  0  0  0  0  0  0  0  0  0  0  0
   40.8414   31.4540   43.4992 H   0  0  0  0  0  0  0  0  0  0  0  0
   39.3654   29.7080   44.5820 H   0  0  0  0  0  0  0  0  0  0  0  0
   38.3885   30.1384   46.7794 H   0  0  0  0  0  0  0  0  0  0  0  0
   34.8726   27.3068   49.7881 H   0  0  0  0  0  0  0  0  0  0  0  0
   32.8899   26.3478   48.6238 H   0  0  0  0  0  0  0  0  0  0  0  0
   31.7557   27.5495   46.7980 H   0  0  0  0  0  0  0  0  0  0  0  0
   34.2504   30.6420   44.8840 H   0  0  0  0  0  0  0  0  0  0  0  0
   33.1669   31.8935   43.0956 H   0  0  0  0  0  0  0  0  0  0  0  0
   29.3594   30.7653   44.7152 H   0  0  0  0  0  0  0  0  0  0  0  0
   37.0657   28.9256   52.7886 H   0  0  0  0  0  0  0  0  0  0  0  0
   38.4818   30.0107   52.7905 H   0  0  0  0  0  0  0  0  0  0  0  0
  1 31  1  0
  2  1  2  0
  3  2  1  0
  4  3  2  0
  4  5  1  0
  5  6  2  0
  6  1  1  0
  7  8  2  0
  7  3  1  0
  9  8  1  0
 10  9  2  0
 11 16  2  0
 11 10  1  0
 12 11  1  0
 13 14  1  0
 13 12  2  0
 14 15  2  0
 15 16  1  0
 16  7  1  0
 17 18  2  0
 17  5  1  0
 19 18  1  0
 20 19  2  0
 21 20  1  0
 21 22  2  0
 22 17  1  0
 24 25  2  0
 24 23  1  0
 25 21  1  0
 26 25  1  0
 27 26  2  0
 28 27  1  0
 28 30  2  0
 29 28  1  0
 30 24  1  0
  2 32  1  0
  9 33  1  0
 12 34  1  0
 13 35  1  0
 14 36  1  0
 15 37  1  0
 18 38  1  0
 19 39  1  0
 20 40  1  0
 26 41  1  0
 27 42  1  0
 30 43  1  0
 31 44  1  0
 31 45  1  0
M  END
>  <Score>  (1) 
-8.21199

>  <Score_dual>  (1) 
-7.78

>  <Choices>  (1) 
[None, 6, ['0-3', 0], 9, ['6-14', 330], 18, ['29-19', 180], 28, ['47-21', 0]]

$$$$
