
     RDKit          3D

 48 51  0  0  1  0  0  0  0  0999 V2000
   35.2760   30.0380   49.4300 C   0  0  2  0  0  0  0  0  0  0  0  0
   36.1830   31.1270   49.0770 C   0  0  0  0  0  0  0  0  0  0  0  0
   37.6830   30.7170   49.1990 C   0  0  2  0  0  0  0  0  0  0  0  0
   38.0510   30.2690   50.5180 C   0  0  0  0  0  0  0  0  0  0  0  0
   36.9870   29.4020   51.1940 C   0  0  0  0  0  0  0  0  0  0  0  0
   35.9810   28.9100   50.1980 C   0  0  0  0  0  0  0  0  0  0  0  0
   38.5420   30.9270   46.3810 Cl  0  0  0  0  0  0  0  0  0  0  0  0
   38.8920   32.1670   47.5650 C   0  0  0  0  0  0  0  0  0  0  0  0
   38.4020   31.9790   48.8320 C   0  0  0  0  0  0  0  0  0  0  0  0
   38.6940   33.0180   49.6910 C   0  0  0  0  0  0  0  0  0  0  0  0
   39.4100   34.1390   49.3190 C   0  0  0  0  0  0  0  0  0  0  0  0
   39.8740   34.2510   48.0090 C   0  0  0  0  0  0  0  0  0  0  0  0
   39.6050   33.2350   47.1100 C   0  0  0  0  0  0  0  0  0  0  0  0
   40.0660   33.3370   45.7660 N   0  0  0  0  0  0  0  0  0  0  0  0
   34.5650   29.4070   48.3220 C   0  0  0  0  0  0  0  0  0  0  0  0
   34.1400   30.2910   47.3410 C   0  0  0  0  0  0  0  0  0  0  0  0
   33.4780   29.7870   46.2260 C   0  0  0  0  0  0  0  0  0  0  0  0
   33.2710   28.4150   46.1490 N   0  0  0  0  0  0  0  0  0  0  0  0
   33.6950   27.5790   47.1200 C   0  0  0  0  0  0  0  0  0  0  0  0
   34.3270   28.1170   48.1690 N   0  0  0  0  0  0  0  0  0  0  0  0
   33.4700   26.1390   47.0230 C   0  0  0  0  0  0  0  0  0  0  0  0
   34.3450   25.3820   46.2740 C   0  0  0  0  0  0  0  0  0  0  0  0
   34.1110   24.0180   46.1980 C   0  0  0  0  0  0  0  0  0  0  0  0
   33.0320   23.4590   46.8580 C   0  0  0  0  0  0  0  0  0  0  0  0
   32.1830   24.2720   47.5970 C   0  0  0  0  0  0  0  0  0  0  0  0
   32.3690   25.6520   47.7110 C   0  0  0  0  0  0  0  0  0  0  0  0
   34.5372   30.5625   50.0537 H   0  0  0  0  0  0  0  0  0  0  0  0
   35.9934   31.9763   49.7498 H   0  0  0  0  0  0  0  0  0  0  0  0
   35.9932   31.3934   48.0268 H   0  0  0  0  0  0  0  0  0  0  0  0
   37.9279   29.8573   48.5580 H   0  0  0  0  0  0  0  0  0  0  0  0
   38.9780   29.6821   50.4390 H   0  0  0  0  0  0  0  0  0  0  0  0
   38.1742   31.1683   51.1394 H   0  0  0  0  0  0  0  0  0  0  0  0
   37.4755   28.5380   51.6683 H   0  0  0  0  0  0  0  0  0  0  0  0
   36.4652   30.0116   51.9464 H   0  0  0  0  0  0  0  0  0  0  0  0
   35.2191   28.3242   50.7332 H   0  0  0  0  0  0  0  0  0  0  0  0
   36.5273   28.3071   49.4576 H   0  0  0  0  0  0  0  0  0  0  0  0
   38.3370   32.9501   50.7293 H   0  0  0  0  0  0  0  0  0  0  0  0
   39.6123   34.9361   50.0496 H   0  0  0  0  0  0  0  0  0  0  0  0
   40.4466   35.1360   47.6945 H   0  0  0  0  0  0  0  0  0  0  0  0
   40.6021   34.1640   45.4668 H   0  0  0  0  0  0  0  0  0  0  0  0
   39.8632   32.5837   45.0934 H   0  0  0  0  0  0  0  0  0  0  0  0
   34.3231   31.3709   47.4429 H   0  0  0  0  0  0  0  0  0  0  0  0
   33.1278   30.4566   45.4267 H   0  0  0  0  0  0  0  0  0  0  0  0
   35.1981   25.8437   45.7553 H   0  0  0  0  0  0  0  0  0  0  0  0
   34.7859   23.3780   45.6107 H   0  0  0  0  0  0  0  0  0  0  0  0
   32.8473   22.3763   46.7979 H   0  0  0  0  0  0  0  0  0  0  0  0
   31.3287   23.8106   48.1140 H   0  0  0  0  0  0  0  0  0  0  0  0
   31.6986   26.2977   48.2971 H   0  0  0  0  0  0  0  0  0  0  0  0
  1  6  1  0
  2  3  1  0
  2  1  1  0
  3  4  1  0
  4  5  1  0
  6  5  1  0
  7  8  1  0
  8  9  2  0
  9  3  1  0
  9 10  1  0
 11 10  2  0
 12 11  1  0
 13  8  1  0
 13 12  2  0
 14 13  1  0
 15  1  1  0
 16 15  2  0
 17 16  1  0
 18 17  2  0
 18 19  1  0
 19 20  2  0
 20 15  1  0
 21 19  1  0
 21 26  1  0
 22 21  2  0
 23 22  1  0
 23 24  2  0
 24 25  1  0
 25 26  2  0
  1 27  1  1
  2 28  1  0
  2 29  1  0
  3 30  1  6
  4 31  1  0
  4 32  1  0
  5 33  1  0
  5 34  1  0
  6 35  1  0
  6 36  1  0
 10 37  1  0
 11 38  1  0
 12 39  1  0
 14 40  1  0
 14 41  1  0
 16 42  1  0
 17 43  1  0
 22 44  1  0
 23 45  1  0
 24 46  1  0
 25 47  1  0
 26 48  1  0
M  END
>  <Score>  (1) 
-7.70577

>  <Score_dual>  (1) 
-7.4

>  <Choices>  (1) 
[None, 6, ['18-26', 345], 19, ['7-17', 90], 35, ['0-2', 0], 37, ['1-24', 270]]

$$$$
