
     RDKit          3D

 44 47  0  0  0  0  0  0  0  0999 V2000
   34.5920   29.2530   48.0900 C   0  0  0  0  0  0  0  0  0  0  0  0
   34.6160   27.9640   48.4860 C   0  0  0  0  0  0  0  0  0  0  0  0
   33.6830   27.0960   48.0850 C   0  0  0  0  0  0  0  0  0  0  0  0
   32.6910   27.5290   47.2600 N   0  0  0  0  0  0  0  0  0  0  0  0
   32.6740   28.7990   46.8740 C   0  0  0  0  0  0  0  0  0  0  0  0
   33.6100   29.6730   47.2760 N   0  0  0  0  0  0  0  0  0  0  0  0
   30.2730   28.9850   46.4000 C   0  0  0  0  0  0  0  0  0  0  0  0
   31.5940   29.1460   45.9820 C   0  0  0  0  0  0  0  0  0  0  0  0
   31.9580   29.6060   44.7310 C   0  0  0  0  0  0  0  0  0  0  0  0
   30.9720   29.9320   43.8250 C   0  0  0  0  0  0  0  0  0  0  0  0
   29.6410   29.8010   44.1540 C   0  0  0  0  0  0  0  0  0  0  0  0
   29.3800   29.3450   45.3990 C   0  0  0  0  0  0  0  0  0  0  0  0
   29.7950   28.4560   47.9070 S   0  0  0  0  0  0  0  0  0  0  0  0
   29.3330   27.0290   47.4620 O   0  0  0  0  0  0  0  0  0  0  0  0
   28.5730   29.2490   48.2920 O   0  0  0  0  0  0  0  0  0  0  0  0
   30.0950   27.8480   49.3530 C   0  0  0  0  0  0  0  0  0  0  0  0
   29.6900   26.5720   49.7970 F   0  0  0  0  0  0  0  0  0  0  0  0
   29.1950   28.4680   50.3440 F   0  0  0  0  0  0  0  0  0  0  0  0
   31.1670   28.3380   50.1580 F   0  0  0  0  0  0  0  0  0  0  0  0
   36.5200   31.7000   50.0330 C   0  0  0  0  0  0  0  0  0  0  0  0
   37.5720   32.0220   49.1510 C   0  0  0  0  0  0  0  0  0  0  0  0
   37.5910   31.3930   47.9140 C   0  0  0  0  0  0  0  0  0  0  0  0
   36.6010   30.5110   47.6320 N   0  0  0  0  0  0  0  0  0  0  0  0
   35.5960   30.2190   48.5060 C   0  0  0  0  0  0  0  0  0  0  0  0
   35.5670   30.8170   49.6960 N   0  0  0  0  0  0  0  0  0  0  0  0
   38.6140   31.6260   46.9030 C   0  0  0  0  0  0  0  0  0  0  0  0
   38.8380   30.6150   45.9920 C   0  0  0  0  0  0  0  0  0  0  0  0
   39.8010   30.7700   44.9980 C   0  0  0  0  0  0  0  0  0  0  0  0
   40.5130   31.9570   44.9560 C   0  0  0  0  0  0  0  0  0  0  0  0
   40.3230   32.9950   45.8440 C   0  0  0  0  0  0  0  0  0  0  0  0
   39.3440   32.7750   46.8160 C   0  0  0  0  0  0  0  0  0  0  0  0
   35.4204   27.6203   49.1529 H   0  0  0  0  0  0  0  0  0  0  0  0
   33.7161   26.0477   48.4165 H   0  0  0  0  0  0  0  0  0  0  0  0
   33.0195   29.7105   44.4621 H   0  0  0  0  0  0  0  0  0  0  0  0
   31.2514   30.3012   42.8272 H   0  0  0  0  0  0  0  0  0  0  0  0
   28.8381   30.0526   43.4454 H   0  0  0  0  0  0  0  0  0  0  0  0
   28.3148   29.2453   45.6546 H   0  0  0  0  0  0  0  0  0  0  0  0
   36.4794   32.1837   51.0201 H   0  0  0  0  0  0  0  0  0  0  0  0
   38.3502   32.7463   49.4334 H   0  0  0  0  0  0  0  0  0  0  0  0
   38.2547   29.6842   46.0507 H   0  0  0  0  0  0  0  0  0  0  0  0
   39.9909   29.9712   44.2660 H   0  0  0  0  0  0  0  0  0  0  0  0
   41.2729   32.0789   44.1701 H   0  0  0  0  0  0  0  0  0  0  0  0
   40.9010   33.9294   45.7907 H   0  0  0  0  0  0  0  0  0  0  0  0
   39.1515   33.5709   47.5505 H   0  0  0  0  0  0  0  0  0  0  0  0
  1  2  2  0
  1 24  1  0
  3  2  1  0
  4  3  2  0
  5  4  1  0
  5  6  2  0
  6  1  1  0
  7 13  1  0
  8  7  2  0
  8  5  1  0
  9  8  1  0
 10 11  1  0
 10  9  2  0
 11 12  2  0
 12  7  1  0
 13 15  2  0
 13 16  1  0
 14 13  2  0
 16 17  1  0
 16 19  1  0
 16 18  1  0
 21 20  2  0
 22 21  1  0
 23 22  2  0
 23 24  1  0
 24 25  2  0
 25 20  1  0
 26 22  1  0
 27 26  2  0
 28 27  1  0
 29 28  2  0
 29 30  1  0
 30 31  2  0
 31 26  1  0
  2 32  1  0
  3 33  1  0
  9 34  1  0
 10 35  1  0
 11 36  1  0
 12 37  1  0
 20 38  1  0
 21 39  1  0
 27 40  1  0
 28 41  1  0
 29 42  1  0
 30 43  1  0
 31 44  1  0
M  END
>  <Score>  (1) 
-7.08747

>  <Score_dual>  (1) 
-7.53

>  <Choices>  (1) 
[None, 9, ['19-20', 225], 17, ['27-18', 165], 30, ['11-3', 345], 33, ['1-26', 0]]

$$$$
