
     RDKit          3D

 51 55  0  0  1  0  0  0  0  0999 V2000
   35.3860   30.4100   49.8810 C   0  0  2  0  0  0  0  0  0  0  0  0
   36.3120   31.4010   49.3600 C   0  0  0  0  0  0  0  0  0  0  0  0
   37.8020   30.9280   49.4190 C   0  0  2  0  0  0  0  0  0  0  0  0
   38.2440   30.6050   50.7560 C   0  0  0  0  0  0  0  0  0  0  0  0
   37.1840   29.8870   51.5970 C   0  0  0  0  0  0  0  0  0  0  0  0
   36.0890   29.3420   50.7310 C   0  0  0  0  0  0  0  0  0  0  0  0
   34.5780   29.6920   48.8980 C   0  0  0  0  0  0  0  0  0  0  0  0
   33.7780   28.6920   49.4360 C   0  0  0  0  0  0  0  0  0  0  0  0
   32.9470   27.9700   48.5830 C   0  0  0  0  0  0  0  0  0  0  0  0
   32.9580   28.2810   47.2380 N   0  0  0  0  0  0  0  0  0  0  0  0
   33.7490   29.2610   46.7370 C   0  0  0  0  0  0  0  0  0  0  0  0
   34.5290   29.9260   47.5980 N   0  0  0  0  0  0  0  0  0  0  0  0
   33.7260   29.5460   45.3380 N   0  0  0  0  0  0  0  0  0  0  0  0
   34.4150   29.0770   44.2800 C   0  0  0  0  0  0  0  0  0  0  0  0
   33.9910   29.7000   43.1600 N   0  0  0  0  0  0  0  0  0  0  0  0
   33.0190   30.5790   43.5050 C   0  0  0  0  0  0  0  0  0  0  0  0
   32.2580   31.4620   42.7470 C   0  0  0  0  0  0  0  0  0  0  0  0
   31.3650   32.2030   43.4210 N   0  0  0  0  0  0  0  0  0  0  0  0
   31.1720   32.1440   44.7320 C   0  0  0  0  0  0  0  0  0  0  0  0
   31.9120   31.2900   45.4490 N   0  0  0  0  0  0  0  0  0  0  0  0
   32.8510   30.4830   44.8830 C   0  0  0  0  0  0  0  0  0  0  0  0
   32.4090   31.5820   41.3380 N   0  0  0  0  0  0  0  0  0  0  0  0
   38.6600   30.7130   46.6120 Cl  0  0  0  0  0  0  0  0  0  0  0  0
   39.0300   32.1110   47.5970 C   0  0  0  0  0  0  0  0  0  0  0  0
   38.5410   32.1190   48.8800 C   0  0  0  0  0  0  0  0  0  0  0  0
   38.8470   33.2780   49.5810 C   0  0  0  0  0  0  0  0  0  0  0  0
   39.5760   34.3150   49.0290 C   0  0  0  0  0  0  0  0  0  0  0  0
   40.0380   34.2240   47.7180 C   0  0  0  0  0  0  0  0  0  0  0  0
   39.7550   33.0920   46.9890 C   0  0  0  0  0  0  0  0  0  0  0  0
   40.2230   32.9930   45.6500 N   0  0  0  0  0  0  0  0  0  0  0  0
   34.7095   31.0401   50.4771 H   0  0  0  0  0  0  0  0  0  0  0  0
   36.2118   32.3219   49.9532 H   0  0  0  0  0  0  0  0  0  0  0  0
   36.0588   31.5674   48.3025 H   0  0  0  0  0  0  0  0  0  0  0  0
   37.9667   29.9981   48.8550 H   0  0  0  0  0  0  0  0  0  0  0  0
   39.1281   29.9547   50.6821 H   0  0  0  0  0  0  0  0  0  0  0  0
   38.4651   31.5570   51.2609 H   0  0  0  0  0  0  0  0  0  0  0  0
   37.6584   29.0573   52.1416 H   0  0  0  0  0  0  0  0  0  0  0  0
   36.7466   30.6103   52.3009 H   0  0  0  0  0  0  0  0  0  0  0  0
   35.3391   28.8643   51.3786 H   0  0  0  0  0  0  0  0  0  0  0  0
   36.5546   28.6305   50.0332 H   0  0  0  0  0  0  0  0  0  0  0  0
   33.8004   28.4747   50.5141 H   0  0  0  0  0  0  0  0  0  0  0  0
   32.2978   27.1715   48.9714 H   0  0  0  0  0  0  0  0  0  0  0  0
   35.1998   28.3074   44.3220 H   0  0  0  0  0  0  0  0  0  0  0  0
   30.4205   32.7828   45.2190 H   0  0  0  0  0  0  0  0  0  0  0  0
   33.1015   31.0021   40.8430 H   0  0  0  0  0  0  0  0  0  0  0  0
   31.8258   32.2488   40.8125 H   0  0  0  0  0  0  0  0  0  0  0  0
   38.4948   33.3751   50.6185 H   0  0  0  0  0  0  0  0  0  0  0  0
   39.7915   35.2134   49.6260 H   0  0  0  0  0  0  0  0  0  0  0  0
   40.6200   35.0443   47.2726 H   0  0  0  0  0  0  0  0  0  0  0  0
   40.7676   33.7633   45.2365 H   0  0  0  0  0  0  0  0  0  0  0  0
   40.0174   32.1510   45.0935 H   0  0  0  0  0  0  0  0  0  0  0  0
  1  6  1  0
  2  3  1  0
  2  1  1  0
  3  4  1  0
  4  5  1  0
  6  5  1  0
  7  8  2  0
  7  1  1  0
  9  8  1  0
 10  9  2  0
 11 10  1  0
 11 12  2  0
 12  7  1  0
 13 11  1  0
 14 13  1  0
 15 16  1  0
 15 14  2  0
 16 21  2  0
 17 18  2  0
 17 16  1  0
 18 19  1  0
 19 20  2  0
 21 13  1  0
 21 20  1  0
 22 17  1  0
 23 24  1  0
 24 25  2  0
 25  3  1  0
 25 26  1  0
 27 26  2  0
 28 27  1  0
 29 24  1  0
 29 28  2  0
 30 29  1  0
  1 31  1  1
  2 32  1  0
  2 33  1  0
  3 34  1  6
  4 35  1  0
  4 36  1  0
  5 37  1  0
  5 38  1  0
  6 39  1  0
  6 40  1  0
  8 41  1  0
  9 42  1  0
 14 43  1  0
 19 44  1  0
 22 45  1  0
 22 46  1  0
 26 47  1  0
 27 48  1  0
 28 49  1  0
 30 50  1  0
 30 51  1  0
M  END
>  <Score>  (1) 
-8.63528

>  <Score_dual>  (1) 
-7.54

>  <Choices>  (1) 
[None, 6, ['18-26', 345], 19, ['7-17', 90], 35, ['0-2', 0], 37, ['28-9', 165]]

$$$$
