
     RDKit          3D

 45 49  0  0  0  0  0  0  0  0999 V2000
   37.3650   31.2560   46.9600 N   0  0  0  0  0  0  0  0  0  0  0  0
   36.6770   31.1010   45.7970 C   0  0  0  0  0  0  0  0  0  0  0  0
   37.1170   31.6640   44.6020 C   0  0  0  0  0  0  0  0  0  0  0  0
   38.2980   32.3960   44.6430 C   0  0  0  0  0  0  0  0  0  0  0  0
   38.7350   32.9240   43.5880 O   0  0  0  0  0  0  0  0  0  0  0  0
   38.9890   32.5520   45.8180 N   0  0  0  0  0  0  0  0  0  0  0  0
   38.4670   31.9680   46.8870 C   0  0  0  0  0  0  0  0  0  0  0  0
   39.1250   32.1310   47.9410 O   0  0  0  0  0  0  0  0  0  0  0  0
   37.3340   29.5090   50.2430 C   0  0  0  0  0  0  0  0  0  0  0  0
   37.7900   30.0830   49.0470 C   0  0  0  0  0  0  0  0  0  0  0  0
   36.9090   30.6860   48.1530 C   0  0  0  0  0  0  0  0  0  0  0  0
   35.6030   30.6970   48.4800 N   0  0  0  0  0  0  0  0  0  0  0  0
   35.1350   30.1480   49.6360 C   0  0  0  0  0  0  0  0  0  0  0  0
   36.0160   29.5570   50.5070 N   0  0  0  0  0  0  0  0  0  0  0  0
   36.4180   31.5250   43.3350 C   0  0  0  0  0  0  0  0  0  0  0  0
   36.5720   30.4630   42.4910 C   0  0  0  0  0  0  0  0  0  0  0  0
   35.9230   30.3110   41.2880 C   0  0  0  0  0  0  0  0  0  0  0  0
   35.0370   31.3180   40.8950 C   0  0  0  0  0  0  0  0  0  0  0  0
   34.9000   32.3810   41.7680 C   0  0  0  0  0  0  0  0  0  0  0  0
   35.5710   32.4540   42.9230 N   0  0  0  0  0  0  0  0  0  0  0  0
   32.6520   33.3460   41.1920 C   0  0  0  0  0  0  0  0  0  0  0  0
   33.9930   33.4740   41.4270 C   0  0  0  0  0  0  0  0  0  0  0  0
   34.4570   34.7740   41.3130 C   0  0  0  0  0  0  0  0  0  0  0  0
   33.6850   35.8750   40.9960 C   0  0  0  0  0  0  0  0  0  0  0  0
   33.9610   37.1830   40.8450 N   0  0  0  0  0  0  0  0  0  0  0  0
   32.7880   37.7910   40.5290 C   0  0  0  0  0  0  0  0  0  0  0  0
   31.7920   36.8600   40.4850 N   0  0  0  0  0  0  0  0  0  0  0  0
   32.3420   35.6710   40.7730 C   0  0  0  0  0  0  0  0  0  0  0  0
   31.8220   34.4000   40.8720 C   0  0  0  0  0  0  0  0  0  0  0  0
   40.2080   33.3150   45.8390 C   0  0  0  0  0  0  0  0  0  0  0  0
   40.2140   34.2620   44.8680 F   0  0  0  0  0  0  0  0  0  0  0  0
   41.3460   32.5410   45.6100 F   0  0  0  0  0  0  0  0  0  0  0  0
   40.3180   33.9500   47.0770 F   0  0  0  0  0  0  0  0  0  0  0  0
   35.7466   30.5142   45.8006 H   0  0  0  0  0  0  0  0  0  0  0  0
   38.0345   29.0331   50.9451 H   0  0  0  0  0  0  0  0  0  0  0  0
   38.8640   30.0562   48.8109 H   0  0  0  0  0  0  0  0  0  0  0  0
   34.0604   30.1782   49.8692 H   0  0  0  0  0  0  0  0  0  0  0  0
   37.2684   29.6682   42.7965 H   0  0  0  0  0  0  0  0  0  0  0  0
   36.0954   29.4269   40.6566 H   0  0  0  0  0  0  0  0  0  0  0  0
   34.4815   31.2676   39.9469 H   0  0  0  0  0  0  0  0  0  0  0  0
   32.2085   32.3418   41.2624 H   0  0  0  0  0  0  0  0  0  0  0  0
   35.5294   34.9440   41.4895 H   0  0  0  0  0  0  0  0  0  0  0  0
   34.8809   37.6347   40.9486 H   0  0  0  0  0  0  0  0  0  0  0  0
   32.6611   38.8669   40.3383 H   0  0  0  0  0  0  0  0  0  0  0  0
   30.7501   34.2261   40.6968 H   0  0  0  0  0  0  0  0  0  0  0  0
  1 11  1  0
  2  1  1  0
  3  4  1  0
  3  2  2  0
  4  6  1  0
  5  4  2  0
  6 30  1  0
  6  7  1  0
  7  1  1  0
  7  8  2  0
  9 14  2  0
 10  9  1  0
 11 12  1  0
 11 10  2  0
 12 13  2  0
 13 14  1  0
 15  3  1  0
 16 15  2  0
 17 16  1  0
 18 17  2  0
 18 19  1  0
 19 20  2  0
 20 15  1  0
 21 22  2  0
 22 19  1  0
 23 22  1  0
 24 23  2  0
 25 24  1  0
 26 25  1  0
 27 26  2  0
 27 28  1  0
 28 29  2  0
 28 24  1  0
 29 21  1  0
 30 33  1  0
 31 30  1  0
 32 30  1  0
  2 34  1  0
  9 35  1  0
 10 36  1  0
 13 37  1  0
 16 38  1  0
 17 39  1  0
 18 40  1  0
 21 41  1  0
 23 42  1  0
 25 43  1  0
 26 44  1  0
 29 45  1  0
M  END
>  <Score>  (1) 
-7.24016

>  <Score_dual>  (1) 
-7.52

>  <Choices>  (1) 
[None, 8, ['37-15', 165], 19, ['11-3', 60], 22, ['6-12', 270], 31, ['34-22', 105]]

$$$$
