
     RDKit          3D

 53 56  0  0  1  0  0  0  0  0999 V2000
   35.2500   30.2770   49.7560 C   0  0  2  0  0  0  0  0  0  0  0  0
   36.1840   31.2820   49.2710 C   0  0  0  0  0  0  0  0  0  0  0  0
   37.6700   30.8170   49.3600 C   0  0  2  0  0  0  0  0  0  0  0  0
   38.0850   30.4680   50.6990 C   0  0  0  0  0  0  0  0  0  0  0  0
   37.0160   29.7200   51.4970 C   0  0  0  0  0  0  0  0  0  0  0  0
   35.9400   29.1940   50.6000 C   0  0  0  0  0  0  0  0  0  0  0  0
   34.4640   29.5740   48.7450 C   0  0  0  0  0  0  0  0  0  0  0  0
   35.0000   29.6280   47.4650 C   0  0  0  0  0  0  0  0  0  0  0  0
   34.3440   28.9650   46.4340 C   0  0  0  0  0  0  0  0  0  0  0  0
   33.1700   28.2750   46.7390 N   0  0  0  0  0  0  0  0  0  0  0  0
   32.6810   28.2450   47.9870 C   0  0  0  0  0  0  0  0  0  0  0  0
   33.3480   28.8970   48.9460 N   0  0  0  0  0  0  0  0  0  0  0  0
   31.4860   27.5420   48.2980 N   0  0  0  0  0  0  0  0  0  0  0  0
   30.7690   27.7470   49.5370 C   0  0  0  0  0  0  0  0  0  0  0  0
   29.3400   28.1120   49.1370 C   0  0  0  0  0  0  0  0  0  0  0  0
   28.7580   26.9370   48.3730 C   0  0  0  0  0  0  0  0  0  0  0  0
   29.4890   26.8610   47.0470 C   0  0  0  0  0  0  0  0  0  0  0  0
   30.9490   26.5820   47.3530 C   0  0  0  0  0  0  0  0  0  0  0  0
   38.5880   30.6300   46.5600 Cl  0  0  0  0  0  0  0  0  0  0  0  0
   38.9450   32.0040   47.5760 C   0  0  0  0  0  0  0  0  0  0  0  0
   38.4240   32.0010   48.8450 C   0  0  0  0  0  0  0  0  0  0  0  0
   38.7200   33.1420   49.5670 C   0  0  0  0  0  0  0  0  0  0  0  0
   39.4710   34.1880   49.0650 C   0  0  0  0  0  0  0  0  0  0  0  0
   39.9670   34.1100   47.7600 C   0  0  0  0  0  0  0  0  0  0  0  0
   39.6910   32.9790   47.0000 C   0  0  0  0  0  0  0  0  0  0  0  0
   40.1990   32.9020   45.6770 N   0  0  0  0  0  0  0  0  0  0  0  0
   34.5604   30.8949   50.3499 H   0  0  0  0  0  0  0  0  0  0  0  0
   36.0641   32.1939   49.8744 H   0  0  0  0  0  0  0  0  0  0  0  0
   35.9558   31.4625   48.2102 H   0  0  0  0  0  0  0  0  0  0  0  0
   37.8455   29.8938   48.7883 H   0  0  0  0  0  0  0  0  0  0  0  0
   38.9781   29.8295   50.6308 H   0  0  0  0  0  0  0  0  0  0  0  0
   38.2834   31.4103   51.2307 H   0  0  0  0  0  0  0  0  0  0  0  0
   37.4865   28.8776   52.0252 H   0  0  0  0  0  0  0  0  0  0  0  0
   36.5612   30.4211   52.2123 H   0  0  0  0  0  0  0  0  0  0  0  0
   35.1784   28.7029   51.2235 H   0  0  0  0  0  0  0  0  0  0  0  0
   36.4215   28.4988   49.8966 H   0  0  0  0  0  0  0  0  0  0  0  0
   35.9278   30.1859   47.2702 H   0  0  0  0  0  0  0  0  0  0  0  0
   34.7390   28.9838   45.4075 H   0  0  0  0  0  0  0  0  0  0  0  0
   30.7747   26.8266   50.1394 H   0  0  0  0  0  0  0  0  0  0  0  0
   31.2325   28.5367   50.1465 H   0  0  0  0  0  0  0  0  0  0  0  0
   28.7382   28.3086   50.0365 H   0  0  0  0  0  0  0  0  0  0  0  0
   29.3351   29.0172   48.5120 H   0  0  0  0  0  0  0  0  0  0  0  0
   28.9079   26.0066   48.9403 H   0  0  0  0  0  0  0  0  0  0  0  0
   27.6771   27.0683   48.2171 H   0  0  0  0  0  0  0  0  0  0  0  0
   29.3928   27.8154   46.5087 H   0  0  0  0  0  0  0  0  0  0  0  0
   29.0652   26.0682   46.4131 H   0  0  0  0  0  0  0  0  0  0  0  0
   31.0383   25.5720   47.7795 H   0  0  0  0  0  0  0  0  0  0  0  0
   31.5199   26.6629   46.4162 H   0  0  0  0  0  0  0  0  0  0  0  0
   38.3377   33.2217   50.5953 H   0  0  0  0  0  0  0  0  0  0  0  0
   39.6764   35.0727   49.6856 H   0  0  0  0  0  0  0  0  0  0  0  0
   40.5667   34.9314   47.3409 H   0  0  0  0  0  0  0  0  0  0  0  0
   40.7603   33.6765   45.2950 H   0  0  0  0  0  0  0  0  0  0  0  0
   40.0064   32.0716   45.0989 H   0  0  0  0  0  0  0  0  0  0  0  0
  1  6  1  0
  2  3  1  0
  2  1  1  0
  3  4  1  0
  4  5  1  0
  6  5  1  0
  7 12  1  0
  7  1  1  0
  8  7  2  0
  9 10  2  0
  9  8  1  0
 10 11  1  0
 11 13  1  0
 11 12  2  0
 13 14  1  0
 15 14  1  0
 16 15  1  0
 17 18  1  0
 17 16  1  0
 18 13  1  0
 19 20  1  0
 20 21  2  0
 21  3  1  0
 21 22  1  0
 23 22  2  0
 24 23  1  0
 25 20  1  0
 25 24  2  0
 26 25  1  0
  1 27  1  1
  2 28  1  0
  2 29  1  0
  3 30  1  6
  4 31  1  0
  4 32  1  0
  5 33  1  0
  5 34  1  0
  6 35  1  0
  6 36  1  0
  8 37  1  0
  9 38  1  0
 14 39  1  0
 14 40  1  0
 15 41  1  0
 15 42  1  0
 16 43  1  0
 16 44  1  0
 17 45  1  0
 17 46  1  0
 18 47  1  0
 18 48  1  0
 22 49  1  0
 23 50  1  0
 24 51  1  0
 26 52  1  0
 26 53  1  0
M  END
>  <Score>  (1) 
-8.35058

>  <Score_dual>  (1) 
-7.24

>  <Choices>  (1) 
[None, 6, ['18-26', 345], 19, ['7-17', 90], 35, ['0-2', 0], 37, ['8-4', 15]]

$$$$
