
     RDKit          3D

 28 30  0  0  0  0  0  0  0  0999 V2000
   38.5250   25.7090   35.4370 C   0  0  0  0  0  0  0  0  0  0  0  0
   38.3610   26.8390   36.2530 C   0  0  0  0  0  0  0  0  0  0  0  0
   37.7760   27.8150   35.4440 C   0  0  0  0  0  0  0  0  0  0  0  0
   37.6240   27.2310   34.2180 C   0  0  0  0  0  0  0  0  0  0  0  0
   38.0710   26.0080   34.2520 O   0  0  0  0  0  0  0  0  0  0  0  0
   38.6850   23.8550   37.1390 C   0  0  0  0  0  0  0  0  0  0  0  0
   39.1180   24.4830   35.9640 C   0  0  0  0  0  0  0  0  0  0  0  0
   40.1600   23.9010   35.2750 C   0  0  0  0  0  0  0  0  0  0  0  0
   40.7420   22.7480   35.7400 N   0  0  0  0  0  0  0  0  0  0  0  0
   40.2860   22.1810   36.8830 C   0  0  0  0  0  0  0  0  0  0  0  0
   39.2740   22.7350   37.5600 N   0  0  0  0  0  0  0  0  0  0  0  0
   37.0490   27.8890   33.0570 C   0  0  0  0  0  0  0  0  0  0  0  0
   35.8630   28.5630   33.1100 C   0  0  0  0  0  0  0  0  0  0  0  0
   35.3060   29.1900   32.0180 C   0  0  0  0  0  0  0  0  0  0  0  0
   35.9600   29.1360   30.8510 N   0  0  0  0  0  0  0  0  0  0  0  0
   37.1380   28.4690   30.7930 C   0  0  0  0  0  0  0  0  0  0  0  0
   37.6970   27.8480   31.8550 N   0  0  0  0  0  0  0  0  0  0  0  0
   37.8810   28.4020   29.4850 C   0  0  0  0  0  0  0  0  0  0  0  0
   38.6370   26.9359   37.3134 H   0  0  0  0  0  0  0  0  0  0  0  0
   37.4963   28.8389   35.7328 H   0  0  0  0  0  0  0  0  0  0  0  0
   37.8552   24.2877   37.7171 H   0  0  0  0  0  0  0  0  0  0  0  0
   40.5275   24.3631   34.3469 H   0  0  0  0  0  0  0  0  0  0  0  0
   40.7518   21.2575   37.2573 H   0  0  0  0  0  0  0  0  0  0  0  0
   35.3274   28.6072   34.0698 H   0  0  0  0  0  0  0  0  0  0  0  0
   34.3471   29.7223   32.1024 H   0  0  0  0  0  0  0  0  0  0  0  0
   38.9591   28.3048   29.6803 H   0  0  0  0  0  0  0  0  0  0  0  0
   37.5326   27.5316   28.9096 H   0  0  0  0  0  0  0  0  0  0  0  0
   37.6940   29.3207   28.9096 H   0  0  0  0  0  0  0  0  0  0  0  0
  1  7  1  0
  1  2  2  0
  3  2  1  0
  4  5  1  0
  4  3  2  0
  5  1  1  0
  6 11  2  0
  7  6  1  0
  8  9  1  0
  8  7  2  0
  9 10  2  0
 10 11  1  0
 12 13  2  0
 12  4  1  0
 14 13  1  0
 15 14  2  0
 16 15  1  0
 16 17  2  0
 17 12  1  0
 18 16  1  0
  2 19  1  0
  3 20  1  0
  6 21  1  0
  8 22  1  0
 10 23  1  0
 13 24  1  0
 14 25  1  0
 18 26  1  0
 18 27  1  0
 18 28  1  0
M  ISO  8  19  14  20  14  21  14  22  14  23  14  24  14  25  14  26   8
M  ISO  2  27   8  28   8
M  END
>  <minimizedAffinity>  (1) 
-4.65783787

>  <minimizedRMSD>  (1) 
0.483190209

$$$$
