
     RDKit          3D

 41 44  0  0  0  0  0  0  0  0999 V2000
   41.2500   23.6910   35.2990 C   0  0  0  0  0  0  0  0  0  0  0  0
   40.1920   22.8820   35.6880 C   0  0  0  0  0  0  0  0  0  0  0  0
   38.9140   23.4690   35.8750 C   0  0  0  0  0  0  0  0  0  0  0  0
   38.7970   24.8080   35.6580 N   0  0  0  0  0  0  0  0  0  0  0  0
   39.8540   25.5620   35.2800 C   0  0  0  0  0  0  0  0  0  0  0  0
   41.0580   25.0100   35.1030 N   0  0  0  0  0  0  0  0  0  0  0  0
   39.5520   27.0150   35.0850 C   0  0  0  0  0  0  0  0  0  0  0  0
   38.1590   27.3160   35.5490 C   0  0  0  0  0  0  0  0  0  0  0  0
   37.2610   27.6490   34.4010 C   0  0  0  0  0  0  0  0  0  0  0  0
   37.3200   27.0530   33.1980 N   0  0  0  0  0  0  0  0  0  0  0  0
   36.4120   27.5620   32.4180 O   0  0  0  0  0  0  0  0  0  0  0  0
   35.7420   28.4810   33.0530 C   0  0  0  0  0  0  0  0  0  0  0  0
   36.2620   28.5440   34.2890 N   0  0  0  0  0  0  0  0  0  0  0  0
   34.6390   29.3450   32.6510 C   0  0  0  0  0  0  0  0  0  0  0  0
   34.5860   30.4320   31.8040 C   0  0  0  0  0  0  0  0  0  0  0  0
   33.2640   30.8850   31.7810 C   0  0  0  0  0  0  0  0  0  0  0  0
   32.5950   30.0250   32.6320 C   0  0  0  0  0  0  0  0  0  0  0  0
   33.4120   29.1410   33.1230 O   0  0  0  0  0  0  0  0  0  0  0  0
   37.8070   22.6050   36.2850 C   0  0  0  0  0  0  0  0  0  0  0  0
   37.1030   21.9460   35.2250 N   0  0  0  0  0  0  0  0  0  0  0  0
   36.2410   20.9150   35.4310 C   0  0  0  0  0  0  0  0  0  0  0  0
   35.5640   20.2860   34.3930 C   0  0  0  0  0  0  0  0  0  0  0  0
   35.8190   20.7730   33.1080 C   0  0  0  0  0  0  0  0  0  0  0  0
   35.2700   20.2920   32.0730 O   0  0  0  0  0  0  0  0  0  0  0  0
   36.6550   21.7790   32.8750 N   0  0  0  0  0  0  0  0  0  0  0  0
   37.2710   22.3330   33.9470 C   0  0  0  0  0  0  0  0  0  0  0  0
   38.0760   23.3010   33.7240 O   0  0  0  0  0  0  0  0  0  0  0  0
   42.2485   23.2541   35.1502 H   0  0  0  0  0  0  0  0  0  0  0  0
   40.3415   21.8041   35.8486 H   0  0  0  0  0  0  0  0  0  0  0  0
   40.2671   27.6167   35.6651 H   0  0  0  0  0  0  0  0  0  0  0  0
   39.6377   27.2613   34.0163 H   0  0  0  0  0  0  0  0  0  0  0  0
   37.7584   26.4357   36.0730 H   0  0  0  0  0  0  0  0  0  0  0  0
   38.1986   28.1860   36.2209 H   0  0  0  0  0  0  0  0  0  0  0  0
   35.4308   30.8641   31.2475 H   0  0  0  0  0  0  0  0  0  0  0  0
   32.8502   31.7325   31.2149 H   0  0  0  0  0  0  0  0  0  0  0  0
   31.5207   30.0810   32.8617 H   0  0  0  0  0  0  0  0  0  0  0  0
   38.2129   21.8308   36.9527 H   0  0  0  0  0  0  0  0  0  0  0  0
   37.0720   23.2690   36.7635 H   0  0  0  0  0  0  0  0  0  0  0  0
   36.0727   20.5648   36.4601 H   0  0  0  0  0  0  0  0  0  0  0  0
   34.8680   19.4533   34.5723 H   0  0  0  0  0  0  0  0  0  0  0  0
   36.8275   22.1232   31.9197 H   0  0  0  0  0  0  0  0  0  0  0  0
  1  2  2  0
  2  3  1  0
  3 19  1  0
  4  3  2  0
  5  4  1  0
  6  5  2  0
  6  1  1  0
  7  5  1  0
  7  8  1  0
  9  8  1  0
 10  9  2  0
 11 12  1  0
 11 10  1  0
 12 13  2  0
 13  9  1  0
 14 12  1  0
 14 18  1  0
 15 14  2  0
 16 15  1  0
 16 17  2  0
 17 18  1  0
 20 21  1  0
 20 19  1  0
 22 21  2  0
 23 22  1  0
 24 23  2  0
 25 23  1  0
 25 26  1  0
 26 20  1  0
 27 26  2  0
  1 28  1  0
  2 29  1  0
  7 30  1  0
  7 31  1  0
  8 32  1  0
  8 33  1  0
 15 34  1  0
 16 35  1  0
 17 36  1  0
 19 37  1  0
 19 38  1  0
 21 39  1  0
 22 40  1  0
 25 41  1  0
M  ISO  8  28  14  29  14  30   8  31   8  32   8  33   8  34  14  35  14
M  ISO  6  36  14  37   8  38   8  39  14  40  14  41   9
M  END
>  <minimizedAffinity>  (1) 
-5.23430061

>  <minimizedRMSD>  (1) 
2.30593681

$$$$
