
     RDKit          3D

 36 40  0  0  0  0  0  0  0  0999 V2000
   37.7110   22.9550   33.6120 C   0  0  0  0  0  0  0  0  0  0  0  0
   37.4270   24.1580   32.9420 C   0  0  0  0  0  0  0  0  0  0  0  0
   38.2320   25.2460   33.2240 C   0  0  0  0  0  0  0  0  0  0  0  0
   39.2460   25.0880   34.1270 N   0  0  0  0  0  0  0  0  0  0  0  0
   39.4870   23.9290   34.7460 C   0  0  0  0  0  0  0  0  0  0  0  0
   38.7260   22.8660   34.4920 N   0  0  0  0  0  0  0  0  0  0  0  0
   36.9580   21.7710   33.4090 N   0  0  0  0  0  0  0  0  0  0  0  0
   36.1930   21.2360   34.4040 C   0  0  0  0  0  0  0  0  0  0  0  0
   35.5670   20.1140   33.9890 N   0  0  0  0  0  0  0  0  0  0  0  0
   35.9200   19.9030   32.7120 C   0  0  0  0  0  0  0  0  0  0  0  0
   35.6330   18.9470   31.7340 C   0  0  0  0  0  0  0  0  0  0  0  0
   36.1920   19.0530   30.5040 N   0  0  0  0  0  0  0  0  0  0  0  0
   37.0160   20.0790   30.2410 C   0  0  0  0  0  0  0  0  0  0  0  0
   37.3210   21.0270   31.1590 N   0  0  0  0  0  0  0  0  0  0  0  0
   36.7750   20.9350   32.3820 C   0  0  0  0  0  0  0  0  0  0  0  0
   34.7480   17.9360   32.1790 N   0  0  0  0  0  0  0  0  0  0  0  0
   37.9400   26.5070   32.5270 C   0  0  0  0  0  0  0  0  0  0  0  0
   36.9550   27.3960   32.9620 C   0  0  0  0  0  0  0  0  0  0  0  0
   36.9910   28.4270   32.0680 N   0  0  0  0  0  0  0  0  0  0  0  0
   37.9490   28.1370   31.1690 C   0  0  0  0  0  0  0  0  0  0  0  0
   38.5310   26.9930   31.4240 N   0  0  0  0  0  0  0  0  0  0  0  0
   39.5960   26.3060   30.7280 C   0  0  0  0  0  0  0  0  0  0  0  0
   41.0590   26.4130   31.0390 C   0  0  0  0  0  0  0  0  0  0  0  0
   41.7450   25.3360   29.8230 S   0  0  0  0  0  0  0  0  0  0  0  0
   40.0520   24.8840   29.0680 C   0  0  0  0  0  0  0  0  0  0  0  0
   39.1980   25.5270   29.7380 N   0  0  0  0  0  0  0  0  0  0  0  0
   36.5980   24.2306   32.2227 H   0  0  0  0  0  0  0  0  0  0  0  0
   40.3149   23.8526   35.4663 H   0  0  0  0  0  0  0  0  0  0  0  0
   36.0985   21.6633   35.4132 H   0  0  0  0  0  0  0  0  0  0  0  0
   37.4622   20.1532   29.2383 H   0  0  0  0  0  0  0  0  0  0  0  0
   34.4677   17.1789   31.5394 H   0  0  0  0  0  0  0  0  0  0  0  0
   34.3843   17.9574   33.1424 H   0  0  0  0  0  0  0  0  0  0  0  0
   36.2941   27.2889   33.8348 H   0  0  0  0  0  0  0  0  0  0  0  0
   38.2120   28.7850   30.3199 H   0  0  0  0  0  0  0  0  0  0  0  0
   41.5669   27.0036   31.8157 H   0  0  0  0  0  0  0  0  0  0  0  0
   39.8605   24.2045   28.2245 H   0  0  0  0  0  0  0  0  0  0  0  0
  1  6  2  0
  2  3  2  0
  2  1  1  0
  3  4  1  0
  4  5  2  0
  6  5  1  0
  7  1  1  0
  7  8  1  0
  9  8  2  0
 10  9  1  0
 11 16  1  0
 11 10  2  0
 12 11  1  0
 13 12  2  0
 13 14  1  0
 14 15  2  0
 15 10  1  0
 15  7  1  0
 17 18  2  0
 17  3  1  0
 19 18  1  0
 20 21  1  0
 20 19  2  0
 21 17  1  0
 22 23  2  0
 22 21  1  0
 24 23  1  0
 25 26  2  0
 25 24  1  0
 26 22  1  0
  2 27  1  0
  5 28  1  0
  8 29  1  0
 13 30  1  0
 16 31  1  0
 16 32  1  0
 18 33  1  0
 20 34  1  0
 23 35  1  0
 25 36  1  0
M  ISO  8  27  14  28  14  29  14  30  14  33  14  34  14  35  14  36  14
M  END
>  <minimizedAffinity>  (1) 
-4.94078255

>  <minimizedRMSD>  (1) 
1.57396924

$$$$
