
     RDKit          3D

 36 39  0  0  0  0  0  0  0  0999 V2000
   37.4440   27.3780   33.6630 C   0  0  0  0  0  0  0  0  0  0  0  0
   36.5280   28.1010   34.4470 C   0  0  0  0  0  0  0  0  0  0  0  0
   35.7860   29.0240   33.7950 C   0  0  0  0  0  0  0  0  0  0  0  0
   35.9770   29.1840   32.4520 C   0  0  0  0  0  0  0  0  0  0  0  0
   37.3160   27.9420   32.0160 S   0  0  0  0  0  0  0  0  0  0  0  0
   37.9130   25.0910   34.6510 C   0  0  0  0  0  0  0  0  0  0  0  0
   38.3230   26.3430   34.2180 C   0  0  0  0  0  0  0  0  0  0  0  0
   39.6750   26.7170   34.2920 C   0  0  0  0  0  0  0  0  0  0  0  0
   40.4950   25.7680   34.8080 N   0  0  0  0  0  0  0  0  0  0  0  0
   40.0930   24.5520   35.2290 C   0  0  0  0  0  0  0  0  0  0  0  0
   38.7930   24.2380   35.1400 N   0  0  0  0  0  0  0  0  0  0  0  0
   41.1220   23.6540   35.7660 C   0  0  0  0  0  0  0  0  0  0  0  0
   42.3870   23.8680   35.3730 C   0  0  0  0  0  0  0  0  0  0  0  0
   43.3350   22.5320   36.2840 S   0  0  0  0  0  0  0  0  0  0  0  0
   41.7010   21.9110   37.0680 C   0  0  0  0  0  0  0  0  0  0  0  0
   41.0340   22.6490   36.5890 N   0  0  0  0  0  0  0  0  0  0  0  0
   41.6700   20.8150   37.9560 N   0  0  0  0  0  0  0  0  0  0  0  0
   35.4340   30.0070   31.4150 C   0  0  0  0  0  0  0  0  0  0  0  0
   36.0830   30.2920   30.4100 O   0  0  0  0  0  0  0  0  0  0  0  0
   34.0900   30.5230   31.5370 N   0  0  0  0  0  0  0  0  0  0  0  0
   34.5400   30.1050   34.4960 S   0  0  0  0  0  0  0  0  0  0  0  0
   35.3550   31.7070   34.7210 C   0  0  0  0  0  0  0  0  0  0  0  0
   36.2030   32.0270   35.7770 C   0  0  0  0  0  0  0  0  0  0  0  0
   36.6520   33.7700   35.3720 S   0  0  0  0  0  0  0  0  0  0  0  0
   35.5770   33.7330   33.8050 C   0  0  0  0  0  0  0  0  0  0  0  0
   35.1250   32.6370   33.8110 N   0  0  0  0  0  0  0  0  0  0  0  0
   36.4213   27.9259   35.5277 H   0  0  0  0  0  0  0  0  0  0  0  0
   36.8519   24.8084   34.5867 H   0  0  0  0  0  0  0  0  0  0  0  0
   40.0391   27.6999   33.9585 H   0  0  0  0  0  0  0  0  0  0  0  0
   42.7721   24.6366   34.6867 H   0  0  0  0  0  0  0  0  0  0  0  0
   40.7750   20.5054   38.3609 H   0  0  0  0  0  0  0  0  0  0  0  0
   42.5424   20.3245   38.1994 H   0  0  0  0  0  0  0  0  0  0  0  0
   33.6963   31.1157   30.7923 H   0  0  0  0  0  0  0  0  0  0  0  0
   33.5256   30.2982   32.3687 H   0  0  0  0  0  0  0  0  0  0  0  0
   36.5211   31.4058   36.6272 H   0  0  0  0  0  0  0  0  0  0  0  0
   35.4137   34.5349   33.0700 H   0  0  0  0  0  0  0  0  0  0  0  0
  1  7  1  0
  1  2  2  0
  3  2  1  0
  3 21  1  0
  4  3  2  0
  5  4  1  0
  5  1  1  0
  6 11  2  0
  7  8  2  0
  7  6  1  0
  8  9  1  0
  9 10  2  0
 10 12  1  0
 11 10  1  0
 12 16  1  0
 13 12  2  0
 13 14  1  0
 14 15  1  0
 15 17  1  0
 16 15  2  0
 18 20  1  0
 18  4  1  0
 19 18  2  0
 21 22  1  0
 22 23  2  0
 24 23  1  0
 25 26  2  0
 25 24  1  0
 26 22  1  0
  2 27  1  0
  6 28  1  0
  8 29  1  0
 13 30  1  0
 17 31  1  0
 17 32  1  0
 20 33  1  0
 20 34  1  0
 23 35  1  0
 25 36  1  0
M  ISO  6  27  14  28  14  29  14  30  14  35  14  36  14
M  END
>  <minimizedAffinity>  (1) 
-5.13978148

>  <minimizedRMSD>  (1) 
1.28303528

$$$$
