
     RDKit          3D

 48 51  0  0  0  0  0  0  0  0999 V2000
   37.1620   26.9740   34.6210 C   0  0  0  0  0  0  0  0  0  0  0  0
   37.2550   26.3420   33.3860 C   0  0  0  0  0  0  0  0  0  0  0  0
   36.5630   26.9030   32.3070 C   0  0  0  0  0  0  0  0  0  0  0  0
   35.8450   28.0250   32.5310 N   0  0  0  0  0  0  0  0  0  0  0  0
   35.7690   28.6210   33.7380 C   0  0  0  0  0  0  0  0  0  0  0  0
   36.4300   28.0960   34.7920 N   0  0  0  0  0  0  0  0  0  0  0  0
   37.8890   26.3860   35.7530 C   0  0  0  0  0  0  0  0  0  0  0  0
   38.8130   27.0370   36.2910 O   0  0  0  0  0  0  0  0  0  0  0  0
   37.5440   25.1420   36.2000 O   0  0  0  0  0  0  0  0  0  0  0  0
   39.4320   22.8520   38.1200 N   0  0  0  0  0  0  0  0  0  0  0  0
   38.3920   23.6660   37.9040 N   0  0  0  0  0  0  0  0  0  0  0  0
   38.5190   24.2360   36.6710 C   0  0  0  0  0  0  0  0  0  0  0  0
   39.6650   23.7710   36.1000 C   0  0  0  0  0  0  0  0  0  0  0  0
   40.2090   22.9160   37.0200 C   0  0  0  0  0  0  0  0  0  0  0  0
   41.4790   22.1720   36.8150 C   0  0  0  0  0  0  0  0  0  0  0  0
   42.4740   22.7110   36.0380 C   0  0  0  0  0  0  0  0  0  0  0  0
   43.6100   21.9640   35.9000 C   0  0  0  0  0  0  0  0  0  0  0  0
   43.8050   20.7400   36.4800 N   0  0  0  0  0  0  0  0  0  0  0  0
   42.7950   20.2440   37.2410 C   0  0  0  0  0  0  0  0  0  0  0  0
   41.6740   20.9650   37.3860 N   0  0  0  0  0  0  0  0  0  0  0  0
   34.9540   29.8540   33.8940 C   0  0  0  0  0  0  0  0  0  0  0  0
   35.7450   30.8110   34.7530 C   0  0  0  0  0  0  0  0  0  0  0  0
   33.6850   29.4570   34.5930 C   0  0  0  0  0  0  0  0  0  0  0  0
   34.6480   30.4830   32.5260 C   0  0  0  0  0  0  0  0  0  0  0  0
   35.7880   31.1590   32.1560 O   0  0  0  0  0  0  0  0  0  0  0  0
   36.5740   31.3780   31.2300 C   0  0  0  0  0  0  0  0  0  0  0  0
   37.1460   32.6790   31.0380 C   0  0  0  0  0  0  0  0  0  0  0  0
   38.0170   33.1270   30.0980 C   0  0  0  0  0  0  0  0  0  0  0  0
   38.3760   32.0350   29.1700 C   0  0  0  0  0  0  0  0  0  0  0  0
   37.4090   30.4910   29.7700 S   0  0  0  0  0  0  0  0  0  0  0  0
   37.8546   25.4283   33.2610 H   0  0  0  0  0  0  0  0  0  0  0  0
   36.6024   26.4448   31.3078 H   0  0  0  0  0  0  0  0  0  0  0  0
   39.6053   22.2863   38.9631 H   0  0  0  0  0  0  0  0  0  0  0  0
   40.0679   24.0282   35.1093 H   0  0  0  0  0  0  0  0  0  0  0  0
   42.3629   23.6917   35.5524 H   0  0  0  0  0  0  0  0  0  0  0  0
   44.4219   22.3740   35.2814 H   0  0  0  0  0  0  0  0  0  0  0  0
   42.8955   19.2645   37.7314 H   0  0  0  0  0  0  0  0  0  0  0  0
   35.5612   30.5886   35.8145 H   0  0  0  0  0  0  0  0  0  0  0  0
   36.8173   30.6986   34.5352 H   0  0  0  0  0  0  0  0  0  0  0  0
   35.4328   31.8430   34.5352 H   0  0  0  0  0  0  0  0  0  0  0  0
   33.8358   29.5042   35.6816 H   0  0  0  0  0  0  0  0  0  0  0  0
   32.8768   30.1452   34.3046 H   0  0  0  0  0  0  0  0  0  0  0  0
   33.4131   28.4309   34.3046 H   0  0  0  0  0  0  0  0  0  0  0  0
   34.4116   29.7006   31.7898 H   0  0  0  0  0  0  0  0  0  0  0  0
   33.7792   31.1558   32.5771 H   0  0  0  0  0  0  0  0  0  0  0  0
   36.8278   33.4357   31.7702 H   0  0  0  0  0  0  0  0  0  0  0  0
   38.4006   34.1561   30.0361 H   0  0  0  0  0  0  0  0  0  0  0  0
   39.0590   32.0952   28.3098 H   0  0  0  0  0  0  0  0  0  0  0  0
  1  6  1  0
  1  7  1  0
  2  1  2  0
  3  4  2  0
  3  2  1  0
  4  5  1  0
  5 21  1  0
  5  6  2  0
  7  9  1  0
  7  8  2  0
  9 12  1  0
 11 10  1  0
 12 11  2  0
 13 12  1  0
 13 14  2  0
 14 10  1  0
 15 14  1  0
 15 20  1  0
 16 15  2  0
 17 16  1  0
 17 18  2  0
 18 19  1  0
 19 20  2  0
 21 23  1  0
 21 22  1  0
 24 21  1  0
 25 24  1  0
 26 25  1  0
 27 26  2  0
 28 27  1  0
 29 30  1  0
 29 28  2  0
 30 26  1  0
  2 31  1  0
  3 32  1  0
 10 33  1  0
 13 34  1  0
 16 35  1  0
 17 36  1  0
 19 37  1  0
 22 38  1  0
 22 39  1  0
 22 40  1  0
 23 41  1  0
 23 42  1  0
 23 43  1  0
 24 44  1  0
 24 45  1  0
 27 46  1  0
 28 47  1  0
 29 48  1  0
M  ISO  8  31  14  32  14  33   9  34  14  35  14  36  14  37  14  38   8
M  ISO  8  39   8  40   8  41   8  42   8  43   8  44   8  45   8  46  14
M  ISO  2  47  14  48  14
M  END
>  <minimizedAffinity>  (1) 
-5.63732195

>  <minimizedRMSD>  (1) 
1.17251694

$$$$
