
     RDKit          3D

 32 33  0  0  0  0  0  0  0  0999 V2000
   37.1980   21.8840   35.0290 C   0  0  0  0  0  0  0  0  0  0  0  0
   36.1910   20.9410   35.2450 C   0  0  0  0  0  0  0  0  0  0  0  0
   35.5020   20.5140   34.1220 C   0  0  0  0  0  0  0  0  0  0  0  0
   35.7620   20.9590   32.8950 N   0  0  0  0  0  0  0  0  0  0  0  0
   36.7610   21.8890   32.7110 C   0  0  0  0  0  0  0  0  0  0  0  0
   37.4710   22.3410   33.8000 N   0  0  0  0  0  0  0  0  0  0  0  0
   39.9770   22.6300   37.2960 C   0  0  0  0  0  0  0  0  0  0  0  0
   39.3420   23.3170   38.3640 C   0  0  0  0  0  0  0  0  0  0  0  0
   37.9540   23.5000   38.2620 C   0  0  0  0  0  0  0  0  0  0  0  0
   37.3250   23.0080   37.1500 N   0  0  0  0  0  0  0  0  0  0  0  0
   37.9530   22.3680   36.1660 C   0  0  0  0  0  0  0  0  0  0  0  0
   39.2650   22.1890   36.2530 N   0  0  0  0  0  0  0  0  0  0  0  0
   37.0840   22.4140   31.3510 C   0  0  0  0  0  0  0  0  0  0  0  0
   36.1520   23.5750   31.0660 C   0  0  0  0  0  0  0  0  0  0  0  0
   36.9430   24.6530   30.5240 N   0  0  0  0  0  0  0  0  0  0  0  0
   36.7950   26.1010   31.4420 S   0  0  0  0  0  0  0  0  0  0  0  0
   37.1860   25.8920   33.1400 C   0  0  0  0  0  0  0  0  0  0  0  0
   35.3830   26.5970   31.3480 O   0  0  0  0  0  0  0  0  0  0  0  0
   37.6840   27.1390   30.8380 O   0  0  0  0  0  0  0  0  0  0  0  0
   35.9582   20.5590   36.2499 H   0  0  0  0  0  0  0  0  0  0  0  0
   34.7011   19.7710   34.2505 H   0  0  0  0  0  0  0  0  0  0  0  0
   41.0632   22.4590   37.3265 H   0  0  0  0  0  0  0  0  0  0  0  0
   39.9103   23.6880   39.2297 H   0  0  0  0  0  0  0  0  0  0  0  0
   37.3903   24.0215   39.0496 H   0  0  0  0  0  0  0  0  0  0  0  0
   38.1286   22.7574   31.3214 H   0  0  0  0  0  0  0  0  0  0  0  0
   36.9553   21.6251   30.5953 H   0  0  0  0  0  0  0  0  0  0  0  0
   35.3862   23.2700   30.3377 H   0  0  0  0  0  0  0  0  0  0  0  0
   35.6454   23.8962   31.9880 H   0  0  0  0  0  0  0  0  0  0  0  0
   37.9322   24.3660   30.5162 H   0  0  0  0  0  0  0  0  0  0  0  0
   36.3827   26.3214   33.7568 H   0  0  0  0  0  0  0  0  0  0  0  0
   37.2868   24.8197   33.3638 H   0  0  0  0  0  0  0  0  0  0  0  0
   38.1336   26.4039   33.3638 H   0  0  0  0  0  0  0  0  0  0  0  0
  1  2  2  0
  1 11  1  0
  3  2  1  0
  4  3  2  0
  5  4  1  0
  5  6  2  0
  6  1  1  0
  7  8  2  0
  9  8  1  0
 10  9  2  0
 11 12  2  0
 11 10  1  0
 12  7  1  0
 13  5  1  0
 14 13  1  0
 15 14  1  0
 15 16  1  0
 16 17  1  0
 18 16  2  0
 19 16  2  0
  2 20  1  0
  3 21  1  0
  7 22  1  0
  8 23  1  0
  9 24  1  0
 13 25  1  0
 13 26  1  0
 14 27  1  0
 14 28  1  0
 15 29  1  0
 17 30  1  0
 17 31  1  0
 17 32  1  0
M  ISO  8  20  14  21  14  22  14  23  14  24  14  25   8  26   8  27   8
M  ISO  5  28   8  29   5  30   8  31   8  32   8
M  END
>  <minimizedAffinity>  (1) 
-4.70576906

>  <minimizedRMSD>  (1) 
0.902896702

$$$$
