
     RDKit          3D

 39 41  0  0  1  0  0  0  0  0999 V2000
   38.5380   25.8490   34.0690 C   0  0  0  0  0  0  0  0  0  0  0  0
   37.5490   25.6060   33.0910 N   0  0  0  0  0  0  0  0  0  0  0  0
   37.0960   24.5300   32.4510 C   0  0  0  0  0  0  0  0  0  0  0  0
   36.0750   24.7900   31.5670 C   0  0  0  0  0  0  0  0  0  0  0  0
   35.8870   26.1080   31.6670 N   0  0  0  0  0  0  0  0  0  0  0  0
   36.7700   26.6050   32.5820 C   0  0  0  0  0  0  0  0  0  0  0  0
   36.7850   28.0850   32.8600 C   0  0  1  0  0  0  0  0  0  0  0  0
   35.7040   28.8940   32.2550 C   0  0  0  0  0  0  0  0  0  0  0  0
   35.6520   28.6090   33.7340 C   0  0  2  0  0  0  0  0  0  0  0  0
   35.9900   29.8140   34.5830 C   0  0  0  0  0  0  0  0  0  0  0  0
   34.7480   30.6140   34.9300 C   0  0  0  0  0  0  0  0  0  0  0  0
   38.0210   25.8310   35.4610 C   0  0  1  0  0  0  0  0  0  0  0  0
   38.6560   23.3940   38.2790 C   0  0  0  0  0  0  0  0  0  0  0  0
   38.0420   24.4520   37.5870 C   0  0  0  0  0  0  0  0  0  0  0  0
   38.5980   24.7520   36.2900 C   0  0  0  0  0  0  0  0  0  0  0  0
   39.6670   24.0150   35.8070 N   0  0  0  0  0  0  0  0  0  0  0  0
   40.1920   23.0240   36.5310 C   0  0  0  0  0  0  0  0  0  0  0  0
   39.6850   22.7110   37.7730 N   0  0  0  0  0  0  0  0  0  0  0  0
   38.2720   27.1850   36.1150 C   0  0  0  0  0  0  0  0  0  0  0  0
   38.9810   26.8372   33.8763 H   0  0  0  0  0  0  0  0  0  0  0  0
   39.2739   25.0352   33.9898 H   0  0  0  0  0  0  0  0  0  0  0  0
   37.5028   23.5212   32.6149 H   0  0  0  0  0  0  0  0  0  0  0  0
   35.5372   24.0765   30.9254 H   0  0  0  0  0  0  0  0  0  0  0  0
   37.8828   28.1531   32.8748 H   0  0  0  0  0  0  0  0  0  0  0  0
   35.9170   29.9140   31.9024 H   0  0  0  0  0  0  0  0  0  0  0  0
   35.0071   28.7441   31.4172 H   0  0  0  0  0  0  0  0  0  0  0  0
   34.9412   28.1533   34.4391 H   0  0  0  0  0  0  0  0  0  0  0  0
   36.4676   29.4734   35.5135 H   0  0  0  0  0  0  0  0  0  0  0  0
   36.6694   30.4616   34.0093 H   0  0  0  0  0  0  0  0  0  0  0  0
   34.6473   30.6789   36.0235 H   0  0  0  0  0  0  0  0  0  0  0  0
   34.8346   31.6266   34.5090 H   0  0  0  0  0  0  0  0  0  0  0  0
   33.8619   30.1164   34.5090 H   0  0  0  0  0  0  0  0  0  0  0  0
   36.9418   25.6276   35.3982 H   0  0  0  0  0  0  0  0  0  0  0  0
   38.2748   23.1189   39.2735 H   0  0  0  0  0  0  0  0  0  0  0  0
   37.1942   25.0137   38.0062 H   0  0  0  0  0  0  0  0  0  0  0  0
   41.0405   22.4498   36.1306 H   0  0  0  0  0  0  0  0  0  0  0  0
   38.2513   27.0732   37.2091 H   0  0  0  0  0  0  0  0  0  0  0  0
   39.2560   27.5657   35.8039 H   0  0  0  0  0  0  0  0  0  0  0  0
   37.4898   27.8931   35.8039 H   0  0  0  0  0  0  0  0  0  0  0  0
  1 12  1  0
  2  1  1  0
  3  2  1  0
  4  5  1  0
  4  3  2  0
  5  6  2  0
  6  7  1  0
  6  2  1  0
  7  9  1  0
  8  7  1  0
  8  9  1  0
  9 10  1  0
 10 11  1  0
 12 19  1  0
 12 15  1  0
 14 13  2  0
 15 14  1  0
 16 15  2  0
 16 17  1  0
 17 18  2  0
 18 13  1  0
  1 20  1  0
  1 21  1  0
  3 22  1  0
  4 23  1  0
  7 24  1  1
  8 25  1  0
  8 26  1  0
  9 27  1  1
 10 28  1  0
 10 29  1  0
 11 30  1  0
 11 31  1  0
 11 32  1  0
 12 33  1  6
 13 34  1  0
 14 35  1  0
 17 36  1  0
 19 37  1  0
 19 38  1  0
 19 39  1  0
M  ISO  8  20   8  21   8  22  14  23  14  24  13  25  13  26  13  27  13
M  ISO  8  28   8  29   8  30   8  31   8  32   8  33   8  34  14  35  14
M  ISO  4  36  14  37   8  38   8  39   8
M  END
>  <minimizedAffinity>  (1) 
-4.82649708

>  <minimizedRMSD>  (1) 
0.809016049

$$$$
