
     RDKit          3D

 35 37  0  0  0  0  0  0  0  0999 V2000
   37.5170   25.6400   35.4500 C   0  0  0  0  0  0  0  0  0  0  0  0
   37.8740   26.6910   34.5880 C   0  0  0  0  0  0  0  0  0  0  0  0
   39.1830   26.8080   34.1180 C   0  0  0  0  0  0  0  0  0  0  0  0
   40.0360   25.8520   34.5560 N   0  0  0  0  0  0  0  0  0  0  0  0
   39.6860   24.8360   35.3910 C   0  0  0  0  0  0  0  0  0  0  0  0
   38.4220   24.7530   35.8230 N   0  0  0  0  0  0  0  0  0  0  0  0
   40.7310   23.8830   35.7650 C   0  0  0  0  0  0  0  0  0  0  0  0
   41.9260   24.0340   35.1510 C   0  0  0  0  0  0  0  0  0  0  0  0
   42.9770   22.6580   35.8920 S   0  0  0  0  0  0  0  0  0  0  0  0
   41.4670   22.1220   36.9600 C   0  0  0  0  0  0  0  0  0  0  0  0
   40.7450   22.8910   36.6000 N   0  0  0  0  0  0  0  0  0  0  0  0
   41.5100   21.0380   37.8630 N   0  0  0  0  0  0  0  0  0  0  0  0
   36.9510   27.7180   34.1220 C   0  0  0  0  0  0  0  0  0  0  0  0
   36.4880   28.7620   34.9000 C   0  0  0  0  0  0  0  0  0  0  0  0
   35.6350   29.6260   34.3080 C   0  0  0  0  0  0  0  0  0  0  0  0
   35.2830   29.4190   32.9900 C   0  0  0  0  0  0  0  0  0  0  0  0
   36.2210   27.8860   32.5260 S   0  0  0  0  0  0  0  0  0  0  0  0
   34.4540   30.0850   32.0570 C   0  0  0  0  0  0  0  0  0  0  0  0
   34.9530   30.6080   31.0380 O   0  0  0  0  0  0  0  0  0  0  0  0
   33.0350   30.1790   32.2470 N   0  0  0  0  0  0  0  0  0  0  0  0
   35.0280   30.8290   34.9880 C   0  0  0  0  0  0  0  0  0  0  0  0
   36.0110   31.5120   35.9010 C   0  0  0  0  0  0  0  0  0  0  0  0
   36.4826   25.5559   35.8146 H   0  0  0  0  0  0  0  0  0  0  0  0
   39.4982   27.6166   33.4421 H   0  0  0  0  0  0  0  0  0  0  0  0
   42.2154   24.7821   34.3982 H   0  0  0  0  0  0  0  0  0  0  0  0
   40.6740   20.7914   38.4117 H   0  0  0  0  0  0  0  0  0  0  0  0
   42.3774   20.4936   37.9732 H   0  0  0  0  0  0  0  0  0  0  0  0
   36.7984   28.8833   35.9483 H   0  0  0  0  0  0  0  0  0  0  0  0
   32.4538   30.6696   31.5524 H   0  0  0  0  0  0  0  0  0  0  0  0
   32.5975   29.7559   33.0780 H   0  0  0  0  0  0  0  0  0  0  0  0
   34.6999   31.5443   34.2194 H   0  0  0  0  0  0  0  0  0  0  0  0
   34.1790   30.4847   35.5968 H   0  0  0  0  0  0  0  0  0  0  0  0
   35.7339   31.3195   36.9480 H   0  0  0  0  0  0  0  0  0  0  0  0
   37.0212   31.1202   35.7111 H   0  0  0  0  0  0  0  0  0  0  0  0
   35.9962   32.5954   35.7111 H   0  0  0  0  0  0  0  0  0  0  0  0
  1  6  2  0
  2  1  1  0
  3  4  1  0
  3  2  2  0
  4  5  2  0
  5  7  1  0
  5  6  1  0
  7 11  1  0
  8  7  2  0
  8  9  1  0
  9 10  1  0
 10 12  1  0
 11 10  2  0
 13  2  1  0
 13 14  2  0
 15 14  1  0
 15 21  1  0
 16 15  2  0
 17 16  1  0
 17 13  1  0
 18 20  1  0
 18 16  1  0
 19 18  2  0
 21 22  1  0
  1 23  1  0
  3 24  1  0
  8 25  1  0
 12 26  1  0
 12 27  1  0
 14 28  1  0
 20 29  1  0
 20 30  1  0
 21 31  1  0
 21 32  1  0
 22 33  1  0
 22 34  1  0
 22 35  1  0
M  ISO  8  23  14  24  14  25  14  28  14  31   8  32   8  33   8  34   8
M  ISO  1  35   8
M  END
>  <minimizedAffinity>  (1) 
-5.08090878

>  <minimizedRMSD>  (1) 
2.97368884

$$$$
