
     RDKit          3D

 23 24  0  0  0  0  0  0  0  0999 V2000
   39.0280   24.9960   34.7320 C   0  0  0  0  0  0  0  0  0  0  0  0
   39.7240   22.8320   37.6760 C   0  0  0  0  0  0  0  0  0  0  0  0
   38.7910   23.3040   38.6150 C   0  0  0  0  0  0  0  0  0  0  0  0
   37.9340   24.3540   38.2370 C   0  0  0  0  0  0  0  0  0  0  0  0
   38.0650   24.8580   36.9580 N   0  0  0  0  0  0  0  0  0  0  0  0
   38.9700   24.3770   36.0950 C   0  0  0  0  0  0  0  0  0  0  0  0
   39.7910   23.3710   36.4560 N   0  0  0  0  0  0  0  0  0  0  0  0
   39.1480   26.5000   34.8690 C   0  0  0  0  0  0  0  0  0  0  0  0
   38.1220   27.1570   34.1190 N   0  0  0  0  0  0  0  0  0  0  0  0
   38.0460   27.3320   32.7680 C   0  0  0  0  0  0  0  0  0  0  0  0
   36.8710   28.0240   32.5370 C   0  0  0  0  0  0  0  0  0  0  0  0
   36.2510   28.2620   33.7140 N   0  0  0  0  0  0  0  0  0  0  0  0
   37.0170   27.7310   34.6790 C   0  0  0  0  0  0  0  0  0  0  0  0
   38.1105   24.7497   34.1774 H   0  0  0  0  0  0  0  0  0  0  0  0
   39.8999   24.6052   34.1870 H   0  0  0  0  0  0  0  0  0  0  0  0
   40.4047   22.0119   37.9482 H   0  0  0  0  0  0  0  0  0  0  0  0
   38.7321   22.8633   39.6211 H   0  0  0  0  0  0  0  0  0  0  0  0
   37.1866   24.7588   38.9352 H   0  0  0  0  0  0  0  0  0  0  0  0
   39.0530   26.7752   35.9298 H   0  0  0  0  0  0  0  0  0  0  0  0
   40.1280   26.8146   34.4808 H   0  0  0  0  0  0  0  0  0  0  0  0
   38.7721   26.9917   32.0151 H   0  0  0  0  0  0  0  0  0  0  0  0
   36.4990   28.3327   31.5489 H   0  0  0  0  0  0  0  0  0  0  0  0
   36.7899   27.7545   35.7550 H   0  0  0  0  0  0  0  0  0  0  0  0
  1  8  1  0
  1  6  1  0
  2  3  2  0
  4  3  1  0
  5  4  2  0
  6  7  2  0
  6  5  1  0
  7  2  1  0
  9 13  1  0
  9  8  1  0
 10  9  1  0
 11 10  2  0
 11 12  1  0
 12 13  2  0
  1 14  1  0
  1 15  1  0
  2 16  1  0
  3 17  1  0
  4 18  1  0
  8 19  1  0
  8 20  1  0
 10 21  1  0
 11 22  1  0
 13 23  1  0
M  ISO  8  14   8  15   8  16  14  17  14  18  14  19   8  20   8  21  14
M  ISO  2  22  14  23  14
M  END
>  <minimizedAffinity>  (1) 
-3.57411599

>  <minimizedRMSD>  (1) 
1.55657768

$$$$
