
     RDKit          3D

 35 36  0  0  1  0  0  0  0  0999 V2000
   37.9830   25.9440   35.3330 C   0  0  1  0  0  0  0  0  0  0  0  0
   39.9840   23.0070   36.6350 C   0  0  0  0  0  0  0  0  0  0  0  0
   39.5600   24.0160   35.7590 C   0  0  0  0  0  0  0  0  0  0  0  0
   38.4970   24.8660   36.2050 C   0  0  0  0  0  0  0  0  0  0  0  0
   37.9630   24.6460   37.4470 N   0  0  0  0  0  0  0  0  0  0  0  0
   38.3890   23.6820   38.2500 C   0  0  0  0  0  0  0  0  0  0  0  0
   39.4120   22.8550   37.8360 N   0  0  0  0  0  0  0  0  0  0  0  0
   38.3030   27.3080   35.8850 C   0  0  0  0  0  0  0  0  0  0  0  0
   38.4790   25.8210   33.9230 C   0  0  0  0  0  0  0  0  0  0  0  0
   37.4490   25.6410   32.9820 N   0  0  0  0  0  0  0  0  0  0  0  0
   36.8590   24.5890   32.4110 C   0  0  0  0  0  0  0  0  0  0  0  0
   35.8600   24.8890   31.5110 C   0  0  0  0  0  0  0  0  0  0  0  0
   35.8280   26.2360   31.5280 N   0  0  0  0  0  0  0  0  0  0  0  0
   36.7710   26.6710   32.4010 C   0  0  0  0  0  0  0  0  0  0  0  0
   36.8670   28.1470   32.5380 C   0  0  0  0  0  0  0  0  0  0  0  0
   35.8410   28.6870   33.5100 C   0  0  0  0  0  0  0  0  0  0  0  0
   36.5690   28.7880   31.1960 C   0  0  0  0  0  0  0  0  0  0  0  0
   36.8894   25.8276   35.3132 H   0  0  0  0  0  0  0  0  0  0  0  0
   40.7973   22.3313   36.3317 H   0  0  0  0  0  0  0  0  0  0  0  0
   40.0242   24.1493   34.7707 H   0  0  0  0  0  0  0  0  0  0  0  0
   37.9299   23.5423   39.2398 H   0  0  0  0  0  0  0  0  0  0  0  0
   38.2941   27.2700   36.9843 H   0  0  0  0  0  0  0  0  0  0  0  0
   39.2987   27.6200   35.5370 H   0  0  0  0  0  0  0  0  0  0  0  0
   37.5499   28.0303   35.5370 H   0  0  0  0  0  0  0  0  0  0  0  0
   39.0298   26.7378   33.6659 H   0  0  0  0  0  0  0  0  0  0  0  0
   39.1177   24.9264   33.8804 H   0  0  0  0  0  0  0  0  0  0  0  0
   37.1502   23.5539   32.6429 H   0  0  0  0  0  0  0  0  0  0  0  0
   35.2396   24.1974   30.9220 H   0  0  0  0  0  0  0  0  0  0  0  0
   37.8801   28.3780   32.8989 H   0  0  0  0  0  0  0  0  0  0  0  0
   36.1820   28.5076   34.5403 H   0  0  0  0  0  0  0  0  0  0  0  0
   35.7159   29.7678   33.3482 H   0  0  0  0  0  0  0  0  0  0  0  0
   34.8792   28.1782   33.3482 H   0  0  0  0  0  0  0  0  0  0  0  0
   36.1101   29.7750   31.3549 H   0  0  0  0  0  0  0  0  0  0  0  0
   37.5048   28.9056   30.6299 H   0  0  0  0  0  0  0  0  0  0  0  0
   35.8759   28.1483   30.6299 H   0  0  0  0  0  0  0  0  0  0  0  0
  1  8  1  0
  1  4  1  0
  2  7  2  0
  3  4  2  0
  3  2  1  0
  4  5  1  0
  5  6  2  0
  7  6  1  0
  9  1  1  0
 10  9  1  0
 11 10  1  0
 12 13  1  0
 12 11  2  0
 13 14  2  0
 14 15  1  0
 14 10  1  0
 15 16  1  0
 17 15  1  0
  1 18  1  6
  2 19  1  0
  3 20  1  0
  6 21  1  0
  8 22  1  0
  8 23  1  0
  8 24  1  0
  9 25  1  0
  9 26  1  0
 11 27  1  0
 12 28  1  0
 15 29  1  0
 16 30  1  0
 16 31  1  0
 16 32  1  0
 17 33  1  0
 17 34  1  0
 17 35  1  0
M  ISO  8  18   8  19  14  20  14  21  14  22   8  23   8  24   8  25   8
M  ISO  8  26   8  27  14  28  14  29   8  30   8  31   8  32   8  33   8
M  ISO  2  34   8  35   8
M  END
>  <minimizedAffinity>  (1) 
-4.60592985

>  <minimizedRMSD>  (1) 
3.07103252

$$$$
