
     RDKit          3D

 34 36  0  0  0  0  0  0  0  0999 V2000
   41.7870   22.1210   36.5730 C   0  0  0  0  0  0  0  0  0  0  0  0
   42.3760   23.2480   36.0350 C   0  0  0  0  0  0  0  0  0  0  0  0
   43.6700   23.0220   35.7410 N   0  0  0  0  0  0  0  0  0  0  0  0
   43.9910   21.7490   36.0710 C   0  0  0  0  0  0  0  0  0  0  0  0
   45.1560   21.0330   35.9760 C   0  0  0  0  0  0  0  0  0  0  0  0
   45.1670   19.7020   36.4120 C   0  0  0  0  0  0  0  0  0  0  0  0
   44.0090   19.1250   36.9310 C   0  0  0  0  0  0  0  0  0  0  0  0
   42.8420   19.8740   37.0160 C   0  0  0  0  0  0  0  0  0  0  0  0
   42.8330   21.1950   36.5820 C   0  0  0  0  0  0  0  0  0  0  0  0
   40.4840   21.9840   36.9890 O   0  0  0  0  0  0  0  0  0  0  0  0
   39.5990   23.0080   37.1880 C   0  0  0  0  0  0  0  0  0  0  0  0
   39.0480   23.1290   38.4810 C   0  0  0  0  0  0  0  0  0  0  0  0
   38.1450   24.1710   38.6940 C   0  0  0  0  0  0  0  0  0  0  0  0
   37.8450   24.9960   37.6740 N   0  0  0  0  0  0  0  0  0  0  0  0
   38.4020   24.8390   36.4440 C   0  0  0  0  0  0  0  0  0  0  0  0
   39.2690   23.8620   36.1930 N   0  0  0  0  0  0  0  0  0  0  0  0
   38.0320   25.7850   35.3580 C   0  0  0  0  0  0  0  0  0  0  0  0
   38.9110   25.5450   34.1350 C   0  0  0  0  0  0  0  0  0  0  0  0
   38.3360   27.1820   35.8590 C   0  0  0  0  0  0  0  0  0  0  0  0
   41.8569   24.2034   35.8688 H   0  0  0  0  0  0  0  0  0  0  0  0
   44.3156   23.7107   35.3290 H   0  0  0  0  0  0  0  0  0  0  0  0
   46.0656   21.4952   35.5649 H   0  0  0  0  0  0  0  0  0  0  0  0
   46.0919   19.1104   36.3447 H   0  0  0  0  0  0  0  0  0  0  0  0
   44.0192   18.0794   37.2724 H   0  0  0  0  0  0  0  0  0  0  0  0
   41.9265   19.4227   37.4260 H   0  0  0  0  0  0  0  0  0  0  0  0
   39.3188   22.4313   39.2872 H   0  0  0  0  0  0  0  0  0  0  0  0
   37.6845   24.3162   39.6823 H   0  0  0  0  0  0  0  0  0  0  0  0
   36.9733   25.6523   35.0906 H   0  0  0  0  0  0  0  0  0  0  0  0
   39.9246   25.2682   34.4606 H   0  0  0  0  0  0  0  0  0  0  0  0
   38.4846   24.7304   33.5312 H   0  0  0  0  0  0  0  0  0  0  0  0
   38.9578   26.4633   33.5312 H   0  0  0  0  0  0  0  0  0  0  0  0
   38.3367   27.1850   36.9590 H   0  0  0  0  0  0  0  0  0  0  0  0
   39.3236   27.4967   35.4909 H   0  0  0  0  0  0  0  0  0  0  0  0
   37.5684   27.8787   35.4909 H   0  0  0  0  0  0  0  0  0  0  0  0
  1  9  1  0
  1 10  1  0
  2  1  2  0
  3  2  1  0
  3  4  1  0
  4  9  2  0
  5  4  1  0
  5  6  2  0
  6  7  1  0
  7  8  2  0
  9  8  1  0
 10 11  1  0
 11 12  2  0
 12 13  1  0
 14 13  2  0
 15 14  1  0
 16 15  2  0
 16 11  1  0
 17 19  1  0
 17 15  1  0
 18 17  1  0
  2 20  1  0
  3 21  1  0
  5 22  1  0
  6 23  1  0
  7 24  1  0
  8 25  1  0
 12 26  1  0
 13 27  1  0
 17 28  1  0
 18 29  1  0
 18 30  1  0
 18 31  1  0
 19 32  1  0
 19 33  1  0
 19 34  1  0
M  ISO  8  20  14  21   9  22  14  23  14  24  14  25  14  26  14  27  14
M  ISO  7  28   8  29   8  30   8  31   8  32   8  33   8  34   8
M  END
>  <minimizedAffinity>  (1) 
-4.72017097

>  <minimizedRMSD>  (1) 
1.20166314

$$$$
