
     RDKit          3D

 33 35  0  0  1  0  0  0  0  0999 V2000
   38.0560   23.6120   34.6110 C   0  0  0  0  0  0  0  0  0  0  0  0
   38.2660   24.7480   33.8470 C   0  0  0  0  0  0  0  0  0  0  0  0
   37.7940   24.4110   32.6200 N   0  0  0  0  0  0  0  0  0  0  0  0
   37.3410   23.1620   32.6720 C   0  0  0  0  0  0  0  0  0  0  0  0
   37.4940   22.6390   33.9080 N   0  0  0  0  0  0  0  0  0  0  0  0
   38.4040   23.4770   36.0260 C   0  0  0  0  0  0  0  0  0  0  0  0
   39.6020   22.8680   36.4060 C   0  0  0  0  0  0  0  0  0  0  0  0
   39.9090   22.7520   37.7700 C   0  0  0  0  0  0  0  0  0  0  0  0
   39.0070   23.2510   38.6470 N   0  0  0  0  0  0  0  0  0  0  0  0
   37.8440   23.8420   38.2550 C   0  0  0  0  0  0  0  0  0  0  0  0
   37.5460   23.9540   36.9480 N   0  0  0  0  0  0  0  0  0  0  0  0
   37.0910   21.2950   34.2660 C   0  0  1  0  0  0  0  0  0  0  0  0
   35.9020   21.0010   35.0520 C   0  0  0  0  0  0  0  0  0  0  0  0
   35.7990   20.8820   33.5490 C   0  0  2  0  0  0  0  0  0  0  0  0
   35.7260   19.5420   32.8800 C   0  0  0  0  0  0  0  0  0  0  0  0
   34.4370   19.4970   32.0840 C   0  0  0  0  0  0  0  0  0  0  0  0
   36.8600   19.2710   31.9470 C   0  0  0  0  0  0  0  0  0  0  0  0
   38.7123   25.7028   34.1620 H   0  0  0  0  0  0  0  0  0  0  0  0
   36.8993   22.6248   31.8198 H   0  0  0  0  0  0  0  0  0  0  0  0
   40.2968   22.4838   35.6447 H   0  0  0  0  0  0  0  0  0  0  0  0
   40.8406   22.2770   38.1112 H   0  0  0  0  0  0  0  0  0  0  0  0
   37.1451   24.2296   39.0109 H   0  0  0  0  0  0  0  0  0  0  0  0
   38.1279   20.9519   34.3970 H   0  0  0  0  0  0  0  0  0  0  0  0
   35.8713   20.0933   35.6726 H   0  0  0  0  0  0  0  0  0  0  0  0
   35.3347   21.5533   35.8156 H   0  0  0  0  0  0  0  0  0  0  0  0
   35.1406   21.2990   32.7728 H   0  0  0  0  0  0  0  0  0  0  0  0
   35.7735   18.7770   33.6690 H   0  0  0  0  0  0  0  0  0  0  0  0
   33.5808   19.4671   32.7740 H   0  0  0  0  0  0  0  0  0  0  0  0
   34.3660   20.3932   31.4502 H   0  0  0  0  0  0  0  0  0  0  0  0
   34.4287   18.5980   31.4502 H   0  0  0  0  0  0  0  0  0  0  0  0
   37.7687   19.0538   32.5277 H   0  0  0  0  0  0  0  0  0  0  0  0
   36.6146   18.4062   31.3130 H   0  0  0  0  0  0  0  0  0  0  0  0
   37.0321   20.1533   31.3130 H   0  0  0  0  0  0  0  0  0  0  0  0
  1  6  1  0
  2  1  2  0
  3  4  2  0
  3  2  1  0
  4  5  1  0
  5 12  1  0
  5  1  1  0
  6  7  2  0
  6 11  1  0
  7  8  1  0
  8  9  2  0
 10  9  1  0
 11 10  2  0
 12 13  1  0
 14 12  1  0
 14 13  1  0
 15 14  1  0
 16 15  1  0
 17 15  1  0
  2 18  1  0
  4 19  1  0
  7 20  1  0
  8 21  1  0
 10 22  1  0
 12 23  1  1
 13 24  1  0
 13 25  1  0
 14 26  1  6
 15 27  1  0
 16 28  1  0
 16 29  1  0
 16 30  1  0
 17 31  1  0
 17 32  1  0
 17 33  1  0
M  ISO  8  18  14  19  14  20  14  21  14  22  14  23  13  24  13  25  13
M  ISO  8  26  13  27   8  28   8  29   8  30   8  31   8  32   8  33   8
M  END
>  <minimizedAffinity>  (1) 
-4.574862

>  <minimizedRMSD>  (1) 
0.255200893

$$$$
