
     RDKit          3D

 26 27  0  0  1  0  0  0  0  0999 V2000
   38.4090   25.6360   35.1060 C   0  0  2  0  0  0  0  0  0  0  0  0
   39.0300   27.0180   35.2830 C   0  0  0  0  0  0  0  0  0  0  0  0
   37.5430   26.8250   35.1970 C   0  0  1  0  0  0  0  0  0  0  0  0
   39.6740   22.9660   37.3040 C   0  0  0  0  0  0  0  0  0  0  0  0
   38.9330   23.1630   38.4920 C   0  0  0  0  0  0  0  0  0  0  0  0
   38.0050   24.2130   38.5130 C   0  0  0  0  0  0  0  0  0  0  0  0
   37.8740   24.9800   37.3840 N   0  0  0  0  0  0  0  0  0  0  0  0
   38.6070   24.7490   36.2720 C   0  0  0  0  0  0  0  0  0  0  0  0
   39.5150   23.7330   36.2340 N   0  0  0  0  0  0  0  0  0  0  0  0
   36.8320   27.4080   34.0250 C   0  0  0  0  0  0  0  0  0  0  0  0
   36.2360   28.7340   34.4400 C   0  0  0  0  0  0  0  0  0  0  0  0
   37.6770   27.5620   32.7950 C   0  0  0  0  0  0  0  0  0  0  0  0
   38.4437   24.8059   34.3850 H   0  0  0  0  0  0  0  0  0  0  0  0
   39.4988   27.2973   36.2381 H   0  0  0  0  0  0  0  0  0  0  0  0
   39.7787   27.6199   34.7471 H   0  0  0  0  0  0  0  0  0  0  0  0
   36.6693   27.0528   35.8253 H   0  0  0  0  0  0  0  0  0  0  0  0
   40.4082   22.1477   37.2660 H   0  0  0  0  0  0  0  0  0  0  0  0
   39.0797   22.5151   39.3687 H   0  0  0  0  0  0  0  0  0  0  0  0
   37.3996   24.4158   39.4087 H   0  0  0  0  0  0  0  0  0  0  0  0
   36.0479   26.6943   33.7322 H   0  0  0  0  0  0  0  0  0  0  0  0
   36.2082   28.7959   35.5379 H   0  0  0  0  0  0  0  0  0  0  0  0
   36.8523   29.5536   34.0420 H   0  0  0  0  0  0  0  0  0  0  0  0
   35.2139   28.8172   34.0420 H   0  0  0  0  0  0  0  0  0  0  0  0
   38.7200   27.7521   33.0881 H   0  0  0  0  0  0  0  0  0  0  0  0
   37.6263   26.6398   32.1975 H   0  0  0  0  0  0  0  0  0  0  0  0
   37.3042   28.4070   32.1975 H   0  0  0  0  0  0  0  0  0  0  0  0
  1  3  1  0
  1  2  1  0
  1  8  1  0
  3  2  1  0
  4  5  2  0
  5  6  1  0
  7  6  2  0
  8  7  1  0
  9  8  2  0
  9  4  1  0
 10 11  1  0
 10  3  1  0
 12 10  1  0
  1 13  1  6
  2 14  1  0
  2 15  1  0
  3 16  1  1
  4 17  1  0
  5 18  1  0
  6 19  1  0
 10 20  1  0
 11 21  1  0
 11 22  1  0
 11 23  1  0
 12 24  1  0
 12 25  1  0
 12 26  1  0
M  ISO  8  13  13  14  13  15  13  16  13  17  14  18  14  19  14  20   8
M  ISO  6  21   8  22   8  23   8  24   8  25   8  26   8
M  END
>  <minimizedAffinity>  (1) 
-4.07980061

>  <minimizedRMSD>  (1) 
0.937976599

$$$$
