
     RDKit          3D

 49 53  0  0  0  0  0  0  0  0999 V2000
   39.6620   25.3860   32.5920 C   0  0  0  0  0  0  0  0  0  0  0  0
   39.8160   25.9170   33.9500 C   0  0  0  0  0  0  0  0  0  0  0  0
   40.6580   27.0280   34.1250 C   0  0  0  0  0  0  0  0  0  0  0  0
   41.3060   27.5570   33.0310 N   0  0  0  0  0  0  0  0  0  0  0  0
   41.1690   27.0420   31.8160 C   0  0  0  0  0  0  0  0  0  0  0  0
   40.3840   26.0420   31.7410 N   0  0  0  0  0  0  0  0  0  0  0  0
   38.9190   24.2570   32.2850 C   0  0  0  0  0  0  0  0  0  0  0  0
   39.4970   23.0180   32.4040 C   0  0  0  0  0  0  0  0  0  0  0  0
   38.7980   21.8280   32.1100 C   0  0  0  0  0  0  0  0  0  0  0  0
   37.4820   21.9030   31.6880 C   0  0  0  0  0  0  0  0  0  0  0  0
   36.8970   23.1480   31.5670 C   0  0  0  0  0  0  0  0  0  0  0  0
   35.5670   23.2560   31.1960 C   0  0  0  0  0  0  0  0  0  0  0  0
   34.9340   24.4410   31.1120 C   0  0  0  0  0  0  0  0  0  0  0  0
   35.6990   25.5650   31.4070 C   0  0  0  0  0  0  0  0  0  0  0  0
   36.9970   25.5120   31.7570 C   0  0  0  0  0  0  0  0  0  0  0  0
   37.6360   24.2860   31.8660 C   0  0  0  0  0  0  0  0  0  0  0  0
   37.5600   26.8810   31.7850 C   0  0  0  0  0  0  0  0  0  0  0  0
   36.3980   27.8560   31.3010 C   0  0  0  0  0  0  0  0  0  0  0  0
   37.6470   27.7440   32.9170 C   0  0  0  0  0  0  0  0  0  0  0  0
   38.1790   27.1120   30.4270 C   0  0  0  0  0  0  0  0  0  0  0  0
   39.2220   25.2520   34.9990 N   0  0  0  0  0  0  0  0  0  0  0  0
   37.9850   25.4380   35.4310 C   0  0  0  0  0  0  0  0  0  0  0  0
   37.6850   24.6400   36.4790 N   0  0  0  0  0  0  0  0  0  0  0  0
   38.8080   23.9050   36.7190 C   0  0  0  0  0  0  0  0  0  0  0  0
   39.1380   22.9320   37.6300 C   0  0  0  0  0  0  0  0  0  0  0  0
   40.3390   22.3250   37.6780 N   0  0  0  0  0  0  0  0  0  0  0  0
   41.2360   22.7410   36.7440 C   0  0  0  0  0  0  0  0  0  0  0  0
   40.8950   23.6860   35.8690 N   0  0  0  0  0  0  0  0  0  0  0  0
   39.7340   24.3030   35.7920 C   0  0  0  0  0  0  0  0  0  0  0  0
   40.7978   27.4695   35.1228 H   0  0  0  0  0  0  0  0  0  0  0  0
   41.6942   27.4484   30.9390 H   0  0  0  0  0  0  0  0  0  0  0  0
   40.5421   22.9502   32.7404 H   0  0  0  0  0  0  0  0  0  0  0  0
   39.2935   20.8516   32.2150 H   0  0  0  0  0  0  0  0  0  0  0  0
   36.9142   20.9904   31.4540 H   0  0  0  0  0  0  0  0  0  0  0  0
   35.0069   22.3389   30.9611 H   0  0  0  0  0  0  0  0  0  0  0  0
   33.8743   24.5162   30.8269 H   0  0  0  0  0  0  0  0  0  0  0  0
   35.2159   26.5516   31.3510 H   0  0  0  0  0  0  0  0  0  0  0  0
   35.8889   28.2832   32.1776 H   0  0  0  0  0  0  0  0  0  0  0  0
   36.8285   28.6672   30.6955 H   0  0  0  0  0  0  0  0  0  0  0  0
   35.6739   27.2912   30.6955 H   0  0  0  0  0  0  0  0  0  0  0  0
   37.5868   27.1468   33.8388 H   0  0  0  0  0  0  0  0  0  0  0  0
   38.6043   28.2853   32.8927 H   0  0  0  0  0  0  0  0  0  0  0  0
   36.8170   28.4655   32.8927 H   0  0  0  0  0  0  0  0  0  0  0  0
   39.2030   27.4941   30.5510 H   0  0  0  0  0  0  0  0  0  0  0  0
   38.2064   26.1636   29.8704 H   0  0  0  0  0  0  0  0  0  0  0  0
   37.5784   27.8465   29.8704 H   0  0  0  0  0  0  0  0  0  0  0  0
   37.2823   26.1590   34.9880 H   0  0  0  0  0  0  0  0  0  0  0  0
   38.3762   22.6306   38.3640 H   0  0  0  0  0  0  0  0  0  0  0  0
   42.2421   22.2976   36.7111 H   0  0  0  0  0  0  0  0  0  0  0  0
  1  2  1  0
  2  3  2  0
  2 21  1  0
  4  3  1  0
  5  4  2  0
  6  5  1  0
  6  1  2  0
  7  8  2  0
  7  1  1  0
  9  8  1  0
 10  9  2  0
 11 10  1  0
 11 16  2  0
 12 11  1  0
 13 12  2  0
 13 14  1  0
 14 15  2  0
 15 17  1  0
 15 16  1  0
 16  7  1  0
 17 19  1  0
 18 17  1  0
 20 17  1  0
 21 22  1  0
 21 29  1  0
 22 23  2  0
 23 24  1  0
 24 25  2  0
 25 26  1  0
 27 26  2  0
 28 27  1  0
 29 28  2  0
 29 24  1  0
  3 30  1  0
  5 31  1  0
  8 32  1  0
  9 33  1  0
 10 34  1  0
 12 35  1  0
 13 36  1  0
 14 37  1  0
 18 38  1  0
 18 39  1  0
 18 40  1  0
 19 41  1  0
 19 42  1  0
 19 43  1  0
 20 44  1  0
 20 45  1  0
 20 46  1  0
 22 47  1  0
 25 48  1  0
 27 49  1  0
M  ISO  8  30  14  31  14  32  14  33  14  34  14  35  14  36  14  37  14
M  ISO  8  38   8  39   8  40   8  41   8  42   8  43   8  44   8  45   8
M  ISO  4  46   8  47  14  48  14  49  14
M  END
>  <minimizedAffinity>  (1) 
-6.04805183

>  <minimizedRMSD>  (1) 
0.417950004

$$$$
