
     RDKit          3D

 54 58  0  0  0  0  0  0  0  0999 V2000
   37.2760   26.5980   34.7540 C   0  0  0  0  0  0  0  0  0  0  0  0
   37.4340   25.8290   33.6070 C   0  0  0  0  0  0  0  0  0  0  0  0
   36.9090   26.3190   32.3980 C   0  0  0  0  0  0  0  0  0  0  0  0
   36.2870   27.5070   32.4380 N   0  0  0  0  0  0  0  0  0  0  0  0
   36.1470   28.2320   33.5590 C   0  0  0  0  0  0  0  0  0  0  0  0
   36.6360   27.7940   34.7320 N   0  0  0  0  0  0  0  0  0  0  0  0
   37.8260   26.0820   36.0070 C   0  0  0  0  0  0  0  0  0  0  0  0
   38.5000   26.8310   36.7360 O   0  0  0  0  0  0  0  0  0  0  0  0
   37.5960   24.7850   36.3670 O   0  0  0  0  0  0  0  0  0  0  0  0
   39.6880   22.6040   38.1990 N   0  0  0  0  0  0  0  0  0  0  0  0
   38.6020   23.3550   38.0180 N   0  0  0  0  0  0  0  0  0  0  0  0
   38.6430   23.9360   36.7990 C   0  0  0  0  0  0  0  0  0  0  0  0
   39.8050   23.5380   36.1770 C   0  0  0  0  0  0  0  0  0  0  0  0
   40.4320   22.7160   37.0660 C   0  0  0  0  0  0  0  0  0  0  0  0
   41.7240   22.0520   36.8230 C   0  0  0  0  0  0  0  0  0  0  0  0
   42.7370   22.7500   36.2070 C   0  0  0  0  0  0  0  0  0  0  0  0
   43.9090   22.0370   36.0250 C   0  0  0  0  0  0  0  0  0  0  0  0
   44.1170   20.7450   36.4000 N   0  0  0  0  0  0  0  0  0  0  0  0
   43.0860   20.1100   36.9990 C   0  0  0  0  0  0  0  0  0  0  0  0
   41.9320   20.7610   37.1950 N   0  0  0  0  0  0  0  0  0  0  0  0
   35.4340   29.5340   33.4640 C   0  0  0  0  0  0  0  0  0  0  0  0
   35.6600   30.2420   34.8070 C   0  0  0  0  0  0  0  0  0  0  0  0
   33.9680   29.2660   33.2790 C   0  0  0  0  0  0  0  0  0  0  0  0
   35.9710   30.4080   32.3390 C   0  0  0  0  0  0  0  0  0  0  0  0
   35.3850   31.7110   32.3370 N   0  0  0  0  0  0  0  0  0  0  0  0
   35.9040   32.7590   33.0390 C   0  0  0  0  0  0  0  0  0  0  0  0
   35.1520   33.8620   32.8550 N   0  0  0  0  0  0  0  0  0  0  0  0
   34.1190   33.5640   32.0270 C   0  0  0  0  0  0  0  0  0  0  0  0
   33.0460   34.2500   31.4840 C   0  0  0  0  0  0  0  0  0  0  0  0
   32.9340   35.4510   31.7860 O   0  0  0  0  0  0  0  0  0  0  0  0
   32.2050   33.5820   30.6740 N   0  0  0  0  0  0  0  0  0  0  0  0
   32.3680   32.2780   30.3760 C   0  0  0  0  0  0  0  0  0  0  0  0
   31.4020   31.7010   29.5070 N   0  0  0  0  0  0  0  0  0  0  0  0
   33.4180   31.6050   30.9080 N   0  0  0  0  0  0  0  0  0  0  0  0
   34.3010   32.2280   31.7320 C   0  0  0  0  0  0  0  0  0  0  0  0
   37.9564   24.8617   33.6441 H   0  0  0  0  0  0  0  0  0  0  0  0
   37.0042   25.7526   31.4598 H   0  0  0  0  0  0  0  0  0  0  0  0
   39.9189   22.0472   39.0342 H   0  0  0  0  0  0  0  0  0  0  0  0
   40.1542   23.8232   35.1737 H   0  0  0  0  0  0  0  0  0  0  0  0
   42.6239   23.7953   35.8837 H   0  0  0  0  0  0  0  0  0  0  0  0
   44.7442   22.5591   35.5353 H   0  0  0  0  0  0  0  0  0  0  0  0
   43.1936   19.0646   37.3238 H   0  0  0  0  0  0  0  0  0  0  0  0
   35.4380   29.5467   35.6300 H   0  0  0  0  0  0  0  0  0  0  0  0
   36.7076   30.5702   34.8767 H   0  0  0  0  0  0  0  0  0  0  0  0
   34.9963   31.1165   34.8767 H   0  0  0  0  0  0  0  0  0  0  0  0
   33.4844   29.1776   34.2630 H   0  0  0  0  0  0  0  0  0  0  0  0
   33.5114   30.0956   32.7192 H   0  0  0  0  0  0  0  0  0  0  0  0
   33.8344   28.3285   32.7192 H   0  0  0  0  0  0  0  0  0  0  0  0
   37.0596   30.5100   32.4594 H   0  0  0  0  0  0  0  0  0  0  0  0
   35.7156   29.9230   31.3853 H   0  0  0  0  0  0  0  0  0  0  0  0
   36.8069   32.7107   33.6655 H   0  0  0  0  0  0  0  0  0  0  0  0
   31.4054   34.0869   30.2657 H   0  0  0  0  0  0  0  0  0  0  0  0
   31.4744   30.7080   29.2433 H   0  0  0  0  0  0  0  0  0  0  0  0
   30.6298   32.2760   29.1411 H   0  0  0  0  0  0  0  0  0  0  0  0
  1  7  1  0
  2  1  2  0
  3  4  2  0
  3  2  1  0
  4  5  1  0
  5  6  2  0
  6  1  1  0
  7  9  1  0
  7  8  2  0
  9 12  1  0
 11 10  1  0
 12 11  2  0
 13 12  1  0
 13 14  2  0
 14 10  1  0
 15 14  1  0
 15 20  1  0
 16 15  2  0
 17 16  1  0
 17 18  2  0
 18 19  1  0
 19 20  2  0
 21  5  1  0
 21 22  1  0
 23 21  1  0
 24 21  1  0
 25 24  1  0
 25 26  1  0
 27 26  2  0
 28 27  1  0
 29 30  2  0
 29 28  1  0
 31 29  1  0
 32 31  1  0
 32 34  2  0
 33 32  1  0
 34 35  1  0
 35 28  2  0
 35 25  1  0
  2 36  1  0
  3 37  1  0
 10 38  1  0
 13 39  1  0
 16 40  1  0
 17 41  1  0
 19 42  1  0
 22 43  1  0
 22 44  1  0
 22 45  1  0
 23 46  1  0
 23 47  1  0
 23 48  1  0
 24 49  1  0
 24 50  1  0
 26 51  1  0
 31 52  1  0
 33 53  1  0
 33 54  1  0
M  ISO  8  36  14  37  14  38   9  39  14  40  14  41  14  42  14  43   8
M  ISO  8  44   8  45   8  46   8  47   8  48   8  49   8  50   8  51  14
M  ISO  1  52   9
M  END
>  <minimizedAffinity>  (1) 
-6.17876148

>  <minimizedRMSD>  (1) 
0.453587562

$$$$
