
     RDKit          3D

 29 30  0  0  0  0  0  0  0  0999 V2000
   42.5350   20.7850   37.0390 C   0  0  0  0  0  0  0  0  0  0  0  0
   41.4360   21.4600   37.5730 C   0  0  0  0  0  0  0  0  0  0  0  0
   40.5960   22.1680   36.7060 C   0  0  0  0  0  0  0  0  0  0  0  0
   40.8990   22.1610   35.3700 N   0  0  0  0  0  0  0  0  0  0  0  0
   41.9710   21.4940   34.8990 C   0  0  0  0  0  0  0  0  0  0  0  0
   42.7800   20.8150   35.7160 N   0  0  0  0  0  0  0  0  0  0  0  0
   39.4440   22.8760   37.2670 C   0  0  0  0  0  0  0  0  0  0  0  0
   38.5930   23.6760   36.5010 C   0  0  0  0  0  0  0  0  0  0  0  0
   37.6620   24.1480   37.3800 N   0  0  0  0  0  0  0  0  0  0  0  0
   37.9640   23.6410   38.6010 C   0  0  0  0  0  0  0  0  0  0  0  0
   39.0390   22.8700   38.5450 N   0  0  0  0  0  0  0  0  0  0  0  0
   42.2420   21.5280   33.4340 C   0  0  0  0  0  0  0  0  0  0  0  0
   41.3140   20.5210   32.7770 C   0  0  0  0  0  0  0  0  0  0  0  0
   41.8290   22.8940   32.8900 C   0  0  0  0  0  0  0  0  0  0  0  0
   43.6750   21.2320   33.1210 C   0  0  0  0  0  0  0  0  0  0  0  0
   43.2066   20.2237   37.7053 H   0  0  0  0  0  0  0  0  0  0  0  0
   41.2342   21.4359   38.6541 H   0  0  0  0  0  0  0  0  0  0  0  0
   38.6590   23.8812   35.4223 H   0  0  0  0  0  0  0  0  0  0  0  0
   37.3910   23.8437   39.5178 H   0  0  0  0  0  0  0  0  0  0  0  0
   39.4775   22.3653   39.3285 H   0  0  0  0  0  0  0  0  0  0  0  0
   40.7860   19.9480   33.5534 H   0  0  0  0  0  0  0  0  0  0  0  0
   40.5815   21.0515   32.1509 H   0  0  0  0  0  0  0  0  0  0  0  0
   41.9024   19.8342   32.1509 H   0  0  0  0  0  0  0  0  0  0  0  0
   41.6229   23.5756   33.7285 H   0  0  0  0  0  0  0  0  0  0  0  0
   42.6430   23.3051   32.2749 H   0  0  0  0  0  0  0  0  0  0  0  0
   40.9236   22.7852   32.2749 H   0  0  0  0  0  0  0  0  0  0  0  0
   44.2386   21.1156   34.0585 H   0  0  0  0  0  0  0  0  0  0  0  0
   43.7382   20.3018   32.5372 H   0  0  0  0  0  0  0  0  0  0  0  0
   44.1016   22.0610   32.5372 H   0  0  0  0  0  0  0  0  0  0  0  0
  1  2  2  0
  3  7  1  0
  3  2  1  0
  4  3  2  0
  5  4  1  0
  5  6  2  0
  6  1  1  0
  7 11  1  0
  8  7  2  0
  8  9  1  0
  9 10  2  0
 11 10  1  0
 12  5  1  0
 13 12  1  0
 14 12  1  0
 15 12  1  0
  1 16  1  0
  2 17  1  0
  8 18  1  0
 10 19  1  0
 11 20  1  0
 13 21  1  0
 13 22  1  0
 13 23  1  0
 14 24  1  0
 14 25  1  0
 14 26  1  0
 15 27  1  0
 15 28  1  0
 15 29  1  0
M  ISO  8  16  14  17  14  18  14  19  14  20   9  21   8  22   8  23   8
M  ISO  6  24   8  25   8  26   8  27   8  28   8  29   8
M  END
>  <minimizedAffinity>  (1) 
-3.7631712

>  <minimizedRMSD>  (1) 
0.0553633682

$$$$
