
     RDKit          3D

 59 63  0  0  1  0  0  0  0  0999 V2000
   38.7460   25.9430   34.7520 C   0  0  2  0  0  0  0  0  0  0  0  0
   39.0320   23.0340   37.0190 C   0  0  0  0  0  0  0  0  0  0  0  0
   38.3920   23.4370   38.1660 C   0  0  0  0  0  0  0  0  0  0  0  0
   37.8670   24.7040   38.1470 C   0  0  0  0  0  0  0  0  0  0  0  0
   37.9930   25.4810   37.0420 N   0  0  0  0  0  0  0  0  0  0  0  0
   38.6300   25.0530   35.9240 C   0  0  0  0  0  0  0  0  0  0  0  0
   39.1530   23.7970   35.9370 N   0  0  0  0  0  0  0  0  0  0  0  0
   38.3310   22.5340   39.2530 N   0  0  0  0  0  0  0  0  0  0  0  0
   39.1450   27.3130   35.1690 C   0  0  0  0  0  0  0  0  0  0  0  0
   37.3930   25.9420   34.0850 C   0  0  0  0  0  0  0  0  0  0  0  0
   36.9850   27.1820   33.4990 N   0  0  0  0  0  0  0  0  0  0  0  0
   36.3690   28.0530   34.3310 C   0  0  0  0  0  0  0  0  0  0  0  0
   35.9180   29.2920   33.9110 C   0  0  0  0  0  0  0  0  0  0  0  0
   36.1150   29.6320   32.5830 C   0  0  0  0  0  0  0  0  0  0  0  0
   35.6420   30.9060   32.1850 N   0  0  0  0  0  0  0  0  0  0  0  0
   36.7300   28.7560   31.7640 N   0  0  0  0  0  0  0  0  0  0  0  0
   37.1400   27.5780   32.2320 C   0  0  0  0  0  0  0  0  0  0  0  0
   37.7060   26.7700   31.4740 O   0  0  0  0  0  0  0  0  0  0  0  0
   35.2510   30.1930   34.8630 C   0  0  0  0  0  0  0  0  0  0  0  0
   35.9620   31.0910   35.6110 C   0  0  0  0  0  0  0  0  0  0  0  0
   35.3280   31.9350   36.5040 C   0  0  0  0  0  0  0  0  0  0  0  0
   33.9730   31.8260   36.5980 C   0  0  0  0  0  0  0  0  0  0  0  0
   33.2150   30.9430   35.8730 C   0  0  0  0  0  0  0  0  0  0  0  0
   33.8660   30.0980   34.9750 C   0  0  0  0  0  0  0  0  0  0  0  0
   39.7590   25.3780   33.7650 C   0  0  0  0  0  0  0  0  0  0  0  0
   40.8630   26.2240   33.4340 N   0  0  0  0  0  0  0  0  0  0  0  0
   41.2470   27.2320   32.6410 C   0  0  0  0  0  0  0  0  0  0  0  0
   42.4850   27.6650   32.8190 N   0  0  0  0  0  0  0  0  0  0  0  0
   42.9810   26.8860   33.8210 C   0  0  0  0  0  0  0  0  0  0  0  0
   44.2460   26.9930   34.3430 C   0  0  0  0  0  0  0  0  0  0  0  0
   45.0930   27.8250   33.9410 O   0  0  0  0  0  0  0  0  0  0  0  0
   44.5640   26.1480   35.3320 N   0  0  0  0  0  0  0  0  0  0  0  0
   43.6340   25.2690   35.7390 C   0  0  0  0  0  0  0  0  0  0  0  0
   43.9330   24.3390   36.8020 N   0  0  0  0  0  0  0  0  0  0  0  0
   42.4180   25.2220   35.1820 N   0  0  0  0  0  0  0  0  0  0  0  0
   41.9830   26.0030   34.1980 C   0  0  0  0  0  0  0  0  0  0  0  0
   39.4683   22.0245   36.9946 H   0  0  0  0  0  0  0  0  0  0  0  0
   37.3413   25.0920   39.0319 H   0  0  0  0  0  0  0  0  0  0  0  0
   37.8575   22.8093   40.1253 H   0  0  0  0  0  0  0  0  0  0  0  0
   38.7601   21.6011   39.1723 H   0  0  0  0  0  0  0  0  0  0  0  0
   39.1621   27.3716   36.2673 H   0  0  0  0  0  0  0  0  0  0  0  0
   40.1464   27.5394   34.7741 H   0  0  0  0  0  0  0  0  0  0  0  0
   38.4218   28.0417   34.7741 H   0  0  0  0  0  0  0  0  0  0  0  0
   37.4098   25.1825   33.2895 H   0  0  0  0  0  0  0  0  0  0  0  0
   36.6665   25.7372   34.8851 H   0  0  0  0  0  0  0  0  0  0  0  0
   36.2209   27.7651   35.3823 H   0  0  0  0  0  0  0  0  0  0  0  0
   35.7587   31.2172   31.2101 H   0  0  0  0  0  0  0  0  0  0  0  0
   35.1813   31.5215   32.8704 H   0  0  0  0  0  0  0  0  0  0  0  0
   37.0552   31.1424   35.5003 H   0  0  0  0  0  0  0  0  0  0  0  0
   35.8909   32.6602   37.1100 H   0  0  0  0  0  0  0  0  0  0  0  0
   33.4524   32.4910   37.3028 H   0  0  0  0  0  0  0  0  0  0  0  0
   32.1227   30.9023   35.9964 H   0  0  0  0  0  0  0  0  0  0  0  0
   33.2998   29.3744   34.3701 H   0  0  0  0  0  0  0  0  0  0  0  0
   40.1650   24.4509   34.1958 H   0  0  0  0  0  0  0  0  0  0  0  0
   39.2051   25.2386   32.8249 H   0  0  0  0  0  0  0  0  0  0  0  0
   40.5759   27.6726   31.8889 H   0  0  0  0  0  0  0  0  0  0  0  0
   45.4966   26.1716   35.7686 H   0  0  0  0  0  0  0  0  0  0  0  0
   43.2186   23.6654   37.1131 H   0  0  0  0  0  0  0  0  0  0  0  0
   44.8607   24.3491   37.2493 H   0  0  0  0  0  0  0  0  0  0  0  0
  1 25  1  6
  1  9  1  0
  1  6  1  0
  2  3  2  0
  3  8  1  0
  4  3  1  0
  5  4  2  0
  6  7  2  0
  6  5  1  0
  7  2  1  0
 10  1  1  0
 11 10  1  0
 11 12  1  0
 13 12  2  0
 13 19  1  0
 14 13  1  0
 15 14  1  0
 16 17  1  0
 16 14  2  0
 17 11  1  0
 18 17  2  0
 19 24  1  0
 19 20  2  0
 20 21  1  0
 21 22  2  0
 23 22  1  0
 24 23  2  0
 26 25  1  0
 26 36  1  0
 27 28  2  0
 27 26  1  0
 28 29  1  0
 29 36  2  0
 29 30  1  0
 30 32  1  0
 31 30  2  0
 32 33  1  0
 33 34  1  0
 35 33  2  0
 36 35  1  0
  2 37  1  0
  4 38  1  0
  8 39  1  0
  8 40  1  0
  9 41  1  0
  9 42  1  0
  9 43  1  0
 10 44  1  0
 10 45  1  0
 12 46  1  0
 15 47  1  0
 15 48  1  0
 20 49  1  0
 21 50  1  0
 22 51  1  0
 23 52  1  0
 24 53  1  0
 25 54  1  0
 25 55  1  0
 27 56  1  0
 32 57  1  0
 34 58  1  0
 34 59  1  0
M  END
>  <minimizedAffinity>  (1) 
-7.59586334

>  <minimizedRMSD>  (1) 
2.04372668

$$$$
