
     RDKit          3D

 46 49  0  0  1  0  0  0  0  0999 V2000
   37.9820   26.3890   36.5100 C   0  0  1  0  0  0  0  0  0  0  0  0
   38.7800   27.3320   35.6920 C   0  0  0  0  0  0  0  0  0  0  0  0
   37.5070   26.7600   35.1590 C   0  0  1  0  0  0  0  0  0  0  0  0
   37.6330   26.0600   33.9470 N   0  0  0  0  0  0  0  0  0  0  0  0
   37.7170   24.7320   33.7650 C   0  0  0  0  0  0  0  0  0  0  0  0
   37.8420   24.1080   32.5540 C   0  0  0  0  0  0  0  0  0  0  0  0
   37.8850   24.9030   31.4000 C   0  0  0  0  0  0  0  0  0  0  0  0
   37.9990   24.3790   30.2650 O   0  0  0  0  0  0  0  0  0  0  0  0
   37.8030   26.2540   31.5080 N   0  0  0  0  0  0  0  0  0  0  0  0
   37.6850   26.7570   32.7500 C   0  0  0  0  0  0  0  0  0  0  0  0
   37.6090   28.0330   32.8240 O   0  0  0  0  0  0  0  0  0  0  0  0
   37.1210   28.4720   28.7920 N   0  0  0  0  0  0  0  0  0  0  0  0
   36.7520   27.7400   29.8160 N   0  0  0  0  0  0  0  0  0  0  0  0
   37.8200   27.1260   30.3800 C   0  0  0  0  0  0  0  0  0  0  0  0
   38.9100   27.5080   29.6530 C   0  0  0  0  0  0  0  0  0  0  0  0
   38.4570   28.3520   28.6620 C   0  0  0  0  0  0  0  0  0  0  0  0
   38.5200   25.0430   36.8350 C   0  0  0  0  0  0  0  0  0  0  0  0
   37.9110   24.3840   37.9120 C   0  0  0  0  0  0  0  0  0  0  0  0
   38.3500   23.1270   38.2790 C   0  0  0  0  0  0  0  0  0  0  0  0
   39.3670   22.5970   37.5550 N   0  0  0  0  0  0  0  0  0  0  0  0
   39.9340   23.2660   36.5180 C   0  0  0  0  0  0  0  0  0  0  0  0
   39.5260   24.4740   36.1520 N   0  0  0  0  0  0  0  0  0  0  0  0
   41.0480   22.6160   35.7730 C   0  0  0  0  0  0  0  0  0  0  0  0
   42.1580   23.6460   35.5330 C   0  0  0  0  0  0  0  0  0  0  0  0
   41.6420   21.5870   36.7050 C   0  0  0  0  0  0  0  0  0  0  0  0
   40.6350   22.0380   34.4540 C   0  0  0  0  0  0  0  0  0  0  0  0
   37.5182   26.4041   37.5073 H   0  0  0  0  0  0  0  0  0  0  0  0
   38.8325   28.3949   35.9704 H   0  0  0  0  0  0  0  0  0  0  0  0
   39.8226   27.3732   35.3438 H   0  0  0  0  0  0  0  0  0  0  0  0
   36.4978   27.0525   34.8333 H   0  0  0  0  0  0  0  0  0  0  0  0
   37.6825   24.0952   34.6613 H   0  0  0  0  0  0  0  0  0  0  0  0
   37.9070   23.0119   32.4875 H   0  0  0  0  0  0  0  0  0  0  0  0
   36.5009   29.0371   28.1945 H   0  0  0  0  0  0  0  0  0  0  0  0
   39.9521   27.2007   29.8252 H   0  0  0  0  0  0  0  0  0  0  0  0
   39.0780   28.8424   27.8978 H   0  0  0  0  0  0  0  0  0  0  0  0
   37.0885   24.8651   38.4615 H   0  0  0  0  0  0  0  0  0  0  0  0
   37.8960   22.5812   39.1192 H   0  0  0  0  0  0  0  0  0  0  0  0
   42.5425   24.0028   36.4999 H   0  0  0  0  0  0  0  0  0  0  0  0
   42.9749   23.1788   34.9634 H   0  0  0  0  0  0  0  0  0  0  0  0
   41.7530   24.4955   34.9634 H   0  0  0  0  0  0  0  0  0  0  0  0
   41.4662   21.8915   37.7473 H   0  0  0  0  0  0  0  0  0  0  0  0
   41.1684   20.6109   36.5233 H   0  0  0  0  0  0  0  0  0  0  0  0
   42.7241   21.5090   36.5233 H   0  0  0  0  0  0  0  0  0  0  0  0
   40.0031   21.1536   34.6230 H   0  0  0  0  0  0  0  0  0  0  0  0
   40.0686   22.7902   33.8853 H   0  0  0  0  0  0  0  0  0  0  0  0
   41.5301   21.7458   33.8853 H   0  0  0  0  0  0  0  0  0  0  0  0
  1 17  1  0
  2  1  1  0
  3  2  1  0
  3  1  1  0
  4  3  1  0
  5  4  1  0
  6  5  2  0
  7  9  1  0
  7  6  1  0
  8  7  2  0
  9 10  1  0
 10 11  2  0
 10  4  1  0
 12 13  1  0
 13 14  2  0
 14  9  1  0
 15 14  1  0
 16 12  1  0
 16 15  2  0
 17 18  2  0
 18 19  1  0
 20 19  2  0
 21 20  1  0
 22 21  2  0
 22 17  1  0
 23 21  1  0
 23 25  1  0
 24 23  1  0
 26 23  1  0
  1 27  1  1
  2 28  1  0
  2 29  1  0
  3 30  1  1
  5 31  1  0
  6 32  1  0
 12 33  1  0
 15 34  1  0
 16 35  1  0
 18 36  1  0
 19 37  1  0
 24 38  1  0
 24 39  1  0
 24 40  1  0
 25 41  1  0
 25 42  1  0
 25 43  1  0
 26 44  1  0
 26 45  1  0
 26 46  1  0
M  ISO  8  27  13  28  13  29  13  30  13  31  14  32  14  33   9  34  14
M  ISO  8  35  14  36  14  37  14  38   8  39   8  40   8  41   8  42   8
M  ISO  4  43   8  44   8  45   8  46   8
M  END
>  <minimizedAffinity>  (1) 
-5.71596766

>  <minimizedRMSD>  (1) 
0.159820393

$$$$
