
     RDKit          3D

 36 37  0  0  0  0  0  0  0  0999 V2000
   38.2680   23.5830   34.8790 N   0  0  0  0  0  0  0  0  0  0  0  0
   38.2660   22.5390   34.0610 N   0  0  0  0  0  0  0  0  0  0  0  0
   38.0400   22.9090   32.7980 C   0  0  0  0  0  0  0  0  0  0  0  0
   37.8900   24.2990   32.8390 C   0  0  0  0  0  0  0  0  0  0  0  0
   38.0380   24.7100   34.1650 C   0  0  0  0  0  0  0  0  0  0  0  0
   37.4980   23.9310   37.1500 C   0  0  0  0  0  0  0  0  0  0  0  0
   38.4780   23.5220   36.2690 C   0  0  0  0  0  0  0  0  0  0  0  0
   39.7090   23.0360   36.7590 C   0  0  0  0  0  0  0  0  0  0  0  0
   39.8450   23.0060   38.1220 N   0  0  0  0  0  0  0  0  0  0  0  0
   38.8920   23.4020   38.9630 C   0  0  0  0  0  0  0  0  0  0  0  0
   37.7220   23.8630   38.4680 N   0  0  0  0  0  0  0  0  0  0  0  0
   37.9540   26.0560   34.6280 N   0  0  0  0  0  0  0  0  0  0  0  0
   39.0260   26.7210   35.2760 C   0  0  0  0  0  0  0  0  0  0  0  0
   40.2240   26.4250   34.8420 N   0  0  0  0  0  0  0  0  0  0  0  0
   38.6670   27.6380   36.3290 N   0  0  0  0  0  0  0  0  0  0  0  0
   40.9930   26.9280   35.3400 H   0  0  0  0  0  0  0  0  0  0  0  0
   37.6170   25.2080   31.6670 C   0  0  0  0  0  0  0  0  0  0  0  0
   37.5870   24.3510   30.4160 C   0  0  0  0  0  0  0  0  0  0  0  0
   38.6740   26.2830   31.5820 C   0  0  0  0  0  0  0  0  0  0  0  0
   36.2700   25.8480   31.8130 C   0  0  0  0  0  0  0  0  0  0  0  0
   37.9837   22.2584   31.9128 H   0  0  0  0  0  0  0  0  0  0  0  0
   36.5377   24.3110   36.7713 H   0  0  0  0  0  0  0  0  0  0  0  0
   40.5121   22.7010   36.0861 H   0  0  0  0  0  0  0  0  0  0  0  0
   39.0552   23.3545   40.0498 H   0  0  0  0  0  0  0  0  0  0  0  0
   37.0728   26.5698   34.4850 H   0  0  0  0  0  0  0  0  0  0  0  0
   39.4011   28.1514   36.8373 H   0  0  0  0  0  0  0  0  0  0  0  0
   37.6764   27.7798   36.5729 H   0  0  0  0  0  0  0  0  0  0  0  0
   37.5498   23.2889   30.6999 H   0  0  0  0  0  0  0  0  0  0  0  0
   36.6971   24.6027   29.8204 H   0  0  0  0  0  0  0  0  0  0  0  0
   38.4923   24.5398   29.8204 H   0  0  0  0  0  0  0  0  0  0  0  0
   38.9716   26.5857   32.5968 H   0  0  0  0  0  0  0  0  0  0  0  0
   39.5506   25.8935   31.0436 H   0  0  0  0  0  0  0  0  0  0  0  0
   38.2698   27.1529   31.0436 H   0  0  0  0  0  0  0  0  0  0  0  0
   36.0317   25.9612   32.8809 H   0  0  0  0  0  0  0  0  0  0  0  0
   36.2802   26.8375   31.3326 H   0  0  0  0  0  0  0  0  0  0  0  0
   35.5093   25.2151   31.3326 H   0  0  0  0  0  0  0  0  0  0  0  0
  1  7  1  0
  2  1  1  0
  3  4  1  0
  3  2  2  0
  4  5  2  0
  5 12  1  0
  5  1  1  0
  6 11  2  0
  7  8  2  0
  7  6  1  0
  8  9  1  0
  9 10  2  0
 11 10  1  0
 12 13  1  0
 13 15  1  0
 14 13  2  0
 14 16  1  0
 17 20  1  0
 17  4  1  0
 18 17  1  0
 19 17  1  0
  3 21  1  0
  6 22  1  0
  8 23  1  0
 10 24  1  0
 12 25  1  0
 15 26  1  0
 15 27  1  0
 18 28  1  0
 18 29  1  0
 18 30  1  0
 19 31  1  0
 19 32  1  0
 19 33  1  0
 20 34  1  0
 20 35  1  0
 20 36  1  0
M  ISO  8  21  14  22  14  23  14  24  14  28   8  29   8  30   8  31   8
M  ISO  5  32   8  33   8  34   8  35   8  36   8
M  END
>  <minimizedAffinity>  (1) 
-4.89304686

>  <minimizedRMSD>  (1) 
0.308692008

$$$$
