
     RDKit          3D

 33 35  0  0  0  0  0  0  0  0999 V2000
   38.2970   24.4460   35.9800 N   0  0  0  0  0  0  0  0  0  0  0  0
   37.5280   23.8980   36.9550 C   0  0  0  0  0  0  0  0  0  0  0  0
   38.2230   23.0420   37.7170 N   0  0  0  0  0  0  0  0  0  0  0  0
   39.4650   23.0310   37.2330 C   0  0  0  0  0  0  0  0  0  0  0  0
   40.6280   22.3580   37.5680 C   0  0  0  0  0  0  0  0  0  0  0  0
   41.7990   22.5030   36.9090 N   0  0  0  0  0  0  0  0  0  0  0  0
   41.7830   23.3770   35.8630 C   0  0  0  0  0  0  0  0  0  0  0  0
   40.6610   24.0040   35.5660 N   0  0  0  0  0  0  0  0  0  0  0  0
   39.4870   23.9020   36.1690 C   0  0  0  0  0  0  0  0  0  0  0  0
   37.6220   24.9380   33.7050 C   0  0  0  0  0  0  0  0  0  0  0  0
   37.8820   25.3610   35.0090 C   0  0  0  0  0  0  0  0  0  0  0  0
   37.7510   26.7130   35.3630 C   0  0  0  0  0  0  0  0  0  0  0  0
   37.3720   27.6170   34.4280 N   0  0  0  0  0  0  0  0  0  0  0  0
   37.1240   27.1930   33.1450 C   0  0  0  0  0  0  0  0  0  0  0  0
   37.2530   25.8900   32.8230 N   0  0  0  0  0  0  0  0  0  0  0  0
   37.6720   23.5790   33.1310 C   0  0  0  0  0  0  0  0  0  0  0  0
   36.8510   23.4900   31.8400 C   0  0  0  0  0  0  0  0  0  0  0  0
   37.5510   22.4060   33.9970 C   0  0  0  0  0  0  0  0  0  0  0  0
   39.1190   23.3740   32.5140 C   0  0  0  0  0  0  0  0  0  0  0  0
   36.4626   24.1287   37.1021 H   0  0  0  0  0  0  0  0  0  0  0  0
   40.5969   21.6642   38.4211 H   0  0  0  0  0  0  0  0  0  0  0  0
   42.6943   23.5572   35.2739 H   0  0  0  0  0  0  0  0  0  0  0  0
   37.9550   27.0367   36.3943 H   0  0  0  0  0  0  0  0  0  0  0  0
   36.8190   27.9194   32.3773 H   0  0  0  0  0  0  0  0  0  0  0  0
   35.7860   23.3746   32.0900 H   0  0  0  0  0  0  0  0  0  0  0  0
   36.9921   24.4087   31.2517 H   0  0  0  0  0  0  0  0  0  0  0  0
   37.1856   22.6229   31.2517 H   0  0  0  0  0  0  0  0  0  0  0  0
   37.5837   22.7227   35.0499 H   0  0  0  0  0  0  0  0  0  0  0  0
   36.5958   21.8989   33.7961 H   0  0  0  0  0  0  0  0  0  0  0  0
   38.3826   21.7146   33.7961 H   0  0  0  0  0  0  0  0  0  0  0  0
   39.8528   23.2700   33.3268 H   0  0  0  0  0  0  0  0  0  0  0  0
   39.1278   22.4656   31.8937 H   0  0  0  0  0  0  0  0  0  0  0  0
   39.3798   24.2442   31.8937 H   0  0  0  0  0  0  0  0  0  0  0  0
  1  9  1  0
  1  2  1  0
  2  3  2  0
  4  5  2  0
  4  3  1  0
  6  5  1  0
  7  6  2  0
  8  7  1  0
  8  9  2  0
  9  4  1  0
 10 11  2  0
 11 12  1  0
 11  1  1  0
 13 12  2  0
 14 13  1  0
 15 14  2  0
 15 10  1  0
 16 10  1  0
 16 18  1  0
 17 16  1  0
 19 16  1  0
  2 20  1  0
  5 21  1  0
  7 22  1  0
 12 23  1  0
 14 24  1  0
 17 25  1  0
 17 26  1  0
 17 27  1  0
 18 28  1  0
 18 29  1  0
 18 30  1  0
 19 31  1  0
 19 32  1  0
 19 33  1  0
M  ISO  8  20  14  21  14  22  14  23  14  24  14  25   8  26   8  27   8
M  ISO  6  28   8  29   8  30   8  31   8  32   8  33   8
M  END
>  <minimizedAffinity>  (1) 
-4.53202724

>  <minimizedRMSD>  (1) 
0.890480995

$$$$
