
     RDKit          3D

 47 52  0  0  1  0  0  0  0  0999 V2000
   39.5420   22.8870   37.2580 C   0  0  0  0  0  0  0  0  0  0  0  0
   39.0500   23.2860   38.5100 C   0  0  0  0  0  0  0  0  0  0  0  0
   38.1450   24.3320   38.5450 C   0  0  0  0  0  0  0  0  0  0  0  0
   37.7690   24.9250   37.4070 N   0  0  0  0  0  0  0  0  0  0  0  0
   38.2720   24.5070   36.1900 C   0  0  0  0  0  0  0  0  0  0  0  0
   39.1410   23.5070   36.1310 N   0  0  0  0  0  0  0  0  0  0  0  0
   37.8350   25.1810   35.0340 N   0  0  0  0  0  0  0  0  0  0  0  0
   37.4100   26.4450   35.2710 C   0  0  0  0  0  0  0  0  0  0  0  0
   36.9920   26.9900   34.0420 C   0  0  0  0  0  0  0  0  0  0  0  0
   37.1840   26.0340   33.1240 N   0  0  0  0  0  0  0  0  0  0  0  0
   37.6920   24.9420   33.7150 C   0  0  0  0  0  0  0  0  0  0  0  0
   38.0870   23.6530   33.2520 N   0  0  0  0  0  0  0  0  0  0  0  0
   39.2770   23.0770   33.5050 C   0  0  0  0  0  0  0  0  0  0  0  0
   39.3510   21.8720   32.9390 N   0  0  0  0  0  0  0  0  0  0  0  0
   38.2110   21.6340   32.3030 C   0  0  0  0  0  0  0  0  0  0  0  0
   37.6590   20.6050   31.5400 C   0  0  0  0  0  0  0  0  0  0  0  0
   36.4250   20.6540   31.0040 N   0  0  0  0  0  0  0  0  0  0  0  0
   35.6900   21.7810   31.2310 C   0  0  0  0  0  0  0  0  0  0  0  0
   36.1890   22.8110   31.9710 N   0  0  0  0  0  0  0  0  0  0  0  0
   37.4240   22.7520   32.5030 C   0  0  0  0  0  0  0  0  0  0  0  0
   38.5410   19.4760   31.3780 N   0  0  0  0  0  0  0  0  0  0  0  0
   40.4230   21.8690   37.2250 O   0  0  0  0  0  0  0  0  0  0  0  0
   41.7410   22.0880   36.7960 C   0  0  0  0  0  0  0  0  0  0  0  0
   42.3540   21.0090   36.2220 C   0  0  0  0  0  0  0  0  0  0  0  0
   43.9720   21.6870   35.8250 S   0  0  0  0  0  0  0  0  0  0  0  0
   43.5460   23.4010   36.5290 C   0  0  0  0  0  0  0  0  0  0  0  0
   42.4850   23.1620   36.8540 N   0  0  0  0  0  0  0  0  0  0  0  0
   44.5550   24.5210   36.5070 C   0  0  2  0  0  0  0  0  0  0  0  0
   45.9550   24.1830   36.3620 C   0  0  0  0  0  0  0  0  0  0  0  0
   45.6250   24.3800   37.7150 C   0  0  1  0  0  0  0  0  0  0  0  0
   46.1070   25.7430   38.2320 C   0  0  0  0  0  0  0  0  0  0  0  0
   47.2210   26.2780   37.7410 O   0  0  0  0  0  0  0  0  0  0  0  0
   45.3660   26.4220   39.2170 O   0  0  0  0  0  0  0  0  0  0  0  0
   39.3733   22.7836   39.4336 H   0  0  0  0  0  0  0  0  0  0  0  0
   37.7358   24.6750   39.5067 H   0  0  0  0  0  0  0  0  0  0  0  0
   37.3943   26.9533   36.2464 H   0  0  0  0  0  0  0  0  0  0  0  0
   36.5886   27.9988   33.8702 H   0  0  0  0  0  0  0  0  0  0  0  0
   40.0801   23.5382   34.0986 H   0  0  0  0  0  0  0  0  0  0  0  0
   34.6771   21.8596   30.8094 H   0  0  0  0  0  0  0  0  0  0  0  0
   38.2354   18.6579   30.8319 H   0  0  0  0  0  0  0  0  0  0  0  0
   39.4767   19.4875   31.8084 H   0  0  0  0  0  0  0  0  0  0  0  0
   41.9620   19.9959   36.0490 H   0  0  0  0  0  0  0  0  0  0  0  0
   43.8862   25.2630   36.0464 H   0  0  0  0  0  0  0  0  0  0  0  0
   46.2161   23.1673   36.0299 H   0  0  0  0  0  0  0  0  0  0  0  0
   46.7435   24.6325   35.7405 H   0  0  0  0  0  0  0  0  0  0  0  0
   45.7016   23.8093   38.6523 H   0  0  0  0  0  0  0  0  0  0  0  0
   45.6756   27.3009   39.5513 H   0  0  0  0  0  0  0  0  0  0  0  0
  1  2  2  0
  2  3  1  0
  4  3  2  0
  5  4  1  0
  6  5  2  0
  6  1  1  0
  7  8  1  0
  7  5  1  0
  9  8  2  0
 10 11  2  0
 10  9  1  0
 11  7  1  0
 12 13  1  0
 12 11  1  0
 14 13  2  0
 15 20  2  0
 15 14  1  0
 16 15  1  0
 17 18  1  0
 17 16  2  0
 18 19  2  0
 19 20  1  0
 20 12  1  0
 21 16  1  0
 22  1  1  0
 23 27  1  0
 23 22  1  0
 24 23  2  0
 25 24  1  0
 25 26  1  0
 26 27  2  0
 28 26  1  0
 28 30  1  0
 29 28  1  0
 29 30  1  0
 30 31  1  0
 31 33  1  0
 32 31  2  0
  2 34  1  0
  3 35  1  0
  8 36  1  0
  9 37  1  0
 13 38  1  0
 18 39  1  0
 21 40  1  0
 21 41  1  0
 24 42  1  0
 28 43  1  6
 29 44  1  0
 29 45  1  0
 30 46  1  1
 33 47  1  0
M  END
>  <minimizedAffinity>  (1) 
-7.11479664

>  <minimizedRMSD>  (1) 
0.350791574

$$$$
