
     RDKit          3D

 31 34  0  0  0  0  0  0  0  0999 V2000
   44.1570   20.5010   36.1350 C   0  0  0  0  0  0  0  0  0  0  0  0
   42.7900   20.7130   36.3360 C   0  0  0  0  0  0  0  0  0  0  0  0
   42.2980   22.0210   36.2580 C   0  0  0  0  0  0  0  0  0  0  0  0
   43.1910   23.0260   35.9880 N   0  0  0  0  0  0  0  0  0  0  0  0
   44.5040   22.7730   35.8010 C   0  0  0  0  0  0  0  0  0  0  0  0
   44.9900   21.5090   35.8740 N   0  0  0  0  0  0  0  0  0  0  0  0
   45.4480   23.8000   35.5200 N   0  0  0  0  0  0  0  0  0  0  0  0
   45.7070   24.1220   34.2210 C   0  0  0  0  0  0  0  0  0  0  0  0
   46.6290   25.1190   34.1670 N   0  0  0  0  0  0  0  0  0  0  0  0
   46.9650   25.4380   35.4320 C   0  0  0  0  0  0  0  0  0  0  0  0
   47.8200   26.3390   36.0650 C   0  0  0  0  0  0  0  0  0  0  0  0
   47.8970   26.3780   37.4200 N   0  0  0  0  0  0  0  0  0  0  0  0
   47.1380   25.5340   38.1790 C   0  0  0  0  0  0  0  0  0  0  0  0
   46.2950   24.6450   37.5830 N   0  0  0  0  0  0  0  0  0  0  0  0
   46.2170   24.6070   36.2420 C   0  0  0  0  0  0  0  0  0  0  0  0
   40.8800   22.2970   36.4600 C   0  0  0  0  0  0  0  0  0  0  0  0
   39.7610   22.0730   35.7160 N   0  0  0  0  0  0  0  0  0  0  0  0
   38.7310   22.5180   36.3660 O   0  0  0  0  0  0  0  0  0  0  0  0
   39.1100   23.0380   37.5260 C   0  0  0  0  0  0  0  0  0  0  0  0
   40.4330   22.8970   37.5750 N   0  0  0  0  0  0  0  0  0  0  0  0
   38.2610   23.6470   38.5570 C   0  0  0  0  0  0  0  0  0  0  0  0
   39.0440   23.9520   39.6640 F   0  0  0  0  0  0  0  0  0  0  0  0
   37.2640   22.7870   38.9750 F   0  0  0  0  0  0  0  0  0  0  0  0
   37.7180   24.8210   38.0950 F   0  0  0  0  0  0  0  0  0  0  0  0
   48.5680   27.1740   35.1990 N   0  0  0  0  0  0  0  0  0  0  0  0
   44.5554   19.4774   36.1936 H   0  0  0  0  0  0  0  0  0  0  0  0
   42.1160   19.8706   36.5507 H   0  0  0  0  0  0  0  0  0  0  0  0
   45.2394   23.6458   33.3466 H   0  0  0  0  0  0  0  0  0  0  0  0
   47.2075   25.5720   39.2761 H   0  0  0  0  0  0  0  0  0  0  0  0
   49.2224   27.8667   35.5898 H   0  0  0  0  0  0  0  0  0  0  0  0
   48.4574   27.0884   34.1785 H   0  0  0  0  0  0  0  0  0  0  0  0
  1  2  2  0
  3  2  1  0
  3 16  1  0
  4  3  2  0
  5  6  2  0
  5  4  1  0
  6  1  1  0
  7  5  1  0
  7 15  1  0
  8  7  1  0
  9  8  2  0
  9 10  1  0
 10 11  2  0
 10 15  1  0
 11 12  1  0
 12 13  2  0
 14 13  1  0
 15 14  2  0
 16 20  1  0
 17 18  1  0
 17 16  2  0
 18 19  1  0
 19 20  2  0
 19 21  1  0
 21 23  1  0
 21 22  1  0
 24 21  1  0
 25 11  1  0
  1 26  1  0
  2 27  1  0
  8 28  1  0
 13 29  1  0
 25 30  1  0
 25 31  1  0
M  ISO  4  26  14  27  14  28  14  29  14
M  END
>  <minimizedAffinity>  (1) 
-5.54675436

>  <minimizedRMSD>  (1) 
4.0814724

$$$$
