
     RDKit          3D

 30 33  0  0  0  0  0  0  0  0999 V2000
   37.5770   21.9000   35.3420 C   0  0  0  0  0  0  0  0  0  0  0  0
   36.3860   21.3050   35.3930 C   0  0  0  0  0  0  0  0  0  0  0  0
   35.7480   20.6230   34.4300 C   0  0  0  0  0  0  0  0  0  0  0  0
   36.6110   20.6210   33.2200 C   0  0  0  0  0  0  0  0  0  0  0  0
   38.1810   21.5850   33.6440 S   0  0  0  0  0  0  0  0  0  0  0  0
   39.8630   22.9320   37.9370 C   0  0  0  0  0  0  0  0  0  0  0  0
   39.1050   23.8040   38.7190 C   0  0  0  0  0  0  0  0  0  0  0  0
   37.7710   24.0540   38.3560 C   0  0  0  0  0  0  0  0  0  0  0  0
   37.2770   23.4280   37.2500 N   0  0  0  0  0  0  0  0  0  0  0  0
   38.0540   22.5830   36.5150 C   0  0  0  0  0  0  0  0  0  0  0  0
   39.3210   22.3470   36.8600 N   0  0  0  0  0  0  0  0  0  0  0  0
   36.5430   20.0930   31.8840 N   0  0  0  0  0  0  0  0  0  0  0  0
   36.3950   20.9100   30.8300 C   0  0  0  0  0  0  0  0  0  0  0  0
   36.3720   20.0820   29.7700 N   0  0  0  0  0  0  0  0  0  0  0  0
   36.5020   18.8290   30.1840 C   0  0  0  0  0  0  0  0  0  0  0  0
   36.5340   17.6380   29.4520 C   0  0  0  0  0  0  0  0  0  0  0  0
   36.6810   16.4880   30.1690 N   0  0  0  0  0  0  0  0  0  0  0  0
   36.7880   16.5170   31.5130 C   0  0  0  0  0  0  0  0  0  0  0  0
   36.7580   17.6460   32.2120 N   0  0  0  0  0  0  0  0  0  0  0  0
   36.6160   18.8110   31.5680 C   0  0  0  0  0  0  0  0  0  0  0  0
   36.4170   17.6580   28.0330 N   0  0  0  0  0  0  0  0  0  0  0  0
   35.8549   21.3835   36.3531 H   0  0  0  0  0  0  0  0  0  0  0  0
   34.7597   20.1486   34.5201 H   0  0  0  0  0  0  0  0  0  0  0  0
   40.9093   22.7239   38.2054 H   0  0  0  0  0  0  0  0  0  0  0  0
   39.5441   24.2873   39.6042 H   0  0  0  0  0  0  0  0  0  0  0  0
   37.1425   24.7359   38.9476 H   0  0  0  0  0  0  0  0  0  0  0  0
   36.3115   22.0068   30.8322 H   0  0  0  0  0  0  0  0  0  0  0  0
   36.9050   15.5658   32.0530 H   0  0  0  0  0  0  0  0  0  0  0  0
   36.3076   18.5545   27.5379 H   0  0  0  0  0  0  0  0  0  0  0  0
   36.4418   16.7759   27.5017 H   0  0  0  0  0  0  0  0  0  0  0  0
  1  2  2  0
  1 10  1  0
  3  2  1  0
  4  5  1  0
  4  3  2  0
  5  1  1  0
  6  7  2  0
  8  7  1  0
  9  8  2  0
 10 11  2  0
 10  9  1  0
 11  6  1  0
 12  4  1  0
 13 12  1  0
 14 15  1  0
 14 13  2  0
 15 20  2  0
 16 17  2  0
 16 15  1  0
 17 18  1  0
 18 19  2  0
 20 12  1  0
 20 19  1  0
 21 16  1  0
  2 22  1  0
  3 23  1  0
  6 24  1  0
  7 25  1  0
  8 26  1  0
 13 27  1  0
 18 28  1  0
 21 29  1  0
 21 30  1  0
M  ISO  7  22  14  23  14  24  14  25  14  26  14  27  14  28  14
M  END
>  <minimizedAffinity>  (1) 
-4.6272459

>  <minimizedRMSD>  (1) 
1.67747235

$$$$
