
     RDKit          3D

 46 51  0  0  0  0  0  0  0  0999 V2000
   43.2840   23.3150   35.6280 C   0  0  0  0  0  0  0  0  0  0  0  0
   44.0650   22.2330   35.2460 C   0  0  0  0  0  0  0  0  0  0  0  0
   43.7180   20.9930   35.7590 C   0  0  0  0  0  0  0  0  0  0  0  0
   42.6610   20.8880   36.5890 N   0  0  0  0  0  0  0  0  0  0  0  0
   41.8960   21.9550   36.9600 C   0  0  0  0  0  0  0  0  0  0  0  0
   42.2360   23.1700   36.4560 N   0  0  0  0  0  0  0  0  0  0  0  0
   43.5600   24.6430   35.1500 N   0  0  0  0  0  0  0  0  0  0  0  0
   42.7120   25.4270   34.4250 C   0  0  0  0  0  0  0  0  0  0  0  0
   43.3590   26.5870   34.1880 N   0  0  0  0  0  0  0  0  0  0  0  0
   44.5670   26.5170   34.7530 C   0  0  0  0  0  0  0  0  0  0  0  0
   45.6550   27.3670   34.8490 C   0  0  0  0  0  0  0  0  0  0  0  0
   46.7950   26.9980   35.5160 N   0  0  0  0  0  0  0  0  0  0  0  0
   46.8730   25.7680   36.1030 C   0  0  0  0  0  0  0  0  0  0  0  0
   45.8280   24.9190   36.0250 N   0  0  0  0  0  0  0  0  0  0  0  0
   44.7120   25.2980   35.3630 C   0  0  0  0  0  0  0  0  0  0  0  0
   45.6030   28.6380   34.2580 N   0  0  0  0  0  0  0  0  0  0  0  0
   40.8200   21.9000   37.7940 O   0  0  0  0  0  0  0  0  0  0  0  0
   39.7650   22.7540   37.7580 C   0  0  0  0  0  0  0  0  0  0  0  0
   38.9770   23.3490   38.7260 C   0  0  0  0  0  0  0  0  0  0  0  0
   37.9450   24.1950   38.4240 C   0  0  0  0  0  0  0  0  0  0  0  0
   37.6680   24.4750   37.0940 C   0  0  0  0  0  0  0  0  0  0  0  0
   38.4590   23.8780   36.1450 C   0  0  0  0  0  0  0  0  0  0  0  0
   39.4900   23.0320   36.4560 N   0  0  0  0  0  0  0  0  0  0  0  0
   38.0960   24.2280   34.8000 N   0  0  0  0  0  0  0  0  0  0  0  0
   37.9500   25.5160   34.4280 C   0  0  0  0  0  0  0  0  0  0  0  0
   37.6080   25.5510   33.1180 N   0  0  0  0  0  0  0  0  0  0  0  0
   37.5520   24.2550   32.7110 C   0  0  0  0  0  0  0  0  0  0  0  0
   37.2630   23.6470   31.5070 C   0  0  0  0  0  0  0  0  0  0  0  0
   37.2800   22.2930   31.3740 N   0  0  0  0  0  0  0  0  0  0  0  0
   37.5890   21.5070   32.4470 C   0  0  0  0  0  0  0  0  0  0  0  0
   37.8710   22.0990   33.6210 N   0  0  0  0  0  0  0  0  0  0  0  0
   37.8590   23.4330   33.7720 C   0  0  0  0  0  0  0  0  0  0  0  0
   36.9450   24.5190   30.4140 N   0  0  0  0  0  0  0  0  0  0  0  0
   44.9213   22.3542   34.5663 H   0  0  0  0  0  0  0  0  0  0  0  0
   44.3016   20.1001   35.4905 H   0  0  0  0  0  0  0  0  0  0  0  0
   41.6956   25.1642   34.0965 H   0  0  0  0  0  0  0  0  0  0  0  0
   47.7864   25.4699   36.6386 H   0  0  0  0  0  0  0  0  0  0  0  0
   46.4116   29.2721   34.3283 H   0  0  0  0  0  0  0  0  0  0  0  0
   44.7562   28.9372   33.7537 H   0  0  0  0  0  0  0  0  0  0  0  0
   39.1888   23.1330   39.7836 H   0  0  0  0  0  0  0  0  0  0  0  0
   37.3427   24.6473   39.2256 H   0  0  0  0  0  0  0  0  0  0  0  0
   36.8463   25.1493   36.8111 H   0  0  0  0  0  0  0  0  0  0  0  0
   38.0860   26.3917   35.0796 H   0  0  0  0  0  0  0  0  0  0  0  0
   37.6069   20.4112   32.3529 H   0  0  0  0  0  0  0  0  0  0  0  0
   36.7202   24.1249   29.4893 H   0  0  0  0  0  0  0  0  0  0  0  0
   36.9414   25.5395   30.5536 H   0  0  0  0  0  0  0  0  0  0  0  0
  1  6  1  0
  2  1  2  0
  2  3  1  0
  3  4  2  0
  4  5  1  0
  5 17  1  0
  6  5  2  0
  7 15  1  0
  7  1  1  0
  8  7  1  0
  9  8  2  0
  9 10  1  0
 10 11  2  0
 10 15  1  0
 11 12  1  0
 12 13  2  0
 14 13  1  0
 15 14  2  0
 16 11  1  0
 18 17  1  0
 18 19  2  0
 20 19  1  0
 21 20  2  0
 22 23  2  0
 22 21  1  0
 23 18  1  0
 24 22  1  0
 25 24  1  0
 26 25  2  0
 27 26  1  0
 27 32  2  0
 28 27  1  0
 29 28  2  0
 29 30  1  0
 30 31  2  0
 31 32  1  0
 32 24  1  0
 33 28  1  0
  2 34  1  0
  3 35  1  0
  8 36  1  0
 13 37  1  0
 16 38  1  0
 16 39  1  0
 19 40  1  0
 20 41  1  0
 21 42  1  0
 25 43  1  0
 30 44  1  0
 33 45  1  0
 33 46  1  0
M  END
>  <minimizedAffinity>  (1) 
-7.39090776

>  <minimizedRMSD>  (1) 
3.01934075

$$$$
