
     RDKit          3D

 33 36  0  0  0  0  0  0  0  0999 V2000
   39.9010   22.6840   37.5090 C   0  0  0  0  0  0  0  0  0  0  0  0
   39.1950   23.3590   38.5290 C   0  0  0  0  0  0  0  0  0  0  0  0
   37.8060   23.5030   38.3630 C   0  0  0  0  0  0  0  0  0  0  0  0
   37.2150   22.9950   37.2460 N   0  0  0  0  0  0  0  0  0  0  0  0
   37.9330   22.3520   36.2900 C   0  0  0  0  0  0  0  0  0  0  0  0
   39.2570   22.2060   36.4310 N   0  0  0  0  0  0  0  0  0  0  0  0
   37.3380   21.8160   35.1200 N   0  0  0  0  0  0  0  0  0  0  0  0
   38.0140   22.0040   33.9510 C   0  0  0  0  0  0  0  0  0  0  0  0
   37.4570   21.4890   32.7910 C   0  0  0  0  0  0  0  0  0  0  0  0
   36.2450   20.8130   32.8840 C   0  0  0  0  0  0  0  0  0  0  0  0
   35.7360   20.3430   31.8200 O   0  0  0  0  0  0  0  0  0  0  0  0
   35.6140   20.6540   34.0730 N   0  0  0  0  0  0  0  0  0  0  0  0
   36.1780   21.1640   35.1850 C   0  0  0  0  0  0  0  0  0  0  0  0
   35.6510   21.0550   36.3170 O   0  0  0  0  0  0  0  0  0  0  0  0
   38.0670   21.6210   31.5100 N   0  0  0  0  0  0  0  0  0  0  0  0
   38.4770   20.6490   30.6480 C   0  0  0  0  0  0  0  0  0  0  0  0
   38.9990   21.2380   29.5520 N   0  0  0  0  0  0  0  0  0  0  0  0
   38.9190   22.5710   29.7200 C   0  0  0  0  0  0  0  0  0  0  0  0
   39.2680   23.6870   28.9880 C   0  0  0  0  0  0  0  0  0  0  0  0
   39.0610   24.9480   29.4230 N   0  0  0  0  0  0  0  0  0  0  0  0
   38.4820   25.1530   30.6430 C   0  0  0  0  0  0  0  0  0  0  0  0
   38.1350   24.0740   31.3700 N   0  0  0  0  0  0  0  0  0  0  0  0
   38.3370   22.8300   30.9430 C   0  0  0  0  0  0  0  0  0  0  0  0
   39.8720   23.5190   27.7180 N   0  0  0  0  0  0  0  0  0  0  0  0
   40.9890   22.5482   37.5980 H   0  0  0  0  0  0  0  0  0  0  0  0
   39.7101   23.7556   39.4163 H   0  0  0  0  0  0  0  0  0  0  0  0
   37.2045   24.0194   39.1256 H   0  0  0  0  0  0  0  0  0  0  0  0
   38.9705   22.5468   33.9292 H   0  0  0  0  0  0  0  0  0  0  0  0
   34.7168   20.1508   34.1255 H   0  0  0  0  0  0  0  0  0  0  0  0
   38.3960   19.5651   30.8172 H   0  0  0  0  0  0  0  0  0  0  0  0
   38.3042   26.1706   31.0209 H   0  0  0  0  0  0  0  0  0  0  0  0
   40.0463   22.5722   27.3518 H   0  0  0  0  0  0  0  0  0  0  0  0
   40.1370   24.3436   27.1606 H   0  0  0  0  0  0  0  0  0  0  0  0
  1  2  2  0
  3  2  1  0
  4  3  2  0
  5  6  2  0
  5  4  1  0
  6  1  1  0
  7 13  1  0
  7  5  1  0
  8  7  1  0
  9 10  1  0
  9  8  2  0
 10 12  1  0
 11 10  2  0
 12 13  1  0
 13 14  2  0
 15  9  1  0
 16 15  1  0
 17 18  1  0
 17 16  2  0
 18 23  2  0
 19 20  2  0
 19 18  1  0
 20 21  1  0
 21 22  2  0
 23 22  1  0
 23 15  1  0
 24 19  1  0
  1 25  1  0
  2 26  1  0
  3 27  1  0
  8 28  1  0
 12 29  1  0
 16 30  1  0
 21 31  1  0
 24 32  1  0
 24 33  1  0
M  ISO  7  25  14  26  14  27  14  28  14  29   9  30  14  31  14
M  END
>  <minimizedAffinity>  (1) 
-5.46708584

>  <minimizedRMSD>  (1) 
0.566331148

$$$$
