
     RDKit          3D

 34 38  0  0  0  0  0  0  0  0999 V2000
   37.9790   25.0010   34.2980 C   0  0  0  0  0  0  0  0  0  0  0  0
   38.5240   25.2880   35.5510 C   0  0  0  0  0  0  0  0  0  0  0  0
   38.6500   26.6120   35.9340 C   0  0  0  0  0  0  0  0  0  0  0  0
   38.2430   27.5920   35.0850 N   0  0  0  0  0  0  0  0  0  0  0  0
   37.7130   27.2770   33.8610 C   0  0  0  0  0  0  0  0  0  0  0  0
   37.5870   26.0100   33.4850 N   0  0  0  0  0  0  0  0  0  0  0  0
   37.8190   23.6630   33.8390 N   0  0  0  0  0  0  0  0  0  0  0  0
   38.3270   22.4750   34.2140 C   0  0  0  0  0  0  0  0  0  0  0  0
   37.8360   21.4980   33.4280 N   0  0  0  0  0  0  0  0  0  0  0  0
   37.0000   22.0330   32.5260 C   0  0  0  0  0  0  0  0  0  0  0  0
   36.2550   21.4620   31.5140 C   0  0  0  0  0  0  0  0  0  0  0  0
   35.5000   22.2900   30.7690 N   0  0  0  0  0  0  0  0  0  0  0  0
   35.4660   23.6230   30.9920 C   0  0  0  0  0  0  0  0  0  0  0  0
   36.2030   24.1590   31.9890 N   0  0  0  0  0  0  0  0  0  0  0  0
   36.9940   23.3850   32.7890 C   0  0  0  0  0  0  0  0  0  0  0  0
   38.9360   24.2500   36.4050 N   0  0  0  0  0  0  0  0  0  0  0  0
   38.2240   23.7080   37.3950 C   0  0  0  0  0  0  0  0  0  0  0  0
   38.9230   22.7320   38.0160 N   0  0  0  0  0  0  0  0  0  0  0  0
   40.1050   22.6520   37.4070 C   0  0  0  0  0  0  0  0  0  0  0  0
   41.2130   21.8670   37.5860 C   0  0  0  0  0  0  0  0  0  0  0  0
   42.3300   21.9640   36.8290 N   0  0  0  0  0  0  0  0  0  0  0  0
   42.3000   22.9100   35.8480 C   0  0  0  0  0  0  0  0  0  0  0  0
   41.2210   23.6700   35.6780 N   0  0  0  0  0  0  0  0  0  0  0  0
   40.1020   23.6070   36.4000 C   0  0  0  0  0  0  0  0  0  0  0  0
   36.3100   20.0430   31.2960 N   0  0  0  0  0  0  0  0  0  0  0  0
   39.0752   26.8684   36.9155 H   0  0  0  0  0  0  0  0  0  0  0  0
   37.3891   28.0812   33.1840 H   0  0  0  0  0  0  0  0  0  0  0  0
   39.0378   22.3242   35.0399 H   0  0  0  0  0  0  0  0  0  0  0  0
   34.8386   24.2706   30.3620 H   0  0  0  0  0  0  0  0  0  0  0  0
   37.2038   24.0148   37.6692 H   0  0  0  0  0  0  0  0  0  0  0  0
   41.1935   21.1162   38.3897 H   0  0  0  0  0  0  0  0  0  0  0  0
   43.1731   23.0460   35.1929 H   0  0  0  0  0  0  0  0  0  0  0  0
   35.7544   19.6160   30.5411 H   0  0  0  0  0  0  0  0  0  0  0  0
   36.9050   19.4527   31.8946 H   0  0  0  0  0  0  0  0  0  0  0  0
  1  2  1  0
  2  3  2  0
  2 16  1  0
  4  3  1  0
  5  4  2  0
  6  5  1  0
  6  1  2  0
  7  8  1  0
  7  1  1  0
  9  8  2  0
 10 15  2  0
 10  9  1  0
 11 10  1  0
 12 13  1  0
 12 11  2  0
 13 14  2  0
 14 15  1  0
 15  7  1  0
 16 17  1  0
 17 18  2  0
 19 20  2  0
 19 18  1  0
 21 20  1  0
 22 21  2  0
 23 22  1  0
 23 24  2  0
 24 16  1  0
 24 19  1  0
 25 11  1  0
  3 26  1  0
  5 27  1  0
  8 28  1  0
 13 29  1  0
 17 30  1  0
 20 31  1  0
 22 32  1  0
 25 33  1  0
 25 34  1  0
M  ISO  7  26  14  27  14  28  14  29  14  30  14  31  14  32  14
M  END
>  <minimizedAffinity>  (1) 
-5.67598963

>  <minimizedRMSD>  (1) 
0.492980272

$$$$
