
     RDKit          3D

 48 52  0  0  0  0  0  0  0  0999 V2000
   36.4370   26.1640   31.7870 C   0  0  0  0  0  0  0  0  0  0  0  0
   35.4930   26.7040   31.1520 O   0  0  0  0  0  0  0  0  0  0  0  0
   38.6840   23.6660   30.3270 C   0  0  0  0  0  0  0  0  0  0  0  0
   38.1310   24.8950   30.6900 C   0  0  0  0  0  0  0  0  0  0  0  0
   36.9270   24.8650   31.4580 C   0  0  0  0  0  0  0  0  0  0  0  0
   36.4150   23.6760   31.7740 N   0  0  0  0  0  0  0  0  0  0  0  0
   36.9720   22.5010   31.4070 C   0  0  0  0  0  0  0  0  0  0  0  0
   38.1040   22.4990   30.6850 N   0  0  0  0  0  0  0  0  0  0  0  0
   36.2400   21.3650   31.8610 N   0  0  0  0  0  0  0  0  0  0  0  0
   35.0010   21.4240   32.4320 C   0  0  0  0  0  0  0  0  0  0  0  0
   34.6580   20.1480   32.7190 N   0  0  0  0  0  0  0  0  0  0  0  0
   35.6470   19.3240   32.3410 C   0  0  0  0  0  0  0  0  0  0  0  0
   35.8340   17.9610   32.3910 C   0  0  0  0  0  0  0  0  0  0  0  0
   36.9670   17.4040   31.9190 N   0  0  0  0  0  0  0  0  0  0  0  0
   37.9620   18.1640   31.3800 C   0  0  0  0  0  0  0  0  0  0  0  0
   37.7690   19.4940   31.3360 N   0  0  0  0  0  0  0  0  0  0  0  0
   36.6670   20.0910   31.7900 C   0  0  0  0  0  0  0  0  0  0  0  0
   38.9030   26.0820   30.1940 C   0  0  0  0  0  0  0  0  0  0  0  0
   38.0270   27.1620   29.9390 F   0  0  0  0  0  0  0  0  0  0  0  0
   39.6870   26.4230   31.2480 F   0  0  0  0  0  0  0  0  0  0  0  0
   39.6800   25.8100   29.1150 F   0  0  0  0  0  0  0  0  0  0  0  0
   34.8190   17.1030   32.9490 N   0  0  0  0  0  0  0  0  0  0  0  0
   36.8380   27.0910   32.8020 O   0  0  0  0  0  0  0  0  0  0  0  0
   37.5880   26.6920   33.8680 C   0  0  0  0  0  0  0  0  0  0  0  0
   38.8020   27.3360   33.9820 C   0  0  0  0  0  0  0  0  0  0  0  0
   39.6620   27.0590   34.9930 C   0  0  0  0  0  0  0  0  0  0  0  0
   39.2660   26.0890   35.9210 C   0  0  0  0  0  0  0  0  0  0  0  0
   38.0480   25.4350   35.8110 C   0  0  0  0  0  0  0  0  0  0  0  0
   37.2500   25.7700   34.7780 N   0  0  0  0  0  0  0  0  0  0  0  0
   37.6050   24.3740   36.7560 C   0  0  0  0  0  0  0  0  0  0  0  0
   38.7320   23.4010   36.9200 C   0  0  0  0  0  0  0  0  0  0  0  0
   39.4750   22.6180   36.0460 C   0  0  0  0  0  0  0  0  0  0  0  0
   40.3880   21.9060   36.7730 C   0  0  0  0  0  0  0  0  0  0  0  0
   40.2040   22.2480   38.0670 N   0  0  0  0  0  0  0  0  0  0  0  0
   39.2300   23.1270   38.1360 N   0  0  0  0  0  0  0  0  0  0  0  0
   39.6120   23.6468   29.7367 H   0  0  0  0  0  0  0  0  0  0  0  0
   34.4026   22.3275   32.6205 H   0  0  0  0  0  0  0  0  0  0  0  0
   38.8862   17.7074   30.9962 H   0  0  0  0  0  0  0  0  0  0  0  0
   34.9672   16.0843   32.9825 H   0  0  0  0  0  0  0  0  0  0  0  0
   33.9455   17.5086   33.3143 H   0  0  0  0  0  0  0  0  0  0  0  0
   39.0796   28.0933   33.2341 H   0  0  0  0  0  0  0  0  0  0  0  0
   40.6297   27.5747   35.0801 H   0  0  0  0  0  0  0  0  0  0  0  0
   39.9363   25.8396   36.7568 H   0  0  0  0  0  0  0  0  0  0  0  0
   37.3536   24.8217   37.7288 H   0  0  0  0  0  0  0  0  0  0  0  0
   36.7124   23.8630   36.3660 H   0  0  0  0  0  0  0  0  0  0  0  0
   39.3500   22.5776   34.9539 H   0  0  0  0  0  0  0  0  0  0  0  0
   41.1284   21.1933   36.3807 H   0  0  0  0  0  0  0  0  0  0  0  0
   40.7387   21.8805   38.8669 H   0  0  0  0  0  0  0  0  0  0  0  0
  1 23  1  0
  2  1  2  0
  3  8  2  0
  3  4  1  0
  4  5  2  0
  5  6  1  0
  5  1  1  0
  7  6  2  0
  7  9  1  0
  8  7  1  0
  9 10  1  0
 10 11  2  0
 12 13  2  0
 12 11  1  0
 13 22  1  0
 14 13  1  0
 15 14  2  0
 16 15  1  0
 16 17  2  0
 17  9  1  0
 17 12  1  0
 18  4  1  0
 18 20  1  0
 19 18  1  0
 21 18  1  0
 23 24  1  0
 24 25  2  0
 24 29  1  0
 25 26  1  0
 26 27  2  0
 28 27  1  0
 28 30  1  0
 29 28  2  0
 30 31  1  0
 31 35  2  0
 32 33  2  0
 32 31  1  0
 33 34  1  0
 34 35  1  0
  3 36  1  0
 10 37  1  0
 15 38  1  0
 22 39  1  0
 22 40  1  0
 25 41  1  0
 26 42  1  0
 27 43  1  0
 30 44  1  0
 30 45  1  0
 32 46  1  0
 33 47  1  0
 34 48  1  0
M  END
>  <minimizedAffinity>  (1) 
-7.04488182

>  <minimizedRMSD>  (1) 
4.11730909

$$$$
