
     RDKit          3D

 36 38  0  0  1  0  0  0  0  0999 V2000
   38.6690   27.2320   35.1790 C   0  0  0  0  0  0  0  0  0  0  0  0
   39.4480   25.8980   35.1190 C   0  0  2  0  0  0  0  0  0  0  0  0
   39.3420   25.1520   33.8540 C   0  0  0  0  0  0  0  0  0  0  0  0
   38.8220   24.6190   35.1520 C   0  0  1  0  0  0  0  0  0  0  0  0
   39.5960   23.6500   35.9510 N   0  0  0  0  0  0  0  0  0  0  0  0
   40.8140   23.2150   35.5380 C   0  0  0  0  0  0  0  0  0  0  0  0
   41.5760   22.3100   36.2430 C   0  0  0  0  0  0  0  0  0  0  0  0
   41.0990   21.8060   37.4330 C   0  0  0  0  0  0  0  0  0  0  0  0
   41.8470   20.9900   38.0140 O   0  0  0  0  0  0  0  0  0  0  0  0
   39.8970   22.2520   37.8120 N   0  0  0  0  0  0  0  0  0  0  0  0
   39.1980   23.1310   37.0920 C   0  0  0  0  0  0  0  0  0  0  0  0
   38.1100   23.4400   37.5800 O   0  0  0  0  0  0  0  0  0  0  0  0
   37.2740   26.9540   34.9060 C   0  0  0  0  0  0  0  0  0  0  0  0
   35.5150   29.0030   32.5570 C   0  0  0  0  0  0  0  0  0  0  0  0
   36.2360   27.8640   33.0280 C   0  0  0  0  0  0  0  0  0  0  0  0
   36.5820   28.0280   34.3040 C   0  0  0  0  0  0  0  0  0  0  0  0
   36.2620   29.1660   35.0370 N   0  0  0  0  0  0  0  0  0  0  0  0
   35.5890   30.1820   34.5330 C   0  0  0  0  0  0  0  0  0  0  0  0
   35.2120   30.1000   33.2810 N   0  0  0  0  0  0  0  0  0  0  0  0
   36.4150   26.8360   32.0690 C   0  0  0  0  0  0  0  0  0  0  0  0
   37.7590   26.7520   31.6240 F   0  0  0  0  0  0  0  0  0  0  0  0
   35.9940   26.9530   30.7990 F   0  0  0  0  0  0  0  0  0  0  0  0
   36.4570   25.5100   32.5170 F   0  0  0  0  0  0  0  0  0  0  0  0
   38.7710   27.6781   36.1793 H   0  0  0  0  0  0  0  0  0  0  0  0
   39.0680   27.9388   34.4365 H   0  0  0  0  0  0  0  0  0  0  0  0
   40.2458   26.3236   35.7454 H   0  0  0  0  0  0  0  0  0  0  0  0
   38.6464   25.4827   33.0687 H   0  0  0  0  0  0  0  0  0  0  0  0
   40.0390   24.8057   33.0766 H   0  0  0  0  0  0  0  0  0  0  0  0
   37.8490   24.1759   35.4109 H   0  0  0  0  0  0  0  0  0  0  0  0
   41.2132   23.6060   34.5905 H   0  0  0  0  0  0  0  0  0  0  0  0
   42.5568   21.9924   35.8593 H   0  0  0  0  0  0  0  0  0  0  0  0
   39.4951   21.9035   38.6940 H   0  0  0  0  0  0  0  0  0  0  0  0
   37.2195   26.0862   34.2322 H   0  0  0  0  0  0  0  0  0  0  0  0
   36.7905   26.7675   35.8763 H   0  0  0  0  0  0  0  0  0  0  0  0
   35.1765   28.9841   31.5105 H   0  0  0  0  0  0  0  0  0  0  0  0
   35.3526   31.0669   35.1422 H   0  0  0  0  0  0  0  0  0  0  0  0
  2  4  1  0
  2  1  1  0
  3  2  1  0
  3  4  1  0
  4  5  1  0
  5 11  1  0
  6  5  1  0
  6  7  2  0
  7  8  1  0
  8 10  1  0
  8  9  2  0
 11 12  2  0
 11 10  1  0
 13  1  1  0
 14 15  2  0
 14 19  1  0
 15 16  1  0
 16 13  1  0
 16 17  2  0
 18 17  1  0
 19 18  2  0
 20 23  1  0
 20 15  1  0
 21 20  1  0
 22 20  1  0
  1 24  1  0
  1 25  1  0
  2 26  1  1
  3 27  1  0
  3 28  1  0
  4 29  1  6
  6 30  1  0
  7 31  1  0
 10 32  1  0
 13 33  1  0
 13 34  1  0
 14 35  1  0
 18 36  1  0
M  ISO  8  24   8  25   8  26  13  27  13  28  13  29  13  30  14  31  14
M  ISO  5  32   9  33   8  34   8  35  14  36  14
M  END
>  <minimizedAffinity>  (1) 
-5.37336206

>  <minimizedRMSD>  (1) 
7.00435019

$$$$
