
     RDKit          3D

 41 43  0  0  0  0  0  0  0  0999 V2000
   39.6320   23.2120   35.7850 C   0  0  0  0  0  0  0  0  0  0  0  0
   40.8800   23.7800   35.9850 C   0  0  0  0  0  0  0  0  0  0  0  0
   41.9380   23.3430   35.2310 C   0  0  0  0  0  0  0  0  0  0  0  0
   41.7320   22.3720   34.3170 N   0  0  0  0  0  0  0  0  0  0  0  0
   40.5220   21.8320   34.1340 C   0  0  0  0  0  0  0  0  0  0  0  0
   39.4690   22.2300   34.8470 N   0  0  0  0  0  0  0  0  0  0  0  0
   43.2830   23.8060   35.2960 N   0  0  0  0  0  0  0  0  0  0  0  0
   44.3310   23.2860   36.1430 C   0  0  0  0  0  0  0  0  0  0  0  0
   44.8160   24.3650   37.0760 C   0  0  0  0  0  0  0  0  0  0  0  0
   44.3520   25.6250   36.6540 O   0  0  0  0  0  0  0  0  0  0  0  0
   44.6860   25.8120   35.3080 C   0  0  0  0  0  0  0  0  0  0  0  0
   43.7930   24.9140   34.4800 C   0  0  0  0  0  0  0  0  0  0  0  0
   38.5570   23.7040   36.6000 C   0  0  0  0  0  0  0  0  0  0  0  0
   38.2160   23.2110   37.7140 O   0  0  0  0  0  0  0  0  0  0  0  0
   37.8760   24.8800   35.9780 C   0  0  0  0  0  0  0  0  0  0  0  0
   38.3000   26.1830   36.5770 C   0  0  0  0  0  0  0  0  0  0  0  0
   38.8690   27.1840   35.6410 C   0  0  0  0  0  0  0  0  0  0  0  0
   38.2240   27.2930   34.3030 C   0  0  0  0  0  0  0  0  0  0  0  0
   37.3380   26.1170   33.9820 C   0  0  0  0  0  0  0  0  0  0  0  0
   38.0660   24.8770   34.4620 C   0  0  0  0  0  0  0  0  0  0  0  0
   41.0196   24.5699   36.7377 H   0  0  0  0  0  0  0  0  0  0  0  0
   40.3935   21.0426   33.3788 H   0  0  0  0  0  0  0  0  0  0  0  0
   43.9402   22.4429   36.7316 H   0  0  0  0  0  0  0  0  0  0  0  0
   45.1682   22.9444   35.5166 H   0  0  0  0  0  0  0  0  0  0  0  0
   44.4415   24.1621   38.0902 H   0  0  0  0  0  0  0  0  0  0  0  0
   45.9160   24.3709   37.0728 H   0  0  0  0  0  0  0  0  0  0  0  0
   44.5253   26.8628   35.0252 H   0  0  0  0  0  0  0  0  0  0  0  0
   45.7440   25.5644   35.1370 H   0  0  0  0  0  0  0  0  0  0  0  0
   44.3702   24.5071   33.6366 H   0  0  0  0  0  0  0  0  0  0  0  0
   42.9423   25.5031   34.1069 H   0  0  0  0  0  0  0  0  0  0  0  0
   36.8027   24.7775   36.1961 H   0  0  0  0  0  0  0  0  0  0  0  0
   37.4181   26.6346   37.0549 H   0  0  0  0  0  0  0  0  0  0  0  0
   39.1162   25.9343   37.2712 H   0  0  0  0  0  0  0  0  0  0  0  0
   38.8004   28.1694   36.1251 H   0  0  0  0  0  0  0  0  0  0  0  0
   39.8944   26.8405   35.4398 H   0  0  0  0  0  0  0  0  0  0  0  0
   37.6143   28.2083   34.2807 H   0  0  0  0  0  0  0  0  0  0  0  0
   39.0261   27.3173   33.5507 H   0  0  0  0  0  0  0  0  0  0  0  0
   36.3741   26.2157   34.5027 H   0  0  0  0  0  0  0  0  0  0  0  0
   37.1316   26.0609   32.9030 H   0  0  0  0  0  0  0  0  0  0  0  0
   37.6261   23.9721   34.0174 H   0  0  0  0  0  0  0  0  0  0  0  0
   39.1279   24.8798   34.1750 H   0  0  0  0  0  0  0  0  0  0  0  0
  1  2  2  0
  1 13  1  0
  3  7  1  0
  3  2  1  0
  4  3  2  0
  5  4  1  0
  5  6  2  0
  6  1  1  0
  7  8  1  0
  8  9  1  0
 10  9  1  0
 11 10  1  0
 12  7  1  0
 12 11  1  0
 13 14  2  0
 15 16  1  0
 15 13  1  0
 17 16  1  0
 18 17  1  0
 19 18  1  0
 19 20  1  0
 20 15  1  0
  2 21  1  0
  5 22  1  0
  8 23  1  0
  8 24  1  0
  9 25  1  0
  9 26  1  0
 11 27  1  0
 11 28  1  0
 12 29  1  0
 12 30  1  0
 15 31  1  0
 16 32  1  0
 16 33  1  0
 17 34  1  0
 17 35  1  0
 18 36  1  0
 18 37  1  0
 19 38  1  0
 19 39  1  0
 20 40  1  0
 20 41  1  0
M  ISO  8  21  14  22  14  23  13  24  13  25  13  26  13  27  13  28  13
M  ISO  8  29  13  30  13  31  13  32  13  33  13  34  13  35  13  36  13
M  ISO  5  37  13  38  13  39  13  40  13  41  13
M  END
>  <minimizedAffinity>  (1) 
-4.57429266

>  <minimizedRMSD>  (1) 
5.67077255

$$$$
