
     RDKit          3D

 33 35  0  0  1  0  0  0  0  0999 V2000
   38.6730   25.7940   34.2690 N   0  0  0  0  0  0  0  0  0  0  0  0
   38.3270   27.1070   33.8330 C   0  0  0  0  0  0  0  0  0  0  0  0
   38.8190   27.2070   32.4160 C   0  0  0  0  0  0  0  0  0  0  0  0
   39.3620   25.8280   32.0980 C   0  0  0  0  0  0  0  0  0  0  0  0
   38.5130   24.9920   33.0650 C   0  0  2  0  0  0  0  0  0  0  0  0
   37.7920   25.2400   35.2490 C   0  0  0  0  0  0  0  0  0  0  0  0
   40.3160   22.9310   36.8770 C   0  0  0  0  0  0  0  0  0  0  0  0
   39.6830   23.7250   35.9170 C   0  0  0  0  0  0  0  0  0  0  0  0
   38.4950   24.3850   36.2480 C   0  0  0  0  0  0  0  0  0  0  0  0
   38.0190   24.2110   37.5130 N   0  0  0  0  0  0  0  0  0  0  0  0
   38.6500   23.4400   38.4190 C   0  0  0  0  0  0  0  0  0  0  0  0
   39.7830   22.8130   38.0940 N   0  0  0  0  0  0  0  0  0  0  0  0
   37.2040   24.8980   32.6600 O   0  0  0  0  0  0  0  0  0  0  0  0
   36.6660   23.7020   32.2050 C   0  0  0  0  0  0  0  0  0  0  0  0
   35.7690   23.6130   31.1710 C   0  0  0  0  0  0  0  0  0  0  0  0
   35.4810   22.3160   31.0230 N   0  0  0  0  0  0  0  0  0  0  0  0
   36.1890   21.6410   31.9460 C   0  0  0  0  0  0  0  0  0  0  0  0
   36.9430   22.4750   32.7040 N   0  0  0  0  0  0  0  0  0  0  0  0
   37.2369   27.2493   33.8716 H   0  0  0  0  0  0  0  0  0  0  0  0
   38.7759   27.8797   34.4745 H   0  0  0  0  0  0  0  0  0  0  0  0
   37.9935   27.4649   31.7362 H   0  0  0  0  0  0  0  0  0  0  0  0
   39.5802   27.9918   32.2945 H   0  0  0  0  0  0  0  0  0  0  0  0
   39.1839   25.5487   31.0491 H   0  0  0  0  0  0  0  0  0  0  0  0
   40.4501   25.7154   32.2132 H   0  0  0  0  0  0  0  0  0  0  0  0
   38.8105   23.9378   33.1654 H   0  0  0  0  0  0  0  0  0  0  0  0
   37.2963   26.0653   35.7811 H   0  0  0  0  0  0  0  0  0  0  0  0
   37.0705   24.6009   34.7189 H   0  0  0  0  0  0  0  0  0  0  0  0
   41.2502   22.4054   36.6300 H   0  0  0  0  0  0  0  0  0  0  0  0
   40.1148   23.8300   34.9108 H   0  0  0  0  0  0  0  0  0  0  0  0
   38.2308   23.3265   39.4296 H   0  0  0  0  0  0  0  0  0  0  0  0
   35.3650   24.4471   30.5785 H   0  0  0  0  0  0  0  0  0  0  0  0
   36.1600   20.5485   32.0705 H   0  0  0  0  0  0  0  0  0  0  0  0
   37.5776   22.2317   33.4779 H   0  0  0  0  0  0  0  0  0  0  0  0
  1  6  1  0
  2  1  1  0
  3  2  1  0
  4  3  1  0
  4  5  1  0
  5  1  1  0
  6  9  1  0
  7 12  2  0
  8  9  2  0
  8  7  1  0
  9 10  1  0
 10 11  2  0
 12 11  1  0
 13  5  1  0
 14 13  1  0
 14 18  1  0
 15 14  2  0
 16 15  1  0
 16 17  2  0
 17 18  1  0
  2 19  1  0
  2 20  1  0
  3 21  1  0
  3 22  1  0
  4 23  1  0
  4 24  1  0
  5 25  1  1
  6 26  1  0
  6 27  1  0
  7 28  1  0
  8 29  1  0
 11 30  1  0
 15 31  1  0
 17 32  1  0
 18 33  1  0
M  ISO  8  19  13  20  13  21  13  22  13  23  13  24  13  25  13  26   8
M  ISO  7  27   8  28  14  29  14  30  14  31  14  32  14  33   9
M  END
>  <minimizedAffinity>  (1) 
-4.06996679

>  <minimizedRMSD>  (1) 
4.67560911

$$$$
