
     RDKit          3D

 43 46  0  0  1  0  0  0  0  0999 V2000
   38.2550   23.0970   33.6930 N   0  0  0  0  0  0  0  0  0  0  0  0
   39.1480   22.5800   32.6800 C   0  0  0  0  0  0  0  0  0  0  0  0
   38.2680   22.0820   31.5850 C   0  0  0  0  0  0  0  0  0  0  0  0
   36.8650   22.3920   32.0650 C   0  0  0  0  0  0  0  0  0  0  0  0
   37.1660   23.6400   32.9430 C   0  0  2  0  0  0  0  0  0  0  0  0
   38.8470   24.1770   34.4300 C   0  0  0  0  0  0  0  0  0  0  0  0
   37.9180   24.2000   38.1050 C   0  0  0  0  0  0  0  0  0  0  0  0
   37.8710   24.4990   36.7440 C   0  0  0  0  0  0  0  0  0  0  0  0
   38.8380   23.9070   35.9040 C   0  0  0  0  0  0  0  0  0  0  0  0
   39.7580   23.0790   36.4810 N   0  0  0  0  0  0  0  0  0  0  0  0
   39.7480   22.8310   37.8080 C   0  0  0  0  0  0  0  0  0  0  0  0
   38.8260   23.3970   38.6020 N   0  0  0  0  0  0  0  0  0  0  0  0
   37.5320   24.7230   32.1910 O   0  0  0  0  0  0  0  0  0  0  0  0
   36.5880   25.7210   32.1560 C   0  0  2  0  0  0  0  0  0  0  0  0
   35.6680   25.6910   30.9660 C   0  0  0  0  0  0  0  0  0  0  0  0
   36.6710   26.8000   31.1260 C   0  0  1  0  0  0  0  0  0  0  0  0
   36.0520   28.0820   31.3530 N   0  0  0  0  0  0  0  0  0  0  0  0
   35.2530   28.4660   32.3490 C   0  0  0  0  0  0  0  0  0  0  0  0
   34.7360   29.7420   32.4230 C   0  0  0  0  0  0  0  0  0  0  0  0
   35.0180   30.6950   31.4680 C   0  0  0  0  0  0  0  0  0  0  0  0
   34.5400   31.8560   31.5470 O   0  0  0  0  0  0  0  0  0  0  0  0
   35.8260   30.2830   30.4740 N   0  0  0  0  0  0  0  0  0  0  0  0
   36.3250   29.0360   30.4100 C   0  0  0  0  0  0  0  0  0  0  0  0
   37.0730   28.7790   29.4190 O   0  0  0  0  0  0  0  0  0  0  0  0
   39.8094   23.3766   32.3086 H   0  0  0  0  0  0  0  0  0  0  0  0
   39.7946   21.7832   33.0762 H   0  0  0  0  0  0  0  0  0  0  0  0
   38.4004   20.9997   31.4400 H   0  0  0  0  0  0  0  0  0  0  0  0
   38.4949   22.5510   30.6162 H   0  0  0  0  0  0  0  0  0  0  0  0
   36.1888   22.6303   31.2307 H   0  0  0  0  0  0  0  0  0  0  0  0
   36.3535   21.5670   32.5824 H   0  0  0  0  0  0  0  0  0  0  0  0
   36.3263   24.0327   33.5352 H   0  0  0  0  0  0  0  0  0  0  0  0
   39.8872   24.3087   34.0972 H   0  0  0  0  0  0  0  0  0  0  0  0
   38.2573   25.0864   34.2425 H   0  0  0  0  0  0  0  0  0  0  0  0
   37.1737   24.6498   38.7786 H   0  0  0  0  0  0  0  0  0  0  0  0
   37.1042   25.1751   36.3378 H   0  0  0  0  0  0  0  0  0  0  0  0
   40.5026   22.1588   38.2424 H   0  0  0  0  0  0  0  0  0  0  0  0
   36.4894   25.7390   33.2514 H   0  0  0  0  0  0  0  0  0  0  0  0
   34.5948   25.8957   31.0937 H   0  0  0  0  0  0  0  0  0  0  0  0
   35.4330   24.9588   30.1795 H   0  0  0  0  0  0  0  0  0  0  0  0
   37.5252   27.2230   30.5769 H   0  0  0  0  0  0  0  0  0  0  0  0
   34.9982   27.7417   33.1367 H   0  0  0  0  0  0  0  0  0  0  0  0
   34.0812   30.0064   33.2664 H   0  0  0  0  0  0  0  0  0  0  0  0
   36.0728   30.9515   29.7303 H   0  0  0  0  0  0  0  0  0  0  0  0
  1  6  1  0
  2  1  1  0
  3  4  1  0
  3  2  1  0
  4  5  1  0
  5  1  1  0
  6  9  1  0
  7 12  2  0
  8  7  1  0
  9 10  1  0
  9  8  2  0
 10 11  2  0
 11 12  1  0
 13  5  1  0
 14 13  1  0
 15 16  1  0
 15 14  1  0
 16 17  1  0
 16 14  1  0
 17 18  1  0
 18 19  2  0
 20 21  2  0
 20 19  1  0
 22 20  1  0
 23 22  1  0
 23 17  1  0
 24 23  2  0
  2 25  1  0
  2 26  1  0
  3 27  1  0
  3 28  1  0
  4 29  1  0
  4 30  1  0
  5 31  1  1
  6 32  1  0
  6 33  1  0
  7 34  1  0
  8 35  1  0
 11 36  1  0
 14 37  1  1
 15 38  1  0
 15 39  1  0
 16 40  1  6
 18 41  1  0
 19 42  1  0
 22 43  1  0
M  ISO  8  25  13  26  13  27  13  28  13  29  13  30  13  31  13  32   8
M  ISO  8  33   8  34  14  35  14  36  14  37  13  38  13  39  13  40  13
M  ISO  3  41  14  42  14  43   9
M  END
>  <minimizedAffinity>  (1) 
-5.00107241

>  <minimizedRMSD>  (1) 
6.78652382

$$$$
