
     RDKit          3D

 41 45  0  0  0  0  0  0  0  0999 V2000
   36.5650   28.3140   33.4850 C   0  0  0  0  0  0  0  0  0  0  0  0
   35.7590   29.1130   34.2820 C   0  0  0  0  0  0  0  0  0  0  0  0
   35.1130   30.1290   33.6610 C   0  0  0  0  0  0  0  0  0  0  0  0
   35.2930   30.2970   32.3150 C   0  0  0  0  0  0  0  0  0  0  0  0
   36.4710   28.9250   31.8340 S   0  0  0  0  0  0  0  0  0  0  0  0
   37.0860   26.5390   35.2140 C   0  0  0  0  0  0  0  0  0  0  0  0
   37.3310   27.1810   33.9880 C   0  0  0  0  0  0  0  0  0  0  0  0
   38.3640   26.7430   33.1620 C   0  0  0  0  0  0  0  0  0  0  0  0
   39.0670   25.6880   33.6400 N   0  0  0  0  0  0  0  0  0  0  0  0
   38.8310   25.0730   34.8150 C   0  0  0  0  0  0  0  0  0  0  0  0
   37.8310   25.5190   35.5880 N   0  0  0  0  0  0  0  0  0  0  0  0
   39.6730   23.9340   35.1880 C   0  0  0  0  0  0  0  0  0  0  0  0
   40.4360   23.4260   34.1860 C   0  0  0  0  0  0  0  0  0  0  0  0
   41.3370   22.0020   35.0140 S   0  0  0  0  0  0  0  0  0  0  0  0
   40.4270   22.4210   36.6690 C   0  0  0  0  0  0  0  0  0  0  0  0
   39.8180   23.2970   36.3230 N   0  0  0  0  0  0  0  0  0  0  0  0
   40.6130   21.7010   37.8650 N   0  0  0  0  0  0  0  0  0  0  0  0
   34.8310   31.1930   31.2980 C   0  0  0  0  0  0  0  0  0  0  0  0
   35.5600   32.0410   30.8050 O   0  0  0  0  0  0  0  0  0  0  0  0
   33.4710   31.1150   30.8210 N   0  0  0  0  0  0  0  0  0  0  0  0
   34.0120   31.3240   34.3960 S   0  0  0  0  0  0  0  0  0  0  0  0
   34.4620   35.0600   37.6040 N   0  0  0  0  0  0  0  0  0  0  0  0
   33.3460   34.3430   37.8210 C   0  0  0  0  0  0  0  0  0  0  0  0
   33.3490   33.3600   36.8780 N   0  0  0  0  0  0  0  0  0  0  0  0
   34.4540   33.5100   36.1290 C   0  0  0  0  0  0  0  0  0  0  0  0
   34.8470   32.7270   35.0630 C   0  0  0  0  0  0  0  0  0  0  0  0
   35.9990   33.0630   34.4550 N   0  0  0  0  0  0  0  0  0  0  0  0
   36.7180   34.1350   34.9000 C   0  0  0  0  0  0  0  0  0  0  0  0
   36.3280   34.9060   35.9520 N   0  0  0  0  0  0  0  0  0  0  0  0
   35.1950   34.5900   36.5640 C   0  0  0  0  0  0  0  0  0  0  0  0
   35.6500   28.9314   35.3614 H   0  0  0  0  0  0  0  0  0  0  0  0
   36.2699   26.8892   35.8631 H   0  0  0  0  0  0  0  0  0  0  0  0
   38.5914   27.2173   32.1959 H   0  0  0  0  0  0  0  0  0  0  0  0
   40.5086   23.7663   33.1425 H   0  0  0  0  0  0  0  0  0  0  0  0
   40.0988   21.9729   38.7151 H   0  0  0  0  0  0  0  0  0  0  0  0
   41.2632   20.9025   37.8896 H   0  0  0  0  0  0  0  0  0  0  0  0
   33.1440   31.7620   30.0893 H   0  0  0  0  0  0  0  0  0  0  0  0
   32.8275   30.4124   31.2123 H   0  0  0  0  0  0  0  0  0  0  0  0
   34.7318   35.8790   38.1674 H   0  0  0  0  0  0  0  0  0  0  0  0
   32.5874   34.5145   38.5989 H   0  0  0  0  0  0  0  0  0  0  0  0
   37.6563   34.3875   34.3844 H   0  0  0  0  0  0  0  0  0  0  0  0
  1  7  1  0
  1  2  2  0
  3  2  1  0
  3 21  1  0
  4  3  2  0
  5  4  1  0
  5  1  1  0
  6 11  2  0
  7  6  1  0
  8  9  1  0
  8  7  2  0
  9 10  2  0
 10 12  1  0
 10 11  1  0
 12 16  1  0
 13 14  1  0
 13 12  2  0
 14 15  1  0
 15 17  1  0
 16 15  2  0
 18  4  1  0
 19 18  2  0
 20 18  1  0
 21 26  1  0
 22 23  1  0
 24 23  2  0
 25 30  2  0
 25 24  1  0
 26 25  1  0
 27 28  1  0
 27 26  2  0
 28 29  2  0
 29 30  1  0
 30 22  1  0
  2 31  1  0
  6 32  1  0
  8 33  1  0
 13 34  1  0
 17 35  1  0
 17 36  1  0
 20 37  1  0
 20 38  1  0
 22 39  1  0
 23 40  1  0
 28 41  1  0
M  ISO  7  31  14  32  14  33  14  34  14  39   9  40  14  41  14
M  END
>  <minimizedAffinity>  (1) 
-5.65107155

>  <minimizedRMSD>  (1) 
2.3007772

$$$$
