
     RDKit          3D

 46 49  0  0  0  0  0  0  0  0999 V2000
   36.9670   22.4170   32.9320 C   0  0  0  0  0  0  0  0  0  0  0  0
   36.4010   21.1760   33.2460 C   0  0  0  0  0  0  0  0  0  0  0  0
   35.6790   20.7390   32.1630 C   0  0  0  0  0  0  0  0  0  0  0  0
   35.8480   21.7510   31.2360 C   0  0  0  0  0  0  0  0  0  0  0  0
   36.6140   22.7130   31.7400 O   0  0  0  0  0  0  0  0  0  0  0  0
   37.7870   23.1060   33.9140 C   0  0  0  0  0  0  0  0  0  0  0  0
   38.1180   24.4540   33.8450 C   0  0  0  0  0  0  0  0  0  0  0  0
   38.8970   25.0490   34.8100 C   0  0  0  0  0  0  0  0  0  0  0  0
   39.3200   24.2720   35.8170 N   0  0  0  0  0  0  0  0  0  0  0  0
   39.0020   22.9450   35.8970 C   0  0  0  0  0  0  0  0  0  0  0  0
   38.2410   22.3660   34.9510 N   0  0  0  0  0  0  0  0  0  0  0  0
   39.2600   26.4600   34.7610 C   0  0  0  0  0  0  0  0  0  0  0  0
   38.6650   27.2620   35.8930 C   0  0  0  0  0  0  0  0  0  0  0  0
   38.7920   27.1030   33.4440 C   0  0  0  0  0  0  0  0  0  0  0  0
   40.7790   26.5610   34.7530 C   0  0  0  0  0  0  0  0  0  0  0  0
   34.8930   19.5080   31.9600 C   0  0  0  0  0  0  0  0  0  0  0  0
   35.3580   18.3870   32.9090 C   0  0  0  0  0  0  0  0  0  0  0  0
   35.7660   17.3050   32.0220 N   0  0  0  0  0  0  0  0  0  0  0  0
   36.5240   17.4770   30.9090 C   0  0  0  0  0  0  0  0  0  0  0  0
   36.7360   16.3150   30.3020 N   0  0  0  0  0  0  0  0  0  0  0  0
   36.1160   15.3420   31.0080 C   0  0  0  0  0  0  0  0  0  0  0  0
   35.9820   13.9720   30.8770 C   0  0  0  0  0  0  0  0  0  0  0  0
   35.2600   13.3090   31.8160 N   0  0  0  0  0  0  0  0  0  0  0  0
   34.6880   13.9570   32.8450 C   0  0  0  0  0  0  0  0  0  0  0  0
   34.7940   15.2880   33.0090 N   0  0  0  0  0  0  0  0  0  0  0  0
   35.5100   15.9720   32.0860 C   0  0  0  0  0  0  0  0  0  0  0  0
   36.5154   20.6407   34.2001 H   0  0  0  0  0  0  0  0  0  0  0  0
   35.4112   21.7587   30.2265 H   0  0  0  0  0  0  0  0  0  0  0  0
   37.7497   25.0571   33.0020 H   0  0  0  0  0  0  0  0  0  0  0  0
   39.3715   22.3456   36.7421 H   0  0  0  0  0  0  0  0  0  0  0  0
   38.9839   26.8322   36.8540 H   0  0  0  0  0  0  0  0  0  0  0  0
   39.0101   28.3042   35.8249 H   0  0  0  0  0  0  0  0  0  0  0  0
   37.5675   27.2340   35.8249 H   0  0  0  0  0  0  0  0  0  0  0  0
   38.1580   27.9740   33.6662 H   0  0  0  0  0  0  0  0  0  0  0  0
   39.6678   27.4259   32.8621 H   0  0  0  0  0  0  0  0  0  0  0  0
   38.2155   26.3688   32.8621 H   0  0  0  0  0  0  0  0  0  0  0  0
   41.1503   26.5857   35.7882 H   0  0  0  0  0  0  0  0  0  0  0  0
   41.2017   25.6890   34.2325 H   0  0  0  0  0  0  0  0  0  0  0  0
   41.0825   27.4813   34.2325 H   0  0  0  0  0  0  0  0  0  0  0  0
   33.8318   19.7240   32.1528 H   0  0  0  0  0  0  0  0  0  0  0  0
   35.0379   19.1693   30.9235 H   0  0  0  0  0  0  0  0  0  0  0  0
   36.2043   18.7250   33.5250 H   0  0  0  0  0  0  0  0  0  0  0  0
   34.5690   18.0783   33.6105 H   0  0  0  0  0  0  0  0  0  0  0  0
   36.9096   18.4456   30.5582 H   0  0  0  0  0  0  0  0  0  0  0  0
   36.4467   13.4353   30.0368 H   0  0  0  0  0  0  0  0  0  0  0  0
   34.1114   13.3773   33.5809 H   0  0  0  0  0  0  0  0  0  0  0  0
  1  2  2  0
  1  6  1  0
  3  2  1  0
  4  5  1  0
  4  3  2  0
  5  1  1  0
  6 11  1  0
  7  6  2  0
  7  8  1  0
  8  9  2  0
  9 10  1  0
 11 10  2  0
 12  8  1  0
 12 13  1  0
 14 12  1  0
 15 12  1  0
 16  3  1  0
 16 17  1  0
 18 26  1  0
 18 17  1  0
 19 18  1  0
 20 19  2  0
 20 21  1  0
 21 26  2  0
 22 21  1  0
 22 23  2  0
 23 24  1  0
 24 25  2  0
 26 25  1  0
  2 27  1  0
  4 28  1  0
  7 29  1  0
 10 30  1  0
 13 31  1  0
 13 32  1  0
 13 33  1  0
 14 34  1  0
 14 35  1  0
 14 36  1  0
 15 37  1  0
 15 38  1  0
 15 39  1  0
 16 40  1  0
 16 41  1  0
 17 42  1  0
 17 43  1  0
 19 44  1  0
 22 45  1  0
 24 46  1  0
M  ISO  8  27  14  28  14  29  14  30  14  31   8  32   8  33   8  34   8
M  ISO  8  35   8  36   8  37   8  38   8  39   8  40   8  41   8  42   8
M  ISO  4  43   8  44  14  45  14  46  14
M  END
>  <minimizedAffinity>  (1) 
-5.29003239

>  <minimizedRMSD>  (1) 
1.96051788

$$$$
