
     RDKit          3D

 31 33  0  0  1  0  0  0  0  0999 V2000
   39.8450   22.8100   37.4920 C   0  0  0  0  0  0  0  0  0  0  0  0
   39.0360   23.4200   38.4560 C   0  0  0  0  0  0  0  0  0  0  0  0
   37.6710   23.4510   38.2060 C   0  0  0  0  0  0  0  0  0  0  0  0
   37.1780   22.9000   37.0590 N   0  0  0  0  0  0  0  0  0  0  0  0
   38.0010   22.3180   36.1480 C   0  0  0  0  0  0  0  0  0  0  0  0
   39.3170   22.2880   36.3900 N   0  0  0  0  0  0  0  0  0  0  0  0
   37.4380   21.7600   34.9700 N   0  0  0  0  0  0  0  0  0  0  0  0
   36.2140   20.9820   35.1270 C   0  0  0  0  0  0  0  0  0  0  0  0
   35.5700   20.6350   33.8320 C   0  0  0  0  0  0  0  0  0  0  0  0
   35.7970   21.7080   32.9070 N   0  0  0  0  0  0  0  0  0  0  0  0
   37.2060   21.6540   32.5330 C   0  0  0  0  0  0  0  0  0  0  0  0
   38.0980   21.9900   33.6970 C   0  0  1  0  0  0  0  0  0  0  0  0
   38.7080   23.2760   33.5720 N   0  0  0  0  0  0  0  0  0  0  0  0
   38.0050   24.4410   33.6840 C   0  0  0  0  0  0  0  0  0  0  0  0
   38.8700   25.4940   33.5160 C   0  0  0  0  0  0  0  0  0  0  0  0
   40.0910   24.9670   33.3050 N   0  0  0  0  0  0  0  0  0  0  0  0
   39.9900   23.6110   33.3400 C   0  0  0  0  0  0  0  0  0  0  0  0
   40.9328   22.7617   37.6481 H   0  0  0  0  0  0  0  0  0  0  0  0
   39.4624   23.8558   39.3716 H   0  0  0  0  0  0  0  0  0  0  0  0
   36.9883   23.9186   38.9307 H   0  0  0  0  0  0  0  0  0  0  0  0
   36.4580   20.0495   35.6570 H   0  0  0  0  0  0  0  0  0  0  0  0
   35.5019   21.6032   35.6901 H   0  0  0  0  0  0  0  0  0  0  0  0
   36.0079   19.7063   33.4373 H   0  0  0  0  0  0  0  0  0  0  0  0
   34.4899   20.4855   33.9771 H   0  0  0  0  0  0  0  0  0  0  0  0
   35.2043   21.5882   32.0732 H   0  0  0  0  0  0  0  0  0  0  0  0
   37.4440   20.6392   32.1814 H   0  0  0  0  0  0  0  0  0  0  0  0
   37.3811   22.3944   31.7386 H   0  0  0  0  0  0  0  0  0  0  0  0
   38.9420   21.2849   33.6761 H   0  0  0  0  0  0  0  0  0  0  0  0
   36.9251   24.5225   33.8768 H   0  0  0  0  0  0  0  0  0  0  0  0
   38.6144   26.5634   33.5477 H   0  0  0  0  0  0  0  0  0  0  0  0
   40.8210   22.9038   33.2012 H   0  0  0  0  0  0  0  0  0  0  0  0
  1  2  2  0
  3  2  1  0
  4  3  2  0
  5  6  2  0
  5  4  1  0
  6  1  1  0
  7  8  1  0
  7  5  1  0
  9  8  1  0
 10  9  1  0
 11 10  1  0
 11 12  1  0
 12  7  1  0
 13 14  1  0
 13 12  1  0
 15 14  2  0
 16 17  2  0
 16 15  1  0
 17 13  1  0
  1 18  1  0
  2 19  1  0
  3 20  1  0
  8 21  1  0
  8 22  1  0
  9 23  1  0
  9 24  1  0
 10 25  1  0
 11 26  1  0
 11 27  1  0
 12 28  1  1
 14 29  1  0
 15 30  1  0
 17 31  1  0
M  ISO  8  18  14  19  14  20  14  21  13  22  13  23  13  24  13  25   5
M  ISO  6  26  13  27  13  28  13  29  14  30  14  31  14
M  END
>  <minimizedAffinity>  (1) 
-4.36133957

>  <minimizedRMSD>  (1) 
0.206138924

$$$$
