
     RDKit          3D

 33 35  0  0  1  0  0  0  0  0999 V2000
   38.3680   23.7300   33.6130 C   0  0  1  0  0  0  0  0  0  0  0  0
   36.3910   26.6100   32.1590 C   0  0  0  0  0  0  0  0  0  0  0  0
   37.3110   25.9440   32.9790 C   0  0  0  0  0  0  0  0  0  0  0  0
   37.4280   24.5310   32.7810 C   0  0  0  0  0  0  0  0  0  0  0  0
   36.6570   23.9150   31.8270 N   0  0  0  0  0  0  0  0  0  0  0  0
   35.7930   24.5980   31.0710 C   0  0  0  0  0  0  0  0  0  0  0  0
   35.6600   25.9590   31.2400 N   0  0  0  0  0  0  0  0  0  0  0  0
   38.4420   24.2630   35.0210 C   0  0  0  0  0  0  0  0  0  0  0  0
   38.0190   22.2680   33.6310 C   0  0  0  0  0  0  0  0  0  0  0  0
   37.2500   21.8960   34.7560 N   0  0  0  0  0  0  0  0  0  0  0  0
   37.3290   22.0900   36.0760 C   0  0  0  0  0  0  0  0  0  0  0  0
   36.3180   21.5200   36.8080 C   0  0  0  0  0  0  0  0  0  0  0  0
   35.5490   20.9220   35.8700 N   0  0  0  0  0  0  0  0  0  0  0  0
   36.1100   21.1520   34.6590 C   0  0  0  0  0  0  0  0  0  0  0  0
   35.5280   20.6450   33.4430 N   0  0  0  0  0  0  0  0  0  0  0  0
   34.9310   21.0950   32.3350 C   0  0  0  0  0  0  0  0  0  0  0  0
   34.6170   19.9740   31.5590 C   0  0  0  0  0  0  0  0  0  0  0  0
   35.0320   18.8590   32.2170 N   0  0  0  0  0  0  0  0  0  0  0  0
   35.5880   19.2900   33.3690 C   0  0  0  0  0  0  0  0  0  0  0  0
   39.3574   23.8285   33.1424 H   0  0  0  0  0  0  0  0  0  0  0  0
   36.2639   27.6969   32.2712 H   0  0  0  0  0  0  0  0  0  0  0  0
   37.9097   26.4767   33.7325 H   0  0  0  0  0  0  0  0  0  0  0  0
   35.1889   24.0749   30.3150 H   0  0  0  0  0  0  0  0  0  0  0  0
   38.3268   23.4331   35.7337 H   0  0  0  0  0  0  0  0  0  0  0  0
   39.4162   24.7489   35.1784 H   0  0  0  0  0  0  0  0  0  0  0  0
   37.6370   24.9959   35.1784 H   0  0  0  0  0  0  0  0  0  0  0  0
   37.4457   22.0337   32.7220 H   0  0  0  0  0  0  0  0  0  0  0  0
   38.9633   21.7058   33.6785 H   0  0  0  0  0  0  0  0  0  0  0  0
   38.1440   22.6640   36.5411 H   0  0  0  0  0  0  0  0  0  0  0  0
   36.1687   21.5438   37.8976 H   0  0  0  0  0  0  0  0  0  0  0  0
   34.7258   22.1456   32.0817 H   0  0  0  0  0  0  0  0  0  0  0  0
   34.1173   19.9918   30.5792 H   0  0  0  0  0  0  0  0  0  0  0  0
   36.0269   18.6373   34.1379 H   0  0  0  0  0  0  0  0  0  0  0  0
  1  9  1  0
  1  8  1  0
  2  3  2  0
  4  3  1  0
  4  1  1  0
  5  4  2  0
  6  7  2  0
  6  5  1  0
  7  2  1  0
  9 10  1  0
 10 11  1  0
 11 12  2  0
 13 12  1  0
 14 10  1  0
 14 13  2  0
 15 14  1  0
 16 15  1  0
 17 18  1  0
 17 16  2  0
 18 19  2  0
 19 15  1  0
  1 20  1  6
  2 21  1  0
  3 22  1  0
  6 23  1  0
  8 24  1  0
  8 25  1  0
  8 26  1  0
  9 27  1  0
  9 28  1  0
 11 29  1  0
 12 30  1  0
 16 31  1  0
 17 32  1  0
 19 33  1  0
M  ISO  8  20   8  21  14  22  14  23  14  24   8  25   8  26   8  27   8
M  ISO  6  28   8  29  14  30  14  31  14  32  14  33  14
M  END
>  <minimizedAffinity>  (1) 
-3.96634769

>  <minimizedRMSD>  (1) 
7.40422201

$$$$
