
     RDKit          3D

 40 43  0  0  1  0  0  0  0  0999 V2000
   37.7870   25.2000   34.4210 N   0  0  0  0  0  0  0  0  0  0  0  0
   37.4700   25.3880   33.0210 C   0  0  0  0  0  0  0  0  0  0  0  0
   37.6870   26.8370   32.7500 C   0  0  0  0  0  0  0  0  0  0  0  0
   38.1750   27.3940   34.0770 C   0  0  0  0  0  0  0  0  0  0  0  0
   38.8550   26.1190   34.6490 C   0  0  2  0  0  0  0  0  0  0  0  0
   38.2880   23.8800   34.6790 C   0  0  0  0  0  0  0  0  0  0  0  0
   37.8670   23.8320   38.4460 C   0  0  0  0  0  0  0  0  0  0  0  0
   37.5790   24.0660   37.1030 C   0  0  0  0  0  0  0  0  0  0  0  0
   38.5330   23.6600   36.1400 C   0  0  0  0  0  0  0  0  0  0  0  0
   39.6740   23.0670   36.6000 N   0  0  0  0  0  0  0  0  0  0  0  0
   39.8930   22.8690   37.9110 C   0  0  0  0  0  0  0  0  0  0  0  0
   38.9880   23.2540   38.8160 N   0  0  0  0  0  0  0  0  0  0  0  0
   39.9930   25.7910   33.9640 O   0  0  0  0  0  0  0  0  0  0  0  0
   41.1480   26.2790   34.5220 C   0  0  2  0  0  0  0  0  0  0  0  0
   41.9110   27.2680   33.6970 C   0  0  0  0  0  0  0  0  0  0  0  0
   42.4830   25.9010   33.9520 C   0  0  1  0  0  0  0  0  0  0  0  0
   43.5460   25.7760   34.9230 N   0  0  0  0  0  0  0  0  0  0  0  0
   43.6020   25.0360   36.0270 C   0  0  0  0  0  0  0  0  0  0  0  0
   44.8380   25.2520   36.6370 C   0  0  0  0  0  0  0  0  0  0  0  0
   45.5280   26.1400   35.8750 N   0  0  0  0  0  0  0  0  0  0  0  0
   44.7290   26.4500   34.8340 C   0  0  0  0  0  0  0  0  0  0  0  0
   38.1336   24.7765   32.3919 H   0  0  0  0  0  0  0  0  0  0  0  0
   36.4381   25.0823   32.7936 H   0  0  0  0  0  0  0  0  0  0  0  0
   38.4446   26.9782   31.9651 H   0  0  0  0  0  0  0  0  0  0  0  0
   36.7771   27.3398   32.3904 H   0  0  0  0  0  0  0  0  0  0  0  0
   38.8927   28.2162   33.9390 H   0  0  0  0  0  0  0  0  0  0  0  0
   37.3971   27.8387   34.7151 H   0  0  0  0  0  0  0  0  0  0  0  0
   39.2124   26.1828   35.6873 H   0  0  0  0  0  0  0  0  0  0  0  0
   37.5518   23.1431   34.3254 H   0  0  0  0  0  0  0  0  0  0  0  0
   39.2445   23.7648   34.1482 H   0  0  0  0  0  0  0  0  0  0  0  0
   37.1404   24.1376   39.2133 H   0  0  0  0  0  0  0  0  0  0  0  0
   36.6392   24.5513   36.8007 H   0  0  0  0  0  0  0  0  0  0  0  0
   40.8244   22.3863   38.2419 H   0  0  0  0  0  0  0  0  0  0  0  0
   40.7247   26.2387   35.5365 H   0  0  0  0  0  0  0  0  0  0  0  0
   42.3619   28.1507   34.1741 H   0  0  0  0  0  0  0  0  0  0  0  0
   41.6928   27.8648   32.7991 H   0  0  0  0  0  0  0  0  0  0  0  0
   42.8779   25.1075   33.3005 H   0  0  0  0  0  0  0  0  0  0  0  0
   42.8095   24.3682   36.3958 H   0  0  0  0  0  0  0  0  0  0  0  0
   45.1909   24.7862   37.5689 H   0  0  0  0  0  0  0  0  0  0  0  0
   44.9938   27.1483   34.0263 H   0  0  0  0  0  0  0  0  0  0  0  0
  1  5  1  0
  1  6  1  0
  2  1  1  0
  3  2  1  0
  3  4  1  0
  4  5  1  0
  6  9  1  0
  7 12  2  0
  8  7  1  0
  9 10  1  0
  9  8  2  0
 10 11  2  0
 11 12  1  0
 13 14  1  0
 13  5  1  0
 15 16  1  0
 15 14  1  0
 16 14  1  0
 16 17  1  0
 17 18  1  0
 18 19  2  0
 20 19  1  0
 21 17  1  0
 21 20  2  0
  2 22  1  0
  2 23  1  0
  3 24  1  0
  3 25  1  0
  4 26  1  0
  4 27  1  0
  5 28  1  1
  6 29  1  0
  6 30  1  0
  7 31  1  0
  8 32  1  0
 11 33  1  0
 14 34  1  1
 15 35  1  0
 15 36  1  0
 16 37  1  6
 18 38  1  0
 19 39  1  0
 21 40  1  0
M  ISO  8  22  13  23  13  24  13  25  13  26  13  27  13  28  13  29   8
M  ISO  8  30   8  31  14  32  14  33  14  34  13  35  13  36  13  37  13
M  ISO  3  38  14  39  14  40  14
M  END
>  <minimizedAffinity>  (1) 
-4.50028849

>  <minimizedRMSD>  (1) 
0.992877841

$$$$
