
     RDKit          3D

 27 29  0  0  0  0  0  0  0  0999 V2000
   39.8520   22.7350   37.5100 C   0  0  0  0  0  0  0  0  0  0  0  0
   39.2010   23.5250   38.4830 C   0  0  0  0  0  0  0  0  0  0  0  0
   37.8030   23.6800   38.3420 C   0  0  0  0  0  0  0  0  0  0  0  0
   37.1750   23.0750   37.3020 N   0  0  0  0  0  0  0  0  0  0  0  0
   37.8540   22.3210   36.3850 C   0  0  0  0  0  0  0  0  0  0  0  0
   39.1830   22.1530   36.4900 N   0  0  0  0  0  0  0  0  0  0  0  0
   37.1960   21.6910   35.3000 N   0  0  0  0  0  0  0  0  0  0  0  0
   37.8340   21.7640   34.0900 C   0  0  0  0  0  0  0  0  0  0  0  0
   37.2240   21.1600   33.0060 C   0  0  0  0  0  0  0  0  0  0  0  0
   35.9980   20.5120   33.1980 C   0  0  0  0  0  0  0  0  0  0  0  0
   35.4290   19.9570   32.2190 O   0  0  0  0  0  0  0  0  0  0  0  0
   35.4250   20.4770   34.4130 N   0  0  0  0  0  0  0  0  0  0  0  0
   36.0190   21.0680   35.4810 C   0  0  0  0  0  0  0  0  0  0  0  0
   35.5540   21.0770   36.6300 O   0  0  0  0  0  0  0  0  0  0  0  0
   37.7590   21.1510   31.6920 N   0  0  0  0  0  0  0  0  0  0  0  0
   37.8690   22.3260   31.0480 C   0  0  0  0  0  0  0  0  0  0  0  0
   38.4160   22.0370   29.7930 C   0  0  0  0  0  0  0  0  0  0  0  0
   38.6180   20.6940   29.7220 N   0  0  0  0  0  0  0  0  0  0  0  0
   38.2060   20.1780   30.9010 C   0  0  0  0  0  0  0  0  0  0  0  0
   40.9396   22.5885   37.5848 H   0  0  0  0  0  0  0  0  0  0  0  0
   39.7540   23.9960   39.3090 H   0  0  0  0  0  0  0  0  0  0  0  0
   37.2325   24.2821   39.0645 H   0  0  0  0  0  0  0  0  0  0  0  0
   38.7973   22.2846   33.9845 H   0  0  0  0  0  0  0  0  0  0  0  0
   34.5229   19.9952   34.5356 H   0  0  0  0  0  0  0  0  0  0  0  0
   37.5854   23.3173   31.4314 H   0  0  0  0  0  0  0  0  0  0  0  0
   38.6428   22.7677   29.0027 H   0  0  0  0  0  0  0  0  0  0  0  0
   38.2356   19.1113   31.1678 H   0  0  0  0  0  0  0  0  0  0  0  0
  1  2  2  0
  3  2  1  0
  4  3  2  0
  5  6  2  0
  5  4  1  0
  6  1  1  0
  7 13  1  0
  7  5  1  0
  8  7  1  0
  9 10  1  0
  9  8  2  0
 10 12  1  0
 11 10  2  0
 12 13  1  0
 13 14  2  0
 15  9  1  0
 16 15  1  0
 17 16  2  0
 18 17  1  0
 18 19  2  0
 19 15  1  0
  1 20  1  0
  2 21  1  0
  3 22  1  0
  8 23  1  0
 12 24  1  0
 16 25  1  0
 17 26  1  0
 19 27  1  0
M  ISO  8  20  14  21  14  22  14  23  14  24   9  25  14  26  14  27  14
M  END
>  <minimizedAffinity>  (1) 
-4.80109787

>  <minimizedRMSD>  (1) 
0.312494248

$$$$
