
     RDKit          3D

 53 58  0  0  0  0  0  0  0  0999 V2000
   38.8520   23.6630   36.1370 C   0  0  0  0  0  0  0  0  0  0  0  0
   40.2620   23.8260   36.0790 C   0  0  0  0  0  0  0  0  0  0  0  0
   40.7400   24.8670   35.3260 C   0  0  0  0  0  0  0  0  0  0  0  0
   39.8150   25.6260   34.7180 N   0  0  0  0  0  0  0  0  0  0  0  0
   38.5220   25.4970   34.7520 C   0  0  0  0  0  0  0  0  0  0  0  0
   38.0360   24.4840   35.4860 N   0  0  0  0  0  0  0  0  0  0  0  0
   37.7870   26.4410   34.0220 N   0  0  0  0  0  0  0  0  0  0  0  0
   37.0060   27.3220   34.7010 C   0  0  0  0  0  0  0  0  0  0  0  0
   36.3810   28.1520   33.7980 C   0  0  0  0  0  0  0  0  0  0  0  0
   36.7820   27.7720   32.5970 N   0  0  0  0  0  0  0  0  0  0  0  0
   37.6580   26.7050   32.7200 C   0  0  0  0  0  0  0  0  0  0  0  0
   38.2560   26.0280   31.6180 C   0  0  0  0  0  0  0  0  0  0  0  0
   38.7420   26.7160   30.4870 C   0  0  0  0  0  0  0  0  0  0  0  0
   39.2350   25.8060   29.5850 N   0  0  0  0  0  0  0  0  0  0  0  0
   39.0480   24.5490   30.1680 C   0  0  0  0  0  0  0  0  0  0  0  0
   38.4810   24.7630   31.3440 N   0  0  0  0  0  0  0  0  0  0  0  0
   38.4000   23.4780   31.8920 C   0  0  0  0  0  0  0  0  0  0  0  0
   39.5280   23.1300   32.5200 N   0  0  0  0  0  0  0  0  0  0  0  0
   39.6390   21.8870   33.0580 C   0  0  0  0  0  0  0  0  0  0  0  0
   38.6750   20.9680   33.0010 N   0  0  0  0  0  0  0  0  0  0  0  0
   37.5250   21.2770   32.3810 C   0  0  0  0  0  0  0  0  0  0  0  0
   36.4590   20.4280   32.2480 C   0  0  0  0  0  0  0  0  0  0  0  0
   35.3150   20.7950   31.6010 C   0  0  0  0  0  0  0  0  0  0  0  0
   35.2140   22.0800   31.0520 C   0  0  0  0  0  0  0  0  0  0  0  0
   36.2540   22.9690   31.1580 C   0  0  0  0  0  0  0  0  0  0  0  0
   37.3790   22.5520   31.8160 C   0  0  0  0  0  0  0  0  0  0  0  0
   35.4710   29.2240   34.0460 N   0  0  0  0  0  0  0  0  0  0  0  0
   35.8170   30.1230   35.0020 C   0  0  0  0  0  0  0  0  0  0  0  0
   35.0640   31.2090   35.3680 C   0  0  0  0  0  0  0  0  0  0  0  0
   35.5230   32.1450   36.4310 C   0  0  0  0  0  0  0  0  0  0  0  0
   33.8660   31.3630   34.6840 C   0  0  0  0  0  0  0  0  0  0  0  0
   33.1520   32.3550   35.0000 O   0  0  0  0  0  0  0  0  0  0  0  0
   33.5130   30.4730   33.7300 N   0  0  0  0  0  0  0  0  0  0  0  0
   34.3010   29.4180   33.4120 C   0  0  0  0  0  0  0  0  0  0  0  0
   33.9840   28.5810   32.5260 O   0  0  0  0  0  0  0  0  0  0  0  0
   38.3100   22.5880   36.9330 N   0  0  0  0  0  0  0  0  0  0  0  0
   40.9408   23.1464   36.6151 H   0  0  0  0  0  0  0  0  0  0  0  0
   41.8168   25.0682   35.2261 H   0  0  0  0  0  0  0  0  0  0  0  0
   36.8919   27.3648   35.7942 H   0  0  0  0  0  0  0  0  0  0  0  0
   38.7283   27.8073   30.3495 H   0  0  0  0  0  0  0  0  0  0  0  0
   39.3187   23.5749   29.7346 H   0  0  0  0  0  0  0  0  0  0  0  0
   40.5769   21.6245   33.5692 H   0  0  0  0  0  0  0  0  0  0  0  0
   36.5270   19.4172   32.6766 H   0  0  0  0  0  0  0  0  0  0  0  0
   34.4780   20.0869   31.5111 H   0  0  0  0  0  0  0  0  0  0  0  0
   34.2925   22.3791   30.5311 H   0  0  0  0  0  0  0  0  0  0  0  0
   36.1858   23.9799   30.7297 H   0  0  0  0  0  0  0  0  0  0  0  0
   36.7737   29.9689   35.5226 H   0  0  0  0  0  0  0  0  0  0  0  0
   35.3100   31.7107   37.4189 H   0  0  0  0  0  0  0  0  0  0  0  0
   36.6054   32.3125   36.3297 H   0  0  0  0  0  0  0  0  0  0  0  0
   34.9926   33.1034   36.3297 H   0  0  0  0  0  0  0  0  0  0  0  0
   32.6208   30.6004   33.2313 H   0  0  0  0  0  0  0  0  0  0  0  0
   37.2906   22.4519   36.9889 H   0  0  0  0  0  0  0  0  0  0  0  0
   38.9426   21.9569   37.4452 H   0  0  0  0  0  0  0  0  0  0  0  0
  1 36  1  0
  2  1  2  0
  3  2  1  0
  4  5  1  0
  4  3  2  0
  5  6  2  0
  6  1  1  0
  7  8  1  0
  7  5  1  0
  9 27  1  0
  9  8  2  0
 10 11  2  0
 10  9  1  0
 11  7  1  0
 12 11  1  0
 13 12  2  0
 14 15  2  0
 14 13  1  0
 15 16  1  0
 16 12  1  0
 16 17  1  0
 17 18  2  0
 18 19  1  0
 20 19  2  0
 21 20  1  0
 22 21  2  0
 23 22  1  0
 24 25  1  0
 24 23  2  0
 25 26  2  0
 26 17  1  0
 26 21  1  0
 27 28  1  0
 28 29  2  0
 29 30  1  0
 31 32  2  0
 31 29  1  0
 33 31  1  0
 34 33  1  0
 34 27  1  0
 35 34  2  0
  2 37  1  0
  3 38  1  0
  8 39  1  0
 13 40  1  0
 15 41  1  0
 19 42  1  0
 22 43  1  0
 23 44  1  0
 24 45  1  0
 25 46  1  0
 28 47  1  0
 30 48  1  0
 30 49  1  0
 30 50  1  0
 33 51  1  0
 36 52  1  0
 36 53  1  0
M  END
>  <minimizedAffinity>  (1) 
-7.46258879

>  <minimizedRMSD>  (1) 
0.885485411

$$$$
