
     RDKit          3D

 49 52  0  0  0  0  0  0  0  0999 V2000
   37.1650   26.7490   34.5410 C   0  0  0  0  0  0  0  0  0  0  0  0
   37.2520   25.9160   33.4360 C   0  0  0  0  0  0  0  0  0  0  0  0
   36.6210   26.3250   32.2470 C   0  0  0  0  0  0  0  0  0  0  0  0
   35.9690   27.5040   32.2610 N   0  0  0  0  0  0  0  0  0  0  0  0
   35.8920   28.2960   33.3310 C   0  0  0  0  0  0  0  0  0  0  0  0
   36.4960   27.9250   34.4990 N   0  0  0  0  0  0  0  0  0  0  0  0
   37.8220   26.3290   35.7860 C   0  0  0  0  0  0  0  0  0  0  0  0
   38.6610   27.0690   36.3150 O   0  0  0  0  0  0  0  0  0  0  0  0
   37.4810   25.1110   36.3320 O   0  0  0  0  0  0  0  0  0  0  0  0
   39.4270   22.8190   38.1940 N   0  0  0  0  0  0  0  0  0  0  0  0
   38.3690   23.6120   37.9990 N   0  0  0  0  0  0  0  0  0  0  0  0
   38.4830   24.2130   36.7810 C   0  0  0  0  0  0  0  0  0  0  0  0
   39.6430   23.7880   36.1940 C   0  0  0  0  0  0  0  0  0  0  0  0
   40.2040   22.9260   37.0940 C   0  0  0  0  0  0  0  0  0  0  0  0
   41.4890   22.2130   36.8790 C   0  0  0  0  0  0  0  0  0  0  0  0
   42.5080   22.8500   36.2170 C   0  0  0  0  0  0  0  0  0  0  0  0
   43.6600   22.1120   36.0650 C   0  0  0  0  0  0  0  0  0  0  0  0
   43.8470   20.8420   36.5090 N   0  0  0  0  0  0  0  0  0  0  0  0
   42.8000   20.2650   37.1580 C   0  0  0  0  0  0  0  0  0  0  0  0
   41.6510   20.9470   37.3320 N   0  0  0  0  0  0  0  0  0  0  0  0
   35.1520   29.5800   33.2570 C   0  0  0  0  0  0  0  0  0  0  0  0
   35.9270   30.6050   34.0390 C   0  0  0  0  0  0  0  0  0  0  0  0
   33.8050   29.3550   33.9010 C   0  0  0  0  0  0  0  0  0  0  0  0
   34.9800   30.0270   31.8020 C   0  0  0  0  0  0  0  0  0  0  0  0
   36.1550   30.6930   31.4640 O   0  0  0  0  0  0  0  0  0  0  0  0
   36.6810   30.7420   30.1830 C   0  0  0  0  0  0  0  0  0  0  0  0
   37.2330   29.5230   29.7990 C   0  0  0  0  0  0  0  0  0  0  0  0
   37.8010   29.4320   28.5240 C   0  0  0  0  0  0  0  0  0  0  0  0
   37.7900   30.5110   27.7360 N   0  0  0  0  0  0  0  0  0  0  0  0
   37.2420   31.6940   28.1380 C   0  0  0  0  0  0  0  0  0  0  0  0
   36.6940   31.7890   29.3630 N   0  0  0  0  0  0  0  0  0  0  0  0
   37.7986   24.9628   33.4875 H   0  0  0  0  0  0  0  0  0  0  0  0
   36.6585   25.7050   31.3392 H   0  0  0  0  0  0  0  0  0  0  0  0
   39.6141   22.2379   39.0236 H   0  0  0  0  0  0  0  0  0  0  0  0
   40.0391   24.0776   35.2095 H   0  0  0  0  0  0  0  0  0  0  0  0
   42.4113   23.8770   35.8350 H   0  0  0  0  0  0  0  0  0  0  0  0
   44.4996   22.5909   35.5399 H   0  0  0  0  0  0  0  0  0  0  0  0
   42.8916   19.2383   37.5420 H   0  0  0  0  0  0  0  0  0  0  0  0
   35.7907   30.4248   35.1156 H   0  0  0  0  0  0  0  0  0  0  0  0
   36.9949   30.5282   33.7866 H   0  0  0  0  0  0  0  0  0  0  0  0
   35.5621   31.6116   33.7866 H   0  0  0  0  0  0  0  0  0  0  0  0
   33.9142   29.3732   34.9954 H   0  0  0  0  0  0  0  0  0  0  0  0
   33.1118   30.1498   33.5884 H   0  0  0  0  0  0  0  0  0  0  0  0
   33.4077   28.3780   33.5884 H   0  0  0  0  0  0  0  0  0  0  0  0
   34.8338   29.1542   31.1487 H   0  0  0  0  0  0  0  0  0  0  0  0
   34.0999   30.6757   31.6810 H   0  0  0  0  0  0  0  0  0  0  0  0
   37.2228   28.6575   30.4778 H   0  0  0  0  0  0  0  0  0  0  0  0
   38.2486   28.4892   28.1764 H   0  0  0  0  0  0  0  0  0  0  0  0
   37.2482   32.5642   27.4651 H   0  0  0  0  0  0  0  0  0  0  0  0
  1  7  1  0
  2  1  2  0
  3  4  2  0
  3  2  1  0
  4  5  1  0
  5  6  2  0
  6  1  1  0
  7  8  2  0
  7  9  1  0
  9 12  1  0
 11 10  1  0
 12 11  2  0
 13 12  1  0
 13 14  2  0
 14 10  1  0
 15 14  1  0
 15 20  1  0
 16 15  2  0
 17 16  1  0
 17 18  2  0
 18 19  1  0
 19 20  2  0
 21  5  1  0
 21 23  1  0
 21 22  1  0
 24 21  1  0
 25 24  1  0
 26 25  1  0
 27 26  2  0
 28 27  1  0
 29 30  1  0
 29 28  2  0
 30 31  2  0
 31 26  1  0
  2 32  1  0
  3 33  1  0
 10 34  1  0
 13 35  1  0
 16 36  1  0
 17 37  1  0
 19 38  1  0
 22 39  1  0
 22 40  1  0
 22 41  1  0
 23 42  1  0
 23 43  1  0
 23 44  1  0
 24 45  1  0
 24 46  1  0
 27 47  1  0
 28 48  1  0
 30 49  1  0
M  ISO  8  32  14  33  14  34   9  35  14  36  14  37  14  38  14  39   8
M  ISO  8  40   8  41   8  42   8  43   8  44   8  45   8  46   8  47  14
M  ISO  2  48  14  49  14
M  END
>  <minimizedAffinity>  (1) 
-5.72306871

>  <minimizedRMSD>  (1) 
0.695273221

$$$$
