
     RDKit          3D

 35 37  0  0  1  0  0  0  0  0999 V2000
   38.3990   23.7590   34.0410 N   0  0  0  0  0  0  0  0  0  0  0  0
   39.1280   22.6950   34.7300 C   0  0  0  0  0  0  0  0  0  0  0  0
   40.5070   23.2900   34.8360 C   0  0  1  0  0  0  0  0  0  0  0  0
   40.4010   24.7180   34.3620 C   0  0  0  0  0  0  0  0  0  0  0  0
   38.9370   24.9280   34.6970 C   0  0  0  0  0  0  0  0  0  0  0  0
   37.4250   23.6630   33.0080 C   0  0  0  0  0  0  0  0  0  0  0  0
   36.9580   22.4050   32.5580 C   0  0  0  0  0  0  0  0  0  0  0  0
   36.0020   22.3790   31.5410 C   0  0  0  0  0  0  0  0  0  0  0  0
   35.5820   23.5790   31.0490 N   0  0  0  0  0  0  0  0  0  0  0  0
   36.0460   24.7410   31.4990 C   0  0  0  0  0  0  0  0  0  0  0  0
   36.9690   24.8160   32.4790 N   0  0  0  0  0  0  0  0  0  0  0  0
   40.8490   23.3230   36.2920 C   0  0  2  0  0  0  0  0  0  0  0  0
   41.5990   22.2360   36.9220 C   0  0  0  0  0  0  0  0  0  0  0  0
   40.0930   22.3250   37.1000 C   0  0  1  0  0  0  0  0  0  0  0  0
   39.5660   22.7160   38.4090 N   0  0  0  0  0  0  0  0  0  0  0  0
   38.3070   23.3770   38.3930 C   0  0  0  0  0  0  0  0  0  0  0  0
   37.1820   22.6990   37.8470 N   0  0  0  0  0  0  0  0  0  0  0  0
   38.1020   24.5560   38.8390 O   0  0  0  0  0  0  0  0  0  0  0  0
   38.7004   22.4941   35.7234 H   0  0  0  0  0  0  0  0  0  0  0  0
   39.0984   21.7251   34.2118 H   0  0  0  0  0  0  0  0  0  0  0  0
   41.2525   22.7255   34.2567 H   0  0  0  0  0  0  0  0  0  0  0  0
   40.6030   24.8182   33.2854 H   0  0  0  0  0  0  0  0  0  0  0  0
   41.1103   25.4330   34.8043 H   0  0  0  0  0  0  0  0  0  0  0  0
   38.5434   25.8617   34.2690 H   0  0  0  0  0  0  0  0  0  0  0  0
   38.7006   25.0275   35.7667 H   0  0  0  0  0  0  0  0  0  0  0  0
   37.3386   21.4716   32.9984 H   0  0  0  0  0  0  0  0  0  0  0  0
   35.6042   21.4298   31.1528 H   0  0  0  0  0  0  0  0  0  0  0  0
   35.6638   25.6728   31.0567 H   0  0  0  0  0  0  0  0  0  0  0  0
   41.0182   24.4099   36.2923 H   0  0  0  0  0  0  0  0  0  0  0  0
   42.0337   21.4369   36.3036 H   0  0  0  0  0  0  0  0  0  0  0  0
   42.4611   22.1777   37.6028 H   0  0  0  0  0  0  0  0  0  0  0  0
   39.2333   21.6620   36.9229 H   0  0  0  0  0  0  0  0  0  0  0  0
   40.0741   22.5247   39.2843 H   0  0  0  0  0  0  0  0  0  0  0  0
   36.2619   23.1615   37.8267 H   0  0  0  0  0  0  0  0  0  0  0  0
   37.2875   21.7455   37.4719 H   0  0  0  0  0  0  0  0  0  0  0  0
  1  5  1  0
  1  2  1  0
  2  3  1  0
  3 12  1  0
  4  5  1  0
  4  3  1  0
  6  1  1  0
  7  6  2  0
  8  7  1  0
  9 10  1  0
  9  8  2  0
 10 11  2  0
 11  6  1  0
 12 13  1  0
 12 14  1  0
 13 14  1  0
 14 15  1  0
 16 15  1  0
 16 18  2  0
 17 16  1  0
  2 19  1  0
  2 20  1  0
  3 21  1  6
  4 22  1  0
  4 23  1  0
  5 24  1  0
  5 25  1  0
  7 26  1  0
  8 27  1  0
 10 28  1  0
 12 29  1  1
 13 30  1  0
 13 31  1  0
 14 32  1  6
 15 33  1  0
 17 34  1  0
 17 35  1  0
M  ISO  8  19  13  20  13  21  13  22  13  23  13  24  13  25  13  26  14
M  ISO  6  27  14  28  14  29  13  30  13  31  13  32  13
M  END
>  <minimizedAffinity>  (1) 
-5.10376596

>  <minimizedRMSD>  (1) 
2.38832092

$$$$
