
     RDKit          3D

 25 25  0  0  0  0  0  0  0  0999 V2000
   38.6560   25.9630   34.8080 C   0  0  0  0  0  0  0  0  0  0  0  0
   40.7450   23.2200   36.0750 C   0  0  0  0  0  0  0  0  0  0  0  0
   40.0290   22.7350   37.1650 C   0  0  0  0  0  0  0  0  0  0  0  0
   38.8270   23.3610   37.4500 C   0  0  0  0  0  0  0  0  0  0  0  0
   38.4270   24.3940   36.6650 N   0  0  0  0  0  0  0  0  0  0  0  0
   39.1610   24.8300   35.6150 C   0  0  0  0  0  0  0  0  0  0  0  0
   40.3410   24.2250   35.3230 N   0  0  0  0  0  0  0  0  0  0  0  0
   40.5750   21.6490   37.9110 N   0  0  0  0  0  0  0  0  0  0  0  0
   38.9060   25.7250   33.3290 C   0  0  0  0  0  0  0  0  0  0  0  0
   37.1780   26.1790   35.0830 C   0  0  0  0  0  0  0  0  0  0  0  0
   39.3840   27.2150   35.2690 C   0  0  0  0  0  0  0  0  0  0  0  0
   38.7280   27.6650   36.4250 O   0  0  0  0  0  0  0  0  0  0  0  0
   41.7020   22.7379   35.8266 H   0  0  0  0  0  0  0  0  0  0  0  0
   38.2082   23.0277   38.2962 H   0  0  0  0  0  0  0  0  0  0  0  0
   40.0636   21.2726   38.7220 H   0  0  0  0  0  0  0  0  0  0  0  0
   41.4807   21.2410   37.6388 H   0  0  0  0  0  0  0  0  0  0  0  0
   39.6978   24.9712   33.2076 H   0  0  0  0  0  0  0  0  0  0  0  0
   37.9813   25.3652   32.8541 H   0  0  0  0  0  0  0  0  0  0  0  0
   39.2199   26.6662   32.8541 H   0  0  0  0  0  0  0  0  0  0  0  0
   37.0070   26.2040   36.1693 H   0  0  0  0  0  0  0  0  0  0  0  0
   36.8582   27.1334   34.6394 H   0  0  0  0  0  0  0  0  0  0  0  0
   36.5984   25.3560   34.6394 H   0  0  0  0  0  0  0  0  0  0  0  0
   40.4340   26.9797   35.4972 H   0  0  0  0  0  0  0  0  0  0  0  0
   39.3753   27.9869   34.4853 H   0  0  0  0  0  0  0  0  0  0  0  0
   39.2078   27.3359   37.2260 H   0  0  0  0  0  0  0  0  0  0  0  0
  1 10  1  0
  1 11  1  0
  1  6  1  0
  2  3  2  0
  3  4  1  0
  3  8  1  0
  5  4  2  0
  6  5  1  0
  7  6  2  0
  7  2  1  0
  9  1  1  0
 11 12  1  0
  2 13  1  0
  4 14  1  0
  8 15  1  0
  8 16  1  0
  9 17  1  0
  9 18  1  0
  9 19  1  0
 10 20  1  0
 10 21  1  0
 10 22  1  0
 11 23  1  0
 11 24  1  0
 12 25  1  0
M  ISO  8  13  14  14  14  17   8  18   8  19   8  20   8  21   8  22   8
M  ISO  3  23   8  24   8  25   3
M  END
>  <minimizedAffinity>  (1) 
-4.13861561

>  <minimizedRMSD>  (1) 
0.905134559

$$$$
