
     RDKit          3D

 39 42  0  0  0  0  0  0  0  0999 V2000
   37.7390   25.5350   34.7390 C   0  0  0  0  0  0  0  0  0  0  0  0
   37.9500   25.6690   36.0960 C   0  0  0  0  0  0  0  0  0  0  0  0
   38.2750   24.5990   36.9050 C   0  0  0  0  0  0  0  0  0  0  0  0
   38.3870   23.3910   36.3430 N   0  0  0  0  0  0  0  0  0  0  0  0
   38.1780   23.2640   35.0090 C   0  0  0  0  0  0  0  0  0  0  0  0
   37.8620   24.2910   34.2110 N   0  0  0  0  0  0  0  0  0  0  0  0
   37.3070   27.9510   32.1710 C   0  0  0  0  0  0  0  0  0  0  0  0
   36.5490   28.5660   33.1850 C   0  0  0  0  0  0  0  0  0  0  0  0
   36.6130   27.7260   34.2970 C   0  0  0  0  0  0  0  0  0  0  0  0
   37.3970   26.6640   33.8980 C   0  0  0  0  0  0  0  0  0  0  0  0
   37.7820   26.8250   32.6660 O   0  0  0  0  0  0  0  0  0  0  0  0
   36.8910   29.7670   30.5030 C   0  0  0  0  0  0  0  0  0  0  0  0
   37.4620   28.5510   30.8630 C   0  0  0  0  0  0  0  0  0  0  0  0
   38.2160   27.8960   29.9010 C   0  0  0  0  0  0  0  0  0  0  0  0
   38.3620   28.4640   28.6670 N   0  0  0  0  0  0  0  0  0  0  0  0
   37.7790   29.6610   28.3680 C   0  0  0  0  0  0  0  0  0  0  0  0
   37.0590   30.2850   29.2900 N   0  0  0  0  0  0  0  0  0  0  0  0
   38.2950   21.9370   34.3610 C   0  0  0  0  0  0  0  0  0  0  0  0
   38.2830   22.1580   32.8480 C   0  0  0  0  0  0  0  0  0  0  0  0
   37.3320   21.2680   32.2250 C   0  0  0  0  0  0  0  0  0  0  0  0
   37.1790   20.6180   31.0500 C   0  0  0  0  0  0  0  0  0  0  0  0
   36.1230   19.8240   30.7800 C   0  0  0  0  0  0  0  0  0  0  0  0
   35.1700   19.7250   31.8460 C   0  0  0  0  0  0  0  0  0  0  0  0
   35.8420   20.7720   33.1690 S   0  0  0  0  0  0  0  0  0  0  0  0
   34.0050   19.0110   31.8900 O   0  0  0  0  0  0  0  0  0  0  0  0
   37.8556   26.6664   36.5503 H   0  0  0  0  0  0  0  0  0  0  0  0
   38.4377   24.7365   37.9842 H   0  0  0  0  0  0  0  0  0  0  0  0
   36.0109   29.5228   33.1144 H   0  0  0  0  0  0  0  0  0  0  0  0
   36.1407   27.8778   35.2788 H   0  0  0  0  0  0  0  0  0  0  0  0
   36.2851   30.3140   31.2404 H   0  0  0  0  0  0  0  0  0  0  0  0
   38.6910   26.9304   30.1288 H   0  0  0  0  0  0  0  0  0  0  0  0
   37.9054   30.1049   27.3695 H   0  0  0  0  0  0  0  0  0  0  0  0
   39.2365   21.4544   34.6620 H   0  0  0  0  0  0  0  0  0  0  0  0
   37.4618   21.2853   34.6626 H   0  0  0  0  0  0  0  0  0  0  0  0
   38.0008   23.1995   32.6345 H   0  0  0  0  0  0  0  0  0  0  0  0
   39.2860   21.9525   32.4458 H   0  0  0  0  0  0  0  0  0  0  0  0
   37.9522   20.7425   30.2776 H   0  0  0  0  0  0  0  0  0  0  0  0
   36.0031   19.2966   29.8221 H   0  0  0  0  0  0  0  0  0  0  0  0
   33.4392   19.0365   32.7020 H   0  0  0  0  0  0  0  0  0  0  0  0
  1  2  2  0
  2  3  1  0
  4  3  2  0
  5  4  1  0
  6  1  1  0
  6  5  2  0
  7 11  1  0
  7  8  2  0
  8  9  1  0
 10  9  2  0
 10  1  1  0
 11 10  1  0
 12 13  2  0
 13  7  1  0
 14 13  1  0
 15 14  2  0
 16 15  1  0
 16 17  2  0
 17 12  1  0
 18  5  1  0
 19 18  1  0
 20 19  1  0
 20 24  1  0
 21 20  2  0
 22 21  1  0
 22 23  2  0
 23 25  1  0
 23 24  1  0
  2 26  1  0
  3 27  1  0
  8 28  1  0
  9 29  1  0
 12 30  1  0
 14 31  1  0
 16 32  1  0
 18 33  1  0
 18 34  1  0
 19 35  1  0
 19 36  1  0
 21 37  1  0
 22 38  1  0
 25 39  1  0
M  ISO  8  26  14  27  14  28  14  29  14  30  14  31  14  32  14  33   8
M  ISO  6  34   8  35   8  36   8  37  14  38  14  39   3
M  END
>  <minimizedAffinity>  (1) 
-5.5284276

>  <minimizedRMSD>  (1) 
0.205245376

$$$$
