
     RDKit          3D

 24 26  0  0  0  0  0  0  0  0999 V2000
   39.6980   22.8300   37.6230 C   0  0  0  0  0  0  0  0  0  0  0  0
   38.9490   23.3900   38.6640 C   0  0  0  0  0  0  0  0  0  0  0  0
   37.9210   24.2810   38.3140 C   0  0  0  0  0  0  0  0  0  0  0  0
   37.7240   24.5410   36.9770 N   0  0  0  0  0  0  0  0  0  0  0  0
   38.4790   23.9700   36.0080 C   0  0  0  0  0  0  0  0  0  0  0  0
   39.4560   23.1230   36.3450 N   0  0  0  0  0  0  0  0  0  0  0  0
   38.1510   24.3410   34.6750 N   0  0  0  0  0  0  0  0  0  0  0  0
   38.3470   23.5010   33.6130 C   0  0  0  0  0  0  0  0  0  0  0  0
   37.9460   24.1190   32.4820 N   0  0  0  0  0  0  0  0  0  0  0  0
   37.4860   25.3620   32.7950 C   0  0  0  0  0  0  0  0  0  0  0  0
   36.9570   26.4390   32.0950 C   0  0  0  0  0  0  0  0  0  0  0  0
   36.5910   27.5540   32.7280 N   0  0  0  0  0  0  0  0  0  0  0  0
   36.7430   27.6240   34.0650 C   0  0  0  0  0  0  0  0  0  0  0  0
   37.2540   26.5960   34.7760 N   0  0  0  0  0  0  0  0  0  0  0  0
   37.6270   25.4710   34.1670 C   0  0  0  0  0  0  0  0  0  0  0  0
   36.8670   26.1920   30.6900 N   0  0  0  0  0  0  0  0  0  0  0  0
   36.3570   28.7980   34.7190 O   0  0  0  0  0  0  0  0  0  0  0  0
   40.5094   22.1282   37.8660 H   0  0  0  0  0  0  0  0  0  0  0  0
   39.1571   23.1421   39.7153 H   0  0  0  0  0  0  0  0  0  0  0  0
   37.2940   24.7554   39.0833 H   0  0  0  0  0  0  0  0  0  0  0  0
   38.7644   22.4850   33.6715 H   0  0  0  0  0  0  0  0  0  0  0  0
   37.1804   25.2897   30.3046 H   0  0  0  0  0  0  0  0  0  0  0  0
   36.4888   26.9163   30.0629 H   0  0  0  0  0  0  0  0  0  0  0  0
   36.4587   28.8740   35.7008 H   0  0  0  0  0  0  0  0  0  0  0  0
  1  2  2  0
  3  2  1  0
  4  3  2  0
  5  6  2  0
  5  4  1  0
  6  1  1  0
  7  5  1  0
  8  7  1  0
  9 10  1  0
  9  8  2  0
 10 15  2  0
 11 12  2  0
 11 10  1  0
 12 13  1  0
 13 17  1  0
 13 14  2  0
 15  7  1  0
 15 14  1  0
 16 11  1  0
  1 18  1  0
  2 19  1  0
  3 20  1  0
  8 21  1  0
 16 22  1  0
 16 23  1  0
 17 24  1  0
M  ISO  5  18  14  19  14  20  14  21  14  24   3
M  END
>  <minimizedAffinity>  (1) 
-5.25319719

>  <minimizedRMSD>  (1) 
0.0873707533

$$$$
