
     RDKit          3D

 30 32  0  0  1  0  0  0  0  0999 V2000
   37.9620   26.3740   35.7530 C   0  0  1  0  0  0  0  0  0  0  0  0
   38.7900   27.2840   34.9020 C   0  0  0  0  0  0  0  0  0  0  0  0
   37.5460   26.6560   34.3740 C   0  0  1  0  0  0  0  0  0  0  0  0
   37.7340   25.8540   33.2200 N   0  0  0  0  0  0  0  0  0  0  0  0
   37.4820   24.5330   33.0510 C   0  0  0  0  0  0  0  0  0  0  0  0
   37.6990   23.8340   31.9060 C   0  0  0  0  0  0  0  0  0  0  0  0
   38.2190   24.5070   30.8040 C   0  0  0  0  0  0  0  0  0  0  0  0
   38.4400   23.9120   29.7250 O   0  0  0  0  0  0  0  0  0  0  0  0
   38.4970   25.8320   30.8900 N   0  0  0  0  0  0  0  0  0  0  0  0
   38.2400   26.4230   32.0830 C   0  0  0  0  0  0  0  0  0  0  0  0
   38.5110   27.6730   32.1450 O   0  0  0  0  0  0  0  0  0  0  0  0
   39.0400   26.6130   29.7910 C   0  0  0  0  0  0  0  0  0  0  0  0
   38.5150   25.0720   36.2070 C   0  0  0  0  0  0  0  0  0  0  0  0
   37.7880   24.4100   37.1960 C   0  0  0  0  0  0  0  0  0  0  0  0
   38.2530   23.1940   37.6700 C   0  0  0  0  0  0  0  0  0  0  0  0
   39.4140   22.7120   37.1300 N   0  0  0  0  0  0  0  0  0  0  0  0
   40.0920   23.3900   36.1660 C   0  0  0  0  0  0  0  0  0  0  0  0
   39.6490   24.5630   35.7060 N   0  0  0  0  0  0  0  0  0  0  0  0
   37.4447   26.4352   36.7218 H   0  0  0  0  0  0  0  0  0  0  0  0
   38.8186   28.3634   35.1118 H   0  0  0  0  0  0  0  0  0  0  0  0
   39.8437   27.3215   34.5885 H   0  0  0  0  0  0  0  0  0  0  0  0
   36.5499   26.9239   33.9918 H   0  0  0  0  0  0  0  0  0  0  0  0
   37.0688   23.9828   33.9092 H   0  0  0  0  0  0  0  0  0  0  0  0
   37.4688   22.7598   31.8512 H   0  0  0  0  0  0  0  0  0  0  0  0
   39.6246   27.4539   30.1925 H   0  0  0  0  0  0  0  0  0  0  0  0
   39.6906   25.9754   29.1744 H   0  0  0  0  0  0  0  0  0  0  0  0
   38.2157   27.0008   29.1744 H   0  0  0  0  0  0  0  0  0  0  0  0
   36.8599   24.8465   37.5936 H   0  0  0  0  0  0  0  0  0  0  0  0
   37.7106   22.6384   38.4492 H   0  0  0  0  0  0  0  0  0  0  0  0
   41.0211   22.9653   35.7581 H   0  0  0  0  0  0  0  0  0  0  0  0
  1 13  1  0
  2  1  1  0
  3  2  1  0
  3  1  1  0
  4  3  1  0
  5  4  1  0
  6  5  2  0
  7  9  1  0
  7  6  1  0
  8  7  2  0
  9 10  1  0
 10 11  2  0
 10  4  1  0
 12  9  1  0
 13 14  2  0
 14 15  1  0
 16 15  2  0
 17 16  1  0
 18 17  2  0
 18 13  1  0
  1 19  1  1
  2 20  1  0
  2 21  1  0
  3 22  1  1
  5 23  1  0
  6 24  1  0
 12 25  1  0
 12 26  1  0
 12 27  1  0
 14 28  1  0
 15 29  1  0
 17 30  1  0
M  ISO  8  19  13  20  13  21  13  22  13  23  14  24  14  25   8  26   8
M  ISO  4  27   8  28  14  29  14  30  14
M  END
>  <minimizedAffinity>  (1) 
-4.29655457

>  <minimizedRMSD>  (1) 
0.589645803

$$$$
