
     RDKit          3D

 45 49  0  0  0  0  0  0  0  0999 V2000
   39.6170   23.5850   35.2010 N   0  0  0  0  0  0  0  0  0  0  0  0
   40.2490   22.5950   34.5920 N   0  0  0  0  0  0  0  0  0  0  0  0
   40.4450   22.8770   33.3000 C   0  0  0  0  0  0  0  0  0  0  0  0
   39.8890   24.1280   33.1120 C   0  0  0  0  0  0  0  0  0  0  0  0
   39.3640   24.5770   34.3180 C   0  0  0  0  0  0  0  0  0  0  0  0
   39.9040   24.7700   31.8430 N   0  0  0  0  0  0  0  0  0  0  0  0
   40.7900   25.4880   31.1230 C   0  0  0  0  0  0  0  0  0  0  0  0
   40.1880   25.8460   29.9250 C   0  0  0  0  0  0  0  0  0  0  0  0
   38.9490   25.3430   29.9350 N   0  0  0  0  0  0  0  0  0  0  0  0
   38.7680   24.6890   31.0960 C   0  0  0  0  0  0  0  0  0  0  0  0
   37.4660   24.0900   31.2430 N   0  0  0  0  0  0  0  0  0  0  0  0
   36.2370   24.5220   31.5500 C   0  0  0  0  0  0  0  0  0  0  0  0
   35.3880   23.4840   31.5380 N   0  0  0  0  0  0  0  0  0  0  0  0
   36.0650   22.3800   31.2240 C   0  0  0  0  0  0  0  0  0  0  0  0
   35.6770   21.0560   31.0750 C   0  0  0  0  0  0  0  0  0  0  0  0
   34.4940   20.6780   31.2370 O   0  0  0  0  0  0  0  0  0  0  0  0
   36.5560   20.1010   30.7460 N   0  0  0  0  0  0  0  0  0  0  0  0
   37.8380   20.4790   30.5660 C   0  0  0  0  0  0  0  0  0  0  0  0
   38.9680   19.6620   30.2120 N   0  0  0  0  0  0  0  0  0  0  0  0
   38.2260   21.7380   30.7030 N   0  0  0  0  0  0  0  0  0  0  0  0
   37.3760   22.7530   31.0360 C   0  0  0  0  0  0  0  0  0  0  0  0
   38.0640   24.2120   36.9710 C   0  0  0  0  0  0  0  0  0  0  0  0
   39.2570   23.6060   36.5650 C   0  0  0  0  0  0  0  0  0  0  0  0
   40.0910   23.0190   37.5260 C   0  0  0  0  0  0  0  0  0  0  0  0
   39.6720   23.0800   38.8300 N   0  0  0  0  0  0  0  0  0  0  0  0
   38.5350   23.6610   39.1980 C   0  0  0  0  0  0  0  0  0  0  0  0
   37.7200   24.2330   38.2710 N   0  0  0  0  0  0  0  0  0  0  0  0
   38.7090   25.8350   34.5070 N   0  0  0  0  0  0  0  0  0  0  0  0
   39.3460   26.9400   35.1760 C   0  0  0  0  0  0  0  0  0  0  0  0
   40.6470   27.0660   34.9470 N   0  0  0  0  0  0  0  0  0  0  0  0
   38.5150   27.7690   36.0010 N   0  0  0  0  0  0  0  0  0  0  0  0
   41.0720   27.8780   35.4360 H   0  0  0  0  0  0  0  0  0  0  0  0
   40.9425   22.2477   32.5474 H   0  0  0  0  0  0  0  0  0  0  0  0
   41.8138   25.7455   31.4322 H   0  0  0  0  0  0  0  0  0  0  0  0
   40.6456   26.4349   29.1164 H   0  0  0  0  0  0  0  0  0  0  0  0
   35.9661   25.5638   31.7764 H   0  0  0  0  0  0  0  0  0  0  0  0
   36.2653   19.1191   30.6351 H   0  0  0  0  0  0  0  0  0  0  0  0
   38.8459   18.6498   30.0654 H   0  0  0  0  0  0  0  0  0  0  0  0
   39.8991   20.0893   30.1051 H   0  0  0  0  0  0  0  0  0  0  0  0
   37.4031   24.6742   36.2229 H   0  0  0  0  0  0  0  0  0  0  0  0
   41.0372   22.5322   37.2473 H   0  0  0  0  0  0  0  0  0  0  0  0
   38.2506   23.6796   40.2604 H   0  0  0  0  0  0  0  0  0  0  0  0
   37.7493   25.9544   34.1526 H   0  0  0  0  0  0  0  0  0  0  0  0
   38.9230   28.5720   36.5007 H   0  0  0  0  0  0  0  0  0  0  0  0
   37.5104   27.5612   36.0936 H   0  0  0  0  0  0  0  0  0  0  0  0
  1 23  1  0
  2  1  1  0
  3  2  2  0
  4  3  1  0
  4  5  2  0
  5 28  1  0
  5  1  1  0
  6  4  1  0
  7  6  1  0
  8  9  1  0
  8  7  2  0
  9 10  2  0
 10 11  1  0
 10  6  1  0
 11 12  1  0
 13 12  2  0
 14 13  1  0
 15 14  1  0
 15 16  2  0
 17 15  1  0
 18 20  2  0
 18 17  1  0
 19 18  1  0
 20 21  1  0
 21 14  2  0
 21 11  1  0
 22 27  2  0
 23 22  1  0
 23 24  2  0
 24 25  1  0
 25 26  2  0
 27 26  1  0
 28 29  1  0
 29 31  1  0
 30 29  2  0
 30 32  1  0
  3 33  1  0
  7 34  1  0
  8 35  1  0
 12 36  1  0
 17 37  1  0
 19 38  1  0
 19 39  1  0
 22 40  1  0
 24 41  1  0
 26 42  1  0
 28 43  1  0
 31 44  1  0
 31 45  1  0
M  ISO  8  33  14  34  14  35  14  36  14  37   9  40  14  41  14  42  14
M  END
>  <minimizedAffinity>  (1) 
-5.84788036

>  <minimizedRMSD>  (1) 
2.26491666

$$$$
