
     RDKit          3D

 33 36  0  0  0  0  0  0  0  0999 V2000
   38.0720   25.5730   35.2240 C   0  0  0  0  0  0  0  0  0  0  0  0
   37.7940   26.9040   35.5500 C   0  0  0  0  0  0  0  0  0  0  0  0
   37.1730   27.6760   34.6330 C   0  0  0  0  0  0  0  0  0  0  0  0
   36.8380   27.0910   33.3920 C   0  0  0  0  0  0  0  0  0  0  0  0
   37.4510   25.3290   33.5550 S   0  0  0  0  0  0  0  0  0  0  0  0
   38.2340   24.1600   37.2930 C   0  0  0  0  0  0  0  0  0  0  0  0
   38.7210   24.6070   36.0560 C   0  0  0  0  0  0  0  0  0  0  0  0
   39.9130   24.0930   35.5930 C   0  0  0  0  0  0  0  0  0  0  0  0
   40.5610   23.1780   36.3550 N   0  0  0  0  0  0  0  0  0  0  0  0
   40.0610   22.7640   37.5540 C   0  0  0  0  0  0  0  0  0  0  0  0
   38.9010   23.2660   38.0000 N   0  0  0  0  0  0  0  0  0  0  0  0
   36.2150   27.5340   32.2280 C   0  0  0  0  0  0  0  0  0  0  0  0
   35.5320   26.7580   31.5420 O   0  0  0  0  0  0  0  0  0  0  0  0
   36.3350   28.9350   31.7590 C   0  0  0  0  0  0  0  0  0  0  0  0
   35.9790   30.1200   32.3310 C   0  0  0  0  0  0  0  0  0  0  0  0
   36.3100   31.1250   31.4800 N   0  0  0  0  0  0  0  0  0  0  0  0
   36.8700   30.6310   30.3710 C   0  0  0  0  0  0  0  0  0  0  0  0
   37.3430   31.3070   29.2650 C   0  0  0  0  0  0  0  0  0  0  0  0
   37.8810   30.5970   28.2370 C   0  0  0  0  0  0  0  0  0  0  0  0
   37.9300   29.2050   28.3440 C   0  0  0  0  0  0  0  0  0  0  0  0
   37.4490   28.5620   29.4590 C   0  0  0  0  0  0  0  0  0  0  0  0
   36.8960   29.2550   30.5240 C   0  0  0  0  0  0  0  0  0  0  0  0
   38.0750   27.3129   36.5317 H   0  0  0  0  0  0  0  0  0  0  0  0
   36.9352   28.7287   34.8459 H   0  0  0  0  0  0  0  0  0  0  0  0
   37.2845   24.5591   37.6791 H   0  0  0  0  0  0  0  0  0  0  0  0
   40.3289   24.4176   34.6278 H   0  0  0  0  0  0  0  0  0  0  0  0
   40.6076   22.0208   38.1531 H   0  0  0  0  0  0  0  0  0  0  0  0
   35.5039   30.2416   33.3156 H   0  0  0  0  0  0  0  0  0  0  0  0
   36.1520   32.1262   31.6630 H   0  0  0  0  0  0  0  0  0  0  0  0
   37.2858   32.4044   29.2153 H   0  0  0  0  0  0  0  0  0  0  0  0
   38.2683   31.1069   27.3426 H   0  0  0  0  0  0  0  0  0  0  0  0
   38.3607   28.6140   27.5222 H   0  0  0  0  0  0  0  0  0  0  0  0
   37.5046   27.4645   29.5077 H   0  0  0  0  0  0  0  0  0  0  0  0
  1  2  2  0
  1  7  1  0
  3  2  1  0
  4  5  1  0
  4  3  2  0
  5  1  1  0
  6 11  2  0
  7  6  1  0
  8  7  2  0
  8  9  1  0
  9 10  2  0
 10 11  1  0
 12  4  1  0
 13 12  2  0
 14 12  1  0
 14 15  2  0
 16 15  1  0
 17 22  2  0
 17 16  1  0
 18 17  1  0
 19 20  1  0
 19 18  2  0
 20 21  2  0
 21 22  1  0
 22 14  1  0
  2 23  1  0
  3 24  1  0
  6 25  1  0
  8 26  1  0
 10 27  1  0
 15 28  1  0
 16 29  1  0
 18 30  1  0
 19 31  1  0
 20 32  1  0
 21 33  1  0
M  ISO  8  23  14  24  14  25  14  26  14  27  14  28  14  29   9  30  14
M  ISO  3  31  14  32  14  33  14
M  END
>  <minimizedAffinity>  (1) 
-5.43503666

>  <minimizedRMSD>  (1) 
0.99089998

$$$$
