
     RDKit          3D

 32 34  0  0  1  0  0  0  0  0999 V2000
   37.7760   24.4100   33.8370 N   0  0  0  0  0  0  0  0  0  0  0  0
   38.1160   23.2040   33.1370 C   0  0  0  0  0  0  0  0  0  0  0  0
   37.2930   23.2340   31.8650 C   0  0  0  0  0  0  0  0  0  0  0  0
   36.5180   24.5580   31.9560 C   0  0  0  0  0  0  0  0  0  0  0  0
   37.5570   25.3370   32.7670 C   0  0  1  0  0  0  0  0  0  0  0  0
   37.0520   26.6170   33.1560 N   0  0  0  0  0  0  0  0  0  0  0  0
   36.7000   27.5720   32.3340 N   0  0  0  0  0  0  0  0  0  0  0  0
   36.2630   28.6610   33.0260 C   0  0  0  0  0  0  0  0  0  0  0  0
   36.3540   28.3480   34.3730 C   0  0  0  0  0  0  0  0  0  0  0  0
   36.8470   27.0740   34.4250 C   0  0  0  0  0  0  0  0  0  0  0  0
   38.8800   24.9100   34.6320 C   0  0  0  0  0  0  0  0  0  0  0  0
   38.0340   24.1230   38.2230 C   0  0  0  0  0  0  0  0  0  0  0  0
   37.9620   24.7140   36.9650 C   0  0  0  0  0  0  0  0  0  0  0  0
   38.9020   24.3180   35.9980 C   0  0  0  0  0  0  0  0  0  0  0  0
   39.8460   23.3720   36.3360 N   0  0  0  0  0  0  0  0  0  0  0  0
   39.8710   22.8310   37.5760 C   0  0  0  0  0  0  0  0  0  0  0  0
   38.9620   23.2150   38.5060 N   0  0  0  0  0  0  0  0  0  0  0  0
   39.1901   23.1856   32.9005 H   0  0  0  0  0  0  0  0  0  0  0  0
   37.9072   22.3076   33.7394 H   0  0  0  0  0  0  0  0  0  0  0  0
   36.6026   22.3785   31.8255 H   0  0  0  0  0  0  0  0  0  0  0  0
   37.9119   23.1667   30.9581 H   0  0  0  0  0  0  0  0  0  0  0  0
   36.3353   25.0058   30.9681 H   0  0  0  0  0  0  0  0  0  0  0  0
   35.5053   24.5038   32.3819 H   0  0  0  0  0  0  0  0  0  0  0  0
   38.4874   25.6130   32.2491 H   0  0  0  0  0  0  0  0  0  0  0  0
   35.9057   29.6088   32.5971 H   0  0  0  0  0  0  0  0  0  0  0  0
   36.0853   28.9913   35.2239 H   0  0  0  0  0  0  0  0  0  0  0  0
   37.0470   26.5063   35.3457 H   0  0  0  0  0  0  0  0  0  0  0  0
   39.8235   24.6627   34.1234 H   0  0  0  0  0  0  0  0  0  0  0  0
   38.7554   25.9979   34.7371 H   0  0  0  0  0  0  0  0  0  0  0  0
   37.3089   24.4131   38.9977 H   0  0  0  0  0  0  0  0  0  0  0  0
   37.1939   25.4670   36.7349 H   0  0  0  0  0  0  0  0  0  0  0  0
   40.6310   22.0775   37.8303 H   0  0  0  0  0  0  0  0  0  0  0  0
  1 11  1  0
  2  1  1  0
  3  4  1  0
  3  2  1  0
  4  5  1  0
  5  6  1  0
  5  1  1  0
  6 10  1  0
  7  8  2  0
  7  6  1  0
  8  9  1  0
  9 10  2  0
 11 14  1  0
 12 17  2  0
 13 12  1  0
 14 15  1  0
 14 13  2  0
 15 16  2  0
 16 17  1  0
  2 18  1  0
  2 19  1  0
  3 20  1  0
  3 21  1  0
  4 22  1  0
  4 23  1  0
  5 24  1  6
  8 25  1  0
  9 26  1  0
 10 27  1  0
 11 28  1  0
 11 29  1  0
 12 30  1  0
 13 31  1  0
 16 32  1  0
M  ISO  8  18  13  19  13  20  13  21  13  22  13  23  13  24  13  25  14
M  ISO  7  26  14  27  14  28   8  29   8  30  14  31  14  32  14
M  END
>  <minimizedAffinity>  (1) 
-4.39842606

>  <minimizedRMSD>  (1) 
2.62980604

$$$$
