
     RDKit          3D

 32 35  0  0  0  0  0  0  0  0999 V2000
   40.5820   21.9600   37.3230 O   0  0  0  0  0  0  0  0  0  0  0  0
   41.8550   22.0860   36.8080 C   0  0  0  0  0  0  0  0  0  0  0  0
   42.4130   23.2210   36.2390 C   0  0  0  0  0  0  0  0  0  0  0  0
   43.6690   22.9900   35.8450 N   0  0  0  0  0  0  0  0  0  0  0  0
   44.0070   21.7080   36.1260 C   0  0  0  0  0  0  0  0  0  0  0  0
   45.1420   20.9650   35.9400 C   0  0  0  0  0  0  0  0  0  0  0  0
   45.1860   19.6320   36.3470 C   0  0  0  0  0  0  0  0  0  0  0  0
   44.0680   19.0660   36.9440 C   0  0  0  0  0  0  0  0  0  0  0  0
   42.9210   19.8390   37.1250 C   0  0  0  0  0  0  0  0  0  0  0  0
   42.8900   21.1600   36.7170 C   0  0  0  0  0  0  0  0  0  0  0  0
   39.6160   22.9120   37.3060 C   0  0  0  0  0  0  0  0  0  0  0  0
   39.0120   23.2440   38.5190 C   0  0  0  0  0  0  0  0  0  0  0  0
   38.0110   24.2280   38.5160 C   0  0  0  0  0  0  0  0  0  0  0  0
   37.6780   24.8060   37.3460 N   0  0  0  0  0  0  0  0  0  0  0  0
   38.2900   24.4570   36.1770 C   0  0  0  0  0  0  0  0  0  0  0  0
   39.2410   23.5240   36.1740 N   0  0  0  0  0  0  0  0  0  0  0  0
   37.9130   25.0900   34.9590 N   0  0  0  0  0  0  0  0  0  0  0  0
   37.9020   24.8320   33.6620 N   0  0  0  0  0  0  0  0  0  0  0  0
   37.4040   25.8700   32.9870 C   0  0  0  0  0  0  0  0  0  0  0  0
   37.0700   26.8660   33.9050 C   0  0  0  0  0  0  0  0  0  0  0  0
   37.4070   26.3360   35.1490 C   0  0  0  0  0  0  0  0  0  0  0  0
   41.8914   24.1830   36.1269 H   0  0  0  0  0  0  0  0  0  0  0  0
   44.2864   23.6814   35.3959 H   0  0  0  0  0  0  0  0  0  0  0  0
   46.0237   21.4220   35.4670 H   0  0  0  0  0  0  0  0  0  0  0  0
   46.0976   19.0350   36.1965 H   0  0  0  0  0  0  0  0  0  0  0  0
   44.0863   18.0161   37.2718 H   0  0  0  0  0  0  0  0  0  0  0  0
   42.0327   19.3936   37.5968 H   0  0  0  0  0  0  0  0  0  0  0  0
   39.3124   22.7475   39.4535 H   0  0  0  0  0  0  0  0  0  0  0  0
   37.5089   24.5210   39.4499 H   0  0  0  0  0  0  0  0  0  0  0  0
   37.2786   25.9299   31.8958 H   0  0  0  0  0  0  0  0  0  0  0  0
   36.6355   27.8541   33.6931 H   0  0  0  0  0  0  0  0  0  0  0  0
   37.2842   26.8404   36.1188 H   0  0  0  0  0  0  0  0  0  0  0  0
  2  1  1  0
  3  2  2  0
  4  5  1  0
  4  3  1  0
  5 10  2  0
  6  5  1  0
  6  7  2  0
  7  8  1  0
  8  9  2  0
 10  2  1  0
 10  9  1  0
 11  1  1  0
 11 12  2  0
 13 12  1  0
 14 13  2  0
 15 14  1  0
 16 15  2  0
 16 11  1  0
 17 21  1  0
 17 15  1  0
 18 17  1  0
 19 18  2  0
 19 20  1  0
 20 21  2  0
  3 22  1  0
  4 23  1  0
  6 24  1  0
  7 25  1  0
  8 26  1  0
  9 27  1  0
 12 28  1  0
 13 29  1  0
 19 30  1  0
 20 31  1  0
 21 32  1  0
M  ISO  8  22  14  23   9  24  14  25  14  26  14  27  14  28  14  29  14
M  ISO  3  30  14  31  14  32  14
M  END
>  <minimizedAffinity>  (1) 
-5.40903854

>  <minimizedRMSD>  (1) 
1.06231499

$$$$
