
     RDKit          3D

 40 43  0  0  1  0  0  0  0  0999 V2000
   44.2820   23.5830   35.7240 C   0  0  1  0  0  0  0  0  0  0  0  0
   44.1550   23.4530   34.2330 C   0  0  0  0  0  0  0  0  0  0  0  0
   45.0040   24.4190   33.4640 C   0  0  0  0  0  0  0  0  0  0  0  0
   45.0450   25.7640   34.1150 C   0  0  0  0  0  0  0  0  0  0  0  0
   43.9070   25.9410   35.0530 C   0  0  0  0  0  0  0  0  0  0  0  0
   44.0410   24.9930   36.2240 C   0  0  2  0  0  0  0  0  0  0  0  0
   42.5440   20.6390   37.0260 C   0  0  0  0  0  0  0  0  0  0  0  0
   41.2790   21.1260   37.3360 C   0  0  0  0  0  0  0  0  0  0  0  0
   40.9960   22.4580   37.1080 C   0  0  0  0  0  0  0  0  0  0  0  0
   41.9990   23.2410   36.5790 N   0  0  0  0  0  0  0  0  0  0  0  0
   43.1960   22.7320   36.2980 C   0  0  0  0  0  0  0  0  0  0  0  0
   43.4680   21.4590   36.5140 N   0  0  0  0  0  0  0  0  0  0  0  0
   39.6660   22.9760   37.4310 C   0  0  0  0  0  0  0  0  0  0  0  0
   38.8740   23.7290   36.5610 C   0  0  0  0  0  0  0  0  0  0  0  0
   37.7320   23.9940   37.2630 N   0  0  0  0  0  0  0  0  0  0  0  0
   37.8600   23.4230   38.4670 C   0  0  0  0  0  0  0  0  0  0  0  0
   39.0030   22.8000   38.6170 N   0  0  0  0  0  0  0  0  0  0  0  0
   45.0670   25.4100   37.1610 N   0  0  0  0  0  0  0  0  0  0  0  0
   46.3840   25.4070   36.9740 N   0  0  0  0  0  0  0  0  0  0  0  0
   47.0130   25.8600   38.0580 C   0  0  0  0  0  0  0  0  0  0  0  0
   46.0180   26.1680   38.9840 C   0  0  0  0  0  0  0  0  0  0  0  0
   44.7900   25.8720   38.3890 C   0  0  0  0  0  0  0  0  0  0  0  0
   45.3023   23.2944   36.0169 H   0  0  0  0  0  0  0  0  0  0  0  0
   44.4482   22.4317   33.9483 H   0  0  0  0  0  0  0  0  0  0  0  0
   43.1081   23.6780   33.9813 H   0  0  0  0  0  0  0  0  0  0  0  0
   44.5911   24.5268   32.4502 H   0  0  0  0  0  0  0  0  0  0  0  0
   46.0298   24.0229   33.4337 H   0  0  0  0  0  0  0  0  0  0  0  0
   45.9882   25.8645   34.6720 H   0  0  0  0  0  0  0  0  0  0  0  0
   44.9737   26.5328   33.3315 H   0  0  0  0  0  0  0  0  0  0  0  0
   43.8995   26.9767   35.4234 H   0  0  0  0  0  0  0  0  0  0  0  0
   42.9682   25.7243   34.5222 H   0  0  0  0  0  0  0  0  0  0  0  0
   43.0934   25.0129   36.7823 H   0  0  0  0  0  0  0  0  0  0  0  0
   42.7845   19.5801   37.2018 H   0  0  0  0  0  0  0  0  0  0  0  0
   40.5132   20.4583   37.7577 H   0  0  0  0  0  0  0  0  0  0  0  0
   39.1167   24.0407   35.5344 H   0  0  0  0  0  0  0  0  0  0  0  0
   37.0871   23.4717   39.2482 H   0  0  0  0  0  0  0  0  0  0  0  0
   39.3322   22.2880   39.4479 H   0  0  0  0  0  0  0  0  0  0  0  0
   48.0991   25.9689   38.1945 H   0  0  0  0  0  0  0  0  0  0  0  0
   46.1717   26.5699   39.9963 H   0  0  0  0  0  0  0  0  0  0  0  0
   43.7934   25.9936   38.8383 H   0  0  0  0  0  0  0  0  0  0  0  0
  1  6  1  0
  1 11  1  0
  2  1  1  0
  3  4  1  0
  3  2  1  0
  4  5  1  0
  5  6  1  0
  6 18  1  0
  7  8  2  0
  9  8  1  0
  9 13  1  0
 10  9  2  0
 11 12  2  0
 11 10  1  0
 12  7  1  0
 13 17  1  0
 14 15  1  0
 14 13  2  0
 15 16  2  0
 16 17  1  0
 18 22  1  0
 19 18  1  0
 19 20  2  0
 20 21  1  0
 22 21  2  0
  1 23  1  1
  2 24  1  0
  2 25  1  0
  3 26  1  0
  3 27  1  0
  4 28  1  0
  4 29  1  0
  5 30  1  0
  5 31  1  0
  6 32  1  1
  7 33  1  0
  8 34  1  0
 14 35  1  0
 16 36  1  0
 17 37  1  0
 20 38  1  0
 21 39  1  0
 22 40  1  0
M  ISO  8  23  13  24  13  25  13  26  13  27  13  28  13  29  13  30  13
M  ISO  8  31  13  32  13  33  14  34  14  35  14  36  14  37   9  38  14
M  ISO  2  39  14  40  14
M  END
>  <minimizedAffinity>  (1) 
-5.42953968

>  <minimizedRMSD>  (1) 
3.91410303

$$$$
