
     RDKit          3D

 40 44  0  0  0  0  0  0  0  0999 V2000
   44.9480   24.7840   37.1010 N   0  0  0  0  0  0  0  0  0  0  0  0
   44.5720   25.5940   38.0920 N   0  0  0  0  0  0  0  0  0  0  0  0
   45.5250   25.8210   38.9610 C   0  0  0  0  0  0  0  0  0  0  0  0
   46.6550   25.1280   38.5670 C   0  0  0  0  0  0  0  0  0  0  0  0
   46.2440   24.4840   37.3820 C   0  0  0  0  0  0  0  0  0  0  0  0
   47.1430   23.5990   36.5740 C   0  0  0  0  0  0  0  0  0  0  0  0
   48.0940   24.1760   35.6830 C   0  0  0  0  0  0  0  0  0  0  0  0
   48.9070   22.7080   34.9690 S   0  0  0  0  0  0  0  0  0  0  0  0
   47.8100   21.5440   36.0110 C   0  0  0  0  0  0  0  0  0  0  0  0
   47.1780   22.2720   36.5740 N   0  0  0  0  0  0  0  0  0  0  0  0
   47.9110   20.1200   35.9540 N   0  0  0  0  0  0  0  0  0  0  0  0
   47.0430   19.3770   36.6550 N   0  0  0  0  0  0  0  0  0  0  0  0
   47.3220   18.0650   36.4540 C   0  0  0  0  0  0  0  0  0  0  0  0
   48.4020   18.0510   35.5960 C   0  0  0  0  0  0  0  0  0  0  0  0
   48.7900   19.3330   35.2670 C   0  0  0  0  0  0  0  0  0  0  0  0
   44.2090   24.2970   35.9670 C   0  0  0  0  0  0  0  0  0  0  0  0
   41.0610   22.4860   37.0070 C   0  0  0  0  0  0  0  0  0  0  0  0
   41.9440   23.4820   36.6460 C   0  0  0  0  0  0  0  0  0  0  0  0
   43.2740   23.1980   36.3550 C   0  0  0  0  0  0  0  0  0  0  0  0
   43.6430   21.8820   36.4490 N   0  0  0  0  0  0  0  0  0  0  0  0
   42.7650   20.9170   36.8040 C   0  0  0  0  0  0  0  0  0  0  0  0
   41.4960   21.2480   37.0730 N   0  0  0  0  0  0  0  0  0  0  0  0
   39.6730   22.8570   37.3000 C   0  0  0  0  0  0  0  0  0  0  0  0
   38.6520   22.8550   36.3690 C   0  0  0  0  0  0  0  0  0  0  0  0
   37.5580   23.2630   37.0800 C   0  0  0  0  0  0  0  0  0  0  0  0
   37.9270   23.4930   38.3790 C   0  0  0  0  0  0  0  0  0  0  0  0
   39.2140   23.2310   38.4520 O   0  0  0  0  0  0  0  0  0  0  0  0
   45.4408   26.4566   39.8548 H   0  0  0  0  0  0  0  0  0  0  0  0
   47.6378   25.0887   39.0595 H   0  0  0  0  0  0  0  0  0  0  0  0
   48.2886   25.2390   35.4777 H   0  0  0  0  0  0  0  0  0  0  0  0
   46.7990   17.1977   36.8833 H   0  0  0  0  0  0  0  0  0  0  0  0
   48.8894   17.1380   35.2234 H   0  0  0  0  0  0  0  0  0  0  0  0
   49.6125   19.6469   34.6075 H   0  0  0  0  0  0  0  0  0  0  0  0
   44.9166   23.9161   35.2158 H   0  0  0  0  0  0  0  0  0  0  0  0
   43.6151   25.1280   35.5588 H   0  0  0  0  0  0  0  0  0  0  0  0
   41.5893   24.5216   36.5871 H   0  0  0  0  0  0  0  0  0  0  0  0
   43.0907   19.8685   36.8712 H   0  0  0  0  0  0  0  0  0  0  0  0
   38.7067   22.5873   35.3035 H   0  0  0  0  0  0  0  0  0  0  0  0
   36.5433   23.3868   36.6738 H   0  0  0  0  0  0  0  0  0  0  0  0
   37.2758   23.8301   39.1990 H   0  0  0  0  0  0  0  0  0  0  0  0
  1  5  1  0
  1  2  1  0
  2  3  2  0
  4  3  1  0
  5  4  2  0
  6 10  1  0
  6  5  1  0
  7  6  2  0
  8  7  1  0
  8  9  1  0
  9 10  2  0
 11  9  1  0
 11 12  1  0
 13 12  2  0
 14 13  1  0
 15 14  2  0
 15 11  1  0
 16 19  1  0
 16  1  1  0
 17 22  1  0
 17 23  1  0
 18 17  2  0
 19 20  2  0
 19 18  1  0
 20 21  1  0
 21 22  2  0
 23 27  1  0
 24 25  1  0
 24 23  2  0
 25 26  2  0
 26 27  1  0
  3 28  1  0
  4 29  1  0
  7 30  1  0
 13 31  1  0
 14 32  1  0
 15 33  1  0
 16 34  1  0
 16 35  1  0
 18 36  1  0
 21 37  1  0
 24 38  1  0
 25 39  1  0
 26 40  1  0
M  ISO  8  28  14  29  14  30  14  31  14  32  14  33  14  34   8  35   8
M  ISO  5  36  14  37  14  38  14  39  14  40  14
M  END
>  <minimizedAffinity>  (1) 
-5.1302042

>  <minimizedRMSD>  (1) 
0.120503381

$$$$
