
     RDKit          3D

 42 46  0  0  0  0  0  0  0  0999 V2000
   40.4150   23.9530   35.0410 C   0  0  0  0  0  0  0  0  0  0  0  0
   41.2900   22.8810   35.1820 C   0  0  0  0  0  0  0  0  0  0  0  0
   41.1210   22.2770   36.3710 N   0  0  0  0  0  0  0  0  0  0  0  0
   40.1350   22.9120   37.0720 C   0  0  0  0  0  0  0  0  0  0  0  0
   39.5870   22.7000   38.3090 C   0  0  0  0  0  0  0  0  0  0  0  0
   38.5690   23.5380   38.7580 C   0  0  0  0  0  0  0  0  0  0  0  0
   38.1360   24.5780   37.9290 C   0  0  0  0  0  0  0  0  0  0  0  0
   38.7070   24.7730   36.6790 C   0  0  0  0  0  0  0  0  0  0  0  0
   39.7140   23.9340   36.2470 C   0  0  0  0  0  0  0  0  0  0  0  0
   38.2070   25.8540   35.8970 N   0  0  0  0  0  0  0  0  0  0  0  0
   37.1640   25.7120   35.0900 N   0  0  0  0  0  0  0  0  0  0  0  0
   36.8990   26.8900   34.4680 C   0  0  0  0  0  0  0  0  0  0  0  0
   37.8500   27.7940   34.9370 C   0  0  0  0  0  0  0  0  0  0  0  0
   38.6580   27.1200   35.8320 C   0  0  0  0  0  0  0  0  0  0  0  0
   40.3010   24.8010   33.9640 O   0  0  0  0  0  0  0  0  0  0  0  0
   39.4650   24.6200   32.8950 C   0  0  0  0  0  0  0  0  0  0  0  0
   39.4950   25.5730   31.8860 C   0  0  0  0  0  0  0  0  0  0  0  0
   38.6350   25.3930   30.7810 C   0  0  0  0  0  0  0  0  0  0  0  0
   37.8360   24.3130   30.7610 N   0  0  0  0  0  0  0  0  0  0  0  0
   37.8330   23.3960   31.7700 C   0  0  0  0  0  0  0  0  0  0  0  0
   38.6380   23.5610   32.8120 N   0  0  0  0  0  0  0  0  0  0  0  0
   37.0170   22.2310   31.8200 N   0  0  0  0  0  0  0  0  0  0  0  0
   37.5640   21.0060   32.0200 C   0  0  0  0  0  0  0  0  0  0  0  0
   36.7110   19.9100   32.0580 C   0  0  0  0  0  0  0  0  0  0  0  0
   35.3330   20.0630   31.8980 C   0  0  0  0  0  0  0  0  0  0  0  0
   34.5590   19.0670   31.9330 O   0  0  0  0  0  0  0  0  0  0  0  0
   34.8360   21.2880   31.7040 N   0  0  0  0  0  0  0  0  0  0  0  0
   35.6670   22.3550   31.6670 C   0  0  0  0  0  0  0  0  0  0  0  0
   35.2250   23.5080   31.4870 O   0  0  0  0  0  0  0  0  0  0  0  0
   42.0221   22.5693   34.4225 H   0  0  0  0  0  0  0  0  0  0  0  0
   41.6535   21.4602   36.7029 H   0  0  0  0  0  0  0  0  0  0  0  0
   39.9474   21.8757   38.9420 H   0  0  0  0  0  0  0  0  0  0  0  0
   38.1135   23.3845   39.7474 H   0  0  0  0  0  0  0  0  0  0  0  0
   37.3342   25.2487   38.2714 H   0  0  0  0  0  0  0  0  0  0  0  0
   36.0971   27.0897   33.7420 H   0  0  0  0  0  0  0  0  0  0  0  0
   37.9408   28.8513   34.6474 H   0  0  0  0  0  0  0  0  0  0  0  0
   39.5100   27.5394   36.3872 H   0  0  0  0  0  0  0  0  0  0  0  0
   40.1678   26.4412   31.9456 H   0  0  0  0  0  0  0  0  0  0  0  0
   38.6194   26.1200   29.9556 H   0  0  0  0  0  0  0  0  0  0  0  0
   38.6497   20.8841   32.1482 H   0  0  0  0  0  0  0  0  0  0  0  0
   37.1287   18.9049   32.2168 H   0  0  0  0  0  0  0  0  0  0  0  0
   33.8217   21.4198   31.5828 H   0  0  0  0  0  0  0  0  0  0  0  0
  1  2  2  0
  1  9  1  0
  2  3  1  0
  3  4  1  0
  4  5  2  0
  5  6  1  0
  7  6  2  0
  8  7  1  0
  9  8  2  0
  9  4  1  0
 10  8  1  0
 11 10  1  0
 12 13  1  0
 12 11  2  0
 13 14  2  0
 14 10  1  0
 15  1  1  0
 16 15  1  0
 17 16  2  0
 18 17  1  0
 19 18  2  0
 19 20  1  0
 20 22  1  0
 20 21  2  0
 21 16  1  0
 22 23  1  0
 23 24  2  0
 25 26  2  0
 25 24  1  0
 27 25  1  0
 28 27  1  0
 28 22  1  0
 29 28  2  0
  2 30  1  0
  3 31  1  0
  5 32  1  0
  6 33  1  0
  7 34  1  0
 12 35  1  0
 13 36  1  0
 14 37  1  0
 17 38  1  0
 18 39  1  0
 23 40  1  0
 24 41  1  0
 27 42  1  0
M  ISO  8  30  14  31   9  32  14  33  14  34  14  35  14  36  14  37  14
M  ISO  5  38  14  39  14  40  14  41  14  42   9
M  END
>  <minimizedAffinity>  (1) 
-6.06720924

>  <minimizedRMSD>  (1) 
5.87960291

$$$$
