
     RDKit          3D

 27 30  0  0  0  0  0  0  0  0999 V2000
   37.8000   25.1000   34.4200 C   0  0  0  0  0  0  0  0  0  0  0  0
   38.2840   25.3850   35.6960 C   0  0  0  0  0  0  0  0  0  0  0  0
   38.3100   26.7150   36.0980 C   0  0  0  0  0  0  0  0  0  0  0  0
   37.8720   27.6890   35.2540 N   0  0  0  0  0  0  0  0  0  0  0  0
   37.4080   27.3710   34.0220 C   0  0  0  0  0  0  0  0  0  0  0  0
   37.3740   26.0960   33.6120 N   0  0  0  0  0  0  0  0  0  0  0  0
   37.7380   23.7650   33.9270 N   0  0  0  0  0  0  0  0  0  0  0  0
   37.7070   23.5410   32.5800 C   0  0  0  0  0  0  0  0  0  0  0  0
   37.6490   22.2170   32.3300 N   0  0  0  0  0  0  0  0  0  0  0  0
   37.6450   21.6160   33.5240 C   0  0  0  0  0  0  0  0  0  0  0  0
   37.6980   22.5610   34.4810 N   0  0  0  0  0  0  0  0  0  0  0  0
   38.7280   24.3670   36.5430 N   0  0  0  0  0  0  0  0  0  0  0  0
   38.0940   23.8910   37.6190 C   0  0  0  0  0  0  0  0  0  0  0  0
   38.7980   22.9080   38.2130 N   0  0  0  0  0  0  0  0  0  0  0  0
   39.9210   22.7520   37.4900 C   0  0  0  0  0  0  0  0  0  0  0  0
   41.0100   21.9200   37.5940 C   0  0  0  0  0  0  0  0  0  0  0  0
   42.0430   21.9400   36.7350 N   0  0  0  0  0  0  0  0  0  0  0  0
   41.9610   22.8510   35.7240 C   0  0  0  0  0  0  0  0  0  0  0  0
   40.8950   23.6530   35.6350 N   0  0  0  0  0  0  0  0  0  0  0  0
   39.8640   23.6680   36.4520 C   0  0  0  0  0  0  0  0  0  0  0  0
   38.6843   26.9805   37.0977 H   0  0  0  0  0  0  0  0  0  0  0  0
   37.0553   28.1680   33.3509 H   0  0  0  0  0  0  0  0  0  0  0  0
   37.7265   24.3268   31.8105 H   0  0  0  0  0  0  0  0  0  0  0  0
   37.6051   20.5302   33.6958 H   0  0  0  0  0  0  0  0  0  0  0  0
   37.1194   24.2562   37.9750 H   0  0  0  0  0  0  0  0  0  0  0  0
   41.0374   21.1994   38.4247 H   0  0  0  0  0  0  0  0  0  0  0  0
   42.7704   22.9260   34.9829 H   0  0  0  0  0  0  0  0  0  0  0  0
  1  2  1  0
  2  3  2  0
  2 12  1  0
  4  3  1  0
  5  4  2  0
  6  5  1  0
  6  1  2  0
  7  1  1  0
  7 11  1  0
  8  7  1  0
  9  8  2  0
  9 10  1  0
 10 11  2  0
 12 13  1  0
 13 14  2  0
 15 16  2  0
 15 14  1  0
 17 16  1  0
 18 17  2  0
 19 18  1  0
 19 20  2  0
 20 12  1  0
 20 15  1  0
  3 21  1  0
  5 22  1  0
  8 23  1  0
 10 24  1  0
 13 25  1  0
 16 26  1  0
 18 27  1  0
M  ISO  7  21  14  22  14  23  14  24  14  25  14  26  14  27  14
M  END
>  <minimizedAffinity>  (1) 
-4.95129156

>  <minimizedRMSD>  (1) 
0.286675334

$$$$
