
     RDKit          3D

 41 45  0  0  0  0  0  0  0  0999 V2000
   41.5220   22.0070   36.2110 O   0  0  0  0  0  0  0  0  0  0  0  0
   40.2010   22.2840   36.3990 C   0  0  0  0  0  0  0  0  0  0  0  0
   39.8420   22.9830   37.5490 C   0  0  0  0  0  0  0  0  0  0  0  0
   38.4720   23.2680   37.7390 C   0  0  0  0  0  0  0  0  0  0  0  0
   37.5900   22.8620   36.8210 N   0  0  0  0  0  0  0  0  0  0  0  0
   37.9820   22.1810   35.7110 C   0  0  0  0  0  0  0  0  0  0  0  0
   39.2670   21.9030   35.5120 N   0  0  0  0  0  0  0  0  0  0  0  0
   37.1010   21.7120   34.6830 N   0  0  0  0  0  0  0  0  0  0  0  0
   37.3310   22.0350   33.3780 C   0  0  0  0  0  0  0  0  0  0  0  0
   36.4300   21.5420   32.4290 C   0  0  0  0  0  0  0  0  0  0  0  0
   35.3430   20.7540   32.8010 C   0  0  0  0  0  0  0  0  0  0  0  0
   34.5310   20.3110   31.9370 O   0  0  0  0  0  0  0  0  0  0  0  0
   35.1630   20.4660   34.0970 N   0  0  0  0  0  0  0  0  0  0  0  0
   36.0310   20.9410   35.0230 C   0  0  0  0  0  0  0  0  0  0  0  0
   35.8790   20.6820   36.2390 O   0  0  0  0  0  0  0  0  0  0  0  0
   42.5260   22.9340   36.0360 C   0  0  0  0  0  0  0  0  0  0  0  0
   42.3820   24.2940   35.9240 C   0  0  0  0  0  0  0  0  0  0  0  0
   43.5890   24.8790   35.7620 N   0  0  0  0  0  0  0  0  0  0  0  0
   44.5620   23.9250   35.7620 C   0  0  0  0  0  0  0  0  0  0  0  0
   45.9240   23.9840   35.6340 C   0  0  0  0  0  0  0  0  0  0  0  0
   46.6770   22.8370   35.6720 C   0  0  0  0  0  0  0  0  0  0  0  0
   46.0230   21.6230   35.8420 C   0  0  0  0  0  0  0  0  0  0  0  0
   44.6330   21.5530   35.9730 C   0  0  0  0  0  0  0  0  0  0  0  0
   43.9100   22.7280   35.9300 C   0  0  0  0  0  0  0  0  0  0  0  0
   44.0110   20.2700   36.1480 N   0  0  0  0  0  0  0  0  0  0  0  0
   43.7480   19.5000   35.0500 C   0  0  0  0  0  0  0  0  0  0  0  0
   43.1700   18.3530   35.4460 N   0  0  0  0  0  0  0  0  0  0  0  0
   43.0990   18.4660   36.8040 C   0  0  0  0  0  0  0  0  0  0  0  0
   43.6100   19.6330   37.2350 N   0  0  0  0  0  0  0  0  0  0  0  0
   40.5977   23.3013   38.2822 H   0  0  0  0  0  0  0  0  0  0  0  0
   38.1354   23.8169   38.6308 H   0  0  0  0  0  0  0  0  0  0  0  0
   38.1893   22.6572   33.0843 H   0  0  0  0  0  0  0  0  0  0  0  0
   36.5827   21.7814   31.3663 H   0  0  0  0  0  0  0  0  0  0  0  0
   34.3652   19.8838   34.3894 H   0  0  0  0  0  0  0  0  0  0  0  0
   41.4224   24.8305   35.9608 H   0  0  0  0  0  0  0  0  0  0  0  0
   43.7491   25.8908   35.6549 H   0  0  0  0  0  0  0  0  0  0  0  0
   46.4182   24.9575   35.4998 H   0  0  0  0  0  0  0  0  0  0  0  0
   47.7715   22.8779   35.5703 H   0  0  0  0  0  0  0  0  0  0  0  0
   46.6129   20.6951   35.8743 H   0  0  0  0  0  0  0  0  0  0  0  0
   43.9732   19.7749   34.0090 H   0  0  0  0  0  0  0  0  0  0  0  0
   42.6753   17.6962   37.4658 H   0  0  0  0  0  0  0  0  0  0  0  0
  1  2  1  0
  2  3  2  0
  3  4  1  0
  5  4  2  0
  6  5  1  0
  7  6  2  0
  7  2  1  0
  8 14  1  0
  8  6  1  0
  9  8  1  0
 10 11  1  0
 10  9  2  0
 11 13  1  0
 12 11  2  0
 13 14  1  0
 14 15  2  0
 16  1  1  0
 17 16  2  0
 18 19  1  0
 18 17  1  0
 19 24  2  0
 20 21  2  0
 20 19  1  0
 21 22  1  0
 22 23  2  0
 23 25  1  0
 24 23  1  0
 24 16  1  0
 25 29  1  0
 26 27  2  0
 26 25  1  0
 27 28  1  0
 28 29  2  0
  3 30  1  0
  4 31  1  0
  9 32  1  0
 10 33  1  0
 13 34  1  0
 17 35  1  0
 18 36  1  0
 20 37  1  0
 21 38  1  0
 22 39  1  0
 26 40  1  0
 28 41  1  0
M  ISO  8  30  14  31  14  32  14  33  14  34   9  35  14  36   9  37  14
M  ISO  4  38  14  39  14  40  14  41  14
M  END
>  <minimizedAffinity>  (1) 
-5.66076469

>  <minimizedRMSD>  (1) 
2.29120684

$$$$
