
     RDKit          3D

 32 34  0  0  1  0  0  0  0  0999 V2000
   37.9150   25.6120   35.2740 C   0  0  1  0  0  0  0  0  0  0  0  0
   38.5990   23.4680   38.3230 C   0  0  0  0  0  0  0  0  0  0  0  0
   37.9550   24.4130   37.5070 C   0  0  0  0  0  0  0  0  0  0  0  0
   38.5140   24.6220   36.2040 C   0  0  0  0  0  0  0  0  0  0  0  0
   39.6260   23.9040   35.8360 N   0  0  0  0  0  0  0  0  0  0  0  0
   40.2020   23.0220   36.6380 C   0  0  0  0  0  0  0  0  0  0  0  0
   39.6840   22.8030   37.8940 N   0  0  0  0  0  0  0  0  0  0  0  0
   38.1350   27.0230   35.7590 C   0  0  0  0  0  0  0  0  0  0  0  0
   38.4300   25.4640   33.8720 C   0  0  0  0  0  0  0  0  0  0  0  0
   37.5360   24.7980   33.0140 N   0  0  0  0  0  0  0  0  0  0  0  0
   37.2200   23.5190   32.7650 C   0  0  0  0  0  0  0  0  0  0  0  0
   36.2510   23.3320   31.8070 C   0  0  0  0  0  0  0  0  0  0  0  0
   35.9430   24.5860   31.4320 N   0  0  0  0  0  0  0  0  0  0  0  0
   36.7060   25.4440   32.1490 C   0  0  0  0  0  0  0  0  0  0  0  0
   36.5150   26.8360   31.8840 N   0  0  0  0  0  0  0  0  0  0  0  0
   35.5650   27.7780   32.0220 C   0  0  0  0  0  0  0  0  0  0  0  0
   36.0420   28.9450   31.5510 N   0  0  0  0  0  0  0  0  0  0  0  0
   37.2980   28.7470   31.1130 C   0  0  0  0  0  0  0  0  0  0  0  0
   37.5750   27.4320   31.3260 N   0  0  0  0  0  0  0  0  0  0  0  0
   36.8346   25.4061   35.2571 H   0  0  0  0  0  0  0  0  0  0  0  0
   38.2075   23.2692   39.3315 H   0  0  0  0  0  0  0  0  0  0  0  0
   37.0672   24.9642   37.8505 H   0  0  0  0  0  0  0  0  0  0  0  0
   41.0903   22.4670   36.3020 H   0  0  0  0  0  0  0  0  0  0  0  0
   38.1371   27.0365   36.8589 H   0  0  0  0  0  0  0  0  0  0  0  0
   39.1016   27.3924   35.3859 H   0  0  0  0  0  0  0  0  0  0  0  0
   37.3268   27.6692   35.3859 H   0  0  0  0  0  0  0  0  0  0  0  0
   38.6224   26.4672   33.4639 H   0  0  0  0  0  0  0  0  0  0  0  0
   39.3435   24.8535   33.9252 H   0  0  0  0  0  0  0  0  0  0  0  0
   37.7010   22.6799   33.2890 H   0  0  0  0  0  0  0  0  0  0  0  0
   35.8299   22.3855   31.4371 H   0  0  0  0  0  0  0  0  0  0  0  0
   34.5636   27.6206   32.4492 H   0  0  0  0  0  0  0  0  0  0  0  0
   37.9682   29.4987   30.6705 H   0  0  0  0  0  0  0  0  0  0  0  0
  1  8  1  0
  1  4  1  0
  3  2  2  0
  4  3  1  0
  5  4  2  0
  5  6  1  0
  6  7  2  0
  7  2  1  0
  9  1  1  0
 10  9  1  0
 11 10  1  0
 12 11  2  0
 13 12  1  0
 13 14  2  0
 14 10  1  0
 15 16  1  0
 15 14  1  0
 17 16  2  0
 18 19  2  0
 18 17  1  0
 19 15  1  0
  1 20  1  6
  2 21  1  0
  3 22  1  0
  6 23  1  0
  8 24  1  0
  8 25  1  0
  8 26  1  0
  9 27  1  0
  9 28  1  0
 11 29  1  0
 12 30  1  0
 16 31  1  0
 18 32  1  0
M  ISO  8  20   8  21  14  22  14  23  14  24   8  25   8  26   8  27   8
M  ISO  5  28   8  29  14  30  14  31  14  32  14
M  END
>  <minimizedAffinity>  (1) 
-4.90662813

>  <minimizedRMSD>  (1) 
3.52880764

$$$$
