
     RDKit          3D

 35 38  0  0  0  0  0  0  0  0999 V2000
   39.2210   24.7730   34.6680 C   0  0  0  0  0  0  0  0  0  0  0  0
   40.2500   24.2450   33.9120 C   0  0  0  0  0  0  0  0  0  0  0  0
   41.0800   23.2850   34.4100 C   0  0  0  0  0  0  0  0  0  0  0  0
   40.9240   22.7950   35.7070 C   0  0  0  0  0  0  0  0  0  0  0  0
   39.8870   23.3220   36.4810 C   0  0  0  0  0  0  0  0  0  0  0  0
   39.7300   22.8430   37.7600 C   0  0  0  0  0  0  0  0  0  0  0  0
   38.7170   23.3330   38.5650 C   0  0  0  0  0  0  0  0  0  0  0  0
   37.8680   24.3100   38.0650 C   0  0  0  0  0  0  0  0  0  0  0  0
   38.0620   24.7600   36.7760 C   0  0  0  0  0  0  0  0  0  0  0  0
   39.0630   24.2990   35.9360 C   0  0  0  0  0  0  0  0  0  0  0  0
   38.3340   25.8180   34.1620 C   0  0  0  0  0  0  0  0  0  0  0  0
   35.9980   25.9410   31.3380 C   0  0  0  0  0  0  0  0  0  0  0  0
   35.7140   24.6110   31.0680 C   0  0  0  0  0  0  0  0  0  0  0  0
   36.3320   23.6240   31.8780 C   0  0  0  0  0  0  0  0  0  0  0  0
   37.1730   24.0310   32.8770 N   0  0  0  0  0  0  0  0  0  0  0  0
   37.4110   25.3310   33.0910 C   0  0  0  0  0  0  0  0  0  0  0  0
   36.8340   26.2820   32.3360 N   0  0  0  0  0  0  0  0  0  0  0  0
   36.1460   22.2220   31.7310 N   0  0  0  0  0  0  0  0  0  0  0  0
   36.7370   21.2150   31.0640 C   0  0  0  0  0  0  0  0  0  0  0  0
   36.0940   20.0590   31.3220 N   0  0  0  0  0  0  0  0  0  0  0  0
   35.0740   20.3560   32.1740 C   0  0  0  0  0  0  0  0  0  0  0  0
   35.1270   21.6940   32.4110 N   0  0  0  0  0  0  0  0  0  0  0  0
   40.4030   24.6076   32.8848 H   0  0  0  0  0  0  0  0  0  0  0  0
   41.8881   22.8892   33.7772 H   0  0  0  0  0  0  0  0  0  0  0  0
   41.5947   22.0201   36.1066 H   0  0  0  0  0  0  0  0  0  0  0  0
   40.4108   22.0690   38.1440 H   0  0  0  0  0  0  0  0  0  0  0  0
   38.5863   22.9527   39.5889 H   0  0  0  0  0  0  0  0  0  0  0  0
   37.0559   24.7177   38.6849 H   0  0  0  0  0  0  0  0  0  0  0  0
   37.3801   25.5325   36.3909 H   0  0  0  0  0  0  0  0  0  0  0  0
   37.7303   26.2008   34.9980 H   0  0  0  0  0  0  0  0  0  0  0  0
   38.9666   26.6021   33.7205 H   0  0  0  0  0  0  0  0  0  0  0  0
   35.5331   26.7291   30.7274 H   0  0  0  0  0  0  0  0  0  0  0  0
   35.0316   24.3303   30.2522 H   0  0  0  0  0  0  0  0  0  0  0  0
   37.6131   21.3191   30.4070 H   0  0  0  0  0  0  0  0  0  0  0  0
   34.3443   19.6468   32.5920 H   0  0  0  0  0  0  0  0  0  0  0  0
  1 10  2  0
  2  3  2  0
  2  1  1  0
  3  4  1  0
  4  5  2  0
  5  6  1  0
  6  7  2  0
  8  7  1  0
  9  8  2  0
 10  5  1  0
 10  9  1  0
 11  1  1  0
 12 17  2  0
 13 12  1  0
 13 14  2  0
 14 15  1  0
 15 16  2  0
 16 11  1  0
 17 16  1  0
 18 14  1  0
 18 22  1  0
 19 20  2  0
 19 18  1  0
 20 21  1  0
 21 22  2  0
  2 23  1  0
  3 24  1  0
  4 25  1  0
  6 26  1  0
  7 27  1  0
  8 28  1  0
  9 29  1  0
 11 30  1  0
 11 31  1  0
 12 32  1  0
 13 33  1  0
 19 34  1  0
 21 35  1  0
M  ISO  8  23  14  24  14  25  14  26  14  27  14  28  14  29  14  30   8
M  ISO  5  31   8  32  14  33  14  34  14  35  14
M  END
>  <minimizedAffinity>  (1) 
-5.89241457

>  <minimizedRMSD>  (1) 
2.93324518

$$$$
