
     RDKit          3D

 45 50  0  0  1  0  0  0  0  0999 V2000
   39.5730   22.9080   37.2620 C   0  0  0  0  0  0  0  0  0  0  0  0
   39.0550   23.2830   38.5090 C   0  0  0  0  0  0  0  0  0  0  0  0
   38.1250   24.3110   38.5420 C   0  0  0  0  0  0  0  0  0  0  0  0
   37.7550   24.9070   37.3970 N   0  0  0  0  0  0  0  0  0  0  0  0
   38.2850   24.5120   36.1930 C   0  0  0  0  0  0  0  0  0  0  0  0
   39.1770   23.5300   36.1270 N   0  0  0  0  0  0  0  0  0  0  0  0
   37.8520   25.1870   35.0360 N   0  0  0  0  0  0  0  0  0  0  0  0
   37.3990   26.4410   35.2780 C   0  0  0  0  0  0  0  0  0  0  0  0
   36.9900   26.9930   34.0480 C   0  0  0  0  0  0  0  0  0  0  0  0
   37.2130   26.0500   33.1250 N   0  0  0  0  0  0  0  0  0  0  0  0
   37.7300   24.9620   33.7070 C   0  0  0  0  0  0  0  0  0  0  0  0
   38.1550   23.6870   33.2340 N   0  0  0  0  0  0  0  0  0  0  0  0
   39.3160   23.0350   33.4410 C   0  0  0  0  0  0  0  0  0  0  0  0
   39.3250   21.8590   32.8230 N   0  0  0  0  0  0  0  0  0  0  0  0
   38.1600   21.7140   32.1930 C   0  0  0  0  0  0  0  0  0  0  0  0
   37.5640   20.7490   31.3990 C   0  0  0  0  0  0  0  0  0  0  0  0
   36.3280   20.8960   30.8890 N   0  0  0  0  0  0  0  0  0  0  0  0
   35.6300   22.0090   31.1470 C   0  0  0  0  0  0  0  0  0  0  0  0
   36.1600   23.0000   31.9220 N   0  0  0  0  0  0  0  0  0  0  0  0
   37.4130   22.8590   32.4430 C   0  0  0  0  0  0  0  0  0  0  0  0
   40.4780   21.9070   37.2290 O   0  0  0  0  0  0  0  0  0  0  0  0
   41.7890   22.1560   36.8040 C   0  0  0  0  0  0  0  0  0  0  0  0
   42.4120   21.1000   36.1940 C   0  0  0  0  0  0  0  0  0  0  0  0
   44.0220   21.8070   35.8140 S   0  0  0  0  0  0  0  0  0  0  0  0
   43.5830   23.4940   36.5700 C   0  0  0  0  0  0  0  0  0  0  0  0
   42.5210   23.2380   36.8940 N   0  0  0  0  0  0  0  0  0  0  0  0
   44.5770   24.6250   36.5800 C   0  0  2  0  0  0  0  0  0  0  0  0
   45.9760   24.3150   36.3690 C   0  0  0  0  0  0  0  0  0  0  0  0
   45.6880   24.4240   37.7460 C   0  0  1  0  0  0  0  0  0  0  0  0
   46.1780   25.7610   38.3200 C   0  0  0  0  0  0  0  0  0  0  0  0
   47.2230   26.3750   37.7750 O   0  0  0  0  0  0  0  0  0  0  0  0
   45.5100   26.3340   39.4220 O   0  0  0  0  0  0  0  0  0  0  0  0
   39.3759   22.7780   39.4321 H   0  0  0  0  0  0  0  0  0  0  0  0
   37.6931   24.6362   39.5000 H   0  0  0  0  0  0  0  0  0  0  0  0
   37.3580   26.9384   36.2583 H   0  0  0  0  0  0  0  0  0  0  0  0
   36.5718   27.9965   33.8802 H   0  0  0  0  0  0  0  0  0  0  0  0
   40.1488   23.4260   34.0439 H   0  0  0  0  0  0  0  0  0  0  0  0
   38.1222   19.8275   31.1769 H   0  0  0  0  0  0  0  0  0  0  0  0
   34.6188   22.1261   30.7301 H   0  0  0  0  0  0  0  0  0  0  0  0
   42.0298   20.0888   35.9906 H   0  0  0  0  0  0  0  0  0  0  0  0
   43.8863   25.3846   36.1851 H   0  0  0  0  0  0  0  0  0  0  0  0
   46.2373   23.3253   35.9662 H   0  0  0  0  0  0  0  0  0  0  0  0
   46.7383   24.8124   35.7514 H   0  0  0  0  0  0  0  0  0  0  0  0
   45.7978   23.7995   38.6448 H   0  0  0  0  0  0  0  0  0  0  0  0
   45.8216   27.1959   39.7962 H   0  0  0  0  0  0  0  0  0  0  0  0
  1  2  2  0
  2  3  1  0
  4  3  2  0
  5  4  1  0
  6  5  2  0
  6  1  1  0
  7  8  1  0
  7  5  1  0
  9  8  2  0
 10 11  2  0
 10  9  1  0
 11  7  1  0
 12 13  1  0
 12 11  1  0
 14 13  2  0
 15 20  2  0
 15 14  1  0
 16 15  1  0
 17 18  1  0
 17 16  2  0
 18 19  2  0
 19 20  1  0
 20 12  1  0
 21  1  1  0
 22 26  1  0
 22 21  1  0
 23 22  2  0
 24 23  1  0
 24 25  1  0
 25 27  1  0
 25 26  2  0
 27 29  1  0
 28 27  1  0
 28 29  1  0
 29 30  1  0
 30 32  1  0
 31 30  2  0
  2 33  1  0
  3 34  1  0
  8 35  1  0
  9 36  1  0
 13 37  1  0
 16 38  1  0
 18 39  1  0
 23 40  1  0
 27 41  1  6
 28 42  1  0
 28 43  1  0
 29 44  1  1
 32 45  1  0
M  END
>  <minimizedAffinity>  (1) 
-7.05721855

>  <minimizedRMSD>  (1) 
0.254235506

$$$$
