
     RDKit          3D

 48 54  0  0  0  0  0  0  0  0999 V2000
   38.6500   23.1880   32.7190 C   0  0  0  0  0  0  0  0  0  0  0  0
   38.5310   21.9190   33.2730 C   0  0  0  0  0  0  0  0  0  0  0  0
   37.3400   21.1940   33.2290 C   0  0  0  0  0  0  0  0  0  0  0  0
   36.2230   21.7450   32.6170 C   0  0  0  0  0  0  0  0  0  0  0  0
   36.3130   23.0040   32.0600 C   0  0  0  0  0  0  0  0  0  0  0  0
   35.2100   23.5590   31.4590 C   0  0  0  0  0  0  0  0  0  0  0  0
   35.2380   24.8080   30.8950 C   0  0  0  0  0  0  0  0  0  0  0  0
   36.4410   25.4990   30.9510 C   0  0  0  0  0  0  0  0  0  0  0  0
   37.5360   24.9120   31.5610 C   0  0  0  0  0  0  0  0  0  0  0  0
   37.5190   23.6770   32.1290 C   0  0  0  0  0  0  0  0  0  0  0  0
   38.5770   25.8590   31.3560 N   0  0  0  0  0  0  0  0  0  0  0  0
   39.1710   26.9330   31.8880 C   0  0  0  0  0  0  0  0  0  0  0  0
   40.1380   27.4640   31.1420 N   0  0  0  0  0  0  0  0  0  0  0  0
   40.2760   26.7640   30.0050 C   0  0  0  0  0  0  0  0  0  0  0  0
   41.1050   26.8900   28.9270 C   0  0  0  0  0  0  0  0  0  0  0  0
   40.9430   25.9760   27.9550 N   0  0  0  0  0  0  0  0  0  0  0  0
   40.0230   24.9980   28.0350 C   0  0  0  0  0  0  0  0  0  0  0  0
   39.2320   24.9080   29.1050 N   0  0  0  0  0  0  0  0  0  0  0  0
   39.3020   25.7800   30.1590 C   0  0  0  0  0  0  0  0  0  0  0  0
   39.8880   23.9080   32.7980 C   0  0  0  0  0  0  0  0  0  0  0  0
   40.2070   24.7750   33.8650 C   0  0  0  0  0  0  0  0  0  0  0  0
   41.4490   25.4200   33.8410 C   0  0  0  0  0  0  0  0  0  0  0  0
   42.3000   25.1850   32.7960 N   0  0  0  0  0  0  0  0  0  0  0  0
   41.9620   24.3430   31.7890 C   0  0  0  0  0  0  0  0  0  0  0  0
   40.7980   23.7410   31.8120 N   0  0  0  0  0  0  0  0  0  0  0  0
   39.3110   24.9510   34.9080 N   0  0  0  0  0  0  0  0  0  0  0  0
   38.3170   25.8460   34.9560 C   0  0  0  0  0  0  0  0  0  0  0  0
   37.6210   25.7660   36.1110 N   0  0  0  0  0  0  0  0  0  0  0  0
   38.2060   24.7680   36.8280 C   0  0  0  0  0  0  0  0  0  0  0  0
   37.9590   24.2180   38.0610 C   0  0  0  0  0  0  0  0  0  0  0  0
   38.6810   23.2070   38.5880 N   0  0  0  0  0  0  0  0  0  0  0  0
   39.6950   22.7510   37.8130 C   0  0  0  0  0  0  0  0  0  0  0  0
   39.9210   23.2970   36.6220 N   0  0  0  0  0  0  0  0  0  0  0  0
   39.2470   24.2820   36.0630 C   0  0  0  0  0  0  0  0  0  0  0  0
   39.4072   21.4702   33.7637 H   0  0  0  0  0  0  0  0  0  0  0  0
   37.2865   20.1908   33.6771 H   0  0  0  0  0  0  0  0  0  0  0  0
   35.2773   21.1847   32.5765 H   0  0  0  0  0  0  0  0  0  0  0  0
   34.2736   22.9825   31.4292 H   0  0  0  0  0  0  0  0  0  0  0  0
   34.3470   25.2435   30.4192 H   0  0  0  0  0  0  0  0  0  0  0  0
   36.5232   26.5051   30.5140 H   0  0  0  0  0  0  0  0  0  0  0  0
   38.8830   27.3457   32.8661 H   0  0  0  0  0  0  0  0  0  0  0  0
   41.8578   27.6891   28.8586 H   0  0  0  0  0  0  0  0  0  0  0  0
   39.9228   24.2707   27.2159 H   0  0  0  0  0  0  0  0  0  0  0  0
   41.7368   26.1063   34.6511 H   0  0  0  0  0  0  0  0  0  0  0  0
   42.6603   24.1660   30.9577 H   0  0  0  0  0  0  0  0  0  0  0  0
   38.0935   26.5614   34.1509 H   0  0  0  0  0  0  0  0  0  0  0  0
   37.1256   24.6242   38.6530 H   0  0  0  0  0  0  0  0  0  0  0  0
   40.3318   21.9281   38.1698 H   0  0  0  0  0  0  0  0  0  0  0  0
  1 20  1  0
  1  2  2  0
  3  2  1  0
  4  3  2  0
  5 10  2  0
  5  4  1  0
  6  5  1  0
  7  8  1  0
  7  6  2  0
  8  9  2  0
  9 10  1  0
 10  1  1  0
 11  9  1  0
 11 12  1  0
 13 12  2  0
 14 19  2  0
 14 13  1  0
 15 14  1  0
 16 17  1  0
 16 15  2  0
 17 18  2  0
 18 19  1  0
 19 11  1  0
 20 21  1  0
 21 26  1  0
 22 21  2  0
 23 22  1  0
 24 25  1  0
 24 23  2  0
 25 20  2  0
 26 27  1  0
 26 34  1  0
 27 28  2  0
 28 29  1  0
 29 30  2  0
 30 31  1  0
 32 31  2  0
 33 32  1  0
 34 33  2  0
 34 29  1  0
  2 35  1  0
  3 36  1  0
  4 37  1  0
  6 38  1  0
  7 39  1  0
  8 40  1  0
 12 41  1  0
 15 42  1  0
 17 43  1  0
 22 44  1  0
 24 45  1  0
 27 46  1  0
 30 47  1  0
 32 48  1  0
M  ISO  8  35  14  36  14  37  14  38  14  39  14  40  14  41  14  42  14
M  ISO  6  43  14  44  14  45  14  46  14  47  14  48  14
M  END
>  <minimizedAffinity>  (1) 
-6.17108536

>  <minimizedRMSD>  (1) 
1.82257879

$$$$
