
     RDKit          3D

 26 27  0  0  1  0  0  0  0  0999 V2000
   38.1500   24.4120   36.9790 C   0  0  1  0  0  0  0  0  0  0  0  0
   40.9590   21.9090   37.4300 C   0  0  0  0  0  0  0  0  0  0  0  0
   39.9130   22.8070   37.7420 C   0  0  0  0  0  0  0  0  0  0  0  0
   39.2420   23.4690   36.6830 C   0  0  0  0  0  0  0  0  0  0  0  0
   39.6380   23.2110   35.3910 N   0  0  0  0  0  0  0  0  0  0  0  0
   40.6500   22.3400   35.1370 C   0  0  0  0  0  0  0  0  0  0  0  0
   41.3000   21.6990   36.1410 N   0  0  0  0  0  0  0  0  0  0  0  0
   37.7720   24.4090   38.4430 C   0  0  0  0  0  0  0  0  0  0  0  0
   38.4350   25.8190   36.5150 C   0  0  0  0  0  0  0  0  0  0  0  0
   37.8200   26.1500   35.2160 C   0  0  0  0  0  0  0  0  0  0  0  0
   37.2100   27.3680   34.8910 C   0  0  0  0  0  0  0  0  0  0  0  0
   36.7630   27.3030   33.6170 N   0  0  0  0  0  0  0  0  0  0  0  0
   37.0810   26.0710   33.1410 C   0  0  0  0  0  0  0  0  0  0  0  0
   37.7170   25.3940   34.1200 N   0  0  0  0  0  0  0  0  0  0  0  0
   37.2907   24.0453   36.3983 H   0  0  0  0  0  0  0  0  0  0  0  0
   41.4933   21.3831   38.2349 H   0  0  0  0  0  0  0  0  0  0  0  0
   39.6247   22.9890   38.7878 H   0  0  0  0  0  0  0  0  0  0  0  0
   40.9485   22.1506   34.0953 H   0  0  0  0  0  0  0  0  0  0  0  0
   38.6845   24.4162   39.0573 H   0  0  0  0  0  0  0  0  0  0  0  0
   37.1711   25.3024   38.6684 H   0  0  0  0  0  0  0  0  0  0  0  0
   37.1854   23.5062   38.6684 H   0  0  0  0  0  0  0  0  0  0  0  0
   38.0489   26.5190   37.2706 H   0  0  0  0  0  0  0  0  0  0  0  0
   39.5243   25.9008   36.3855 H   0  0  0  0  0  0  0  0  0  0  0  0
   37.1110   28.2343   35.5616 H   0  0  0  0  0  0  0  0  0  0  0  0
   36.8587   25.6913   32.1328 H   0  0  0  0  0  0  0  0  0  0  0  0
   38.0724   24.4311   34.0341 H   0  0  0  0  0  0  0  0  0  0  0  0
  1  8  1  0
  2  3  2  0
  4  1  1  0
  4  3  1  0
  5  4  2  0
  6  5  1  0
  6  7  2  0
  7  2  1  0
  9  1  1  0
 10  9  1  0
 11 10  2  0
 12 11  1  0
 13 12  2  0
 13 14  1  0
 14 10  1  0
  1 15  1  6
  2 16  1  0
  3 17  1  0
  6 18  1  0
  8 19  1  0
  8 20  1  0
  8 21  1  0
  9 22  1  0
  9 23  1  0
 11 24  1  0
 13 25  1  0
 14 26  1  0
M  ISO  8  15   8  16  14  17  14  18  14  19   8  20   8  21   8  22   8
M  ISO  4  23   8  24  14  25  14  26   9
M  END
>  <minimizedAffinity>  (1) 
-3.90782619

>  <minimizedRMSD>  (1) 
2.59251118

$$$$
