
     RDKit          3D

 43 46  0  0  0  0  0  0  0  0999 V2000
   36.3330   28.2040   33.7160 C   0  0  0  0  0  0  0  0  0  0  0  0
   35.7550   29.1000   34.6140 C   0  0  0  0  0  0  0  0  0  0  0  0
   34.8880   29.9970   34.0860 C   0  0  0  0  0  0  0  0  0  0  0  0
   34.6410   29.9700   32.7430 C   0  0  0  0  0  0  0  0  0  0  0  0
   35.7060   28.5660   32.1270 S   0  0  0  0  0  0  0  0  0  0  0  0
   37.4750   25.9600   33.4230 C   0  0  0  0  0  0  0  0  0  0  0  0
   37.2840   27.1710   34.1100 C   0  0  0  0  0  0  0  0  0  0  0  0
   38.0250   27.4540   35.2540 C   0  0  0  0  0  0  0  0  0  0  0  0
   38.9120   26.4900   35.6200 N   0  0  0  0  0  0  0  0  0  0  0  0
   39.0960   25.3260   34.9600 C   0  0  0  0  0  0  0  0  0  0  0  0
   38.3620   25.0860   33.8580 N   0  0  0  0  0  0  0  0  0  0  0  0
   40.0870   24.3870   35.4830 C   0  0  0  0  0  0  0  0  0  0  0  0
   41.3240   24.4930   34.9800 C   0  0  0  0  0  0  0  0  0  0  0  0
   42.3070   23.1710   35.8730 S   0  0  0  0  0  0  0  0  0  0  0  0
   40.6930   22.7020   36.8340 C   0  0  0  0  0  0  0  0  0  0  0  0
   40.0260   23.4500   36.3650 N   0  0  0  0  0  0  0  0  0  0  0  0
   40.6120   21.6700   37.8170 N   0  0  0  0  0  0  0  0  0  0  0  0
   33.8480   30.7010   31.8120 C   0  0  0  0  0  0  0  0  0  0  0  0
   34.3370   31.4820   31.0120 O   0  0  0  0  0  0  0  0  0  0  0  0
   32.4200   30.5260   31.8000 N   0  0  0  0  0  0  0  0  0  0  0  0
   33.9950   31.2740   34.9720 S   0  0  0  0  0  0  0  0  0  0  0  0
   29.8810   30.0200   36.5360 C   0  0  0  0  0  0  0  0  0  0  0  0
   30.3420   31.3190   36.4880 C   0  0  0  0  0  0  0  0  0  0  0  0
   31.6230   31.5930   35.9920 C   0  0  0  0  0  0  0  0  0  0  0  0
   32.4600   30.5650   35.5360 C   0  0  0  0  0  0  0  0  0  0  0  0
   31.9720   29.2780   35.5960 C   0  0  0  0  0  0  0  0  0  0  0  0
   30.7130   29.0280   36.0850 C   0  0  0  0  0  0  0  0  0  0  0  0
   28.2950   29.6040   37.1410 S   0  0  0  0  0  0  0  0  0  0  0  0
   27.4100   29.1240   36.0260 O   0  0  0  0  0  0  0  0  0  0  0  0
   27.6390   30.8460   37.7090 O   0  0  0  0  0  0  0  0  0  0  0  0
   35.9892   29.0798   35.6886 H   0  0  0  0  0  0  0  0  0  0  0  0
   36.8841   25.7407   32.5215 H   0  0  0  0  0  0  0  0  0  0  0  0
   37.9022   28.3889   35.8205 H   0  0  0  0  0  0  0  0  0  0  0  0
   41.6821   25.1975   34.2149 H   0  0  0  0  0  0  0  0  0  0  0  0
   39.7167   21.4767   38.2881 H   0  0  0  0  0  0  0  0  0  0  0  0
   41.4488   21.1187   38.0551 H   0  0  0  0  0  0  0  0  0  0  0  0
   31.8423   31.0521   31.1289 H   0  0  0  0  0  0  0  0  0  0  0  0
   31.9754   29.8746   32.4625 H   0  0  0  0  0  0  0  0  0  0  0  0
   29.7023   32.1417   36.8400 H   0  0  0  0  0  0  0  0  0  0  0  0
   31.9786   32.6334   35.9597 H   0  0  0  0  0  0  0  0  0  0  0  0
   32.5970   28.4421   35.2487 H   0  0  0  0  0  0  0  0  0  0  0  0
   30.3571   27.9876   36.1161 H   0  0  0  0  0  0  0  0  0  0  0  0
   28.4470   28.6250   38.0872 H   0  0  0  0  0  0  0  0  0  0  0  0
  1  7  1  0
  1  2  2  0
  3  2  1  0
  3 21  1  0
  4  3  2  0
  5  4  1  0
  5  1  1  0
  6 11  2  0
  6  7  1  0
  7  8  2  0
  8  9  1  0
 10 12  1  0
 10  9  2  0
 11 10  1  0
 12 16  1  0
 13 12  2  0
 13 14  1  0
 14 15  1  0
 15 17  1  0
 16 15  2  0
 18  4  1  0
 19 18  2  0
 20 18  1  0
 21 25  1  0
 22 28  1  0
 23 22  2  0
 24 23  1  0
 25 26  1  0
 25 24  2  0
 26 27  2  0
 27 22  1  0
 28 30  2  0
 29 28  2  0
  2 31  1  0
  6 32  1  0
  8 33  1  0
 13 34  1  0
 17 35  1  0
 17 36  1  0
 20 37  1  0
 20 38  1  0
 23 39  1  0
 24 40  1  0
 26 41  1  0
 27 42  1  0
 28 43  1  0
M  ISO  8  31  14  32  14  33  14  34  14  39  14  40  14  41  14  42  14
M  ISO  1  43  11
M  END
>  <minimizedAffinity>  (1) 
-5.83714056

>  <minimizedRMSD>  (1) 
2.26499581

$$$$
