
     RDKit          3D

 44 46  0  0  0  0  0  0  0  0999 V2000
   37.8350   23.0830   33.9090 C   0  0  0  0  0  0  0  0  0  0  0  0
   38.2060   24.4030   33.8650 C   0  0  0  0  0  0  0  0  0  0  0  0
   38.9650   24.9970   34.8170 C   0  0  0  0  0  0  0  0  0  0  0  0
   39.3680   24.2070   35.8650 N   0  0  0  0  0  0  0  0  0  0  0  0
   39.0140   22.8950   35.9320 C   0  0  0  0  0  0  0  0  0  0  0  0
   38.2580   22.3200   34.9790 N   0  0  0  0  0  0  0  0  0  0  0  0
   37.0320   22.3770   32.9410 C   0  0  0  0  0  0  0  0  0  0  0  0
   36.2860   21.2400   33.2900 C   0  0  0  0  0  0  0  0  0  0  0  0
   35.6280   20.7940   32.1560 C   0  0  0  0  0  0  0  0  0  0  0  0
   36.0060   21.6810   31.1820 C   0  0  0  0  0  0  0  0  0  0  0  0
   36.8380   22.6040   31.6890 O   0  0  0  0  0  0  0  0  0  0  0  0
   34.7310   19.6460   32.0000 C   0  0  0  0  0  0  0  0  0  0  0  0
   35.2590   18.3650   32.6430 C   0  0  0  0  0  0  0  0  0  0  0  0
   36.3970   17.8630   31.9240 N   0  0  0  0  0  0  0  0  0  0  0  0
   39.3660   26.3900   34.7870 C   0  0  0  0  0  0  0  0  0  0  0  0
   38.7030   27.2350   35.8440 C   0  0  0  0  0  0  0  0  0  0  0  0
   39.0540   27.0050   33.4180 C   0  0  0  0  0  0  0  0  0  0  0  0
   40.8760   26.4720   34.9330 C   0  0  0  0  0  0  0  0  0  0  0  0
   41.5310   26.7240   33.6230 C   0  0  0  0  0  0  0  0  0  0  0  0
   41.8010   25.7480   32.6770 C   0  0  0  0  0  0  0  0  0  0  0  0
   42.3970   26.3450   31.6200 N   0  0  0  0  0  0  0  0  0  0  0  0
   42.5150   27.6730   31.8680 C   0  0  0  0  0  0  0  0  0  0  0  0
   41.9810   27.8720   33.0870 N   0  0  0  0  0  0  0  0  0  0  0  0
   37.8696   25.0109   33.0122 H   0  0  0  0  0  0  0  0  0  0  0  0
   39.3539   22.2900   36.7855 H   0  0  0  0  0  0  0  0  0  0  0  0
   36.2334   20.7833   34.2893 H   0  0  0  0  0  0  0  0  0  0  0  0
   35.6746   21.6420   30.1338 H   0  0  0  0  0  0  0  0  0  0  0  0
   33.7645   19.8945   32.4628 H   0  0  0  0  0  0  0  0  0  0  0  0
   34.6408   19.4516   30.9211 H   0  0  0  0  0  0  0  0  0  0  0  0
   35.5539   18.5780   33.6811 H   0  0  0  0  0  0  0  0  0  0  0  0
   34.4639   17.6052   32.6182 H   0  0  0  0  0  0  0  0  0  0  0  0
   37.1136   17.5469   32.5929 H   0  0  0  0  0  0  0  0  0  0  0  0
   36.1072   17.0717   31.3318 H   0  0  0  0  0  0  0  0  0  0  0  0
   38.9907   26.8683   36.8404 H   0  0  0  0  0  0  0  0  0  0  0  0
   39.0238   28.2812   35.7316 H   0  0  0  0  0  0  0  0  0  0  0  0
   37.6106   27.1723   35.7316 H   0  0  0  0  0  0  0  0  0  0  0  0
   38.5603   27.9781   33.5571 H   0  0  0  0  0  0  0  0  0  0  0  0
   39.9899   27.1455   32.8572 H   0  0  0  0  0  0  0  0  0  0  0  0
   38.3879   26.3328   32.8572 H   0  0  0  0  0  0  0  0  0  0  0  0
   41.1256   27.2921   35.6223 H   0  0  0  0  0  0  0  0  0  0  0  0
   41.2402   25.5108   35.3247 H   0  0  0  0  0  0  0  0  0  0  0  0
   41.5710   24.6763   32.7696 H   0  0  0  0  0  0  0  0  0  0  0  0
   42.9573   28.4330   31.2071 H   0  0  0  0  0  0  0  0  0  0  0  0
   41.9241   28.7895   33.5516 H   0  0  0  0  0  0  0  0  0  0  0  0
  1  6  1  0
  2  1  2  0
  2  3  1  0
  3  4  2  0
  4  5  1  0
  6  5  2  0
  7  8  2  0
  7  1  1  0
  9  8  1  0
 10 11  1  0
 10  9  2  0
 11  7  1  0
 12  9  1  0
 12 13  1  0
 14 13  1  0
 15  3  1  0
 15 18  1  0
 15 16  1  0
 17 15  1  0
 19 18  1  0
 20 19  2  0
 21 22  2  0
 21 20  1  0
 22 23  1  0
 23 19  1  0
  2 24  1  0
  5 25  1  0
  8 26  1  0
 10 27  1  0
 12 28  1  0
 12 29  1  0
 13 30  1  0
 13 31  1  0
 14 32  1  0
 14 33  1  0
 16 34  1  0
 16 35  1  0
 16 36  1  0
 17 37  1  0
 17 38  1  0
 17 39  1  0
 18 40  1  0
 18 41  1  0
 20 42  1  0
 22 43  1  0
 23 44  1  0
M  ISO  8  24  14  25  14  26  14  27  14  28   8  29   8  30   8  31   8
M  ISO  8  32   5  33   5  34   8  35   8  36   8  37   8  38   8  39   8
M  ISO  5  40   8  41   8  42  14  43  14  44   9
M  END
>  <minimizedAffinity>  (1) 
-4.89233828

>  <minimizedRMSD>  (1) 
0.82968998

$$$$
