
     RDKit          3D

 36 39  0  0  1  0  0  0  0  0999 V2000
   37.1650   26.9510   34.0250 C   0  0  0  0  0  0  0  0  0  0  0  0
   36.7240   27.8980   32.9990 C   0  0  0  0  0  0  0  0  0  0  0  0
   37.2740   28.2940   31.8240 C   0  0  0  0  0  0  0  0  0  0  0  0
   36.7430   29.2050   30.9490 C   0  0  0  0  0  0  0  0  0  0  0  0
   35.5450   29.7620   31.3040 C   0  0  0  0  0  0  0  0  0  0  0  0
   35.0020   29.3590   32.4810 C   0  0  0  0  0  0  0  0  0  0  0  0
   35.5230   28.4720   33.3300 N   0  0  0  0  0  0  0  0  0  0  0  0
   33.6800   29.9950   32.8370 C   0  0  0  0  0  0  0  0  0  0  0  0
   32.9190   30.8360   31.8970 C   0  0  0  0  0  0  0  0  0  0  0  0
   31.7610   31.2990   32.4360 C   0  0  0  0  0  0  0  0  0  0  0  0
   31.3170   31.0180   33.7480 C   0  0  0  0  0  0  0  0  0  0  0  0
   32.7940   29.9160   34.2950 S   0  0  0  0  0  0  0  0  0  0  0  0
   39.3040   26.1600   35.3550 C   0  0  2  0  0  0  0  0  0  0  0  0
   38.6620   27.3480   35.9800 C   0  0  0  0  0  0  0  0  0  0  0  0
   38.5460   27.1120   34.5060 C   0  0  2  0  0  0  0  0  0  0  0  0
   37.5210   23.4750   37.1070 C   0  0  0  0  0  0  0  0  0  0  0  0
   37.5970   22.3670   36.2600 C   0  0  0  0  0  0  0  0  0  0  0  0
   38.3010   22.5910   35.0310 C   0  0  0  0  0  0  0  0  0  0  0  0
   38.8270   23.8170   34.7840 N   0  0  0  0  0  0  0  0  0  0  0  0
   38.7020   24.8500   35.6770 C   0  0  0  0  0  0  0  0  0  0  0  0
   38.0390   24.6780   36.8610 N   0  0  0  0  0  0  0  0  0  0  0  0
   37.0704   25.9371   33.6090 H   0  0  0  0  0  0  0  0  0  0  0  0
   36.5244   27.1432   34.8983 H   0  0  0  0  0  0  0  0  0  0  0  0
   38.2374   27.8409   31.5474 H   0  0  0  0  0  0  0  0  0  0  0  0
   37.2524   29.4739   30.0119 H   0  0  0  0  0  0  0  0  0  0  0  0
   35.0441   30.5034   30.6642 H   0  0  0  0  0  0  0  0  0  0  0  0
   33.2511   31.0636   30.8733 H   0  0  0  0  0  0  0  0  0  0  0  0
   31.1239   31.9378   31.8067 H   0  0  0  0  0  0  0  0  0  0  0  0
   30.4108   31.3315   34.2869 H   0  0  0  0  0  0  0  0  0  0  0  0
   40.3208   25.7433   35.3054 H   0  0  0  0  0  0  0  0  0  0  0  0
   37.7830   27.2217   36.6292 H   0  0  0  0  0  0  0  0  0  0  0  0
   39.0075   28.1793   36.6121 H   0  0  0  0  0  0  0  0  0  0  0  0
   38.8194   27.5751   33.5464 H   0  0  0  0  0  0  0  0  0  0  0  0
   36.9873   23.3432   38.0598 H   0  0  0  0  0  0  0  0  0  0  0  0
   37.1502   21.3951   36.5166 H   0  0  0  0  0  0  0  0  0  0  0  0
   38.4132   21.7789   34.2976 H   0  0  0  0  0  0  0  0  0  0  0  0
  1 15  1  0
  2  7  1  0
  2  1  1  0
  3  2  2  0
  4  5  2  0
  4  3  1  0
  5  6  1  0
  6  8  1  0
  6  7  2  0
  8 12  1  0
  9 10  1  0
  9  8  2  0
 10 11  2  0
 11 12  1  0
 13 20  1  0
 13 14  1  0
 15 13  1  0
 15 14  1  0
 17 16  2  0
 18 17  1  0
 19 18  2  0
 19 20  1  0
 20 21  2  0
 21 16  1  0
  1 22  1  0
  1 23  1  0
  3 24  1  0
  4 25  1  0
  5 26  1  0
  9 27  1  0
 10 28  1  0
 11 29  1  0
 13 30  1  6
 14 31  1  0
 14 32  1  0
 15 33  1  6
 16 34  1  0
 17 35  1  0
 18 36  1  0
M  ISO  8  22   8  23   8  24  14  25  14  26  14  27  14  28  14  29  14
M  ISO  7  30  13  31  13  32  13  33  13  34  14  35  14  36  14
M  END
>  <minimizedAffinity>  (1) 
-4.96579838

>  <minimizedRMSD>  (1) 
4.84220028

$$$$
