
     RDKit          3D

 30 33  0  0  0  0  0  0  0  0999 V2000
   39.7060   22.8000   37.8800 C   0  0  0  0  0  0  0  0  0  0  0  0
   38.7620   23.5180   38.6170 C   0  0  0  0  0  0  0  0  0  0  0  0
   37.7530   24.1960   37.8980 C   0  0  0  0  0  0  0  0  0  0  0  0
   37.7740   24.0980   36.5260 N   0  0  0  0  0  0  0  0  0  0  0  0
   38.7100   23.3890   35.8600 C   0  0  0  0  0  0  0  0  0  0  0  0
   39.6590   22.7520   36.5520 N   0  0  0  0  0  0  0  0  0  0  0  0
   38.5950   23.3850   34.4460 N   0  0  0  0  0  0  0  0  0  0  0  0
   39.0180   22.3290   33.6840 C   0  0  0  0  0  0  0  0  0  0  0  0
   38.7840   22.6040   32.3790 N   0  0  0  0  0  0  0  0  0  0  0  0
   38.2130   23.8290   32.2790 C   0  0  0  0  0  0  0  0  0  0  0  0
   37.7460   24.6620   31.2620 C   0  0  0  0  0  0  0  0  0  0  0  0
   37.2190   25.8590   31.5360 N   0  0  0  0  0  0  0  0  0  0  0  0
   37.1370   26.2640   32.8040 C   0  0  0  0  0  0  0  0  0  0  0  0
   37.5750   25.4950   33.8240 N   0  0  0  0  0  0  0  0  0  0  0  0
   38.1070   24.2940   33.5910 C   0  0  0  0  0  0  0  0  0  0  0  0
   37.9130   24.0670   29.9710 N   0  0  0  0  0  0  0  0  0  0  0  0
   36.5480   27.5980   33.0890 C   0  0  0  0  0  0  0  0  0  0  0  0
   36.4870   28.1140   34.3920 C   0  0  0  0  0  0  0  0  0  0  0  0
   35.9420   29.3360   34.6190 C   0  0  0  0  0  0  0  0  0  0  0  0
   35.4240   30.0780   33.4320 C   0  0  0  0  0  0  0  0  0  0  0  0
   35.8100   28.8460   32.0480 S   0  0  0  0  0  0  0  0  0  0  0  0
   40.5062   22.2622   38.4097 H   0  0  0  0  0  0  0  0  0  0  0  0
   38.8027   23.5542   39.7157 H   0  0  0  0  0  0  0  0  0  0  0  0
   36.9788   24.7810   38.4161 H   0  0  0  0  0  0  0  0  0  0  0  0
   39.4745   21.4056   34.0699 H   0  0  0  0  0  0  0  0  0  0  0  0
   38.3355   23.1315   29.8858 H   0  0  0  0  0  0  0  0  0  0  0  0
   37.6107   24.5743   29.1271 H   0  0  0  0  0  0  0  0  0  0  0  0
   36.8825   27.5258   35.2332 H   0  0  0  0  0  0  0  0  0  0  0  0
   35.8846   29.7605   35.6322 H   0  0  0  0  0  0  0  0  0  0  0  0
   34.9486   31.0684   33.3768 H   0  0  0  0  0  0  0  0  0  0  0  0
  1  2  2  0
  3  2  1  0
  4  3  2  0
  5  4  1  0
  5  6  2  0
  6  1  1  0
  7  5  1  0
  8  7  1  0
  9  8  2  0
 10  9  1  0
 10 15  2  0
 11 12  2  0
 11 10  1  0
 12 13  1  0
 13 17  1  0
 13 14  2  0
 15 14  1  0
 15  7  1  0
 16 11  1  0
 17 18  2  0
 18 19  1  0
 20 19  2  0
 21 17  1  0
 21 20  1  0
  1 22  1  0
  2 23  1  0
  3 24  1  0
  8 25  1  0
 16 26  1  0
 16 27  1  0
 18 28  1  0
 19 29  1  0
 20 30  1  0
M  ISO  7  22  14  23  14  24  14  25  14  28  14  29  14  30  14
M  END
>  <minimizedAffinity>  (1) 
-5.66975594

>  <minimizedRMSD>  (1) 
1.8283844

$$$$
