
     RDKit          3D

 40 43  0  0  1  0  0  0  0  0999 V2000
   37.7620   25.2130   34.4450 N   0  0  0  0  0  0  0  0  0  0  0  0
   37.4210   25.4360   33.0570 C   0  0  0  0  0  0  0  0  0  0  0  0
   37.5830   26.9020   32.8330 C   0  0  0  0  0  0  0  0  0  0  0  0
   38.0510   27.4340   34.1790 C   0  0  0  0  0  0  0  0  0  0  0  0
   38.7920   26.1630   34.7000 C   0  0  2  0  0  0  0  0  0  0  0  0
   38.3200   23.9080   34.6560 C   0  0  0  0  0  0  0  0  0  0  0  0
   37.8760   23.6720   38.4150 C   0  0  0  0  0  0  0  0  0  0  0  0
   37.5850   23.9410   37.0770 C   0  0  0  0  0  0  0  0  0  0  0  0
   38.5690   23.6460   36.1100 C   0  0  0  0  0  0  0  0  0  0  0  0
   39.7470   23.1140   36.5520 N   0  0  0  0  0  0  0  0  0  0  0  0
   39.9720   22.8760   37.8510 C   0  0  0  0  0  0  0  0  0  0  0  0
   39.0350   23.1580   38.7690 N   0  0  0  0  0  0  0  0  0  0  0  0
   39.9360   25.9380   34.0110 O   0  0  0  0  0  0  0  0  0  0  0  0
   41.1030   26.1960   34.6790 C   0  0  2  0  0  0  0  0  0  0  0  0
   42.1550   26.9230   33.8790 C   0  0  0  0  0  0  0  0  0  0  0  0
   42.3730   25.4960   34.3140 C   0  0  1  0  0  0  0  0  0  0  0  0
   43.4120   25.3340   35.3380 C   0  0  0  0  0  0  0  0  0  0  0  0
   43.5920   24.5960   36.4590 C   0  0  0  0  0  0  0  0  0  0  0  0
   44.7400   24.7180   37.1920 C   0  0  0  0  0  0  0  0  0  0  0  0
   45.6990   25.6510   36.7030 C   0  0  0  0  0  0  0  0  0  0  0  0
   44.9500   26.3200   35.2310 S   0  0  0  0  0  0  0  0  0  0  0  0
   38.0980   24.8703   32.3999 H   0  0  0  0  0  0  0  0  0  0  0  0
   36.3979   25.1010   32.8310 H   0  0  0  0  0  0  0  0  0  0  0  0
   38.3342   27.0972   32.0535 H   0  0  0  0  0  0  0  0  0  0  0  0
   36.6546   27.3815   32.4894 H   0  0  0  0  0  0  0  0  0  0  0  0
   38.7308   28.2919   34.0696 H   0  0  0  0  0  0  0  0  0  0  0  0
   37.2584   27.8219   34.8358 H   0  0  0  0  0  0  0  0  0  0  0  0
   39.1514   26.1821   35.7395 H   0  0  0  0  0  0  0  0  0  0  0  0
   37.6185   23.1529   34.2717 H   0  0  0  0  0  0  0  0  0  0  0  0
   39.2823   23.8542   34.1258 H   0  0  0  0  0  0  0  0  0  0  0  0
   37.1242   23.8932   39.1869 H   0  0  0  0  0  0  0  0  0  0  0  0
   36.6157   24.3710   36.7845 H   0  0  0  0  0  0  0  0  0  0  0  0
   40.9334   22.4456   38.1678 H   0  0  0  0  0  0  0  0  0  0  0  0
   40.5767   26.3283   35.6358 H   0  0  0  0  0  0  0  0  0  0  0  0
   42.7357   27.7352   34.3407 H   0  0  0  0  0  0  0  0  0  0  0  0
   42.1744   27.4583   32.9182 H   0  0  0  0  0  0  0  0  0  0  0  0
   42.5846   24.5308   33.8306 H   0  0  0  0  0  0  0  0  0  0  0  0
   42.8095   23.8936   36.7822 H   0  0  0  0  0  0  0  0  0  0  0  0
   44.9128   24.1302   38.1056 H   0  0  0  0  0  0  0  0  0  0  0  0
   46.6789   25.9015   37.1356 H   0  0  0  0  0  0  0  0  0  0  0  0
  1  6  1  0
  1  5  1  0
  2  1  1  0
  3  2  1  0
  3  4  1  0
  4  5  1  0
  6  9  1  0
  7 12  2  0
  8  7  1  0
  9 10  1  0
  9  8  2  0
 10 11  2  0
 11 12  1  0
 13 14  1  0
 13  5  1  0
 15 16  1  0
 15 14  1  0
 16 14  1  0
 16 17  1  0
 17 18  2  0
 18 19  1  0
 20 19  2  0
 21 17  1  0
 21 20  1  0
  2 22  1  0
  2 23  1  0
  3 24  1  0
  3 25  1  0
  4 26  1  0
  4 27  1  0
  5 28  1  1
  6 29  1  0
  6 30  1  0
  7 31  1  0
  8 32  1  0
 11 33  1  0
 14 34  1  1
 15 35  1  0
 15 36  1  0
 16 37  1  6
 18 38  1  0
 19 39  1  0
 20 40  1  0
M  ISO  8  22  13  23  13  24  13  25  13  26  13  27  13  28  13  29   8
M  ISO  8  30   8  31  14  32  14  33  14  34  13  35  13  36  13  37  13
M  ISO  3  38  14  39  14  40  14
M  END
>  <minimizedAffinity>  (1) 
-4.74800301

>  <minimizedRMSD>  (1) 
1.08239043

$$$$
