
     RDKit          3D

 33 35  0  0  1  0  0  0  0  0999 V2000
   38.5230   23.4870   34.7560 C   0  0  0  0  0  0  0  0  0  0  0  0
   39.9560   22.8300   37.9730 C   0  0  0  0  0  0  0  0  0  0  0  0
   39.0560   23.4110   37.0310 C   0  0  0  0  0  0  0  0  0  0  0  0
   39.3590   23.0150   35.7890 C   0  0  0  0  0  0  0  0  0  0  0  0
   40.4190   22.1530   35.5090 N   0  0  0  0  0  0  0  0  0  0  0  0
   41.2030   21.6600   36.4400 C   0  0  0  0  0  0  0  0  0  0  0  0
   40.9770   21.9970   37.6890 N   0  0  0  0  0  0  0  0  0  0  0  0
   38.0590   24.2490   37.5850 C   0  0  0  0  0  0  0  0  0  0  0  0
   38.2370   25.6060   37.2030 F   0  0  0  0  0  0  0  0  0  0  0  0
   38.0740   24.6070   38.8830 F   0  0  0  0  0  0  0  0  0  0  0  0
   36.7920   24.2550   37.0230 F   0  0  0  0  0  0  0  0  0  0  0  0
   39.2310   24.1390   33.6680 C   0  0  0  0  0  0  0  0  0  0  0  0
   38.5320   25.4560   33.3330 C   0  0  2  0  0  0  0  0  0  0  0  0
   39.4760   26.5890   33.0360 C   0  0  0  0  0  0  0  0  0  0  0  0
   38.5610   26.6080   34.1820 C   0  0  1  0  0  0  0  0  0  0  0  0
   37.2750   27.5370   33.7850 C   0  0  0  0  0  0  0  0  0  0  0  0
   36.5850   28.2760   34.6380 C   0  0  0  0  0  0  0  0  0  0  0  0
   35.5560   28.9670   34.0740 C   0  0  0  0  0  0  0  0  0  0  0  0
   35.2720   28.8890   32.7130 C   0  0  0  0  0  0  0  0  0  0  0  0
   36.6570   27.6810   32.2380 S   0  0  0  0  0  0  0  0  0  0  0  0
   37.9684   22.6315   34.3430 H   0  0  0  0  0  0  0  0  0  0  0  0
   37.8645   24.2456   35.2041 H   0  0  0  0  0  0  0  0  0  0  0  0
   39.8022   23.0861   39.0317 H   0  0  0  0  0  0  0  0  0  0  0  0
   42.0288   20.9814   36.1801 H   0  0  0  0  0  0  0  0  0  0  0  0
   40.2688   24.3401   33.9723 H   0  0  0  0  0  0  0  0  0  0  0  0
   39.2325   23.4854   32.7832 H   0  0  0  0  0  0  0  0  0  0  0  0
   37.6899   24.9256   32.8645 H   0  0  0  0  0  0  0  0  0  0  0  0
   40.5583   26.4666   33.1899 H   0  0  0  0  0  0  0  0  0  0  0  0
   39.6816   27.2435   32.1761 H   0  0  0  0  0  0  0  0  0  0  0  0
   38.6831   26.7748   35.2624 H   0  0  0  0  0  0  0  0  0  0  0  0
   36.8221   28.3279   35.7109 H   0  0  0  0  0  0  0  0  0  0  0  0
   34.9298   29.6066   34.7133 H   0  0  0  0  0  0  0  0  0  0  0  0
   34.4928   29.3734   32.1061 H   0  0  0  0  0  0  0  0  0  0  0  0
  1  4  1  0
  3  8  1  0
  3  2  2  0
  4  3  1  0
  5  4  2  0
  5  6  1  0
  6  7  2  0
  7  2  1  0
  8 10  1  0
  9  8  1  0
 11  8  1  0
 12  1  1  0
 13 12  1  0
 13 15  1  0
 14 13  1  0
 14 15  1  0
 16 15  1  0
 16 17  2  0
 18 17  1  0
 19 18  2  0
 20 19  1  0
 20 16  1  0
  1 21  1  0
  1 22  1  0
  2 23  1  0
  6 24  1  0
 12 25  1  0
 12 26  1  0
 13 27  1  6
 14 28  1  0
 14 29  1  0
 15 30  1  1
 17 31  1  0
 18 32  1  0
 19 33  1  0
M  ISO  8  21   8  22   8  23  14  24  14  25   8  26   8  27  13  28  13
M  ISO  5  29  13  30  13  31  14  32  14  33  14
M  END
>  <minimizedAffinity>  (1) 
-4.81259871

>  <minimizedRMSD>  (1) 
4.78983116

$$$$
