
     RDKit          3D

 39 41  0  0  1  0  0  0  0  0999 V2000
   37.7930   25.4080   34.2070 N   0  0  0  0  0  0  0  0  0  0  0  0
   37.1430   25.2430   32.9380 C   0  0  0  0  0  0  0  0  0  0  0  0
   36.7850   26.6340   32.4830 C   0  0  0  0  0  0  0  0  0  0  0  0
   37.2950   27.5310   33.5920 C   0  0  0  0  0  0  0  0  0  0  0  0
   38.4870   26.6580   34.0810 C   0  0  2  0  0  0  0  0  0  0  0  0
   38.7600   24.4140   34.4990 C   0  0  0  0  0  0  0  0  0  0  0  0
   37.9020   24.1600   38.1810 C   0  0  0  0  0  0  0  0  0  0  0  0
   37.8310   24.5430   36.8450 C   0  0  0  0  0  0  0  0  0  0  0  0
   38.7740   24.0440   35.9560 C   0  0  0  0  0  0  0  0  0  0  0  0
   39.7380   23.1860   36.4510 N   0  0  0  0  0  0  0  0  0  0  0  0
   39.7690   22.8440   37.7440 C   0  0  0  0  0  0  0  0  0  0  0  0
   38.8570   23.3280   38.5970 N   0  0  0  0  0  0  0  0  0  0  0  0
   39.4960   26.6410   33.1950 O   0  0  0  0  0  0  0  0  0  0  0  0
   40.6470   27.2780   33.4160 C   0  0  0  0  0  0  0  0  0  0  0  0
   41.3860   27.3110   32.0600 C   0  0  0  0  0  0  0  0  0  0  0  0
   42.2860   26.1160   32.0530 C   0  0  0  0  0  0  0  0  0  0  0  0
   42.6170   25.8780   33.5000 C   0  0  0  0  0  0  0  0  0  0  0  0
   41.6700   26.7310   34.3230 C   0  0  0  0  0  0  0  0  0  0  0  0
   37.8234   24.7663   32.2171 H   0  0  0  0  0  0  0  0  0  0  0  0
   36.2548   24.5988   33.0160 H   0  0  0  0  0  0  0  0  0  0  0  0
   37.2800   26.8721   31.5300 H   0  0  0  0  0  0  0  0  0  0  0  0
   35.7060   26.7547   32.3063 H   0  0  0  0  0  0  0  0  0  0  0  0
   37.6278   28.5082   33.2122 H   0  0  0  0  0  0  0  0  0  0  0  0
   36.5565   27.7981   34.3622 H   0  0  0  0  0  0  0  0  0  0  0  0
   39.0007   26.9908   34.9950 H   0  0  0  0  0  0  0  0  0  0  0  0
   38.5330   23.5147   33.9076 H   0  0  0  0  0  0  0  0  0  0  0  0
   39.7497   24.8217   34.2452 H   0  0  0  0  0  0  0  0  0  0  0  0
   37.1643   24.5468   38.8995 H   0  0  0  0  0  0  0  0  0  0  0  0
   37.0428   25.2281   36.4996 H   0  0  0  0  0  0  0  0  0  0  0  0
   40.5494   22.1602   38.1092 H   0  0  0  0  0  0  0  0  0  0  0  0
   40.2994   28.2052   33.8950 H   0  0  0  0  0  0  0  0  0  0  0  0
   40.6659   27.2523   31.2305 H   0  0  0  0  0  0  0  0  0  0  0  0
   41.9539   28.2444   31.9327 H   0  0  0  0  0  0  0  0  0  0  0  0
   41.7696   25.2442   31.6249 H   0  0  0  0  0  0  0  0  0  0  0  0
   43.1861   26.2769   31.4415 H   0  0  0  0  0  0  0  0  0  0  0  0
   42.4793   24.8153   33.7483 H   0  0  0  0  0  0  0  0  0  0  0  0
   43.6637   26.1431   33.7098 H   0  0  0  0  0  0  0  0  0  0  0  0
   42.2253   27.5528   34.7987 H   0  0  0  0  0  0  0  0  0  0  0  0
   41.1982   26.1266   35.1117 H   0  0  0  0  0  0  0  0  0  0  0  0
  1  6  1  0
  2  1  1  0
  3  2  1  0
  3  4  1  0
  4  5  1  0
  5  1  1  0
  6  9  1  0
  7 12  2  0
  8  7  1  0
  9 10  1  0
  9  8  2  0
 10 11  2  0
 11 12  1  0
 13 14  1  0
 13  5  1  0
 14 18  1  0
 15 14  1  0
 16 15  1  0
 16 17  1  0
 17 18  1  0
  2 19  1  0
  2 20  1  0
  3 21  1  0
  3 22  1  0
  4 23  1  0
  4 24  1  0
  5 25  1  1
  6 26  1  0
  6 27  1  0
  7 28  1  0
  8 29  1  0
 11 30  1  0
 14 31  1  0
 15 32  1  0
 15 33  1  0
 16 34  1  0
 16 35  1  0
 17 36  1  0
 17 37  1  0
 18 38  1  0
 18 39  1  0
M  ISO  8  19  13  20  13  21  13  22  13  23  13  24  13  25  13  26   8
M  ISO  8  27   8  28  14  29  14  30  14  31  13  32  13  33  13  34  13
M  ISO  5  35  13  36  13  37  13  38  13  39  13
M  END
>  <minimizedAffinity>  (1) 
-4.08708525

>  <minimizedRMSD>  (1) 
0.733085811

$$$$
