
     RDKit          3D

 34 36  0  0  1  0  0  0  0  0999 V2000
   40.0760   25.0930   35.3460 C   0  0  0  0  0  0  0  0  0  0  0  0
   38.7570   24.3100   35.3710 C   0  0  2  0  0  0  0  0  0  0  0  0
   37.9320   24.5110   36.5920 C   0  0  0  0  0  0  0  0  0  0  0  0
   38.5100   23.1740   36.2110 C   0  0  1  0  0  0  0  0  0  0  0  0
   37.4640   22.2370   35.6030 C   0  0  0  0  0  0  0  0  0  0  0  0
   37.4000   21.9250   34.2670 C   0  0  0  0  0  0  0  0  0  0  0  0
   36.4250   21.0640   33.7680 C   0  0  0  0  0  0  0  0  0  0  0  0
   35.5290   20.5240   34.5960 N   0  0  0  0  0  0  0  0  0  0  0  0
   35.5870   20.8230   35.8970 C   0  0  0  0  0  0  0  0  0  0  0  0
   36.5240   21.6480   36.3530 N   0  0  0  0  0  0  0  0  0  0  0  0
   41.0990   24.2430   34.7720 C   0  0  0  0  0  0  0  0  0  0  0  0
   44.0650   23.6130   36.6740 C   0  0  0  0  0  0  0  0  0  0  0  0
   42.7590   23.3700   36.1670 C   0  0  0  0  0  0  0  0  0  0  0  0
   42.3680   24.3770   35.3750 C   0  0  0  0  0  0  0  0  0  0  0  0
   43.1720   25.4880   35.1170 N   0  0  0  0  0  0  0  0  0  0  0  0
   44.3760   25.6400   35.6250 C   0  0  0  0  0  0  0  0  0  0  0  0
   44.8260   24.6880   36.4140 N   0  0  0  0  0  0  0  0  0  0  0  0
   42.1560   22.1530   36.5790 C   0  0  0  0  0  0  0  0  0  0  0  0
   41.2010   22.3560   37.6060 F   0  0  0  0  0  0  0  0  0  0  0  0
   42.8140   21.2690   37.3650 F   0  0  0  0  0  0  0  0  0  0  0  0
   41.2110   21.5630   35.7650 F   0  0  0  0  0  0  0  0  0  0  0  0
   39.9589   25.9993   34.7338 H   0  0  0  0  0  0  0  0  0  0  0  0
   40.3593   25.3907   36.3664 H   0  0  0  0  0  0  0  0  0  0  0  0
   38.6529   24.4248   34.2820 H   0  0  0  0  0  0  0  0  0  0  0  0
   38.3343   25.0678   37.4511 H   0  0  0  0  0  0  0  0  0  0  0  0
   36.9310   24.9077   36.8169 H   0  0  0  0  0  0  0  0  0  0  0  0
   39.1360   22.4273   36.7214 H   0  0  0  0  0  0  0  0  0  0  0  0
   38.1345   22.3644   33.5760 H   0  0  0  0  0  0  0  0  0  0  0  0
   36.3940   20.8299   32.6936 H   0  0  0  0  0  0  0  0  0  0  0  0
   34.8567   20.3848   36.5931 H   0  0  0  0  0  0  0  0  0  0  0  0
   40.7764   23.1965   34.8761 H   0  0  0  0  0  0  0  0  0  0  0  0
   41.2137   24.5513   33.7223 H   0  0  0  0  0  0  0  0  0  0  0  0
   44.4914   22.8494   37.3411 H   0  0  0  0  0  0  0  0  0  0  0  0
   44.9832   26.5289   35.3988 H   0  0  0  0  0  0  0  0  0  0  0  0
  1  2  1  0
  2  4  1  0
  2  3  1  0
  4  3  1  0
  5  4  1  0
  5 10  1  0
  6  5  2  0
  7  6  1  0
  7  8  2  0
  8  9  1  0
  9 10  2  0
 11  1  1  0
 11 14  1  0
 13 18  1  0
 13 12  2  0
 14 13  1  0
 15 14  2  0
 15 16  1  0
 16 17  2  0
 17 12  1  0
 18 20  1  0
 18 19  1  0
 21 18  1  0
  1 22  1  0
  1 23  1  0
  2 24  1  6
  3 25  1  0
  3 26  1  0
  4 27  1  1
  6 28  1  0
  7 29  1  0
  9 30  1  0
 11 31  1  0
 11 32  1  0
 12 33  1  0
 16 34  1  0
M  ISO  8  22   8  23   8  24  13  25  13  26  13  27  13  28  14  29  14
M  ISO  5  30  14  31   8  32   8  33  14  34  14
M  END
>  <minimizedAffinity>  (1) 
-4.46519661

>  <minimizedRMSD>  (1) 
2.07045722

$$$$
