
     RDKit          3D

 41 44  0  0  1  0  0  0  0  0999 V2000
   37.8190   25.2510   34.2630 N   0  0  0  0  0  0  0  0  0  0  0  0
   37.2040   25.1240   32.9550 C   0  0  0  0  0  0  0  0  0  0  0  0
   37.0480   26.5210   32.4540 C   0  0  0  0  0  0  0  0  0  0  0  0
   37.6600   27.3770   33.5520 C   0  0  0  0  0  0  0  0  0  0  0  0
   38.6990   26.3610   34.1120 C   0  0  2  0  0  0  0  0  0  0  0  0
   38.6180   24.1050   34.5750 C   0  0  0  0  0  0  0  0  0  0  0  0
   37.9140   24.1700   38.2800 C   0  0  0  0  0  0  0  0  0  0  0  0
   37.7860   24.4370   36.9180 C   0  0  0  0  0  0  0  0  0  0  0  0
   38.7220   23.8550   36.0250 C   0  0  0  0  0  0  0  0  0  0  0  0
   39.6920   23.0660   36.5750 N   0  0  0  0  0  0  0  0  0  0  0  0
   39.7650   22.8440   37.9060 C   0  0  0  0  0  0  0  0  0  0  0  0
   38.8750   23.3990   38.7370 N   0  0  0  0  0  0  0  0  0  0  0  0
   39.7140   26.1210   33.2210 O   0  0  0  0  0  0  0  0  0  0  0  0
   40.4750   27.2250   32.9520 C   0  0  2  0  0  0  0  0  0  0  0  0
   41.6030   27.0570   31.9870 C   0  0  0  0  0  0  0  0  0  0  0  0
   41.8590   27.3890   33.4290 C   0  0  2  0  0  0  0  0  0  0  0  0
   42.6480   26.4420   34.2110 C   0  0  0  0  0  0  0  0  0  0  0  0
   42.1520   25.3260   34.8970 C   0  0  0  0  0  0  0  0  0  0  0  0
   42.8990   24.4340   35.6350 C   0  0  0  0  0  0  0  0  0  0  0  0
   44.2240   24.6250   35.7230 N   0  0  0  0  0  0  0  0  0  0  0  0
   44.7330   25.6770   35.0820 C   0  0  0  0  0  0  0  0  0  0  0  0
   44.0010   26.5440   34.3640 N   0  0  0  0  0  0  0  0  0  0  0  0
   37.8502   24.5430   32.2805 H   0  0  0  0  0  0  0  0  0  0  0  0
   36.2397   24.5971   33.0054 H   0  0  0  0  0  0  0  0  0  0  0  0
   37.5871   26.6584   31.5050 H   0  0  0  0  0  0  0  0  0  0  0  0
   35.9993   26.7822   32.2489 H   0  0  0  0  0  0  0  0  0  0  0  0
   38.1430   28.2794   33.1490 H   0  0  0  0  0  0  0  0  0  0  0  0
   36.9480   27.7765   34.2892 H   0  0  0  0  0  0  0  0  0  0  0  0
   39.2454   26.6636   35.0175 H   0  0  0  0  0  0  0  0  0  0  0  0
   38.1669   23.2223   34.0982 H   0  0  0  0  0  0  0  0  0  0  0  0
   39.6337   24.2989   34.1999 H   0  0  0  0  0  0  0  0  0  0  0  0
   37.1965   24.6134   38.9862 H   0  0  0  0  0  0  0  0  0  0  0  0
   36.9784   25.0837   36.5445 H   0  0  0  0  0  0  0  0  0  0  0  0
   40.5621   22.2022   38.3094 H   0  0  0  0  0  0  0  0  0  0  0  0
   39.5818   27.8594   33.0504 H   0  0  0  0  0  0  0  0  0  0  0  0
   41.8527   26.0594   31.5964 H   0  0  0  0  0  0  0  0  0  0  0  0
   41.8796   27.5005   31.0191 H   0  0  0  0  0  0  0  0  0  0  0  0
   42.3200   28.1831   34.0347 H   0  0  0  0  0  0  0  0  0  0  0  0
   41.0683   25.1455   34.8415 H   0  0  0  0  0  0  0  0  0  0  0  0
   42.4192   23.5834   36.1412 H   0  0  0  0  0  0  0  0  0  0  0  0
   45.8183   25.8451   35.1450 H   0  0  0  0  0  0  0  0  0  0  0  0
  1  6  1  0
  2  1  1  0
  3  2  1  0
  3  4  1  0
  4  5  1  0
  5  1  1  0
  6  9  1  0
  7 12  2  0
  8  7  1  0
  9 10  1  0
  9  8  2  0
 10 11  2  0
 11 12  1  0
 13  5  1  0
 14 13  1  0
 14 16  1  0
 15 14  1  0
 15 16  1  0
 16 17  1  0
 17 22  1  0
 17 18  2  0
 18 19  1  0
 19 20  2  0
 21 20  1  0
 22 21  2  0
  2 23  1  0
  2 24  1  0
  3 25  1  0
  3 26  1  0
  4 27  1  0
  4 28  1  0
  5 29  1  1
  6 30  1  0
  6 31  1  0
  7 32  1  0
  8 33  1  0
 11 34  1  0
 14 35  1  6
 15 36  1  0
 15 37  1  0
 16 38  1  6
 18 39  1  0
 19 40  1  0
 21 41  1  0
M  ISO  8  23  13  24  13  25  13  26  13  27  13  28  13  29  13  30   8
M  ISO  8  31   8  32  14  33  14  34  14  35  13  36  13  37  13  38  13
M  ISO  3  39  14  40  14  41  14
M  END
>  <minimizedAffinity>  (1) 
-4.55043173

>  <minimizedRMSD>  (1) 
1.56137967

$$$$
