
     RDKit          3D

 29 31  0  0  0  0  0  0  0  0999 V2000
   37.5060   25.5710   32.9770 C   0  0  0  0  0  0  0  0  0  0  0  0
   38.3000   26.6770   32.6930 C   0  0  0  0  0  0  0  0  0  0  0  0
   39.2640   27.0930   33.6240 C   0  0  0  0  0  0  0  0  0  0  0  0
   39.3610   26.3690   34.7710 N   0  0  0  0  0  0  0  0  0  0  0  0
   38.5730   25.2930   35.0200 C   0  0  0  0  0  0  0  0  0  0  0  0
   37.6520   24.9100   34.1130 N   0  0  0  0  0  0  0  0  0  0  0  0
   38.2240   27.4690   31.4890 C   0  0  0  0  0  0  0  0  0  0  0  0
   37.3640   28.5290   31.2610 C   0  0  0  0  0  0  0  0  0  0  0  0
   37.4370   29.1620   30.0720 C   0  0  0  0  0  0  0  0  0  0  0  0
   38.3730   28.7090   29.1350 C   0  0  0  0  0  0  0  0  0  0  0  0
   39.2000   27.2980   30.0090 S   0  0  0  0  0  0  0  0  0  0  0  0
   38.7300   29.0920   27.8310 C   0  0  0  0  0  0  0  0  0  0  0  0
   39.5550   28.4130   27.1870 O   0  0  0  0  0  0  0  0  0  0  0  0
   38.1850   30.2410   27.1970 N   0  0  0  0  0  0  0  0  0  0  0  0
   38.7150   24.5460   36.2680 C   0  0  0  0  0  0  0  0  0  0  0  0
   39.6730   23.5560   36.3560 C   0  0  0  0  0  0  0  0  0  0  0  0
   39.8890   22.7950   37.4840 C   0  0  0  0  0  0  0  0  0  0  0  0
   39.0980   23.0610   38.5390 N   0  0  0  0  0  0  0  0  0  0  0  0
   38.1470   24.0380   38.4630 C   0  0  0  0  0  0  0  0  0  0  0  0
   37.9520   24.7780   37.3370 N   0  0  0  0  0  0  0  0  0  0  0  0
   36.7491   25.2428   32.2494 H   0  0  0  0  0  0  0  0  0  0  0  0
   39.9102   27.9629   33.4351 H   0  0  0  0  0  0  0  0  0  0  0  0
   36.6416   28.8463   32.0274 H   0  0  0  0  0  0  0  0  0  0  0  0
   36.7777   30.0126   29.8446 H   0  0  0  0  0  0  0  0  0  0  0  0
   38.4739   30.4865   26.2393 H   0  0  0  0  0  0  0  0  0  0  0  0
   37.5011   30.8284   27.6951 H   0  0  0  0  0  0  0  0  0  0  0  0
   40.3009   23.3634   35.4736 H   0  0  0  0  0  0  0  0  0  0  0  0
   40.6636   22.0148   37.5198 H   0  0  0  0  0  0  0  0  0  0  0  0
   37.5162   24.2340   39.3426 H   0  0  0  0  0  0  0  0  0  0  0  0
  1  6  2  0
  2  1  1  0
  2  3  2  0
  3  4  1  0
  4  5  2  0
  5 15  1  0
  6  5  1  0
  7  2  1  0
  8  7  2  0
  9  8  1  0
 10 11  1  0
 10  9  2  0
 11  7  1  0
 12 10  1  0
 13 12  2  0
 14 12  1  0
 15 16  2  0
 15 20  1  0
 16 17  1  0
 17 18  2  0
 19 18  1  0
 20 19  2  0
  1 21  1  0
  3 22  1  0
  8 23  1  0
  9 24  1  0
 14 25  1  0
 14 26  1  0
 16 27  1  0
 17 28  1  0
 19 29  1  0
M  ISO  7  21  14  22  14  23  14  24  14  27  14  28  14  29  14
M  END
>  <minimizedAffinity>  (1) 
-4.71461964

>  <minimizedRMSD>  (1) 
4.52268744

$$$$
