
     RDKit          3D

 25 26  0  0  0  0  0  0  0  0999 V2000
   39.8610   22.6230   37.0900 C   0  0  0  0  0  0  0  0  0  0  0  0
   39.2470   23.2870   38.1560 C   0  0  0  0  0  0  0  0  0  0  0  0
   37.8690   23.4290   38.1330 C   0  0  0  0  0  0  0  0  0  0  0  0
   37.2110   22.9050   37.0610 N   0  0  0  0  0  0  0  0  0  0  0  0
   37.8170   22.2700   36.0470 C   0  0  0  0  0  0  0  0  0  0  0  0
   39.1610   22.1340   36.0730 N   0  0  0  0  0  0  0  0  0  0  0  0
   37.0090   21.7440   34.9480 C   0  0  0  0  0  0  0  0  0  0  0  0
   36.0710   20.9720   35.2910 O   0  0  0  0  0  0  0  0  0  0  0  0
   37.1520   21.9960   33.5620 N   0  0  0  0  0  0  0  0  0  0  0  0
   36.7350   20.9230   32.6770 C   0  0  0  0  0  0  0  0  0  0  0  0
   36.6420   21.3970   31.2450 C   0  0  0  0  0  0  0  0  0  0  0  0
   36.1610   22.6620   31.0760 O   0  0  0  0  0  0  0  0  0  0  0  0
   36.5400   23.6190   31.9660 C   0  0  0  0  0  0  0  0  0  0  0  0
   37.6570   23.1720   32.8860 C   0  0  0  0  0  0  0  0  0  0  0  0
   40.9543   22.5022   37.0937 H   0  0  0  0  0  0  0  0  0  0  0  0
   39.8420   23.6861   38.9907 H   0  0  0  0  0  0  0  0  0  0  0  0
   37.3304   23.9417   38.9436 H   0  0  0  0  0  0  0  0  0  0  0  0
   37.4673   20.1044   32.7366 H   0  0  0  0  0  0  0  0  0  0  0  0
   35.7396   20.5786   32.9940 H   0  0  0  0  0  0  0  0  0  0  0  0
   37.6508   21.3567   30.8083 H   0  0  0  0  0  0  0  0  0  0  0  0
   35.9190   20.7303   30.7522 H   0  0  0  0  0  0  0  0  0  0  0  0
   36.8814   24.5017   31.4054 H   0  0  0  0  0  0  0  0  0  0  0  0
   35.6670   23.8414   32.5972 H   0  0  0  0  0  0  0  0  0  0  0  0
   38.5579   22.9248   32.3053 H   0  0  0  0  0  0  0  0  0  0  0  0
   37.9415   23.9616   33.5971 H   0  0  0  0  0  0  0  0  0  0  0  0
  1  2  2  0
  3  2  1  0
  4  3  2  0
  5  6  2  0
  5  4  1  0
  6  1  1  0
  7  8  2  0
  7  5  1  0
  9  7  1  0
 10  9  1  0
 11 10  1  0
 12 11  1  0
 12 13  1  0
 13 14  1  0
 14  9  1  0
  1 15  1  0
  2 16  1  0
  3 17  1  0
 10 18  1  0
 10 19  1  0
 11 20  1  0
 11 21  1  0
 13 22  1  0
 13 23  1  0
 14 24  1  0
 14 25  1  0
M  ISO  8  15  14  16  14  17  14  18  13  19  13  20  13  21  13  22  13
M  ISO  3  23  13  24  13  25  13
M  END
>  <minimizedAffinity>  (1) 
-3.99865031

>  <minimizedRMSD>  (1) 
1.25261915

$$$$
