
     RDKit          3D

 36 39  0  0  0  0  0  0  0  0999 V2000
   39.5620   23.4350   36.1730 C   0  0  0  0  0  0  0  0  0  0  0  0
   39.8830   24.5780   35.4000 C   0  0  0  0  0  0  0  0  0  0  0  0
   41.1410   24.7010   34.8310 C   0  0  0  0  0  0  0  0  0  0  0  0
   42.0110   23.6820   35.0640 N   0  0  0  0  0  0  0  0  0  0  0  0
   41.6770   22.5760   35.8220 C   0  0  0  0  0  0  0  0  0  0  0  0
   40.4560   22.4820   36.3600 N   0  0  0  0  0  0  0  0  0  0  0  0
   38.9640   25.6690   35.1510 C   0  0  0  0  0  0  0  0  0  0  0  0
   38.7970   26.7690   35.9830 C   0  0  0  0  0  0  0  0  0  0  0  0
   37.8900   27.7000   35.6010 C   0  0  0  0  0  0  0  0  0  0  0  0
   37.1920   27.5000   34.4180 C   0  0  0  0  0  0  0  0  0  0  0  0
   37.8590   25.8870   33.7990 S   0  0  0  0  0  0  0  0  0  0  0  0
   36.2010   28.2070   33.6990 C   0  0  0  0  0  0  0  0  0  0  0  0
   35.9350   27.9130   32.5270 O   0  0  0  0  0  0  0  0  0  0  0  0
   35.4750   29.2890   34.3180 N   0  0  0  0  0  0  0  0  0  0  0  0
   42.7230   21.5580   35.9900 C   0  0  0  0  0  0  0  0  0  0  0  0
   43.9780   21.9220   35.5880 C   0  0  0  0  0  0  0  0  0  0  0  0
   44.9980   20.3850   35.9670 S   0  0  0  0  0  0  0  0  0  0  0  0
   43.4330   19.5420   36.6160 C   0  0  0  0  0  0  0  0  0  0  0  0
   42.6720   20.3440   36.4670 N   0  0  0  0  0  0  0  0  0  0  0  0
   43.5910   18.1730   37.1110 C   0  0  0  0  0  0  0  0  0  0  0  0
   42.6050   17.2120   37.0580 C   0  0  0  0  0  0  0  0  0  0  0  0
   42.9360   15.9710   37.5740 C   0  0  0  0  0  0  0  0  0  0  0  0
   44.2020   15.7930   38.0910 C   0  0  0  0  0  0  0  0  0  0  0  0
   45.1810   16.7630   38.1390 C   0  0  0  0  0  0  0  0  0  0  0  0
   44.8130   17.9570   37.6240 N   0  0  0  0  0  0  0  0  0  0  0  0
   38.5614   23.3411   36.6202 H   0  0  0  0  0  0  0  0  0  0  0  0
   41.4203   25.5750   34.2242 H   0  0  0  0  0  0  0  0  0  0  0  0
   39.3761   26.8792   36.9117 H   0  0  0  0  0  0  0  0  0  0  0  0
   37.7106   28.5949   36.2149 H   0  0  0  0  0  0  0  0  0  0  0  0
   34.7550   29.7974   33.7850 H   0  0  0  0  0  0  0  0  0  0  0  0
   35.6766   29.5531   35.2929 H   0  0  0  0  0  0  0  0  0  0  0  0
   44.3096   22.8757   35.1516 H   0  0  0  0  0  0  0  0  0  0  0  0
   41.6128   17.4189   36.6306 H   0  0  0  0  0  0  0  0  0  0  0  0
   42.2072   15.1471   37.5717 H   0  0  0  0  0  0  0  0  0  0  0  0
   44.4500   14.8009   38.4963 H   0  0  0  0  0  0  0  0  0  0  0  0
   46.1798   16.5798   38.5619 H   0  0  0  0  0  0  0  0  0  0  0  0
  1  6  2  0
  2  1  1  0
  3  4  1  0
  3  2  2  0
  4  5  2  0
  5 15  1  0
  5  6  1  0
  7  2  1  0
  7  8  2  0
  9  8  1  0
 10  9  2  0
 11 10  1  0
 11  7  1  0
 12 14  1  0
 12 10  1  0
 13 12  2  0
 15 19  1  0
 16 17  1  0
 16 15  2  0
 17 18  1  0
 18 20  1  0
 19 18  2  0
 20 25  1  0
 21 20  2  0
 21 22  1  0
 22 23  2  0
 23 24  1  0
 25 24  2  0
  1 26  1  0
  3 27  1  0
  8 28  1  0
  9 29  1  0
 14 30  1  0
 14 31  1  0
 16 32  1  0
 21 33  1  0
 22 34  1  0
 23 35  1  0
 24 36  1  0
M  ISO  8  26  14  27  14  28  14  29  14  32  14  33  14  34  14  35  14
M  ISO  1  36  14
M  END
>  <minimizedAffinity>  (1) 
-4.57427883

>  <minimizedRMSD>  (1) 
1.51241207

$$$$
