
     RDKit          3D

 26 27  0  0  0  0  0  0  0  0999 V2000
   38.2590   25.7180   35.4610 C   0  0  0  0  0  0  0  0  0  0  0  0
   38.0680   27.0260   35.9050 C   0  0  0  0  0  0  0  0  0  0  0  0
   37.5050   27.9200   35.0660 C   0  0  0  0  0  0  0  0  0  0  0  0
   37.1380   27.4740   33.7790 C   0  0  0  0  0  0  0  0  0  0  0  0
   37.6350   25.6660   33.7770 S   0  0  0  0  0  0  0  0  0  0  0  0
   36.5540   28.0440   32.6470 C   0  0  0  0  0  0  0  0  0  0  0  0
   35.6210   28.8550   32.7310 O   0  0  0  0  0  0  0  0  0  0  0  0
   36.9950   27.7310   31.3110 N   0  0  0  0  0  0  0  0  0  0  0  0
   36.6270   28.5260   30.2010 C   0  0  0  0  0  0  0  0  0  0  0  0
   35.8790   29.5600   30.3740 N   0  0  0  0  0  0  0  0  0  0  0  0
   37.1050   28.1520   28.8960 N   0  0  0  0  0  0  0  0  0  0  0  0
   35.6060   30.1490   29.5550 H   0  0  0  0  0  0  0  0  0  0  0  0
   38.3450   24.1550   37.4160 C   0  0  0  0  0  0  0  0  0  0  0  0
   38.8380   24.6310   36.1920 C   0  0  0  0  0  0  0  0  0  0  0  0
   39.9450   24.0250   35.6500 C   0  0  0  0  0  0  0  0  0  0  0  0
   40.5030   22.9920   36.3340 N   0  0  0  0  0  0  0  0  0  0  0  0
   40.0130   22.5510   37.5090 C   0  0  0  0  0  0  0  0  0  0  0  0
   38.9450   23.1360   38.0300 N   0  0  0  0  0  0  0  0  0  0  0  0
   38.3706   27.3232   36.9199 H   0  0  0  0  0  0  0  0  0  0  0  0
   37.3377   28.9623   35.3753 H   0  0  0  0  0  0  0  0  0  0  0  0
   37.5939   26.9066   31.1608 H   0  0  0  0  0  0  0  0  0  0  0  0
   37.7021   27.3201   28.7852 H   0  0  0  0  0  0  0  0  0  0  0  0
   36.8500   28.7163   28.0729 H   0  0  0  0  0  0  0  0  0  0  0  0
   37.4601   24.6246   37.8704 H   0  0  0  0  0  0  0  0  0  0  0  0
   40.3665   24.3651   34.6926 H   0  0  0  0  0  0  0  0  0  0  0  0
   40.4959   21.7120   38.0313 H   0  0  0  0  0  0  0  0  0  0  0  0
  1  2  2  0
  1 14  1  0
  3  2  1  0
  4  3  2  0
  5  4  1  0
  5  1  1  0
  6  7  2  0
  6  4  1  0
  8  6  1  0
  9 10  2  0
  9  8  1  0
 11  9  1  0
 12 10  1  0
 13 18  2  0
 14 13  1  0
 15 14  2  0
 15 16  1  0
 16 17  2  0
 17 18  1  0
  2 19  1  0
  3 20  1  0
  8 21  1  0
 11 22  1  0
 11 23  1  0
 13 24  1  0
 15 25  1  0
 17 26  1  0
M  ISO  5  19  14  20  14  24  14  25  14  26  14
M  END
>  <minimizedAffinity>  (1) 
-5.16485882

>  <minimizedRMSD>  (1) 
0.947450578

$$$$
