
     RDKit          3D

 34 36  0  0  1  0  0  0  0  0999 V2000
   37.3790   22.1310   34.7160 C   0  0  0  0  0  0  0  0  0  0  0  0
   36.5350   21.2210   34.8770 O   0  0  0  0  0  0  0  0  0  0  0  0
   37.5530   22.6540   33.4010 N   0  0  0  0  0  0  0  0  0  0  0  0
   37.2660   21.6890   32.3320 C   0  0  0  0  0  0  0  0  0  0  0  0
   37.1740   22.3730   30.9900 C   0  0  0  0  0  0  0  0  0  0  0  0
   36.5700   23.5930   31.0070 O   0  0  0  0  0  0  0  0  0  0  0  0
   36.7900   24.4150   32.0590 C   0  0  0  0  0  0  0  0  0  0  0  0
   37.9570   23.9300   32.9240 C   0  0  1  0  0  0  0  0  0  0  0  0
   39.9950   22.6250   37.2600 C   0  0  0  0  0  0  0  0  0  0  0  0
   39.3430   23.3890   38.2180 C   0  0  0  0  0  0  0  0  0  0  0  0
   38.0310   23.7240   37.9870 C   0  0  0  0  0  0  0  0  0  0  0  0
   37.4520   23.2830   36.8320 N   0  0  0  0  0  0  0  0  0  0  0  0
   38.0890   22.5490   35.9200 C   0  0  0  0  0  0  0  0  0  0  0  0
   39.3860   22.2210   36.1540 N   0  0  0  0  0  0  0  0  0  0  0  0
   38.3590   24.9380   33.8910 C   0  0  0  0  0  0  0  0  0  0  0  0
   37.3990   25.8310   34.3900 C   0  0  0  0  0  0  0  0  0  0  0  0
   37.6060   26.8340   35.3150 C   0  0  0  0  0  0  0  0  0  0  0  0
   38.8860   26.9730   35.7930 C   0  0  0  0  0  0  0  0  0  0  0  0
   39.8520   26.1150   35.3250 C   0  0  0  0  0  0  0  0  0  0  0  0
   39.5660   25.1670   34.4270 N   0  0  0  0  0  0  0  0  0  0  0  0
   38.0712   20.9403   32.2987 H   0  0  0  0  0  0  0  0  0  0  0  0
   36.2993   21.2095   32.5457 H   0  0  0  0  0  0  0  0  0  0  0  0
   36.6049   21.7198   30.3122 H   0  0  0  0  0  0  0  0  0  0  0  0
   38.2093   22.5467   30.6615 H   0  0  0  0  0  0  0  0  0  0  0  0
   37.0206   25.4223   31.6819 H   0  0  0  0  0  0  0  0  0  0  0  0
   35.8832   24.4245   32.6816 H   0  0  0  0  0  0  0  0  0  0  0  0
   38.9065   23.7917   32.3860 H   0  0  0  0  0  0  0  0  0  0  0  0
   41.0467   22.3469   37.4231 H   0  0  0  0  0  0  0  0  0  0  0  0
   39.8600   23.7156   39.1324 H   0  0  0  0  0  0  0  0  0  0  0  0
   37.4644   24.3289   38.7103 H   0  0  0  0  0  0  0  0  0  0  0  0
   36.3750   25.7202   34.0039 H   0  0  0  0  0  0  0  0  0  0  0  0
   36.7883   27.4881   35.6519 H   0  0  0  0  0  0  0  0  0  0  0  0
   39.1315   27.7508   36.5311 H   0  0  0  0  0  0  0  0  0  0  0  0
   40.8827   26.2103   35.6973 H   0  0  0  0  0  0  0  0  0  0  0  0
  1  2  2  0
  1 13  1  0
  3  1  1  0
  4  3  1  0
  5  6  1  0
  5  4  1  0
  6  7  1  0
  7  8  1  0
  8  3  1  0
  8 15  1  0
  9 10  2  0
 11 10  1  0
 12 11  2  0
 13 14  2  0
 13 12  1  0
 14  9  1  0
 15 16  2  0
 15 20  1  0
 16 17  1  0
 17 18  2  0
 19 18  1  0
 20 19  2  0
  4 21  1  0
  4 22  1  0
  5 23  1  0
  5 24  1  0
  7 25  1  0
  7 26  1  0
  8 27  1  6
  9 28  1  0
 10 29  1  0
 11 30  1  0
 16 31  1  0
 17 32  1  0
 18 33  1  0
 19 34  1  0
M  ISO  8  21  13  22  13  23  13  24  13  25  13  26  13  27  13  28  14
M  ISO  6  29  14  30  14  31  14  32  14  33  14  34  14
M  END
>  <minimizedAffinity>  (1) 
-5.19706583

>  <minimizedRMSD>  (1) 
0.723605812

$$$$
