
     RDKit          3D

 46 51  0  0  0  0  0  0  0  0999 V2000
   39.2540   23.4380   32.4520 C   0  0  0  0  0  0  0  0  0  0  0  0
   40.0690   22.3570   32.7670 C   0  0  0  0  0  0  0  0  0  0  0  0
   39.6270   21.0360   32.6730 C   0  0  0  0  0  0  0  0  0  0  0  0
   38.3320   20.7730   32.2510 C   0  0  0  0  0  0  0  0  0  0  0  0
   37.5010   21.8270   31.9300 C   0  0  0  0  0  0  0  0  0  0  0  0
   36.2280   21.5840   31.5020 C   0  0  0  0  0  0  0  0  0  0  0  0
   35.3620   22.5880   31.1560 C   0  0  0  0  0  0  0  0  0  0  0  0
   35.8350   23.8970   31.2580 C   0  0  0  0  0  0  0  0  0  0  0  0
   37.1310   24.1080   31.6970 C   0  0  0  0  0  0  0  0  0  0  0  0
   37.9910   23.1150   32.0420 C   0  0  0  0  0  0  0  0  0  0  0  0
   39.7480   24.7790   32.5690 C   0  0  0  0  0  0  0  0  0  0  0  0
   39.7050   25.5050   33.7750 C   0  0  0  0  0  0  0  0  0  0  0  0
   40.2280   26.8020   33.7750 C   0  0  0  0  0  0  0  0  0  0  0  0
   40.7550   27.3150   32.6210 N   0  0  0  0  0  0  0  0  0  0  0  0
   40.7850   26.5930   31.4810 C   0  0  0  0  0  0  0  0  0  0  0  0
   40.2940   25.3720   31.4810 N   0  0  0  0  0  0  0  0  0  0  0  0
   39.1750   24.9310   34.9160 N   0  0  0  0  0  0  0  0  0  0  0  0
   37.9270   25.0950   35.3860 C   0  0  0  0  0  0  0  0  0  0  0  0
   37.7210   24.3950   36.5220 N   0  0  0  0  0  0  0  0  0  0  0  0
   38.8880   23.7560   36.7860 C   0  0  0  0  0  0  0  0  0  0  0  0
   39.3130   22.9090   37.7770 C   0  0  0  0  0  0  0  0  0  0  0  0
   40.5500   22.3790   37.8420 N   0  0  0  0  0  0  0  0  0  0  0  0
   41.3980   22.7380   36.8370 C   0  0  0  0  0  0  0  0  0  0  0  0
   40.9840   23.5610   35.8780 N   0  0  0  0  0  0  0  0  0  0  0  0
   39.7700   24.1020   35.7830 C   0  0  0  0  0  0  0  0  0  0  0  0
   37.2570   25.5520   31.6290 C   0  0  0  0  0  0  0  0  0  0  0  0
   36.7240   26.2610   32.7440 C   0  0  0  0  0  0  0  0  0  0  0  0
   36.6610   27.6320   33.0030 C   0  0  0  0  0  0  0  0  0  0  0  0
   37.2100   28.3920   31.9990 C   0  0  0  0  0  0  0  0  0  0  0  0
   37.7410   27.7720   30.8960 C   0  0  0  0  0  0  0  0  0  0  0  0
   37.7310   26.4590   30.7850 N   0  0  0  0  0  0  0  0  0  0  0  0
   41.0989   22.5491   33.1023 H   0  0  0  0  0  0  0  0  0  0  0  0
   40.3026   20.2076   32.9324 H   0  0  0  0  0  0  0  0  0  0  0  0
   37.9717   19.7366   32.1731 H   0  0  0  0  0  0  0  0  0  0  0  0
   35.8838   20.5416   31.4321 H   0  0  0  0  0  0  0  0  0  0  0  0
   34.3394   22.3718   30.8131 H   0  0  0  0  0  0  0  0  0  0  0  0
   35.1888   24.7471   30.9940 H   0  0  0  0  0  0  0  0  0  0  0  0
   40.2159   27.4048   34.6950 H   0  0  0  0  0  0  0  0  0  0  0  0
   41.2147   27.0201   30.5629 H   0  0  0  0  0  0  0  0  0  0  0  0
   37.1646   25.7241   34.9032 H   0  0  0  0  0  0  0  0  0  0  0  0
   38.5979   22.6452   38.5701 H   0  0  0  0  0  0  0  0  0  0  0  0
   42.4258   22.3465   36.8192 H   0  0  0  0  0  0  0  0  0  0  0  0
   36.2912   25.6242   33.5296 H   0  0  0  0  0  0  0  0  0  0  0  0
   36.2182   28.0584   33.9152 H   0  0  0  0  0  0  0  0  0  0  0  0
   37.2238   29.4890   32.0786 H   0  0  0  0  0  0  0  0  0  0  0  0
   38.1817   28.3802   30.0923 H   0  0  0  0  0  0  0  0  0  0  0  0
  1 11  1  0
  1  2  2  0
  3  2  1  0
  4  3  2  0
  5 10  2  0
  5  4  1  0
  6  5  1  0
  7  8  1  0
  7  6  2  0
  8  9  2  0
  9 10  1  0
 10  1  1  0
 11 12  1  0
 12 13  2  0
 12 17  1  0
 14 13  1  0
 15 14  2  0
 16 15  1  0
 16 11  2  0
 17 18  1  0
 17 25  1  0
 18 19  2  0
 19 20  1  0
 20 21  2  0
 21 22  1  0
 23 22  2  0
 24 23  1  0
 25 24  2  0
 25 20  1  0
 26  9  1  0
 26 27  2  0
 27 28  1  0
 29 28  2  0
 30 29  1  0
 31 30  2  0
 31 26  1  0
  2 32  1  0
  3 33  1  0
  4 34  1  0
  6 35  1  0
  7 36  1  0
  8 37  1  0
 13 38  1  0
 15 39  1  0
 18 40  1  0
 21 41  1  0
 23 42  1  0
 27 43  1  0
 28 44  1  0
 29 45  1  0
 30 46  1  0
M  ISO  8  32  14  33  14  34  14  35  14  36  14  37  14  38  14  39  14
M  ISO  7  40  14  41  14  42  14  43  14  44  14  45  14  46  14
M  END
>  <minimizedAffinity>  (1) 
-6.28381729

>  <minimizedRMSD>  (1) 
1.49076843

$$$$
