
     RDKit          3D

 50 53  0  0  0  0  0  0  0  0999 V2000
   38.8350   24.3080   33.7980 N   0  0  0  0  0  0  0  0  0  0  0  0
   38.9710   23.6310   32.6580 N   0  0  0  0  0  0  0  0  0  0  0  0
   38.6190   24.3840   31.6090 C   0  0  0  0  0  0  0  0  0  0  0  0
   38.2400   25.6120   32.1490 C   0  0  0  0  0  0  0  0  0  0  0  0
   38.3730   25.5750   33.5430 C   0  0  0  0  0  0  0  0  0  0  0  0
   38.0790   23.5620   35.9780 C   0  0  0  0  0  0  0  0  0  0  0  0
   39.1230   23.8000   35.0870 C   0  0  0  0  0  0  0  0  0  0  0  0
   40.4260   23.5400   35.4650 C   0  0  0  0  0  0  0  0  0  0  0  0
   40.6070   23.0500   36.7300 N   0  0  0  0  0  0  0  0  0  0  0  0
   39.6020   22.8250   37.5780 C   0  0  0  0  0  0  0  0  0  0  0  0
   38.3260   23.0810   37.2020 N   0  0  0  0  0  0  0  0  0  0  0  0
   38.0820   26.6370   34.4090 N   0  0  0  0  0  0  0  0  0  0  0  0
   39.0390   27.1160   35.3740 C   0  0  0  0  0  0  0  0  0  0  0  0
   40.3000   27.1100   34.9750 N   0  0  0  0  0  0  0  0  0  0  0  0
   38.5320   27.5390   36.6430 N   0  0  0  0  0  0  0  0  0  0  0  0
   40.9600   27.4820   35.6860 H   0  0  0  0  0  0  0  0  0  0  0  0
   37.8040   26.6520   31.3150 N   0  0  0  0  0  0  0  0  0  0  0  0
   36.5560   27.1510   31.0470 C   0  0  0  0  0  0  0  0  0  0  0  0
   36.7410   28.1930   30.1320 C   0  0  0  0  0  0  0  0  0  0  0  0
   38.0550   28.2960   29.8740 N   0  0  0  0  0  0  0  0  0  0  0  0
   38.7290   27.3450   30.6010 C   0  0  0  0  0  0  0  0  0  0  0  0
   40.2080   27.3200   30.4340 C   0  0  0  0  0  0  0  0  0  0  0  0
   40.6400   26.1600   29.5200 C   0  0  0  0  0  0  0  0  0  0  0  0
   40.9990   27.1850   31.6630 C   0  0  0  0  0  0  0  0  0  0  0  0
   40.5560   28.5570   29.6130 C   0  0  0  0  0  0  0  0  0  0  0  0
   41.8780   29.1530   29.9110 C   0  0  0  0  0  0  0  0  0  0  0  0
   42.3210   30.1670   28.8070 C   0  0  0  0  0  0  0  0  0  0  0  0
   43.1070   28.9560   29.1420 C   0  0  0  0  0  0  0  0  0  0  0  0
   38.6270   24.0955   30.5475 H   0  0  0  0  0  0  0  0  0  0  0  0
   37.0431   23.7712   35.6729 H   0  0  0  0  0  0  0  0  0  0  0  0
   41.2728   23.7173   34.7856 H   0  0  0  0  0  0  0  0  0  0  0  0
   39.8097   22.4311   38.5838 H   0  0  0  0  0  0  0  0  0  0  0  0
   37.1577   27.0883   34.3544 H   0  0  0  0  0  0  0  0  0  0  0  0
   39.1779   27.8891   37.3649 H   0  0  0  0  0  0  0  0  0  0  0  0
   37.5210   27.4934   36.8348 H   0  0  0  0  0  0  0  0  0  0  0  0
   35.6010   26.8023   31.4669 H   0  0  0  0  0  0  0  0  0  0  0  0
   35.9475   28.8196   29.6988 H   0  0  0  0  0  0  0  0  0  0  0  0
   40.9579   25.3063   30.1365 H   0  0  0  0  0  0  0  0  0  0  0  0
   39.7938   25.8588   28.8850 H   0  0  0  0  0  0  0  0  0  0  0  0
   41.4771   26.4857   28.8850 H   0  0  0  0  0  0  0  0  0  0  0  0
   40.3406   27.2974   32.5370 H   0  0  0  0  0  0  0  0  0  0  0  0
   41.4735   26.1929   31.6865 H   0  0  0  0  0  0  0  0  0  0  0  0
   41.7757   27.9636   31.6865 H   0  0  0  0  0  0  0  0  0  0  0  0
   39.7868   29.3202   29.8027 H   0  0  0  0  0  0  0  0  0  0  0  0
   40.5956   28.2290   28.5638 H   0  0  0  0  0  0  0  0  0  0  0  0
   41.7039   29.0688   30.9939 H   0  0  0  0  0  0  0  0  0  0  0  0
   42.6908   31.1654   29.0835 H   0  0  0  0  0  0  0  0  0  0  0  0
   41.8733   30.5955   27.8982 H   0  0  0  0  0  0  0  0  0  0  0  0
   43.1613   28.1316   28.4158 H   0  0  0  0  0  0  0  0  0  0  0  0
   44.1568   28.7953   29.4286 H   0  0  0  0  0  0  0  0  0  0  0  0
  1  7  1  0
  2  1  1  0
  3  4  1  0
  3  2  2  0
  4  5  2  0
  5  1  1  0
  5 12  1  0
  6 11  2  0
  7  8  2  0
  7  6  1  0
  8  9  1  0
  9 10  2  0
 11 10  1  0
 12 13  1  0
 13 15  1  0
 14 13  2  0
 14 16  1  0
 17  4  1  0
 18 17  1  0
 19 18  2  0
 20 19  1  0
 20 21  2  0
 21 17  1  0
 22 21  1  0
 22 24  1  0
 23 22  1  0
 25 26  1  0
 25 22  1  0
 27 28  1  0
 27 26  1  0
 28 26  1  0
  3 29  1  0
  6 30  1  0
  8 31  1  0
 10 32  1  0
 12 33  1  0
 15 34  1  0
 15 35  1  0
 18 36  1  0
 19 37  1  0
 23 38  1  0
 23 39  1  0
 23 40  1  0
 24 41  1  0
 24 42  1  0
 24 43  1  0
 25 44  1  0
 25 45  1  0
 26 46  1  0
 27 47  1  0
 27 48  1  0
 28 49  1  0
 28 50  1  0
M  ISO  8  29  14  30  14  31  14  32  14  36  14  37  14  38   8  39   8
M  ISO  8  40   8  41   8  42   8  43   8  44   8  45   8  46  13  47  13
M  ISO  3  48  13  49  13  50  13
M  END
>  <minimizedAffinity>  (1) 
-4.75107908

>  <minimizedRMSD>  (1) 
0.498189837

$$$$
