
     RDKit          3D

 22 23  0  0  0  0  0  0  0  0999 V2000
   37.5540   27.4730   34.7970 C   0  0  0  0  0  0  0  0  0  0  0  0
   38.4010   27.0270   33.7090 C   0  0  0  0  0  0  0  0  0  0  0  0
   37.9400   27.4720   32.5060 C   0  0  0  0  0  0  0  0  0  0  0  0
   36.8000   28.2600   32.3990 N   0  0  0  0  0  0  0  0  0  0  0  0
   36.0750   28.6330   33.4440 C   0  0  0  0  0  0  0  0  0  0  0  0
   36.4370   28.2470   34.6570 N   0  0  0  0  0  0  0  0  0  0  0  0
   39.5100   26.2580   34.2380 C   0  0  0  0  0  0  0  0  0  0  0  0
   39.2410   24.7570   34.5440 C   0  0  0  0  0  0  0  0  0  0  0  0
   40.8810   24.2180   35.0470 S   0  0  0  0  0  0  0  0  0  0  0  0
   41.6740   25.9280   34.8080 C   0  0  0  0  0  0  0  0  0  0  0  0
   40.7120   26.7980   34.3770 N   0  0  0  0  0  0  0  0  0  0  0  0
   38.7450   26.9420   31.3480 C   0  0  0  0  0  0  0  0  0  0  0  0
   38.0320   25.6770   30.8730 C   0  0  0  0  0  0  0  0  0  0  0  0
   37.8323   27.1641   35.8154 H   0  0  0  0  0  0  0  0  0  0  0  0
   35.1805   29.2578   33.3043 H   0  0  0  0  0  0  0  0  0  0  0  0
   38.3052   24.1832   34.4724 H   0  0  0  0  0  0  0  0  0  0  0  0
   42.7306   26.1763   34.9866 H   0  0  0  0  0  0  0  0  0  0  0  0
   38.7819   27.6853   30.5380 H   0  0  0  0  0  0  0  0  0  0  0  0
   39.7819   26.7282   31.6467 H   0  0  0  0  0  0  0  0  0  0  0  0
   37.7026   25.0925   31.7447 H   0  0  0  0  0  0  0  0  0  0  0  0
   37.1576   25.9549   30.2662 H   0  0  0  0  0  0  0  0  0  0  0  0
   38.7225   25.0728   30.2662 H   0  0  0  0  0  0  0  0  0  0  0  0
  2  7  1  0
  2  1  2  0
  3  2  1  0
  4  3  2  0
  4  5  1  0
  5  6  2  0
  6  1  1  0
  7 11  1  0
  7  8  2  0
  8  9  1  0
 10  9  1  0
 11 10  2  0
 12  3  1  0
 13 12  1  0
  1 14  1  0
  5 15  1  0
  8 16  1  0
 10 17  1  0
 12 18  1  0
 12 19  1  0
 13 20  1  0
 13 21  1  0
 13 22  1  0
M  ISO  8  14  14  15  14  16  14  17  14  18   8  19   8  20   8  21   8
M  ISO  1  22   8
M  END
>  <minimizedAffinity>  (1) 
-2.87900329

>  <minimizedRMSD>  (1) 
7.07941103

$$$$
