
     RDKit          3D

 39 42  0  0  1  0  0  0  0  0999 V2000
   37.7850   27.1180   33.5410 N   0  0  0  0  0  0  0  0  0  0  0  0
   36.6040   27.9570   33.5800 C   0  0  0  0  0  0  0  0  0  0  0  0
   36.2440   28.2040   32.1540 C   0  0  0  0  0  0  0  0  0  0  0  0
   37.2680   27.4100   31.3650 C   0  0  0  0  0  0  0  0  0  0  0  0
   37.5730   26.2900   32.4020 C   0  0  2  0  0  0  0  0  0  0  0  0
   37.8600   26.2610   34.6900 C   0  0  0  0  0  0  0  0  0  0  0  0
   41.6340   25.9120   34.8290 C   0  0  0  0  0  0  0  0  0  0  0  0
   40.3810   26.4970   34.6510 C   0  0  0  0  0  0  0  0  0  0  0  0
   39.2360   25.6960   34.8630 C   0  0  0  0  0  0  0  0  0  0  0  0
   39.4380   24.3960   35.2290 N   0  0  0  0  0  0  0  0  0  0  0  0
   40.6760   23.8910   35.3840 C   0  0  0  0  0  0  0  0  0  0  0  0
   41.7560   24.6530   35.1830 N   0  0  0  0  0  0  0  0  0  0  0  0
   36.5190   25.4360   32.5460 O   0  0  0  0  0  0  0  0  0  0  0  0
   36.7680   24.1420   32.1840 C   0  0  2  0  0  0  0  0  0  0  0  0
   37.1070   23.9240   30.7390 C   0  0  0  0  0  0  0  0  0  0  0  0
   35.8330   23.3750   31.3120 C   0  0  1  0  0  0  0  0  0  0  0  0
   35.8030   21.8990   31.4650 C   0  0  0  0  0  0  0  0  0  0  0  0
   35.2230   21.4010   32.6770 C   0  0  0  0  0  0  0  0  0  0  0  0
   35.3880   19.5450   32.4680 S   0  0  0  0  0  0  0  0  0  0  0  0
   36.2130   19.8100   30.7750 C   0  0  0  0  0  0  0  0  0  0  0  0
   36.2420   20.9730   30.6360 N   0  0  0  0  0  0  0  0  0  0  0  0
   35.7831   27.4415   34.1001 H   0  0  0  0  0  0  0  0  0  0  0  0
   36.7878   28.8957   34.1232 H   0  0  0  0  0  0  0  0  0  0  0  0
   35.2258   27.8460   31.9417 H   0  0  0  0  0  0  0  0  0  0  0  0
   36.2538   29.2737   31.8977 H   0  0  0  0  0  0  0  0  0  0  0  0
   36.8450   27.0042   30.4342 H   0  0  0  0  0  0  0  0  0  0  0  0
   38.1422   27.9821   31.0207 H   0  0  0  0  0  0  0  0  0  0  0  0
   38.4014   25.6079   32.1603 H   0  0  0  0  0  0  0  0  0  0  0  0
   37.5962   26.8411   35.5866 H   0  0  0  0  0  0  0  0  0  0  0  0
   37.1592   25.4257   34.5445 H   0  0  0  0  0  0  0  0  0  0  0  0
   42.5387   26.5171   34.6697 H   0  0  0  0  0  0  0  0  0  0  0  0
   40.2863   27.5519   34.3540 H   0  0  0  0  0  0  0  0  0  0  0  0
   40.8006   22.8388   35.6796 H   0  0  0  0  0  0  0  0  0  0  0  0
   37.2141   23.9224   33.1652 H   0  0  0  0  0  0  0  0  0  0  0  0
   37.9250   23.2429   30.4614 H   0  0  0  0  0  0  0  0  0  0  0  0
   37.3640   24.5757   29.8909 H   0  0  0  0  0  0  0  0  0  0  0  0
   34.7597   23.4592   31.0862 H   0  0  0  0  0  0  0  0  0  0  0  0
   34.7907   21.9646   33.5169 H   0  0  0  0  0  0  0  0  0  0  0  0
   36.5815   19.0412   30.0799 H   0  0  0  0  0  0  0  0  0  0  0  0
  1  2  1  0
  1  6  1  0
  3  2  1  0
  4  3  1  0
  4  5  1  0
  5 13  1  0
  5  1  1  0
  6  9  1  0
  7 12  2  0
  8  7  1  0
  8  9  2  0
  9 10  1  0
 10 11  2  0
 12 11  1  0
 14 13  1  0
 15 16  1  0
 15 14  1  0
 16 17  1  0
 16 14  1  0
 17 18  2  0
 19 18  1  0
 20 19  1  0
 21 20  2  0
 21 17  1  0
  2 22  1  0
  2 23  1  0
  3 24  1  0
  3 25  1  0
  4 26  1  0
  4 27  1  0
  5 28  1  6
  6 29  1  0
  6 30  1  0
  7 31  1  0
  8 32  1  0
 11 33  1  0
 14 34  1  1
 15 35  1  0
 15 36  1  0
 16 37  1  6
 18 38  1  0
 20 39  1  0
M  ISO  8  22  13  23  13  24  13  25  13  26  13  27  13  28  13  29   8
M  ISO  8  30   8  31  14  32  14  33  14  34  13  35  13  36  13  37  13
M  ISO  2  38  14  39  14
M  END
>  <minimizedAffinity>  (1) 
-4.49008799

>  <minimizedRMSD>  (1) 
6.45585251

$$$$
