
     RDKit          3D

 39 42  0  0  1  0  0  0  0  0999 V2000
   37.3590   25.7760   32.8760 N   0  0  0  0  0  0  0  0  0  0  0  0
   36.8590   24.6500   32.3670 C   0  0  0  0  0  0  0  0  0  0  0  0
   35.8420   24.8480   31.4580 C   0  0  0  0  0  0  0  0  0  0  0  0
   35.7120   26.1770   31.4060 N   0  0  0  0  0  0  0  0  0  0  0  0
   36.6210   26.7350   32.2550 C   0  0  0  0  0  0  0  0  0  0  0  0
   36.7040   28.2350   32.3600 C   0  0  1  0  0  0  0  0  0  0  0  0
   35.9570   29.0240   31.3540 C   0  0  0  0  0  0  0  0  0  0  0  0
   35.4190   28.9500   32.7620 C   0  0  2  0  0  0  0  0  0  0  0  0
   35.6210   30.1490   33.6140 C   0  0  0  0  0  0  0  0  0  0  0  0
   35.6550   31.4590   33.0720 C   0  0  0  0  0  0  0  0  0  0  0  0
   35.9330   32.5420   34.5870 S   0  0  0  0  0  0  0  0  0  0  0  0
   35.9480   30.9820   35.6650 C   0  0  0  0  0  0  0  0  0  0  0  0
   35.7850   30.1150   34.9150 N   0  0  0  0  0  0  0  0  0  0  0  0
   38.3640   26.0850   33.8150 C   0  0  0  0  0  0  0  0  0  0  0  0
   37.8910   26.0860   35.2200 C   0  0  1  0  0  0  0  0  0  0  0  0
   38.4740   23.5640   37.9840 C   0  0  0  0  0  0  0  0  0  0  0  0
   37.8720   24.6480   37.3130 C   0  0  0  0  0  0  0  0  0  0  0  0
   38.4450   24.9850   36.0330 C   0  0  0  0  0  0  0  0  0  0  0  0
   39.5180   24.2520   35.5500 N   0  0  0  0  0  0  0  0  0  0  0  0
   40.0420   23.2400   36.2300 C   0  0  0  0  0  0  0  0  0  0  0  0
   39.5200   22.8850   37.4640 N   0  0  0  0  0  0  0  0  0  0  0  0
   38.1840   27.4260   35.8880 C   0  0  0  0  0  0  0  0  0  0  0  0
   37.2255   23.6515   32.6475 H   0  0  0  0  0  0  0  0  0  0  0  0
   35.2704   24.0887   30.9042 H   0  0  0  0  0  0  0  0  0  0  0  0
   37.7435   28.2307   32.7198 H   0  0  0  0  0  0  0  0  0  0  0  0
   36.3773   29.9687   30.9787 H   0  0  0  0  0  0  0  0  0  0  0  0
   35.5420   28.8072   30.3587 H   0  0  0  0  0  0  0  0  0  0  0  0
   34.4549   28.6702   33.2117 H   0  0  0  0  0  0  0  0  0  0  0  0
   35.5456   31.7675   32.0218 H   0  0  0  0  0  0  0  0  0  0  0  0
   36.0812   30.9158   36.7549 H   0  0  0  0  0  0  0  0  0  0  0  0
   39.1678   25.3401   33.7203 H   0  0  0  0  0  0  0  0  0  0  0  0
   38.7074   27.1060   33.5921 H   0  0  0  0  0  0  0  0  0  0  0  0
   36.8041   25.9242   35.1701 H   0  0  0  0  0  0  0  0  0  0  0  0
   38.0785   23.2606   38.9646 H   0  0  0  0  0  0  0  0  0  0  0  0
   37.0210   25.2006   37.7379 H   0  0  0  0  0  0  0  0  0  0  0  0
   40.8930   22.6813   35.8132 H   0  0  0  0  0  0  0  0  0  0  0  0
   38.1574   27.3044   36.9809 H   0  0  0  0  0  0  0  0  0  0  0  0
   39.1803   27.7780   35.5823 H   0  0  0  0  0  0  0  0  0  0  0  0
   37.4255   28.1617   35.5823 H   0  0  0  0  0  0  0  0  0  0  0  0
  1 14  1  0
  2  1  1  0
  3  2  2  0
  4  3  1  0
  4  5  2  0
  5  6  1  0
  5  1  1  0
  6  8  1  0
  7  6  1  0
  7  8  1  0
  8  9  1  0
  9 13  1  0
 10  9  2  0
 10 11  1  0
 11 12  1  0
 13 12  2  0
 14 15  1  0
 15 22  1  0
 15 18  1  0
 17 16  2  0
 18 17  1  0
 19 18  2  0
 19 20  1  0
 20 21  2  0
 21 16  1  0
  2 23  1  0
  3 24  1  0
  6 25  1  1
  7 26  1  0
  7 27  1  0
  8 28  1  6
 10 29  1  0
 12 30  1  0
 14 31  1  0
 14 32  1  0
 15 33  1  6
 16 34  1  0
 17 35  1  0
 20 36  1  0
 22 37  1  0
 22 38  1  0
 22 39  1  0
M  ISO  8  23  14  24  14  25  13  26  13  27  13  28  13  29  14  30  14
M  ISO  8  31   8  32   8  33   8  34  14  35  14  36  14  37   8  38   8
M  ISO  1  39   8
M  END
>  <minimizedAffinity>  (1) 
-5.23005152

>  <minimizedRMSD>  (1) 
0.943786085

$$$$
