
     RDKit          3D

 42 45  0  0  1  0  0  0  0  0999 V2000
   38.3250   24.5130   33.6000 N   0  0  0  0  0  0  0  0  0  0  0  0
   38.9980   24.3620   32.3470 C   0  0  0  0  0  0  0  0  0  0  0  0
   37.9270   24.4490   31.2980 C   0  0  0  0  0  0  0  0  0  0  0  0
   36.6450   24.6930   32.0870 C   0  0  0  0  0  0  0  0  0  0  0  0
   37.2550   25.4490   33.2950 C   0  0  2  0  0  0  0  0  0  0  0  0
   39.1190   25.1510   34.6140 C   0  0  0  0  0  0  0  0  0  0  0  0
   37.9750   24.1740   38.0880 C   0  0  0  0  0  0  0  0  0  0  0  0
   38.0390   24.8360   36.8640 C   0  0  0  0  0  0  0  0  0  0  0  0
   39.0210   24.4670   35.9290 C   0  0  0  0  0  0  0  0  0  0  0  0
   39.8790   23.4580   36.2790 N   0  0  0  0  0  0  0  0  0  0  0  0
   39.7870   22.8350   37.4760 C   0  0  0  0  0  0  0  0  0  0  0  0
   38.8390   23.2000   38.3650 N   0  0  0  0  0  0  0  0  0  0  0  0
   37.6840   26.6950   32.9600 O   0  0  0  0  0  0  0  0  0  0  0  0
   36.9730   27.8860   32.9510 C   0  0  0  0  0  0  0  0  0  0  0  0
   36.2270   28.4090   33.9870 C   0  0  0  0  0  0  0  0  0  0  0  0
   35.5600   29.6090   33.8600 C   0  0  0  0  0  0  0  0  0  0  0  0
   35.6660   30.2810   32.6380 C   0  0  0  0  0  0  0  0  0  0  0  0
   36.4090   29.7770   31.5830 C   0  0  0  0  0  0  0  0  0  0  0  0
   36.4660   30.4950   30.4110 C   0  0  0  0  0  0  0  0  0  0  0  0
   37.2010   30.0040   29.3540 C   0  0  0  0  0  0  0  0  0  0  0  0
   37.8720   28.8050   29.4710 C   0  0  0  0  0  0  0  0  0  0  0  0
   37.7940   28.1110   30.6600 C   0  0  0  0  0  0  0  0  0  0  0  0
   37.0680   28.5650   31.7460 C   0  0  0  0  0  0  0  0  0  0  0  0
   39.7364   25.1655   32.2089 H   0  0  0  0  0  0  0  0  0  0  0  0
   39.5443   23.4089   32.2916 H   0  0  0  0  0  0  0  0  0  0  0  0
   37.8616   23.5098   30.7292 H   0  0  0  0  0  0  0  0  0  0  0  0
   38.1241   25.2416   30.5612 H   0  0  0  0  0  0  0  0  0  0  0  0
   35.9277   25.3135   31.5297 H   0  0  0  0  0  0  0  0  0  0  0  0
   36.0590   23.7953   32.3333 H   0  0  0  0  0  0  0  0  0  0  0  0
   36.5786   25.6701   34.1338 H   0  0  0  0  0  0  0  0  0  0  0  0
   40.1709   25.1474   34.2923 H   0  0  0  0  0  0  0  0  0  0  0  0
   38.7378   26.1750   34.7412 H   0  0  0  0  0  0  0  0  0  0  0  0
   37.2099   24.4563   38.8262 H   0  0  0  0  0  0  0  0  0  0  0  0
   37.3266   25.6411   36.6312 H   0  0  0  0  0  0  0  0  0  0  0  0
   40.4889   22.0260   37.7266 H   0  0  0  0  0  0  0  0  0  0  0  0
   36.1629   27.8561   34.9358 H   0  0  0  0  0  0  0  0  0  0  0  0
   34.9666   30.0224   34.6889 H   0  0  0  0  0  0  0  0  0  0  0  0
   35.1428   31.2402   32.5106 H   0  0  0  0  0  0  0  0  0  0  0  0
   35.9303   31.4513   30.3186 H   0  0  0  0  0  0  0  0  0  0  0  0
   37.2527   30.5709   28.4128 H   0  0  0  0  0  0  0  0  0  0  0  0
   38.4597   28.4088   28.6298 H   0  0  0  0  0  0  0  0  0  0  0  0
   38.3321   27.1557   30.7485 H   0  0  0  0  0  0  0  0  0  0  0  0
  1  6  1  0
  2  1  1  0
  3  4  1  0
  3  2  1  0
  4  5  1  0
  5  1  1  0
  6  9  1  0
  7 12  2  0
  8  7  1  0
  9 10  1  0
  9  8  2  0
 10 11  2  0
 11 12  1  0
 13  5  1  0
 14 13  1  0
 14 15  2  0
 16 15  1  0
 17 16  2  0
 18 23  2  0
 18 17  1  0
 19 18  1  0
 20 21  1  0
 20 19  2  0
 21 22  2  0
 22 23  1  0
 23 14  1  0
  2 24  1  0
  2 25  1  0
  3 26  1  0
  3 27  1  0
  4 28  1  0
  4 29  1  0
  5 30  1  1
  6 31  1  0
  6 32  1  0
  7 33  1  0
  8 34  1  0
 11 35  1  0
 15 36  1  0
 16 37  1  0
 17 38  1  0
 19 39  1  0
 20 40  1  0
 21 41  1  0
 22 42  1  0
M  ISO  8  24  13  25  13  26  13  27  13  28  13  29  13  30  13  31   8
M  ISO  8  32   8  33  14  34  14  35  14  36  14  37  14  38  14  39  14
M  ISO  3  40  14  41  14  42  14
M  END
>  <minimizedAffinity>  (1) 
-5.52449703

>  <minimizedRMSD>  (1) 
4.72888899

$$$$
