
     RDKit          3D

 36 39  0  0  0  0  0  0  0  0999 V2000
   38.3290   25.7620   34.1110 C   0  0  0  0  0  0  0  0  0  0  0  0
   39.2060   24.7090   34.6200 C   0  0  0  0  0  0  0  0  0  0  0  0
   40.2140   24.1500   33.8570 C   0  0  0  0  0  0  0  0  0  0  0  0
   41.0330   23.1810   34.3670 C   0  0  0  0  0  0  0  0  0  0  0  0
   40.8830   22.7230   35.6650 C   0  0  0  0  0  0  0  0  0  0  0  0
   39.8760   23.2760   36.4400 C   0  0  0  0  0  0  0  0  0  0  0  0
   39.7200   22.8290   37.7400 C   0  0  0  0  0  0  0  0  0  0  0  0
   38.7330   23.3510   38.5530 C   0  0  0  0  0  0  0  0  0  0  0  0
   37.8940   24.3340   38.0460 C   0  0  0  0  0  0  0  0  0  0  0  0
   38.0750   24.7620   36.7380 C   0  0  0  0  0  0  0  0  0  0  0  0
   39.0590   24.2560   35.9020 C   0  0  0  0  0  0  0  0  0  0  0  0
   35.9420   25.8850   31.3220 C   0  0  0  0  0  0  0  0  0  0  0  0
   35.6530   24.5540   31.0600 C   0  0  0  0  0  0  0  0  0  0  0  0
   36.2860   23.5780   31.8650 C   0  0  0  0  0  0  0  0  0  0  0  0
   37.1440   23.9750   32.8510 N   0  0  0  0  0  0  0  0  0  0  0  0
   37.3860   25.2810   33.0570 C   0  0  0  0  0  0  0  0  0  0  0  0
   36.7960   26.2240   32.3070 N   0  0  0  0  0  0  0  0  0  0  0  0
   36.0580   22.1620   31.6810 C   0  0  0  0  0  0  0  0  0  0  0  0
   35.1000   21.4450   32.4040 C   0  0  0  0  0  0  0  0  0  0  0  0
   35.1390   20.1290   31.9910 C   0  0  0  0  0  0  0  0  0  0  0  0
   36.1410   20.1050   31.0140 C   0  0  0  0  0  0  0  0  0  0  0  0
   36.6360   21.3130   30.8790 O   0  0  0  0  0  0  0  0  0  0  0  0
   37.7413   26.1638   34.9495 H   0  0  0  0  0  0  0  0  0  0  0  0
   38.9700   26.5292   33.6521 H   0  0  0  0  0  0  0  0  0  0  0  0
   40.3599   24.4907   32.8213 H   0  0  0  0  0  0  0  0  0  0  0  0
   41.8264   22.7572   33.7338 H   0  0  0  0  0  0  0  0  0  0  0  0
   41.5442   21.9425   36.0695 H   0  0  0  0  0  0  0  0  0  0  0  0
   40.3898   22.0488   38.1306 H   0  0  0  0  0  0  0  0  0  0  0  0
   38.6136   22.9933   39.5863 H   0  0  0  0  0  0  0  0  0  0  0  0
   37.0987   24.7667   38.6707 H   0  0  0  0  0  0  0  0  0  0  0  0
   37.4049   25.5409   36.3452 H   0  0  0  0  0  0  0  0  0  0  0  0
   35.4682   26.6731   30.7183 H   0  0  0  0  0  0  0  0  0  0  0  0
   34.9580   24.2682   30.2567 H   0  0  0  0  0  0  0  0  0  0  0  0
   34.4295   21.8593   33.1713 H   0  0  0  0  0  0  0  0  0  0  0  0
   34.5233   19.2903   32.3480 H   0  0  0  0  0  0  0  0  0  0  0  0
   36.4619   19.2167   30.4501 H   0  0  0  0  0  0  0  0  0  0  0  0
  1  2  1  0
  2 11  2  0
  3  4  2  0
  3  2  1  0
  4  5  1  0
  5  6  2  0
  6  7  1  0
  7  8  2  0
  9  8  1  0
 10  9  2  0
 11  6  1  0
 11 10  1  0
 12 17  2  0
 13 12  1  0
 13 14  2  0
 14 15  1  0
 15 16  2  0
 16  1  1  0
 17 16  1  0
 18 14  1  0
 18 19  2  0
 20 19  1  0
 21 20  2  0
 22 21  1  0
 22 18  1  0
  1 23  1  0
  1 24  1  0
  3 25  1  0
  4 26  1  0
  5 27  1  0
  7 28  1  0
  8 29  1  0
  9 30  1  0
 10 31  1  0
 12 32  1  0
 13 33  1  0
 19 34  1  0
 20 35  1  0
 21 36  1  0
M  ISO  8  23   8  24   8  25  14  26  14  27  14  28  14  29  14  30  14
M  ISO  6  31  14  32  14  33  14  34  14  35  14  36  14
M  END
>  <minimizedAffinity>  (1) 
-6.15695906

>  <minimizedRMSD>  (1) 
3.01780391

$$$$
