
     RDKit          3D

 36 39  0  0  1  0  0  0  0  0999 V2000
   37.1170   26.8870   34.0650 C   0  0  0  0  0  0  0  0  0  0  0  0
   36.5340   28.1500   33.5640 C   0  0  0  0  0  0  0  0  0  0  0  0
   36.3950   28.6130   32.2720 C   0  0  0  0  0  0  0  0  0  0  0  0
   35.8260   29.8250   31.9530 C   0  0  0  0  0  0  0  0  0  0  0  0
   35.3780   30.6050   32.9850 C   0  0  0  0  0  0  0  0  0  0  0  0
   35.5290   30.1210   34.2560 C   0  0  0  0  0  0  0  0  0  0  0  0
   36.0840   28.9360   34.5610 N   0  0  0  0  0  0  0  0  0  0  0  0
   35.0330   30.9880   35.3520 C   0  0  0  0  0  0  0  0  0  0  0  0
   35.7130   31.9160   36.0680 C   0  0  0  0  0  0  0  0  0  0  0  0
   34.8790   32.5060   37.0010 C   0  0  0  0  0  0  0  0  0  0  0  0
   33.6920   31.8620   36.7720 C   0  0  0  0  0  0  0  0  0  0  0  0
   33.7830   30.9770   35.8100 O   0  0  0  0  0  0  0  0  0  0  0  0
   39.3090   25.9460   35.1910 C   0  0  2  0  0  0  0  0  0  0  0  0
   38.7750   27.1370   35.9010 C   0  0  0  0  0  0  0  0  0  0  0  0
   38.5410   26.9630   34.4310 C   0  0  2  0  0  0  0  0  0  0  0  0
   37.5390   23.2810   36.9890 C   0  0  0  0  0  0  0  0  0  0  0  0
   37.4890   22.2030   36.0760 C   0  0  0  0  0  0  0  0  0  0  0  0
   38.0970   22.4470   34.8020 C   0  0  0  0  0  0  0  0  0  0  0  0
   38.6610   23.6540   34.5650 N   0  0  0  0  0  0  0  0  0  0  0  0
   38.6700   24.6530   35.5010 C   0  0  0  0  0  0  0  0  0  0  0  0
   38.1010   24.4610   36.7300 N   0  0  0  0  0  0  0  0  0  0  0  0
   37.0064   26.1246   33.2798 H   0  0  0  0  0  0  0  0  0  0  0  0
   36.5738   26.6423   34.9897 H   0  0  0  0  0  0  0  0  0  0  0  0
   36.7592   27.9781   31.4509 H   0  0  0  0  0  0  0  0  0  0  0  0
   35.7346   30.1547   30.9075 H   0  0  0  0  0  0  0  0  0  0  0  0
   34.9137   31.5848   32.7993 H   0  0  0  0  0  0  0  0  0  0  0  0
   36.7753   32.1645   35.9276 H   0  0  0  0  0  0  0  0  0  0  0  0
   35.1097   33.2902   37.7371 H   0  0  0  0  0  0  0  0  0  0  0  0
   32.7673   32.0648   37.3321 H   0  0  0  0  0  0  0  0  0  0  0  0
   40.2988   25.4848   35.0582 H   0  0  0  0  0  0  0  0  0  0  0  0
   37.9399   27.0282   36.6086 H   0  0  0  0  0  0  0  0  0  0  0  0
   39.2066   27.9262   36.5341 H   0  0  0  0  0  0  0  0  0  0  0  0
   38.7681   27.4435   33.4679 H   0  0  0  0  0  0  0  0  0  0  0  0
   37.0834   23.1360   37.9797 H   0  0  0  0  0  0  0  0  0  0  0  0
   37.0155   21.2423   36.3267 H   0  0  0  0  0  0  0  0  0  0  0  0
   38.1053   21.6652   34.0283 H   0  0  0  0  0  0  0  0  0  0  0  0
  1 15  1  0
  2  1  1  0
  2  7  1  0
  3  2  2  0
  4  3  1  0
  4  5  2  0
  5  6  1  0
  6  7  2  0
  6  8  1  0
  8 12  1  0
  8  9  2  0
  9 10  1  0
 11 10  2  0
 12 11  1  0
 13 20  1  0
 13 14  1  0
 15 13  1  0
 15 14  1  0
 17 16  2  0
 18 17  1  0
 19 18  2  0
 19 20  1  0
 20 21  2  0
 21 16  1  0
  1 22  1  0
  1 23  1  0
  3 24  1  0
  4 25  1  0
  5 26  1  0
  9 27  1  0
 10 28  1  0
 11 29  1  0
 13 30  1  6
 14 31  1  0
 14 32  1  0
 15 33  1  6
 16 34  1  0
 17 35  1  0
 18 36  1  0
M  ISO  8  22   8  23   8  24  14  25  14  26  14  27  14  28  14  29  14
M  ISO  7  30  13  31  13  32  13  33  13  34  14  35  14  36  14
M  END
>  <minimizedAffinity>  (1) 
-5.64664936

>  <minimizedRMSD>  (1) 
5.5790658

$$$$
