
     RDKit          3D

 32 34  0  0  1  0  0  0  0  0999 V2000
   37.5840   25.4880   34.5070 N   0  0  0  0  0  0  0  0  0  0  0  0
   37.1300   25.6990   33.1790 C   0  0  0  0  0  0  0  0  0  0  0  0
   36.8120   27.1740   33.0860 C   0  0  0  0  0  0  0  0  0  0  0  0
   37.2050   27.7480   34.4550 C   0  0  0  0  0  0  0  0  0  0  0  0
   38.2440   26.7160   34.8410 C   0  0  2  0  0  0  0  0  0  0  0  0
   39.5330   26.9140   34.1660 C   0  0  0  0  0  0  0  0  0  0  0  0
   40.7880   26.7620   34.7230 C   0  0  0  0  0  0  0  0  0  0  0  0
   41.6970   27.0510   33.7230 C   0  0  0  0  0  0  0  0  0  0  0  0
   40.9340   27.3680   32.5960 C   0  0  0  0  0  0  0  0  0  0  0  0
   39.6480   27.2720   32.9080 O   0  0  0  0  0  0  0  0  0  0  0  0
   38.5390   24.4290   34.6590 C   0  0  0  0  0  0  0  0  0  0  0  0
   37.8460   23.7630   38.3140 C   0  0  0  0  0  0  0  0  0  0  0  0
   37.6630   24.2150   37.0030 C   0  0  0  0  0  0  0  0  0  0  0  0
   38.6850   23.9700   36.0670 C   0  0  0  0  0  0  0  0  0  0  0  0
   39.8080   23.3010   36.4820 N   0  0  0  0  0  0  0  0  0  0  0  0
   39.9330   22.8870   37.7610 C   0  0  0  0  0  0  0  0  0  0  0  0
   38.9710   23.1120   38.6650 N   0  0  0  0  0  0  0  0  0  0  0  0
   37.9155   25.4296   32.4576 H   0  0  0  0  0  0  0  0  0  0  0  0
   36.2520   25.0785   32.9462 H   0  0  0  0  0  0  0  0  0  0  0  0
   37.3988   27.6470   32.2848 H   0  0  0  0  0  0  0  0  0  0  0  0
   35.7536   27.3560   32.8482 H   0  0  0  0  0  0  0  0  0  0  0  0
   37.6340   28.7576   34.3735 H   0  0  0  0  0  0  0  0  0  0  0  0
   36.3803   27.8862   35.1697 H   0  0  0  0  0  0  0  0  0  0  0  0
   38.5438   26.7610   35.8984 H   0  0  0  0  0  0  0  0  0  0  0  0
   41.0183   26.4689   35.7579 H   0  0  0  0  0  0  0  0  0  0  0  0
   42.7943   27.0348   33.7985 H   0  0  0  0  0  0  0  0  0  0  0  0
   41.3342   27.6509   31.6112 H   0  0  0  0  0  0  0  0  0  0  0  0
   38.2158   23.5757   34.0447 H   0  0  0  0  0  0  0  0  0  0  0  0
   39.5159   24.8210   34.3396 H   0  0  0  0  0  0  0  0  0  0  0  0
   37.0629   23.9412   39.0657 H   0  0  0  0  0  0  0  0  0  0  0  0
   36.7455   24.7473   36.7116 H   0  0  0  0  0  0  0  0  0  0  0  0
   40.8448   22.3533   38.0671 H   0  0  0  0  0  0  0  0  0  0  0  0
  1 11  1  0
  1  5  1  0
  2  1  1  0
  3  2  1  0
  3  4  1  0
  4  5  1  0
  6  7  2  0
  6  5  1  0
  8  7  1  0
  9 10  1  0
  9  8  2  0
 10  6  1  0
 11 14  1  0
 12 17  2  0
 13 12  1  0
 14 15  1  0
 14 13  2  0
 15 16  2  0
 16 17  1  0
  2 18  1  0
  2 19  1  0
  3 20  1  0
  3 21  1  0
  4 22  1  0
  4 23  1  0
  5 24  1  1
  7 25  1  0
  8 26  1  0
  9 27  1  0
 11 28  1  0
 11 29  1  0
 12 30  1  0
 13 31  1  0
 16 32  1  0
M  ISO  8  18  13  19  13  20  13  21  13  22  13  23  13  24  13  25  14
M  ISO  7  26  14  27  14  28   8  29   8  30  14  31  14  32  14
M  END
>  <minimizedAffinity>  (1) 
-4.56534767

>  <minimizedRMSD>  (1) 
0.725473821

$$$$
