
     RDKit          3D

 29 30  0  0  0  0  0  0  0  0999 V2000
   39.7540   22.8150   37.9560 C   0  0  0  0  0  0  0  0  0  0  0  0
   38.8580   23.4190   38.8690 C   0  0  0  0  0  0  0  0  0  0  0  0
   37.8280   24.1790   38.3100 C   0  0  0  0  0  0  0  0  0  0  0  0
   37.7190   24.3120   36.9540 N   0  0  0  0  0  0  0  0  0  0  0  0
   38.6100   23.7080   36.1310 C   0  0  0  0  0  0  0  0  0  0  0  0
   39.6040   22.9770   36.6270 N   0  0  0  0  0  0  0  0  0  0  0  0
   38.4920   23.8520   34.6580 C   0  0  0  0  0  0  0  0  0  0  0  0
   39.4540   24.8390   34.0750 C   0  0  0  0  0  0  0  0  0  0  0  0
   40.8860   24.4600   34.1530 C   0  0  0  0  0  0  0  0  0  0  0  0
   41.7910   25.5870   34.5850 C   0  0  0  0  0  0  0  0  0  0  0  0
   41.4430   26.9200   34.0160 C   0  0  0  0  0  0  0  0  0  0  0  0
   39.9750   27.2160   33.9440 C   0  0  0  0  0  0  0  0  0  0  0  0
   39.1460   26.1860   34.6750 C   0  0  0  0  0  0  0  0  0  0  0  0
   40.5856   22.2040   38.3369 H   0  0  0  0  0  0  0  0  0  0  0  0
   38.9662   23.2971   39.9569 H   0  0  0  0  0  0  0  0  0  0  0  0
   37.0981   24.6749   38.9668 H   0  0  0  0  0  0  0  0  0  0  0  0
   38.6775   22.8709   34.1964 H   0  0  0  0  0  0  0  0  0  0  0  0
   37.4789   24.2265   34.4500 H   0  0  0  0  0  0  0  0  0  0  0  0
   39.3010   24.8660   32.9860 H   0  0  0  0  0  0  0  0  0  0  0  0
   40.9881   23.6368   34.8754 H   0  0  0  0  0  0  0  0  0  0  0  0
   41.1967   24.1704   33.1383 H   0  0  0  0  0  0  0  0  0  0  0  0
   41.7465   25.6606   35.6816 H   0  0  0  0  0  0  0  0  0  0  0  0
   42.7944   25.3410   34.2074 H   0  0  0  0  0  0  0  0  0  0  0  0
   41.9162   27.6916   34.6411 H   0  0  0  0  0  0  0  0  0  0  0  0
   41.8062   26.9147   32.9777 H   0  0  0  0  0  0  0  0  0  0  0  0
   39.7906   28.2027   34.3940 H   0  0  0  0  0  0  0  0  0  0  0  0
   39.6792   27.1960   32.8847 H   0  0  0  0  0  0  0  0  0  0  0  0
   38.0763   26.4132   34.5560 H   0  0  0  0  0  0  0  0  0  0  0  0
   39.3838   26.1924   35.7490 H   0  0  0  0  0  0  0  0  0  0  0  0
  1  2  2  0
  3  2  1  0
  4  3  2  0
  5  6  2  0
  5  4  1  0
  6  1  1  0
  7  5  1  0
  8  9  1  0
  8  7  1  0
  8 13  1  0
  9 10  1  0
 11 10  1  0
 12 11  1  0
 12 13  1  0
  1 14  1  0
  2 15  1  0
  3 16  1  0
  7 17  1  0
  7 18  1  0
  8 19  1  0
  9 20  1  0
  9 21  1  0
 10 22  1  0
 10 23  1  0
 11 24  1  0
 11 25  1  0
 12 26  1  0
 12 27  1  0
 13 28  1  0
 13 29  1  0
M  ISO  8  14  14  15  14  16  14  17   8  18   8  19  13  20  13  21  13
M  ISO  8  22  13  23  13  24  13  25  13  26  13  27  13  28  13  29  13
M  END
>  <minimizedAffinity>  (1) 
-3.7803998

>  <minimizedRMSD>  (1) 
3.34104037

$$$$
