
     RDKit          3D

 38 41  0  0  0  0  0  0  0  0999 V2000
   37.7500   27.2110   34.9060 C   0  0  0  0  0  0  0  0  0  0  0  0
   38.9990   26.4480   34.9340 C   0  0  0  0  0  0  0  0  0  0  0  0
   40.1500   26.9520   34.3290 C   0  0  0  0  0  0  0  0  0  0  0  0
   41.3220   26.2530   34.3600 C   0  0  0  0  0  0  0  0  0  0  0  0
   41.4090   25.0130   35.0000 C   0  0  0  0  0  0  0  0  0  0  0  0
   40.2610   24.5100   35.6040 C   0  0  0  0  0  0  0  0  0  0  0  0
   40.3210   23.2890   36.2420 C   0  0  0  0  0  0  0  0  0  0  0  0
   39.2130   22.7470   36.8550 C   0  0  0  0  0  0  0  0  0  0  0  0
   38.0150   23.4580   36.8240 C   0  0  0  0  0  0  0  0  0  0  0  0
   37.9910   24.6890   36.1710 C   0  0  0  0  0  0  0  0  0  0  0  0
   39.0840   25.2510   35.5510 C   0  0  0  0  0  0  0  0  0  0  0  0
   36.5720   28.6330   31.7520 C   0  0  0  0  0  0  0  0  0  0  0  0
   36.0320   27.5530   31.0590 C   0  0  0  0  0  0  0  0  0  0  0  0
   36.0670   26.2900   31.6940 C   0  0  0  0  0  0  0  0  0  0  0  0
   36.6260   26.2030   32.9440 N   0  0  0  0  0  0  0  0  0  0  0  0
   37.1240   27.2690   33.5530 C   0  0  0  0  0  0  0  0  0  0  0  0
   37.1010   28.4830   32.9670 N   0  0  0  0  0  0  0  0  0  0  0  0
   35.5290   25.1320   31.0300 C   0  0  0  0  0  0  0  0  0  0  0  0
   34.4210   25.2190   30.4510 O   0  0  0  0  0  0  0  0  0  0  0  0
   36.2310   23.9240   31.0300 C   0  0  0  0  0  0  0  0  0  0  0  0
   35.7830   22.6220   31.4120 C   0  0  0  0  0  0  0  0  0  0  0  0
   36.6310   21.5590   31.3390 C   0  0  0  0  0  0  0  0  0  0  0  0
   38.0310   21.8800   30.8360 C   0  0  0  0  0  0  0  0  0  0  0  0
   37.9200   23.7400   30.5290 S   0  0  0  0  0  0  0  0  0  0  0  0
   37.0380   26.7408   35.6002 H   0  0  0  0  0  0  0  0  0  0  0  0
   37.9925   28.2436   35.1973 H   0  0  0  0  0  0  0  0  0  0  0  0
   40.1129   27.9263   33.8198 H   0  0  0  0  0  0  0  0  0  0  0  0
   42.2143   26.6729   33.8726 H   0  0  0  0  0  0  0  0  0  0  0  0
   42.3553   24.4527   35.0252 H   0  0  0  0  0  0  0  0  0  0  0  0
   41.2723   22.7371   36.2618 H   0  0  0  0  0  0  0  0  0  0  0  0
   39.2727   21.7713   37.3595 H   0  0  0  0  0  0  0  0  0  0  0  0
   37.1098   23.0572   37.3035 H   0  0  0  0  0  0  0  0  0  0  0  0
   37.0419   25.2447   36.1498 H   0  0  0  0  0  0  0  0  0  0  0  0
   36.5621   29.6303   31.2880 H   0  0  0  0  0  0  0  0  0  0  0  0
   35.5954   27.6773   30.0571 H   0  0  0  0  0  0  0  0  0  0  0  0
   34.7514   22.4781   31.7656 H   0  0  0  0  0  0  0  0  0  0  0  0
   36.3259   20.5411   31.6233 H   0  0  0  0  0  0  0  0  0  0  0  0
   38.8861   21.2038   30.6893 H   0  0  0  0  0  0  0  0  0  0  0  0
  1  2  1  0
  2 11  2  0
  3  4  2  0
  3  2  1  0
  4  5  1  0
  5  6  2  0
  6  7  1  0
  7  8  2  0
  9  8  1  0
 10  9  2  0
 11  6  1  0
 11 10  1  0
 12 17  2  0
 13 14  2  0
 13 12  1  0
 14 15  1  0
 15 16  2  0
 16  1  1  0
 17 16  1  0
 18 20  1  0
 18 14  1  0
 19 18  2  0
 20 21  2  0
 22 21  1  0
 23 22  2  0
 24 23  1  0
 24 20  1  0
  1 25  1  0
  1 26  1  0
  3 27  1  0
  4 28  1  0
  5 29  1  0
  7 30  1  0
  8 31  1  0
  9 32  1  0
 10 33  1  0
 12 34  1  0
 13 35  1  0
 21 36  1  0
 22 37  1  0
 23 38  1  0
M  ISO  8  25   8  26   8  27  14  28  14  29  14  30  14  31  14  32  14
M  ISO  6  33  14  34  14  35  14  36  14  37  14  38  14
M  END
>  <minimizedAffinity>  (1) 
-5.92951107

>  <minimizedRMSD>  (1) 
2.10284281

$$$$
