
     RDKit          3D

 26 28  0  0  0  0  0  0  0  0999 V2000
   37.7970   25.5130   34.8200 C   0  0  0  0  0  0  0  0  0  0  0  0
   37.3960   26.8360   35.0030 C   0  0  0  0  0  0  0  0  0  0  0  0
   36.8640   27.4960   33.9510 C   0  0  0  0  0  0  0  0  0  0  0  0
   36.7440   26.8050   32.7250 C   0  0  0  0  0  0  0  0  0  0  0  0
   37.4330   25.1270   33.1140 S   0  0  0  0  0  0  0  0  0  0  0  0
   37.7970   24.3310   37.0340 C   0  0  0  0  0  0  0  0  0  0  0  0
   38.3820   24.6450   35.7970 C   0  0  0  0  0  0  0  0  0  0  0  0
   39.6160   24.0920   35.4750 C   0  0  0  0  0  0  0  0  0  0  0  0
   40.1770   23.2680   36.4070 N   0  0  0  0  0  0  0  0  0  0  0  0
   39.5950   22.9830   37.5860 C   0  0  0  0  0  0  0  0  0  0  0  0
   38.4010   23.5230   37.8880 N   0  0  0  0  0  0  0  0  0  0  0  0
   36.2620   27.1410   31.4600 C   0  0  0  0  0  0  0  0  0  0  0  0
   35.6330   26.3210   30.7800 O   0  0  0  0  0  0  0  0  0  0  0  0
   36.4710   28.4620   30.8790 C   0  0  0  0  0  0  0  0  0  0  0  0
   36.0070   29.6650   31.2420 C   0  0  0  0  0  0  0  0  0  0  0  0
   36.3350   30.7740   30.5470 C   0  0  0  0  0  0  0  0  0  0  0  0
   37.1730   30.5810   29.4450 C   0  0  0  0  0  0  0  0  0  0  0  0
   37.4900   28.7240   29.4290 S   0  0  0  0  0  0  0  0  0  0  0  0
   37.5100   27.3298   35.9793 H   0  0  0  0  0  0  0  0  0  0  0  0
   36.5340   28.5410   34.0465 H   0  0  0  0  0  0  0  0  0  0  0  0
   36.8206   24.7642   37.2966 H   0  0  0  0  0  0  0  0  0  0  0  0
   40.1145   24.3074   34.5184 H   0  0  0  0  0  0  0  0  0  0  0  0
   40.0937   22.3111   38.3000 H   0  0  0  0  0  0  0  0  0  0  0  0
   35.3490   29.7500   32.1194 H   0  0  0  0  0  0  0  0  0  0  0  0
   35.9651   31.7704   30.8306 H   0  0  0  0  0  0  0  0  0  0  0  0
   37.5587   31.3391   28.7475 H   0  0  0  0  0  0  0  0  0  0  0  0
  1  2  2  0
  1  7  1  0
  3  2  1  0
  4  5  1  0
  4  3  2  0
  5  1  1  0
  6 11  2  0
  7  6  1  0
  8  7  2  0
  8  9  1  0
  9 10  2  0
 10 11  1  0
 12  4  1  0
 13 12  2  0
 14 15  2  0
 14 12  1  0
 16 15  1  0
 17 16  2  0
 18 17  1  0
 18 14  1  0
  2 19  1  0
  3 20  1  0
  6 21  1  0
  8 22  1  0
 10 23  1  0
 15 24  1  0
 16 25  1  0
 17 26  1  0
M  ISO  8  19  14  20  14  21  14  22  14  23  14  24  14  25  14  26  14
M  END
>  <minimizedAffinity>  (1) 
-4.69053268

>  <minimizedRMSD>  (1) 
0.878095448

$$$$
