
     RDKit          3D

 43 47  0  0  0  0  0  0  0  0999 V2000
   38.4550   25.7340   34.1950 C   0  0  0  0  0  0  0  0  0  0  0  0
   39.4440   24.8700   34.8420 C   0  0  0  0  0  0  0  0  0  0  0  0
   40.6720   24.6030   34.2690 C   0  0  0  0  0  0  0  0  0  0  0  0
   41.5880   23.7980   34.8990 C   0  0  0  0  0  0  0  0  0  0  0  0
   41.3100   23.2310   36.1260 C   0  0  0  0  0  0  0  0  0  0  0  0
   40.0710   23.4940   36.7160 C   0  0  0  0  0  0  0  0  0  0  0  0
   39.7840   22.9400   37.9440 C   0  0  0  0  0  0  0  0  0  0  0  0
   38.5850   23.1730   38.5650 C   0  0  0  0  0  0  0  0  0  0  0  0
   37.6550   23.9810   37.9380 C   0  0  0  0  0  0  0  0  0  0  0  0
   37.9680   24.5290   36.7020 C   0  0  0  0  0  0  0  0  0  0  0  0
   39.1720   24.3090   36.0530 C   0  0  0  0  0  0  0  0  0  0  0  0
   36.0220   25.2790   31.5000 C   0  0  0  0  0  0  0  0  0  0  0  0
   36.2320   23.9740   31.0780 C   0  0  0  0  0  0  0  0  0  0  0  0
   37.2400   23.1950   31.7330 C   0  0  0  0  0  0  0  0  0  0  0  0
   37.9150   23.8360   32.7410 N   0  0  0  0  0  0  0  0  0  0  0  0
   37.6910   25.0790   33.1160 C   0  0  0  0  0  0  0  0  0  0  0  0
   36.7490   25.8040   32.5040 N   0  0  0  0  0  0  0  0  0  0  0  0
   37.3660   21.8610   31.2120 C   0  0  0  0  0  0  0  0  0  0  0  0
   38.1510   21.5880   30.1560 N   0  0  0  0  0  0  0  0  0  0  0  0
   38.2960   20.3650   29.6420 C   0  0  0  0  0  0  0  0  0  0  0  0
   37.6730   19.2770   30.1230 N   0  0  0  0  0  0  0  0  0  0  0  0
   36.8650   19.4590   31.1830 C   0  0  0  0  0  0  0  0  0  0  0  0
   36.2090   18.3720   31.7050 C   0  0  0  0  0  0  0  0  0  0  0  0
   35.3710   18.5140   32.7900 C   0  0  0  0  0  0  0  0  0  0  0  0
   35.2260   19.8010   33.3220 C   0  0  0  0  0  0  0  0  0  0  0  0
   35.9020   20.8340   32.7600 C   0  0  0  0  0  0  0  0  0  0  0  0
   36.7450   20.7390   31.6810 C   0  0  0  0  0  0  0  0  0  0  0  0
   37.7442   26.0778   34.9609 H   0  0  0  0  0  0  0  0  0  0  0  0
   39.0137   26.5594   33.7296 H   0  0  0  0  0  0  0  0  0  0  0  0
   40.9200   25.0427   33.2917 H   0  0  0  0  0  0  0  0  0  0  0  0
   42.5580   23.6019   34.4187 H   0  0  0  0  0  0  0  0  0  0  0  0
   42.0469   22.5868   36.6281 H   0  0  0  0  0  0  0  0  0  0  0  0
   40.5309   22.2989   38.4351 H   0  0  0  0  0  0  0  0  0  0  0  0
   38.3663   22.7249   39.5455 H   0  0  0  0  0  0  0  0  0  0  0  0
   36.6832   24.1862   38.4108 H   0  0  0  0  0  0  0  0  0  0  0  0
   37.2214   25.1714   36.2122 H   0  0  0  0  0  0  0  0  0  0  0  0
   35.2522   25.8919   31.0083 H   0  0  0  0  0  0  0  0  0  0  0  0
   35.6369   23.5465   30.2576 H   0  0  0  0  0  0  0  0  0  0  0  0
   38.9630   20.2413   28.7761 H   0  0  0  0  0  0  0  0  0  0  0  0
   36.3533   17.3793   31.2536 H   0  0  0  0  0  0  0  0  0  0  0  0
   34.8386   17.6527   33.2198 H   0  0  0  0  0  0  0  0  0  0  0  0
   34.5698   19.9729   34.1879 H   0  0  0  0  0  0  0  0  0  0  0  0
   35.7631   21.8300   33.2058 H   0  0  0  0  0  0  0  0  0  0  0  0
  1  2  1  0
  2 11  1  0
  3  2  2  0
  3  4  1  0
  4  5  2  0
  5  6  1  0
  6  7  2  0
  7  8  1  0
  9  8  2  0
 10  9  1  0
 11 10  2  0
 11  6  1  0
 12 17  2  0
 13 12  1  0
 13 14  2  0
 14 15  1  0
 15 16  2  0
 16  1  1  0
 17 16  1  0
 18 27  1  0
 18 14  1  0
 19 18  2  0
 20 21  2  0
 20 19  1  0
 21 22  1  0
 22 27  2  0
 22 23  1  0
 23 24  2  0
 24 25  1  0
 26 25  2  0
 27 26  1  0
  1 28  1  0
  1 29  1  0
  3 30  1  0
  4 31  1  0
  5 32  1  0
  7 33  1  0
  8 34  1  0
  9 35  1  0
 10 36  1  0
 12 37  1  0
 13 38  1  0
 20 39  1  0
 23 40  1  0
 24 41  1  0
 25 42  1  0
 26 43  1  0
M  ISO  8  28   8  29   8  30  14  31  14  32  14  33  14  34  14  35  14
M  ISO  8  36  14  37  14  38  14  39  14  40  14  41  14  42  14  43  14
M  END
>  <minimizedAffinity>  (1) 
-6.65007544

>  <minimizedRMSD>  (1) 
3.8923614

$$$$
