
     RDKit          3D

 47 51  0  0  1  0  0  0  0  0999 V2000
   40.4660   22.3820   33.2240 C   0  0  1  0  0  0  0  0  0  0  0  0
   40.5990   20.9280   32.7790 C   0  0  0  0  0  0  0  0  0  0  0  0
   39.7260   20.5550   31.6280 C   0  0  0  0  0  0  0  0  0  0  0  0
   38.3940   21.2280   31.6930 C   0  0  0  0  0  0  0  0  0  0  0  0
   38.0850   21.6670   33.0970 C   0  0  0  0  0  0  0  0  0  0  0  0
   39.0650   22.7940   33.4430 C   0  0  1  0  0  0  0  0  0  0  0  0
   38.6400   23.3230   34.7260 C   0  0  0  0  0  0  0  0  0  0  0  0
   38.1280   22.5910   35.7230 N   0  0  0  0  0  0  0  0  0  0  0  0
   37.6870   23.0640   36.8920 C   0  0  0  0  0  0  0  0  0  0  0  0
   37.7110   24.3720   37.2070 N   0  0  0  0  0  0  0  0  0  0  0  0
   38.2150   25.1910   36.2570 C   0  0  0  0  0  0  0  0  0  0  0  0
   38.2400   26.5300   36.5870 C   0  0  0  0  0  0  0  0  0  0  0  0
   38.7410   27.4380   35.6790 C   0  0  0  0  0  0  0  0  0  0  0  0
   39.2060   26.9480   34.4510 C   0  0  0  0  0  0  0  0  0  0  0  0
   39.1470   25.6070   34.1970 C   0  0  0  0  0  0  0  0  0  0  0  0
   38.6580   24.6610   35.0640 C   0  0  0  0  0  0  0  0  0  0  0  0
   41.6540   21.5690   36.5660 C   0  0  0  0  0  0  0  0  0  0  0  0
   42.5760   22.5780   36.8360 C   0  0  0  0  0  0  0  0  0  0  0  0
   42.7920   23.5480   35.8760 C   0  0  0  0  0  0  0  0  0  0  0  0
   42.0780   23.4470   34.7190 N   0  0  0  0  0  0  0  0  0  0  0  0
   41.2100   22.4780   34.4900 C   0  0  0  0  0  0  0  0  0  0  0  0
   40.9960   21.5450   35.3990 N   0  0  0  0  0  0  0  0  0  0  0  0
   43.7690   24.5920   36.1570 C   0  0  0  0  0  0  0  0  0  0  0  0
   44.2140   25.5200   35.2170 C   0  0  0  0  0  0  0  0  0  0  0  0
   45.1160   26.3100   35.8570 N   0  0  0  0  0  0  0  0  0  0  0  0
   45.1910   25.8620   37.1180 C   0  0  0  0  0  0  0  0  0  0  0  0
   44.4010   24.8420   37.3260 N   0  0  0  0  0  0  0  0  0  0  0  0
   40.8555   23.0475   32.4395 H   0  0  0  0  0  0  0  0  0  0  0  0
   41.6453   20.7509   32.4892 H   0  0  0  0  0  0  0  0  0  0  0  0
   40.2798   20.3081   33.6298 H   0  0  0  0  0  0  0  0  0  0  0  0
   39.5739   19.4656   31.6364 H   0  0  0  0  0  0  0  0  0  0  0  0
   40.2258   20.8807   30.7038 H   0  0  0  0  0  0  0  0  0  0  0  0
   38.4024   22.1084   31.0336 H   0  0  0  0  0  0  0  0  0  0  0  0
   37.6224   20.5140   31.3692 H   0  0  0  0  0  0  0  0  0  0  0  0
   37.0501   22.0349   33.1582 H   0  0  0  0  0  0  0  0  0  0  0  0
   38.1885   20.8283   33.8012 H   0  0  0  0  0  0  0  0  0  0  0  0
   39.0428   23.6591   32.7639 H   0  0  0  0  0  0  0  0  0  0  0  0
   37.2866   22.3529   37.6295 H   0  0  0  0  0  0  0  0  0  0  0  0
   37.8644   26.8694   37.5636 H   0  0  0  0  0  0  0  0  0  0  0  0
   38.7748   28.5128   35.9108 H   0  0  0  0  0  0  0  0  0  0  0  0
   39.6151   27.6375   33.6979 H   0  0  0  0  0  0  0  0  0  0  0  0
   39.5200   25.2581   33.2228 H   0  0  0  0  0  0  0  0  0  0  0  0
   41.4649   20.7868   37.3159 H   0  0  0  0  0  0  0  0  0  0  0  0
   43.1197   22.6019   37.7919 H   0  0  0  0  0  0  0  0  0  0  0  0
   43.8980   25.5976   34.1662 H   0  0  0  0  0  0  0  0  0  0  0  0
   45.8418   26.3017   37.8882 H   0  0  0  0  0  0  0  0  0  0  0  0
   44.2825   24.3274   38.2104 H   0  0  0  0  0  0  0  0  0  0  0  0
  1  6  1  0
  1 21  1  0
  2  1  1  0
  3  4  1  0
  3  2  1  0
  4  5  1  0
  5  6  1  0
  6  7  1  0
  7 16  1  0
  7  8  2  0
  8  9  1  0
  9 10  2  0
 11 12  2  0
 11 10  1  0
 13 12  1  0
 14 13  2  0
 15 14  1  0
 15 16  2  0
 16 11  1  0
 17 18  2  0
 19 23  1  0
 19 18  1  0
 20 19  2  0
 21 20  1  0
 21 22  2  0
 22 17  1  0
 23 27  1  0
 24 25  1  0
 24 23  2  0
 25 26  2  0
 26 27  1  0
  1 28  1  6
  2 29  1  0
  2 30  1  0
  3 31  1  0
  3 32  1  0
  4 33  1  0
  4 34  1  0
  5 35  1  0
  5 36  1  0
  6 37  1  6
  9 38  1  0
 12 39  1  0
 13 40  1  0
 14 41  1  0
 15 42  1  0
 17 43  1  0
 18 44  1  0
 24 45  1  0
 26 46  1  0
 27 47  1  0
M  ISO  8  28  13  29  13  30  13  31  13  32  13  33  13  34  13  35  13
M  ISO  8  36  13  37  13  38  14  39  14  40  14  41  14  42  14  43  14
M  ISO  4  44  14  45  14  46  14  47   9
M  END
>  <minimizedAffinity>  (1) 
-5.49048758

>  <minimizedRMSD>  (1) 
4.83608198

$$$$
