
     RDKit          3D

 42 46  0  0  0  0  0  0  0  0999 V2000
   37.4530   27.2570   34.4020 C   0  0  0  0  0  0  0  0  0  0  0  0
   38.2040   27.1040   33.2610 C   0  0  0  0  0  0  0  0  0  0  0  0
   37.7620   27.7480   32.1090 C   0  0  0  0  0  0  0  0  0  0  0  0
   36.6370   28.4730   32.1900 N   0  0  0  0  0  0  0  0  0  0  0  0
   35.9240   28.6140   33.2840 C   0  0  0  0  0  0  0  0  0  0  0  0
   36.3350   28.0020   34.3970 N   0  0  0  0  0  0  0  0  0  0  0  0
   34.6750   29.3660   33.5620 C   0  0  0  0  0  0  0  0  0  0  0  0
   33.4970   29.1470   32.9530 N   0  0  0  0  0  0  0  0  0  0  0  0
   32.3950   29.8420   33.2300 C   0  0  0  0  0  0  0  0  0  0  0  0
   32.3480   30.8180   34.1320 N   0  0  0  0  0  0  0  0  0  0  0  0
   33.4880   31.1090   34.7960 C   0  0  0  0  0  0  0  0  0  0  0  0
   33.4300   32.1110   35.7220 C   0  0  0  0  0  0  0  0  0  0  0  0
   34.5610   32.4510   36.4320 C   0  0  0  0  0  0  0  0  0  0  0  0
   35.7280   31.7450   36.1660 C   0  0  0  0  0  0  0  0  0  0  0  0
   35.7110   30.7470   35.2190 C   0  0  0  0  0  0  0  0  0  0  0  0
   34.6100   30.3760   34.4920 C   0  0  0  0  0  0  0  0  0  0  0  0
   37.9000   26.5860   35.6360 C   0  0  0  0  0  0  0  0  0  0  0  0
   38.6010   27.2220   36.4670 O   0  0  0  0  0  0  0  0  0  0  0  0
   37.5420   25.2810   35.8580 O   0  0  0  0  0  0  0  0  0  0  0  0
   39.2040   22.8400   37.7860 N   0  0  0  0  0  0  0  0  0  0  0  0
   38.1880   23.6560   37.5110 N   0  0  0  0  0  0  0  0  0  0  0  0
   38.4600   24.3460   36.3710 C   0  0  0  0  0  0  0  0  0  0  0  0
   39.6990   23.9530   35.9030 C   0  0  0  0  0  0  0  0  0  0  0  0
   40.1200   23.0160   36.8170 C   0  0  0  0  0  0  0  0  0  0  0  0
   41.4200   22.3070   36.7210 C   0  0  0  0  0  0  0  0  0  0  0  0
   42.4930   22.9400   36.1530 C   0  0  0  0  0  0  0  0  0  0  0  0
   43.6550   22.2080   36.1030 C   0  0  0  0  0  0  0  0  0  0  0  0
   43.8070   20.9590   36.5560 N   0  0  0  0  0  0  0  0  0  0  0  0
   42.7180   20.3530   37.1200 C   0  0  0  0  0  0  0  0  0  0  0  0
   41.5730   21.0550   37.1760 N   0  0  0  0  0  0  0  0  0  0  0  0
   39.1202   26.4953   33.2584 H   0  0  0  0  0  0  0  0  0  0  0  0
   38.3174   27.6649   31.1631 H   0  0  0  0  0  0  0  0  0  0  0  0
   31.4733   29.5951   32.6827 H   0  0  0  0  0  0  0  0  0  0  0  0
   32.4846   32.6444   35.9003 H   0  0  0  0  0  0  0  0  0  0  0  0
   34.5408   33.2539   37.1837 H   0  0  0  0  0  0  0  0  0  0  0  0
   36.6560   31.9816   36.7071 H   0  0  0  0  0  0  0  0  0  0  0  0
   36.6507   30.2069   35.0315 H   0  0  0  0  0  0  0  0  0  0  0  0
   39.2748   22.1970   38.5875 H   0  0  0  0  0  0  0  0  0  0  0  0
   40.2271   24.3080   35.0057 H   0  0  0  0  0  0  0  0  0  0  0  0
   42.4292   23.9664   35.7626 H   0  0  0  0  0  0  0  0  0  0  0  0
   44.5347   22.6904   35.6521 H   0  0  0  0  0  0  0  0  0  0  0  0
   42.7772   19.3276   37.5137 H   0  0  0  0  0  0  0  0  0  0  0  0
  1 17  1  0
  2  1  2  0
  3  4  2  0
  3  2  1  0
  4  5  1  0
  5  7  1  0
  5  6  2  0
  6  1  1  0
  7 16  2  0
  8  9  2  0
  8  7  1  0
  9 10  1  0
 10 11  2  0
 11 12  1  0
 12 13  2  0
 14 13  1  0
 15 14  2  0
 16 11  1  0
 16 15  1  0
 17 19  1  0
 17 18  2  0
 19 22  1  0
 21 20  1  0
 22 21  2  0
 23 22  1  0
 23 24  2  0
 24 20  1  0
 25 24  1  0
 25 30  1  0
 26 25  2  0
 27 26  1  0
 27 28  2  0
 28 29  1  0
 29 30  2  0
  2 31  1  0
  3 32  1  0
  9 33  1  0
 12 34  1  0
 13 35  1  0
 14 36  1  0
 15 37  1  0
 20 38  1  0
 23 39  1  0
 26 40  1  0
 27 41  1  0
 29 42  1  0
M  ISO  8  31  14  32  14  33  14  34  14  35  14  36  14  37  14  38   9
M  ISO  4  39  14  40  14  41  14  42  14
M  END
>  <minimizedAffinity>  (1) 
-6.78399467

>  <minimizedRMSD>  (1) 
1.47583139

$$$$
