
     RDKit          3D

 47 52  0  0  0  0  0  0  0  0999 V2000
   40.5310   22.5570   36.8990 C   0  0  0  0  0  0  0  0  0  0  0  0
   39.9480   23.5670   36.0990 C   0  0  0  0  0  0  0  0  0  0  0  0
   40.8420   24.3840   35.4310 C   0  0  0  0  0  0  0  0  0  0  0  0
   42.1450   24.1480   35.6010 N   0  0  0  0  0  0  0  0  0  0  0  0
   42.6940   23.1940   36.3560 C   0  0  0  0  0  0  0  0  0  0  0  0
   41.8480   22.3970   37.0080 N   0  0  0  0  0  0  0  0  0  0  0  0
   44.1510   23.2150   36.3190 C   0  0  0  0  0  0  0  0  0  0  0  0
   44.8630   22.3170   35.5500 C   0  0  0  0  0  0  0  0  0  0  0  0
   46.2300   22.2880   35.4750 C   0  0  0  0  0  0  0  0  0  0  0  0
   46.9940   23.1930   36.1950 C   0  0  0  0  0  0  0  0  0  0  0  0
   46.3240   24.0990   36.9690 C   0  0  0  0  0  0  0  0  0  0  0  0
   47.0870   25.0010   37.6870 C   0  0  0  0  0  0  0  0  0  0  0  0
   46.5040   25.9490   38.4930 C   0  0  0  0  0  0  0  0  0  0  0  0
   45.0960   25.9470   38.5430 C   0  0  0  0  0  0  0  0  0  0  0  0
   44.3840   25.0290   37.8110 C   0  0  0  0  0  0  0  0  0  0  0  0
   44.9580   24.0880   37.0120 C   0  0  0  0  0  0  0  0  0  0  0  0
   40.3910   25.4580   34.5720 N   0  0  0  0  0  0  0  0  0  0  0  0
   39.1480   25.5080   34.1150 C   0  0  0  0  0  0  0  0  0  0  0  0
   39.0420   26.6200   33.3450 C   0  0  0  0  0  0  0  0  0  0  0  0
   40.2240   27.2120   33.3570 N   0  0  0  0  0  0  0  0  0  0  0  0
   41.0860   26.5130   34.1130 C   0  0  0  0  0  0  0  0  0  0  0  0
   37.7280   26.8910   32.7170 C   0  0  0  0  0  0  0  0  0  0  0  0
   37.1400   28.1030   32.6430 N   0  0  0  0  0  0  0  0  0  0  0  0
   35.9690   28.3600   32.0870 C   0  0  0  0  0  0  0  0  0  0  0  0
   35.2350   27.3860   31.5210 N   0  0  0  0  0  0  0  0  0  0  0  0
   35.7320   26.1380   31.5410 C   0  0  0  0  0  0  0  0  0  0  0  0
   34.9890   25.1320   30.9640 C   0  0  0  0  0  0  0  0  0  0  0  0
   35.4350   23.8340   30.9470 C   0  0  0  0  0  0  0  0  0  0  0  0
   36.6760   23.5650   31.5380 C   0  0  0  0  0  0  0  0  0  0  0  0
   37.3710   24.6100   32.0970 C   0  0  0  0  0  0  0  0  0  0  0  0
   36.9570   25.9170   32.1310 C   0  0  0  0  0  0  0  0  0  0  0  0
   39.8691   21.8758   37.4539 H   0  0  0  0  0  0  0  0  0  0  0  0
   38.8587   23.6941   36.0139 H   0  0  0  0  0  0  0  0  0  0  0  0
   44.2978   21.5794   34.9613 H   0  0  0  0  0  0  0  0  0  0  0  0
   46.7257   21.5405   34.8382 H   0  0  0  0  0  0  0  0  0  0  0  0
   48.0928   23.1827   36.1457 H   0  0  0  0  0  0  0  0  0  0  0  0
   48.1836   24.9589   37.6115 H   0  0  0  0  0  0  0  0  0  0  0  0
   47.1038   26.6700   39.0678 H   0  0  0  0  0  0  0  0  0  0  0  0
   44.5669   26.6810   39.1686 H   0  0  0  0  0  0  0  0  0  0  0  0
   43.2861   25.0555   37.8738 H   0  0  0  0  0  0  0  0  0  0  0  0
   38.3487   24.7811   34.3220 H   0  0  0  0  0  0  0  0  0  0  0  0
   42.1403   26.7535   34.3145 H   0  0  0  0  0  0  0  0  0  0  0  0
   35.5871   29.3916   32.0873 H   0  0  0  0  0  0  0  0  0  0  0  0
   34.0179   25.3738   30.5073 H   0  0  0  0  0  0  0  0  0  0  0  0
   34.8387   23.0331   30.4854 H   0  0  0  0  0  0  0  0  0  0  0  0
   37.0837   22.5435   31.5542 H   0  0  0  0  0  0  0  0  0  0  0  0
   38.3431   24.3785   32.5568 H   0  0  0  0  0  0  0  0  0  0  0  0
  1  6  2  0
  2  1  1  0
  3  4  1  0
  3  2  2  0
  4  5  2  0
  5  6  1  0
  7  5  1  0
  7 16  1  0
  8  7  2  0
  9  8  1  0
  9 10  2  0
 10 11  1  0
 11 16  2  0
 11 12  1  0
 12 13  2  0
 13 14  1  0
 15 14  2  0
 16 15  1  0
 17  3  1  0
 18 17  1  0
 19 20  1  0
 19 18  2  0
 20 21  2  0
 21 17  1  0
 22 19  1  0
 23 22  2  0
 24 23  1  0
 25 26  1  0
 25 24  2  0
 26 31  2  0
 27 26  1  0
 28 27  2  0
 28 29  1  0
 29 30  2  0
 30 31  1  0
 31 22  1  0
  1 32  1  0
  2 33  1  0
  8 34  1  0
  9 35  1  0
 10 36  1  0
 12 37  1  0
 13 38  1  0
 14 39  1  0
 15 40  1  0
 18 41  1  0
 21 42  1  0
 24 43  1  0
 27 44  1  0
 28 45  1  0
 29 46  1  0
 30 47  1  0
M  END
>  <minimizedAffinity>  (1) 
-7.16401005

>  <minimizedRMSD>  (1) 
1.31183589

$$$$
