
     RDKit          3D

 41 45  0  0  0  0  0  0  0  0999 V2000
   39.1550   24.1960   35.1370 C   0  0  0  0  0  0  0  0  0  0  0  0
   40.0740   25.2130   34.9170 C   0  0  0  0  0  0  0  0  0  0  0  0
   40.3090   25.6790   33.6430 C   0  0  0  0  0  0  0  0  0  0  0  0
   39.6320   25.1380   32.5600 C   0  0  0  0  0  0  0  0  0  0  0  0
   38.7250   24.1290   32.8060 C   0  0  0  0  0  0  0  0  0  0  0  0
   38.4740   23.6490   34.0690 C   0  0  0  0  0  0  0  0  0  0  0  0
   37.5190   22.5810   34.3490 C   0  0  0  0  0  0  0  0  0  0  0  0
   37.2890   22.3000   35.6580 N   0  0  0  0  0  0  0  0  0  0  0  0
   36.4330   21.3380   36.0380 C   0  0  0  0  0  0  0  0  0  0  0  0
   35.7650   20.6080   35.1020 N   0  0  0  0  0  0  0  0  0  0  0  0
   35.9650   20.8560   33.8010 C   0  0  0  0  0  0  0  0  0  0  0  0
   35.3240   20.1600   32.7900 C   0  0  0  0  0  0  0  0  0  0  0  0
   35.5360   20.4200   31.4380 C   0  0  0  0  0  0  0  0  0  0  0  0
   36.4380   21.4340   31.1120 C   0  0  0  0  0  0  0  0  0  0  0  0
   37.1070   22.1620   32.0720 C   0  0  0  0  0  0  0  0  0  0  0  0
   36.8380   21.8380   33.3760 C   0  0  0  0  0  0  0  0  0  0  0  0
   39.6820   22.8540   37.2540 C   0  0  0  0  0  0  0  0  0  0  0  0
   38.9960   23.7940   36.5200 C   0  0  0  0  0  0  0  0  0  0  0  0
   38.0810   24.3080   37.3900 N   0  0  0  0  0  0  0  0  0  0  0  0
   38.2320   23.6950   38.5730 C   0  0  0  0  0  0  0  0  0  0  0  0
   39.2060   22.7980   38.5210 N   0  0  0  0  0  0  0  0  0  0  0  0
   42.6230   20.5750   37.0480 C   0  0  0  0  0  0  0  0  0  0  0  0
   41.5980   21.3390   37.6120 C   0  0  0  0  0  0  0  0  0  0  0  0
   40.7790   22.0310   36.7240 C   0  0  0  0  0  0  0  0  0  0  0  0
   41.0170   21.9270   35.3630 N   0  0  0  0  0  0  0  0  0  0  0  0
   42.0350   21.1600   34.8950 C   0  0  0  0  0  0  0  0  0  0  0  0
   42.8300   20.4920   35.7250 N   0  0  0  0  0  0  0  0  0  0  0  0
   40.6186   25.6498   35.7671 H   0  0  0  0  0  0  0  0  0  0  0  0
   41.0389   26.4862   33.4828 H   0  0  0  0  0  0  0  0  0  0  0  0
   39.8128   25.5021   31.5379 H   0  0  0  0  0  0  0  0  0  0  0  0
   38.1803   23.6905   31.9569 H   0  0  0  0  0  0  0  0  0  0  0  0
   36.2708   21.1389   37.1076 H   0  0  0  0  0  0  0  0  0  0  0  0
   34.6152   19.3657   33.0671 H   0  0  0  0  0  0  0  0  0  0  0  0
   35.0127   19.8482   30.6574 H   0  0  0  0  0  0  0  0  0  0  0  0
   36.6214   21.6601   30.0512 H   0  0  0  0  0  0  0  0  0  0  0  0
   37.8173   22.9588   31.8063 H   0  0  0  0  0  0  0  0  0  0  0  0
   37.6280   23.9083   39.4672 H   0  0  0  0  0  0  0  0  0  0  0  0
   39.5323   22.1870   39.2833 H   0  0  0  0  0  0  0  0  0  0  0  0
   43.2910   20.0158   37.7196 H   0  0  0  0  0  0  0  0  0  0  0  0
   41.4462   21.3909   38.7002 H   0  0  0  0  0  0  0  0  0  0  0  0
   42.2048   21.0902   33.8104 H   0  0  0  0  0  0  0  0  0  0  0  0
  1 18  1  0
  2  1  2  0
  3  2  1  0
  4  5  1  0
  4  3  2  0
  5  6  2  0
  6  7  1  0
  6  1  1  0
  7  8  2  0
  8  9  1  0
 10  9  2  0
 11 10  1  0
 12 11  2  0
 13 12  1  0
 14 13  2  0
 14 15  1  0
 15 16  2  0
 16 11  1  0
 16  7  1  0
 17 21  1  0
 18 17  2  0
 18 19  1  0
 19 20  2  0
 21 20  1  0
 22 23  2  0
 24 17  1  0
 24 23  1  0
 25 24  2  0
 26 25  1  0
 26 27  2  0
 27 22  1  0
  2 28  1  0
  3 29  1  0
  4 30  1  0
  5 31  1  0
  9 32  1  0
 12 33  1  0
 13 34  1  0
 14 35  1  0
 15 36  1  0
 20 37  1  0
 21 38  1  0
 22 39  1  0
 23 40  1  0
 26 41  1  0
M  ISO  8  28  14  29  14  30  14  31  14  32  14  33  14  34  14  35  14
M  ISO  6  36  14  37  14  38   9  39  14  40  14  41  14
M  END
>  <minimizedAffinity>  (1) 
-6.57970572

>  <minimizedRMSD>  (1) 
0.727372289

$$$$
