
     RDKit          3D

 54 59  0  0  1  0  0  0  0  0999 V2000
   38.2040   27.7140   31.8670 C   0  0  1  0  0  0  0  0  0  0  0  0
   38.3190   25.7360   34.7830 C   0  0  0  0  0  0  0  0  0  0  0  0
   37.2910   26.6000   35.0910 C   0  0  0  0  0  0  0  0  0  0  0  0
   37.0500   27.4870   34.0870 C   0  0  0  0  0  0  0  0  0  0  0  0
   37.9380   27.1620   33.1580 N   0  0  0  0  0  0  0  0  0  0  0  0
   38.6810   26.1450   33.5540 N   0  0  0  0  0  0  0  0  0  0  0  0
   40.1100   23.0200   36.2270 C   0  0  0  0  0  0  0  0  0  0  0  0
   39.1130   23.2120   37.1960 C   0  0  0  0  0  0  0  0  0  0  0  0
   38.3520   24.2410   36.7540 N   0  0  0  0  0  0  0  0  0  0  0  0
   38.8920   24.6300   35.5700 C   0  0  0  0  0  0  0  0  0  0  0  0
   39.9380   23.9230   35.2330 N   0  0  0  0  0  0  0  0  0  0  0  0
   42.4560   20.4770   37.6110 C   0  0  0  0  0  0  0  0  0  0  0  0
   41.4570   21.4630   37.5590 C   0  0  0  0  0  0  0  0  0  0  0  0
   41.1470   21.9940   36.3090 C   0  0  0  0  0  0  0  0  0  0  0  0
   41.8170   21.5420   35.1930 N   0  0  0  0  0  0  0  0  0  0  0  0
   42.7550   20.6010   35.3240 C   0  0  0  0  0  0  0  0  0  0  0  0
   43.0750   20.0760   36.4870 N   0  0  0  0  0  0  0  0  0  0  0  0
   39.6440   27.3310   31.4730 C   0  0  0  0  0  0  0  0  0  0  0  0
   37.3640   27.2370   30.7810 C   0  0  0  0  0  0  0  0  0  0  0  0
   36.4720   26.1760   30.8930 N   0  0  0  0  0  0  0  0  0  0  0  0
   35.1220   26.3710   31.1030 C   0  0  0  0  0  0  0  0  0  0  0  0
   34.4350   25.1900   31.1650 C   0  0  0  0  0  0  0  0  0  0  0  0
   35.3780   24.2720   30.9940 N   0  0  0  0  0  0  0  0  0  0  0  0
   36.5670   24.8630   30.8270 C   0  0  0  0  0  0  0  0  0  0  0  0
   37.6170   23.8940   30.5130 C   0  0  0  0  0  0  0  0  0  0  0  0
   38.7510   24.0690   29.8830 N   0  0  0  0  0  0  0  0  0  0  0  0
   39.7850   23.3430   29.6350 C   0  0  0  0  0  0  0  0  0  0  0  0
   39.7430   22.0910   30.1160 N   0  0  0  0  0  0  0  0  0  0  0  0
   38.6310   21.7080   30.8110 C   0  0  0  0  0  0  0  0  0  0  0  0
   38.6410   20.4330   31.3090 C   0  0  0  0  0  0  0  0  0  0  0  0
   37.5930   19.9720   32.0400 C   0  0  0  0  0  0  0  0  0  0  0  0
   36.5070   20.8160   32.2760 C   0  0  0  0  0  0  0  0  0  0  0  0
   36.5840   22.0820   31.7360 C   0  0  0  0  0  0  0  0  0  0  0  0
   37.6160   22.6080   30.9860 C   0  0  0  0  0  0  0  0  0  0  0  0
   38.0135   28.7917   31.9783 H   0  0  0  0  0  0  0  0  0  0  0  0
   36.7307   26.5759   36.0373 H   0  0  0  0  0  0  0  0  0  0  0  0
   36.2951   28.2864   34.0542 H   0  0  0  0  0  0  0  0  0  0  0  0
   38.9772   22.6416   38.1267 H   0  0  0  0  0  0  0  0  0  0  0  0
   40.5133   24.0306   34.3855 H   0  0  0  0  0  0  0  0  0  0  0  0
   42.7335   20.0303   38.5771 H   0  0  0  0  0  0  0  0  0  0  0  0
   40.9402   21.8023   38.4688 H   0  0  0  0  0  0  0  0  0  0  0  0
   43.2811   20.2508   34.4237 H   0  0  0  0  0  0  0  0  0  0  0  0
   40.2428   27.1717   32.3819 H   0  0  0  0  0  0  0  0  0  0  0  0
   39.6276   26.4060   30.8780 H   0  0  0  0  0  0  0  0  0  0  0  0
   40.0893   28.1419   30.8780 H   0  0  0  0  0  0  0  0  0  0  0  0
   38.0542   26.9612   29.9701 H   0  0  0  0  0  0  0  0  0  0  0  0
   36.6688   28.0821   30.6694 H   0  0  0  0  0  0  0  0  0  0  0  0
   34.6533   27.3606   31.2082 H   0  0  0  0  0  0  0  0  0  0  0  0
   33.3567   25.0373   31.3199 H   0  0  0  0  0  0  0  0  0  0  0  0
   40.6461   23.7240   29.0663 H   0  0  0  0  0  0  0  0  0  0  0  0
   39.5031   19.7776   31.1160 H   0  0  0  0  0  0  0  0  0  0  0  0
   37.6003   18.9475   32.4404 H   0  0  0  0  0  0  0  0  0  0  0  0
   35.6356   20.4884   32.8619 H   0  0  0  0  0  0  0  0  0  0  0  0
   35.7278   22.7466   31.9238 H   0  0  0  0  0  0  0  0  0  0  0  0
  1  5  1  0
  2  3  1  0
  2 10  1  0
  4  3  2  0
  5  6  1  0
  5  4  1  0
  6  2  2  0
  7 14  1  0
  7  8  2  0
  9  8  1  0
 10  9  2  0
 11 10  1  0
 11  7  1  0
 13 12  2  0
 14 13  1  0
 15 16  1  0
 15 14  2  0
 16 17  2  0
 17 12  1  0
 18  1  1  0
 19 20  1  0
 19  1  1  0
 20 21  1  0
 21 22  2  0
 23 22  1  0
 24 20  1  0
 24 23  2  0
 25 24  1  0
 25 34  1  0
 26 25  2  0
 27 26  1  0
 27 28  2  0
 28 29  1  0
 29 34  2  0
 29 30  1  0
 30 31  2  0
 31 32  1  0
 33 32  2  0
 34 33  1  0
  1 35  1  1
  3 36  1  0
  4 37  1  0
  8 38  1  0
 11 39  1  0
 12 40  1  0
 13 41  1  0
 16 42  1  0
 18 43  1  0
 18 44  1  0
 18 45  1  0
 19 46  1  0
 19 47  1  0
 21 48  1  0
 22 49  1  0
 27 50  1  0
 30 51  1  0
 31 52  1  0
 32 53  1  0
 33 54  1  0
M  ISO  8  35   8  36  14  37  14  38  14  39   9  40  14  41  14  42  14
M  ISO  8  43   8  44   8  45   8  46   8  47   8  48  14  49  14  50  14
M  ISO  4  51  14  52  14  53  14  54  14
M  END
>  <minimizedAffinity>  (1) 
-5.77015543

>  <minimizedRMSD>  (1) 
2.1119709

$$$$
