
     RDKit          3D

 32 33  0  0  1  0  0  0  0  0999 V2000
   38.1810   24.3630   36.8990 C   0  0  1  0  0  0  0  0  0  0  0  0
   41.0050   21.8910   37.4430 C   0  0  0  0  0  0  0  0  0  0  0  0
   39.9600   22.7940   37.7570 C   0  0  0  0  0  0  0  0  0  0  0  0
   39.2810   23.4140   36.6730 C   0  0  0  0  0  0  0  0  0  0  0  0
   39.6720   23.1070   35.3770 N   0  0  0  0  0  0  0  0  0  0  0  0
   40.6680   22.2450   35.1480 C   0  0  0  0  0  0  0  0  0  0  0  0
   41.3400   21.6330   36.1700 N   0  0  0  0  0  0  0  0  0  0  0  0
   37.8230   24.4500   38.3760 C   0  0  0  0  0  0  0  0  0  0  0  0
   38.3710   25.7100   36.3090 C   0  0  0  0  0  0  0  0  0  0  0  0
   37.7600   26.0320   35.0190 C   0  0  0  0  0  0  0  0  0  0  0  0
   36.9550   27.2970   34.9690 C   0  0  0  0  0  0  0  0  0  0  0  0
   37.0050   27.7280   33.5010 C   0  0  0  0  0  0  0  0  0  0  0  0
   38.1800   27.0640   32.8710 C   0  0  0  0  0  0  0  0  0  0  0  0
   38.8580   26.3470   33.9890 C   0  0  0  0  0  0  0  0  0  0  0  0
   37.3312   23.9387   36.3441 H   0  0  0  0  0  0  0  0  0  0  0  0
   41.5514   21.3926   38.2573 H   0  0  0  0  0  0  0  0  0  0  0  0
   39.6843   23.0074   38.8003 H   0  0  0  0  0  0  0  0  0  0  0  0
   40.9547   22.0220   34.1097 H   0  0  0  0  0  0  0  0  0  0  0  0
   38.7146   24.2333   38.9828 H   0  0  0  0  0  0  0  0  0  0  0  0
   37.4600   25.4625   38.6063 H   0  0  0  0  0  0  0  0  0  0  0  0
   37.0358   23.7170   38.6063 H   0  0  0  0  0  0  0  0  0  0  0  0
   37.9782   26.4349   37.0372 H   0  0  0  0  0  0  0  0  0  0  0  0
   39.4496   25.7451   36.0960 H   0  0  0  0  0  0  0  0  0  0  0  0
   37.1278   25.1521   34.8292 H   0  0  0  0  0  0  0  0  0  0  0  0
   35.9177   27.1100   35.2838 H   0  0  0  0  0  0  0  0  0  0  0  0
   37.3499   28.0700   35.6447 H   0  0  0  0  0  0  0  0  0  0  0  0
   36.0817   27.4194   32.9888 H   0  0  0  0  0  0  0  0  0  0  0  0
   37.0952   28.8216   33.4246 H   0  0  0  0  0  0  0  0  0  0  0  0
   37.8545   26.3540   32.0964 H   0  0  0  0  0  0  0  0  0  0  0  0
   38.8471   27.7844   32.3750 H   0  0  0  0  0  0  0  0  0  0  0  0
   39.3173   25.4167   33.6235 H   0  0  0  0  0  0  0  0  0  0  0  0
   39.6609   26.9561   34.4298 H   0  0  0  0  0  0  0  0  0  0  0  0
  1  8  1  0
  2  3  2  0
  4  1  1  0
  4  3  1  0
  5  4  2  0
  6  5  1  0
  6  7  2  0
  7  2  1  0
  9  1  1  0
 10  9  1  0
 11 10  1  0
 12 11  1  0
 13 12  1  0
 13 14  1  0
 14 10  1  0
  1 15  1  6
  2 16  1  0
  3 17  1  0
  6 18  1  0
  8 19  1  0
  8 20  1  0
  8 21  1  0
  9 22  1  0
  9 23  1  0
 10 24  1  0
 11 25  1  0
 11 26  1  0
 12 27  1  0
 12 28  1  0
 13 29  1  0
 13 30  1  0
 14 31  1  0
 14 32  1  0
M  ISO  8  15   8  16  14  17  14  18  14  19   8  20   8  21   8  22   8
M  ISO  8  23   8  24  13  25  13  26  13  27  13  28  13  29  13  30  13
M  ISO  2  31  13  32  13
M  END
>  <minimizedAffinity>  (1) 
-4.18960476

>  <minimizedRMSD>  (1) 
2.2799809

$$$$
