
     RDKit          3D

 34 37  0  0  0  0  0  0  0  0999 V2000
   39.4620   23.3760   36.2080 C   0  0  0  0  0  0  0  0  0  0  0  0
   39.8120   24.5180   35.4500 C   0  0  0  0  0  0  0  0  0  0  0  0
   41.0820   24.6200   34.9150 C   0  0  0  0  0  0  0  0  0  0  0  0
   41.9280   23.5830   35.1660 N   0  0  0  0  0  0  0  0  0  0  0  0
   41.5650   22.4860   35.9030 C   0  0  0  0  0  0  0  0  0  0  0  0
   40.3460   22.4140   36.4010 N   0  0  0  0  0  0  0  0  0  0  0  0
   38.9200   25.6250   35.1820 C   0  0  0  0  0  0  0  0  0  0  0  0
   38.8090   26.7540   35.9780 C   0  0  0  0  0  0  0  0  0  0  0  0
   37.9180   27.7030   35.5810 C   0  0  0  0  0  0  0  0  0  0  0  0
   37.1890   27.4820   34.4210 C   0  0  0  0  0  0  0  0  0  0  0  0
   37.7940   25.8220   33.8420 S   0  0  0  0  0  0  0  0  0  0  0  0
   36.2080   28.1880   33.6950 C   0  0  0  0  0  0  0  0  0  0  0  0
   35.9450   27.8940   32.5210 O   0  0  0  0  0  0  0  0  0  0  0  0
   35.4780   29.2790   34.3050 N   0  0  0  0  0  0  0  0  0  0  0  0
   42.6050   21.4530   36.0760 C   0  0  0  0  0  0  0  0  0  0  0  0
   43.8830   21.8110   35.7170 C   0  0  0  0  0  0  0  0  0  0  0  0
   44.8620   20.2410   36.0930 S   0  0  0  0  0  0  0  0  0  0  0  0
   43.2650   19.4170   36.6740 C   0  0  0  0  0  0  0  0  0  0  0  0
   42.5040   20.2270   36.5280 N   0  0  0  0  0  0  0  0  0  0  0  0
   43.3640   17.9820   37.1650 C   0  0  0  0  0  0  0  0  0  0  0  0
   42.5330   16.9480   36.8950 C   0  0  0  0  0  0  0  0  0  0  0  0
   43.1080   15.9440   37.5870 N   0  0  0  0  0  0  0  0  0  0  0  0
   44.2080   16.3940   38.2150 C   0  0  0  0  0  0  0  0  0  0  0  0
   44.3910   17.7160   37.9530 N   0  0  0  0  0  0  0  0  0  0  0  0
   38.4528   23.2892   36.6370 H   0  0  0  0  0  0  0  0  0  0  0  0
   41.3924   25.4910   34.3192 H   0  0  0  0  0  0  0  0  0  0  0  0
   39.4133   26.8774   36.8888 H   0  0  0  0  0  0  0  0  0  0  0  0
   37.7789   28.6240   36.1661 H   0  0  0  0  0  0  0  0  0  0  0  0
   34.7637   29.7869   33.7639 H   0  0  0  0  0  0  0  0  0  0  0  0
   35.6728   29.5474   35.2801 H   0  0  0  0  0  0  0  0  0  0  0  0
   44.2435   22.7687   35.3133 H   0  0  0  0  0  0  0  0  0  0  0  0
   41.6256   16.9314   36.2734 H   0  0  0  0  0  0  0  0  0  0  0  0
   44.8654   15.7813   38.8494 H   0  0  0  0  0  0  0  0  0  0  0  0
   45.1361   18.3459   38.2829 H   0  0  0  0  0  0  0  0  0  0  0  0
  1  6  2  0
  2  1  1  0
  3  4  1  0
  3  2  2  0
  4  5  2  0
  5 15  1  0
  5  6  1  0
  7  2  1  0
  7  8  2  0
  9  8  1  0
 10  9  2  0
 11 10  1  0
 11  7  1  0
 12 14  1  0
 12 10  1  0
 13 12  2  0
 15 19  1  0
 16 15  2  0
 16 17  1  0
 17 18  1  0
 18 20  1  0
 19 18  2  0
 20 24  1  0
 21 20  2  0
 21 22  1  0
 22 23  2  0
 24 23  1  0
  1 25  1  0
  3 26  1  0
  8 27  1  0
  9 28  1  0
 14 29  1  0
 14 30  1  0
 16 31  1  0
 21 32  1  0
 23 33  1  0
 24 34  1  0
M  ISO  8  25  14  26  14  27  14  28  14  31  14  32  14  33  14  34   9
M  END
>  <minimizedAffinity>  (1) 
-4.70188236

>  <minimizedRMSD>  (1) 
1.41251624

$$$$
