
     RDKit          3D

 34 37  0  0  1  0  0  0  0  0999 V2000
   37.1450   26.8570   34.0420 C   0  0  0  0  0  0  0  0  0  0  0  0
   36.5520   28.1220   33.5670 C   0  0  0  0  0  0  0  0  0  0  0  0
   36.3760   28.6050   32.2880 C   0  0  0  0  0  0  0  0  0  0  0  0
   35.8030   29.8150   31.9840 C   0  0  0  0  0  0  0  0  0  0  0  0
   35.3790   30.5890   33.0510 C   0  0  0  0  0  0  0  0  0  0  0  0
   35.5640   30.0890   34.3120 C   0  0  0  0  0  0  0  0  0  0  0  0
   36.1270   28.9020   34.6010 N   0  0  0  0  0  0  0  0  0  0  0  0
   35.0850   30.9770   35.3760 C   0  0  0  0  0  0  0  0  0  0  0  0
   33.7870   31.0560   35.7610 N   0  0  0  0  0  0  0  0  0  0  0  0
   33.6720   31.9230   36.7180 O   0  0  0  0  0  0  0  0  0  0  0  0
   34.8670   32.4290   36.9850 C   0  0  0  0  0  0  0  0  0  0  0  0
   35.7710   31.8490   36.1530 N   0  0  0  0  0  0  0  0  0  0  0  0
   39.3530   25.9370   35.1550 C   0  0  2  0  0  0  0  0  0  0  0  0
   38.8970   27.2040   35.7910 C   0  0  0  0  0  0  0  0  0  0  0  0
   38.5840   26.9220   34.3520 C   0  0  2  0  0  0  0  0  0  0  0  0
   37.5300   23.5210   37.2370 C   0  0  0  0  0  0  0  0  0  0  0  0
   37.4450   22.3720   36.4420 C   0  0  0  0  0  0  0  0  0  0  0  0
   38.0450   22.4570   35.1400 C   0  0  0  0  0  0  0  0  0  0  0  0
   38.6370   23.6170   34.7770 N   0  0  0  0  0  0  0  0  0  0  0  0
   38.6780   24.7070   35.6170 C   0  0  0  0  0  0  0  0  0  0  0  0
   38.1180   24.6560   36.8630 N   0  0  0  0  0  0  0  0  0  0  0  0
   36.9982   26.0967   33.2607 H   0  0  0  0  0  0  0  0  0  0  0  0
   36.6373   26.6152   34.9874 H   0  0  0  0  0  0  0  0  0  0  0  0
   36.7186   27.9770   31.4524 H   0  0  0  0  0  0  0  0  0  0  0  0
   35.6864   30.1531   30.9437 H   0  0  0  0  0  0  0  0  0  0  0  0
   34.9100   31.5711   32.8911 H   0  0  0  0  0  0  0  0  0  0  0  0
   35.0891   33.1884   37.7492 H   0  0  0  0  0  0  0  0  0  0  0  0
   40.3152   25.4253   35.0053 H   0  0  0  0  0  0  0  0  0  0  0  0
   38.0948   27.1853   36.5434 H   0  0  0  0  0  0  0  0  0  0  0  0
   39.3875   28.0236   36.3366 H   0  0  0  0  0  0  0  0  0  0  0  0
   38.7788   27.3262   33.3477 H   0  0  0  0  0  0  0  0  0  0  0  0
   37.0800   23.4839   38.2401 H   0  0  0  0  0  0  0  0  0  0  0  0
   36.9472   21.4565   36.7943 H   0  0  0  0  0  0  0  0  0  0  0  0
   38.0234   21.5977   34.4536 H   0  0  0  0  0  0  0  0  0  0  0  0
  1 15  1  0
  2  1  1  0
  2  7  1  0
  3  2  2  0
  4  3  1  0
  4  5  2  0
  5  6  1  0
  6  7  2  0
  6  8  1  0
  8  9  2  0
  8 12  1  0
  9 10  1  0
 10 11  1  0
 12 11  2  0
 13 20  1  0
 13 14  1  0
 15 13  1  0
 15 14  1  0
 17 16  2  0
 18 17  1  0
 19 18  2  0
 19 20  1  0
 20 21  2  0
 21 16  1  0
  1 22  1  0
  1 23  1  0
  3 24  1  0
  4 25  1  0
  5 26  1  0
 11 27  1  0
 13 28  1  6
 14 29  1  0
 14 30  1  0
 15 31  1  6
 16 32  1  0
 17 33  1  0
 18 34  1  0
M  ISO  8  22   8  23   8  24  14  25  14  26  14  27  14  28  13  29  13
M  ISO  5  30  13  31  13  32  14  33  14  34  14
M  END
>  <minimizedAffinity>  (1) 
-5.35017633

>  <minimizedRMSD>  (1) 
5.59776783

$$$$
