
     RDKit          3D

 29 32  0  0  1  0  0  0  0  0999 V2000
   38.1510   23.9150   34.5820 C   0  0  0  0  0  0  0  0  0  0  0  0
   38.3060   25.1600   33.9600 C   0  0  0  0  0  0  0  0  0  0  0  0
   37.9010   24.9280   32.6800 N   0  0  0  0  0  0  0  0  0  0  0  0
   37.5470   23.6640   32.5770 C   0  0  0  0  0  0  0  0  0  0  0  0
   37.6890   22.9990   33.7440 N   0  0  0  0  0  0  0  0  0  0  0  0
   38.4570   23.6480   35.9750 C   0  0  0  0  0  0  0  0  0  0  0  0
   39.6810   23.0510   36.3230 C   0  0  0  0  0  0  0  0  0  0  0  0
   39.9370   22.8080   37.6890 C   0  0  0  0  0  0  0  0  0  0  0  0
   38.9970   23.1620   38.5810 N   0  0  0  0  0  0  0  0  0  0  0  0
   37.8230   23.7390   38.2120 C   0  0  0  0  0  0  0  0  0  0  0  0
   37.5480   23.9830   36.9190 N   0  0  0  0  0  0  0  0  0  0  0  0
   37.3740   21.5960   33.9220 C   0  0  1  0  0  0  0  0  0  0  0  0
   36.2190   21.1640   34.6920 C   0  0  0  0  0  0  0  0  0  0  0  0
   36.1090   21.2030   33.1810 C   0  0  2  0  0  0  0  0  0  0  0  0
   35.9910   19.8730   32.5790 C   0  0  0  0  0  0  0  0  0  0  0  0
   36.4620   19.5840   31.3460 N   0  0  0  0  0  0  0  0  0  0  0  0
   36.2240   18.3430   31.0630 O   0  0  0  0  0  0  0  0  0  0  0  0
   35.6060   17.8300   32.1000 C   0  0  0  0  0  0  0  0  0  0  0  0
   35.4340   18.7590   33.0850 N   0  0  0  0  0  0  0  0  0  0  0  0
   38.6683   26.1009   34.3999 H   0  0  0  0  0  0  0  0  0  0  0  0
   37.1785   23.2032   31.6486 H   0  0  0  0  0  0  0  0  0  0  0  0
   40.4181   22.7810   35.5524 H   0  0  0  0  0  0  0  0  0  0  0  0
   40.8790   22.3422   38.0142 H   0  0  0  0  0  0  0  0  0  0  0  0
   37.0869   24.0104   38.9830 H   0  0  0  0  0  0  0  0  0  0  0  0
   38.4282   21.2879   33.9828 H   0  0  0  0  0  0  0  0  0  0  0  0
   36.2414   20.1954   35.2130 H   0  0  0  0  0  0  0  0  0  0  0  0
   35.6374   21.6009   35.5171 H   0  0  0  0  0  0  0  0  0  0  0  0
   35.5091   21.6935   32.4003 H   0  0  0  0  0  0  0  0  0  0  0  0
   35.2695   16.7849   32.1672 H   0  0  0  0  0  0  0  0  0  0  0  0
  1  6  1  0
  2  1  2  0
  3  2  1  0
  4  3  2  0
  4  5  1  0
  5 12  1  0
  5  1  1  0
  6  7  2  0
  6 11  1  0
  7  8  1  0
  8  9  2  0
 10  9  1  0
 11 10  2  0
 12 13  1  0
 14 12  1  0
 14 13  1  0
 15 19  1  0
 15 14  1  0
 16 15  2  0
 17 16  1  0
 17 18  1  0
 18 19  2  0
  2 20  1  0
  4 21  1  0
  7 22  1  0
  8 23  1  0
 10 24  1  0
 12 25  1  6
 13 26  1  0
 13 27  1  0
 14 28  1  1
 18 29  1  0
M  ISO  8  20  14  21  14  22  14  23  14  24  14  25  13  26  13  27  13
M  ISO  2  28  13  29  14
M  END
>  <minimizedAffinity>  (1) 
-4.60213232

>  <minimizedRMSD>  (1) 
0.911352098

$$$$
