
     RDKit          3D

 53 56  0  0  0  0  0  0  0  0999 V2000
   37.2460   26.6920   34.6500 C   0  0  0  0  0  0  0  0  0  0  0  0
   37.3460   25.9140   33.5150 C   0  0  0  0  0  0  0  0  0  0  0  0
   36.7830   26.3860   32.3100 C   0  0  0  0  0  0  0  0  0  0  0  0
   36.1760   27.5850   32.3580 N   0  0  0  0  0  0  0  0  0  0  0  0
   36.0910   28.3270   33.4710 C   0  0  0  0  0  0  0  0  0  0  0  0
   36.6210   27.8980   34.6360 N   0  0  0  0  0  0  0  0  0  0  0  0
   37.8340   26.1880   35.8830 C   0  0  0  0  0  0  0  0  0  0  0  0
   38.5780   26.9440   36.5640 O   0  0  0  0  0  0  0  0  0  0  0  0
   37.5720   24.9060   36.2860 O   0  0  0  0  0  0  0  0  0  0  0  0
   39.6100   22.6960   38.1360 N   0  0  0  0  0  0  0  0  0  0  0  0
   38.5320   23.4580   37.9460 N   0  0  0  0  0  0  0  0  0  0  0  0
   38.6030   24.0440   36.7270 C   0  0  0  0  0  0  0  0  0  0  0  0
   39.7620   23.6420   36.1250 C   0  0  0  0  0  0  0  0  0  0  0  0
   40.3670   22.8110   37.0120 C   0  0  0  0  0  0  0  0  0  0  0  0
   41.6620   22.1310   36.7860 C   0  0  0  0  0  0  0  0  0  0  0  0
   42.6850   22.8200   36.1820 C   0  0  0  0  0  0  0  0  0  0  0  0
   43.8590   22.1050   36.0120 C   0  0  0  0  0  0  0  0  0  0  0  0
   44.0520   20.8270   36.3860 N   0  0  0  0  0  0  0  0  0  0  0  0
   43.0100   20.1810   36.9810 C   0  0  0  0  0  0  0  0  0  0  0  0
   41.8500   20.8460   37.1640 N   0  0  0  0  0  0  0  0  0  0  0  0
   35.3920   29.6450   33.3990 C   0  0  0  0  0  0  0  0  0  0  0  0
   35.6030   30.3280   34.7330 C   0  0  0  0  0  0  0  0  0  0  0  0
   33.9100   29.3670   33.2320 C   0  0  0  0  0  0  0  0  0  0  0  0
   35.8780   30.4860   32.2450 C   0  0  0  0  0  0  0  0  0  0  0  0
   35.2810   34.5520   33.2600 C   0  0  0  0  0  0  0  0  0  0  0  0
   34.1590   33.8120   32.9370 C   0  0  0  0  0  0  0  0  0  0  0  0
   34.3470   32.4850   32.6050 C   0  0  0  0  0  0  0  0  0  0  0  0
   35.6210   31.9120   32.5950 C   0  0  0  0  0  0  0  0  0  0  0  0
   36.7020   32.7300   32.9350 C   0  0  0  0  0  0  0  0  0  0  0  0
   36.5710   34.0620   33.2740 C   0  0  0  0  0  0  0  0  0  0  0  0
   35.0690   36.2390   33.6850 S   0  0  0  0  0  0  0  0  0  0  0  0
   36.3850   36.9680   33.7020 O   0  0  0  0  0  0  0  0  0  0  0  0
   34.5130   36.3380   35.0970 O   0  0  0  0  0  0  0  0  0  0  0  0
   37.8569   24.9404   33.5488 H   0  0  0  0  0  0  0  0  0  0  0  0
   36.8379   25.8028   31.3789 H   0  0  0  0  0  0  0  0  0  0  0  0
   39.8266   22.1315   38.9699 H   0  0  0  0  0  0  0  0  0  0  0  0
   40.1285   23.9314   35.1291 H   0  0  0  0  0  0  0  0  0  0  0  0
   42.5795   23.8654   35.8564 H   0  0  0  0  0  0  0  0  0  0  0  0
   44.7019   22.6240   35.5323 H   0  0  0  0  0  0  0  0  0  0  0  0
   43.1127   19.1353   37.3066 H   0  0  0  0  0  0  0  0  0  0  0  0
   35.3843   29.6201   35.5460 H   0  0  0  0  0  0  0  0  0  0  0  0
   36.6472   30.6651   34.8113 H   0  0  0  0  0  0  0  0  0  0  0  0
   34.9309   31.1953   34.8113 H   0  0  0  0  0  0  0  0  0  0  0  0
   33.4396   29.2788   34.2224 H   0  0  0  0  0  0  0  0  0  0  0  0
   33.4423   30.1931   32.6762 H   0  0  0  0  0  0  0  0  0  0  0  0
   33.7735   28.4276   32.6762 H   0  0  0  0  0  0  0  0  0  0  0  0
   35.3313   30.2191   31.3285 H   0  0  0  0  0  0  0  0  0  0  0  0
   36.9499   30.3169   32.0648 H   0  0  0  0  0  0  0  0  0  0  0  0
   33.1556   34.2627   32.9442 H   0  0  0  0  0  0  0  0  0  0  0  0
   33.4759   31.8665   32.3431 H   0  0  0  0  0  0  0  0  0  0  0  0
   37.7100   32.2895   32.9324 H   0  0  0  0  0  0  0  0  0  0  0  0
   37.4354   34.6894   33.5371 H   0  0  0  0  0  0  0  0  0  0  0  0
   34.2281   36.7901   32.7544 H   0  0  0  0  0  0  0  0  0  0  0  0
  1  7  1  0
  2  1  2  0
  3  4  2  0
  3  2  1  0
  4  5  1  0
  5  6  2  0
  6  1  1  0
  7  9  1  0
  7  8  2  0
  9 12  1  0
 11 10  1  0
 12 11  2  0
 13 12  1  0
 13 14  2  0
 14 10  1  0
 15 14  1  0
 15 20  1  0
 16 15  2  0
 17 16  1  0
 17 18  2  0
 18 19  1  0
 19 20  2  0
 21  5  1  0
 21 22  1  0
 23 21  1  0
 24 28  1  0
 24 21  1  0
 25 30  2  0
 25 31  1  0
 26 25  1  0
 27 26  2  0
 28 27  1  0
 28 29  2  0
 29 30  1  0
 31 32  2  0
 31 33  2  0
  2 34  1  0
  3 35  1  0
 10 36  1  0
 13 37  1  0
 16 38  1  0
 17 39  1  0
 19 40  1  0
 22 41  1  0
 22 42  1  0
 22 43  1  0
 23 44  1  0
 23 45  1  0
 23 46  1  0
 24 47  1  0
 24 48  1  0
 26 49  1  0
 27 50  1  0
 29 51  1  0
 30 52  1  0
 31 53  1  0
M  ISO  8  34  14  35  14  36   9  37  14  38  14  39  14  40  14  41   8
M  ISO  8  42   8  43   8  44   8  45   8  46   8  47   8  48   8  49  14
M  ISO  4  50  14  51  14  52  14  53  11
M  END
>  <minimizedAffinity>  (1) 
-5.69265509

>  <minimizedRMSD>  (1) 
1.21478307

$$$$
