
     RDKit          3D

 29 31  0  0  0  0  0  0  0  0999 V2000
   38.0550   23.6740   34.7410 N   0  0  0  0  0  0  0  0  0  0  0  0
   38.0140   22.7470   33.7980 N   0  0  0  0  0  0  0  0  0  0  0  0
   37.5920   23.2420   32.6320 C   0  0  0  0  0  0  0  0  0  0  0  0
   37.3600   24.5770   32.8910 C   0  0  0  0  0  0  0  0  0  0  0  0
   37.6490   24.8560   34.2190 C   0  0  0  0  0  0  0  0  0  0  0  0
   37.5520   23.6400   37.1180 C   0  0  0  0  0  0  0  0  0  0  0  0
   38.4570   23.4630   36.0760 C   0  0  0  0  0  0  0  0  0  0  0  0
   39.7770   23.0740   36.3530 C   0  0  0  0  0  0  0  0  0  0  0  0
   40.0980   22.8870   37.6700 N   0  0  0  0  0  0  0  0  0  0  0  0
   39.2100   23.0610   38.6680 C   0  0  0  0  0  0  0  0  0  0  0  0
   37.9450   23.4360   38.3850 N   0  0  0  0  0  0  0  0  0  0  0  0
   37.5310   26.1250   34.8520 N   0  0  0  0  0  0  0  0  0  0  0  0
   38.6440   26.9810   35.0850 C   0  0  0  0  0  0  0  0  0  0  0  0
   39.5660   26.9800   34.1420 N   0  0  0  0  0  0  0  0  0  0  0  0
   38.6550   27.7470   36.2980 N   0  0  0  0  0  0  0  0  0  0  0  0
   40.3710   27.6110   34.3310 H   0  0  0  0  0  0  0  0  0  0  0  0
   36.8820   25.5780   31.9450 C   0  0  0  0  0  0  0  0  0  0  0  0
   35.7840   25.4880   31.1840 N   0  0  0  0  0  0  0  0  0  0  0  0
   35.6720   26.5760   30.4590 O   0  0  0  0  0  0  0  0  0  0  0  0
   36.6780   27.4030   30.7180 C   0  0  0  0  0  0  0  0  0  0  0  0
   37.4230   26.7690   31.6430 N   0  0  0  0  0  0  0  0  0  0  0  0
   37.4593   22.7066   31.6803 H   0  0  0  0  0  0  0  0  0  0  0  0
   36.5174   23.9463   36.9039 H   0  0  0  0  0  0  0  0  0  0  0  0
   40.5161   22.9269   35.5517 H   0  0  0  0  0  0  0  0  0  0  0  0
   39.5156   22.8976   39.7120 H   0  0  0  0  0  0  0  0  0  0  0  0
   36.5978   26.4383   35.1553 H   0  0  0  0  0  0  0  0  0  0  0  0
   39.4435   28.3776   36.5017 H   0  0  0  0  0  0  0  0  0  0  0  0
   37.8744   27.6663   36.9651 H   0  0  0  0  0  0  0  0  0  0  0  0
   36.8627   28.3919   30.2732 H   0  0  0  0  0  0  0  0  0  0  0  0
  1  7  1  0
  2  1  1  0
  3  4  1  0
  3  2  2  0
  4  5  2  0
  5  1  1  0
  5 12  1  0
  6 11  2  0
  7  8  2  0
  7  6  1  0
  8  9  1  0
  9 10  2  0
 11 10  1  0
 12 13  1  0
 13 15  1  0
 14 16  1  0
 14 13  2  0
 17  4  1  0
 18 17  2  0
 19 20  1  0
 19 18  1  0
 20 21  2  0
 21 17  1  0
  3 22  1  0
  6 23  1  0
  8 24  1  0
 10 25  1  0
 12 26  1  0
 15 27  1  0
 15 28  1  0
 20 29  1  0
M  ISO  5  22  14  23  14  24  14  25  14  29  14
M  END
>  <minimizedAffinity>  (1) 
-4.9188714

>  <minimizedRMSD>  (1) 
0.515709639

$$$$
