
     RDKit          3D

 26 28  0  0  0  0  0  0  0  0999 V2000
   43.6270   19.7090   37.0890 C   0  0  0  0  0  0  0  0  0  0  0  0
   42.4820   20.4850   37.3160 C   0  0  0  0  0  0  0  0  0  0  0  0
   41.9730   21.2110   36.2420 C   0  0  0  0  0  0  0  0  0  0  0  0
   42.6280   21.1150   35.0340 N   0  0  0  0  0  0  0  0  0  0  0  0
   43.7150   20.3660   34.8630 C   0  0  0  0  0  0  0  0  0  0  0  0
   44.2220   19.6540   35.9020 N   0  0  0  0  0  0  0  0  0  0  0  0
   44.3850   20.2900   33.5680 C   0  0  0  0  0  0  0  0  0  0  0  0
   44.2160   19.1550   32.7920 C   0  0  0  0  0  0  0  0  0  0  0  0
   44.8680   19.1150   31.5610 C   0  0  0  0  0  0  0  0  0  0  0  0
   45.6490   20.1360   31.1110 N   0  0  0  0  0  0  0  0  0  0  0  0
   45.7780   21.2170   31.9050 C   0  0  0  0  0  0  0  0  0  0  0  0
   45.1550   21.2930   33.1180 N   0  0  0  0  0  0  0  0  0  0  0  0
   40.7820   22.0450   36.3870 C   0  0  0  0  0  0  0  0  0  0  0  0
   39.9230   22.6400   35.5020 N   0  0  0  0  0  0  0  0  0  0  0  0
   39.0130   23.2820   36.1740 O   0  0  0  0  0  0  0  0  0  0  0  0
   39.2260   23.1430   37.4660 C   0  0  0  0  0  0  0  0  0  0  0  0
   40.3150   22.3810   37.5990 N   0  0  0  0  0  0  0  0  0  0  0  0
   38.4320   23.7060   38.5700 C   0  0  0  0  0  0  0  0  0  0  0  0
   39.2490   23.8750   39.6810 F   0  0  0  0  0  0  0  0  0  0  0  0
   37.4090   22.8590   38.9490 F   0  0  0  0  0  0  0  0  0  0  0  0
   37.9320   24.9390   38.2230 F   0  0  0  0  0  0  0  0  0  0  0  0
   44.0473   19.1258   37.9216 H   0  0  0  0  0  0  0  0  0  0  0  0
   42.0032   20.5193   38.3057 H   0  0  0  0  0  0  0  0  0  0  0  0
   43.5909   18.3171   33.1345 H   0  0  0  0  0  0  0  0  0  0  0  0
   44.7471   18.2237   30.9278 H   0  0  0  0  0  0  0  0  0  0  0  0
   46.4004   22.0590   31.5679 H   0  0  0  0  0  0  0  0  0  0  0  0
  1  2  2  0
  3 13  1  0
  3  2  1  0
  4  3  2  0
  5  4  1  0
  5  6  2  0
  6  1  1  0
  7  5  1  0
  8  7  2  0
  9  8  1  0
 10  9  2  0
 10 11  1  0
 11 12  2  0
 12  7  1  0
 13 17  1  0
 14 15  1  0
 14 13  2  0
 15 16  1  0
 16 17  2  0
 16 18  1  0
 18 20  1  0
 18 19  1  0
 21 18  1  0
  1 22  1  0
  2 23  1  0
  8 24  1  0
  9 25  1  0
 11 26  1  0
M  ISO  5  22  14  23  14  24  14  25  14  26  14
M  END
>  <minimizedAffinity>  (1) 
-4.09274817

>  <minimizedRMSD>  (1) 
0.0370939225

$$$$
