
     RDKit          3D

 29 31  0  0  0  0  0  0  0  0999 V2000
   37.3370   22.3670   33.3820 C   0  0  0  0  0  0  0  0  0  0  0  0
   36.7930   21.2650   33.9790 C   0  0  0  0  0  0  0  0  0  0  0  0
   35.6500   20.6560   33.5100 C   0  0  0  0  0  0  0  0  0  0  0  0
   35.0090   21.1720   32.3790 C   0  0  0  0  0  0  0  0  0  0  0  0
   35.5830   22.2850   31.8000 C   0  0  0  0  0  0  0  0  0  0  0  0
   36.7090   22.8910   32.2560 C   0  0  0  0  0  0  0  0  0  0  0  0
   37.3130   24.0690   31.6400 C   0  0  0  0  0  0  0  0  0  0  0  0
   38.2680   24.0050   30.6680 C   0  0  0  0  0  0  0  0  0  0  0  0
   38.8640   25.0940   30.0620 C   0  0  0  0  0  0  0  0  0  0  0  0
   38.4380   26.3120   30.4940 N   0  0  0  0  0  0  0  0  0  0  0  0
   37.5000   26.4300   31.4490 C   0  0  0  0  0  0  0  0  0  0  0  0
   36.9670   25.3230   31.9910 N   0  0  0  0  0  0  0  0  0  0  0  0
   38.8400   23.1660   34.0020 S   0  0  0  0  0  0  0  0  0  0  0  0
   39.7520   22.7790   37.8420 C   0  0  0  0  0  0  0  0  0  0  0  0
   38.7320   23.4180   38.5260 C   0  0  0  0  0  0  0  0  0  0  0  0
   37.7170   23.9950   37.7740 C   0  0  0  0  0  0  0  0  0  0  0  0
   37.7700   23.9070   36.4120 N   0  0  0  0  0  0  0  0  0  0  0  0
   38.7710   23.2800   35.7710 C   0  0  0  0  0  0  0  0  0  0  0  0
   39.7670   22.7130   36.5000 N   0  0  0  0  0  0  0  0  0  0  0  0
   37.2871   20.8479   34.8689 H   0  0  0  0  0  0  0  0  0  0  0  0
   35.2444   19.7705   34.0211 H   0  0  0  0  0  0  0  0  0  0  0  0
   34.0951   20.7144   31.9724 H   0  0  0  0  0  0  0  0  0  0  0  0
   35.0959   22.7096   30.9098 H   0  0  0  0  0  0  0  0  0  0  0  0
   38.5895   23.0054   30.3402 H   0  0  0  0  0  0  0  0  0  0  0  0
   39.6319   24.9839   29.2821 H   0  0  0  0  0  0  0  0  0  0  0  0
   37.1716   27.4250   31.7839 H   0  0  0  0  0  0  0  0  0  0  0  0
   40.5703   22.3138   38.4111 H   0  0  0  0  0  0  0  0  0  0  0  0
   38.7257   23.4669   39.6249 H   0  0  0  0  0  0  0  0  0  0  0  0
   36.8829   24.5151   38.2678 H   0  0  0  0  0  0  0  0  0  0  0  0
  1  2  2  0
  1 13  1  0
  3  2  1  0
  4  3  2  0
  5  6  2  0
  5  4  1  0
  6  1  1  0
  7 12  1  0
  7  6  1  0
  8  7  2  0
  9 10  2  0
  9  8  1  0
 10 11  1  0
 11 12  2  0
 13 18  1  0
 14 15  2  0
 16 15  1  0
 17 16  2  0
 18 17  1  0
 18 19  2  0
 19 14  1  0
  2 20  1  0
  3 21  1  0
  4 22  1  0
  5 23  1  0
  8 24  1  0
  9 25  1  0
 11 26  1  0
 14 27  1  0
 15 28  1  0
 16 29  1  0
M  ISO  8  20  14  21  14  22  14  23  14  24  14  25  14  26  14  27  14
M  ISO  2  28  14  29  14
M  END
>  <minimizedAffinity>  (1) 
-4.99129391

>  <minimizedRMSD>  (1) 
0.527962744

$$$$
