
     RDKit          3D

 36 39  0  0  0  0  0  0  0  0999 V2000
   37.6100   24.8390   36.4780 O   0  0  0  0  0  0  0  0  0  0  0  0
   39.6780   22.6130   38.2560 N   0  0  0  0  0  0  0  0  0  0  0  0
   38.5970   23.3730   38.1080 N   0  0  0  0  0  0  0  0  0  0  0  0
   38.6470   23.9760   36.8790 C   0  0  0  0  0  0  0  0  0  0  0  0
   39.7980   23.5750   36.2470 C   0  0  0  0  0  0  0  0  0  0  0  0
   40.4170   22.7280   37.1330 C   0  0  0  0  0  0  0  0  0  0  0  0
   41.7040   22.0490   36.8700 C   0  0  0  0  0  0  0  0  0  0  0  0
   42.7160   22.7400   36.2310 C   0  0  0  0  0  0  0  0  0  0  0  0
   43.8730   22.0280   36.0310 C   0  0  0  0  0  0  0  0  0  0  0  0
   44.0840   20.7590   36.3990 N   0  0  0  0  0  0  0  0  0  0  0  0
   43.0660   20.1130   37.0250 C   0  0  0  0  0  0  0  0  0  0  0  0
   41.9150   20.7790   37.2380 N   0  0  0  0  0  0  0  0  0  0  0  0
   37.8780   26.0060   35.7770 C   0  0  0  0  0  0  0  0  0  0  0  0
   38.4790   26.9510   36.3230 O   0  0  0  0  0  0  0  0  0  0  0  0
   37.4510   26.1280   34.3870 C   0  0  0  0  0  0  0  0  0  0  0  0
   37.6990   25.0610   33.5350 C   0  0  0  0  0  0  0  0  0  0  0  0
   37.2920   25.1690   32.1990 C   0  0  0  0  0  0  0  0  0  0  0  0
   36.6840   26.3100   31.8260 N   0  0  0  0  0  0  0  0  0  0  0  0
   36.4590   27.3170   32.6630 C   0  0  0  0  0  0  0  0  0  0  0  0
   36.8350   27.2510   33.9540 N   0  0  0  0  0  0  0  0  0  0  0  0
   35.7880   28.5470   32.2060 C   0  0  0  0  0  0  0  0  0  0  0  0
   36.3790   29.3050   31.2130 C   0  0  0  0  0  0  0  0  0  0  0  0
   35.6700   30.4370   30.8560 C   0  0  0  0  0  0  0  0  0  0  0  0
   34.5040   30.8150   31.3950 N   0  0  0  0  0  0  0  0  0  0  0  0
   33.9570   30.0590   32.3560 C   0  0  0  0  0  0  0  0  0  0  0  0
   34.6190   28.9470   32.7300 N   0  0  0  0  0  0  0  0  0  0  0  0
   39.9096   22.0396   39.0797 H   0  0  0  0  0  0  0  0  0  0  0  0
   40.1487   23.8689   35.2467 H   0  0  0  0  0  0  0  0  0  0  0  0
   42.6028   23.7848   35.9061 H   0  0  0  0  0  0  0  0  0  0  0  0
   44.6995   22.5468   35.5233 H   0  0  0  0  0  0  0  0  0  0  0  0
   43.1794   19.0685   37.3509 H   0  0  0  0  0  0  0  0  0  0  0  0
   38.2024   24.1534   33.8996 H   0  0  0  0  0  0  0  0  0  0  0  0
   37.4629   24.3523   31.4822 H   0  0  0  0  0  0  0  0  0  0  0  0
   37.3356   29.0301   30.7448 H   0  0  0  0  0  0  0  0  0  0  0  0
   36.0965   31.0761   30.0688 H   0  0  0  0  0  0  0  0  0  0  0  0
   33.0007   30.3365   32.8234 H   0  0  0  0  0  0  0  0  0  0  0  0
  1  4  1  0
  3  2  1  0
  4  3  2  0
  5  4  1  0
  5  6  2  0
  6  2  1  0
  7  6  1  0
  7 12  1  0
  8  7  2  0
  9  8  1  0
  9 10  2  0
 10 11  1  0
 11 12  2  0
 13 14  2  0
 13  1  1  0
 15 13  1  0
 16 15  2  0
 17 16  1  0
 18 17  2  0
 18 19  1  0
 19 20  2  0
 20 15  1  0
 21 19  1  0
 21 26  1  0
 22 21  2  0
 23 22  1  0
 23 24  2  0
 24 25  1  0
 25 26  2  0
  2 27  1  0
  5 28  1  0
  8 29  1  0
  9 30  1  0
 11 31  1  0
 16 32  1  0
 17 33  1  0
 22 34  1  0
 23 35  1  0
 25 36  1  0
M  ISO  8  27   9  28  14  29  14  30  14  31  14  32  14  33  14  34  14
M  ISO  2  35  14  36  14
M  END
>  <minimizedAffinity>  (1) 
-5.89148998

>  <minimizedRMSD>  (1) 
0.858849049

$$$$
