
     RDKit          3D

 37 40  0  0  0  0  0  0  0  0999 V2000
   38.3200   25.8130   34.1720 C   0  0  0  0  0  0  0  0  0  0  0  0
   39.2080   24.7630   34.6670 C   0  0  0  0  0  0  0  0  0  0  0  0
   40.2280   24.2280   33.9060 C   0  0  0  0  0  0  0  0  0  0  0  0
   41.0560   23.2610   34.4080 C   0  0  0  0  0  0  0  0  0  0  0  0
   40.9060   22.7780   35.7010 C   0  0  0  0  0  0  0  0  0  0  0  0
   39.8860   23.3080   36.4720 C   0  0  0  0  0  0  0  0  0  0  0  0
   39.7150   22.8450   37.7690 C   0  0  0  0  0  0  0  0  0  0  0  0
   38.7210   23.3360   38.5790 C   0  0  0  0  0  0  0  0  0  0  0  0
   37.8800   24.3140   38.0710 C   0  0  0  0  0  0  0  0  0  0  0  0
   38.0650   24.7580   36.7890 C   0  0  0  0  0  0  0  0  0  0  0  0
   39.0580   24.2860   35.9450 C   0  0  0  0  0  0  0  0  0  0  0  0
   35.9930   25.9560   31.3400 C   0  0  0  0  0  0  0  0  0  0  0  0
   35.7040   24.6290   31.0630 C   0  0  0  0  0  0  0  0  0  0  0  0
   36.3180   23.6510   31.8710 C   0  0  0  0  0  0  0  0  0  0  0  0
   37.1570   24.0380   32.8750 N   0  0  0  0  0  0  0  0  0  0  0  0
   37.4010   25.3410   33.0980 C   0  0  0  0  0  0  0  0  0  0  0  0
   36.8280   26.2860   32.3430 N   0  0  0  0  0  0  0  0  0  0  0  0
   36.1110   22.2430   31.6980 C   0  0  0  0  0  0  0  0  0  0  0  0
   35.1030   21.5360   32.3180 C   0  0  0  0  0  0  0  0  0  0  0  0
   34.8750   20.1640   32.1700 C   0  0  0  0  0  0  0  0  0  0  0  0
   35.7060   19.4820   31.3590 N   0  0  0  0  0  0  0  0  0  0  0  0
   36.7070   20.1570   30.7360 C   0  0  0  0  0  0  0  0  0  0  0  0
   36.8910   21.4760   30.9040 N   0  0  0  0  0  0  0  0  0  0  0  0
   37.7152   26.1853   35.0120 H   0  0  0  0  0  0  0  0  0  0  0  0
   38.9529   26.6020   33.7398 H   0  0  0  0  0  0  0  0  0  0  0  0
   40.3780   24.5858   32.8767 H   0  0  0  0  0  0  0  0  0  0  0  0
   41.8583   22.8574   33.7729 H   0  0  0  0  0  0  0  0  0  0  0  0
   41.5749   22.0007   36.0990 H   0  0  0  0  0  0  0  0  0  0  0  0
   40.3903   22.0679   38.1565 H   0  0  0  0  0  0  0  0  0  0  0  0
   38.5951   22.9625   39.6059 H   0  0  0  0  0  0  0  0  0  0  0  0
   37.0722   24.7292   38.6916 H   0  0  0  0  0  0  0  0  0  0  0  0
   37.3861   25.5344   36.4067 H   0  0  0  0  0  0  0  0  0  0  0  0
   35.5341   26.7498   30.7323 H   0  0  0  0  0  0  0  0  0  0  0  0
   35.0228   24.3504   30.2454 H   0  0  0  0  0  0  0  0  0  0  0  0
   34.4253   22.0943   32.9806 H   0  0  0  0  0  0  0  0  0  0  0  0
   34.0493   19.6618   32.6954 H   0  0  0  0  0  0  0  0  0  0  0  0
   37.3887   19.6048   30.0725 H   0  0  0  0  0  0  0  0  0  0  0  0
  1  2  1  0
  2 11  2  0
  3  4  2  0
  3  2  1  0
  4  5  1  0
  5  6  2  0
  6  7  1  0
  7  8  2  0
  9  8  1  0
 10  9  2  0
 11  6  1  0
 11 10  1  0
 12 17  2  0
 13 12  1  0
 13 14  2  0
 14 15  1  0
 15 16  2  0
 16  1  1  0
 17 16  1  0
 18 14  1  0
 18 19  2  0
 20 19  1  0
 21 20  2  0
 22 23  2  0
 22 21  1  0
 23 18  1  0
  1 24  1  0
  1 25  1  0
  3 26  1  0
  4 27  1  0
  5 28  1  0
  7 29  1  0
  8 30  1  0
  9 31  1  0
 10 32  1  0
 12 33  1  0
 13 34  1  0
 19 35  1  0
 20 36  1  0
 22 37  1  0
M  ISO  8  24   8  25   8  26  14  27  14  28  14  29  14  30  14  31  14
M  ISO  6  32  14  33  14  34  14  35  14  36  14  37  14
M  END
>  <minimizedAffinity>  (1) 
-6.30188036

>  <minimizedRMSD>  (1) 
3.09726691

$$$$
