
     RDKit          3D

 42 46  0  0  1  0  0  0  0  0999 V2000
   37.9880   26.3770   36.5050 C   0  0  1  0  0  0  0  0  0  0  0  0
   38.7780   27.3280   35.6870 C   0  0  0  0  0  0  0  0  0  0  0  0
   37.5060   26.7520   35.1560 C   0  0  1  0  0  0  0  0  0  0  0  0
   37.6330   26.0550   33.9410 N   0  0  0  0  0  0  0  0  0  0  0  0
   37.7180   24.7280   33.7550 C   0  0  0  0  0  0  0  0  0  0  0  0
   37.8400   24.1070   32.5430 C   0  0  0  0  0  0  0  0  0  0  0  0
   37.8790   24.9050   31.3920 C   0  0  0  0  0  0  0  0  0  0  0  0
   37.9890   24.3910   30.2490 O   0  0  0  0  0  0  0  0  0  0  0  0
   37.7950   26.2580   31.4990 N   0  0  0  0  0  0  0  0  0  0  0  0
   37.6780   26.7600   32.7490 C   0  0  0  0  0  0  0  0  0  0  0  0
   37.6020   28.0320   32.8240 O   0  0  0  0  0  0  0  0  0  0  0  0
   37.1220   28.4800   28.7940 N   0  0  0  0  0  0  0  0  0  0  0  0
   36.7410   27.7530   29.8170 N   0  0  0  0  0  0  0  0  0  0  0  0
   37.8070   27.1290   30.3760 C   0  0  0  0  0  0  0  0  0  0  0  0
   38.8970   27.5040   29.6460 C   0  0  0  0  0  0  0  0  0  0  0  0
   38.4570   28.3530   28.6540 C   0  0  0  0  0  0  0  0  0  0  0  0
   38.5380   25.0370   36.8220 C   0  0  0  0  0  0  0  0  0  0  0  0
   37.9700   24.3740   37.9140 C   0  0  0  0  0  0  0  0  0  0  0  0
   38.4180   23.1250   38.2750 C   0  0  0  0  0  0  0  0  0  0  0  0
   39.4130   22.5910   37.5310 N   0  0  0  0  0  0  0  0  0  0  0  0
   39.9460   23.2590   36.4760 C   0  0  0  0  0  0  0  0  0  0  0  0
   39.5250   24.4620   36.1170 N   0  0  0  0  0  0  0  0  0  0  0  0
   41.0200   22.6070   35.7250 C   0  0  0  0  0  0  0  0  0  0  0  0
   41.8980   21.7290   36.3270 C   0  0  0  0  0  0  0  0  0  0  0  0
   42.9230   21.0900   35.6730 C   0  0  0  0  0  0  0  0  0  0  0  0
   43.0970   21.3220   34.3580 N   0  0  0  0  0  0  0  0  0  0  0  0
   42.2460   22.1790   33.7530 C   0  0  0  0  0  0  0  0  0  0  0  0
   41.2410   22.8010   34.4130 N   0  0  0  0  0  0  0  0  0  0  0  0
   37.5258   26.3842   37.5032 H   0  0  0  0  0  0  0  0  0  0  0  0
   38.8261   28.3900   35.9697 H   0  0  0  0  0  0  0  0  0  0  0  0
   39.8190   27.3759   35.3350 H   0  0  0  0  0  0  0  0  0  0  0  0
   36.4947   27.0419   34.8347 H   0  0  0  0  0  0  0  0  0  0  0  0
   37.6870   24.0889   34.6498 H   0  0  0  0  0  0  0  0  0  0  0  0
   37.9057   23.0112   32.4735 H   0  0  0  0  0  0  0  0  0  0  0  0
   36.5057   29.0512   28.1984 H   0  0  0  0  0  0  0  0  0  0  0  0
   39.9362   27.1868   29.8179 H   0  0  0  0  0  0  0  0  0  0  0  0
   39.0804   28.8381   27.8884 H   0  0  0  0  0  0  0  0  0  0  0  0
   37.1620   24.8531   38.4864 H   0  0  0  0  0  0  0  0  0  0  0  0
   37.9864   22.5846   39.1304 H   0  0  0  0  0  0  0  0  0  0  0  0
   41.7686   21.5277   37.4007 H   0  0  0  0  0  0  0  0  0  0  0  0
   43.5893   20.4015   36.2134 H   0  0  0  0  0  0  0  0  0  0  0  0
   42.3750   22.3798   32.6792 H   0  0  0  0  0  0  0  0  0  0  0  0
  1 17  1  0
  2  1  1  0
  3  2  1  0
  3  1  1  0
  4  3  1  0
  5  4  1  0
  6  5  2  0
  7  9  1  0
  7  6  1  0
  8  7  2  0
  9 10  1  0
 10 11  2  0
 10  4  1  0
 12 13  1  0
 13 14  2  0
 14  9  1  0
 15 14  1  0
 16 12  1  0
 16 15  2  0
 17 18  2  0
 18 19  1  0
 20 19  2  0
 21 20  1  0
 22 21  2  0
 22 17  1  0
 23 24  2  0
 23 21  1  0
 25 24  1  0
 26 25  2  0
 27 26  1  0
 27 28  2  0
 28 23  1  0
  1 29  1  1
  2 30  1  0
  2 31  1  0
  3 32  1  1
  5 33  1  0
  6 34  1  0
 12 35  1  0
 15 36  1  0
 16 37  1  0
 18 38  1  0
 19 39  1  0
 24 40  1  0
 25 41  1  0
 27 42  1  0
M  ISO  8  29  13  30  13  31  13  32  13  33  14  34  14  35   9  36  14
M  ISO  6  37  14  38  14  39  14  40  14  41  14  42  14
M  END
>  <minimizedAffinity>  (1) 
-5.69705582

>  <minimizedRMSD>  (1) 
0.166005507

$$$$
