
     RDKit          3D

 37 40  0  0  0  0  0  0  0  0999 V2000
   39.1910   25.4280   33.6610 C   0  0  0  0  0  0  0  0  0  0  0  0
   38.5010   26.6210   33.7340 C   0  0  0  0  0  0  0  0  0  0  0  0
   37.3590   26.7320   33.0090 C   0  0  0  0  0  0  0  0  0  0  0  0
   36.9700   25.6480   32.2570 C   0  0  0  0  0  0  0  0  0  0  0  0
   38.2990   24.3740   32.5810 S   0  0  0  0  0  0  0  0  0  0  0  0
   40.7070   23.9730   35.0750 C   0  0  0  0  0  0  0  0  0  0  0  0
   40.4390   25.1400   34.3630 C   0  0  0  0  0  0  0  0  0  0  0  0
   41.3970   26.1690   34.3000 C   0  0  0  0  0  0  0  0  0  0  0  0
   42.5540   25.9250   34.9720 N   0  0  0  0  0  0  0  0  0  0  0  0
   42.7940   24.7780   35.6630 C   0  0  0  0  0  0  0  0  0  0  0  0
   41.8620   23.8280   35.6970 N   0  0  0  0  0  0  0  0  0  0  0  0
   44.0890   24.6740   36.3470 C   0  0  0  0  0  0  0  0  0  0  0  0
   45.0810   24.0530   35.6640 C   0  0  0  0  0  0  0  0  0  0  0  0
   46.5330   24.1200   36.8520 S   0  0  0  0  0  0  0  0  0  0  0  0
   45.4190   25.0380   38.1150 C   0  0  0  0  0  0  0  0  0  0  0  0
   44.4800   25.0710   37.5180 N   0  0  0  0  0  0  0  0  0  0  0  0
   45.8880   25.4540   39.3870 N   0  0  0  0  0  0  0  0  0  0  0  0
   36.6000   28.0040   33.0500 C   0  0  0  0  0  0  0  0  0  0  0  0
   36.1000   28.5260   34.2240 C   0  0  0  0  0  0  0  0  0  0  0  0
   35.3880   29.6870   34.3550 C   0  0  0  0  0  0  0  0  0  0  0  0
   35.1540   30.3830   33.2310 N   0  0  0  0  0  0  0  0  0  0  0  0
   35.6330   29.8870   32.0980 C   0  0  0  0  0  0  0  0  0  0  0  0
   36.3140   28.7620   32.0290 N   0  0  0  0  0  0  0  0  0  0  0  0
   35.8900   25.3450   31.3960 C   0  0  0  0  0  0  0  0  0  0  0  0
   35.1880   24.3300   31.5830 O   0  0  0  0  0  0  0  0  0  0  0  0
   35.5510   26.1750   30.2830 N   0  0  0  0  0  0  0  0  0  0  0  0
   38.8635   27.4518   34.3572 H   0  0  0  0  0  0  0  0  0  0  0  0
   39.9550   23.1714   35.1189 H   0  0  0  0  0  0  0  0  0  0  0  0
   41.2225   27.1037   33.7469 H   0  0  0  0  0  0  0  0  0  0  0  0
   45.0443   23.6149   34.6557 H   0  0  0  0  0  0  0  0  0  0  0  0
   45.2545   25.9445   40.0343 H   0  0  0  0  0  0  0  0  0  0  0  0
   46.8621   25.2657   39.6636 H   0  0  0  0  0  0  0  0  0  0  0  0
   36.2919   27.9541   35.1438 H   0  0  0  0  0  0  0  0  0  0  0  0
   35.0249   30.0334   35.3339 H   0  0  0  0  0  0  0  0  0  0  0  0
   35.4519   30.4446   31.1672 H   0  0  0  0  0  0  0  0  0  0  0  0
   36.1006   27.0238   30.0873 H   0  0  0  0  0  0  0  0  0  0  0  0
   34.7570   25.9244   29.6766 H   0  0  0  0  0  0  0  0  0  0  0  0
  1  2  2  0
  1  7  1  0
  3 18  1  0
  3  2  1  0
  4  5  1  0
  4  3  2  0
  5  1  1  0
  6 11  2  0
  7  6  1  0
  8  7  2  0
  8  9  1  0
  9 10  2  0
 10 11  1  0
 10 12  1  0
 12 16  1  0
 13 12  2  0
 13 14  1  0
 14 15  1  0
 15 17  1  0
 16 15  2  0
 18 19  2  0
 19 20  1  0
 21 20  2  0
 22 21  1  0
 23 22  2  0
 23 18  1  0
 24 25  2  0
 24  4  1  0
 26 24  1  0
  2 27  1  0
  6 28  1  0
  8 29  1  0
 13 30  1  0
 17 31  1  0
 17 32  1  0
 19 33  1  0
 20 34  1  0
 22 35  1  0
 26 36  1  0
 26 37  1  0
M  ISO  7  27  14  28  14  29  14  30  14  33  14  34  14  35  14
M  END
>  <minimizedAffinity>  (1) 
-5.72733259

>  <minimizedRMSD>  (1) 
3.99580288

$$$$
