
     RDKit          3D

 32 35  0  0  0  0  0  0  0  0999 V2000
   40.5420   21.9640   37.2850 O   0  0  0  0  0  0  0  0  0  0  0  0
   41.8170   22.1040   36.7810 C   0  0  0  0  0  0  0  0  0  0  0  0
   42.3670   23.2370   36.2160 C   0  0  0  0  0  0  0  0  0  0  0  0
   43.6320   23.0190   35.8300 N   0  0  0  0  0  0  0  0  0  0  0  0
   43.9670   21.7420   36.1230 C   0  0  0  0  0  0  0  0  0  0  0  0
   45.1330   21.0240   35.9340 C   0  0  0  0  0  0  0  0  0  0  0  0
   45.1830   19.6870   36.3480 C   0  0  0  0  0  0  0  0  0  0  0  0
   44.0600   19.1070   36.9400 C   0  0  0  0  0  0  0  0  0  0  0  0
   42.9050   19.8520   37.1160 C   0  0  0  0  0  0  0  0  0  0  0  0
   42.8520   21.1880   36.7040 C   0  0  0  0  0  0  0  0  0  0  0  0
   39.5830   22.9330   37.3060 C   0  0  0  0  0  0  0  0  0  0  0  0
   39.0130   23.2300   38.5450 C   0  0  0  0  0  0  0  0  0  0  0  0
   38.0280   24.2210   38.5860 C   0  0  0  0  0  0  0  0  0  0  0  0
   37.6750   24.8390   37.4430 N   0  0  0  0  0  0  0  0  0  0  0  0
   38.2490   24.5260   36.2560 C   0  0  0  0  0  0  0  0  0  0  0  0
   39.1880   23.5850   36.2010 N   0  0  0  0  0  0  0  0  0  0  0  0
   37.9190   25.1510   34.9790 C   0  0  0  0  0  0  0  0  0  0  0  0
   37.3820   26.4420   35.0310 C   0  0  0  0  0  0  0  0  0  0  0  0
   37.1520   26.8240   33.7090 C   0  0  0  0  0  0  0  0  0  0  0  0
   37.5390   25.7970   32.9290 N   0  0  0  0  0  0  0  0  0  0  0  0
   38.0010   24.7850   33.6790 N   0  0  0  0  0  0  0  0  0  0  0  0
   41.8367   24.1935   36.0980 H   0  0  0  0  0  0  0  0  0  0  0  0
   44.2490   23.7119   35.3827 H   0  0  0  0  0  0  0  0  0  0  0  0
   46.0090   21.4960   35.4652 H   0  0  0  0  0  0  0  0  0  0  0  0
   46.1013   19.0979   36.2075 H   0  0  0  0  0  0  0  0  0  0  0  0
   44.0919   18.0573   37.2672 H   0  0  0  0  0  0  0  0  0  0  0  0
   42.0231   19.3895   37.5832 H   0  0  0  0  0  0  0  0  0  0  0  0
   39.3280   22.7025   39.4575 H   0  0  0  0  0  0  0  0  0  0  0  0
   37.5483   24.4920   39.5381 H   0  0  0  0  0  0  0  0  0  0  0  0
   37.1812   27.0371   35.9341 H   0  0  0  0  0  0  0  0  0  0  0  0
   36.7337   27.7827   33.3684 H   0  0  0  0  0  0  0  0  0  0  0  0
   37.4876   25.7893   31.9003 H   0  0  0  0  0  0  0  0  0  0  0  0
  1 11  1  0
  2  1  1  0
  3  2  2  0
  4  5  1  0
  4  3  1  0
  5 10  2  0
  6  5  1  0
  6  7  2  0
  7  8  1  0
  8  9  2  0
 10  2  1  0
 10  9  1  0
 11 12  2  0
 12 13  1  0
 14 13  2  0
 15 14  1  0
 16 15  2  0
 16 11  1  0
 17 18  1  0
 17 15  1  0
 19 18  2  0
 20 21  1  0
 20 19  1  0
 21 17  2  0
  3 22  1  0
  4 23  1  0
  6 24  1  0
  7 25  1  0
  8 26  1  0
  9 27  1  0
 12 28  1  0
 13 29  1  0
 18 30  1  0
 19 31  1  0
 20 32  1  0
M  ISO  8  22  14  23   9  24  14  25  14  26  14  27  14  28  14  29  14
M  ISO  3  30  14  31  14  32   9
M  END
>  <minimizedAffinity>  (1) 
-5.0628624

>  <minimizedRMSD>  (1) 
1.17825544

$$$$
