
     RDKit          3D

 25 27  0  0  0  0  0  0  0  0999 V2000
   43.6590   19.7220   37.1020 C   0  0  0  0  0  0  0  0  0  0  0  0
   42.4750   20.4420   37.3010 C   0  0  0  0  0  0  0  0  0  0  0  0
   41.9960   21.2190   36.2610 C   0  0  0  0  0  0  0  0  0  0  0  0
   42.7180   21.2340   35.0890 N   0  0  0  0  0  0  0  0  0  0  0  0
   43.8460   20.5330   34.9310 C   0  0  0  0  0  0  0  0  0  0  0  0
   44.3200   19.7650   35.9600 N   0  0  0  0  0  0  0  0  0  0  0  0
   44.4870   20.6590   33.6290 C   0  0  0  0  0  0  0  0  0  0  0  0
   44.2590   21.8290   32.9190 C   0  0  0  0  0  0  0  0  0  0  0  0
   44.9680   21.7170   31.7220 C   0  0  0  0  0  0  0  0  0  0  0  0
   45.5860   20.5170   31.7430 N   0  0  0  0  0  0  0  0  0  0  0  0
   45.3050   19.8910   32.8640 N   0  0  0  0  0  0  0  0  0  0  0  0
   40.7710   21.9960   36.3950 C   0  0  0  0  0  0  0  0  0  0  0  0
   39.8500   22.4740   35.5180 N   0  0  0  0  0  0  0  0  0  0  0  0
   38.9290   23.1190   36.1750 O   0  0  0  0  0  0  0  0  0  0  0  0
   39.1970   23.0940   37.4740 C   0  0  0  0  0  0  0  0  0  0  0  0
   40.3320   22.4010   37.6010 N   0  0  0  0  0  0  0  0  0  0  0  0
   38.4220   23.6960   38.5650 C   0  0  0  0  0  0  0  0  0  0  0  0
   39.2610   23.8730   39.6660 F   0  0  0  0  0  0  0  0  0  0  0  0
   37.3740   22.8910   38.9550 F   0  0  0  0  0  0  0  0  0  0  0  0
   37.9620   24.9380   38.1920 F   0  0  0  0  0  0  0  0  0  0  0  0
   44.0504   19.1018   37.9218 H   0  0  0  0  0  0  0  0  0  0  0  0
   41.9388   20.3913   38.2602 H   0  0  0  0  0  0  0  0  0  0  0  0
   43.6394   22.6801   33.2378 H   0  0  0  0  0  0  0  0  0  0  0  0
   45.0143   22.4638   30.9157 H   0  0  0  0  0  0  0  0  0  0  0  0
   46.1875   20.1474   30.9930 H   0  0  0  0  0  0  0  0  0  0  0  0
  1  2  2  0
  3 12  1  0
  3  2  1  0
  4  3  2  0
  5  4  1  0
  5  6  2  0
  6  1  1  0
  7  5  1  0
  8  7  1  0
  9 10  1  0
  9  8  2  0
 10 11  1  0
 11  7  2  0
 12 16  1  0
 13 14  1  0
 13 12  2  0
 14 15  1  0
 15 16  2  0
 15 17  1  0
 17 19  1  0
 17 18  1  0
 20 17  1  0
  1 21  1  0
  2 22  1  0
  8 23  1  0
  9 24  1  0
 10 25  1  0
M  ISO  5  21  14  22  14  23  14  24  14  25   9
M  END
>  <minimizedAffinity>  (1) 
-4.08851624

>  <minimizedRMSD>  (1) 
0.221703723

$$$$
