
     RDKit          3D

 45 49  0  0  0  0  0  0  0  0999 V2000
   37.9860   25.5180   34.8000 C   0  0  0  0  0  0  0  0  0  0  0  0
   38.0740   24.1820   38.2690 C   0  0  0  0  0  0  0  0  0  0  0  0
   38.9930   23.1460   38.1360 C   0  0  0  0  0  0  0  0  0  0  0  0
   39.5650   22.9180   36.8810 C   0  0  0  0  0  0  0  0  0  0  0  0
   39.1990   23.7150   35.8500 N   0  0  0  0  0  0  0  0  0  0  0  0
   38.2960   24.7220   36.0140 C   0  0  0  0  0  0  0  0  0  0  0  0
   37.7470   24.9480   37.2030 N   0  0  0  0  0  0  0  0  0  0  0  0
   40.5320   21.8260   36.7390 C   0  0  0  0  0  0  0  0  0  0  0  0
   41.8850   22.1970   37.2600 C   0  0  0  0  0  0  0  0  0  0  0  0
   42.7800   23.0840   36.4950 C   0  0  0  0  0  0  0  0  0  0  0  0
   43.0380   21.6020   36.4290 C   0  0  0  0  0  0  0  0  0  0  0  0
   37.2300   26.7570   35.1600 C   0  0  0  0  0  0  0  0  0  0  0  0
   36.9520   27.5900   33.9470 C   0  0  0  0  0  0  0  0  0  0  0  0
   35.9800   28.5090   33.8740 N   0  0  0  0  0  0  0  0  0  0  0  0
   35.9890   29.0640   32.6930 O   0  0  0  0  0  0  0  0  0  0  0  0
   36.9440   28.5410   31.9670 C   0  0  0  0  0  0  0  0  0  0  0  0
   37.5590   27.6140   32.7360 N   0  0  0  0  0  0  0  0  0  0  0  0
   37.3670   28.8040   30.6080 C   0  0  0  0  0  0  0  0  0  0  0  0
   38.0520   28.0320   29.7040 C   0  0  0  0  0  0  0  0  0  0  0  0
   38.1980   28.7740   28.5340 C   0  0  0  0  0  0  0  0  0  0  0  0
   37.5700   29.9930   28.8070 C   0  0  0  0  0  0  0  0  0  0  0  0
   37.1030   29.9660   30.0210 O   0  0  0  0  0  0  0  0  0  0  0  0
   37.4660   31.1010   27.8710 C   0  0  0  0  0  0  0  0  0  0  0  0
   36.7800   32.2720   28.1160 C   0  0  0  0  0  0  0  0  0  0  0  0
   36.9120   33.0750   26.9940 C   0  0  0  0  0  0  0  0  0  0  0  0
   37.6690   32.3680   26.1100 N   0  0  0  0  0  0  0  0  0  0  0  0
   37.9830   31.2080   26.6510 N   0  0  0  0  0  0  0  0  0  0  0  0
   37.3773   24.9097   34.1149 H   0  0  0  0  0  0  0  0  0  0  0  0
   38.9304   25.8076   34.3160 H   0  0  0  0  0  0  0  0  0  0  0  0
   37.6105   24.3795   39.2468 H   0  0  0  0  0  0  0  0  0  0  0  0
   39.2635   22.5202   38.9992 H   0  0  0  0  0  0  0  0  0  0  0  0
   40.1646   20.9527   37.2978 H   0  0  0  0  0  0  0  0  0  0  0  0
   40.6330   21.6020   35.6668 H   0  0  0  0  0  0  0  0  0  0  0  0
   41.5489   22.2211   38.3071 H   0  0  0  0  0  0  0  0  0  0  0  0
   42.3966   23.6091   35.6077 H   0  0  0  0  0  0  0  0  0  0  0  0
   43.3972   23.9564   36.7559 H   0  0  0  0  0  0  0  0  0  0  0  0
   42.8266   21.0416   35.5064 H   0  0  0  0  0  0  0  0  0  0  0  0
   43.8937   20.9394   36.6257 H   0  0  0  0  0  0  0  0  0  0  0  0
   36.2756   26.4726   35.6271 H   0  0  0  0  0  0  0  0  0  0  0  0
   37.8406   27.3487   35.8579 H   0  0  0  0  0  0  0  0  0  0  0  0
   38.4203   27.0094   29.8730 H   0  0  0  0  0  0  0  0  0  0  0  0
   38.6966   28.4686   27.6023 H   0  0  0  0  0  0  0  0  0  0  0  0
   36.2287   32.5229   29.0342 H   0  0  0  0  0  0  0  0  0  0  0  0
   36.4904   34.0804   26.8473 H   0  0  0  0  0  0  0  0  0  0  0  0
   37.9502   32.6875   25.1721 H   0  0  0  0  0  0  0  0  0  0  0  0
  1 12  1  0
  1  6  1  0
  3  2  2  0
  4  3  1  0
  5  6  1  0
  5  4  2  0
  6  7  2  0
  7  2  1  0
  8  4  1  0
  8  9  1  0
 10  9  1  0
 11 10  1  0
 11  9  1  0
 13 12  1  0
 14 13  2  0
 15 14  1  0
 16 15  1  0
 16 17  2  0
 17 13  1  0
 18 16  1  0
 19 18  2  0
 20 21  2  0
 20 19  1  0
 21 22  1  0
 22 18  1  0
 23 24  1  0
 23 21  1  0
 25 24  2  0
 26 27  1  0
 26 25  1  0
 27 23  2  0
  1 28  1  0
  1 29  1  0
  2 30  1  0
  3 31  1  0
  8 32  1  0
  8 33  1  0
  9 34  1  0
 10 35  1  0
 10 36  1  0
 11 37  1  0
 11 38  1  0
 12 39  1  0
 12 40  1  0
 19 41  1  0
 20 42  1  0
 24 43  1  0
 25 44  1  0
 26 45  1  0
M  ISO  8  28   8  29   8  30  14  31  14  32   8  33   8  34  13  35  13
M  ISO  8  36  13  37  13  38  13  39   8  40   8  41  14  42  14  43  14
M  ISO  2  44  14  45   9
M  END
>  <minimizedAffinity>  (1) 
-5.16362238

>  <minimizedRMSD>  (1) 
1.13425446

$$$$
