
     RDKit          3D

 32 34  0  0  1  0  0  0  0  0999 V2000
   37.8750   24.8360   33.8730 N   0  0  0  0  0  0  0  0  0  0  0  0
   37.6200   23.6320   33.1350 C   0  0  0  0  0  0  0  0  0  0  0  0
   36.7480   24.0610   31.9790 C   0  0  0  0  0  0  0  0  0  0  0  0
   36.6420   25.5880   32.1280 C   0  0  0  0  0  0  0  0  0  0  0  0
   37.9750   25.8300   32.8490 C   0  0  1  0  0  0  0  0  0  0  0  0
   39.1540   24.7860   34.5610 C   0  0  0  0  0  0  0  0  0  0  0  0
   37.9540   24.2200   38.0920 C   0  0  0  0  0  0  0  0  0  0  0  0
   38.0540   24.7180   36.8000 C   0  0  0  0  0  0  0  0  0  0  0  0
   39.0440   24.2560   35.9390 C   0  0  0  0  0  0  0  0  0  0  0  0
   39.8990   23.3030   36.4150 N   0  0  0  0  0  0  0  0  0  0  0  0
   39.7890   22.8250   37.6820 C   0  0  0  0  0  0  0  0  0  0  0  0
   38.8250   23.2800   38.5080 N   0  0  0  0  0  0  0  0  0  0  0  0
   37.8810   27.2370   33.3790 C   0  0  0  0  0  0  0  0  0  0  0  0
   36.8370   27.3750   34.5080 C   0  0  0  0  0  0  0  0  0  0  0  0
   36.7040   28.0800   33.1750 C   0  0  0  0  0  0  0  0  0  0  0  0
   38.5612   23.1961   32.7687 H   0  0  0  0  0  0  0  0  0  0  0  0
   37.1368   22.8618   33.7541 H   0  0  0  0  0  0  0  0  0  0  0  0
   35.7547   23.5932   32.0458 H   0  0  0  0  0  0  0  0  0  0  0  0
   37.1641   23.7620   31.0056 H   0  0  0  0  0  0  0  0  0  0  0  0
   36.5968   26.0987   31.1548 H   0  0  0  0  0  0  0  0  0  0  0  0
   35.7430   25.9600   32.6413 H   0  0  0  0  0  0  0  0  0  0  0  0
   38.9171   25.7533   32.2863 H   0  0  0  0  0  0  0  0  0  0  0  0
   39.8356   24.1392   33.9891 H   0  0  0  0  0  0  0  0  0  0  0  0
   39.5324   25.8164   34.6318 H   0  0  0  0  0  0  0  0  0  0  0  0
   37.1706   24.5896   38.7701 H   0  0  0  0  0  0  0  0  0  0  0  0
   37.3445   25.4842   36.4543 H   0  0  0  0  0  0  0  0  0  0  0  0
   40.4936   22.0589   38.0378 H   0  0  0  0  0  0  0  0  0  0  0  0
   38.9473   27.4384   33.1987 H   0  0  0  0  0  0  0  0  0  0  0  0
   36.1759   26.5334   34.7623 H   0  0  0  0  0  0  0  0  0  0  0  0
   36.8467   27.6731   35.5668 H   0  0  0  0  0  0  0  0  0  0  0  0
   36.8208   29.1726   33.1245 H   0  0  0  0  0  0  0  0  0  0  0  0
   35.9169   28.1186   32.4075 H   0  0  0  0  0  0  0  0  0  0  0  0
  1  6  1  0
  2  1  1  0
  3  4  1  0
  3  2  1  0
  4  5  1  0
  5 13  1  0
  5  1  1  0
  6  9  1  0
  7 12  2  0
  8  7  1  0
  9 10  1  0
  9  8  2  0
 10 11  2  0
 11 12  1  0
 13 14  1  0
 15 13  1  0
 15 14  1  0
  2 16  1  0
  2 17  1  0
  3 18  1  0
  3 19  1  0
  4 20  1  0
  4 21  1  0
  5 22  1  6
  6 23  1  0
  6 24  1  0
  7 25  1  0
  8 26  1  0
 11 27  1  0
 13 28  1  0
 14 29  1  0
 14 30  1  0
 15 31  1  0
 15 32  1  0
M  ISO  8  16  13  17  13  18  13  19  13  20  13  21  13  22  13  23   8
M  ISO  8  24   8  25  14  26  14  27  14  28  13  29  13  30  13  31  13
M  ISO  1  32  13
M  END
>  <minimizedAffinity>  (1) 
-4.14608335

>  <minimizedRMSD>  (1) 
1.61181402

$$$$
