
     RDKit          3D

 42 46  0  0  0  0  0  0  0  0999 V2000
   37.6860   23.8260   33.5340 C   0  0  0  0  0  0  0  0  0  0  0  0
   37.2670   24.8490   32.6870 C   0  0  0  0  0  0  0  0  0  0  0  0
   36.7120   24.4660   31.4450 C   0  0  0  0  0  0  0  0  0  0  0  0
   36.6150   23.1560   31.1450 N   0  0  0  0  0  0  0  0  0  0  0  0
   37.0410   22.1970   32.0130 C   0  0  0  0  0  0  0  0  0  0  0  0
   37.5630   22.5340   33.1780 N   0  0  0  0  0  0  0  0  0  0  0  0
   36.9720   20.8070   31.7660 N   0  0  0  0  0  0  0  0  0  0  0  0
   38.0840   20.0270   31.8810 C   0  0  0  0  0  0  0  0  0  0  0  0
   37.9540   18.6640   31.6260 C   0  0  0  0  0  0  0  0  0  0  0  0
   36.7440   18.1000   31.2660 C   0  0  0  0  0  0  0  0  0  0  0  0
   36.6300   16.8690   31.0380 O   0  0  0  0  0  0  0  0  0  0  0  0
   35.6700   18.9090   31.1660 N   0  0  0  0  0  0  0  0  0  0  0  0
   35.7880   20.2330   31.4120 C   0  0  0  0  0  0  0  0  0  0  0  0
   34.8100   20.9970   31.3230 O   0  0  0  0  0  0  0  0  0  0  0  0
   38.2270   24.2010   34.7410 O   0  0  0  0  0  0  0  0  0  0  0  0
   39.1250   23.4750   35.4760 C   0  0  0  0  0  0  0  0  0  0  0  0
   38.8580   22.3580   36.2380 C   0  0  0  0  0  0  0  0  0  0  0  0
   39.9850   21.9000   36.8270 N   0  0  0  0  0  0  0  0  0  0  0  0
   41.0280   22.6910   36.4780 C   0  0  0  0  0  0  0  0  0  0  0  0
   42.3660   22.6780   36.7870 C   0  0  0  0  0  0  0  0  0  0  0  0
   43.2110   23.6330   36.2720 C   0  0  0  0  0  0  0  0  0  0  0  0
   42.6840   24.6130   35.4330 C   0  0  0  0  0  0  0  0  0  0  0  0
   41.3330   24.6320   35.1170 C   0  0  0  0  0  0  0  0  0  0  0  0
   40.5040   23.6580   35.6490 C   0  0  0  0  0  0  0  0  0  0  0  0
   40.7300   25.6690   34.2190 C   0  0  0  0  0  0  0  0  0  0  0  0
   40.2260   26.9480   34.8140 C   0  0  0  0  0  0  0  0  0  0  0  0
   41.4280   26.9500   33.9660 C   0  0  0  0  0  0  0  0  0  0  0  0
   37.3636   25.9071   32.9718 H   0  0  0  0  0  0  0  0  0  0  0  0
   36.3636   25.2278   30.7321 H   0  0  0  0  0  0  0  0  0  0  0  0
   39.0538   20.4606   32.1663 H   0  0  0  0  0  0  0  0  0  0  0  0
   38.8396   18.0174   31.7135 H   0  0  0  0  0  0  0  0  0  0  0  0
   34.7554   18.5164   30.9009 H   0  0  0  0  0  0  0  0  0  0  0  0
   37.8636   21.9016   36.3513 H   0  0  0  0  0  0  0  0  0  0  0  0
   40.0420   21.0778   37.4448 H   0  0  0  0  0  0  0  0  0  0  0  0
   42.7650   21.8976   37.4517 H   0  0  0  0  0  0  0  0  0  0  0  0
   44.2831   23.6235   36.5178 H   0  0  0  0  0  0  0  0  0  0  0  0
   43.3490   25.3831   35.0150 H   0  0  0  0  0  0  0  0  0  0  0  0
   40.3146   24.8752   33.5808 H   0  0  0  0  0  0  0  0  0  0  0  0
   39.2914   27.3960   34.4453 H   0  0  0  0  0  0  0  0  0  0  0  0
   39.9898   27.2940   35.8311 H   0  0  0  0  0  0  0  0  0  0  0  0
   42.4148   27.1336   34.4159 H   0  0  0  0  0  0  0  0  0  0  0  0
   41.7340   27.4969   33.0620 H   0  0  0  0  0  0  0  0  0  0  0  0
  1 15  1  0
  2  1  2  0
  3  2  1  0
  4  3  2  0
  4  5  1  0
  5  6  2  0
  6  1  1  0
  7  8  1  0
  7  5  1  0
  9  8  2  0
 10  9  1  0
 11 10  2  0
 12 10  1  0
 12 13  1  0
 13  7  1  0
 14 13  2  0
 15 16  1  0
 16 24  1  0
 16 17  2  0
 17 18  1  0
 19 20  2  0
 19 18  1  0
 21 20  1  0
 22 21  2  0
 23 22  1  0
 23 24  2  0
 24 19  1  0
 25 26  1  0
 25 23  1  0
 27 25  1  0
 27 26  1  0
  2 28  1  0
  3 29  1  0
  8 30  1  0
  9 31  1  0
 12 32  1  0
 17 33  1  0
 18 34  1  0
 20 35  1  0
 21 36  1  0
 22 37  1  0
 25 38  1  0
 26 39  1  0
 26 40  1  0
 27 41  1  0
 27 42  1  0
M  ISO  8  28  14  29  14  30  14  31  14  32   9  33  14  34   9  35  14
M  ISO  7  36  14  37  14  38  13  39  13  40  13  41  13  42  13
M  END
>  <minimizedAffinity>  (1) 
-6.17277861

>  <minimizedRMSD>  (1) 
4.93868113

$$$$
