
     RDKit          3D

 45 49  0  0  0  0  0  0  0  0999 V2000
   38.2390   25.3990   34.9700 C   0  0  0  0  0  0  0  0  0  0  0  0
   38.0110   24.1520   38.4690 C   0  0  0  0  0  0  0  0  0  0  0  0
   39.0070   23.1760   38.4790 C   0  0  0  0  0  0  0  0  0  0  0  0
   39.7240   22.9680   37.3090 C   0  0  0  0  0  0  0  0  0  0  0  0
   39.4380   23.7090   36.2110 N   0  0  0  0  0  0  0  0  0  0  0  0
   38.4520   24.6590   36.2390 C   0  0  0  0  0  0  0  0  0  0  0  0
   37.7520   24.8750   37.3520 N   0  0  0  0  0  0  0  0  0  0  0  0
   40.7690   21.9440   37.3220 C   0  0  0  0  0  0  0  0  0  0  0  0
   42.0180   22.3460   36.6430 C   0  0  0  0  0  0  0  0  0  0  0  0
   42.4440   21.8270   35.3230 C   0  0  0  0  0  0  0  0  0  0  0  0
   43.0670   21.2160   36.5610 C   0  0  0  0  0  0  0  0  0  0  0  0
   37.2850   26.5490   35.2050 C   0  0  0  0  0  0  0  0  0  0  0  0
   37.0990   27.3500   33.9520 C   0  0  0  0  0  0  0  0  0  0  0  0
   36.1620   28.2950   33.7870 N   0  0  0  0  0  0  0  0  0  0  0  0
   36.2660   28.8000   32.5950 O   0  0  0  0  0  0  0  0  0  0  0  0
   37.2380   28.2310   31.9460 C   0  0  0  0  0  0  0  0  0  0  0  0
   37.7760   27.3180   32.7790 N   0  0  0  0  0  0  0  0  0  0  0  0
   37.7490   28.4330   30.6130 C   0  0  0  0  0  0  0  0  0  0  0  0
   38.5790   27.6550   29.8230 C   0  0  0  0  0  0  0  0  0  0  0  0
   38.7700   28.3020   28.6120 C   0  0  0  0  0  0  0  0  0  0  0  0
   38.0210   29.4720   28.7420 C   0  0  0  0  0  0  0  0  0  0  0  0
   37.4440   29.5170   29.9080 O   0  0  0  0  0  0  0  0  0  0  0  0
   37.9690   30.4590   27.6220 C   0  0  0  0  0  0  0  0  0  0  0  0
   38.6720   31.8310   27.8850 C   0  0  0  0  0  0  0  0  0  0  0  0
   37.1970   31.7200   27.7910 C   0  0  0  0  0  0  0  0  0  0  0  0
   37.8138   24.7191   34.2171 H   0  0  0  0  0  0  0  0  0  0  0  0
   39.2018   25.7916   34.6110 H   0  0  0  0  0  0  0  0  0  0  0  0
   37.4263   24.3381   39.3820 H   0  0  0  0  0  0  0  0  0  0  0  0
   39.2177   22.5896   39.3855 H   0  0  0  0  0  0  0  0  0  0  0  0
   41.0066   21.7066   38.3695 H   0  0  0  0  0  0  0  0  0  0  0  0
   40.3722   21.0798   36.7691 H   0  0  0  0  0  0  0  0  0  0  0  0
   41.9253   23.3780   37.0124 H   0  0  0  0  0  0  0  0  0  0  0  0
   43.0550   22.4585   34.6613 H   0  0  0  0  0  0  0  0  0  0  0  0
   41.9102   21.4174   34.4528 H   0  0  0  0  0  0  0  0  0  0  0  0
   42.8060   20.1922   36.8669 H   0  0  0  0  0  0  0  0  0  0  0  0
   44.0893   21.0586   36.9352 H   0  0  0  0  0  0  0  0  0  0  0  0
   36.3114   26.1502   35.5261 H   0  0  0  0  0  0  0  0  0  0  0  0
   37.7058   27.2032   35.9828 H   0  0  0  0  0  0  0  0  0  0  0  0
   39.0139   26.6859   30.1087 H   0  0  0  0  0  0  0  0  0  0  0  0
   39.3703   27.9711   27.7517 H   0  0  0  0  0  0  0  0  0  0  0  0
   37.9945   29.6695   26.8565 H   0  0  0  0  0  0  0  0  0  0  0  0
   39.1522   32.0310   28.8542 H   0  0  0  0  0  0  0  0  0  0  0  0
   39.4500   32.4255   27.3837 H   0  0  0  0  0  0  0  0  0  0  0  0
   36.6769   32.1549   26.9248 H   0  0  0  0  0  0  0  0  0  0  0  0
   36.3722   32.0187   28.4546 H   0  0  0  0  0  0  0  0  0  0  0  0
  1 12  1  0
  1  6  1  0
  2  3  2  0
  4  8  1  0
  4  3  1  0
  5  6  1  0
  5  4  2  0
  6  7  2  0
  7  2  1  0
  9  8  1  0
 10 11  1  0
 10  9  1  0
 11  9  1  0
 13 12  1  0
 14 13  2  0
 15 14  1  0
 16 15  1  0
 16 17  2  0
 17 13  1  0
 18 16  1  0
 19 18  2  0
 20 21  2  0
 20 19  1  0
 21 22  1  0
 22 18  1  0
 23 25  1  0
 23 24  1  0
 23 21  1  0
 25 24  1  0
  1 26  1  0
  1 27  1  0
  2 28  1  0
  3 29  1  0
  8 30  1  0
  8 31  1  0
  9 32  1  0
 10 33  1  0
 10 34  1  0
 11 35  1  0
 11 36  1  0
 12 37  1  0
 12 38  1  0
 19 39  1  0
 20 40  1  0
 23 41  1  0
 24 42  1  0
 24 43  1  0
 25 44  1  0
 25 45  1  0
M  ISO  8  26   8  27   8  28  14  29  14  30   8  31   8  32  13  33  13
M  ISO  8  34  13  35  13  36  13  37   8  38   8  39  14  40  14  41  13
M  ISO  4  42  13  43  13  44  13  45  13
M  END
>  <minimizedAffinity>  (1) 
-4.96958208

>  <minimizedRMSD>  (1) 
0.614255428

$$$$
