
     RDKit          3D

 31 34  0  0  1  0  0  0  0  0999 V2000
   38.0620   23.6120   34.6310 C   0  0  0  0  0  0  0  0  0  0  0  0
   38.2690   24.7530   33.8710 C   0  0  0  0  0  0  0  0  0  0  0  0
   37.7930   24.4130   32.6400 N   0  0  0  0  0  0  0  0  0  0  0  0
   37.3500   23.1660   32.7010 C   0  0  0  0  0  0  0  0  0  0  0  0
   37.4970   22.6300   33.9220 N   0  0  0  0  0  0  0  0  0  0  0  0
   38.4140   23.4810   36.0370 C   0  0  0  0  0  0  0  0  0  0  0  0
   39.6190   22.8790   36.4180 C   0  0  0  0  0  0  0  0  0  0  0  0
   39.9160   22.7740   37.7980 C   0  0  0  0  0  0  0  0  0  0  0  0
   39.0160   23.2640   38.6620 N   0  0  0  0  0  0  0  0  0  0  0  0
   37.8580   23.8430   38.2820 C   0  0  0  0  0  0  0  0  0  0  0  0
   37.5650   23.9470   36.9710 N   0  0  0  0  0  0  0  0  0  0  0  0
   37.1070   21.2980   34.2770 C   0  0  1  0  0  0  0  0  0  0  0  0
   35.9920   21.0040   35.1630 C   0  0  0  0  0  0  0  0  0  0  0  0
   35.7500   20.9160   33.6800 C   0  0  2  0  0  0  0  0  0  0  0  0
   35.5500   19.5460   33.1420 C   0  0  0  0  0  0  0  0  0  0  0  0
   34.5240   19.3620   32.0210 C   0  0  0  0  0  0  0  0  0  0  0  0
   35.9940   19.1360   31.7950 C   0  0  0  0  0  0  0  0  0  0  0  0
   38.7131   25.7084   34.1873 H   0  0  0  0  0  0  0  0  0  0  0  0
   36.9109   22.6302   31.8465 H   0  0  0  0  0  0  0  0  0  0  0  0
   40.3197   22.4959   35.6615 H   0  0  0  0  0  0  0  0  0  0  0  0
   40.8492   22.3084   38.1478 H   0  0  0  0  0  0  0  0  0  0  0  0
   37.1575   24.2277   39.0378 H   0  0  0  0  0  0  0  0  0  0  0  0
   38.1463   20.9382   34.2984 H   0  0  0  0  0  0  0  0  0  0  0  0
   36.0054   20.0848   35.7671 H   0  0  0  0  0  0  0  0  0  0  0  0
   35.5055   21.5485   35.9857 H   0  0  0  0  0  0  0  0  0  0  0  0
   35.0788   21.3679   32.9348 H   0  0  0  0  0  0  0  0  0  0  0  0
   35.7338   19.1355   34.1458 H   0  0  0  0  0  0  0  0  0  0  0  0
   33.8281   18.5103   32.0400 H   0  0  0  0  0  0  0  0  0  0  0  0
   33.7417   19.9820   31.5589 H   0  0  0  0  0  0  0  0  0  0  0  0
   36.3697   18.1150   31.6323 H   0  0  0  0  0  0  0  0  0  0  0  0
   36.7290   19.5287   31.0770 H   0  0  0  0  0  0  0  0  0  0  0  0
  1  6  1  0
  2  1  2  0
  3  4  2  0
  3  2  1  0
  4  5  1  0
  5 12  1  0
  5  1  1  0
  6  7  2  0
  6 11  1  0
  7  8  1  0
  8  9  2  0
 10  9  1  0
 11 10  2  0
 12 13  1  0
 14 12  1  0
 14 13  1  0
 15 14  1  0
 16 15  1  0
 17 16  1  0
 17 15  1  0
  2 18  1  0
  4 19  1  0
  7 20  1  0
  8 21  1  0
 10 22  1  0
 12 23  1  1
 13 24  1  0
 13 25  1  0
 14 26  1  6
 15 27  1  0
 16 28  1  0
 16 29  1  0
 17 30  1  0
 17 31  1  0
M  ISO  8  18  14  19  14  20  14  21  14  22  14  23  13  24  13  25  13
M  ISO  6  26  13  27  13  28  13  29  13  30  13  31  13
M  END
>  <minimizedAffinity>  (1) 
-4.67256546

>  <minimizedRMSD>  (1) 
0.226293564

$$$$
