
     RDKit          3D

 42 44  0  0  1  0  0  0  0  0999 V2000
   37.4710   26.8220   34.7220 C   0  0  0  0  0  0  0  0  0  0  0  0
   36.8650   26.7810   33.4400 N   0  0  0  0  0  0  0  0  0  0  0  0
   36.6890   25.8330   32.4850 C   0  0  0  0  0  0  0  0  0  0  0  0
   36.0090   26.2970   31.3850 C   0  0  0  0  0  0  0  0  0  0  0  0
   35.7520   27.5820   31.6650 N   0  0  0  0  0  0  0  0  0  0  0  0
   36.2610   27.8700   32.8880 C   0  0  0  0  0  0  0  0  0  0  0  0
   36.0680   29.2650   33.3680 C   0  0  0  0  0  0  0  0  0  0  0  0
   35.9530   30.2710   32.2560 C   0  0  0  0  0  0  0  0  0  0  0  0
   35.2830   31.5240   32.7700 C   0  0  0  0  0  0  0  0  0  0  0  0
   35.6420   31.7620   34.2200 C   0  0  0  0  0  0  0  0  0  0  0  0
   35.0080   30.6610   35.0520 C   0  0  0  0  0  0  0  0  0  0  0  0
   34.8310   29.3960   34.2310 C   0  0  0  0  0  0  0  0  0  0  0  0
   38.2930   25.6020   35.0130 C   0  0  1  0  0  0  0  0  0  0  0  0
   42.0380   25.0760   34.8080 C   0  0  0  0  0  0  0  0  0  0  0  0
   40.6920   24.7940   35.0850 C   0  0  0  0  0  0  0  0  0  0  0  0
   39.7360   25.8050   34.7470 C   0  0  0  0  0  0  0  0  0  0  0  0
   40.1820   26.9740   34.1800 N   0  0  0  0  0  0  0  0  0  0  0  0
   41.4670   27.1990   33.9350 C   0  0  0  0  0  0  0  0  0  0  0  0
   42.4080   26.2390   34.2510 N   0  0  0  0  0  0  0  0  0  0  0  0
   38.0530   25.1350   36.4280 C   0  0  0  0  0  0  0  0  0  0  0  0
   36.6804   26.9032   35.4825 H   0  0  0  0  0  0  0  0  0  0  0  0
   38.1462   27.6902   34.7427 H   0  0  0  0  0  0  0  0  0  0  0  0
   37.0532   24.7996   32.5816 H   0  0  0  0  0  0  0  0  0  0  0  0
   35.7365   25.7385   30.4774 H   0  0  0  0  0  0  0  0  0  0  0  0
   36.9747   29.4812   33.9520 H   0  0  0  0  0  0  0  0  0  0  0  0
   35.3534   29.8450   31.4381 H   0  0  0  0  0  0  0  0  0  0  0  0
   36.9581   30.5211   31.8857 H   0  0  0  0  0  0  0  0  0  0  0  0
   35.6147   32.3839   32.1694 H   0  0  0  0  0  0  0  0  0  0  0  0
   34.1927   31.4022   32.6896 H   0  0  0  0  0  0  0  0  0  0  0  0
   36.7350   31.7385   34.3418 H   0  0  0  0  0  0  0  0  0  0  0  0
   35.2732   32.7456   34.5465 H   0  0  0  0  0  0  0  0  0  0  0  0
   35.6551   30.4432   35.9144 H   0  0  0  0  0  0  0  0  0  0  0  0
   34.0185   31.0017   35.3909 H   0  0  0  0  0  0  0  0  0  0  0  0
   33.9340   29.4757   33.5993 H   0  0  0  0  0  0  0  0  0  0  0  0
   34.7041   28.5164   34.8792 H   0  0  0  0  0  0  0  0  0  0  0  0
   37.9647   24.8136   34.3197 H   0  0  0  0  0  0  0  0  0  0  0  0
   42.8063   24.3277   35.0527 H   0  0  0  0  0  0  0  0  0  0  0  0
   40.3854   23.8409   35.5405 H   0  0  0  0  0  0  0  0  0  0  0  0
   41.7822   28.1498   33.4804 H   0  0  0  0  0  0  0  0  0  0  0  0
   38.4391   25.8863   37.1326 H   0  0  0  0  0  0  0  0  0  0  0  0
   36.9736   24.9997   36.5914 H   0  0  0  0  0  0  0  0  0  0  0  0
   38.5713   24.1786   36.5914 H   0  0  0  0  0  0  0  0  0  0  0  0
  1 13  1  0
  2  1  1  0
  3  2  1  0
  4  5  1  0
  4  3  2  0
  5  6  2  0
  6  7  1  0
  6  2  1  0
  7 12  1  0
  8  9  1  0
  8  7  1  0
  9 10  1  0
 10 11  1  0
 12 11  1  0
 13 20  1  0
 14 15  2  0
 16 13  1  0
 16 15  1  0
 17 16  2  0
 18 17  1  0
 18 19  2  0
 19 14  1  0
  1 21  1  0
  1 22  1  0
  3 23  1  0
  4 24  1  0
  7 25  1  0
  8 26  1  0
  8 27  1  0
  9 28  1  0
  9 29  1  0
 10 30  1  0
 10 31  1  0
 11 32  1  0
 11 33  1  0
 12 34  1  0
 12 35  1  0
 13 36  1  6
 14 37  1  0
 15 38  1  0
 18 39  1  0
 20 40  1  0
 20 41  1  0
 20 42  1  0
M  ISO  8  21   8  22   8  23  14  24  14  25  13  26  13  27  13  28  13
M  ISO  8  29  13  30  13  31  13  32  13  33  13  34  13  35  13  36   8
M  ISO  6  37  14  38  14  39  14  40   8  41   8  42   8
M  END
>  <minimizedAffinity>  (1) 
-4.45798254

>  <minimizedRMSD>  (1) 
3.20986962

$$$$
