
     RDKit          3D

 55 59  0  0  1  0  0  0  0  0999 V2000
   37.3880   21.5040   32.1530 C   0  0  2  0  0  0  0  0  0  0  0  0
   36.3370   20.4070   31.9520 C   0  0  0  0  0  0  0  0  0  0  0  0
   35.0670   21.2490   32.0990 C   0  0  0  0  0  0  0  0  0  0  0  0
   35.5020   22.7050   31.9100 C   0  0  0  0  0  0  0  0  0  0  0  0
   36.8450   22.4950   31.2120 C   0  0  1  0  0  0  0  0  0  0  0  0
   37.5340   23.6860   30.8720 C   0  0  0  0  0  0  0  0  0  0  0  0
   38.4060   23.8280   29.7700 C   0  0  0  0  0  0  0  0  0  0  0  0
   38.8720   25.0730   29.7540 N   0  0  0  0  0  0  0  0  0  0  0  0
   38.3820   25.8030   30.7720 C   0  0  0  0  0  0  0  0  0  0  0  0
   38.5930   27.1070   31.1280 C   0  0  0  0  0  0  0  0  0  0  0  0
   37.9470   27.6140   32.2450 C   0  0  0  0  0  0  0  0  0  0  0  0
   37.1130   26.7640   32.9490 C   0  0  0  0  0  0  0  0  0  0  0  0
   36.9180   25.4450   32.5650 C   0  0  0  0  0  0  0  0  0  0  0  0
   37.5500   24.9420   31.4680 C   0  0  0  0  0  0  0  0  0  0  0  0
   38.7370   21.0340   31.8960 C   0  0  0  0  0  0  0  0  0  0  0  0
   38.9450   20.3370   30.8520 O   0  0  0  0  0  0  0  0  0  0  0  0
   41.9280   20.9800   33.7080 C   0  0  0  0  0  0  0  0  0  0  0  0
   40.9060   20.6560   32.7820 C   0  0  0  0  0  0  0  0  0  0  0  0
   39.7510   21.4010   32.8630 C   0  0  0  0  0  0  0  0  0  0  0  0
   39.6510   22.3700   33.7880 N   0  0  0  0  0  0  0  0  0  0  0  0
   40.6200   22.6720   34.6600 C   0  0  0  0  0  0  0  0  0  0  0  0
   41.7720   21.9530   34.6040 N   0  0  0  0  0  0  0  0  0  0  0  0
   40.4420   23.7640   35.6650 C   0  0  0  0  0  0  0  0  0  0  0  0
   40.2990   23.2180   37.0520 C   0  0  0  0  0  0  0  0  0  0  0  0
   38.8860   22.8080   37.3910 C   0  0  0  0  0  0  0  0  0  0  0  0
   38.0470   24.0650   37.3080 C   0  0  0  0  0  0  0  0  0  0  0  0
   38.0330   24.5110   35.8750 C   0  0  0  0  0  0  0  0  0  0  0  0
   39.3690   24.7280   35.2690 C   0  0  0  0  0  0  0  0  0  0  0  0
   37.5230   21.8969   33.1715 H   0  0  0  0  0  0  0  0  0  0  0  0
   36.4045   19.6268   32.7245 H   0  0  0  0  0  0  0  0  0  0  0  0
   36.4205   19.8435   31.0110 H   0  0  0  0  0  0  0  0  0  0  0  0
   34.3307   20.9674   31.3318 H   0  0  0  0  0  0  0  0  0  0  0  0
   34.5921   21.0943   33.0790 H   0  0  0  0  0  0  0  0  0  0  0  0
   34.7961   23.2626   31.2769 H   0  0  0  0  0  0  0  0  0  0  0  0
   35.5497   23.2971   32.8358 H   0  0  0  0  0  0  0  0  0  0  0  0
   36.8734   22.1275   30.1756 H   0  0  0  0  0  0  0  0  0  0  0  0
   38.6577   23.0395   29.0454 H   0  0  0  0  0  0  0  0  0  0  0  0
   39.5286   25.4347   29.0477 H   0  0  0  0  0  0  0  0  0  0  0  0
   39.2661   27.7446   30.5360 H   0  0  0  0  0  0  0  0  0  0  0  0
   38.0928   28.6575   32.5610 H   0  0  0  0  0  0  0  0  0  0  0  0
   36.5896   27.1446   33.8385 H   0  0  0  0  0  0  0  0  0  0  0  0
   36.2473   24.7999   33.1515 H   0  0  0  0  0  0  0  0  0  0  0  0
   42.8717   20.4152   33.6865 H   0  0  0  0  0  0  0  0  0  0  0  0
   41.0284   19.8537   32.0395 H   0  0  0  0  0  0  0  0  0  0  0  0
   41.3643   24.3632   35.6794 H   0  0  0  0  0  0  0  0  0  0  0  0
   40.9507   22.3372   37.1491 H   0  0  0  0  0  0  0  0  0  0  0  0
   40.5805   24.0215   37.7485 H   0  0  0  0  0  0  0  0  0  0  0  0
   38.5234   22.0599   36.6707 H   0  0  0  0  0  0  0  0  0  0  0  0
   38.8304   22.3558   38.3922 H   0  0  0  0  0  0  0  0  0  0  0  0
   37.0213   23.8536   37.6445 H   0  0  0  0  0  0  0  0  0  0  0  0
   38.4671   24.8516   37.9520 H   0  0  0  0  0  0  0  0  0  0  0  0
   37.5120   23.7430   35.2845 H   0  0  0  0  0  0  0  0  0  0  0  0
   37.5300   25.4892   35.8643 H   0  0  0  0  0  0  0  0  0  0  0  0
   39.7046   25.7370   35.5506 H   0  0  0  0  0  0  0  0  0  0  0  0
   39.2276   24.5809   34.1881 H   0  0  0  0  0  0  0  0  0  0  0  0
  2  3  1  0
  2  1  1  0
  4  3  1  0
  5  4  1  0
  5  1  1  0
  6  5  1  0
  6 14  1  0
  7  6  2  0
  8  7  1  0
  8  9  1  0
  9 10  2  0
  9 14  1  0
 10 11  1  0
 11 12  2  0
 13 12  1  0
 14 13  2  0
 15  1  1  0
 15 19  1  0
 16 15  2  0
 17 22  2  0
 18 19  2  0
 18 17  1  0
 19 20  1  0
 20 21  2  0
 21 23  1  0
 22 21  1  0
 23 24  1  0
 24 25  1  0
 26 25  1  0
 27 26  1  0
 28 23  1  0
 28 27  1  0
  1 29  1  1
  2 30  1  0
  2 31  1  0
  3 32  1  0
  3 33  1  0
  4 34  1  0
  4 35  1  0
  5 36  1  6
  7 37  1  0
  8 38  1  0
 10 39  1  0
 11 40  1  0
 12 41  1  0
 13 42  1  0
 17 43  1  0
 18 44  1  0
 23 45  1  0
 24 46  1  0
 24 47  1  0
 25 48  1  0
 25 49  1  0
 26 50  1  0
 26 51  1  0
 27 52  1  0
 27 53  1  0
 28 54  1  0
 28 55  1  0
M  ISO  8  29  13  30  13  31  13  32  13  33  13  34  13  35  13  36  13
M  ISO  8  37  14  38   9  39  14  40  14  41  14  42  14  43  14  44  14
M  ISO  8  45  13  46  13  47  13  48  13  49  13  50  13  51  13  52  13
M  ISO  3  53  13  54  13  55  13
M  END
>  <minimizedAffinity>  (1) 
-5.52615309

>  <minimizedRMSD>  (1) 
3.08821607

$$$$
