
     RDKit          3D

 53 58  0  0  0  0  0  0  0  0999 V2000
   38.9300   24.1250   32.3740 C   0  0  0  0  0  0  0  0  0  0  0  0
   39.5820   22.9000   32.5230 C   0  0  0  0  0  0  0  0  0  0  0  0
   38.9350   21.6790   32.2940 C   0  0  0  0  0  0  0  0  0  0  0  0
   37.5960   21.6730   31.9040 C   0  0  0  0  0  0  0  0  0  0  0  0
   36.9460   22.8690   31.7550 C   0  0  0  0  0  0  0  0  0  0  0  0
   35.6640   22.8860   31.3450 C   0  0  0  0  0  0  0  0  0  0  0  0
   34.9600   24.0340   31.1290 C   0  0  0  0  0  0  0  0  0  0  0  0
   35.6280   25.2470   31.3560 C   0  0  0  0  0  0  0  0  0  0  0  0
   36.9630   25.2140   31.7940 C   0  0  0  0  0  0  0  0  0  0  0  0
   37.6280   24.0390   31.9920 C   0  0  0  0  0  0  0  0  0  0  0  0
   39.6570   25.3210   32.6100 C   0  0  0  0  0  0  0  0  0  0  0  0
   39.8040   25.8760   33.9230 C   0  0  0  0  0  0  0  0  0  0  0  0
   40.5540   27.0460   34.0140 C   0  0  0  0  0  0  0  0  0  0  0  0
   41.1100   27.6100   32.9130 N   0  0  0  0  0  0  0  0  0  0  0  0
   40.9580   27.0560   31.6980 C   0  0  0  0  0  0  0  0  0  0  0  0
   40.2540   25.9520   31.5690 N   0  0  0  0  0  0  0  0  0  0  0  0
   39.2170   25.2600   34.9980 N   0  0  0  0  0  0  0  0  0  0  0  0
   37.9910   25.5040   35.4670 C   0  0  0  0  0  0  0  0  0  0  0  0
   37.7070   24.7330   36.5470 N   0  0  0  0  0  0  0  0  0  0  0  0
   38.8080   23.9720   36.7600 C   0  0  0  0  0  0  0  0  0  0  0  0
   39.1370   23.0200   37.6800 C   0  0  0  0  0  0  0  0  0  0  0  0
   40.3330   22.3790   37.7030 N   0  0  0  0  0  0  0  0  0  0  0  0
   41.2050   22.7460   36.7350 C   0  0  0  0  0  0  0  0  0  0  0  0
   40.8710   23.6740   35.8440 N   0  0  0  0  0  0  0  0  0  0  0  0
   39.7200   24.3200   35.7890 C   0  0  0  0  0  0  0  0  0  0  0  0
   37.3820   26.5860   31.9350 C   0  0  0  0  0  0  0  0  0  0  0  0
   37.0950   27.2780   30.5760 C   0  0  0  0  0  0  0  0  0  0  0  0
   37.5040   28.7330   30.5850 C   0  0  0  0  0  0  0  0  0  0  0  0
   36.8550   29.4630   31.7210 C   0  0  0  0  0  0  0  0  0  0  0  0
   35.8260   28.5450   32.3110 C   0  0  0  0  0  0  0  0  0  0  0  0
   36.3660   27.2910   32.8710 C   0  0  0  0  0  0  0  0  0  0  0  0
   40.6382   22.8932   32.8302 H   0  0  0  0  0  0  0  0  0  0  0  0
   39.4792   20.7315   32.4209 H   0  0  0  0  0  0  0  0  0  0  0  0
   37.0712   20.7241   31.7193 H   0  0  0  0  0  0  0  0  0  0  0  0
   35.1579   21.9242   31.1754 H   0  0  0  0  0  0  0  0  0  0  0  0
   33.9134   24.0101   30.7913 H   0  0  0  0  0  0  0  0  0  0  0  0
   35.1157   26.2069   31.1940 H   0  0  0  0  0  0  0  0  0  0  0  0
   40.6979   27.5208   34.9957 H   0  0  0  0  0  0  0  0  0  0  0  0
   41.4199   27.5233   30.8158 H   0  0  0  0  0  0  0  0  0  0  0  0
   37.2974   26.2386   35.0320 H   0  0  0  0  0  0  0  0  0  0  0  0
   38.3918   22.7574   38.4454 H   0  0  0  0  0  0  0  0  0  0  0  0
   42.1969   22.2730   36.6854 H   0  0  0  0  0  0  0  0  0  0  0  0
   38.4265   26.6334   32.2768 H   0  0  0  0  0  0  0  0  0  0  0  0
   36.0174   27.2131   30.3648 H   0  0  0  0  0  0  0  0  0  0  0  0
   37.6834   26.7641   29.8016 H   0  0  0  0  0  0  0  0  0  0  0  0
   38.5968   28.7994   30.6915 H   0  0  0  0  0  0  0  0  0  0  0  0
   37.1817   29.1949   29.6401 H   0  0  0  0  0  0  0  0  0  0  0  0
   37.6073   29.7228   32.4803 H   0  0  0  0  0  0  0  0  0  0  0  0
   36.3893   30.3955   31.3694 H   0  0  0  0  0  0  0  0  0  0  0  0
   35.3074   29.0847   33.1171 H   0  0  0  0  0  0  0  0  0  0  0  0
   35.1594   28.2546   31.4856 H   0  0  0  0  0  0  0  0  0  0  0  0
   35.5281   26.6031   33.0575 H   0  0  0  0  0  0  0  0  0  0  0  0
   36.9027   27.5524   33.7949 H   0  0  0  0  0  0  0  0  0  0  0  0
  1  2  2  0
  1 11  1  0
  3  2  1  0
  4  3  2  0
  5  4  1  0
  5 10  2  0
  6  5  1  0
  7  6  2  0
  7  8  1  0
  8  9  2  0
  9 26  1  0
  9 10  1  0
 10  1  1  0
 11 12  1  0
 12 13  2  0
 12 17  1  0
 14 13  1  0
 15 14  2  0
 16 15  1  0
 16 11  2  0
 17 18  1  0
 17 25  1  0
 18 19  2  0
 19 20  1  0
 20 21  2  0
 21 22  1  0
 23 22  2  0
 24 23  1  0
 25 24  2  0
 25 20  1  0
 26 31  1  0
 27 28  1  0
 27 26  1  0
 28 29  1  0
 29 30  1  0
 30 31  1  0
  2 32  1  0
  3 33  1  0
  4 34  1  0
  6 35  1  0
  7 36  1  0
  8 37  1  0
 13 38  1  0
 15 39  1  0
 18 40  1  0
 21 41  1  0
 23 42  1  0
 26 43  1  0
 27 44  1  0
 27 45  1  0
 28 46  1  0
 28 47  1  0
 29 48  1  0
 29 49  1  0
 30 50  1  0
 30 51  1  0
 31 52  1  0
 31 53  1  0
M  ISO  8  32  14  33  14  34  14  35  14  36  14  37  14  38  14  39  14
M  ISO  8  40  14  41  14  42  14  43  13  44  13  45  13  46  13  47  13
M  ISO  6  48  13  49  13  50  13  51  13  52  13  53  13
M  END
>  <minimizedAffinity>  (1) 
-6.28880358

>  <minimizedRMSD>  (1) 
0.866496086

$$$$
