
     RDKit          3D

 41 43  0  0  1  0  0  0  0  0999 V2000
   38.8490   25.5710   31.5610 N   0  0  0  0  0  0  0  0  0  0  0  0
   39.1360   25.6550   30.1500 C   0  0  0  0  0  0  0  0  0  0  0  0
   38.9740   27.1100   29.7940 C   0  0  0  0  0  0  0  0  0  0  0  0
   38.5630   27.7610   31.1290 C   0  0  0  0  0  0  0  0  0  0  0  0
   39.3440   26.8030   32.0360 C   0  0  1  0  0  0  0  0  0  0  0  0
   39.2800   27.1530   33.4530 C   0  0  0  0  0  0  0  0  0  0  0  0
   37.7950   27.0390   33.8540 C   0  0  0  0  0  0  0  0  0  0  0  0
   37.5850   27.6580   35.2250 C   0  0  0  0  0  0  0  0  0  0  0  0
   38.3220   26.7770   36.1980 C   0  0  0  0  0  0  0  0  0  0  0  0
   39.1490   25.7160   35.5290 C   0  0  0  0  0  0  0  0  0  0  0  0
   40.0050   26.2390   34.4010 C   0  0  0  0  0  0  0  0  0  0  0  0
   39.6180   24.5160   32.2020 C   0  0  0  0  0  0  0  0  0  0  0  0
   36.7210   22.1830   32.8060 C   0  0  0  0  0  0  0  0  0  0  0  0
   37.4480   23.3540   32.6330 C   0  0  0  0  0  0  0  0  0  0  0  0
   38.8170   23.2850   32.3930 C   0  0  0  0  0  0  0  0  0  0  0  0
   39.3920   22.0290   32.3370 N   0  0  0  0  0  0  0  0  0  0  0  0
   38.6580   20.9100   32.5090 C   0  0  0  0  0  0  0  0  0  0  0  0
   37.3230   20.9990   32.7440 N   0  0  0  0  0  0  0  0  0  0  0  0
   40.1641   25.3211   29.9459 H   0  0  0  0  0  0  0  0  0  0  0  0
   38.4678   25.0124   29.5579 H   0  0  0  0  0  0  0  0  0  0  0  0
   39.9201   27.5326   29.4249 H   0  0  0  0  0  0  0  0  0  0  0  0
   38.2405   27.2765   28.9914 H   0  0  0  0  0  0  0  0  0  0  0  0
   38.9082   28.8018   31.2161 H   0  0  0  0  0  0  0  0  0  0  0  0
   37.4848   27.8610   31.3224 H   0  0  0  0  0  0  0  0  0  0  0  0
   40.4428   26.8142   31.9857 H   0  0  0  0  0  0  0  0  0  0  0  0
   39.7496   28.1440   33.5383 H   0  0  0  0  0  0  0  0  0  0  0  0
   37.1753   27.5683   33.1152 H   0  0  0  0  0  0  0  0  0  0  0  0
   37.5071   25.9778   33.8859 H   0  0  0  0  0  0  0  0  0  0  0  0
   37.9934   28.6791   35.2495 H   0  0  0  0  0  0  0  0  0  0  0  0
   36.5161   27.7271   35.4754 H   0  0  0  0  0  0  0  0  0  0  0  0
   38.9879   27.4078   36.8052 H   0  0  0  0  0  0  0  0  0  0  0  0
   37.5661   26.2636   36.8103 H   0  0  0  0  0  0  0  0  0  0  0  0
   39.8078   25.2613   36.2835 H   0  0  0  0  0  0  0  0  0  0  0  0
   38.4488   24.9887   35.0922 H   0  0  0  0  0  0  0  0  0  0  0  0
   40.3856   25.3798   33.8292 H   0  0  0  0  0  0  0  0  0  0  0  0
   40.8085   26.8325   34.8616 H   0  0  0  0  0  0  0  0  0  0  0  0
   40.4891   24.2792   31.5735 H   0  0  0  0  0  0  0  0  0  0  0  0
   39.9297   24.8764   33.1934 H   0  0  0  0  0  0  0  0  0  0  0  0
   35.6388   22.2356   32.9958 H   0  0  0  0  0  0  0  0  0  0  0  0
   36.9443   24.3305   32.6854 H   0  0  0  0  0  0  0  0  0  0  0  0
   39.1417   19.9234   32.4588 H   0  0  0  0  0  0  0  0  0  0  0  0
  1  5  1  0
  1 12  1  0
  2  1  1  0
  3  2  1  0
  3  4  1  0
  4  5  1  0
  5  6  1  0
  6  7  1  0
  6 11  1  0
  7  8  1  0
  8  9  1  0
 10  9  1  0
 11 10  1  0
 12 15  1  0
 14 13  2  0
 15 14  1  0
 16 15  2  0
 16 17  1  0
 17 18  2  0
 18 13  1  0
  2 19  1  0
  2 20  1  0
  3 21  1  0
  3 22  1  0
  4 23  1  0
  4 24  1  0
  5 25  1  6
  6 26  1  0
  7 27  1  0
  7 28  1  0
  8 29  1  0
  8 30  1  0
  9 31  1  0
  9 32  1  0
 10 33  1  0
 10 34  1  0
 11 35  1  0
 11 36  1  0
 12 37  1  0
 12 38  1  0
 13 39  1  0
 14 40  1  0
 17 41  1  0
M  ISO  8  19  13  20  13  21  13  22  13  23  13  24  13  25  13  26  13
M  ISO  8  27  13  28  13  29  13  30  13  31  13  32  13  33  13  34  13
M  ISO  7  35  13  36  13  37   8  38   8  39  14  40  14  41  14
M  END
>  <minimizedAffinity>  (1) 
-3.75646925

>  <minimizedRMSD>  (1) 
3.59898329

$$$$
