
     RDKit          3D

 33 35  0  0  1  0  0  0  0  0999 V2000
   37.5960   25.1230   36.2130 O   0  0  0  0  0  0  0  0  0  0  0  0
   39.7290   22.7490   37.9040 C   0  0  0  0  0  0  0  0  0  0  0  0
   38.7770   23.7990   37.6190 C   0  0  0  0  0  0  0  0  0  0  0  0
   38.5010   24.1140   36.2730 C   0  0  0  0  0  0  0  0  0  0  0  0
   39.1440   23.4120   35.3050 N   0  0  0  0  0  0  0  0  0  0  0  0
   40.0080   22.4600   35.6210 C   0  0  0  0  0  0  0  0  0  0  0  0
   40.3120   22.1160   36.8780 N   0  0  0  0  0  0  0  0  0  0  0  0
   40.6390   21.8060   34.5090 N   0  0  0  0  0  0  0  0  0  0  0  0
   37.7990   26.1640   35.2430 C   0  0  1  0  0  0  0  0  0  0  0  0
   38.0980   27.5200   35.7610 C   0  0  0  0  0  0  0  0  0  0  0  0
   39.2280   26.6320   35.2520 C   0  0  2  0  0  0  0  0  0  0  0  0
   39.8830   27.1600   34.0350 C   0  0  0  0  0  0  0  0  0  0  0  0
   39.5600   26.3460   32.7760 C   0  0  0  0  0  0  0  0  0  0  0  0
   40.3800   27.1730   31.7860 C   0  0  0  0  0  0  0  0  0  0  0  0
   41.6550   27.4540   32.5390 C   0  0  0  0  0  0  0  0  0  0  0  0
   41.3840   27.0940   34.0080 C   0  0  0  0  0  0  0  0  0  0  0  0
   39.9695   22.4757   38.9420 H   0  0  0  0  0  0  0  0  0  0  0  0
   38.2782   24.3411   38.4359 H   0  0  0  0  0  0  0  0  0  0  0  0
   41.3235   21.0544   34.6744 H   0  0  0  0  0  0  0  0  0  0  0  0
   40.4070   22.0886   33.5461 H   0  0  0  0  0  0  0  0  0  0  0  0
   37.0714   25.8027   34.5013 H   0  0  0  0  0  0  0  0  0  0  0  0
   37.7946   28.4076   35.1864 H   0  0  0  0  0  0  0  0  0  0  0  0
   37.8930   28.0571   36.6988 H   0  0  0  0  0  0  0  0  0  0  0  0
   40.1544   26.1661   35.6190 H   0  0  0  0  0  0  0  0  0  0  0  0
   39.5005   28.1912   34.0531 H   0  0  0  0  0  0  0  0  0  0  0  0
   39.9139   25.3069   32.8472 H   0  0  0  0  0  0  0  0  0  0  0  0
   38.4935   26.2191   32.5385 H   0  0  0  0  0  0  0  0  0  0  0  0
   39.8605   28.1078   31.5286 H   0  0  0  0  0  0  0  0  0  0  0  0
   40.5503   26.6550   30.8307 H   0  0  0  0  0  0  0  0  0  0  0  0
   42.4745   26.8371   32.1417 H   0  0  0  0  0  0  0  0  0  0  0  0
   41.9528   28.5080   32.4367 H   0  0  0  0  0  0  0  0  0  0  0  0
   41.7505   26.0862   34.2532 H   0  0  0  0  0  0  0  0  0  0  0  0
   41.8843   27.7461   34.7391 H   0  0  0  0  0  0  0  0  0  0  0  0
  1  4  1  0
  3  2  2  0
  4  3  1  0
  5  6  1  0
  5  4  2  0
  6  7  2  0
  7  2  1  0
  8  6  1  0
  9 11  1  0
  9 10  1  0
  9  1  1  0
 11 10  1  0
 12 11  1  0
 13 12  1  0
 14 15  1  0
 14 13  1  0
 15 16  1  0
 16 12  1  0
  2 17  1  0
  3 18  1  0
  8 19  1  0
  8 20  1  0
  9 21  1  6
 10 22  1  0
 10 23  1  0
 11 24  1  1
 12 25  1  0
 13 26  1  0
 13 27  1  0
 14 28  1  0
 14 29  1  0
 15 30  1  0
 15 31  1  0
 16 32  1  0
 16 33  1  0
M  ISO  8  17  14  18  14  21  13  22  13  23  13  24  13  25  13  26  13
M  ISO  7  27  13  28  13  29  13  30  13  31  13  32  13  33  13
M  END
>  <minimizedAffinity>  (1) 
-4.3333745

>  <minimizedRMSD>  (1) 
0.631727934

$$$$
