
     RDKit          3D

 38 41  0  0  0  0  0  0  0  0999 V2000
   38.6570   24.7120   33.4110 N   0  0  0  0  0  0  0  0  0  0  0  0
   38.5780   25.6860   32.3070 C   0  0  0  0  0  0  0  0  0  0  0  0
   37.9000   26.8490   32.9480 C   0  0  0  0  0  0  0  0  0  0  0  0
   38.8700   27.3630   33.8320 O   0  0  0  0  0  0  0  0  0  0  0  0
   38.9720   26.5480   34.9630 C   0  0  0  0  0  0  0  0  0  0  0  0
   38.8420   25.0700   34.7940 C   0  0  0  0  0  0  0  0  0  0  0  0
   38.8960   24.3410   36.0200 C   0  0  0  0  0  0  0  0  0  0  0  0
   39.7440   23.3890   36.5210 C   0  0  0  0  0  0  0  0  0  0  0  0
   39.8060   22.8170   37.7550 C   0  0  0  0  0  0  0  0  0  0  0  0
   38.8570   23.2770   38.6350 C   0  0  0  0  0  0  0  0  0  0  0  0
   37.9350   24.2340   38.2680 C   0  0  0  0  0  0  0  0  0  0  0  0
   37.9650   24.7460   36.9880 C   0  0  0  0  0  0  0  0  0  0  0  0
   37.5410   20.9130   32.5900 C   0  0  0  0  0  0  0  0  0  0  0  0
   38.8580   21.0250   32.8100 C   0  0  0  0  0  0  0  0  0  0  0  0
   39.4820   22.1210   33.0900 C   0  0  0  0  0  0  0  0  0  0  0  0
   38.5740   23.2730   33.1470 C   0  0  0  0  0  0  0  0  0  0  0  0
   36.8800   22.6010   32.7710 S   0  0  0  0  0  0  0  0  0  0  0  0
   35.2080   18.1660   32.5890 C   0  0  0  0  0  0  0  0  0  0  0  0
   35.8640   17.1670   31.8670 C   0  0  0  0  0  0  0  0  0  0  0  0
   37.1140   17.4160   31.3590 C   0  0  0  0  0  0  0  0  0  0  0  0
   37.6240   18.6490   31.6080 N   0  0  0  0  0  0  0  0  0  0  0  0
   36.9860   19.6090   32.3070 C   0  0  0  0  0  0  0  0  0  0  0  0
   35.7790   19.3660   32.7960 N   0  0  0  0  0  0  0  0  0  0  0  0
   37.9829   25.2909   31.4705 H   0  0  0  0  0  0  0  0  0  0  0  0
   39.5572   25.9353   31.8723 H   0  0  0  0  0  0  0  0  0  0  0  0
   37.6185   27.6009   32.1960 H   0  0  0  0  0  0  0  0  0  0  0  0
   36.9677   26.5671   33.4592 H   0  0  0  0  0  0  0  0  0  0  0  0
   39.1445   26.9863   35.9570 H   0  0  0  0  0  0  0  0  0  0  0  0
   40.4998   23.0268   35.8086 H   0  0  0  0  0  0  0  0  0  0  0  0
   40.5508   22.0534   38.0237 H   0  0  0  0  0  0  0  0  0  0  0  0
   38.8320   22.8720   39.6574 H   0  0  0  0  0  0  0  0  0  0  0  0
   37.1827   24.5858   38.9893 H   0  0  0  0  0  0  0  0  0  0  0  0
   37.2225   25.5094   36.7125 H   0  0  0  0  0  0  0  0  0  0  0  0
   39.4588   20.1058   32.7468 H   0  0  0  0  0  0  0  0  0  0  0  0
   40.5662   22.1836   33.2651 H   0  0  0  0  0  0  0  0  0  0  0  0
   34.2055   17.9679   32.9961 H   0  0  0  0  0  0  0  0  0  0  0  0
   35.3836   16.1904   31.7071 H   0  0  0  0  0  0  0  0  0  0  0  0
   37.6700   16.6610   30.7839 H   0  0  0  0  0  0  0  0  0  0  0  0
  1  6  1  0
  2  3  1  0
  2  1  1  0
  3  4  1  0
  4  5  1  0
  6  5  2  0
  6  7  1  0
  7  8  2  0
  7 12  1  0
  8  9  1  0
  9 10  2  0
 11 10  1  0
 12 11  2  0
 13 17  1  0
 13 14  2  0
 14 15  1  0
 15 16  2  0
 16  1  1  0
 17 16  1  0
 18 23  2  0
 19 18  1  0
 20 21  1  0
 20 19  2  0
 21 22  2  0
 22 13  1  0
 22 23  1  0
  2 24  1  0
  2 25  1  0
  3 26  1  0
  3 27  1  0
  5 28  1  0
  8 29  1  0
  9 30  1  0
 10 31  1  0
 11 32  1  0
 12 33  1  0
 14 34  1  0
 15 35  1  0
 18 36  1  0
 19 37  1  0
 20 38  1  0
M  ISO  8  24  13  25  13  26  13  27  13  28  13  29  14  30  14  31  14
M  ISO  7  32  14  33  14  34  14  35  14  36  14  37  14  38  14
M  END
>  <minimizedAffinity>  (1) 
-5.31883478

>  <minimizedRMSD>  (1) 
7.31821871

$$$$
