
     RDKit          3D

 35 37  0  0  1  0  0  0  0  0999 V2000
   36.3100   24.2230   32.2030 N   0  0  0  0  0  0  0  0  0  0  0  0
   35.5200   24.1710   30.9980 C   0  0  0  0  0  0  0  0  0  0  0  0
   35.1140   25.6000   30.7350 C   0  0  0  0  0  0  0  0  0  0  0  0
   35.8070   26.3880   31.8420 C   0  0  0  0  0  0  0  0  0  0  0  0
   37.0090   25.4530   32.0700 C   0  0  1  0  0  0  0  0  0  0  0  0
   37.7040   25.9740   33.2580 C   0  0  0  0  0  0  0  0  0  0  0  0
   39.0170   26.4190   33.0530 C   0  0  0  0  0  0  0  0  0  0  0  0
   39.8400   26.9620   34.0040 C   0  0  0  0  0  0  0  0  0  0  0  0
   39.3650   27.0950   35.2760 C   0  0  0  0  0  0  0  0  0  0  0  0
   38.0800   26.6750   35.5390 C   0  0  0  0  0  0  0  0  0  0  0  0
   37.2830   26.1330   34.5560 C   0  0  0  0  0  0  0  0  0  0  0  0
   37.3190   23.1700   32.1970 C   0  0  0  0  0  0  0  0  0  0  0  0
   36.3080   19.6790   31.1830 C   0  0  0  0  0  0  0  0  0  0  0  0
   36.8580   20.9610   31.1610 C   0  0  0  0  0  0  0  0  0  0  0  0
   36.7340   21.8170   32.2490 C   0  0  0  0  0  0  0  0  0  0  0  0
   36.0530   21.3470   33.3350 N   0  0  0  0  0  0  0  0  0  0  0  0
   35.5190   20.0910   33.3490 C   0  0  0  0  0  0  0  0  0  0  0  0
   35.6490   19.2780   32.2870 N   0  0  0  0  0  0  0  0  0  0  0  0
   36.1165   23.7784   30.1613 H   0  0  0  0  0  0  0  0  0  0  0  0
   34.6494   23.5069   31.1032 H   0  0  0  0  0  0  0  0  0  0  0  0
   35.4606   25.9293   29.7443 H   0  0  0  0  0  0  0  0  0  0  0  0
   34.0227   25.7379   30.7356 H   0  0  0  0  0  0  0  0  0  0  0  0
   36.1179   27.3883   31.5063 H   0  0  0  0  0  0  0  0  0  0  0  0
   35.1946   26.6037   32.7299 H   0  0  0  0  0  0  0  0  0  0  0  0
   37.8072   25.3576   31.3192 H   0  0  0  0  0  0  0  0  0  0  0  0
   39.4239   26.3235   32.0355 H   0  0  0  0  0  0  0  0  0  0  0  0
   40.8604   27.2834   33.7479 H   0  0  0  0  0  0  0  0  0  0  0  0
   39.9917   27.5263   36.0705 H   0  0  0  0  0  0  0  0  0  0  0  0
   37.6809   26.7750   36.5591 H   0  0  0  0  0  0  0  0  0  0  0  0
   36.2645   25.8133   34.8215 H   0  0  0  0  0  0  0  0  0  0  0  0
   37.9152   23.2599   31.2770 H   0  0  0  0  0  0  0  0  0  0  0  0
   37.9368   23.2984   33.0980 H   0  0  0  0  0  0  0  0  0  0  0  0
   36.4105   19.0094   30.3163 H   0  0  0  0  0  0  0  0  0  0  0  0
   37.3998   21.3006   30.2660 H   0  0  0  0  0  0  0  0  0  0  0  0
   34.9763   19.7405   34.2393 H   0  0  0  0  0  0  0  0  0  0  0  0
  2  1  1  0
  3  2  1  0
  3  4  1  0
  4  5  1  0
  5  1  1  0
  5  6  1  0
  6 11  1  0
  7  6  2  0
  7  8  1  0
  8  9  2  0
  9 10  1  0
 11 10  2  0
 12  1  1  0
 12 15  1  0
 13 18  2  0
 14 13  1  0
 14 15  2  0
 15 16  1  0
 16 17  2  0
 18 17  1  0
  2 19  1  0
  2 20  1  0
  3 21  1  0
  3 22  1  0
  4 23  1  0
  4 24  1  0
  5 25  1  6
  7 26  1  0
  8 27  1  0
  9 28  1  0
 10 29  1  0
 11 30  1  0
 12 31  1  0
 12 32  1  0
 13 33  1  0
 14 34  1  0
 17 35  1  0
M  ISO  8  19  13  20  13  21  13  22  13  23  13  24  13  25  13  26  14
M  ISO  8  27  14  28  14  29  14  30  14  31   8  32   8  33  14  34  14
M  ISO  1  35  14
M  END
>  <minimizedAffinity>  (1) 
-4.57133961

>  <minimizedRMSD>  (1) 
4.5609436

$$$$
