
     RDKit          3D

 45 49  0  0  0  0  0  0  0  0999 V2000
   42.2610   24.3000   35.5090 C   0  0  0  0  0  0  0  0  0  0  0  0
   43.5110   24.5800   34.9680 C   0  0  0  0  0  0  0  0  0  0  0  0
   44.3380   23.5360   35.1450 N   0  0  0  0  0  0  0  0  0  0  0  0
   43.6980   22.5420   35.7920 C   0  0  0  0  0  0  0  0  0  0  0  0
   44.0840   21.2820   36.2030 C   0  0  0  0  0  0  0  0  0  0  0  0
   43.1710   20.4620   36.8590 C   0  0  0  0  0  0  0  0  0  0  0  0
   41.8760   20.9430   37.0850 C   0  0  0  0  0  0  0  0  0  0  0  0
   41.4960   22.2230   36.6640 C   0  0  0  0  0  0  0  0  0  0  0  0
   42.4270   23.0090   36.0160 C   0  0  0  0  0  0  0  0  0  0  0  0
   40.1280   22.6060   36.9880 C   0  0  0  0  0  0  0  0  0  0  0  0
   39.2210   22.2320   35.9880 C   0  0  0  0  0  0  0  0  0  0  0  0
   37.8680   22.4790   36.0810 C   0  0  0  0  0  0  0  0  0  0  0  0
   37.3500   23.1190   37.1900 C   0  0  0  0  0  0  0  0  0  0  0  0
   38.2460   23.4760   38.1570 C   0  0  0  0  0  0  0  0  0  0  0  0
   39.6020   23.2420   38.0910 C   0  0  0  0  0  0  0  0  0  0  0  0
   41.1710   25.1330   35.5120 O   0  0  0  0  0  0  0  0  0  0  0  0
   40.4570   25.5210   34.4080 C   0  0  0  0  0  0  0  0  0  0  0  0
   40.7070   26.7990   33.9090 C   0  0  0  0  0  0  0  0  0  0  0  0
   39.9750   27.2030   32.7730 C   0  0  0  0  0  0  0  0  0  0  0  0
   39.0820   26.3530   32.2310 N   0  0  0  0  0  0  0  0  0  0  0  0
   38.8740   25.1160   32.7560 C   0  0  0  0  0  0  0  0  0  0  0  0
   39.5550   24.7230   33.8240 N   0  0  0  0  0  0  0  0  0  0  0  0
   37.9480   24.1600   32.2430 N   0  0  0  0  0  0  0  0  0  0  0  0
   38.3490   22.8980   31.9430 C   0  0  0  0  0  0  0  0  0  0  0  0
   37.3880   22.0180   31.4440 C   0  0  0  0  0  0  0  0  0  0  0  0
   36.0700   22.4060   31.2570 C   0  0  0  0  0  0  0  0  0  0  0  0
   35.2150   21.6010   30.8060 O   0  0  0  0  0  0  0  0  0  0  0  0
   35.7250   23.6590   31.5670 N   0  0  0  0  0  0  0  0  0  0  0  0
   36.6500   24.5220   32.0520 C   0  0  0  0  0  0  0  0  0  0  0  0
   36.3430   25.6970   32.3470 O   0  0  0  0  0  0  0  0  0  0  0  0
   43.7835   25.5207   34.4672 H   0  0  0  0  0  0  0  0  0  0  0  0
   45.3186   23.5005   34.8317 H   0  0  0  0  0  0  0  0  0  0  0  0
   45.1080   20.9280   36.0129 H   0  0  0  0  0  0  0  0  0  0  0  0
   43.4613   19.4551   37.1936 H   0  0  0  0  0  0  0  0  0  0  0  0
   41.1446   20.3045   37.6021 H   0  0  0  0  0  0  0  0  0  0  0  0
   39.6039   21.7206   35.0925 H   0  0  0  0  0  0  0  0  0  0  0  0
   37.1973   22.1647   35.2677 H   0  0  0  0  0  0  0  0  0  0  0  0
   36.2749   23.3296   37.2889 H   0  0  0  0  0  0  0  0  0  0  0  0
   37.8578   23.9860   39.0510 H   0  0  0  0  0  0  0  0  0  0  0  0
   40.2599   23.5606   38.9130 H   0  0  0  0  0  0  0  0  0  0  0  0
   41.4444   27.4644   34.3817 H   0  0  0  0  0  0  0  0  0  0  0  0
   40.1316   28.1999   32.3352 H   0  0  0  0  0  0  0  0  0  0  0  0
   39.3924   22.5812   32.0879 H   0  0  0  0  0  0  0  0  0  0  0  0
   37.6839   20.9889   31.1922 H   0  0  0  0  0  0  0  0  0  0  0  0
   34.7518   23.9702   31.4367 H   0  0  0  0  0  0  0  0  0  0  0  0
  1 16  1  0
  1  9  1  0
  2  3  1  0
  2  1  2  0
  3  4  1  0
  4  9  2  0
  4  5  1  0
  5  6  2  0
  6  7  1  0
  8 10  1  0
  8  7  2  0
  9  8  1  0
 10 15  2  0
 11 12  2  0
 11 10  1  0
 12 13  1  0
 13 14  2  0
 15 14  1  0
 17 16  1  0
 18 17  2  0
 19 18  1  0
 20 21  1  0
 20 19  2  0
 21 22  2  0
 22 17  1  0
 23 21  1  0
 24 23  1  0
 25 24  2  0
 26 25  1  0
 26 28  1  0
 27 26  2  0
 28 29  1  0
 29 23  1  0
 29 30  2  0
  2 31  1  0
  3 32  1  0
  5 33  1  0
  6 34  1  0
  7 35  1  0
 11 36  1  0
 12 37  1  0
 13 38  1  0
 14 39  1  0
 15 40  1  0
 18 41  1  0
 19 42  1  0
 24 43  1  0
 25 44  1  0
 28 45  1  0
M  ISO  8  31  14  32   9  33  14  34  14  35  14  36  14  37  14  38  14
M  ISO  7  39  14  40  14  41  14  42  14  43  14  44  14  45   9
M  END
>  <minimizedAffinity>  (1) 
-6.59033871

>  <minimizedRMSD>  (1) 
4.19936657

$$$$
