
     RDKit          3D

 38 41  0  0  0  0  0  0  0  0999 V2000
   37.2060   27.7850   33.0360 C   0  0  0  0  0  0  0  0  0  0  0  0
   35.9610   28.3380   32.9970 C   0  0  0  0  0  0  0  0  0  0  0  0
   35.4150   28.9290   31.8780 C   0  0  0  0  0  0  0  0  0  0  0  0
   36.1770   28.9510   30.7550 N   0  0  0  0  0  0  0  0  0  0  0  0
   37.4100   28.4050   30.7890 C   0  0  0  0  0  0  0  0  0  0  0  0
   37.9300   27.8280   31.8970 N   0  0  0  0  0  0  0  0  0  0  0  0
   38.6130   25.6780   35.5310 C   0  0  0  0  0  0  0  0  0  0  0  0
   38.3580   26.7960   36.3180 C   0  0  0  0  0  0  0  0  0  0  0  0
   37.7850   27.7520   35.4670 C   0  0  0  0  0  0  0  0  0  0  0  0
   37.7270   27.1770   34.2480 C   0  0  0  0  0  0  0  0  0  0  0  0
   38.2170   25.9630   34.3150 O   0  0  0  0  0  0  0  0  0  0  0  0
   38.7040   23.8210   37.2310 C   0  0  0  0  0  0  0  0  0  0  0  0
   39.2150   24.4630   36.0740 C   0  0  0  0  0  0  0  0  0  0  0  0
   40.3180   23.9150   35.4450 C   0  0  0  0  0  0  0  0  0  0  0  0
   40.8800   22.7690   35.9640 N   0  0  0  0  0  0  0  0  0  0  0  0
   40.3600   22.1860   37.0750 C   0  0  0  0  0  0  0  0  0  0  0  0
   39.2900   22.7100   37.6900 N   0  0  0  0  0  0  0  0  0  0  0  0
   39.7420   28.5160   27.2520 C   0  0  0  0  0  0  0  0  0  0  0  0
   39.8740   27.4520   28.1370 C   0  0  0  0  0  0  0  0  0  0  0  0
   39.1100   27.4260   29.2850 C   0  0  0  0  0  0  0  0  0  0  0  0
   38.2160   28.4380   29.5730 C   0  0  0  0  0  0  0  0  0  0  0  0
   38.0690   29.5120   28.7010 C   0  0  0  0  0  0  0  0  0  0  0  0
   38.8490   29.5070   27.5620 C   0  0  0  0  0  0  0  0  0  0  0  0
   40.7290   28.5030   25.8180 S   0  0  0  0  0  0  0  0  0  0  0  0
   40.3810   27.2410   25.0510 O   0  0  0  0  0  0  0  0  0  0  0  0
   40.4050   29.6740   24.9480 O   0  0  0  0  0  0  0  0  0  0  0  0
   35.3549   28.3110   33.9146 H   0  0  0  0  0  0  0  0  0  0  0  0
   34.4049   29.3642   31.8943 H   0  0  0  0  0  0  0  0  0  0  0  0
   38.5644   26.9079   37.3926 H   0  0  0  0  0  0  0  0  0  0  0  0
   37.4509   28.7644   35.7381 H   0  0  0  0  0  0  0  0  0  0  0  0
   37.8273   24.2362   37.7497 H   0  0  0  0  0  0  0  0  0  0  0  0
   40.7398   24.3863   34.5450 H   0  0  0  0  0  0  0  0  0  0  0  0
   40.8227   21.2720   37.4755 H   0  0  0  0  0  0  0  0  0  0  0  0
   40.5819   26.6376   27.9234 H   0  0  0  0  0  0  0  0  0  0  0  0
   39.2149   26.5833   29.9842 H   0  0  0  0  0  0  0  0  0  0  0  0
   37.3626   30.3289   28.9098 H   0  0  0  0  0  0  0  0  0  0  0  0
   38.7472   30.3491   26.8617 H   0  0  0  0  0  0  0  0  0  0  0  0
   42.0537   28.5562   26.1632 H   0  0  0  0  0  0  0  0  0  0  0  0
  1 10  1  0
  2  1  2  0
  3  2  1  0
  4  5  1  0
  4  3  2  0
  5  6  2  0
  6  1  1  0
  7 13  1  0
  7  8  2  0
  9  8  1  0
 10 11  1  0
 10  9  2  0
 11  7  1  0
 12 17  2  0
 13 12  1  0
 14 15  1  0
 14 13  2  0
 15 16  2  0
 16 17  1  0
 18 23  2  0
 18 19  1  0
 19 20  2  0
 20 21  1  0
 21  5  1  0
 22 21  2  0
 23 22  1  0
 24 18  1  0
 25 24  2  0
 26 24  2  0
  2 27  1  0
  3 28  1  0
  8 29  1  0
  9 30  1  0
 12 31  1  0
 14 32  1  0
 16 33  1  0
 19 34  1  0
 20 35  1  0
 22 36  1  0
 23 37  1  0
 24 38  1  0
M  ISO  8  27  14  28  14  29  14  30  14  31  14  32  14  33  14  34  14
M  ISO  4  35  14  36  14  37  14  38  11
M  END
>  <minimizedAffinity>  (1) 
-5.26113176

>  <minimizedRMSD>  (1) 
1.60703146

$$$$
