
     RDKit          3D

 37 40  0  0  1  0  0  0  0  0999 V2000
   37.2520   21.5090   34.0750 C   0  0  1  0  0  0  0  0  0  0  0  0
   36.0170   21.0860   34.7090 C   0  0  0  0  0  0  0  0  0  0  0  0
   36.1230   21.0220   33.1920 C   0  0  2  0  0  0  0  0  0  0  0  0
   38.0940   23.8350   34.6260 C   0  0  0  0  0  0  0  0  0  0  0  0
   38.2410   25.0480   33.9610 C   0  0  0  0  0  0  0  0  0  0  0  0
   37.7810   24.7820   32.7080 N   0  0  0  0  0  0  0  0  0  0  0  0
   37.3990   23.5220   32.6550 C   0  0  0  0  0  0  0  0  0  0  0  0
   37.5790   22.8880   33.8420 N   0  0  0  0  0  0  0  0  0  0  0  0
   38.4570   23.6030   36.0260 C   0  0  0  0  0  0  0  0  0  0  0  0
   39.6730   23.0050   36.3520 C   0  0  0  0  0  0  0  0  0  0  0  0
   39.9790   22.8010   37.7130 C   0  0  0  0  0  0  0  0  0  0  0  0
   39.0630   23.2030   38.6160 N   0  0  0  0  0  0  0  0  0  0  0  0
   37.8890   23.7810   38.2780 C   0  0  0  0  0  0  0  0  0  0  0  0
   37.5680   23.9900   36.9810 N   0  0  0  0  0  0  0  0  0  0  0  0
   36.3660   17.0580   31.6080 C   0  0  0  0  0  0  0  0  0  0  0  0
   35.2890   17.3890   32.4050 C   0  0  0  0  0  0  0  0  0  0  0  0
   35.2770   18.6750   32.8760 C   0  0  0  0  0  0  0  0  0  0  0  0
   36.2330   19.6380   32.6240 C   0  0  0  0  0  0  0  0  0  0  0  0
   37.3070   19.2720   31.8160 C   0  0  0  0  0  0  0  0  0  0  0  0
   37.3430   17.9790   31.3270 C   0  0  0  0  0  0  0  0  0  0  0  0
   36.4460   15.4240   30.9690 S   0  0  0  0  0  0  0  0  0  0  0  0
   37.0730   14.5300   32.0150 O   0  0  0  0  0  0  0  0  0  0  0  0
   35.0730   14.8990   30.6480 O   0  0  0  0  0  0  0  0  0  0  0  0
   38.2937   21.2450   34.3099 H   0  0  0  0  0  0  0  0  0  0  0  0
   35.9941   20.1555   35.2952 H   0  0  0  0  0  0  0  0  0  0  0  0
   35.3129   21.5527   35.4136 H   0  0  0  0  0  0  0  0  0  0  0  0
   35.5814   21.4258   32.3239 H   0  0  0  0  0  0  0  0  0  0  0  0
   38.6353   25.9966   34.3543 H   0  0  0  0  0  0  0  0  0  0  0  0
   36.9840   23.0414   31.7567 H   0  0  0  0  0  0  0  0  0  0  0  0
   40.3781   22.6991   35.5651 H   0  0  0  0  0  0  0  0  0  0  0  0
   40.9249   22.3337   38.0245 H   0  0  0  0  0  0  0  0  0  0  0  0
   37.1860   24.0851   39.0675 H   0  0  0  0  0  0  0  0  0  0  0  0
   34.4936   16.6683   32.6458 H   0  0  0  0  0  0  0  0  0  0  0  0
   34.4287   18.9667   33.5127 H   0  0  0  0  0  0  0  0  0  0  0  0
   38.1036   19.9909   31.5739 H   0  0  0  0  0  0  0  0  0  0  0  0
   38.1867   17.6777   30.6888 H   0  0  0  0  0  0  0  0  0  0  0  0
   37.1887   15.4374   29.8179 H   0  0  0  0  0  0  0  0  0  0  0  0
  1  2  1  0
  3  1  1  0
  3  2  1  0
  4  9  1  0
  5  4  2  0
  6  5  1  0
  7  6  2  0
  7  8  1  0
  8  1  1  0
  8  4  1  0
  9 10  2  0
  9 14  1  0
 10 11  1  0
 11 12  2  0
 13 12  1  0
 14 13  2  0
 15 16  2  0
 16 17  1  0
 18 17  2  0
 18  3  1  0
 19 18  1  0
 20 15  1  0
 20 19  2  0
 21 15  1  0
 21 22  2  0
 23 21  2  0
  1 24  1  1
  2 25  1  0
  2 26  1  0
  3 27  1  6
  5 28  1  0
  7 29  1  0
 10 30  1  0
 11 31  1  0
 13 32  1  0
 16 33  1  0
 17 34  1  0
 19 35  1  0
 20 36  1  0
 21 37  1  0
M  ISO  8  24  13  25  13  26  13  27  13  28  14  29  14  30  14  31  14
M  ISO  6  32  14  33  14  34  14  35  14  36  14  37  11
M  END
>  <minimizedAffinity>  (1) 
-5.15153313

>  <minimizedRMSD>  (1) 
1.11972332

$$$$
