
     RDKit          3D

 47 51  0  0  0  0  0  0  0  0999 V2000
   38.4960   26.5550   34.4940 C   0  0  0  0  0  0  0  0  0  0  0  0
   37.4620   27.4560   33.9480 N   0  0  0  0  0  0  0  0  0  0  0  0
   36.4260   28.0210   34.6010 C   0  0  0  0  0  0  0  0  0  0  0  0
   35.7090   28.7820   33.7420 N   0  0  0  0  0  0  0  0  0  0  0  0
   36.2660   28.7190   32.5340 C   0  0  0  0  0  0  0  0  0  0  0  0
   36.0300   29.2400   31.2890 C   0  0  0  0  0  0  0  0  0  0  0  0
   36.8000   28.9860   30.2060 N   0  0  0  0  0  0  0  0  0  0  0  0
   37.8640   28.1630   30.3950 C   0  0  0  0  0  0  0  0  0  0  0  0
   38.1580   27.6160   31.5880 N   0  0  0  0  0  0  0  0  0  0  0  0
   37.3600   27.8900   32.6650 C   0  0  0  0  0  0  0  0  0  0  0  0
   40.3450   27.3410   27.0330 C   0  0  0  0  0  0  0  0  0  0  0  0
   39.6280   28.5180   27.0920 C   0  0  0  0  0  0  0  0  0  0  0  0
   38.8330   28.7500   28.2040 C   0  0  0  0  0  0  0  0  0  0  0  0
   38.7180   27.8670   29.2490 C   0  0  0  0  0  0  0  0  0  0  0  0
   39.4440   26.7200   29.1440 C   0  0  0  0  0  0  0  0  0  0  0  0
   40.2630   26.4100   28.0720 C   0  0  0  0  0  0  0  0  0  0  0  0
   41.3190   27.1490   25.5870 S   0  0  0  0  0  0  0  0  0  0  0  0
   42.3330   28.2640   25.4670 O   0  0  0  0  0  0  0  0  0  0  0  0
   40.4330   27.2420   24.3720 O   0  0  0  0  0  0  0  0  0  0  0  0
   37.9640   25.1240   34.3780 C   0  0  0  0  0  0  0  0  0  0  0  0
   38.1350   23.9450   37.9660 C   0  0  0  0  0  0  0  0  0  0  0  0
   37.7540   24.5910   36.8040 C   0  0  0  0  0  0  0  0  0  0  0  0
   38.4230   24.4040   35.5840 C   0  0  0  0  0  0  0  0  0  0  0  0
   39.4770   23.5460   35.6000 N   0  0  0  0  0  0  0  0  0  0  0  0
   39.8220   22.9300   36.7630 C   0  0  0  0  0  0  0  0  0  0  0  0
   39.1890   23.1040   37.9270 N   0  0  0  0  0  0  0  0  0  0  0  0
   40.9360   22.0220   36.7810 C   0  0  0  0  0  0  0  0  0  0  0  0
   41.6440   21.2310   37.5930 C   0  0  0  0  0  0  0  0  0  0  0  0
   42.6800   20.4960   37.2130 C   0  0  0  0  0  0  0  0  0  0  0  0
   42.9960   20.6140   35.8340 C   0  0  0  0  0  0  0  0  0  0  0  0
   41.7130   21.8180   35.2170 S   0  0  0  0  0  0  0  0  0  0  0  0
   39.4270   26.6579   33.9172 H   0  0  0  0  0  0  0  0  0  0  0  0
   38.7140   26.8045   35.5429 H   0  0  0  0  0  0  0  0  0  0  0  0
   36.1987   27.8841   35.6685 H   0  0  0  0  0  0  0  0  0  0  0  0
   35.1626   29.9045   31.1624 H   0  0  0  0  0  0  0  0  0  0  0  0
   39.6856   29.2544   26.2769 H   0  0  0  0  0  0  0  0  0  0  0  0
   38.2647   29.6907   28.2514 H   0  0  0  0  0  0  0  0  0  0  0  0
   39.3752   25.9915   29.9653 H   0  0  0  0  0  0  0  0  0  0  0  0
   40.8278   25.4667   28.0392 H   0  0  0  0  0  0  0  0  0  0  0  0
   41.9501   25.9358   25.6690 H   0  0  0  0  0  0  0  0  0  0  0  0
   36.8649   25.1300   34.3349 H   0  0  0  0  0  0  0  0  0  0  0  0
   38.3305   24.6375   33.4620 H   0  0  0  0  0  0  0  0  0  0  0  0
   37.5882   24.1140   38.9054 H   0  0  0  0  0  0  0  0  0  0  0  0
   36.8947   25.2769   36.8369 H   0  0  0  0  0  0  0  0  0  0  0  0
   41.3462   21.1867   38.6510 H   0  0  0  0  0  0  0  0  0  0  0  0
   43.2441   19.8525   37.9042 H   0  0  0  0  0  0  0  0  0  0  0  0
   43.7991   20.1179   35.2693 H   0  0  0  0  0  0  0  0  0  0  0  0
  2  1  1  0
  2  3  1  0
  4  3  2  0
  5 10  2  0
  5  4  1  0
  6  5  1  0
  7  8  1  0
  7  6  2  0
  8  9  2  0
  9 10  1  0
 10  2  1  0
 11 12  2  0
 11 16  1  0
 12 13  1  0
 13 14  2  0
 14  8  1  0
 15 14  1  0
 16 15  2  0
 17 11  1  0
 18 17  2  0
 19 17  2  0
 20  1  1  0
 20 23  1  0
 22 21  2  0
 23 24  2  0
 23 22  1  0
 24 25  1  0
 25 27  1  0
 25 26  2  0
 26 21  1  0
 27 28  2  0
 29 28  1  0
 30 29  2  0
 31 30  1  0
 31 27  1  0
  1 32  1  0
  1 33  1  0
  3 34  1  0
  6 35  1  0
 12 36  1  0
 13 37  1  0
 15 38  1  0
 16 39  1  0
 17 40  1  0
 20 41  1  0
 20 42  1  0
 21 43  1  0
 22 44  1  0
 28 45  1  0
 29 46  1  0
 30 47  1  0
M  ISO  8  32   8  33   8  34  14  35  14  36  14  37  14  38  14  39  14
M  ISO  8  40  11  41   8  42   8  43  14  44  14  45  14  46  14  47  14
M  END
>  <minimizedAffinity>  (1) 
-5.52660275

>  <minimizedRMSD>  (1) 
2.53687286

$$$$
