
     RDKit          3D

 33 35  0  0  0  0  0  0  0  0999 V2000
   39.8450   22.7610   37.3450 C   0  0  0  0  0  0  0  0  0  0  0  0
   39.0740   23.2270   38.4410 C   0  0  0  0  0  0  0  0  0  0  0  0
   37.6850   23.2640   38.2770 C   0  0  0  0  0  0  0  0  0  0  0  0
   37.1600   22.8570   37.0950 N   0  0  0  0  0  0  0  0  0  0  0  0
   37.9150   22.4180   36.0670 C   0  0  0  0  0  0  0  0  0  0  0  0
   39.2690   22.3680   36.1880 N   0  0  0  0  0  0  0  0  0  0  0  0
   37.3910   21.9860   34.8160 N   0  0  0  0  0  0  0  0  0  0  0  0
   38.0470   22.3910   33.6960 C   0  0  0  0  0  0  0  0  0  0  0  0
   37.5420   21.9730   32.4800 C   0  0  0  0  0  0  0  0  0  0  0  0
   36.4000   21.1690   32.4630 C   0  0  0  0  0  0  0  0  0  0  0  0
   35.9560   20.8000   31.3440 O   0  0  0  0  0  0  0  0  0  0  0  0
   35.8000   20.8030   33.6010 N   0  0  0  0  0  0  0  0  0  0  0  0
   36.2880   21.2080   34.8060 C   0  0  0  0  0  0  0  0  0  0  0  0
   35.7820   20.9070   35.9010 O   0  0  0  0  0  0  0  0  0  0  0  0
   39.2880   23.3570   28.8180 C   0  0  0  0  0  0  0  0  0  0  0  0
   39.4270   22.0250   29.2000 C   0  0  0  0  0  0  0  0  0  0  0  0
   38.8870   21.5230   30.3670 C   0  0  0  0  0  0  0  0  0  0  0  0
   38.1710   22.3530   31.2150 C   0  0  0  0  0  0  0  0  0  0  0  0
   38.0340   23.6860   30.8290 C   0  0  0  0  0  0  0  0  0  0  0  0
   38.5790   24.1650   29.6650 C   0  0  0  0  0  0  0  0  0  0  0  0
   39.9910   23.9450   27.3290 S   0  0  0  0  0  0  0  0  0  0  0  0
   39.2330   23.3420   26.1770 O   0  0  0  0  0  0  0  0  0  0  0  0
   39.8240   25.4580   27.3010 O   0  0  0  0  0  0  0  0  0  0  0  0
   40.9401   22.7186   37.4398 H   0  0  0  0  0  0  0  0  0  0  0  0
   39.5486   23.5460   39.3807 H   0  0  0  0  0  0  0  0  0  0  0  0
   37.0327   23.6158   39.0898 H   0  0  0  0  0  0  0  0  0  0  0  0
   38.9434   23.0257   33.7557 H   0  0  0  0  0  0  0  0  0  0  0  0
   34.9597   20.2084   33.5655 H   0  0  0  0  0  0  0  0  0  0  0  0
   39.9905   21.3447   28.5446 H   0  0  0  0  0  0  0  0  0  0  0  0
   39.0252   20.4625   30.6243 H   0  0  0  0  0  0  0  0  0  0  0  0
   37.4719   24.3741   31.4776 H   0  0  0  0  0  0  0  0  0  0  0  0
   38.4428   25.2253   29.4058 H   0  0  0  0  0  0  0  0  0  0  0  0
   41.3164   23.6097   27.2405 H   0  0  0  0  0  0  0  0  0  0  0  0
  1  2  2  0
  3  2  1  0
  4  3  2  0
  5  6  2  0
  5  4  1  0
  6  1  1  0
  7  5  1  0
  8  7  1  0
  9  8  2  0
 10  9  1  0
 10 12  1  0
 11 10  2  0
 12 13  1  0
 13  7  1  0
 13 14  2  0
 15 16  2  0
 15 20  1  0
 16 17  1  0
 17 18  2  0
 18  9  1  0
 19 18  1  0
 20 19  2  0
 21 15  1  0
 22 21  2  0
 23 21  2  0
  1 24  1  0
  2 25  1  0
  3 26  1  0
  8 27  1  0
 12 28  1  0
 16 29  1  0
 17 30  1  0
 19 31  1  0
 20 32  1  0
 21 33  1  0
M  ISO  8  24  14  25  14  26  14  27  14  28   9  29  14  30  14  31  14
M  ISO  2  32  14  33  11
M  END
>  <minimizedAffinity>  (1) 
-5.34983301

>  <minimizedRMSD>  (1) 
1.65103745

$$$$
