
     RDKit          3D

 33 35  0  0  0  0  0  0  0  0999 V2000
   39.6310   22.6500   38.2670 N   0  0  0  0  0  0  0  0  0  0  0  0
   38.5500   23.3850   38.0770 N   0  0  0  0  0  0  0  0  0  0  0  0
   38.6080   23.9670   36.8540 C   0  0  0  0  0  0  0  0  0  0  0  0
   39.7900   23.5800   36.2330 C   0  0  0  0  0  0  0  0  0  0  0  0
   40.3960   22.7520   37.1650 C   0  0  0  0  0  0  0  0  0  0  0  0
   44.1040   20.7630   36.4130 C   0  0  0  0  0  0  0  0  0  0  0  0
   43.9220   22.0740   35.9750 C   0  0  0  0  0  0  0  0  0  0  0  0
   42.7330   22.7470   36.2020 C   0  0  0  0  0  0  0  0  0  0  0  0
   41.6900   22.1330   36.8740 C   0  0  0  0  0  0  0  0  0  0  0  0
   41.8900   20.8280   37.3020 C   0  0  0  0  0  0  0  0  0  0  0  0
   43.0700   20.1440   37.0840 C   0  0  0  0  0  0  0  0  0  0  0  0
   45.6490   20.0060   36.0720 S   0  0  0  0  0  0  0  0  0  0  0  0
   45.8340   18.7750   36.9140 O   0  0  0  0  0  0  0  0  0  0  0  0
   46.7250   21.0300   36.3180 O   0  0  0  0  0  0  0  0  0  0  0  0
   37.5590   24.8100   36.4120 O   0  0  0  0  0  0  0  0  0  0  0  0
   37.8260   26.1020   35.9750 C   0  0  0  0  0  0  0  0  0  0  0  0
   38.4660   26.9090   36.6720 O   0  0  0  0  0  0  0  0  0  0  0  0
   37.3360   26.5180   34.6520 C   0  0  0  0  0  0  0  0  0  0  0  0
   37.4410   25.6200   33.5990 C   0  0  0  0  0  0  0  0  0  0  0  0
   36.9750   26.0170   32.3400 C   0  0  0  0  0  0  0  0  0  0  0  0
   36.4530   27.2520   32.2400 N   0  0  0  0  0  0  0  0  0  0  0  0
   36.3620   28.0950   33.2660 C   0  0  0  0  0  0  0  0  0  0  0  0
   36.8020   27.7430   34.4890 N   0  0  0  0  0  0  0  0  0  0  0  0
   39.8492   22.0975   39.1085 H   0  0  0  0  0  0  0  0  0  0  0  0
   40.1580   23.8641   35.2361 H   0  0  0  0  0  0  0  0  0  0  0  0
   44.7372   22.5829   35.4397 H   0  0  0  0  0  0  0  0  0  0  0  0
   42.6161   23.7807   35.8444 H   0  0  0  0  0  0  0  0  0  0  0  0
   41.0754   20.3175   37.8367 H   0  0  0  0  0  0  0  0  0  0  0  0
   43.1846   19.1108   37.4437 H   0  0  0  0  0  0  0  0  0  0  0  0
   45.7102   19.5904   34.7680 H   0  0  0  0  0  0  0  0  0  0  0  0
   37.8790   24.6223   33.7498 H   0  0  0  0  0  0  0  0  0  0  0  0
   37.0334   25.3470   31.4695 H   0  0  0  0  0  0  0  0  0  0  0  0
   35.9220   29.0915   33.1130 H   0  0  0  0  0  0  0  0  0  0  0  0
  2  1  1  0
  3  2  2  0
  4  3  1  0
  4  5  2  0
  5  1  1  0
  6 11  2  0
  7  8  2  0
  7  6  1  0
  8  9  1  0
  9  5  1  0
  9 10  2  0
 11 10  1  0
 12 14  2  0
 12  6  1  0
 12 13  2  0
 15  3  1  0
 16 15  1  0
 16 17  2  0
 18 16  1  0
 19 18  2  0
 20 19  1  0
 21 20  2  0
 21 22  1  0
 22 23  2  0
 23 18  1  0
  1 24  1  0
  4 25  1  0
  7 26  1  0
  8 27  1  0
 10 28  1  0
 11 29  1  0
 12 30  1  0
 19 31  1  0
 20 32  1  0
 22 33  1  0
M  ISO  8  24   9  25  14  26  14  27  14  28  14  29  14  30  11  31  14
M  ISO  2  32  14  33  14
M  END
>  <minimizedAffinity>  (1) 
-5.33078861

>  <minimizedRMSD>  (1) 
1.41255808

$$$$
