
     RDKit          3D

 39 41  0  0  1  0  0  0  0  0999 V2000
   36.5080   21.3700   35.0720 C   0  0  0  0  0  0  0  0  0  0  0  0
   35.5660   20.7680   35.6500 O   0  0  0  0  0  0  0  0  0  0  0  0
   36.5040   21.3230   33.6610 N   0  0  0  0  0  0  0  0  0  0  0  0
   35.9080   20.1360   33.0630 C   0  0  0  0  0  0  0  0  0  0  0  0
   35.6750   20.3080   31.5840 C   0  0  0  0  0  0  0  0  0  0  0  0
   35.2840   21.5550   31.2000 O   0  0  0  0  0  0  0  0  0  0  0  0
   35.8110   22.6340   31.8350 C   0  0  0  0  0  0  0  0  0  0  0  0
   36.9940   22.2660   32.7050 C   0  0  2  0  0  0  0  0  0  0  0  0
   39.6480   22.5550   36.5540 C   0  0  0  0  0  0  0  0  0  0  0  0
   39.2050   23.2940   37.6430 C   0  0  0  0  0  0  0  0  0  0  0  0
   37.8350   23.3890   37.8760 C   0  0  0  0  0  0  0  0  0  0  0  0
   37.0140   22.7390   36.9990 N   0  0  0  0  0  0  0  0  0  0  0  0
   37.4650   22.0250   35.9450 C   0  0  0  0  0  0  0  0  0  0  0  0
   38.7900   21.9530   35.7490 N   0  0  0  0  0  0  0  0  0  0  0  0
   38.0420   21.8210   31.8660 N   0  0  0  0  0  0  0  0  0  0  0  0
   37.6310   21.2200   30.6260 C   0  0  0  0  0  0  0  0  0  0  0  0
   38.9050   21.0560   29.7870 C   0  0  0  0  0  0  0  0  0  0  0  0
   39.8950   20.2800   30.5360 N   0  0  0  0  0  0  0  0  0  0  0  0
   39.3310   19.7300   31.7350 C   0  0  0  0  0  0  0  0  0  0  0  0
   38.8090   20.8310   32.6310 C   0  0  0  0  0  0  0  0  0  0  0  0
   36.5831   19.2818   33.2196 H   0  0  0  0  0  0  0  0  0  0  0  0
   34.9336   19.9649   33.5438 H   0  0  0  0  0  0  0  0  0  0  0  0
   36.6132   20.0695   31.0616 H   0  0  0  0  0  0  0  0  0  0  0  0
   34.8448   19.6344   31.3252 H   0  0  0  0  0  0  0  0  0  0  0  0
   36.1401   23.3632   31.0800 H   0  0  0  0  0  0  0  0  0  0  0  0
   35.0315   23.0555   32.4867 H   0  0  0  0  0  0  0  0  0  0  0  0
   37.4310   23.0998   33.2741 H   0  0  0  0  0  0  0  0  0  0  0  0
   40.7272   22.4695   36.3588 H   0  0  0  0  0  0  0  0  0  0  0  0
   39.9226   23.7951   38.3093 H   0  0  0  0  0  0  0  0  0  0  0  0
   37.4334   23.9603   38.7259 H   0  0  0  0  0  0  0  0  0  0  0  0
   37.1683   20.2396   30.8123 H   0  0  0  0  0  0  0  0  0  0  0  0
   36.8863   21.8412   30.1069 H   0  0  0  0  0  0  0  0  0  0  0  0
   39.3190   22.0481   29.5537 H   0  0  0  0  0  0  0  0  0  0  0  0
   38.6600   20.5281   28.8536 H   0  0  0  0  0  0  0  0  0  0  0  0
   40.2363   19.5104   29.9426 H   0  0  0  0  0  0  0  0  0  0  0  0
   38.5026   19.0569   31.4692 H   0  0  0  0  0  0  0  0  0  0  0  0
   40.1138   19.1756   32.2734 H   0  0  0  0  0  0  0  0  0  0  0  0
   39.6597   21.3328   33.1152 H   0  0  0  0  0  0  0  0  0  0  0  0
   38.1438   20.3813   33.3829 H   0  0  0  0  0  0  0  0  0  0  0  0
  1  2  2  0
  1 13  1  0
  3  1  1  0
  4  3  1  0
  5  4  1  0
  6  5  1  0
  6  7  1  0
  7  8  1  0
  8  3  1  0
  9 10  2  0
 10 11  1  0
 12 11  2  0
 13 12  1  0
 14 13  2  0
 14  9  1  0
 15 20  1  0
 15  8  1  0
 16 15  1  0
 17 18  1  0
 17 16  1  0
 18 19  1  0
 19 20  1  0
  4 21  1  0
  4 22  1  0
  5 23  1  0
  5 24  1  0
  7 25  1  0
  7 26  1  0
  8 27  1  1
  9 28  1  0
 10 29  1  0
 11 30  1  0
 16 31  1  0
 16 32  1  0
 17 33  1  0
 17 34  1  0
 18 35  1  0
 19 36  1  0
 19 37  1  0
 20 38  1  0
 20 39  1  0
M  ISO  8  21  13  22  13  23  13  24  13  25  13  26  13  27  13  28  14
M  ISO  8  29  14  30  14  31  13  32  13  33  13  34  13  35   5  36  13
M  ISO  3  37  13  38  13  39  13
M  END
>  <minimizedAffinity>  (1) 
-4.52522135

>  <minimizedRMSD>  (1) 
1.2151798

$$$$
