
     RDKit          3D

 39 42  0  0  0  0  0  0  0  0999 V2000
   40.7500   22.0590   37.4700 O   0  0  0  0  0  0  0  0  0  0  0  0
   42.0120   22.0920   36.9560 C   0  0  0  0  0  0  0  0  0  0  0  0
   42.6620   23.2090   36.4820 C   0  0  0  0  0  0  0  0  0  0  0  0
   43.9030   22.9090   36.0410 N   0  0  0  0  0  0  0  0  0  0  0  0
   44.1090   21.5830   36.2120 C   0  0  0  0  0  0  0  0  0  0  0  0
   45.1780   20.7520   35.9400 C   0  0  0  0  0  0  0  0  0  0  0  0
   45.0880   19.3930   36.2350 C   0  0  0  0  0  0  0  0  0  0  0  0
   43.9240   18.8800   36.8000 C   0  0  0  0  0  0  0  0  0  0  0  0
   42.8540   19.7290   37.0690 C   0  0  0  0  0  0  0  0  0  0  0  0
   42.9470   21.0780   36.7750 C   0  0  0  0  0  0  0  0  0  0  0  0
   39.7460   22.9460   37.2330 C   0  0  0  0  0  0  0  0  0  0  0  0
   38.8880   23.2210   38.3220 C   0  0  0  0  0  0  0  0  0  0  0  0
   37.8420   24.1400   38.0870 C   0  0  0  0  0  0  0  0  0  0  0  0
   37.7230   24.6960   36.8570 N   0  0  0  0  0  0  0  0  0  0  0  0
   38.5770   24.3900   35.8600 C   0  0  0  0  0  0  0  0  0  0  0  0
   39.5700   23.5390   36.0220 N   0  0  0  0  0  0  0  0  0  0  0  0
   38.3270   25.0510   34.6230 N   0  0  0  0  0  0  0  0  0  0  0  0
   37.4450   26.2040   34.5670 C   0  0  0  0  0  0  0  0  0  0  0  0
   37.0010   26.3550   33.1110 C   0  0  0  0  0  0  0  0  0  0  0  0
   36.6960   25.0920   32.5100 N   0  0  0  0  0  0  0  0  0  0  0  0
   37.7500   24.1250   32.5220 C   0  0  0  0  0  0  0  0  0  0  0  0
   38.9010   24.6610   33.3450 C   0  0  0  0  0  0  0  0  0  0  0  0
   42.2258   24.2187   36.4646 H   0  0  0  0  0  0  0  0  0  0  0  0
   44.5781   23.5768   35.6421 H   0  0  0  0  0  0  0  0  0  0  0  0
   46.0960   21.1608   35.4927 H   0  0  0  0  0  0  0  0  0  0  0  0
   45.9363   18.7261   36.0215 H   0  0  0  0  0  0  0  0  0  0  0  0
   43.8498   17.8076   37.0331 H   0  0  0  0  0  0  0  0  0  0  0  0
   41.9329   19.3268   37.5161 H   0  0  0  0  0  0  0  0  0  0  0  0
   39.0280   22.7433   39.3029 H   0  0  0  0  0  0  0  0  0  0  0  0
   37.1356   24.4002   38.8890 H   0  0  0  0  0  0  0  0  0  0  0  0
   36.5703   26.0427   35.2142 H   0  0  0  0  0  0  0  0  0  0  0  0
   37.9603   27.1106   34.9170 H   0  0  0  0  0  0  0  0  0  0  0  0
   36.1037   26.9903   33.0773 H   0  0  0  0  0  0  0  0  0  0  0  0
   37.8303   26.8080   32.5479 H   0  0  0  0  0  0  0  0  0  0  0  0
   36.4363   25.2639   31.5282 H   0  0  0  0  0  0  0  0  0  0  0  0
   37.3848   23.1870   32.9656 H   0  0  0  0  0  0  0  0  0  0  0  0
   38.0876   23.9305   31.4933 H   0  0  0  0  0  0  0  0  0  0  0  0
   39.6639   23.8818   33.4896 H   0  0  0  0  0  0  0  0  0  0  0  0
   39.3940   25.5090   32.8472 H   0  0  0  0  0  0  0  0  0  0  0  0
  2  1  1  0
  3  2  2  0
  4  5  1  0
  4  3  1  0
  5 10  2  0
  6  5  1  0
  6  7  2  0
  7  8  1  0
  8  9  2  0
 10  2  1  0
 10  9  1  0
 11  1  1  0
 11 12  2  0
 13 12  1  0
 14 13  2  0
 15 16  2  0
 15 14  1  0
 16 11  1  0
 17 15  1  0
 18 17  1  0
 19 18  1  0
 20 21  1  0
 20 19  1  0
 21 22  1  0
 22 17  1  0
  3 23  1  0
  4 24  1  0
  6 25  1  0
  7 26  1  0
  8 27  1  0
  9 28  1  0
 12 29  1  0
 13 30  1  0
 18 31  1  0
 18 32  1  0
 19 33  1  0
 19 34  1  0
 20 35  1  0
 21 36  1  0
 21 37  1  0
 22 38  1  0
 22 39  1  0
M  ISO  8  23  14  24   9  25  14  26  14  27  14  28  14  29  14  30  14
M  ISO  8  31  13  32  13  33  13  34  13  35   5  36  13  37  13  38  13
M  ISO  1  39  13
M  END
>  <minimizedAffinity>  (1) 
-5.34869385

>  <minimizedRMSD>  (1) 
1.30823898

$$$$
