
     RDKit          3D

 38 41  0  0  1  0  0  0  0  0999 V2000
   38.2250   24.1680   34.7560 C   0  0  0  0  0  0  0  0  0  0  0  0
   38.3180   25.4330   34.2040 C   0  0  0  0  0  0  0  0  0  0  0  0
   37.9680   25.2360   32.8940 N   0  0  0  0  0  0  0  0  0  0  0  0
   37.6990   23.9410   32.7320 C   0  0  0  0  0  0  0  0  0  0  0  0
   37.8510   23.2460   33.8790 N   0  0  0  0  0  0  0  0  0  0  0  0
   38.5060   23.8570   36.1590 C   0  0  0  0  0  0  0  0  0  0  0  0
   39.6540   23.1790   36.5350 C   0  0  0  0  0  0  0  0  0  0  0  0
   39.8910   22.8970   37.8860 C   0  0  0  0  0  0  0  0  0  0  0  0
   38.9720   23.3100   38.7700 N   0  0  0  0  0  0  0  0  0  0  0  0
   37.8470   23.9760   38.4020 C   0  0  0  0  0  0  0  0  0  0  0  0
   37.6160   24.2470   37.1060 N   0  0  0  0  0  0  0  0  0  0  0  0
   37.6270   21.8400   33.9910 C   0  0  1  0  0  0  0  0  0  0  0  0
   36.4970   21.2580   34.6870 C   0  0  0  0  0  0  0  0  0  0  0  0
   36.4260   21.3550   33.1860 C   0  0  2  0  0  0  0  0  0  0  0  0
   36.5060   20.1400   32.4530 N   0  0  0  0  0  0  0  0  0  0  0  0
   36.5060   20.4740   31.0410 C   0  0  0  0  0  0  0  0  0  0  0  0
   36.2850   19.2860   30.1450 C   0  0  0  0  0  0  0  0  0  0  0  0
   36.4130   18.0160   30.8280 N   0  0  0  0  0  0  0  0  0  0  0  0
   35.6280   17.9210   32.0150 C   0  0  0  0  0  0  0  0  0  0  0  0
   35.4130   19.2310   32.7170 C   0  0  0  0  0  0  0  0  0  0  0  0
   38.6045   26.3728   34.6987 H   0  0  0  0  0  0  0  0  0  0  0  0
   37.3897   23.4917   31.7768 H   0  0  0  0  0  0  0  0  0  0  0  0
   40.3799   22.8619   35.7718 H   0  0  0  0  0  0  0  0  0  0  0  0
   40.7944   22.3586   38.2086 H   0  0  0  0  0  0  0  0  0  0  0  0
   37.1231   24.2944   39.1666 H   0  0  0  0  0  0  0  0  0  0  0  0
   38.7040   21.6378   34.0872 H   0  0  0  0  0  0  0  0  0  0  0  0
   36.6008   20.2724   35.1642 H   0  0  0  0  0  0  0  0  0  0  0  0
   35.8467   21.5961   35.5073 H   0  0  0  0  0  0  0  0  0  0  0  0
   35.7612   21.8036   32.4332 H   0  0  0  0  0  0  0  0  0  0  0  0
   35.7045   21.2042   30.8556 H   0  0  0  0  0  0  0  0  0  0  0  0
   37.5009   20.8786   30.8035 H   0  0  0  0  0  0  0  0  0  0  0  0
   37.0254   19.3204   29.3322 H   0  0  0  0  0  0  0  0  0  0  0  0
   35.2523   19.3500   29.7716 H   0  0  0  0  0  0  0  0  0  0  0  0
   36.1186   17.2689   30.1830 H   0  0  0  0  0  0  0  0  0  0  0  0
   34.6445   17.5082   31.7461 H   0  0  0  0  0  0  0  0  0  0  0  0
   36.1846   17.2767   32.7115 H   0  0  0  0  0  0  0  0  0  0  0  0
   35.3457   19.0529   33.8004 H   0  0  0  0  0  0  0  0  0  0  0  0
   34.4813   19.6820   32.3447 H   0  0  0  0  0  0  0  0  0  0  0  0
  1  6  1  0
  2  1  2  0
  3  2  1  0
  4  3  2  0
  4  5  1  0
  5 12  1  0
  5  1  1  0
  6  7  2  0
  6 11  1  0
  7  8  1  0
  8  9  2  0
 10  9  1  0
 11 10  2  0
 12 13  1  0
 14 12  1  0
 14 13  1  0
 15 20  1  0
 15 14  1  0
 16 15  1  0
 17 18  1  0
 17 16  1  0
 18 19  1  0
 19 20  1  0
  2 21  1  0
  4 22  1  0
  7 23  1  0
  8 24  1  0
 10 25  1  0
 12 26  1  6
 13 27  1  0
 13 28  1  0
 14 29  1  1
 16 30  1  0
 16 31  1  0
 17 32  1  0
 17 33  1  0
 18 34  1  0
 19 35  1  0
 19 36  1  0
 20 37  1  0
 20 38  1  0
M  ISO  8  21  14  22  14  23  14  24  14  25  14  26  13  27  13  28  13
M  ISO  8  29  13  30  13  31  13  32  13  33  13  34   5  35  13  36  13
M  ISO  2  37  13  38  13
M  END
>  <minimizedAffinity>  (1) 
-4.86873341

>  <minimizedRMSD>  (1) 
1.28455532

$$$$
