
     RDKit          3D

 31 33  0  0  0  0  0  0  0  0999 V2000
   42.5410   20.8230   37.0360 C   0  0  0  0  0  0  0  0  0  0  0  0
   41.4550   21.5040   37.5960 C   0  0  0  0  0  0  0  0  0  0  0  0
   40.5790   22.1620   36.7160 C   0  0  0  0  0  0  0  0  0  0  0  0
   40.8410   22.0970   35.3690 N   0  0  0  0  0  0  0  0  0  0  0  0
   41.8940   21.4300   34.8920 C   0  0  0  0  0  0  0  0  0  0  0  0
   42.7470   20.7920   35.7140 N   0  0  0  0  0  0  0  0  0  0  0  0
   42.1490   21.3730   33.4970 N   0  0  0  0  0  0  0  0  0  0  0  0
   41.9090   20.2210   32.6760 C   0  0  0  0  0  0  0  0  0  0  0  0
   41.0700   20.5110   31.4590 C   0  0  0  0  0  0  0  0  0  0  0  0
   41.4220   21.7220   30.7900 N   0  0  0  0  0  0  0  0  0  0  0  0
   41.6790   22.8290   31.6740 C   0  0  0  0  0  0  0  0  0  0  0  0
   42.6810   22.4800   32.7610 C   0  0  0  0  0  0  0  0  0  0  0  0
   39.4470   22.8730   37.2880 C   0  0  0  0  0  0  0  0  0  0  0  0
   38.5970   23.7040   36.5380 C   0  0  0  0  0  0  0  0  0  0  0  0
   37.6750   24.1800   37.4110 N   0  0  0  0  0  0  0  0  0  0  0  0
   37.9730   23.6510   38.6240 C   0  0  0  0  0  0  0  0  0  0  0  0
   39.0290   22.8680   38.5630 N   0  0  0  0  0  0  0  0  0  0  0  0
   43.2444   20.2990   37.6999 H   0  0  0  0  0  0  0  0  0  0  0  0
   41.2929   21.5237   38.6838 H   0  0  0  0  0  0  0  0  0  0  0  0
   42.8790   19.8234   32.3428 H   0  0  0  0  0  0  0  0  0  0  0  0
   41.3489   19.4995   33.2890 H   0  0  0  0  0  0  0  0  0  0  0  0
   41.1868   19.6774   30.7509 H   0  0  0  0  0  0  0  0  0  0  0  0
   40.0327   20.6274   31.8061 H   0  0  0  0  0  0  0  0  0  0  0  0
   42.2711   21.5489   30.2332 H   0  0  0  0  0  0  0  0  0  0  0  0
   42.0758   23.6680   31.0836 H   0  0  0  0  0  0  0  0  0  0  0  0
   40.7307   23.0947   32.1641 H   0  0  0  0  0  0  0  0  0  0  0  0
   43.6444   22.2021   32.3086 H   0  0  0  0  0  0  0  0  0  0  0  0
   42.8491   23.3414   33.4241 H   0  0  0  0  0  0  0  0  0  0  0  0
   38.6657   23.9235   35.4623 H   0  0  0  0  0  0  0  0  0  0  0  0
   37.4034   23.8514   39.5434 H   0  0  0  0  0  0  0  0  0  0  0  0
   39.4538   22.3499   39.3453 H   0  0  0  0  0  0  0  0  0  0  0  0
  1  2  2  0
  3 13  1  0
  3  2  1  0
  4  3  2  0
  5  4  1  0
  5  6  2  0
  6  1  1  0
  7  5  1  0
  8  7  1  0
  9  8  1  0
 10  9  1  0
 10 11  1  0
 11 12  1  0
 12  7  1  0
 13 17  1  0
 14 13  2  0
 14 15  1  0
 15 16  2  0
 17 16  1  0
  1 18  1  0
  2 19  1  0
  8 20  1  0
  8 21  1  0
  9 22  1  0
  9 23  1  0
 10 24  1  0
 11 25  1  0
 11 26  1  0
 12 27  1  0
 12 28  1  0
 14 29  1  0
 16 30  1  0
 17 31  1  0
M  ISO  8  18  14  19  14  20  13  21  13  22  13  23  13  24   5  25  13
M  ISO  6  26  13  27  13  28  13  29  14  30  14  31   9
M  END
>  <minimizedAffinity>  (1) 
-3.97394538

>  <minimizedRMSD>  (1) 
0.129267335

$$$$
