
     RDKit          3D

 39 42  0  0  0  0  0  0  0  0999 V2000
   37.7190   27.2000   35.0600 C   0  0  0  0  0  0  0  0  0  0  0  0
   38.9600   26.4460   35.0300 C   0  0  0  0  0  0  0  0  0  0  0  0
   40.0840   26.9640   34.3920 C   0  0  0  0  0  0  0  0  0  0  0  0
   41.2650   26.2640   34.3690 C   0  0  0  0  0  0  0  0  0  0  0  0
   41.3820   25.0160   34.9790 C   0  0  0  0  0  0  0  0  0  0  0  0
   40.2610   24.5080   35.6110 C   0  0  0  0  0  0  0  0  0  0  0  0
   40.3530   23.2650   36.2270 C   0  0  0  0  0  0  0  0  0  0  0  0
   39.2630   22.7100   36.8720 C   0  0  0  0  0  0  0  0  0  0  0  0
   38.0650   23.4130   36.8990 C   0  0  0  0  0  0  0  0  0  0  0  0
   38.0060   24.6560   36.2720 C   0  0  0  0  0  0  0  0  0  0  0  0
   39.0730   25.2340   35.6220 C   0  0  0  0  0  0  0  0  0  0  0  0
   36.3100   28.7230   32.0330 C   0  0  0  0  0  0  0  0  0  0  0  0
   35.8620   27.6580   31.2800 C   0  0  0  0  0  0  0  0  0  0  0  0
   36.0410   26.3620   31.8180 C   0  0  0  0  0  0  0  0  0  0  0  0
   36.6400   26.2370   33.0370 N   0  0  0  0  0  0  0  0  0  0  0  0
   37.0500   27.2960   33.7150 C   0  0  0  0  0  0  0  0  0  0  0  0
   36.8880   28.5390   33.2210 N   0  0  0  0  0  0  0  0  0  0  0  0
   35.5940   25.1970   31.0780 C   0  0  0  0  0  0  0  0  0  0  0  0
   34.5090   25.2480   30.4510 O   0  0  0  0  0  0  0  0  0  0  0  0
   36.3290   23.9590   31.0150 C   0  0  0  0  0  0  0  0  0  0  0  0
   35.7200   22.8000   31.4520 C   0  0  0  0  0  0  0  0  0  0  0  0
   36.4180   21.5880   31.3990 C   0  0  0  0  0  0  0  0  0  0  0  0
   37.6830   21.5870   30.9150 N   0  0  0  0  0  0  0  0  0  0  0  0
   38.2560   22.7420   30.4910 C   0  0  0  0  0  0  0  0  0  0  0  0
   37.6040   23.9310   30.5310 N   0  0  0  0  0  0  0  0  0  0  0  0
   37.0277   26.7076   35.7598 H   0  0  0  0  0  0  0  0  0  0  0  0
   37.9668   28.2243   35.3754 H   0  0  0  0  0  0  0  0  0  0  0  0
   40.0251   27.9462   33.9003 H   0  0  0  0  0  0  0  0  0  0  0  0
   42.1376   26.6973   33.8583 H   0  0  0  0  0  0  0  0  0  0  0  0
   42.3290   24.4567   34.9586 H   0  0  0  0  0  0  0  0  0  0  0  0
   41.3057   22.7157   36.2009 H   0  0  0  0  0  0  0  0  0  0  0  0
   39.3433   21.7259   37.3568 H   0  0  0  0  0  0  0  0  0  0  0  0
   37.1813   22.9970   37.4049 H   0  0  0  0  0  0  0  0  0  0  0  0
   37.0538   25.2060   36.2979 H   0  0  0  0  0  0  0  0  0  0  0  0
   36.1882   29.7454   31.6459 H   0  0  0  0  0  0  0  0  0  0  0  0
   35.3848   27.8102   30.3007 H   0  0  0  0  0  0  0  0  0  0  0  0
   34.6911   22.8287   31.8400 H   0  0  0  0  0  0  0  0  0  0  0  0
   35.9485   20.6548   31.7436 H   0  0  0  0  0  0  0  0  0  0  0  0
   39.2843   22.7130   30.1016 H   0  0  0  0  0  0  0  0  0  0  0  0
  2  1  1  0
  2 11  1  0
  3  2  2  0
  4  3  1  0
  4  5  2  0
  5  6  1  0
  6 11  2  0
  6  7  1  0
  7  8  2  0
  8  9  1  0
 10  9  2  0
 11 10  1  0
 12 17  2  0
 13 14  2  0
 13 12  1  0
 14 15  1  0
 15 16  2  0
 16  1  1  0
 17 16  1  0
 18 14  1  0
 19 18  2  0
 20 18  1  0
 20 21  2  0
 22 21  1  0
 23 22  2  0
 24 25  2  0
 24 23  1  0
 25 20  1  0
  1 26  1  0
  1 27  1  0
  3 28  1  0
  4 29  1  0
  5 30  1  0
  7 31  1  0
  8 32  1  0
  9 33  1  0
 10 34  1  0
 12 35  1  0
 13 36  1  0
 21 37  1  0
 22 38  1  0
 24 39  1  0
M  ISO  8  26   8  27   8  28  14  29  14  30  14  31  14  32  14  33  14
M  ISO  6  34  14  35  14  36  14  37  14  38  14  39  14
M  END
>  <minimizedAffinity>  (1) 
-6.12091494

>  <minimizedRMSD>  (1) 
2.1032908

$$$$
