
     RDKit          3D

 33 35  0  0  0  0  0  0  0  0999 V2000
   37.3720   25.8010   35.4600 C   0  0  0  0  0  0  0  0  0  0  0  0
   37.7210   26.7860   34.5180 C   0  0  0  0  0  0  0  0  0  0  0  0
   39.0030   26.8240   33.9770 C   0  0  0  0  0  0  0  0  0  0  0  0
   39.8600   25.8600   34.4250 N   0  0  0  0  0  0  0  0  0  0  0  0
   39.5070   24.9140   35.3380 C   0  0  0  0  0  0  0  0  0  0  0  0
   38.2590   24.9040   35.8390 N   0  0  0  0  0  0  0  0  0  0  0  0
   40.5200   23.9430   35.7480 C   0  0  0  0  0  0  0  0  0  0  0  0
   41.7220   24.0630   35.1600 C   0  0  0  0  0  0  0  0  0  0  0  0
   42.7350   22.6880   35.9150 S   0  0  0  0  0  0  0  0  0  0  0  0
   41.2030   22.1830   36.9620 C   0  0  0  0  0  0  0  0  0  0  0  0
   40.5100   22.9590   36.5850 N   0  0  0  0  0  0  0  0  0  0  0  0
   41.2210   21.0970   37.8750 N   0  0  0  0  0  0  0  0  0  0  0  0
   36.8210   27.8290   34.0370 C   0  0  0  0  0  0  0  0  0  0  0  0
   36.3790   28.8910   34.8470 C   0  0  0  0  0  0  0  0  0  0  0  0
   35.5420   29.7820   34.2640 C   0  0  0  0  0  0  0  0  0  0  0  0
   35.1970   29.5860   32.9580 C   0  0  0  0  0  0  0  0  0  0  0  0
   36.1030   28.0220   32.4580 S   0  0  0  0  0  0  0  0  0  0  0  0
   34.3900   30.2490   31.9840 C   0  0  0  0  0  0  0  0  0  0  0  0
   34.8610   30.8010   31.0080 O   0  0  0  0  0  0  0  0  0  0  0  0
   32.9590   30.2850   32.1330 N   0  0  0  0  0  0  0  0  0  0  0  0
   34.8240   31.2380   35.0080 S   0  0  0  0  0  0  0  0  0  0  0  0
   33.2370   30.7570   35.7300 C   0  0  0  0  0  0  0  0  0  0  0  0
   32.1900   31.4680   35.1710 F   0  0  0  0  0  0  0  0  0  0  0  0
   33.2330   30.9740   37.1110 F   0  0  0  0  0  0  0  0  0  0  0  0
   33.0110   29.4140   35.5690 F   0  0  0  0  0  0  0  0  0  0  0  0
   36.3560   25.7799   35.8810 H   0  0  0  0  0  0  0  0  0  0  0  0
   39.3056   27.5803   33.2378 H   0  0  0  0  0  0  0  0  0  0  0  0
   42.0368   24.8010   34.4075 H   0  0  0  0  0  0  0  0  0  0  0  0
   40.3752   20.8637   38.4145 H   0  0  0  0  0  0  0  0  0  0  0  0
   42.0799   20.5420   37.9983 H   0  0  0  0  0  0  0  0  0  0  0  0
   36.6956   28.9921   35.8956 H   0  0  0  0  0  0  0  0  0  0  0  0
   32.3798   30.7640   31.4288 H   0  0  0  0  0  0  0  0  0  0  0  0
   32.5141   29.8318   32.9439 H   0  0  0  0  0  0  0  0  0  0  0  0
  1  6  2  0
  2  1  1  0
  3  4  1  0
  3  2  2  0
  4  5  2  0
  5  7  1  0
  5  6  1  0
  7 11  1  0
  8  7  2  0
  8  9  1  0
  9 10  1  0
 10 12  1  0
 11 10  2  0
 13  2  1  0
 13 14  2  0
 15 14  1  0
 15 21  1  0
 16 15  2  0
 17 16  1  0
 17 13  1  0
 18 20  1  0
 18 16  1  0
 19 18  2  0
 21 22  1  0
 22 24  1  0
 23 22  1  0
 25 22  1  0
  1 26  1  0
  3 27  1  0
  8 28  1  0
 12 29  1  0
 12 30  1  0
 14 31  1  0
 20 32  1  0
 20 33  1  0
M  ISO  4  26  14  27  14  28  14  31  14
M  END
>  <minimizedAffinity>  (1) 
-4.98934364

>  <minimizedRMSD>  (1) 
1.32445598

$$$$
