
     RDKit          3D

 50 55  0  0  0  0  0  0  0  0999 V2000
   38.8170   23.3560   38.2800 C   0  0  0  0  0  0  0  0  0  0  0  0
   38.1440   23.8980   37.1690 C   0  0  0  0  0  0  0  0  0  0  0  0
   38.8010   23.8190   35.9330 C   0  0  0  0  0  0  0  0  0  0  0  0
   39.9750   23.2400   35.9900 N   0  0  0  0  0  0  0  0  0  0  0  0
   40.6440   22.7170   37.0160 C   0  0  0  0  0  0  0  0  0  0  0  0
   40.0110   22.7980   38.1790 N   0  0  0  0  0  0  0  0  0  0  0  0
   41.9340   22.1570   36.6480 C   0  0  0  0  0  0  0  0  0  0  0  0
   42.0910   20.8050   36.4230 C   0  0  0  0  0  0  0  0  0  0  0  0
   43.2880   20.2070   36.0690 C   0  0  0  0  0  0  0  0  0  0  0  0
   44.4160   20.9790   35.9220 C   0  0  0  0  0  0  0  0  0  0  0  0
   44.3030   22.3130   36.1350 C   0  0  0  0  0  0  0  0  0  0  0  0
   45.4430   23.0770   35.9820 C   0  0  0  0  0  0  0  0  0  0  0  0
   45.4170   24.4430   36.1770 C   0  0  0  0  0  0  0  0  0  0  0  0
   44.1890   25.0150   36.5340 C   0  0  0  0  0  0  0  0  0  0  0  0
   43.0800   24.2050   36.6730 C   0  0  0  0  0  0  0  0  0  0  0  0
   43.0890   22.8540   36.4840 C   0  0  0  0  0  0  0  0  0  0  0  0
   38.2160   24.3300   34.7380 N   0  0  0  0  0  0  0  0  0  0  0  0
   37.8660   25.6140   34.6310 C   0  0  0  0  0  0  0  0  0  0  0  0
   37.3800   25.7630   33.3780 C   0  0  0  0  0  0  0  0  0  0  0  0
   37.4410   24.5930   32.7540 N   0  0  0  0  0  0  0  0  0  0  0  0
   37.9710   23.6710   33.6070 C   0  0  0  0  0  0  0  0  0  0  0  0
   38.1670   22.3280   33.1150 C   0  0  0  0  0  0  0  0  0  0  0  0
   39.1940   21.4820   32.8080 C   0  0  0  0  0  0  0  0  0  0  0  0
   38.8720   20.3000   32.2790 N   0  0  0  0  0  0  0  0  0  0  0  0
   37.5350   20.2890   32.2000 C   0  0  0  0  0  0  0  0  0  0  0  0
   36.6840   19.3150   31.7310 C   0  0  0  0  0  0  0  0  0  0  0  0
   35.3240   19.5340   31.7480 C   0  0  0  0  0  0  0  0  0  0  0  0
   34.8160   20.7200   32.2340 C   0  0  0  0  0  0  0  0  0  0  0  0
   35.7170   21.6450   32.6850 C   0  0  0  0  0  0  0  0  0  0  0  0
   37.1120   21.4920   32.6970 C   0  0  0  0  0  0  0  0  0  0  0  0
   36.8460   26.9860   32.7170 C   0  0  0  0  0  0  0  0  0  0  0  0
   36.2480   27.8530   33.5870 F   0  0  0  0  0  0  0  0  0  0  0  0
   35.8770   26.6310   31.7570 F   0  0  0  0  0  0  0  0  0  0  0  0
   37.8610   27.6000   31.9620 F   0  0  0  0  0  0  0  0  0  0  0  0
   38.3325   23.3982   39.2666 H   0  0  0  0  0  0  0  0  0  0  0  0
   37.1509   24.3610   37.2658 H   0  0  0  0  0  0  0  0  0  0  0  0
   41.2068   20.1598   36.5321 H   0  0  0  0  0  0  0  0  0  0  0  0
   43.3365   19.1202   35.9062 H   0  0  0  0  0  0  0  0  0  0  0  0
   45.3793   20.5287   35.6406 H   0  0  0  0  0  0  0  0  0  0  0  0
   46.3875   22.5888   35.7000 H   0  0  0  0  0  0  0  0  0  0  0  0
   46.3221   25.0566   36.0572 H   0  0  0  0  0  0  0  0  0  0  0  0
   44.1093   26.0992   36.7019 H   0  0  0  0  0  0  0  0  0  0  0  0
   42.1281   24.6792   36.9541 H   0  0  0  0  0  0  0  0  0  0  0  0
   37.9548   26.3916   35.4040 H   0  0  0  0  0  0  0  0  0  0  0  0
   40.2420   21.7629   32.9890 H   0  0  0  0  0  0  0  0  0  0  0  0
   39.5179   19.5511   31.9910 H   0  0  0  0  0  0  0  0  0  0  0  0
   37.0871   18.3672   31.3448 H   0  0  0  0  0  0  0  0  0  0  0  0
   34.6401   18.7589   31.3720 H   0  0  0  0  0  0  0  0  0  0  0  0
   33.7335   20.9139   32.2580 H   0  0  0  0  0  0  0  0  0  0  0  0
   35.3127   22.5919   33.0723 H   0  0  0  0  0  0  0  0  0  0  0  0
  2  1  2  0
  3  4  2  0
  3  2  1  0
  4  5  1  0
  5  6  2  0
  6  1  1  0
  7  5  1  0
  8  7  2  0
  9  8  1  0
 10  9  2  0
 10 11  1  0
 11 16  2  0
 12 11  1  0
 12 13  2  0
 13 14  1  0
 14 15  2  0
 16  7  1  0
 16 15  1  0
 17  3  1  0
 18 17  1  0
 19 18  2  0
 20 19  1  0
 20 21  2  0
 21 17  1  0
 22 21  1  0
 23 22  2  0
 24 23  1  0
 25 24  1  0
 25 30  2  0
 26 27  2  0
 26 25  1  0
 27 28  1  0
 28 29  2  0
 29 30  1  0
 30 22  1  0
 31 19  1  0
 31 32  1  0
 33 31  1  0
 34 31  1  0
  1 35  1  0
  2 36  1  0
  8 37  1  0
  9 38  1  0
 10 39  1  0
 12 40  1  0
 13 41  1  0
 14 42  1  0
 15 43  1  0
 18 44  1  0
 23 45  1  0
 24 46  1  0
 26 47  1  0
 27 48  1  0
 28 49  1  0
 29 50  1  0
M  END
>  <minimizedAffinity>  (1) 
-7.50307035

>  <minimizedRMSD>  (1) 
5.24635124

$$$$
