
     RDKit          3D

 47 51  0  0  1  0  0  0  0  0999 V2000
   37.3560   25.9240   32.9320 N   0  0  0  0  0  0  0  0  0  0  0  0
   36.8960   24.8590   32.2770 C   0  0  0  0  0  0  0  0  0  0  0  0
   35.8410   25.1360   31.4310 C   0  0  0  0  0  0  0  0  0  0  0  0
   35.6450   26.4480   31.5790 N   0  0  0  0  0  0  0  0  0  0  0  0
   36.5500   26.9100   32.4720 C   0  0  0  0  0  0  0  0  0  0  0  0
   36.5610   28.3940   32.8110 C   0  0  1  0  0  0  0  0  0  0  0  0
   35.7780   29.2870   31.9200 C   0  0  0  0  0  0  0  0  0  0  0  0
   35.2710   29.0040   33.2780 C   0  0  2  0  0  0  0  0  0  0  0  0
   35.1340   29.9370   34.3690 C   0  0  0  0  0  0  0  0  0  0  0  0
   36.1660   30.7260   34.9090 C   0  0  0  0  0  0  0  0  0  0  0  0
   35.7560   31.4500   35.9330 N   0  0  0  0  0  0  0  0  0  0  0  0
   34.4610   31.2250   36.1730 C   0  0  0  0  0  0  0  0  0  0  0  0
   33.5570   31.6990   37.0820 C   0  0  0  0  0  0  0  0  0  0  0  0
   32.2470   31.2930   37.0950 C   0  0  0  0  0  0  0  0  0  0  0  0
   31.8710   30.3750   36.1420 C   0  0  0  0  0  0  0  0  0  0  0  0
   32.7880   29.9060   35.2340 C   0  0  0  0  0  0  0  0  0  0  0  0
   34.1060   30.3080   35.2130 C   0  0  0  0  0  0  0  0  0  0  0  0
   38.3730   26.1520   33.8840 C   0  0  0  0  0  0  0  0  0  0  0  0
   37.8940   26.0990   35.2880 C   0  0  1  0  0  0  0  0  0  0  0  0
   38.5000   23.5060   37.9800 C   0  0  0  0  0  0  0  0  0  0  0  0
   37.8960   24.6050   37.3410 C   0  0  0  0  0  0  0  0  0  0  0  0
   38.4590   24.9690   36.0650 C   0  0  0  0  0  0  0  0  0  0  0  0
   39.5250   24.2500   35.5490 N   0  0  0  0  0  0  0  0  0  0  0  0
   40.0440   23.2190   36.2120 C   0  0  0  0  0  0  0  0  0  0  0  0
   39.5330   22.8410   37.4350 N   0  0  0  0  0  0  0  0  0  0  0  0
   38.1920   27.4160   35.9940 C   0  0  0  0  0  0  0  0  0  0  0  0
   37.3184   23.8507   32.3992 H   0  0  0  0  0  0  0  0  0  0  0  0
   35.2896   24.4374   30.7846 H   0  0  0  0  0  0  0  0  0  0  0  0
   37.5933   28.3697   33.1901 H   0  0  0  0  0  0  0  0  0  0  0  0
   36.1603   30.2892   31.6762 H   0  0  0  0  0  0  0  0  0  0  0  0
   35.3625   29.1948   30.9057 H   0  0  0  0  0  0  0  0  0  0  0  0
   34.3192   28.6324   33.6854 H   0  0  0  0  0  0  0  0  0  0  0  0
   37.1957   30.7379   34.5222 H   0  0  0  0  0  0  0  0  0  0  0  0
   36.3500   32.0969   36.4711 H   0  0  0  0  0  0  0  0  0  0  0  0
   33.8922   32.4325   37.8301 H   0  0  0  0  0  0  0  0  0  0  0  0
   31.5306   31.6832   37.8329 H   0  0  0  0  0  0  0  0  0  0  0  0
   30.8320   30.0154   36.1072 H   0  0  0  0  0  0  0  0  0  0  0  0
   32.4538   29.1724   34.4856 H   0  0  0  0  0  0  0  0  0  0  0  0
   39.1509   25.3854   33.7526 H   0  0  0  0  0  0  0  0  0  0  0  0
   38.7551   27.1689   33.7112 H   0  0  0  0  0  0  0  0  0  0  0  0
   36.8079   25.9321   35.2380 H   0  0  0  0  0  0  0  0  0  0  0  0
   38.1140   23.1807   38.9573 H   0  0  0  0  0  0  0  0  0  0  0  0
   37.0504   25.1500   37.7859 H   0  0  0  0  0  0  0  0  0  0  0  0
   40.8890   22.6632   35.7796 H   0  0  0  0  0  0  0  0  0  0  0  0
   38.1577   27.2642   37.0829 H   0  0  0  0  0  0  0  0  0  0  0  0
   39.1927   27.7690   35.7044 H   0  0  0  0  0  0  0  0  0  0  0  0
   37.4407   28.1655   35.7044 H   0  0  0  0  0  0  0  0  0  0  0  0
  1 18  1  0
  2  1  1  0
  3  4  1  0
  3  2  2  0
  4  5  2  0
  5  6  1  0
  5  1  1  0
  6  8  1  0
  7  6  1  0
  7  8  1  0
  8  9  1  0
  9 10  2  0
  9 17  1  0
 10 11  1  0
 11 12  1  0
 12 13  2  0
 13 14  1  0
 15 14  2  0
 16 15  1  0
 17 16  2  0
 17 12  1  0
 18 19  1  0
 19 26  1  0
 19 22  1  0
 21 20  2  0
 22 21  1  0
 23 22  2  0
 23 24  1  0
 24 25  2  0
 25 20  1  0
  2 27  1  0
  3 28  1  0
  6 29  1  1
  7 30  1  0
  7 31  1  0
  8 32  1  6
 10 33  1  0
 11 34  1  0
 13 35  1  0
 14 36  1  0
 15 37  1  0
 16 38  1  0
 18 39  1  0
 18 40  1  0
 19 41  1  6
 20 42  1  0
 21 43  1  0
 24 44  1  0
 26 45  1  0
 26 46  1  0
 26 47  1  0
M  ISO  8  27  14  28  14  29  13  30  13  31  13  32  13  33  14  34   9
M  ISO  8  35  14  36  14  37  14  38  14  39   8  40   8  41   8  42  14
M  ISO  5  43  14  44  14  45   8  46   8  47   8
M  END
>  <minimizedAffinity>  (1) 
-6.25994253

>  <minimizedRMSD>  (1) 
1.28764582

$$$$
