
     RDKit          3D

 53 59  0  0  1  0  0  0  0  0999 V2000
   38.2900   23.6400   38.3010 C   0  0  0  0  0  0  0  0  0  0  0  0
   39.3780   22.8640   37.9030 C   0  0  0  0  0  0  0  0  0  0  0  0
   39.9610   23.1500   36.6680 C   0  0  0  0  0  0  0  0  0  0  0  0
   39.4650   24.1620   35.8920 N   0  0  0  0  0  0  0  0  0  0  0  0
   38.4280   24.8740   36.3120 C   0  0  0  0  0  0  0  0  0  0  0  0
   37.8330   24.6260   37.5040 N   0  0  0  0  0  0  0  0  0  0  0  0
   37.7640   26.0250   35.6360 C   0  0  1  0  0  0  0  0  0  0  0  0
   38.5100   27.4050   35.8170 C   0  0  0  0  0  0  0  0  0  0  0  0
   38.3990   26.7370   34.5030 C   0  0  2  0  0  0  0  0  0  0  0  0
   37.6680   27.4390   33.4580 C   0  0  0  0  0  0  0  0  0  0  0  0
   36.4400   28.0150   33.8150 C   0  0  0  0  0  0  0  0  0  0  0  0
   35.9080   28.5950   32.7230 N   0  0  0  0  0  0  0  0  0  0  0  0
   36.7040   28.4450   31.6490 C   0  0  0  0  0  0  0  0  0  0  0  0
   36.7200   28.7940   30.3150 C   0  0  0  0  0  0  0  0  0  0  0  0
   37.7710   28.4470   29.4800 C   0  0  0  0  0  0  0  0  0  0  0  0
   38.8470   27.7210   30.0000 C   0  0  0  0  0  0  0  0  0  0  0  0
   38.8230   27.3790   31.3280 C   0  0  0  0  0  0  0  0  0  0  0  0
   37.7710   27.7320   32.1360 C   0  0  0  0  0  0  0  0  0  0  0  0
   41.0120   22.3140   36.4050 O   0  0  0  0  0  0  0  0  0  0  0  0
   42.3840   22.6680   36.6710 C   0  0  1  0  0  0  0  0  0  0  0  0
   43.3630   21.7340   36.1660 C   0  0  0  0  0  0  0  0  0  0  0  0
   43.1390   22.9750   35.3510 C   0  0  2  0  0  0  0  0  0  0  0  0
   44.1950   23.9670   35.3900 N   0  0  0  0  0  0  0  0  0  0  0  0
   45.4790   23.9190   35.8390 C   0  0  0  0  0  0  0  0  0  0  0  0
   46.0580   25.1290   35.6450 N   0  0  0  0  0  0  0  0  0  0  0  0
   45.1150   25.9290   35.0690 C   0  0  0  0  0  0  0  0  0  0  0  0
   45.2270   27.2540   34.6780 C   0  0  0  0  0  0  0  0  0  0  0  0
   46.2800   27.9310   34.8160 O   0  0  0  0  0  0  0  0  0  0  0  0
   44.1130   27.8000   34.1250 N   0  0  0  0  0  0  0  0  0  0  0  0
   42.9870   27.1040   33.9690 C   0  0  0  0  0  0  0  0  0  0  0  0
   41.7850   27.5950   33.4040 N   0  0  0  0  0  0  0  0  0  0  0  0
   42.9120   25.8560   34.3460 N   0  0  0  0  0  0  0  0  0  0  0  0
   43.9670   25.1960   34.9160 C   0  0  0  0  0  0  0  0  0  0  0  0
   37.8033   23.4468   39.2684 H   0  0  0  0  0  0  0  0  0  0  0  0
   39.7633   22.0545   38.5405 H   0  0  0  0  0  0  0  0  0  0  0  0
   36.7634   25.5921   35.7823 H   0  0  0  0  0  0  0  0  0  0  0  0
   37.9394   28.3224   36.0242 H   0  0  0  0  0  0  0  0  0  0  0  0
   39.3305   27.7835   36.4443 H   0  0  0  0  0  0  0  0  0  0  0  0
   39.0979   26.3667   33.7386 H   0  0  0  0  0  0  0  0  0  0  0  0
   35.9881   27.9960   34.8177 H   0  0  0  0  0  0  0  0  0  0  0  0
   35.0054   29.0910   32.7112 H   0  0  0  0  0  0  0  0  0  0  0  0
   35.8748   29.3639   29.9016 H   0  0  0  0  0  0  0  0  0  0  0  0
   37.7585   28.7397   28.4197 H   0  0  0  0  0  0  0  0  0  0  0  0
   39.6927   27.4310   29.3591 H   0  0  0  0  0  0  0  0  0  0  0  0
   39.6631   26.8108   31.7538 H   0  0  0  0  0  0  0  0  0  0  0  0
   42.2343   23.1564   37.6452 H   0  0  0  0  0  0  0  0  0  0  0  0
   44.3141   21.6053   36.7035 H   0  0  0  0  0  0  0  0  0  0  0  0
   43.3332   20.6596   35.9319 H   0  0  0  0  0  0  0  0  0  0  0  0
   42.8545   23.2223   34.3176 H   0  0  0  0  0  0  0  0  0  0  0  0
   45.9674   23.0409   36.2866 H   0  0  0  0  0  0  0  0  0  0  0  0
   44.1392   28.7824   33.8166 H   0  0  0  0  0  0  0  0  0  0  0  0
   40.9635   26.9786   33.3253 H   0  0  0  0  0  0  0  0  0  0  0  0
   41.7321   28.5685   33.0718 H   0  0  0  0  0  0  0  0  0  0  0  0
  2  1  2  0
  3  2  1  0
  4  5  1  0
  4  3  2  0
  5  6  2  0
  6  1  1  0
  7  8  1  0
  7  5  1  0
  9  7  1  0
  9  8  1  0
 10 11  2  0
 10  9  1  0
 12 11  1  0
 13 18  2  0
 13 12  1  0
 14 13  1  0
 15 16  1  0
 15 14  2  0
 16 17  2  0
 17 18  1  0
 18 10  1  0
 19  3  1  0
 19 20  1  0
 21 20  1  0
 22 23  1  0
 22 21  1  0
 22 20  1  0
 23 24  1  0
 25 24  2  0
 26 25  1  0
 27 28  2  0
 27 26  1  0
 29 27  1  0
 30 29  1  0
 30 32  2  0
 31 30  1  0
 32 33  1  0
 33 26  2  0
 33 23  1  0
  1 34  1  0
  2 35  1  0
  7 36  1  6
  8 37  1  0
  8 38  1  0
  9 39  1  6
 11 40  1  0
 12 41  1  0
 14 42  1  0
 15 43  1  0
 16 44  1  0
 17 45  1  0
 20 46  1  1
 21 47  1  0
 21 48  1  0
 22 49  1  6
 24 50  1  0
 29 51  1  0
 31 52  1  0
 31 53  1  0
M  END
>  <minimizedAffinity>  (1) 
-7.15035629

>  <minimizedRMSD>  (1) 
3.6559248

$$$$
