
     RDKit          3D

 41 45  0  0  0  0  0  0  0  0999 V2000
   45.0730   23.9490   36.0890 C   0  0  0  0  0  0  0  0  0  0  0  0
   41.7060   22.3360   36.7530 C   0  0  0  0  0  0  0  0  0  0  0  0
   42.7070   23.2680   36.5600 C   0  0  0  0  0  0  0  0  0  0  0  0
   44.0210   22.9090   36.2540 C   0  0  0  0  0  0  0  0  0  0  0  0
   44.2180   21.5490   36.1620 N   0  0  0  0  0  0  0  0  0  0  0  0
   43.2470   20.6430   36.3480 C   0  0  0  0  0  0  0  0  0  0  0  0
   42.0200   21.0670   36.6390 N   0  0  0  0  0  0  0  0  0  0  0  0
   40.3620   22.8050   37.0690 C   0  0  0  0  0  0  0  0  0  0  0  0
   39.4270   23.2210   36.1240 C   0  0  0  0  0  0  0  0  0  0  0  0
   38.3290   23.5670   36.8820 C   0  0  0  0  0  0  0  0  0  0  0  0
   38.6230   23.3560   38.2280 C   0  0  0  0  0  0  0  0  0  0  0  0
   39.8620   22.8980   38.2860 O   0  0  0  0  0  0  0  0  0  0  0  0
   45.2170   24.7450   37.2710 N   0  0  0  0  0  0  0  0  0  0  0  0
   44.2800   25.5030   37.8520 N   0  0  0  0  0  0  0  0  0  0  0  0
   44.7640   26.1790   38.8670 C   0  0  0  0  0  0  0  0  0  0  0  0
   46.0970   25.8660   38.9860 C   0  0  0  0  0  0  0  0  0  0  0  0
   46.3550   24.9390   37.9480 C   0  0  0  0  0  0  0  0  0  0  0  0
   47.7440   24.5560   37.9420 C   0  0  0  0  0  0  0  0  0  0  0  0
   48.6230   24.6740   36.8520 C   0  0  0  0  0  0  0  0  0  0  0  0
   49.8630   24.3120   37.1160 N   0  0  0  0  0  0  0  0  0  0  0  0
   49.9290   23.9250   38.3870 C   0  0  0  0  0  0  0  0  0  0  0  0
   50.9950   23.4900   39.1370 C   0  0  0  0  0  0  0  0  0  0  0  0
   50.7920   23.1880   40.4520 C   0  0  0  0  0  0  0  0  0  0  0  0
   49.5070   23.3340   40.9870 C   0  0  0  0  0  0  0  0  0  0  0  0
   48.5260   23.7730   40.1500 C   0  0  0  0  0  0  0  0  0  0  0  0
   48.6460   24.0870   38.8450 C   0  0  0  0  0  0  0  0  0  0  0  0
   46.0319   23.4556   35.8718 H   0  0  0  0  0  0  0  0  0  0  0  0
   44.7759   24.6110   35.2623 H   0  0  0  0  0  0  0  0  0  0  0  0
   42.4589   24.3358   36.6510 H   0  0  0  0  0  0  0  0  0  0  0  0
   43.4614   19.5676   36.2614 H   0  0  0  0  0  0  0  0  0  0  0  0
   39.5386   23.2634   35.0305 H   0  0  0  0  0  0  0  0  0  0  0  0
   37.3751   23.9480   36.4884 H   0  0  0  0  0  0  0  0  0  0  0  0
   37.9515   23.5363   39.0804 H   0  0  0  0  0  0  0  0  0  0  0  0
   44.2023   26.8734   39.5091 H   0  0  0  0  0  0  0  0  0  0  0  0
   46.8103   26.2529   39.7286 H   0  0  0  0  0  0  0  0  0  0  0  0
   48.3041   25.0370   35.8638 H   0  0  0  0  0  0  0  0  0  0  0  0
   50.6486   24.3264   36.4500 H   0  0  0  0  0  0  0  0  0  0  0  0
   51.9930   23.3872   38.6859 H   0  0  0  0  0  0  0  0  0  0  0  0
   51.6234   22.8361   41.0804 H   0  0  0  0  0  0  0  0  0  0  0  0
   49.2974   23.1033   42.0419 H   0  0  0  0  0  0  0  0  0  0  0  0
   47.5233   23.8836   40.5886 H   0  0  0  0  0  0  0  0  0  0  0  0
  1  4  1  0
  1 13  1  0
  2  8  1  0
  3  2  2  0
  4  3  1  0
  5  4  2  0
  5  6  1  0
  6  7  2  0
  7  2  1  0
  8 12  1  0
  9 10  1  0
  9  8  2  0
 10 11  2  0
 11 12  1  0
 13 14  1  0
 13 17  1  0
 14 15  2  0
 15 16  1  0
 17 16  2  0
 18 17  1  0
 18 26  1  0
 19 20  1  0
 19 18  2  0
 20 21  1  0
 21 26  2  0
 21 22  1  0
 22 23  2  0
 23 24  1  0
 25 24  2  0
 26 25  1  0
  1 27  1  0
  1 28  1  0
  3 29  1  0
  6 30  1  0
  9 31  1  0
 10 32  1  0
 11 33  1  0
 15 34  1  0
 16 35  1  0
 19 36  1  0
 20 37  1  0
 22 38  1  0
 23 39  1  0
 24 40  1  0
 25 41  1  0
M  ISO  8  27   8  28   8  29  14  30  14  31  14  32  14  33  14  34  14
M  ISO  7  35  14  36  14  37   9  38  14  39  14  40  14  41  14
M  END
>  <minimizedAffinity>  (1) 
-5.85462713

>  <minimizedRMSD>  (1) 
1.65454257

$$$$
