
     RDKit          3D

 40 43  0  0  1  0  0  0  0  0999 V2000
   37.4320   24.5630   33.2260 C   0  0  0  0  0  0  0  0  0  0  0  0
   37.6130   25.6190   34.1310 N   0  0  0  0  0  0  0  0  0  0  0  0
   37.3490   26.9580   34.1020 C   0  0  0  0  0  0  0  0  0  0  0  0
   37.6470   27.6410   35.2570 C   0  0  0  0  0  0  0  0  0  0  0  0
   38.1240   26.6840   36.0510 N   0  0  0  0  0  0  0  0  0  0  0  0
   38.1090   25.4700   35.3800 C   0  0  0  0  0  0  0  0  0  0  0  0
   38.5860   24.3720   36.1980 C   0  0  0  0  0  0  0  0  0  0  0  0
   37.8960   23.7640   37.2590 C   0  0  0  0  0  0  0  0  0  0  0  0
   38.6090   22.8130   37.8760 N   0  0  0  0  0  0  0  0  0  0  0  0
   39.7850   22.7420   37.2700 C   0  0  0  0  0  0  0  0  0  0  0  0
   40.8730   21.9430   37.5430 C   0  0  0  0  0  0  0  0  0  0  0  0
   42.0230   22.0500   36.8020 C   0  0  0  0  0  0  0  0  0  0  0  0
   42.0500   22.9720   35.7940 C   0  0  0  0  0  0  0  0  0  0  0  0
   40.9410   23.7460   35.5590 C   0  0  0  0  0  0  0  0  0  0  0  0
   39.7710   23.6800   36.2610 C   0  0  0  0  0  0  0  0  0  0  0  0
   36.8500   24.9990   31.9040 C   0  0  1  0  0  0  0  0  0  0  0  0
   39.2640   24.0350   29.1560 C   0  0  0  0  0  0  0  0  0  0  0  0
   38.2730   23.8810   30.1270 C   0  0  0  0  0  0  0  0  0  0  0  0
   37.8770   25.0600   30.8420 C   0  0  0  0  0  0  0  0  0  0  0  0
   38.4870   26.2520   30.5310 N   0  0  0  0  0  0  0  0  0  0  0  0
   39.4260   26.3490   29.5980 C   0  0  0  0  0  0  0  0  0  0  0  0
   39.8200   25.2320   28.9020 N   0  0  0  0  0  0  0  0  0  0  0  0
   35.7330   24.0450   31.5200 C   0  0  0  0  0  0  0  0  0  0  0  0
   38.4088   24.0931   33.0388 H   0  0  0  0  0  0  0  0  0  0  0  0
   36.7147   23.8645   33.6817 H   0  0  0  0  0  0  0  0  0  0  0  0
   36.9273   27.4556   33.2163 H   0  0  0  0  0  0  0  0  0  0  0  0
   37.5224   28.7125   35.4722 H   0  0  0  0  0  0  0  0  0  0  0  0
   36.8730   24.0409   37.5537 H   0  0  0  0  0  0  0  0  0  0  0  0
   38.2998   22.2415   38.6752 H   0  0  0  0  0  0  0  0  0  0  0  0
   40.8196   21.2119   38.3631 H   0  0  0  0  0  0  0  0  0  0  0  0
   42.8953   21.4138   37.0128 H   0  0  0  0  0  0  0  0  0  0  0  0
   42.9522   23.0929   35.1764 H   0  0  0  0  0  0  0  0  0  0  0  0
   40.9991   24.4779   34.7399 H   0  0  0  0  0  0  0  0  0  0  0  0
   36.4494   26.0175   32.0144 H   0  0  0  0  0  0  0  0  0  0  0  0
   39.5978   23.1559   28.5852 H   0  0  0  0  0  0  0  0  0  0  0  0
   37.8171   22.9016   30.3342 H   0  0  0  0  0  0  0  0  0  0  0  0
   39.8886   27.3234   29.3821 H   0  0  0  0  0  0  0  0  0  0  0  0
   35.2638   23.6443   32.4306 H   0  0  0  0  0  0  0  0  0  0  0  0
   34.9797   24.5827   30.9256 H   0  0  0  0  0  0  0  0  0  0  0  0
   36.1463   23.2168   30.9256 H   0  0  0  0  0  0  0  0  0  0  0  0
  1  2  1  0
  2  6  1  0
  3  2  1  0
  3  4  2  0
  4  5  1  0
  6  5  2  0
  6  7  1  0
  7 15  1  0
  7  8  2  0
  8  9  1  0
 10 11  2  0
 10  9  1  0
 12 11  1  0
 13 12  2  0
 14 13  1  0
 14 15  2  0
 15 10  1  0
 16  1  1  0
 17 18  2  0
 18 19  1  0
 19 16  1  0
 20 19  2  0
 21 20  1  0
 22 17  1  0
 22 21  2  0
 23 16  1  0
  1 24  1  0
  1 25  1  0
  3 26  1  0
  4 27  1  0
  8 28  1  0
  9 29  1  0
 11 30  1  0
 12 31  1  0
 13 32  1  0
 14 33  1  0
 16 34  1  1
 17 35  1  0
 18 36  1  0
 21 37  1  0
 23 38  1  0
 23 39  1  0
 23 40  1  0
M  ISO  8  24   8  25   8  26  14  27  14  28  14  29   9  30  14  31  14
M  ISO  8  32  14  33  14  34   8  35  14  36  14  37  14  38   8  39   8
M  ISO  1  40   8
M  END
>  <minimizedAffinity>  (1) 
-5.60438108

>  <minimizedRMSD>  (1) 
6.88479519

$$$$
