
     RDKit          3D

 32 35  0  0  0  0  0  0  0  0999 V2000
   44.0010   19.9850   36.4160 C   0  0  0  0  0  0  0  0  0  0  0  0
   42.6590   20.3450   36.5750 C   0  0  0  0  0  0  0  0  0  0  0  0
   42.3280   21.6780   36.3740 C   0  0  0  0  0  0  0  0  0  0  0  0
   43.3380   22.5360   36.0360 N   0  0  0  0  0  0  0  0  0  0  0  0
   44.6090   22.1650   35.8900 C   0  0  0  0  0  0  0  0  0  0  0  0
   44.9420   20.8580   36.0850 N   0  0  0  0  0  0  0  0  0  0  0  0
   45.6300   23.1140   35.5320 C   0  0  0  0  0  0  0  0  0  0  0  0
   46.2600   23.1970   34.3090 C   0  0  0  0  0  0  0  0  0  0  0  0
   47.1620   24.2160   34.3500 N   0  0  0  0  0  0  0  0  0  0  0  0
   47.1310   24.7910   35.5670 C   0  0  0  0  0  0  0  0  0  0  0  0
   47.8170   25.8520   36.1690 C   0  0  0  0  0  0  0  0  0  0  0  0
   47.5700   26.2240   37.4560 C   0  0  0  0  0  0  0  0  0  0  0  0
   46.6180   25.5660   38.2400 C   0  0  0  0  0  0  0  0  0  0  0  0
   45.9730   24.5200   37.5780 C   0  0  0  0  0  0  0  0  0  0  0  0
   46.1800   24.1070   36.2990 C   0  0  0  0  0  0  0  0  0  0  0  0
   40.9520   22.1370   36.5200 C   0  0  0  0  0  0  0  0  0  0  0  0
   39.8620   22.1320   35.7000 N   0  0  0  0  0  0  0  0  0  0  0  0
   38.8580   22.6660   36.3140 O   0  0  0  0  0  0  0  0  0  0  0  0
   39.2310   23.0400   37.5380 C   0  0  0  0  0  0  0  0  0  0  0  0
   40.5150   22.7080   37.6450 N   0  0  0  0  0  0  0  0  0  0  0  0
   38.4070   23.6840   38.5630 C   0  0  0  0  0  0  0  0  0  0  0  0
   39.1700   23.9050   39.6880 F   0  0  0  0  0  0  0  0  0  0  0  0
   37.3450   22.8660   38.9550 F   0  0  0  0  0  0  0  0  0  0  0  0
   37.9250   24.8830   38.1150 F   0  0  0  0  0  0  0  0  0  0  0  0
   44.2874   18.9345   36.5720 H   0  0  0  0  0  0  0  0  0  0  0  0
   41.8960   19.6013   36.8485 H   0  0  0  0  0  0  0  0  0  0  0  0
   46.0661   22.5473   33.4428 H   0  0  0  0  0  0  0  0  0  0  0  0
   47.7727   24.5023   33.5716 H   0  0  0  0  0  0  0  0  0  0  0  0
   48.5744   26.3991   35.5885 H   0  0  0  0  0  0  0  0  0  0  0  0
   48.1339   27.0633   37.8892 H   0  0  0  0  0  0  0  0  0  0  0  0
   46.3979   25.8461   39.2807 H   0  0  0  0  0  0  0  0  0  0  0  0
   45.2144   23.9696   38.1538 H   0  0  0  0  0  0  0  0  0  0  0  0
  1  2  2  0
  3 16  1  0
  3  2  1  0
  4  3  2  0
  5  4  1  0
  5  6  2  0
  6  1  1  0
  7  5  1  0
  7 15  1  0
  8  9  1  0
  8  7  2  0
  9 10  1  0
 10 11  1  0
 10 15  2  0
 11 12  2  0
 12 13  1  0
 14 13  2  0
 15 14  1  0
 16 20  1  0
 17 18  1  0
 17 16  2  0
 18 19  1  0
 19 20  2  0
 19 21  1  0
 21 23  1  0
 21 22  1  0
 24 21  1  0
  1 25  1  0
  2 26  1  0
  8 27  1  0
  9 28  1  0
 11 29  1  0
 12 30  1  0
 13 31  1  0
 14 32  1  0
M  ISO  8  25  14  26  14  27  14  28   9  29  14  30  14  31  14  32  14
M  END
>  <minimizedAffinity>  (1) 
-5.62485456

>  <minimizedRMSD>  (1) 
3.5542655

$$$$
