
     RDKit          3D

 34 37  0  0  0  0  0  0  0  0999 V2000
   39.5230   22.7890   38.3180 N   0  0  0  0  0  0  0  0  0  0  0  0
   38.4720   23.6040   38.1520 N   0  0  0  0  0  0  0  0  0  0  0  0
   38.4740   24.0850   36.8870 C   0  0  0  0  0  0  0  0  0  0  0  0
   39.5700   23.5350   36.2760 C   0  0  0  0  0  0  0  0  0  0  0  0
   40.2040   22.7410   37.1680 C   0  0  0  0  0  0  0  0  0  0  0  0
   41.3980   21.9210   37.0830 C   0  0  0  0  0  0  0  0  0  0  0  0
   41.5900   20.7320   37.7950 C   0  0  0  0  0  0  0  0  0  0  0  0
   42.7900   20.1820   37.5210 N   0  0  0  0  0  0  0  0  0  0  0  0
   43.4300   20.9620   36.6370 C   0  0  0  0  0  0  0  0  0  0  0  0
   44.6620   20.8750   36.0280 C   0  0  0  0  0  0  0  0  0  0  0  0
   45.1070   21.8180   35.1380 C   0  0  0  0  0  0  0  0  0  0  0  0
   44.2480   22.8670   34.8850 C   0  0  0  0  0  0  0  0  0  0  0  0
   43.0210   22.9390   35.5020 C   0  0  0  0  0  0  0  0  0  0  0  0
   42.5690   22.0000   36.3920 C   0  0  0  0  0  0  0  0  0  0  0  0
   37.4920   24.9690   36.4180 O   0  0  0  0  0  0  0  0  0  0  0  0
   37.8690   26.2080   35.8910 C   0  0  0  0  0  0  0  0  0  0  0  0
   38.6750   26.9730   36.4780 O   0  0  0  0  0  0  0  0  0  0  0  0
   37.3080   26.6400   34.6120 C   0  0  0  0  0  0  0  0  0  0  0  0
   37.3590   25.7280   33.5430 C   0  0  0  0  0  0  0  0  0  0  0  0
   36.8270   26.1200   32.3020 C   0  0  0  0  0  0  0  0  0  0  0  0
   36.2990   27.3660   32.2370 N   0  0  0  0  0  0  0  0  0  0  0  0
   36.2630   28.2060   33.2610 C   0  0  0  0  0  0  0  0  0  0  0  0
   36.7650   27.8630   34.4690 N   0  0  0  0  0  0  0  0  0  0  0  0
   39.7649   22.2856   39.1834 H   0  0  0  0  0  0  0  0  0  0  0  0
   39.8815   23.7098   35.2356 H   0  0  0  0  0  0  0  0  0  0  0  0
   40.8549   20.3006   38.4903 H   0  0  0  0  0  0  0  0  0  0  0  0
   43.1551   19.3072   37.9239 H   0  0  0  0  0  0  0  0  0  0  0  0
   45.3116   20.0192   36.2638 H   0  0  0  0  0  0  0  0  0  0  0  0
   46.0918   21.7424   34.6538 H   0  0  0  0  0  0  0  0  0  0  0  0
   44.5483   23.6565   34.1804 H   0  0  0  0  0  0  0  0  0  0  0  0
   42.3691   23.7939   35.2693 H   0  0  0  0  0  0  0  0  0  0  0  0
   37.8048   24.7310   33.6746 H   0  0  0  0  0  0  0  0  0  0  0  0
   36.8388   25.4501   31.4296 H   0  0  0  0  0  0  0  0  0  0  0  0
   35.8160   29.2020   33.1259 H   0  0  0  0  0  0  0  0  0  0  0  0
  2  1  1  0
  3  2  2  0
  4  3  1  0
  4  5  2  0
  5  1  1  0
  6  5  1  0
  6  7  2  0
  8  7  1  0
  9  8  1  0
 10  9  2  0
 11 10  1  0
 12 11  2  0
 12 13  1  0
 13 14  2  0
 14  9  1  0
 14  6  1  0
 15  3  1  0
 16 15  1  0
 16 17  2  0
 18 16  1  0
 19 18  2  0
 20 19  1  0
 21 20  2  0
 21 22  1  0
 22 23  2  0
 23 18  1  0
  1 24  1  0
  4 25  1  0
  7 26  1  0
  8 27  1  0
 10 28  1  0
 11 29  1  0
 12 30  1  0
 13 31  1  0
 19 32  1  0
 20 33  1  0
 22 34  1  0
M  ISO  8  24   9  25  14  26  14  27   9  28  14  29  14  30  14  31  14
M  ISO  3  32  14  33  14  34  14
M  END
>  <minimizedAffinity>  (1) 
-5.26298857

>  <minimizedRMSD>  (1) 
1.29177666

$$$$
