
     RDKit          3D

 39 43  0  0  0  0  0  0  0  0999 V2000
   39.6900   22.8510   37.4170 C   0  0  0  0  0  0  0  0  0  0  0  0
   38.9910   23.2630   38.5510 C   0  0  0  0  0  0  0  0  0  0  0  0
   37.9180   24.1390   38.3730 C   0  0  0  0  0  0  0  0  0  0  0  0
   37.6060   24.5470   37.1150 N   0  0  0  0  0  0  0  0  0  0  0  0
   38.3110   24.1230   36.0460 C   0  0  0  0  0  0  0  0  0  0  0  0
   39.3440   23.2820   36.1980 N   0  0  0  0  0  0  0  0  0  0  0  0
   37.9420   24.5870   34.7080 C   0  0  0  0  0  0  0  0  0  0  0  0
   37.9980   23.8290   33.5560 C   0  0  0  0  0  0  0  0  0  0  0  0
   37.5810   24.5980   32.5260 N   0  0  0  0  0  0  0  0  0  0  0  0
   37.2580   25.8320   33.0020 C   0  0  0  0  0  0  0  0  0  0  0  0
   36.7870   26.9730   32.3840 C   0  0  0  0  0  0  0  0  0  0  0  0
   36.5180   28.1460   33.0720 C   0  0  0  0  0  0  0  0  0  0  0  0
   36.7570   28.0970   34.4330 C   0  0  0  0  0  0  0  0  0  0  0  0
   37.2270   26.9900   35.1120 C   0  0  0  0  0  0  0  0  0  0  0  0
   37.4790   25.8460   34.3830 C   0  0  0  0  0  0  0  0  0  0  0  0
   40.7280   22.0020   37.6010 O   0  0  0  0  0  0  0  0  0  0  0  0
   41.9640   22.0660   37.0200 C   0  0  0  0  0  0  0  0  0  0  0  0
   42.5480   23.1960   36.4900 C   0  0  0  0  0  0  0  0  0  0  0  0
   43.7610   22.9340   35.9950 N   0  0  0  0  0  0  0  0  0  0  0  0
   44.0460   21.6140   36.1710 C   0  0  0  0  0  0  0  0  0  0  0  0
   45.1310   20.8180   35.8580 C   0  0  0  0  0  0  0  0  0  0  0  0
   45.0970   19.4740   36.1820 C   0  0  0  0  0  0  0  0  0  0  0  0
   43.9880   18.9280   36.8170 C   0  0  0  0  0  0  0  0  0  0  0  0
   42.9110   19.7350   37.1260 C   0  0  0  0  0  0  0  0  0  0  0  0
   42.9300   21.0880   36.8040 C   0  0  0  0  0  0  0  0  0  0  0  0
   39.2754   22.9096   39.5531 H   0  0  0  0  0  0  0  0  0  0  0  0
   37.3354   24.4926   39.2364 H   0  0  0  0  0  0  0  0  0  0  0  0
   38.3252   22.7810   33.4881 H   0  0  0  0  0  0  0  0  0  0  0  0
   37.5179   24.2995   31.5422 H   0  0  0  0  0  0  0  0  0  0  0  0
   36.6176   26.9504   31.2974 H   0  0  0  0  0  0  0  0  0  0  0  0
   36.1416   29.0503   32.5714 H   0  0  0  0  0  0  0  0  0  0  0  0
   36.5581   29.0070   35.0182 H   0  0  0  0  0  0  0  0  0  0  0  0
   37.3950   27.0194   36.1987 H   0  0  0  0  0  0  0  0  0  0  0  0
   42.0749   24.1890   36.4762 H   0  0  0  0  0  0  0  0  0  0  0  0
   44.3836   23.6231   35.5496 H   0  0  0  0  0  0  0  0  0  0  0  0
   46.0110   21.2480   35.3573 H   0  0  0  0  0  0  0  0  0  0  0  0
   45.9551   18.8317   35.9350 H   0  0  0  0  0  0  0  0  0  0  0  0
   43.9682   17.8582   37.0722 H   0  0  0  0  0  0  0  0  0  0  0  0
   42.0327   19.3053   37.6299 H   0  0  0  0  0  0  0  0  0  0  0  0
  1 16  1  0
  1  2  2  0
  3  2  1  0
  4  3  2  0
  5  6  2  0
  5  4  1  0
  6  1  1  0
  7  5  1  0
  8  7  2  0
  9 10  1  0
  9  8  1  0
 10 15  2  0
 11 10  1  0
 11 12  2  0
 12 13  1  0
 13 14  2  0
 15  7  1  0
 15 14  1  0
 17 16  1  0
 18 17  2  0
 19 20  1  0
 19 18  1  0
 20 25  2  0
 21 20  1  0
 21 22  2  0
 22 23  1  0
 23 24  2  0
 25 17  1  0
 25 24  1  0
  2 26  1  0
  3 27  1  0
  8 28  1  0
  9 29  1  0
 11 30  1  0
 12 31  1  0
 13 32  1  0
 14 33  1  0
 18 34  1  0
 19 35  1  0
 21 36  1  0
 22 37  1  0
 23 38  1  0
 24 39  1  0
M  ISO  8  26  14  27  14  28  14  29   9  30  14  31  14  32  14  33  14
M  ISO  6  34  14  35   9  36  14  37  14  38  14  39  14
M  END
>  <minimizedAffinity>  (1) 
-6.22132874

>  <minimizedRMSD>  (1) 
1.00897098

$$$$
