
     RDKit          3D

 43 47  0  0  1  0  0  0  0  0999 V2000
   37.4960   26.7230   33.7700 C   0  0  0  0  0  0  0  0  0  0  0  0
   36.8200   27.9020   33.1920 C   0  0  0  0  0  0  0  0  0  0  0  0
   36.6120   28.2870   31.9000 C   0  0  0  0  0  0  0  0  0  0  0  0
   35.9490   29.4310   31.5200 C   0  0  0  0  0  0  0  0  0  0  0  0
   35.4670   30.2360   32.5290 C   0  0  0  0  0  0  0  0  0  0  0  0
   35.6780   29.8480   33.8210 C   0  0  0  0  0  0  0  0  0  0  0  0
   36.3330   28.7170   34.1410 N   0  0  0  0  0  0  0  0  0  0  0  0
   35.1810   30.6010   34.9690 C   0  0  0  0  0  0  0  0  0  0  0  0
   36.0060   31.3430   35.8040 C   0  0  0  0  0  0  0  0  0  0  0  0
   35.3320   31.9790   36.7780 N   0  0  0  0  0  0  0  0  0  0  0  0
   34.0400   31.6800   36.6190 C   0  0  0  0  0  0  0  0  0  0  0  0
   32.8950   32.0450   37.2940 C   0  0  0  0  0  0  0  0  0  0  0  0
   31.6450   31.6050   36.9090 C   0  0  0  0  0  0  0  0  0  0  0  0
   31.5650   30.7680   35.8010 C   0  0  0  0  0  0  0  0  0  0  0  0
   32.7220   30.4190   35.1460 C   0  0  0  0  0  0  0  0  0  0  0  0
   33.9610   30.8530   35.5280 C   0  0  0  0  0  0  0  0  0  0  0  0
   39.6480   26.0420   35.1390 C   0  0  2  0  0  0  0  0  0  0  0  0
   38.9170   27.1650   35.7830 C   0  0  0  0  0  0  0  0  0  0  0  0
   38.8520   26.9710   34.2980 C   0  0  2  0  0  0  0  0  0  0  0  0
   37.8740   23.2270   36.6980 C   0  0  0  0  0  0  0  0  0  0  0  0
   38.1700   22.1230   35.8670 C   0  0  0  0  0  0  0  0  0  0  0  0
   39.0120   22.4010   34.7410 C   0  0  0  0  0  0  0  0  0  0  0  0
   39.4530   23.6630   34.5520 N   0  0  0  0  0  0  0  0  0  0  0  0
   39.1220   24.6890   35.4050 C   0  0  0  0  0  0  0  0  0  0  0  0
   38.3220   24.4680   36.4920 N   0  0  0  0  0  0  0  0  0  0  0  0
   37.5715   25.9557   32.9855 H   0  0  0  0  0  0  0  0  0  0  0  0
   36.8855   26.4132   34.6310 H   0  0  0  0  0  0  0  0  0  0  0  0
   37.0027   27.6356   31.1044 H   0  0  0  0  0  0  0  0  0  0  0  0
   35.8102   29.6909   30.4602 H   0  0  0  0  0  0  0  0  0  0  0  0
   34.9267   31.1663   32.2998 H   0  0  0  0  0  0  0  0  0  0  0  0
   37.0974   31.4040   35.6813 H   0  0  0  0  0  0  0  0  0  0  0  0
   35.7356   32.5826   37.5085 H   0  0  0  0  0  0  0  0  0  0  0  0
   32.9804   32.7082   38.1674 H   0  0  0  0  0  0  0  0  0  0  0  0
   30.7419   31.9062   37.4601 H   0  0  0  0  0  0  0  0  0  0  0  0
   30.5913   30.3913   35.4544 H   0  0  0  0  0  0  0  0  0  0  0  0
   32.6473   29.7573   34.2705 H   0  0  0  0  0  0  0  0  0  0  0  0
   40.6903   25.6923   35.1037 H   0  0  0  0  0  0  0  0  0  0  0  0
   38.0323   26.9622   36.4044 H   0  0  0  0  0  0  0  0  0  0  0  0
   39.1933   27.9951   36.4498 H   0  0  0  0  0  0  0  0  0  0  0  0
   39.1161   27.4884   33.3639 H   0  0  0  0  0  0  0  0  0  0  0  0
   37.2313   23.0523   37.5735 H   0  0  0  0  0  0  0  0  0  0  0  0
   37.7793   21.1152   36.0712 H   0  0  0  0  0  0  0  0  0  0  0  0
   39.2942   21.5995   34.0424 H   0  0  0  0  0  0  0  0  0  0  0  0
  1 19  1  0
  2  1  1  0
  2  7  1  0
  3  2  2  0
  4  3  1  0
  4  5  2  0
  5  6  1  0
  6  7  2  0
  6  8  1  0
  8 16  1  0
  8  9  2  0
  9 10  1  0
 11 10  1  0
 11 12  2  0
 13 12  1  0
 14 13  2  0
 15 16  2  0
 15 14  1  0
 16 11  1  0
 17 24  1  0
 17 18  1  0
 19 17  1  0
 19 18  1  0
 21 20  2  0
 22 21  1  0
 23 22  2  0
 23 24  1  0
 24 25  2  0
 25 20  1  0
  1 26  1  0
  1 27  1  0
  3 28  1  0
  4 29  1  0
  5 30  1  0
  9 31  1  0
 10 32  1  0
 12 33  1  0
 13 34  1  0
 14 35  1  0
 15 36  1  0
 17 37  1  6
 18 38  1  0
 18 39  1  0
 19 40  1  6
 20 41  1  0
 21 42  1  0
 22 43  1  0
M  ISO  8  26   8  27   8  28  14  29  14  30  14  31  14  32   9  33  14
M  ISO  8  34  14  35  14  36  14  37  13  38  13  39  13  40  13  41  14
M  ISO  2  42  14  43  14
M  END
>  <minimizedAffinity>  (1) 
-6.50573397

>  <minimizedRMSD>  (1) 
6.82893181

$$$$
