
     RDKit          3D

 53 59  0  0  1  0  0  0  0  0999 V2000
   41.5110   21.6100   36.1590 C   0  0  0  0  0  0  0  0  0  0  0  0
   41.1900   21.8620   37.5170 C   0  0  0  0  0  0  0  0  0  0  0  0
   40.0030   22.5700   37.7650 C   0  0  0  0  0  0  0  0  0  0  0  0
   39.2390   22.9690   36.7240 N   0  0  0  0  0  0  0  0  0  0  0  0
   39.5830   22.7070   35.4380 C   0  0  0  0  0  0  0  0  0  0  0  0
   40.7090   22.0340   35.1700 N   0  0  0  0  0  0  0  0  0  0  0  0
   38.8030   23.1130   34.3300 N   0  0  0  0  0  0  0  0  0  0  0  0
   38.4850   22.2410   33.3470 C   0  0  0  0  0  0  0  0  0  0  0  0
   37.7400   22.9200   32.4390 N   0  0  0  0  0  0  0  0  0  0  0  0
   37.5790   24.1850   32.8150 C   0  0  0  0  0  0  0  0  0  0  0  0
   36.9630   25.3640   32.3800 C   0  0  0  0  0  0  0  0  0  0  0  0
   36.3450   25.2420   31.2770 O   0  0  0  0  0  0  0  0  0  0  0  0
   37.0490   26.5150   33.1120 N   0  0  0  0  0  0  0  0  0  0  0  0
   37.7070   26.5620   34.2440 C   0  0  0  0  0  0  0  0  0  0  0  0
   37.6720   27.8530   34.8520 N   0  0  0  0  0  0  0  0  0  0  0  0
   38.3190   25.4410   34.7040 N   0  0  0  0  0  0  0  0  0  0  0  0
   38.2560   24.3080   34.0190 C   0  0  0  0  0  0  0  0  0  0  0  0
   36.3840   27.7090   32.6000 C   0  0  0  0  0  0  0  0  0  0  0  0
   36.9370   28.4740   31.5610 C   0  0  0  0  0  0  0  0  0  0  0  0
   35.6880   29.8240   31.3360 S   0  0  0  0  0  0  0  0  0  0  0  0
   34.6340   29.1040   32.7010 C   0  0  0  0  0  0  0  0  0  0  0  0
   35.2370   28.1980   33.0200 N   0  0  0  0  0  0  0  0  0  0  0  0
   33.3080   29.8430   33.0200 C   0  0  1  0  0  0  0  0  0  0  0  0
   32.0940   29.0140   33.0680 C   0  0  0  0  0  0  0  0  0  0  0  0
   32.8160   29.4970   34.3590 C   0  0  2  0  0  0  0  0  0  0  0  0
   32.0780   30.5460   35.1070 C   0  0  0  0  0  0  0  0  0  0  0  0
   30.7140   30.7440   35.1360 C   0  0  0  0  0  0  0  0  0  0  0  0
   30.1810   31.7750   35.8900 C   0  0  0  0  0  0  0  0  0  0  0  0
   30.9650   32.6450   36.6410 C   0  0  0  0  0  0  0  0  0  0  0  0
   32.3400   32.4290   36.6000 C   0  0  0  0  0  0  0  0  0  0  0  0
   33.1390   33.2860   37.3420 C   0  0  0  0  0  0  0  0  0  0  0  0
   34.5100   33.1320   37.3490 C   0  0  0  0  0  0  0  0  0  0  0  0
   35.0850   32.1150   36.6090 C   0  0  0  0  0  0  0  0  0  0  0  0
   34.2640   31.2780   35.8810 C   0  0  0  0  0  0  0  0  0  0  0  0
   32.8830   31.3930   35.8430 C   0  0  0  0  0  0  0  0  0  0  0  0
   42.4306   21.0590   35.9126 H   0  0  0  0  0  0  0  0  0  0  0  0
   41.8392   21.5195   38.3363 H   0  0  0  0  0  0  0  0  0  0  0  0
   39.6978   22.7978   38.7970 H   0  0  0  0  0  0  0  0  0  0  0  0
   38.7754   21.1814   33.2935 H   0  0  0  0  0  0  0  0  0  0  0  0
   38.1547   28.0137   35.7476 H   0  0  0  0  0  0  0  0  0  0  0  0
   37.1641   28.6238   34.3951 H   0  0  0  0  0  0  0  0  0  0  0  0
   37.8785   28.3121   31.0156 H   0  0  0  0  0  0  0  0  0  0  0  0
   33.5313   30.7750   32.4800 H   0  0  0  0  0  0  0  0  0  0  0  0
   31.1197   29.4386   32.7844 H   0  0  0  0  0  0  0  0  0  0  0  0
   31.7832   28.0439   32.6529 H   0  0  0  0  0  0  0  0  0  0  0  0
   33.2676   29.0411   35.2524 H   0  0  0  0  0  0  0  0  0  0  0  0
   30.0496   30.0829   34.5602 H   0  0  0  0  0  0  0  0  0  0  0  0
   29.0897   31.9126   35.8957 H   0  0  0  0  0  0  0  0  0  0  0  0
   30.5230   33.4588   37.2346 H   0  0  0  0  0  0  0  0  0  0  0  0
   32.6767   34.0936   37.9286 H   0  0  0  0  0  0  0  0  0  0  0  0
   35.1411   33.8131   37.9388 H   0  0  0  0  0  0  0  0  0  0  0  0
   36.1761   31.9758   36.6008 H   0  0  0  0  0  0  0  0  0  0  0  0
   34.7328   30.4725   35.2967 H   0  0  0  0  0  0  0  0  0  0  0  0
  1  2  2  0
  2  3  1  0
  4  3  2  0
  5  4  1  0
  6  5  2  0
  6  1  1  0
  7  5  1  0
  8  7  1  0
  9 10  1  0
  9  8  2  0
 10 17  2  0
 11 10  1  0
 11 13  1  0
 12 11  2  0
 13 14  1  0
 14 16  2  0
 14 15  1  0
 17  7  1  0
 17 16  1  0
 18 22  1  0
 18 13  1  0
 19 18  2  0
 20 19  1  0
 20 21  1  0
 21 22  2  0
 21 23  1  0
 23 24  1  0
 23 25  1  0
 24 25  1  0
 25 26  1  0
 26 27  2  0
 26 35  1  0
 27 28  1  0
 28 29  2  0
 30 29  1  0
 30 31  2  0
 31 32  1  0
 33 32  2  0
 34 33  1  0
 35 34  2  0
 35 30  1  0
  1 36  1  0
  2 37  1  0
  3 38  1  0
  8 39  1  0
 15 40  1  0
 15 41  1  0
 19 42  1  0
 23 43  1  1
 24 44  1  0
 24 45  1  0
 25 46  1  1
 27 47  1  0
 28 48  1  0
 29 49  1  0
 31 50  1  0
 32 51  1  0
 33 52  1  0
 34 53  1  0
M  END
>  <minimizedAffinity>  (1) 
-7.52333021

>  <minimizedRMSD>  (1) 
2.80747986

$$$$
