
     RDKit          3D

 52 57  0  0  0  0  0  0  0  0999 V2000
   38.8610   23.2830   38.0230 C   0  0  0  0  0  0  0  0  0  0  0  0
   38.2180   23.8400   36.8960 C   0  0  0  0  0  0  0  0  0  0  0  0
   38.9320   23.7920   35.6920 C   0  0  0  0  0  0  0  0  0  0  0  0
   40.1340   23.2260   35.7480 N   0  0  0  0  0  0  0  0  0  0  0  0
   40.7510   22.6940   36.8230 C   0  0  0  0  0  0  0  0  0  0  0  0
   40.0670   22.7430   37.9590 N   0  0  0  0  0  0  0  0  0  0  0  0
   42.0580   22.1660   36.5050 C   0  0  0  0  0  0  0  0  0  0  0  0
   42.2470   20.8270   36.2310 C   0  0  0  0  0  0  0  0  0  0  0  0
   43.4710   20.2500   35.9160 C   0  0  0  0  0  0  0  0  0  0  0  0
   44.5960   21.0330   35.8640 C   0  0  0  0  0  0  0  0  0  0  0  0
   44.4600   22.3660   36.1270 C   0  0  0  0  0  0  0  0  0  0  0  0
   45.6020   23.1380   36.0750 C   0  0  0  0  0  0  0  0  0  0  0  0
   45.5430   24.4920   36.3350 C   0  0  0  0  0  0  0  0  0  0  0  0
   44.2910   25.0330   36.6500 C   0  0  0  0  0  0  0  0  0  0  0  0
   43.1820   24.2130   36.6870 C   0  0  0  0  0  0  0  0  0  0  0  0
   43.2240   22.8770   36.4320 C   0  0  0  0  0  0  0  0  0  0  0  0
   38.3770   24.3130   34.4930 N   0  0  0  0  0  0  0  0  0  0  0  0
   37.8350   25.5260   34.4380 C   0  0  0  0  0  0  0  0  0  0  0  0
   37.3830   25.6610   33.1520 C   0  0  0  0  0  0  0  0  0  0  0  0
   37.6540   24.5390   32.4560 N   0  0  0  0  0  0  0  0  0  0  0  0
   38.2820   23.7000   33.3130 C   0  0  0  0  0  0  0  0  0  0  0  0
   38.6630   22.4160   32.7760 C   0  0  0  0  0  0  0  0  0  0  0  0
   39.9090   21.8780   32.5320 C   0  0  0  0  0  0  0  0  0  0  0  0
   40.1040   20.5760   32.1300 C   0  0  0  0  0  0  0  0  0  0  0  0
   39.0250   19.7350   31.9550 C   0  0  0  0  0  0  0  0  0  0  0  0
   37.7860   20.2590   32.1960 C   0  0  0  0  0  0  0  0  0  0  0  0
   36.7380   19.3460   32.0310 C   0  0  0  0  0  0  0  0  0  0  0  0
   35.4570   19.8370   32.2980 C   0  0  0  0  0  0  0  0  0  0  0  0
   35.1650   21.1230   32.7000 C   0  0  0  0  0  0  0  0  0  0  0  0
   36.2570   21.9500   32.8350 C   0  0  0  0  0  0  0  0  0  0  0  0
   37.5580   21.5790   32.6020 C   0  0  0  0  0  0  0  0  0  0  0  0
   36.7080   26.8380   32.5350 C   0  0  0  0  0  0  0  0  0  0  0  0
   36.2230   27.7320   33.4460 F   0  0  0  0  0  0  0  0  0  0  0  0
   35.6290   26.4130   31.7440 F   0  0  0  0  0  0  0  0  0  0  0  0
   37.5630   27.4410   31.5940 F   0  0  0  0  0  0  0  0  0  0  0  0
   38.3392   23.2987   38.9912 H   0  0  0  0  0  0  0  0  0  0  0  0
   37.2144   24.2858   36.9599 H   0  0  0  0  0  0  0  0  0  0  0  0
   41.3658   20.1695   36.2643 H   0  0  0  0  0  0  0  0  0  0  0  0
   43.5375   19.1716   35.7095 H   0  0  0  0  0  0  0  0  0  0  0  0
   45.5771   20.6006   35.6181 H   0  0  0  0  0  0  0  0  0  0  0  0
   46.5661   22.6712   35.8246 H   0  0  0  0  0  0  0  0  0  0  0  0
   46.4443   25.1214   36.2962 H   0  0  0  0  0  0  0  0  0  0  0  0
   44.1918   26.1068   36.8670 H   0  0  0  0  0  0  0  0  0  0  0  0
   42.2103   24.6641   36.9364 H   0  0  0  0  0  0  0  0  0  0  0  0
   37.7647   26.2633   35.2513 H   0  0  0  0  0  0  0  0  0  0  0  0
   40.7912   22.5214   32.6653 H   0  0  0  0  0  0  0  0  0  0  0  0
   41.1235   20.2052   31.9478 H   0  0  0  0  0  0  0  0  0  0  0  0
   39.1557   18.6904   31.6361 H   0  0  0  0  0  0  0  0  0  0  0  0
   36.9116   18.3079   31.7114 H   0  0  0  0  0  0  0  0  0  0  0  0
   34.6136   19.1411   32.1777 H   0  0  0  0  0  0  0  0  0  0  0  0
   34.1375   21.4624   32.8978 H   0  0  0  0  0  0  0  0  0  0  0  0
   36.0733   22.9867   33.1537 H   0  0  0  0  0  0  0  0  0  0  0  0
  2  1  2  0
  3  4  2  0
  3  2  1  0
  4  5  1  0
  5  6  2  0
  6  1  1  0
  7  5  1  0
  8  7  2  0
  9  8  1  0
 10  9  2  0
 10 11  1  0
 11 16  2  0
 12 11  1  0
 12 13  2  0
 13 14  1  0
 14 15  2  0
 16  7  1  0
 16 15  1  0
 17  3  1  0
 18 17  1  0
 19 18  2  0
 20 19  1  0
 20 21  2  0
 21 17  1  0
 22 21  1  0
 23 22  2  0
 24 23  1  0
 25 24  2  0
 25 26  1  0
 26 31  2  0
 27 26  1  0
 27 28  2  0
 28 29  1  0
 29 30  2  0
 31 22  1  0
 31 30  1  0
 32 19  1  0
 32 33  1  0
 34 32  1  0
 35 32  1  0
  1 36  1  0
  2 37  1  0
  8 38  1  0
  9 39  1  0
 10 40  1  0
 12 41  1  0
 13 42  1  0
 14 43  1  0
 15 44  1  0
 18 45  1  0
 23 46  1  0
 24 47  1  0
 25 48  1  0
 27 49  1  0
 28 50  1  0
 29 51  1  0
 30 52  1  0
M  END
>  <minimizedAffinity>  (1) 
-7.28492069

>  <minimizedRMSD>  (1) 
4.96196985

$$$$
