
     RDKit          3D

 54 58  0  0  1  0  0  0  0  0999 V2000
   36.1120   25.2000   30.9690 C   0  0  0  0  0  0  0  0  0  0  0  0
   36.8280   26.4560   31.3820 C   0  0  1  0  0  0  0  0  0  0  0  0
   36.5010   27.5800   30.4830 C   0  0  0  0  0  0  0  0  0  0  0  0
   36.4000   28.7990   31.3370 C   0  0  0  0  0  0  0  0  0  0  0  0
   35.7900   28.2500   32.6130 C   0  0  0  0  0  0  0  0  0  0  0  0
   36.3670   26.8520   32.7690 C   0  0  2  0  0  0  0  0  0  0  0  0
   37.5680   26.8310   33.6560 C   0  0  0  0  0  0  0  0  0  0  0  0
   37.2660   26.6980   35.0150 C   0  0  0  0  0  0  0  0  0  0  0  0
   38.2570   26.7090   35.9880 C   0  0  0  0  0  0  0  0  0  0  0  0
   39.5980   26.8540   35.6510 C   0  0  0  0  0  0  0  0  0  0  0  0
   39.9070   26.9850   34.3150 C   0  0  0  0  0  0  0  0  0  0  0  0
   41.2090   27.1210   33.8910 C   0  0  0  0  0  0  0  0  0  0  0  0
   41.5250   27.2410   32.5350 C   0  0  0  0  0  0  0  0  0  0  0  0
   40.4830   27.2200   31.6210 C   0  0  0  0  0  0  0  0  0  0  0  0
   39.1780   27.0840   32.0360 C   0  0  0  0  0  0  0  0  0  0  0  0
   38.9050   26.9700   33.3770 C   0  0  0  0  0  0  0  0  0  0  0  0
   37.0530   24.0270   30.8820 C   0  0  0  0  0  0  0  0  0  0  0  0
   37.3280   22.2770   34.1520 C   0  0  0  0  0  0  0  0  0  0  0  0
   36.4330   21.2450   34.0450 C   0  0  0  0  0  0  0  0  0  0  0  0
   35.7120   21.1050   32.8750 C   0  0  0  0  0  0  0  0  0  0  0  0
   35.9330   22.0020   31.8940 C   0  0  0  0  0  0  0  0  0  0  0  0
   36.8100   23.0450   31.9530 C   0  0  0  0  0  0  0  0  0  0  0  0
   37.4690   23.1160   33.1090 N   0  0  0  0  0  0  0  0  0  0  0  0
   40.1230   22.3790   36.4930 C   0  0  0  0  0  0  0  0  0  0  0  0
   39.6010   22.9650   37.6280 C   0  0  0  0  0  0  0  0  0  0  0  0
   38.2460   23.3250   37.5560 C   0  0  0  0  0  0  0  0  0  0  0  0
   37.5410   23.0800   36.3980 N   0  0  0  0  0  0  0  0  0  0  0  0
   38.1270   22.5040   35.3340 C   0  0  0  0  0  0  0  0  0  0  0  0
   39.4140   22.1590   35.3930 N   0  0  0  0  0  0  0  0  0  0  0  0
   35.3296   24.9756   31.7090 H   0  0  0  0  0  0  0  0  0  0  0  0
   35.6757   25.3650   29.9728 H   0  0  0  0  0  0  0  0  0  0  0  0
   37.9087   26.2536   31.3473 H   0  0  0  0  0  0  0  0  0  0  0  0
   35.5433   27.3927   29.9754 H   0  0  0  0  0  0  0  0  0  0  0  0
   37.2722   27.7033   29.7083 H   0  0  0  0  0  0  0  0  0  0  0  0
   37.3914   29.2366   31.5256 H   0  0  0  0  0  0  0  0  0  0  0  0
   35.8121   29.6091   30.8807 H   0  0  0  0  0  0  0  0  0  0  0  0
   36.0662   28.8782   33.4727 H   0  0  0  0  0  0  0  0  0  0  0  0
   34.6910   28.2356   32.5672 H   0  0  0  0  0  0  0  0  0  0  0  0
   35.6113   26.1847   33.2089 H   0  0  0  0  0  0  0  0  0  0  0  0
   36.2160   26.5816   35.3214 H   0  0  0  0  0  0  0  0  0  0  0  0
   37.9754   26.6009   37.0458 H   0  0  0  0  0  0  0  0  0  0  0  0
   40.3825   26.8637   36.4220 H   0  0  0  0  0  0  0  0  0  0  0  0
   42.0186   27.1356   34.6355 H   0  0  0  0  0  0  0  0  0  0  0  0
   42.5682   27.3488   32.2032 H   0  0  0  0  0  0  0  0  0  0  0  0
   40.7027   27.3135   30.5472 H   0  0  0  0  0  0  0  0  0  0  0  0
   38.3607   27.0668   31.3000 H   0  0  0  0  0  0  0  0  0  0  0  0
   36.9157   23.5328   29.9089 H   0  0  0  0  0  0  0  0  0  0  0  0
   38.0797   24.4055   30.9941 H   0  0  0  0  0  0  0  0  0  0  0  0
   36.2910   20.5396   34.8770 H   0  0  0  0  0  0  0  0  0  0  0  0
   34.9836   20.2905   32.7487 H   0  0  0  0  0  0  0  0  0  0  0  0
   35.3561   21.8828   30.9650 H   0  0  0  0  0  0  0  0  0  0  0  0
   41.1812   22.0788   36.5004 H   0  0  0  0  0  0  0  0  0  0  0  0
   40.2066   23.1386   38.5297 H   0  0  0  0  0  0  0  0  0  0  0  0
   37.7514   23.7987   38.4168 H   0  0  0  0  0  0  0  0  0  0  0  0
  1  2  1  0
  2  6  1  0
  3  4  1  0
  3  2  1  0
  4  5  1  0
  5  6  1  0
  6  7  1  0
  7  8  2  0
  8  9  1  0
 10  9  2  0
 11 10  1  0
 12 11  2  0
 13 12  1  0
 14 15  1  0
 14 13  2  0
 15 16  2  0
 16  7  1  0
 16 11  1  0
 17  1  1  0
 17 22  1  0
 18 28  1  0
 19 18  2  0
 20 19  1  0
 21 22  1  0
 21 20  2  0
 22 23  2  0
 23 18  1  0
 24 25  2  0
 26 25  1  0
 27 26  2  0
 28 29  2  0
 28 27  1  0
 29 24  1  0
  1 30  1  0
  1 31  1  0
  2 32  1  1
  3 33  1  0
  3 34  1  0
  4 35  1  0
  4 36  1  0
  5 37  1  0
  5 38  1  0
  6 39  1  1
  8 40  1  0
  9 41  1  0
 10 42  1  0
 12 43  1  0
 13 44  1  0
 14 45  1  0
 15 46  1  0
 17 47  1  0
 17 48  1  0
 19 49  1  0
 20 50  1  0
 21 51  1  0
 24 52  1  0
 25 53  1  0
 26 54  1  0
M  END
>  <minimizedAffinity>  (1) 
-7.00424099

>  <minimizedRMSD>  (1) 
2.57006645

$$$$
