
     RDKit          3D

 49 53  0  0  1  0  0  0  0  0999 V2000
   38.2420   26.2270   31.6630 N   0  0  0  0  0  0  0  0  0  0  0  0
   36.9440   26.2600   31.1490 C   0  0  0  0  0  0  0  0  0  0  0  0
   36.1540   25.1860   31.8490 C   0  0  0  0  0  0  0  0  0  0  0  0
   37.2570   24.1510   32.1270 C   0  0  0  0  0  0  0  0  0  0  0  0
   38.4110   25.0440   32.4980 C   0  0  2  0  0  0  0  0  0  0  0  0
   38.3540   25.5830   33.8690 C   0  0  0  0  0  0  0  0  0  0  0  0
   38.3970   26.9520   34.1670 C   0  0  0  0  0  0  0  0  0  0  0  0
   38.3440   27.5190   35.4190 C   0  0  0  0  0  0  0  0  0  0  0  0
   38.2380   26.7000   36.5000 C   0  0  0  0  0  0  0  0  0  0  0  0
   38.1870   25.3370   36.3160 C   0  0  0  0  0  0  0  0  0  0  0  0
   38.0790   24.5290   37.4240 C   0  0  0  0  0  0  0  0  0  0  0  0
   38.0250   23.1670   37.3000 C   0  0  0  0  0  0  0  0  0  0  0  0
   38.0810   22.6360   36.0200 C   0  0  0  0  0  0  0  0  0  0  0  0
   38.1890   23.4730   34.9470 C   0  0  0  0  0  0  0  0  0  0  0  0
   38.2470   24.8450   35.0300 C   0  0  0  0  0  0  0  0  0  0  0  0
   40.8490   25.1010   32.1670 C   0  0  0  0  0  0  0  0  0  0  0  0
   41.8060   24.1760   31.7410 C   0  0  0  0  0  0  0  0  0  0  0  0
   41.1580   23.0350   31.4730 N   0  0  0  0  0  0  0  0  0  0  0  0
   39.8390   23.1930   31.7100 C   0  0  0  0  0  0  0  0  0  0  0  0
   39.6720   24.4360   32.1260 N   0  0  0  0  0  0  0  0  0  0  0  0
   41.1470   26.4060   32.5340 O   0  0  0  0  0  0  0  0  0  0  0  0
   42.8420   29.1410   30.8980 C   0  0  0  0  0  0  0  0  0  0  0  0
   42.0110   29.3600   29.7840 C   0  0  0  0  0  0  0  0  0  0  0  0
   40.8900   28.5520   29.6370 C   0  0  0  0  0  0  0  0  0  0  0  0
   40.6440   27.6010   30.5550 N   0  0  0  0  0  0  0  0  0  0  0  0
   41.4690   27.4110   31.6270 C   0  0  0  0  0  0  0  0  0  0  0  0
   42.5570   28.1940   31.7710 N   0  0  0  0  0  0  0  0  0  0  0  0
   44.0330   29.9680   31.0920 C   0  0  0  0  0  0  0  0  0  0  0  0
   38.4076   27.0717   32.2287 H   0  0  0  0  0  0  0  0  0  0  0  0
   36.4899   27.2440   31.3378 H   0  0  0  0  0  0  0  0  0  0  0  0
   36.9526   26.0895   30.0623 H   0  0  0  0  0  0  0  0  0  0  0  0
   35.7034   25.5575   32.7812 H   0  0  0  0  0  0  0  0  0  0  0  0
   35.3014   24.7987   31.2719 H   0  0  0  0  0  0  0  0  0  0  0  0
   36.9823   23.4823   32.9561 H   0  0  0  0  0  0  0  0  0  0  0  0
   37.4631   23.4743   31.2846 H   0  0  0  0  0  0  0  0  0  0  0  0
   38.4816   27.6418   33.3144 H   0  0  0  0  0  0  0  0  0  0  0  0
   38.3864   28.6111   35.5435 H   0  0  0  0  0  0  0  0  0  0  0  0
   38.1934   27.1241   37.5140 H   0  0  0  0  0  0  0  0  0  0  0  0
   38.0354   24.9842   38.4244 H   0  0  0  0  0  0  0  0  0  0  0  0
   37.9403   22.5171   38.1835 H   0  0  0  0  0  0  0  0  0  0  0  0
   38.0386   21.5471   35.8703 H   0  0  0  0  0  0  0  0  0  0  0  0
   38.2327   23.0187   33.9461 H   0  0  0  0  0  0  0  0  0  0  0  0
   42.8875   24.3519   31.6441 H   0  0  0  0  0  0  0  0  0  0  0  0
   39.0539   22.4333   31.5816 H   0  0  0  0  0  0  0  0  0  0  0  0
   42.2418   30.1473   29.0513 H   0  0  0  0  0  0  0  0  0  0  0  0
   40.2129   28.6887   28.7809 H   0  0  0  0  0  0  0  0  0  0  0  0
   44.2185   30.0968   32.1686 H   0  0  0  0  0  0  0  0  0  0  0  0
   44.9003   29.4768   30.6267 H   0  0  0  0  0  0  0  0  0  0  0  0
   43.8757   30.9522   30.6267 H   0  0  0  0  0  0  0  0  0  0  0  0
  1  5  1  0
  2  1  1  0
  2  3  1  0
  3  4  1  0
  4  5  1  0
  5  6  1  0
  6  7  2  0
  6 15  1  0
  7  8  1  0
  8  9  2  0
 10  9  1  0
 10 11  2  0
 12 11  1  0
 13 12  2  0
 14 15  2  0
 14 13  1  0
 15 10  1  0
 16 21  1  0
 17 16  2  0
 18 19  2  0
 18 17  1  0
 19 20  1  0
 20 16  1  0
  5 20  1  6
 22 28  1  0
 22 27  2  0
 23 22  1  0
 24 23  2  0
 24 25  1  0
 25 26  2  0
 26 27  1  0
 26 21  1  0
  1 29  1  0
  2 30  1  0
  2 31  1  0
  3 32  1  0
  3 33  1  0
  4 34  1  0
  4 35  1  0
  7 36  1  0
  8 37  1  0
  9 38  1  0
 11 39  1  0
 12 40  1  0
 13 41  1  0
 14 42  1  0
 17 43  1  0
 19 44  1  0
 23 45  1  0
 24 46  1  0
 28 47  1  0
 28 48  1  0
 28 49  1  0
M  ISO  8  29   5  30  13  31  13  32  13  33  13  34  13  35  13  36  14
M  ISO  8  37  14  38  14  39  14  40  14  41  14  42  14  43  14  44  14
M  ISO  5  45  14  46  14  47   8  48   8  49   8
M  END
>  <minimizedAffinity>  (1) 
-5.19450617

>  <minimizedRMSD>  (1) 
6.16107607

$$$$
