
     RDKit          3D

 50 54  0  0  1  0  0  0  0  0999 V2000
   37.0570   25.7880   32.2180 C   0  0  1  0  0  0  0  0  0  0  0  0
   36.5690   24.3440   32.1990 C   0  0  0  0  0  0  0  0  0  0  0  0
   35.5730   24.2680   31.0710 C   0  0  0  0  0  0  0  0  0  0  0  0
   35.1280   25.6470   30.7490 C   0  0  0  0  0  0  0  0  0  0  0  0
   35.8290   26.5030   31.7640 C   0  0  2  0  0  0  0  0  0  0  0  0
   36.2020   27.7580   31.0950 C   0  0  0  0  0  0  0  0  0  0  0  0
   37.1230   27.9480   30.0960 C   0  0  0  0  0  0  0  0  0  0  0  0
   37.4500   29.1400   29.4900 C   0  0  0  0  0  0  0  0  0  0  0  0
   36.8040   30.2830   29.9070 C   0  0  0  0  0  0  0  0  0  0  0  0
   35.8640   30.1750   30.9080 C   0  0  0  0  0  0  0  0  0  0  0  0
   35.2610   31.3560   31.2650 C   0  0  0  0  0  0  0  0  0  0  0  0
   34.3080   31.3540   32.2490 C   0  0  0  0  0  0  0  0  0  0  0  0
   33.9840   30.1670   32.8490 C   0  0  0  0  0  0  0  0  0  0  0  0
   34.6220   29.0100   32.4510 C   0  0  0  0  0  0  0  0  0  0  0  0
   35.5780   28.9510   31.4790 C   0  0  0  0  0  0  0  0  0  0  0  0
   38.2810   25.6120   35.6880 C   0  0  0  0  0  0  0  0  0  0  0  0
   38.2470   26.9180   36.1680 C   0  0  0  0  0  0  0  0  0  0  0  0
   37.7890   27.8600   35.2670 C   0  0  0  0  0  0  0  0  0  0  0  0
   37.3950   27.5540   33.9950 C   0  0  0  0  0  0  0  0  0  0  0  0
   37.4470   26.2470   33.5650 C   0  0  0  0  0  0  0  0  0  0  0  0
   37.8930   25.3370   34.4480 N   0  0  0  0  0  0  0  0  0  0  0  0
   38.6300   23.3040   38.5760 C   0  0  0  0  0  0  0  0  0  0  0  0
   38.1430   24.3500   37.7720 C   0  0  0  0  0  0  0  0  0  0  0  0
   38.7430   24.5520   36.5460 C   0  0  0  0  0  0  0  0  0  0  0  0
   39.7660   23.7460   36.1660 N   0  0  0  0  0  0  0  0  0  0  0  0
   40.2320   22.7370   36.9470 C   0  0  0  0  0  0  0  0  0  0  0  0
   39.6460   22.5380   38.1460 N   0  0  0  0  0  0  0  0  0  0  0  0
   41.2890   21.9020   36.5550 N   0  0  0  0  0  0  0  0  0  0  0  0
   37.9576   25.9488   31.6073 H   0  0  0  0  0  0  0  0  0  0  0  0
   37.4087   23.6572   32.0168 H   0  0  0  0  0  0  0  0  0  0  0  0
   36.1189   24.0537   33.1598 H   0  0  0  0  0  0  0  0  0  0  0  0
   36.0454   23.8137   30.1876 H   0  0  0  0  0  0  0  0  0  0  0  0
   34.7117   23.6510   31.3666 H   0  0  0  0  0  0  0  0  0  0  0  0
   35.4283   25.9261   29.7283 H   0  0  0  0  0  0  0  0  0  0  0  0
   34.0342   25.7576   30.7858 H   0  0  0  0  0  0  0  0  0  0  0  0
   35.1874   26.7090   32.6335 H   0  0  0  0  0  0  0  0  0  0  0  0
   37.6564   27.0535   29.7419 H   0  0  0  0  0  0  0  0  0  0  0  0
   38.2076   29.1788   28.6934 H   0  0  0  0  0  0  0  0  0  0  0  0
   37.0332   31.2578   29.4518 H   0  0  0  0  0  0  0  0  0  0  0  0
   35.5407   32.2952   30.7653 H   0  0  0  0  0  0  0  0  0  0  0  0
   33.8125   32.2884   32.5513 H   0  0  0  0  0  0  0  0  0  0  0  0
   33.2217   30.1358   33.6415 H   0  0  0  0  0  0  0  0  0  0  0  0
   34.3409   28.0715   32.9512 H   0  0  0  0  0  0  0  0  0  0  0  0
   38.5614   27.1807   37.1889 H   0  0  0  0  0  0  0  0  0  0  0  0
   37.7390   28.9102   35.5903 H   0  0  0  0  0  0  0  0  0  0  0  0
   37.0389   28.3458   33.3196 H   0  0  0  0  0  0  0  0  0  0  0  0
   38.1774   23.1126   39.5601 H   0  0  0  0  0  0  0  0  0  0  0  0
   37.3113   24.9860   38.1093 H   0  0  0  0  0  0  0  0  0  0  0  0
   41.6095   21.1489   37.1803 H   0  0  0  0  0  0  0  0  0  0  0  0
   41.7446   22.0421   35.6419 H   0  0  0  0  0  0  0  0  0  0  0  0
  1 20  1  0
  2  1  1  0
  3  2  1  0
  4  3  1  0
  4  5  1  0
  5  1  1  0
  6 15  1  0
  6  5  1  0
  7  6  2  0
  8  9  2  0
  8  7  1  0
  9 10  1  0
 10 11  1  0
 10 15  2  0
 11 12  2  0
 12 13  1  0
 14 13  2  0
 15 14  1  0
 16 17  2  0
 16 24  1  0
 18 17  1  0
 19 18  2  0
 20 19  1  0
 20 21  2  0
 21 16  1  0
 23 22  2  0
 24 23  1  0
 25 24  2  0
 25 26  1  0
 26 27  2  0
 27 22  1  0
 28 26  1  0
  1 29  1  6
  2 30  1  0
  2 31  1  0
  3 32  1  0
  3 33  1  0
  4 34  1  0
  4 35  1  0
  5 36  1  1
  7 37  1  0
  8 38  1  0
  9 39  1  0
 11 40  1  0
 12 41  1  0
 13 42  1  0
 14 43  1  0
 17 44  1  0
 18 45  1  0
 19 46  1  0
 22 47  1  0
 23 48  1  0
 28 49  1  0
 28 50  1  0
M  END
>  <minimizedAffinity>  (1) 
-7.04197741

>  <minimizedRMSD>  (1) 
0.436735719

$$$$
