
     RDKit          3D

 33 35  0  0  0  0  0  0  0  0999 V2000
   40.3100   23.2350   36.8930 C   0  0  0  0  0  0  0  0  0  0  0  0
   39.6030   24.0440   36.0210 C   0  0  0  0  0  0  0  0  0  0  0  0
   38.3710   24.6020   36.3510 C   0  0  0  0  0  0  0  0  0  0  0  0
   37.9090   24.3010   37.5740 N   0  0  0  0  0  0  0  0  0  0  0  0
   38.5670   23.5200   38.4410 C   0  0  0  0  0  0  0  0  0  0  0  0
   39.7520   22.9910   38.1120 N   0  0  0  0  0  0  0  0  0  0  0  0
   41.5480   22.5320   36.6830 C   0  0  0  0  0  0  0  0  0  0  0  0
   41.5550   21.1410   36.8730 C   0  0  0  0  0  0  0  0  0  0  0  0
   42.6530   20.3260   36.7260 C   0  0  0  0  0  0  0  0  0  0  0  0
   43.8520   20.8850   36.3660 C   0  0  0  0  0  0  0  0  0  0  0  0
   43.9320   22.2440   36.1620 C   0  0  0  0  0  0  0  0  0  0  0  0
   45.1310   22.8160   35.8390 C   0  0  0  0  0  0  0  0  0  0  0  0
   45.2730   24.1760   35.6640 C   0  0  0  0  0  0  0  0  0  0  0  0
   44.1200   24.9510   35.8360 C   0  0  0  0  0  0  0  0  0  0  0  0
   42.9370   24.3320   36.1600 C   0  0  0  0  0  0  0  0  0  0  0  0
   42.7910   22.9820   36.3310 C   0  0  0  0  0  0  0  0  0  0  0  0
   37.6790   25.4280   35.4270 N   0  0  0  0  0  0  0  0  0  0  0  0
   37.9730   26.8290   35.3960 C   0  0  0  0  0  0  0  0  0  0  0  0
   38.5610   27.4370   36.3870 N   0  0  0  0  0  0  0  0  0  0  0  0
   37.5760   27.5030   34.2080 N   0  0  0  0  0  0  0  0  0  0  0  0
   38.7820   28.4430   36.3910 H   0  0  0  0  0  0  0  0  0  0  0  0
   40.0306   24.2542   35.0295 H   0  0  0  0  0  0  0  0  0  0  0  0
   38.1310   23.3121   39.4293 H   0  0  0  0  0  0  0  0  0  0  0  0
   40.6065   20.6650   37.1626 H   0  0  0  0  0  0  0  0  0  0  0  0
   42.5705   19.2421   36.8947 H   0  0  0  0  0  0  0  0  0  0  0  0
   44.7432   20.2524   36.2411 H   0  0  0  0  0  0  0  0  0  0  0  0
   46.0120   22.1693   35.7146 H   0  0  0  0  0  0  0  0  0  0  0  0
   46.2411   24.6283   35.4030 H   0  0  0  0  0  0  0  0  0  0  0  0
   44.1607   26.0434   35.7131 H   0  0  0  0  0  0  0  0  0  0  0  0
   42.0466   24.9645   36.2909 H   0  0  0  0  0  0  0  0  0  0  0  0
   36.9770   25.0262   34.7894 H   0  0  0  0  0  0  0  0  0  0  0  0
   37.7512   28.5128   34.1057 H   0  0  0  0  0  0  0  0  0  0  0  0
   37.1133   26.9812   33.4500 H   0  0  0  0  0  0  0  0  0  0  0  0
  1  6  2  0
  2  3  2  0
  2  1  1  0
  3  4  1  0
  4  5  2  0
  6  5  1  0
  7  8  2  0
  7  1  1  0
  9  8  1  0
 10  9  2  0
 11 16  2  0
 11 10  1  0
 12 11  1  0
 13 14  1  0
 13 12  2  0
 14 15  2  0
 15 16  1  0
 16  7  1  0
 17  3  1  0
 18 17  1  0
 18 19  2  0
 19 21  1  0
 20 18  1  0
  2 22  1  0
  5 23  1  0
  8 24  1  0
  9 25  1  0
 10 26  1  0
 12 27  1  0
 13 28  1  0
 14 29  1  0
 15 30  1  0
 17 31  1  0
 20 32  1  0
 20 33  1  0
M  ISO  8  22  14  23  14  24  14  25  14  26  14  27  14  28  14  29  14
M  ISO  1  30  14
M  END
>  <minimizedAffinity>  (1) 
-5.57611799

>  <minimizedRMSD>  (1) 
1.14830554

$$$$
