
     RDKit          3D

 36 38  0  0  1  0  0  0  0  0999 V2000
   38.7810   25.1340   34.7530 C   0  0  0  0  0  0  0  0  0  0  0  0
   38.0620   24.7420   33.5980 N   0  0  0  0  0  0  0  0  0  0  0  0
   38.0030   23.6250   32.8260 C   0  0  0  0  0  0  0  0  0  0  0  0
   37.1190   23.7270   31.7820 C   0  0  0  0  0  0  0  0  0  0  0  0
   36.6050   24.9610   31.9060 N   0  0  0  0  0  0  0  0  0  0  0  0
   37.1660   25.5580   32.9830 C   0  0  0  0  0  0  0  0  0  0  0  0
   36.7180   26.9220   33.2710 C   0  0  0  0  0  0  0  0  0  0  0  0
   36.2800   27.5810   32.1180 C   0  0  0  0  0  0  0  0  0  0  0  0
   35.8150   28.8780   32.1710 C   0  0  0  0  0  0  0  0  0  0  0  0
   35.8010   29.4960   33.4100 C   0  0  0  0  0  0  0  0  0  0  0  0
   36.2280   28.8660   34.5610 C   0  0  0  0  0  0  0  0  0  0  0  0
   36.6970   27.5510   34.4990 C   0  0  0  0  0  0  0  0  0  0  0  0
   38.6240   24.1630   35.8840 C   0  0  1  0  0  0  0  0  0  0  0  0
   41.1650   21.8560   37.4760 C   0  0  0  0  0  0  0  0  0  0  0  0
   39.9210   22.4380   37.2230 C   0  0  0  0  0  0  0  0  0  0  0  0
   39.8940   23.4590   36.2220 C   0  0  0  0  0  0  0  0  0  0  0  0
   41.0620   23.8030   35.5800 N   0  0  0  0  0  0  0  0  0  0  0  0
   42.2210   23.2170   35.8590 C   0  0  0  0  0  0  0  0  0  0  0  0
   42.2730   22.2270   36.8230 N   0  0  0  0  0  0  0  0  0  0  0  0
   38.0470   24.8510   37.0950 C   0  0  0  0  0  0  0  0  0  0  0  0
   38.4143   26.1183   35.0796 H   0  0  0  0  0  0  0  0  0  0  0  0
   39.8479   25.1677   34.4871 H   0  0  0  0  0  0  0  0  0  0  0  0
   38.6061   22.7257   33.0197 H   0  0  0  0  0  0  0  0  0  0  0  0
   36.8849   22.9709   31.0182 H   0  0  0  0  0  0  0  0  0  0  0  0
   36.3069   27.0556   31.1520 H   0  0  0  0  0  0  0  0  0  0  0  0
   35.4695   29.4001   31.2665 H   0  0  0  0  0  0  0  0  0  0  0  0
   35.4347   30.5309   33.4795 H   0  0  0  0  0  0  0  0  0  0  0  0
   36.1993   29.3970   35.5239 H   0  0  0  0  0  0  0  0  0  0  0  0
   37.0404   27.0310   35.4054 H   0  0  0  0  0  0  0  0  0  0  0  0
   37.9203   23.3880   35.5462 H   0  0  0  0  0  0  0  0  0  0  0  0
   41.2368   21.0658   38.2378 H   0  0  0  0  0  0  0  0  0  0  0  0
   39.0138   22.1288   37.7628 H   0  0  0  0  0  0  0  0  0  0  0  0
   43.1349   23.5178   35.3258 H   0  0  0  0  0  0  0  0  0  0  0  0
   38.4420   24.3800   38.0072 H   0  0  0  0  0  0  0  0  0  0  0  0
   38.3272   25.9146   37.0807 H   0  0  0  0  0  0  0  0  0  0  0  0
   36.9508   24.7603   37.0807 H   0  0  0  0  0  0  0  0  0  0  0  0
  1 13  1  0
  2  1  1  0
  3  2  1  0
  4  5  1  0
  4  3  2  0
  5  6  2  0
  6  7  1  0
  6  2  1  0
  7 12  2  0
  8  9  2  0
  8  7  1  0
  9 10  1  0
 10 11  2  0
 12 11  1  0
 13 16  1  0
 13 20  1  0
 15 14  2  0
 16 15  1  0
 17 18  1  0
 17 16  2  0
 18 19  2  0
 19 14  1  0
  1 21  1  0
  1 22  1  0
  3 23  1  0
  4 24  1  0
  8 25  1  0
  9 26  1  0
 10 27  1  0
 11 28  1  0
 12 29  1  0
 13 30  1  6
 14 31  1  0
 15 32  1  0
 18 33  1  0
 20 34  1  0
 20 35  1  0
 20 36  1  0
M  ISO  8  21   8  22   8  23  14  24  14  25  14  26  14  27  14  28  14
M  ISO  8  29  14  30   8  31  14  32  14  33  14  34   8  35   8  36   8
M  END
>  <minimizedAffinity>  (1) 
-4.69084787

>  <minimizedRMSD>  (1) 
2.63703442

$$$$
