
     RDKit          3D

 30 32  0  0  0  0  0  0  0  0999 V2000
   39.6250   22.6260   38.2820 N   0  0  0  0  0  0  0  0  0  0  0  0
   38.5390   23.3560   38.0820 N   0  0  0  0  0  0  0  0  0  0  0  0
   38.5960   23.9470   36.8640 C   0  0  0  0  0  0  0  0  0  0  0  0
   39.7780   23.5690   36.2730 C   0  0  0  0  0  0  0  0  0  0  0  0
   40.3920   22.7450   37.1870 C   0  0  0  0  0  0  0  0  0  0  0  0
   41.6970   22.1450   36.8900 C   0  0  0  0  0  0  0  0  0  0  0  0
   42.0290   20.8230   37.1000 C   0  0  0  0  0  0  0  0  0  0  0  0
   43.2810   20.3340   36.7930 C   0  0  0  0  0  0  0  0  0  0  0  0
   44.2260   21.1940   36.2620 C   0  0  0  0  0  0  0  0  0  0  0  0
   43.9290   22.5210   36.0390 C   0  0  0  0  0  0  0  0  0  0  0  0
   42.6560   22.9990   36.3560 C   0  0  0  0  0  0  0  0  0  0  0  0
   37.5730   24.7800   36.3930 O   0  0  0  0  0  0  0  0  0  0  0  0
   37.8170   26.0760   35.9810 C   0  0  0  0  0  0  0  0  0  0  0  0
   38.4350   26.8710   36.6950 O   0  0  0  0  0  0  0  0  0  0  0  0
   37.3300   26.5170   34.6710 C   0  0  0  0  0  0  0  0  0  0  0  0
   37.4440   25.6150   33.6010 C   0  0  0  0  0  0  0  0  0  0  0  0
   36.9840   26.0210   32.3390 C   0  0  0  0  0  0  0  0  0  0  0  0
   36.4600   27.2570   32.2430 N   0  0  0  0  0  0  0  0  0  0  0  0
   36.3660   28.0870   33.2720 C   0  0  0  0  0  0  0  0  0  0  0  0
   36.7940   27.7430   34.5050 N   0  0  0  0  0  0  0  0  0  0  0  0
   39.8412   22.0701   39.1217 H   0  0  0  0  0  0  0  0  0  0  0  0
   40.1526   23.8627   35.2813 H   0  0  0  0  0  0  0  0  0  0  0  0
   41.2761   20.1417   37.5230 H   0  0  0  0  0  0  0  0  0  0  0  0
   43.5251   19.2757   36.9676 H   0  0  0  0  0  0  0  0  0  0  0  0
   45.2279   20.8132   36.0145 H   0  0  0  0  0  0  0  0  0  0  0  0
   44.6869   23.1966   35.6157 H   0  0  0  0  0  0  0  0  0  0  0  0
   42.4102   24.0570   36.1824 H   0  0  0  0  0  0  0  0  0  0  0  0
   37.8822   24.6168   33.7481 H   0  0  0  0  0  0  0  0  0  0  0  0
   37.0490   25.3568   31.4646 H   0  0  0  0  0  0  0  0  0  0  0  0
   35.9271   29.0836   33.1169 H   0  0  0  0  0  0  0  0  0  0  0  0
  2  1  1  0
  3  2  2  0
  4  3  1  0
  4  5  2  0
  5  1  1  0
  6  7  2  0
  6  5  1  0
  8  7  1  0
  9  8  2  0
 10  9  1  0
 10 11  2  0
 11  6  1  0
 12  3  1  0
 13 12  1  0
 13 14  2  0
 15 13  1  0
 16 15  2  0
 17 16  1  0
 18 17  2  0
 18 19  1  0
 19 20  2  0
 20 15  1  0
  1 21  1  0
  4 22  1  0
  7 23  1  0
  8 24  1  0
  9 25  1  0
 10 26  1  0
 11 27  1  0
 16 28  1  0
 17 29  1  0
 19 30  1  0
M  ISO  8  21   9  22  14  23  14  24  14  25  14  26  14  27  14  28  14
M  ISO  2  29  14  30  14
M  END
>  <minimizedAffinity>  (1) 
-5.35377645

>  <minimizedRMSD>  (1) 
1.08019435

$$$$
