
     RDKit          3D

 30 32  0  0  0  0  0  0  0  0999 V2000
   39.8340   22.7290   37.4580 C   0  0  0  0  0  0  0  0  0  0  0  0
   39.1580   23.4870   38.4470 C   0  0  0  0  0  0  0  0  0  0  0  0
   37.7640   23.6140   38.3020 C   0  0  0  0  0  0  0  0  0  0  0  0
   37.1440   23.0230   37.2500 N   0  0  0  0  0  0  0  0  0  0  0  0
   37.8510   22.3030   36.3270 C   0  0  0  0  0  0  0  0  0  0  0  0
   39.1880   22.1520   36.4210 N   0  0  0  0  0  0  0  0  0  0  0  0
   37.2010   21.6780   35.2160 N   0  0  0  0  0  0  0  0  0  0  0  0
   37.8530   21.7860   34.0180 C   0  0  0  0  0  0  0  0  0  0  0  0
   37.2530   21.1920   32.9150 C   0  0  0  0  0  0  0  0  0  0  0  0
   36.0460   20.5310   33.0880 C   0  0  0  0  0  0  0  0  0  0  0  0
   35.5160   19.9970   32.0710 O   0  0  0  0  0  0  0  0  0  0  0  0
   35.4590   20.4640   34.2970 N   0  0  0  0  0  0  0  0  0  0  0  0
   36.0410   21.0420   35.3710 C   0  0  0  0  0  0  0  0  0  0  0  0
   35.5610   21.0220   36.5140 O   0  0  0  0  0  0  0  0  0  0  0  0
   37.9200   21.2860   31.6200 C   0  0  0  0  0  0  0  0  0  0  0  0
   38.3460   20.1850   30.8840 C   0  0  0  0  0  0  0  0  0  0  0  0
   38.9570   20.4480   29.6800 C   0  0  0  0  0  0  0  0  0  0  0  0
   39.1520   21.7100   29.2050 C   0  0  0  0  0  0  0  0  0  0  0  0
   38.7210   22.8140   29.9490 C   0  0  0  0  0  0  0  0  0  0  0  0
   38.0970   22.5940   31.1720 C   0  0  0  0  0  0  0  0  0  0  0  0
   40.9242   22.6061   37.5377 H   0  0  0  0  0  0  0  0  0  0  0  0
   39.6962   23.9526   39.2858 H   0  0  0  0  0  0  0  0  0  0  0  0
   37.1810   24.1886   39.0368 H   0  0  0  0  0  0  0  0  0  0  0  0
   38.8108   22.3201   33.9320 H   0  0  0  0  0  0  0  0  0  0  0  0
   34.5617   19.9698   34.4044 H   0  0  0  0  0  0  0  0  0  0  0  0
   38.2016   19.1565   31.2464 H   0  0  0  0  0  0  0  0  0  0  0  0
   39.3045   19.5996   29.0721 H   0  0  0  0  0  0  0  0  0  0  0  0
   39.6489   21.8612   28.2354 H   0  0  0  0  0  0  0  0  0  0  0  0
   38.8730   23.8367   29.5734 H   0  0  0  0  0  0  0  0  0  0  0  0
   37.7472   23.4422   31.7788 H   0  0  0  0  0  0  0  0  0  0  0  0
  1  2  2  0
  3  2  1  0
  4  3  2  0
  5  6  2  0
  5  4  1  0
  6  1  1  0
  7 13  1  0
  7  5  1  0
  8  7  1  0
  9 10  1  0
  9  8  2  0
 10 12  1  0
 11 10  2  0
 12 13  1  0
 13 14  2  0
 15  9  1  0
 16 15  2  0
 17 16  1  0
 18 17  2  0
 18 19  1  0
 19 20  2  0
 20 15  1  0
  1 21  1  0
  2 22  1  0
  3 23  1  0
  8 24  1  0
 12 25  1  0
 16 26  1  0
 17 27  1  0
 18 28  1  0
 19 29  1  0
 20 30  1  0
M  ISO  8  21  14  22  14  23  14  24  14  25   9  26  14  27  14  28  14
M  ISO  2  29  14  30  14
M  END
>  <minimizedAffinity>  (1) 
-5.21587801

>  <minimizedRMSD>  (1) 
0.597502053

$$$$
