
     RDKit          3D

 33 35  0  0  0  0  0  0  0  0999 V2000
   38.0050   22.7650   34.3140 C   0  0  0  0  0  0  0  0  0  0  0  0
   37.6380   23.9590   33.6870 C   0  0  0  0  0  0  0  0  0  0  0  0
   37.1130   23.8640   32.3670 C   0  0  0  0  0  0  0  0  0  0  0  0
   37.0110   22.6350   31.8250 N   0  0  0  0  0  0  0  0  0  0  0  0
   37.3720   21.5040   32.4520 C   0  0  0  0  0  0  0  0  0  0  0  0
   37.8640   21.5810   33.6860 N   0  0  0  0  0  0  0  0  0  0  0  0
   37.2690   20.2080   31.8780 N   0  0  0  0  0  0  0  0  0  0  0  0
   38.3220   19.3370   31.7970 C   0  0  0  0  0  0  0  0  0  0  0  0
   38.0950   18.1140   31.2230 C   0  0  0  0  0  0  0  0  0  0  0  0
   36.8370   17.8040   30.7560 C   0  0  0  0  0  0  0  0  0  0  0  0
   36.6290   16.6880   30.2340 O   0  0  0  0  0  0  0  0  0  0  0  0
   35.7860   18.6480   30.8260 N   0  0  0  0  0  0  0  0  0  0  0  0
   36.0600   19.8450   31.4020 C   0  0  0  0  0  0  0  0  0  0  0  0
   35.0920   20.6570   31.4800 O   0  0  0  0  0  0  0  0  0  0  0  0
   37.7660   25.2680   34.3150 C   0  0  0  0  0  0  0  0  0  0  0  0
   37.1220   26.3840   33.8230 C   0  0  0  0  0  0  0  0  0  0  0  0
   37.1770   27.6610   34.3410 C   0  0  0  0  0  0  0  0  0  0  0  0
   37.9700   27.8000   35.4720 C   0  0  0  0  0  0  0  0  0  0  0  0
   38.6530   26.7400   36.0360 C   0  0  0  0  0  0  0  0  0  0  0  0
   38.5360   25.4980   35.4460 C   0  0  0  0  0  0  0  0  0  0  0  0
   39.1770   17.1350   31.0970 C   0  0  0  0  0  0  0  0  0  0  0  0
   38.4147   22.7921   35.3345 H   0  0  0  0  0  0  0  0  0  0  0  0
   36.8023   24.7606   31.8106 H   0  0  0  0  0  0  0  0  0  0  0  0
   39.3165   19.6098   32.1798 H   0  0  0  0  0  0  0  0  0  0  0  0
   34.8509   18.4027   30.4705 H   0  0  0  0  0  0  0  0  0  0  0  0
   36.5013   26.2410   32.9262 H   0  0  0  0  0  0  0  0  0  0  0  0
   36.6337   28.5055   33.8920 H   0  0  0  0  0  0  0  0  0  0  0  0
   38.0579   28.7929   35.9372 H   0  0  0  0  0  0  0  0  0  0  0  0
   39.2743   26.8823   36.9325 H   0  0  0  0  0  0  0  0  0  0  0  0
   39.0781   24.6516   35.8929 H   0  0  0  0  0  0  0  0  0  0  0  0
   39.5140   16.8300   32.0987 H   0  0  0  0  0  0  0  0  0  0  0  0
   38.8122   16.2538   30.5488 H   0  0  0  0  0  0  0  0  0  0  0  0
   40.0174   17.5858   30.5488 H   0  0  0  0  0  0  0  0  0  0  0  0
  2  1  2  0
  2 15  1  0
  3  2  1  0
  4  3  2  0
  4  5  1  0
  5  6  2  0
  6  1  1  0
  7  5  1  0
  8  7  1  0
  9  8  2  0
 10 12  1  0
 10  9  1  0
 11 10  2  0
 12 13  1  0
 13 14  2  0
 13  7  1  0
 15 20  1  0
 16 15  2  0
 16 17  1  0
 17 18  2  0
 18 19  1  0
 20 19  2  0
 21  9  1  0
  1 22  1  0
  3 23  1  0
  8 24  1  0
 12 25  1  0
 16 26  1  0
 17 27  1  0
 18 28  1  0
 19 29  1  0
 20 30  1  0
 21 31  1  0
 21 32  1  0
 21 33  1  0
M  ISO  8  22  14  23  14  24  14  25   9  26  14  27  14  28  14  29  14
M  ISO  4  30  14  31   8  32   8  33   8
M  END
>  <minimizedAffinity>  (1) 
-4.98919868

>  <minimizedRMSD>  (1) 
5.13066435

$$$$
