
     RDKit          3D

 34 37  0  0  1  0  0  0  0  0999 V2000
   38.1560   23.9500   34.6630 C   0  0  0  0  0  0  0  0  0  0  0  0
   38.3110   25.1720   34.0310 C   0  0  0  0  0  0  0  0  0  0  0  0
   37.9200   24.9270   32.7400 N   0  0  0  0  0  0  0  0  0  0  0  0
   37.5710   23.6550   32.6570 C   0  0  0  0  0  0  0  0  0  0  0  0
   37.7050   23.0170   33.8320 N   0  0  0  0  0  0  0  0  0  0  0  0
   38.4470   23.6980   36.0710 C   0  0  0  0  0  0  0  0  0  0  0  0
   39.6470   23.0550   36.4320 C   0  0  0  0  0  0  0  0  0  0  0  0
   39.8840   22.8330   37.8050 C   0  0  0  0  0  0  0  0  0  0  0  0
   38.9500   23.2500   38.6800 N   0  0  0  0  0  0  0  0  0  0  0  0
   37.8120   23.8620   38.3010 C   0  0  0  0  0  0  0  0  0  0  0  0
   37.5530   24.0900   36.9980 N   0  0  0  0  0  0  0  0  0  0  0  0
   37.3920   21.6210   34.0180 C   0  0  1  0  0  0  0  0  0  0  0  0
   36.1630   21.1710   34.6790 C   0  0  0  0  0  0  0  0  0  0  0  0
   36.2150   21.1700   33.1690 C   0  0  2  0  0  0  0  0  0  0  0  0
   36.2220   19.8140   32.5870 C   0  0  0  0  0  0  0  0  0  0  0  0
   35.3650   18.8090   32.9720 C   0  0  0  0  0  0  0  0  0  0  0  0
   35.3900   17.5510   32.4140 C   0  0  0  0  0  0  0  0  0  0  0  0
   36.2950   17.2380   31.4240 C   0  0  0  0  0  0  0  0  0  0  0  0
   37.1640   18.2070   31.0100 C   0  0  0  0  0  0  0  0  0  0  0  0
   37.1100   19.4550   31.5910 C   0  0  0  0  0  0  0  0  0  0  0  0
   38.6654   26.1191   34.4639 H   0  0  0  0  0  0  0  0  0  0  0  0
   37.2129   23.1749   31.7344 H   0  0  0  0  0  0  0  0  0  0  0  0
   40.3740   22.7370   35.6701 H   0  0  0  0  0  0  0  0  0  0  0  0
   40.8025   22.3352   38.1493 H   0  0  0  0  0  0  0  0  0  0  0  0
   37.0854   24.1795   39.0634 H   0  0  0  0  0  0  0  0  0  0  0  0
   38.4423   21.3471   34.1962 H   0  0  0  0  0  0  0  0  0  0  0  0
   36.1550   20.2166   35.2259 H   0  0  0  0  0  0  0  0  0  0  0  0
   35.4852   21.6107   35.4255 H   0  0  0  0  0  0  0  0  0  0  0  0
   35.6742   21.6213   32.3241 H   0  0  0  0  0  0  0  0  0  0  0  0
   34.6275   19.0201   33.7603 H   0  0  0  0  0  0  0  0  0  0  0  0
   34.6793   16.7872   32.7626 H   0  0  0  0  0  0  0  0  0  0  0  0
   36.3173   16.2328   30.9779 H   0  0  0  0  0  0  0  0  0  0  0  0
   37.8996   17.9931   30.2206 H   0  0  0  0  0  0  0  0  0  0  0  0
   37.8212   20.2165   31.2385 H   0  0  0  0  0  0  0  0  0  0  0  0
  1  6  1  0
  2  1  2  0
  3  2  1  0
  4  3  2  0
  4  5  1  0
  5 12  1  0
  5  1  1  0
  6  7  2  0
  6 11  1  0
  7  8  1  0
  8  9  2  0
 10  9  1  0
 11 10  2  0
 12 13  1  0
 14 12  1  0
 14 13  1  0
 15 16  2  0
 15 14  1  0
 17 16  1  0
 18 17  2  0
 19 18  1  0
 19 20  2  0
 20 15  1  0
  2 21  1  0
  4 22  1  0
  7 23  1  0
  8 24  1  0
 10 25  1  0
 12 26  1  1
 13 27  1  0
 13 28  1  0
 14 29  1  6
 16 30  1  0
 17 31  1  0
 18 32  1  0
 19 33  1  0
 20 34  1  0
M  ISO  8  21  14  22  14  23  14  24  14  25  14  26  13  27  13  28  13
M  ISO  6  29  13  30  14  31  14  32  14  33  14  34  14
M  END
>  <minimizedAffinity>  (1) 
-5.12901545

>  <minimizedRMSD>  (1) 
0.96313554

$$$$
