
     RDKit          3D

 51 55  0  0  0  0  0  0  0  0999 V2000
   38.7350   23.1730   38.0470 C   0  0  0  0  0  0  0  0  0  0  0  0
   37.9600   23.2280   36.8740 C   0  0  0  0  0  0  0  0  0  0  0  0
   38.5970   22.8580   35.6840 C   0  0  0  0  0  0  0  0  0  0  0  0
   39.8750   22.4920   35.7900 N   0  0  0  0  0  0  0  0  0  0  0  0
   40.6140   22.4410   36.9210 C   0  0  0  0  0  0  0  0  0  0  0  0
   39.9940   22.7940   38.0410 N   0  0  0  0  0  0  0  0  0  0  0  0
   41.9700   21.9920   36.6680 C   0  0  0  0  0  0  0  0  0  0  0  0
   42.3080   20.6600   36.7130 C   0  0  0  0  0  0  0  0  0  0  0  0
   43.5790   20.1650   36.4750 C   0  0  0  0  0  0  0  0  0  0  0  0
   44.6080   21.0420   36.1670 C   0  0  0  0  0  0  0  0  0  0  0  0
   44.3130   22.3760   36.1130 C   0  0  0  0  0  0  0  0  0  0  0  0
   45.3460   23.2290   35.8020 C   0  0  0  0  0  0  0  0  0  0  0  0
   45.1400   24.5850   35.7190 C   0  0  0  0  0  0  0  0  0  0  0  0
   43.8420   25.0460   35.9680 C   0  0  0  0  0  0  0  0  0  0  0  0
   42.8400   24.1430   36.2780 C   0  0  0  0  0  0  0  0  0  0  0  0
   43.0300   22.8100   36.3590 C   0  0  0  0  0  0  0  0  0  0  0  0
   37.9130   22.8810   34.4400 N   0  0  0  0  0  0  0  0  0  0  0  0
   37.2000   21.8510   34.0100 C   0  0  0  0  0  0  0  0  0  0  0  0
   36.6860   22.2250   32.7990 C   0  0  0  0  0  0  0  0  0  0  0  0
   37.0950   23.4750   32.5150 N   0  0  0  0  0  0  0  0  0  0  0  0
   37.8660   23.8760   33.5520 C   0  0  0  0  0  0  0  0  0  0  0  0
   38.4220   25.1630   33.4690 N   0  0  0  0  0  0  0  0  0  0  0  0
   39.6160   25.6770   32.8210 C   0  0  0  0  0  0  0  0  0  0  0  0
   40.2930   26.7830   33.5820 C   0  0  0  0  0  0  0  0  0  0  0  0
   40.0160   26.8120   35.0370 C   0  0  0  0  0  0  0  0  0  0  0  0
   38.6080   26.4760   35.4160 C   0  0  0  0  0  0  0  0  0  0  0  0
   37.7430   26.2590   34.1770 C   0  0  0  0  0  0  0  0  0  0  0  0
   35.8120   21.4410   31.8710 C   0  0  0  0  0  0  0  0  0  0  0  0
   34.7540   20.8340   32.5230 F   0  0  0  0  0  0  0  0  0  0  0  0
   36.5630   20.4000   31.2850 F   0  0  0  0  0  0  0  0  0  0  0  0
   35.4180   22.2310   30.8060 F   0  0  0  0  0  0  0  0  0  0  0  0
   38.2711   23.4572   39.0031 H   0  0  0  0  0  0  0  0  0  0  0  0
   36.9070   23.5456   36.8913 H   0  0  0  0  0  0  0  0  0  0  0  0
   41.5141   19.9380   36.9547 H   0  0  0  0  0  0  0  0  0  0  0  0
   43.7712   19.0833   36.5299 H   0  0  0  0  0  0  0  0  0  0  0  0
   45.6272   20.6768   35.9727 H   0  0  0  0  0  0  0  0  0  0  0  0
   46.3504   22.8203   35.6173 H   0  0  0  0  0  0  0  0  0  0  0  0
   45.9578   25.2767   35.4683 H   0  0  0  0  0  0  0  0  0  0  0  0
   43.6192   26.1220   35.9175 H   0  0  0  0  0  0  0  0  0  0  0  0
   41.8302   24.5350   36.4694 H   0  0  0  0  0  0  0  0  0  0  0  0
   37.0513   20.8894   34.5230 H   0  0  0  0  0  0  0  0  0  0  0  0
   40.3306   24.8489   32.7042 H   0  0  0  0  0  0  0  0  0  0  0  0
   39.2992   26.1001   31.8563 H   0  0  0  0  0  0  0  0  0  0  0  0
   41.3790   26.6746   33.4449 H   0  0  0  0  0  0  0  0  0  0  0  0
   39.8893   27.7225   33.1767 H   0  0  0  0  0  0  0  0  0  0  0  0
   40.6839   26.0881   35.5267 H   0  0  0  0  0  0  0  0  0  0  0  0
   40.1847   27.8489   35.3630 H   0  0  0  0  0  0  0  0  0  0  0  0
   38.6080   25.5566   36.0198 H   0  0  0  0  0  0  0  0  0  0  0  0
   38.1908   27.3158   35.9911 H   0  0  0  0  0  0  0  0  0  0  0  0
   37.7106   27.1668   33.5567 H   0  0  0  0  0  0  0  0  0  0  0  0
   36.6962   26.0260   34.4219 H   0  0  0  0  0  0  0  0  0  0  0  0
  2  1  2  0
  3  4  2  0
  3  2  1  0
  4  5  1  0
  5  6  2  0
  6  1  1  0
  7  8  2  0
  7  5  1  0
  9  8  1  0
 10  9  2  0
 11 10  1  0
 11 16  2  0
 12 11  1  0
 13 12  2  0
 13 14  1  0
 14 15  2  0
 15 16  1  0
 16  7  1  0
 17  3  1  0
 18 17  1  0
 19 18  2  0
 20 19  1  0
 20 21  2  0
 21 17  1  0
 22 21  1  0
 22 27  1  0
 23 22  1  0
 23 24  1  0
 24 25  1  0
 25 26  1  0
 27 26  1  0
 28 29  1  0
 28 19  1  0
 30 28  1  0
 31 28  1  0
  1 32  1  0
  2 33  1  0
  8 34  1  0
  9 35  1  0
 10 36  1  0
 12 37  1  0
 13 38  1  0
 14 39  1  0
 15 40  1  0
 18 41  1  0
 23 42  1  0
 23 43  1  0
 24 44  1  0
 24 45  1  0
 25 46  1  0
 25 47  1  0
 26 48  1  0
 26 49  1  0
 27 50  1  0
 27 51  1  0
M  END
>  <minimizedAffinity>  (1) 
-7.49874687

>  <minimizedRMSD>  (1) 
3.91687489

$$$$
