
     RDKit          3D

 39 41  0  0  1  0  0  0  0  0999 V2000
   39.8900   23.0140   37.8380 C   0  0  0  0  0  0  0  0  0  0  0  0
   38.8560   23.3140   38.7350 C   0  0  0  0  0  0  0  0  0  0  0  0
   37.5570   23.3110   38.2180 C   0  0  0  0  0  0  0  0  0  0  0  0
   37.3960   23.0190   36.8940 N   0  0  0  0  0  0  0  0  0  0  0  0
   38.4270   22.7350   36.0670 C   0  0  0  0  0  0  0  0  0  0  0  0
   39.6760   22.7360   36.5560 N   0  0  0  0  0  0  0  0  0  0  0  0
   38.1100   22.4500   34.7110 N   0  0  0  0  0  0  0  0  0  0  0  0
   36.9930   21.5890   34.4250 C   0  0  0  0  0  0  0  0  0  0  0  0
   36.6130   21.5660   32.9830 C   0  0  0  0  0  0  0  0  0  0  0  0
   36.9830   22.8070   32.3630 N   0  0  0  0  0  0  0  0  0  0  0  0
   38.4460   22.8520   32.3070 C   0  0  0  0  0  0  0  0  0  0  0  0
   38.9720   23.0760   33.6930 C   0  0  2  0  0  0  0  0  0  0  0  0
   40.3410   22.8250   33.9030 N   0  0  0  0  0  0  0  0  0  0  0  0
   41.2480   23.9000   33.7980 C   0  0  0  0  0  0  0  0  0  0  0  0
   41.7680   24.2980   35.1720 C   0  0  0  0  0  0  0  0  0  0  0  0
   42.5870   23.1650   35.7510 C   0  0  0  0  0  0  0  0  0  0  0  0
   42.0460   21.8180   35.3480 C   0  0  0  0  0  0  0  0  0  0  0  0
   40.5790   21.9620   35.0120 C   0  0  0  0  0  0  0  0  0  0  0  0
   40.9247   23.0083   38.2114 H   0  0  0  0  0  0  0  0  0  0  0  0
   39.0563   23.5405   39.7926 H   0  0  0  0  0  0  0  0  0  0  0  0
   36.6914   23.5369   38.8581 H   0  0  0  0  0  0  0  0  0  0  0  0
   37.2546   20.5657   34.7324 H   0  0  0  0  0  0  0  0  0  0  0  0
   36.1297   21.9839   34.9806 H   0  0  0  0  0  0  0  0  0  0  0  0
   37.1341   20.7374   32.4812 H   0  0  0  0  0  0  0  0  0  0  0  0
   35.5253   21.4265   32.8961 H   0  0  0  0  0  0  0  0  0  0  0  0
   36.5930   22.8545   31.4109 H   0  0  0  0  0  0  0  0  0  0  0  0
   38.8311   21.8995   31.9141 H   0  0  0  0  0  0  0  0  0  0  0  0
   38.7714   23.6684   31.6455 H   0  0  0  0  0  0  0  0  0  0  0  0
   38.9187   24.1679   33.8154 H   0  0  0  0  0  0  0  0  0  0  0  0
   42.0950   23.5979   33.1645 H   0  0  0  0  0  0  0  0  0  0  0  0
   40.7278   24.7608   33.3526 H   0  0  0  0  0  0  0  0  0  0  0  0
   42.3977   25.1952   35.0796 H   0  0  0  0  0  0  0  0  0  0  0  0
   40.9183   24.5122   35.8369 H   0  0  0  0  0  0  0  0  0  0  0  0
   43.6225   23.2546   35.3910 H   0  0  0  0  0  0  0  0  0  0  0  0
   42.5409   23.2367   36.8477 H   0  0  0  0  0  0  0  0  0  0  0  0
   42.5923   21.4487   34.4675 H   0  0  0  0  0  0  0  0  0  0  0  0
   42.1714   21.1028   36.1743 H   0  0  0  0  0  0  0  0  0  0  0  0
   40.0571   22.3691   35.8906 H   0  0  0  0  0  0  0  0  0  0  0  0
   40.2063   20.9643   34.7368 H   0  0  0  0  0  0  0  0  0  0  0  0
  1  2  2  0
  3  2  1  0
  4  3  2  0
  5  6  2  0
  5  4  1  0
  6  1  1  0
  7  5  1  0
  8  7  1  0
  9  8  1  0
 10  9  1  0
 11 10  1  0
 11 12  1  0
 12 13  1  0
 12  7  1  0
 13 18  1  0
 14 13  1  0
 14 15  1  0
 15 16  1  0
 17 16  1  0
 18 17  1  0
  1 19  1  0
  2 20  1  0
  3 21  1  0
  8 22  1  0
  8 23  1  0
  9 24  1  0
  9 25  1  0
 10 26  1  0
 11 27  1  0
 11 28  1  0
 12 29  1  1
 14 30  1  0
 14 31  1  0
 15 32  1  0
 15 33  1  0
 16 34  1  0
 16 35  1  0
 17 36  1  0
 17 37  1  0
 18 38  1  0
 18 39  1  0
M  ISO  8  19  14  20  14  21  14  22  13  23  13  24  13  25  13  26   5
M  ISO  8  27  13  28  13  29  13  30  13  31  13  32  13  33  13  34  13
M  ISO  5  35  13  36  13  37  13  38  13  39  13
M  END
>  <minimizedAffinity>  (1) 
-4.21720362

>  <minimizedRMSD>  (1) 
1.38116384

$$$$
