
     RDKit          3D

 46 49  0  0  0  0  0  0  0  0999 V2000
   39.2390   27.1970   35.3250 C   0  0  0  0  0  0  0  0  0  0  0  0
   41.8950   24.6120   34.8420 C   0  0  0  0  0  0  0  0  0  0  0  0
   41.1720   23.4550   35.0510 C   0  0  0  0  0  0  0  0  0  0  0  0
   39.7900   23.5380   35.3530 C   0  0  0  0  0  0  0  0  0  0  0  0
   39.2390   24.7780   35.4250 N   0  0  0  0  0  0  0  0  0  0  0  0
   39.9840   25.9060   35.2130 C   0  0  0  0  0  0  0  0  0  0  0  0
   41.2950   25.8280   34.9250 N   0  0  0  0  0  0  0  0  0  0  0  0
   39.0350   22.3040   35.5720 C   0  0  0  0  0  0  0  0  0  0  0  0
   37.6920   22.3230   35.1080 N   0  0  0  0  0  0  0  0  0  0  0  0
   36.6850   21.9330   36.0160 C   0  0  0  0  0  0  0  0  0  0  0  0
   35.9770   20.6520   35.6600 C   0  0  0  0  0  0  0  0  0  0  0  0
   35.5100   20.6910   34.2110 C   0  0  0  0  0  0  0  0  0  0  0  0
   36.7650   20.8320   33.3690 C   0  0  0  0  0  0  0  0  0  0  0  0
   37.4670   22.0980   33.7330 C   0  0  0  0  0  0  0  0  0  0  0  0
   37.7750   26.9150   35.4860 C   0  0  0  0  0  0  0  0  0  0  0  0
   37.0040   27.3670   34.2900 C   0  0  0  0  0  0  0  0  0  0  0  0
   37.0240   26.7340   33.0950 N   0  0  0  0  0  0  0  0  0  0  0  0
   36.2510   27.3680   32.2540 O   0  0  0  0  0  0  0  0  0  0  0  0
   35.7190   28.4010   32.8420 C   0  0  0  0  0  0  0  0  0  0  0  0
   36.1770   28.4180   34.1180 N   0  0  0  0  0  0  0  0  0  0  0  0
   34.8010   29.4190   32.3610 C   0  0  0  0  0  0  0  0  0  0  0  0
   34.9550   30.4560   31.4730 C   0  0  0  0  0  0  0  0  0  0  0  0
   33.7520   31.1340   31.3690 C   0  0  0  0  0  0  0  0  0  0  0  0
   32.9060   30.4450   32.2340 C   0  0  0  0  0  0  0  0  0  0  0  0
   33.5500   29.4570   32.7900 O   0  0  0  0  0  0  0  0  0  0  0  0
   39.3999   27.7937   34.4150 H   0  0  0  0  0  0  0  0  0  0  0  0
   39.6036   27.7569   36.1988 H   0  0  0  0  0  0  0  0  0  0  0  0
   42.9675   24.5489   34.6059 H   0  0  0  0  0  0  0  0  0  0  0  0
   41.6657   22.4743   34.9835 H   0  0  0  0  0  0  0  0  0  0  0  0
   39.5613   21.4875   35.0559 H   0  0  0  0  0  0  0  0  0  0  0  0
   38.9781   22.1719   36.6626 H   0  0  0  0  0  0  0  0  0  0  0  0
   37.1473   21.8051   37.0059 H   0  0  0  0  0  0  0  0  0  0  0  0
   35.9226   22.7256   35.9930 H   0  0  0  0  0  0  0  0  0  0  0  0
   36.6670   19.8062   35.7962 H   0  0  0  0  0  0  0  0  0  0  0  0
   35.1013   20.5334   36.3150 H   0  0  0  0  0  0  0  0  0  0  0  0
   34.9808   19.7612   33.9551 H   0  0  0  0  0  0  0  0  0  0  0  0
   34.8122   21.5230   34.0355 H   0  0  0  0  0  0  0  0  0  0  0  0
   36.4913   20.8574   32.3039 H   0  0  0  0  0  0  0  0  0  0  0  0
   37.4305   19.9763   33.5556 H   0  0  0  0  0  0  0  0  0  0  0  0
   38.4458   22.0930   33.2311 H   0  0  0  0  0  0  0  0  0  0  0  0
   36.7923   22.9059   33.4135 H   0  0  0  0  0  0  0  0  0  0  0  0
   37.6304   25.8326   35.6182 H   0  0  0  0  0  0  0  0  0  0  0  0
   37.4087   27.4652   36.3653 H   0  0  0  0  0  0  0  0  0  0  0  0
   35.8806   30.7063   30.9339 H   0  0  0  0  0  0  0  0  0  0  0  0
   33.5192   32.0117   30.7482 H   0  0  0  0  0  0  0  0  0  0  0  0
   31.8515   30.6967   32.4205 H   0  0  0  0  0  0  0  0  0  0  0  0
  1 15  1  0
  2  7  2  0
  2  3  1  0
  3  4  2  0
  4  5  1  0
  4  8  1  0
  6  1  1  0
  6  5  2  0
  7  6  1  0
  9  8  1  0
  9 10  1  0
 11 10  1  0
 12 11  1  0
 13 14  1  0
 13 12  1  0
 14  9  1  0
 16 15  1  0
 17 16  2  0
 18 19  1  0
 18 17  1  0
 19 20  2  0
 20 16  1  0
 21 25  1  0
 21 19  1  0
 22 21  2  0
 23 22  1  0
 23 24  2  0
 24 25  1  0
  1 26  1  0
  1 27  1  0
  2 28  1  0
  3 29  1  0
  8 30  1  0
  8 31  1  0
 10 32  1  0
 10 33  1  0
 11 34  1  0
 11 35  1  0
 12 36  1  0
 12 37  1  0
 13 38  1  0
 13 39  1  0
 14 40  1  0
 14 41  1  0
 15 42  1  0
 15 43  1  0
 22 44  1  0
 23 45  1  0
 24 46  1  0
M  ISO  8  26   8  27   8  28  14  29  14  30   8  31   8  32  13  33  13
M  ISO  8  34  13  35  13  36  13  37  13  38  13  39  13  40  13  41  13
M  ISO  5  42   8  43   8  44  14  45  14  46  14
M  END
>  <minimizedAffinity>  (1) 
-5.00885391

>  <minimizedRMSD>  (1) 
1.84951913

$$$$
