
     RDKit          3D

 46 50  0  0  1  0  0  0  0  0999 V2000
   42.2280   26.2700   32.4300 C   0  0  0  0  0  0  0  0  0  0  0  0
   43.2790   25.4880   32.5960 N   0  0  0  0  0  0  0  0  0  0  0  0
   43.1390   24.7490   33.6510 O   0  0  0  0  0  0  0  0  0  0  0  0
   41.9500   25.0750   34.1790 C   0  0  0  0  0  0  0  0  0  0  0  0
   41.3400   26.0230   33.4530 N   0  0  0  0  0  0  0  0  0  0  0  0
   39.1090   23.9490   29.7400 C   0  0  0  0  0  0  0  0  0  0  0  0
   37.8820   24.1090   30.4160 C   0  0  0  0  0  0  0  0  0  0  0  0
   37.6710   25.2540   31.1600 C   0  0  0  0  0  0  0  0  0  0  0  0
   38.6810   26.1840   31.1990 N   0  0  0  0  0  0  0  0  0  0  0  0
   39.8290   25.9970   30.5460 C   0  0  0  0  0  0  0  0  0  0  0  0
   40.0590   24.8920   29.8150 N   0  0  0  0  0  0  0  0  0  0  0  0
   40.8020   27.0270   30.6590 N   0  0  0  0  0  0  0  0  0  0  0  0
   40.6370   28.0010   29.8270 N   0  0  0  0  0  0  0  0  0  0  0  0
   41.6140   28.9270   30.0180 C   0  0  0  0  0  0  0  0  0  0  0  0
   42.4070   28.4870   31.0150 C   0  0  0  0  0  0  0  0  0  0  0  0
   41.8870   27.2700   31.4260 C   0  0  0  0  0  0  0  0  0  0  0  0
   39.3330   22.7660   28.9680 N   0  0  0  0  0  0  0  0  0  0  0  0
   41.3420   24.4810   35.4250 C   0  0  2  0  0  0  0  0  0  0  0  0
   41.9640   23.2380   35.9910 C   0  0  0  0  0  0  0  0  0  0  0  0
   40.6080   23.1990   35.3190 C   0  0  1  0  0  0  0  0  0  0  0  0
   39.5390   22.8280   36.1840 N   0  0  0  0  0  0  0  0  0  0  0  0
   38.3770   23.6720   36.0920 C   0  0  0  0  0  0  0  0  0  0  0  0
   37.3230   23.0460   37.0130 C   0  0  0  0  0  0  0  0  0  0  0  0
   37.7750   23.3250   38.4320 C   0  0  0  0  0  0  0  0  0  0  0  0
   39.2570   23.4750   38.5370 C   0  0  0  0  0  0  0  0  0  0  0  0
   40.0380   22.6850   37.5210 C   0  0  0  0  0  0  0  0  0  0  0  0
   37.1043   23.3337   30.3520 H   0  0  0  0  0  0  0  0  0  0  0  0
   36.7274   25.4151   31.7020 H   0  0  0  0  0  0  0  0  0  0  0  0
   41.7354   29.8666   29.4591 H   0  0  0  0  0  0  0  0  0  0  0  0
   43.2936   28.9946   31.4227 H   0  0  0  0  0  0  0  0  0  0  0  0
   38.6024   22.0422   28.9111 H   0  0  0  0  0  0  0  0  0  0  0  0
   40.2249   22.6379   28.4690 H   0  0  0  0  0  0  0  0  0  0  0  0
   41.0955   25.4762   35.8235 H   0  0  0  0  0  0  0  0  0  0  0  0
   42.8377   22.7840   35.5005 H   0  0  0  0  0  0  0  0  0  0  0  0
   42.3630   22.9366   36.9708 H   0  0  0  0  0  0  0  0  0  0  0  0
   40.1180   22.7166   34.4604 H   0  0  0  0  0  0  0  0  0  0  0  0
   38.6185   24.6919   36.4260 H   0  0  0  0  0  0  0  0  0  0  0  0
   38.0137   23.7443   35.0562 H   0  0  0  0  0  0  0  0  0  0  0  0
   36.3390   23.5025   36.8305 H   0  0  0  0  0  0  0  0  0  0  0  0
   37.2253   21.9656   36.8307 H   0  0  0  0  0  0  0  0  0  0  0  0
   37.3002   24.2550   38.7778 H   0  0  0  0  0  0  0  0  0  0  0  0
   37.4793   22.4670   39.0536 H   0  0  0  0  0  0  0  0  0  0  0  0
   39.5045   24.5391   38.4089 H   0  0  0  0  0  0  0  0  0  0  0  0
   39.5419   23.0829   39.5244 H   0  0  0  0  0  0  0  0  0  0  0  0
   39.9946   21.6213   37.7977 H   0  0  0  0  0  0  0  0  0  0  0  0
   41.0669   23.0740   37.5275 H   0  0  0  0  0  0  0  0  0  0  0  0
  1  2  2  0
  1  5  1  0
  2  3  1  0
  3  4  1  0
  4 18  1  0
  5  4  2  0
  6 11  2  0
  6  7  1  0
  7  8  2  0
  8  9  1  0
 10 12  1  0
 10  9  2  0
 11 10  1  0
 12 16  1  0
 13 14  2  0
 13 12  1  0
 14 15  1  0
 15 16  2  0
 16  1  1  0
 17  6  1  0
 18 19  1  0
 20 18  1  0
 20 19  1  0
 20 21  1  0
 21 26  1  0
 22 21  1  0
 22 23  1  0
 23 24  1  0
 24 25  1  0
 26 25  1  0
  7 27  1  0
  8 28  1  0
 14 29  1  0
 15 30  1  0
 17 31  1  0
 17 32  1  0
 18 33  1  1
 19 34  1  0
 19 35  1  0
 20 36  1  6
 22 37  1  0
 22 38  1  0
 23 39  1  0
 23 40  1  0
 24 41  1  0
 24 42  1  0
 25 43  1  0
 25 44  1  0
 26 45  1  0
 26 46  1  0
M  ISO  8  27  14  28  14  29  14  30  14  33  13  34  13  35  13  36  13
M  ISO  8  37  13  38  13  39  13  40  13  41  13  42  13  43  13  44  13
M  ISO  2  45  13  46  13
M  END
>  <minimizedAffinity>  (1) 
-4.56659651

>  <minimizedRMSD>  (1) 
3.368186

$$$$
