
     RDKit          3D

 46 49  0  0  1  0  0  0  0  0999 V2000
   37.3750   25.6850   32.9350 N   0  0  0  0  0  0  0  0  0  0  0  0
   36.8450   24.5990   32.3710 C   0  0  0  0  0  0  0  0  0  0  0  0
   35.8360   24.8670   31.4700 C   0  0  0  0  0  0  0  0  0  0  0  0
   35.7420   26.1980   31.4820 N   0  0  0  0  0  0  0  0  0  0  0  0
   36.6690   26.6880   32.3630 C   0  0  0  0  0  0  0  0  0  0  0  0
   36.7960   28.1870   32.5430 C   0  0  1  0  0  0  0  0  0  0  0  0
   35.9170   29.0210   31.6840 C   0  0  0  0  0  0  0  0  0  0  0  0
   35.5920   28.8910   33.1310 C   0  0  2  0  0  0  0  0  0  0  0  0
   35.7340   30.1070   33.8450 N   0  0  0  0  0  0  0  0  0  0  0  0
   35.5780   31.3100   33.0560 C   0  0  0  0  0  0  0  0  0  0  0  0
   35.8370   32.4960   33.9460 C   0  0  0  0  0  0  0  0  0  0  0  0
   36.3280   32.0870   35.1590 O   0  0  0  0  0  0  0  0  0  0  0  0
   35.3770   31.3240   35.8800 C   0  0  0  0  0  0  0  0  0  0  0  0
   34.7740   30.2740   34.9230 C   0  0  0  0  0  0  0  0  0  0  0  0
   38.3860   25.9200   33.8880 C   0  0  0  0  0  0  0  0  0  0  0  0
   37.8820   25.9650   35.2830 C   0  0  1  0  0  0  0  0  0  0  0  0
   38.4790   23.5940   38.1700 C   0  0  0  0  0  0  0  0  0  0  0  0
   37.9010   24.6390   37.4390 C   0  0  0  0  0  0  0  0  0  0  0  0
   38.4340   24.8890   36.1400 C   0  0  0  0  0  0  0  0  0  0  0  0
   39.4740   24.1050   35.6670 N   0  0  0  0  0  0  0  0  0  0  0  0
   39.9900   23.1240   36.3970 C   0  0  0  0  0  0  0  0  0  0  0  0
   39.4960   22.8590   37.6550 N   0  0  0  0  0  0  0  0  0  0  0  0
   38.1860   27.3240   35.9050 C   0  0  0  0  0  0  0  0  0  0  0  0
   37.1831   23.5786   32.6041 H   0  0  0  0  0  0  0  0  0  0  0  0
   35.2462   24.1507   30.8792 H   0  0  0  0  0  0  0  0  0  0  0  0
   37.8722   28.1597   32.7688 H   0  0  0  0  0  0  0  0  0  0  0  0
   36.2869   29.9794   31.2907 H   0  0  0  0  0  0  0  0  0  0  0  0
   35.3616   28.8469   30.7506 H   0  0  0  0  0  0  0  0  0  0  0  0
   34.7669   28.5353   33.7655 H   0  0  0  0  0  0  0  0  0  0  0  0
   36.2976   31.3051   32.2241 H   0  0  0  0  0  0  0  0  0  0  0  0
   34.5603   31.3622   32.6418 H   0  0  0  0  0  0  0  0  0  0  0  0
   36.5708   33.1579   33.4629 H   0  0  0  0  0  0  0  0  0  0  0  0
   34.8909   33.0333   34.1076 H   0  0  0  0  0  0  0  0  0  0  0  0
   35.8683   30.8190   36.7247 H   0  0  0  0  0  0  0  0  0  0  0  0
   34.5850   31.9782   36.2733 H   0  0  0  0  0  0  0  0  0  0  0  0
   33.8120   30.6292   34.5249 H   0  0  0  0  0  0  0  0  0  0  0  0
   34.5846   29.3223   35.4411 H   0  0  0  0  0  0  0  0  0  0  0  0
   39.1308   25.1141   33.8122 H   0  0  0  0  0  0  0  0  0  0  0  0
   38.8177   26.9073   33.6667 H   0  0  0  0  0  0  0  0  0  0  0  0
   36.7952   25.8043   35.2282 H   0  0  0  0  0  0  0  0  0  0  0  0
   38.1023   23.3655   39.1779 H   0  0  0  0  0  0  0  0  0  0  0  0
   37.0745   25.2391   37.8475 H   0  0  0  0  0  0  0  0  0  0  0  0
   40.8165   22.5195   35.9952 H   0  0  0  0  0  0  0  0  0  0  0  0
   38.1668   27.2380   37.0015 H   0  0  0  0  0  0  0  0  0  0  0  0
   39.1817   27.6610   35.5811 H   0  0  0  0  0  0  0  0  0  0  0  0
   37.4288   28.0532   35.5811 H   0  0  0  0  0  0  0  0  0  0  0  0
  1 15  1  0
  2  1  1  0
  3  4  1  0
  3  2  2  0
  4  5  2  0
  5  6  1  0
  5  1  1  0
  6  8  1  0
  7  6  1  0
  7  8  1  0
  8  9  1  0
  9 14  1  0
 10  9  1  0
 10 11  1  0
 11 12  1  0
 12 13  1  0
 14 13  1  0
 15 16  1  0
 16 23  1  0
 16 19  1  0
 18 17  2  0
 19 18  1  0
 20 19  2  0
 20 21  1  0
 21 22  2  0
 22 17  1  0
  2 24  1  0
  3 25  1  0
  6 26  1  1
  7 27  1  0
  7 28  1  0
  8 29  1  6
 10 30  1  0
 10 31  1  0
 11 32  1  0
 11 33  1  0
 13 34  1  0
 13 35  1  0
 14 36  1  0
 14 37  1  0
 15 38  1  0
 15 39  1  0
 16 40  1  6
 17 41  1  0
 18 42  1  0
 21 43  1  0
 23 44  1  0
 23 45  1  0
 23 46  1  0
M  ISO  8  24  14  25  14  26  13  27  13  28  13  29  13  30  13  31  13
M  ISO  8  32  13  33  13  34  13  35  13  36  13  37  13  38   8  39   8
M  ISO  7  40   8  41  14  42  14  43  14  44   8  45   8  46   8
M  END
>  <minimizedAffinity>  (1) 
-5.37177801

>  <minimizedRMSD>  (1) 
0.59569788

$$$$
