
     RDKit          3D

 48 51  0  0  0  0  0  0  0  0999 V2000
   40.0270   22.9920   35.2240 C   0  0  0  0  0  0  0  0  0  0  0  0
   40.3930   24.2360   34.4950 N   0  0  0  0  0  0  0  0  0  0  0  0
   39.5970   24.8380   33.5720 C   0  0  0  0  0  0  0  0  0  0  0  0
   40.2160   25.9440   33.1020 N   0  0  0  0  0  0  0  0  0  0  0  0
   41.4100   26.0520   33.7230 C   0  0  0  0  0  0  0  0  0  0  0  0
   42.4920   26.9020   33.7170 C   0  0  0  0  0  0  0  0  0  0  0  0
   43.5700   26.6950   34.5050 N   0  0  0  0  0  0  0  0  0  0  0  0
   43.6430   25.6430   35.3410 C   0  0  0  0  0  0  0  0  0  0  0  0
   42.5860   24.7930   35.3620 N   0  0  0  0  0  0  0  0  0  0  0  0
   41.5110   25.0020   34.5730 C   0  0  0  0  0  0  0  0  0  0  0  0
   42.4080   28.0270   32.8120 N   0  0  0  0  0  0  0  0  0  0  0  0
   44.7730   25.4120   36.1770 N   0  0  0  0  0  0  0  0  0  0  0  0
   44.5370   25.0510   37.5610 C   0  0  0  0  0  0  0  0  0  0  0  0
   45.7060   25.4140   38.4540 C   0  0  0  0  0  0  0  0  0  0  0  0
   46.8830   25.0430   37.8520 O   0  0  0  0  0  0  0  0  0  0  0  0
   47.0750   25.8920   36.7430 C   0  0  0  0  0  0  0  0  0  0  0  0
   46.0930   25.5420   35.6330 C   0  0  0  0  0  0  0  0  0  0  0  0
   38.8630   23.2480   36.0980 C   0  0  0  0  0  0  0  0  0  0  0  0
   36.4810   21.1050   34.2260 C   0  0  0  0  0  0  0  0  0  0  0  0
   37.5860   21.9400   34.4890 C   0  0  0  0  0  0  0  0  0  0  0  0
   37.7320   22.4170   35.7800 C   0  0  0  0  0  0  0  0  0  0  0  0
   36.8240   22.0690   36.7130 N   0  0  0  0  0  0  0  0  0  0  0  0
   35.7800   21.2710   36.4280 C   0  0  0  0  0  0  0  0  0  0  0  0
   35.6000   20.7870   35.2010 N   0  0  0  0  0  0  0  0  0  0  0  0
   38.4900   24.7380   36.1910 C   0  0  0  0  0  0  0  0  0  0  0  0
   39.2980   22.9880   37.5720 C   0  0  0  0  0  0  0  0  0  0  0  0
   40.8792   22.6641   35.8374 H   0  0  0  0  0  0  0  0  0  0  0  0
   39.7699   22.2074   34.4972 H   0  0  0  0  0  0  0  0  0  0  0  0
   38.6052   24.4813   33.2571 H   0  0  0  0  0  0  0  0  0  0  0  0
   43.1834   28.7028   32.7570 H   0  0  0  0  0  0  0  0  0  0  0  0
   41.5728   28.1524   32.2224 H   0  0  0  0  0  0  0  0  0  0  0  0
   43.6411   25.5804   37.9174 H   0  0  0  0  0  0  0  0  0  0  0  0
   44.4022   23.9603   37.6075 H   0  0  0  0  0  0  0  0  0  0  0  0
   45.7104   26.5004   38.6264 H   0  0  0  0  0  0  0  0  0  0  0  0
   45.6071   24.8871   39.4145 H   0  0  0  0  0  0  0  0  0  0  0  0
   46.9156   26.9353   37.0529 H   0  0  0  0  0  0  0  0  0  0  0  0
   48.1007   25.7630   36.3671 H   0  0  0  0  0  0  0  0  0  0  0  0
   46.3916   24.5912   35.1674 H   0  0  0  0  0  0  0  0  0  0  0  0
   46.0979   26.3416   34.8776 H   0  0  0  0  0  0  0  0  0  0  0  0
   36.3333   20.7059   33.2116 H   0  0  0  0  0  0  0  0  0  0  0  0
   38.3046   22.2023   33.6985 H   0  0  0  0  0  0  0  0  0  0  0  0
   35.0630   21.0139   37.2216 H   0  0  0  0  0  0  0  0  0  0  0  0
   38.4163   25.0322   37.2484 H   0  0  0  0  0  0  0  0  0  0  0  0
   39.2648   25.3416   35.6956 H   0  0  0  0  0  0  0  0  0  0  0  0
   37.5222   24.9053   35.6956 H   0  0  0  0  0  0  0  0  0  0  0  0
   38.5585   23.4300   38.2559 H   0  0  0  0  0  0  0  0  0  0  0  0
   39.3605   21.9043   37.7502 H   0  0  0  0  0  0  0  0  0  0  0  0
   40.2820   23.4462   37.7502 H   0  0  0  0  0  0  0  0  0  0  0  0
  1 18  1  0
  2 10  1  0
  2  1  1  0
  3  2  1  0
  4  3  2  0
  4  5  1  0
  5 10  2  0
  6  5  1  0
  6  7  2  0
  7  8  1  0
  8  9  2  0
  8 12  1  0
 10  9  1  0
 11  6  1  0
 12 13  1  0
 13 14  1  0
 15 14  1  0
 16 15  1  0
 17 12  1  0
 17 16  1  0
 18 25  1  0
 18 26  1  0
 19 20  2  0
 19 24  1  0
 20 21  1  0
 21 18  1  0
 21 22  2  0
 23 22  1  0
 24 23  2  0
  1 27  1  0
  1 28  1  0
  3 29  1  0
 11 30  1  0
 11 31  1  0
 13 32  1  0
 13 33  1  0
 14 34  1  0
 14 35  1  0
 16 36  1  0
 16 37  1  0
 17 38  1  0
 17 39  1  0
 19 40  1  0
 20 41  1  0
 23 42  1  0
 25 43  1  0
 25 44  1  0
 25 45  1  0
 26 46  1  0
 26 47  1  0
 26 48  1  0
M  ISO  8  27   8  28   8  29  14  32  13  33  13  34  13  35  13  36  13
M  ISO  8  37  13  38  13  39  13  40  14  41  14  42  14  43   8  44   8
M  ISO  4  45   8  46   8  47   8  48   8
M  END
>  <minimizedAffinity>  (1) 
-5.44416285

>  <minimizedRMSD>  (1) 
2.50152087

$$$$
