
     RDKit          3D

 31 33  0  0  0  0  0  0  0  0999 V2000
   39.4570   23.1100   36.8290 C   0  0  0  0  0  0  0  0  0  0  0  0
   39.8630   23.9800   35.8190 C   0  0  0  0  0  0  0  0  0  0  0  0
   41.1730   23.9190   35.4120 C   0  0  0  0  0  0  0  0  0  0  0  0
   42.0080   23.0200   36.0090 N   0  0  0  0  0  0  0  0  0  0  0  0
   41.5800   22.1980   36.9790 C   0  0  0  0  0  0  0  0  0  0  0  0
   40.3110   22.2350   37.3940 N   0  0  0  0  0  0  0  0  0  0  0  0
   41.7960   24.6960   34.4120 N   0  0  0  0  0  0  0  0  0  0  0  0
   42.4610   25.9580   34.5990 C   0  0  0  0  0  0  0  0  0  0  0  0
   41.7630   27.0430   33.8210 C   0  0  0  0  0  0  0  0  0  0  0  0
   40.8910   26.4700   32.8790 O   0  0  0  0  0  0  0  0  0  0  0  0
   41.5790   25.5260   32.1170 C   0  0  0  0  0  0  0  0  0  0  0  0
   41.8620   24.3290   33.0000 C   0  0  0  0  0  0  0  0  0  0  0  0
   38.0580   23.2320   37.1920 C   0  0  0  0  0  0  0  0  0  0  0  0
   37.5970   24.1140   37.9910 O   0  0  0  0  0  0  0  0  0  0  0  0
   37.0710   22.2850   36.6170 C   0  0  0  0  0  0  0  0  0  0  0  0
   37.3220   21.9420   35.3350 C   0  0  0  0  0  0  0  0  0  0  0  0
   35.8910   20.7580   34.9560 S   0  0  0  0  0  0  0  0  0  0  0  0
   35.2360   21.0110   36.7250 C   0  0  0  0  0  0  0  0  0  0  0  0
   36.0000   21.7260   37.1320 N   0  0  0  0  0  0  0  0  0  0  0  0
   39.1583   24.6912   35.3634 H   0  0  0  0  0  0  0  0  0  0  0  0
   42.2818   21.4858   37.4375 H   0  0  0  0  0  0  0  0  0  0  0  0
   42.4525   26.2166   35.6681 H   0  0  0  0  0  0  0  0  0  0  0  0
   43.4964   25.8713   34.2378 H   0  0  0  0  0  0  0  0  0  0  0  0
   41.1879   27.6758   34.5130 H   0  0  0  0  0  0  0  0  0  0  0  0
   42.5133   27.6528   33.2964 H   0  0  0  0  0  0  0  0  0  0  0  0
   40.9639   25.2193   31.2581 H   0  0  0  0  0  0  0  0  0  0  0  0
   42.5195   25.9525   31.7380 H   0  0  0  0  0  0  0  0  0  0  0  0
   41.1162   23.5466   32.7960 H   0  0  0  0  0  0  0  0  0  0  0  0
   42.8749   23.9611   32.7794 H   0  0  0  0  0  0  0  0  0  0  0  0
   38.1443   22.2660   34.6801 H   0  0  0  0  0  0  0  0  0  0  0  0
   34.3519   20.5762   37.2142 H   0  0  0  0  0  0  0  0  0  0  0  0
  1 13  1  0
  1  6  1  0
  2  1  2  0
  3  2  1  0
  3  4  2  0
  4  5  1  0
  5  6  2  0
  7  8  1  0
  7  3  1  0
  9  8  1  0
 10  9  1  0
 11 10  1  0
 11 12  1  0
 12  7  1  0
 13 14  2  0
 15 19  1  0
 15 13  1  0
 16 15  2  0
 17 16  1  0
 17 18  1  0
 18 19  2  0
  2 20  1  0
  5 21  1  0
  8 22  1  0
  8 23  1  0
  9 24  1  0
  9 25  1  0
 11 26  1  0
 11 27  1  0
 12 28  1  0
 12 29  1  0
 16 30  1  0
 18 31  1  0
M  ISO  8  20  14  21  14  22  13  23  13  24  13  25  13  26  13  27  13
M  ISO  4  28  13  29  13  30  14  31  14
M  END
>  <minimizedAffinity>  (1) 
-4.00439644

>  <minimizedRMSD>  (1) 
3.3016367

$$$$
