
     RDKit          3D

 42 45  0  0  1  0  0  0  0  0999 V2000
   37.3520   26.2790   33.6190 C   0  0  0  0  0  0  0  0  0  0  0  0
   36.7620   27.4740   32.9830 C   0  0  0  0  0  0  0  0  0  0  0  0
   36.5680   27.8030   31.6800 C   0  0  0  0  0  0  0  0  0  0  0  0
   36.0040   28.9530   31.2070 C   0  0  0  0  0  0  0  0  0  0  0  0
   35.5960   29.8570   32.1610 C   0  0  0  0  0  0  0  0  0  0  0  0
   35.7880   29.5320   33.4990 C   0  0  0  0  0  0  0  0  0  0  0  0
   36.3480   28.3880   33.9090 N   0  0  0  0  0  0  0  0  0  0  0  0
   35.3420   30.5140   34.4420 N   0  0  0  0  0  0  0  0  0  0  0  0
   35.9870   30.6560   35.7040 C   0  0  0  0  0  0  0  0  0  0  0  0
   35.3840   31.8720   36.3800 C   0  0  0  0  0  0  0  0  0  0  0  0
   34.0070   31.7200   36.4810 O   0  0  0  0  0  0  0  0  0  0  0  0
   33.3720   31.7150   35.2570 C   0  0  0  0  0  0  0  0  0  0  0  0
   34.2220   31.3610   34.0890 C   0  0  0  0  0  0  0  0  0  0  0  0
   37.9230   23.7430   33.1560 C   0  0  2  0  0  0  0  0  0  0  0  0
   38.6680   24.6570   32.2490 C   0  0  0  0  0  0  0  0  0  0  0  0
   37.3320   25.0570   32.7980 C   0  0  2  0  0  0  0  0  0  0  0  0
   40.3010   23.5940   35.9470 C   0  0  0  0  0  0  0  0  0  0  0  0
   39.5240   23.1900   37.0570 C   0  0  0  0  0  0  0  0  0  0  0  0
   38.1340   22.9760   36.7900 C   0  0  0  0  0  0  0  0  0  0  0  0
   37.6700   23.1680   35.5330 N   0  0  0  0  0  0  0  0  0  0  0  0
   38.4900   23.5630   34.5070 C   0  0  0  0  0  0  0  0  0  0  0  0
   39.8250   23.7780   34.7170 N   0  0  0  0  0  0  0  0  0  0  0  0
   38.3998   26.5067   33.8647 H   0  0  0  0  0  0  0  0  0  0  0  0
   36.7303   26.0643   34.5007 H   0  0  0  0  0  0  0  0  0  0  0  0
   36.8984   27.0693   30.9300 H   0  0  0  0  0  0  0  0  0  0  0  0
   35.8833   29.1449   30.1306 H   0  0  0  0  0  0  0  0  0  0  0  0
   35.1305   30.8110   31.8727 H   0  0  0  0  0  0  0  0  0  0  0  0
   35.8158   29.7595   36.3180 H   0  0  0  0  0  0  0  0  0  0  0  0
   37.0728   30.7777   35.5767 H   0  0  0  0  0  0  0  0  0  0  0  0
   35.8141   31.9811   37.3865 H   0  0  0  0  0  0  0  0  0  0  0  0
   35.6075   32.7679   35.7822 H   0  0  0  0  0  0  0  0  0  0  0  0
   32.5477   30.9884   35.3073 H   0  0  0  0  0  0  0  0  0  0  0  0
   33.0448   32.7511   35.0856 H   0  0  0  0  0  0  0  0  0  0  0  0
   34.6105   32.2888   33.6438 H   0  0  0  0  0  0  0  0  0  0  0  0
   33.5937   30.7991   33.3823 H   0  0  0  0  0  0  0  0  0  0  0  0
   37.5568   22.7069   33.1076 H   0  0  0  0  0  0  0  0  0  0  0  0
   38.7738   24.4093   31.1825 H   0  0  0  0  0  0  0  0  0  0  0  0
   39.6741   25.1016   32.2440 H   0  0  0  0  0  0  0  0  0  0  0  0
   36.3156   25.3082   32.4607 H   0  0  0  0  0  0  0  0  0  0  0  0
   41.3746   23.7687   36.1110 H   0  0  0  0  0  0  0  0  0  0  0  0
   39.9582   23.0496   38.0579 H   0  0  0  0  0  0  0  0  0  0  0  0
   37.4532   22.6603   37.5942 H   0  0  0  0  0  0  0  0  0  0  0  0
  2  1  1  0
  2  7  1  0
  3  2  2  0
  4  3  1  0
  4  5  2  0
  5  6  1  0
  6  7  2  0
  6  8  1  0
  8  9  1  0
  9 10  1  0
 10 11  1  0
 12 11  1  0
 13  8  1  0
 13 12  1  0
 14 21  1  0
 15 16  1  0
 15 14  1  0
 16 14  1  0
 16  1  1  0
 17 18  2  0
 19 18  1  0
 20 19  2  0
 21 22  2  0
 21 20  1  0
 22 17  1  0
  1 23  1  0
  1 24  1  0
  3 25  1  0
  4 26  1  0
  5 27  1  0
  9 28  1  0
  9 29  1  0
 10 30  1  0
 10 31  1  0
 12 32  1  0
 12 33  1  0
 13 34  1  0
 13 35  1  0
 14 36  1  6
 15 37  1  0
 15 38  1  0
 16 39  1  6
 17 40  1  0
 18 41  1  0
 19 42  1  0
M  ISO  8  23   8  24   8  25  14  26  14  27  14  28  13  29  13  30  13
M  ISO  8  31  13  32  13  33  13  34  13  35  13  36  13  37  13  38  13
M  ISO  4  39  13  40  14  41  14  42  14
M  END
>  <minimizedAffinity>  (1) 
-4.72626638

>  <minimizedRMSD>  (1) 
5.29411459

$$$$
