
     RDKit          3D

 33 35  0  0  0  0  0  0  0  0999 V2000
   39.8100   22.5350   38.2390 N   0  0  0  0  0  0  0  0  0  0  0  0
   38.6760   23.1980   37.9960 N   0  0  0  0  0  0  0  0  0  0  0  0
   38.7520   23.7780   36.7740 C   0  0  0  0  0  0  0  0  0  0  0  0
   39.9790   23.4730   36.2190 C   0  0  0  0  0  0  0  0  0  0  0  0
   40.5980   22.7000   37.1700 C   0  0  0  0  0  0  0  0  0  0  0  0
   41.9030   22.1460   37.0350 N   0  0  0  0  0  0  0  0  0  0  0  0
   42.9860   22.8930   36.4240 C   0  0  0  0  0  0  0  0  0  0  0  0
   43.3800   22.0840   35.1800 C   0  0  0  0  0  0  0  0  0  0  0  0
   42.8010   20.8390   35.1500 O   0  0  0  0  0  0  0  0  0  0  0  0
   42.8760   20.1130   36.3090 C   0  0  0  0  0  0  0  0  0  0  0  0
   42.2120   20.8090   37.5020 C   0  0  0  0  0  0  0  0  0  0  0  0
   37.6830   24.5430   36.2630 O   0  0  0  0  0  0  0  0  0  0  0  0
   37.8490   25.8730   35.9450 C   0  0  0  0  0  0  0  0  0  0  0  0
   38.3960   26.6800   36.7310 O   0  0  0  0  0  0  0  0  0  0  0  0
   37.3760   26.3750   34.6510 C   0  0  0  0  0  0  0  0  0  0  0  0
   37.4690   25.5300   33.5480 C   0  0  0  0  0  0  0  0  0  0  0  0
   37.0200   26.0000   32.3070 C   0  0  0  0  0  0  0  0  0  0  0  0
   36.5200   27.2610   32.2750 N   0  0  0  0  0  0  0  0  0  0  0  0
   36.4420   28.0460   33.3410 C   0  0  0  0  0  0  0  0  0  0  0  0
   36.8650   27.6140   34.5310 N   0  0  0  0  0  0  0  0  0  0  0  0
   40.0353   21.9982   39.0887 H   0  0  0  0  0  0  0  0  0  0  0  0
   40.3713   23.7796   35.2381 H   0  0  0  0  0  0  0  0  0  0  0  0
   42.6473   23.8998   36.1383 H   0  0  0  0  0  0  0  0  0  0  0  0
   43.8331   23.0274   37.1128 H   0  0  0  0  0  0  0  0  0  0  0  0
   43.0648   22.6400   34.2847 H   0  0  0  0  0  0  0  0  0  0  0  0
   44.4704   21.9418   35.2088 H   0  0  0  0  0  0  0  0  0  0  0  0
   42.3787   19.1451   36.1479 H   0  0  0  0  0  0  0  0  0  0  0  0
   43.9423   19.9947   36.5519 H   0  0  0  0  0  0  0  0  0  0  0  0
   42.9011   20.8487   38.3585 H   0  0  0  0  0  0  0  0  0  0  0  0
   41.3137   20.2739   37.8437 H   0  0  0  0  0  0  0  0  0  0  0  0
   37.8854   24.5169   33.6488 H   0  0  0  0  0  0  0  0  0  0  0  0
   37.0704   25.3767   31.4020 H   0  0  0  0  0  0  0  0  0  0  0  0
   36.0260   29.0597   33.2439 H   0  0  0  0  0  0  0  0  0  0  0  0
  2  1  1  0
  3  2  2  0
  4  3  1  0
  4  5  2  0
  5  1  1  0
  6  5  1  0
  6 11  1  0
  7  6  1  0
  8  7  1  0
  9  8  1  0
  9 10  1  0
 10 11  1  0
 12  3  1  0
 13 12  1  0
 13 14  2  0
 15 13  1  0
 16 15  2  0
 17 16  1  0
 18 17  2  0
 18 19  1  0
 19 20  2  0
 20 15  1  0
  1 21  1  0
  4 22  1  0
  7 23  1  0
  7 24  1  0
  8 25  1  0
  8 26  1  0
 10 27  1  0
 10 28  1  0
 11 29  1  0
 11 30  1  0
 16 31  1  0
 17 32  1  0
 19 33  1  0
M  ISO  8  21   9  22  14  23  13  24  13  25  13  26  13  27  13  28  13
M  ISO  5  29  13  30  13  31  14  32  14  33  14
M  END
>  <minimizedAffinity>  (1) 
-4.87314129

>  <minimizedRMSD>  (1) 
1.06205428

$$$$
