
     RDKit          3D

 34 37  0  0  0  0  0  0  0  0999 V2000
   37.5190   25.1910   33.7260 C   0  0  0  0  0  0  0  0  0  0  0  0
   37.8740   25.5250   35.0500 C   0  0  0  0  0  0  0  0  0  0  0  0
   37.8300   26.8570   35.4060 C   0  0  0  0  0  0  0  0  0  0  0  0
   37.4510   27.8010   34.4910 N   0  0  0  0  0  0  0  0  0  0  0  0
   37.1150   27.4290   33.2140 C   0  0  0  0  0  0  0  0  0  0  0  0
   37.1500   26.1480   32.8480 N   0  0  0  0  0  0  0  0  0  0  0  0
   37.5370   23.8410   33.2730 N   0  0  0  0  0  0  0  0  0  0  0  0
   37.8960   22.6500   34.0340 C   0  0  0  0  0  0  0  0  0  0  0  0
   37.1810   21.4460   33.5060 C   0  0  0  0  0  0  0  0  0  0  0  0
   35.9820   21.6990   32.8810 O   0  0  0  0  0  0  0  0  0  0  0  0
   36.0620   22.5480   31.7970 C   0  0  0  0  0  0  0  0  0  0  0  0
   37.1570   23.5580   31.8870 C   0  0  0  0  0  0  0  0  0  0  0  0
   38.2550   24.5430   35.9530 N   0  0  0  0  0  0  0  0  0  0  0  0
   37.4650   23.9530   36.8510 C   0  0  0  0  0  0  0  0  0  0  0  0
   38.1360   23.0350   37.5810 N   0  0  0  0  0  0  0  0  0  0  0  0
   39.4070   23.0500   37.1210 C   0  0  0  0  0  0  0  0  0  0  0  0
   40.5470   22.3590   37.4490 C   0  0  0  0  0  0  0  0  0  0  0  0
   41.7360   22.5420   36.8390 N   0  0  0  0  0  0  0  0  0  0  0  0
   41.7510   23.4700   35.8570 C   0  0  0  0  0  0  0  0  0  0  0  0
   40.6470   24.1440   35.5350 N   0  0  0  0  0  0  0  0  0  0  0  0
   39.4660   23.9900   36.1100 C   0  0  0  0  0  0  0  0  0  0  0  0
   38.1003   27.1610   36.4280 H   0  0  0  0  0  0  0  0  0  0  0  0
   36.8137   28.1956   32.4849 H   0  0  0  0  0  0  0  0  0  0  0  0
   38.9812   22.4871   33.9580 H   0  0  0  0  0  0  0  0  0  0  0  0
   37.6039   22.8012   35.0837 H   0  0  0  0  0  0  0  0  0  0  0  0
   37.8429   20.9486   32.7818 H   0  0  0  0  0  0  0  0  0  0  0  0
   36.9410   20.8270   34.3831 H   0  0  0  0  0  0  0  0  0  0  0  0
   35.1055   23.0840   31.7080 H   0  0  0  0  0  0  0  0  0  0  0  0
   36.2838   21.9204   30.9212 H   0  0  0  0  0  0  0  0  0  0  0  0
   38.0371   23.1750   31.3497 H   0  0  0  0  0  0  0  0  0  0  0  0
   36.7905   24.4938   31.4398 H   0  0  0  0  0  0  0  0  0  0  0  0
   36.3977   24.1853   36.9815 H   0  0  0  0  0  0  0  0  0  0  0  0
   40.4874   21.6134   38.2555 H   0  0  0  0  0  0  0  0  0  0  0  0
   42.6871   23.6720   35.3159 H   0  0  0  0  0  0  0  0  0  0  0  0
  1  2  1  0
  2  3  2  0
  2 13  1  0
  4  3  1  0
  5  4  2  0
  6  5  1  0
  6  1  2  0
  7  1  1  0
  7  8  1  0
  9  8  1  0
 10  9  1  0
 11 12  1  0
 11 10  1  0
 12  7  1  0
 13 21  1  0
 13 14  1  0
 14 15  2  0
 16 17  2  0
 16 15  1  0
 18 17  1  0
 19 18  2  0
 20 19  1  0
 20 21  2  0
 21 16  1  0
  3 22  1  0
  5 23  1  0
  8 24  1  0
  8 25  1  0
  9 26  1  0
  9 27  1  0
 11 28  1  0
 11 29  1  0
 12 30  1  0
 12 31  1  0
 14 32  1  0
 17 33  1  0
 19 34  1  0
M  ISO  8  22  14  23  14  24  13  25  13  26  13  27  13  28  13  29  13
M  ISO  5  30  13  31  13  32  14  33  14  34  14
M  END
>  <minimizedAffinity>  (1) 
-5.28283167

>  <minimizedRMSD>  (1) 
0.834498525

$$$$
