
     RDKit          3D

 38 40  0  0  1  0  0  0  0  0999 V2000
   37.7000   23.8680   33.7270 N   0  0  0  0  0  0  0  0  0  0  0  0
   37.5240   22.5270   33.2200 C   0  0  0  0  0  0  0  0  0  0  0  0
   36.6010   22.6900   32.0360 C   0  0  0  0  0  0  0  0  0  0  0  0
   36.4190   24.2240   31.8930 C   0  0  0  0  0  0  0  0  0  0  0  0
   37.7330   24.6320   32.5380 C   0  0  1  0  0  0  0  0  0  0  0  0
   37.9800   26.0240   32.5910 N   0  0  0  0  0  0  0  0  0  0  0  0
   37.9280   26.4950   31.1920 C   0  0  0  0  0  0  0  0  0  0  0  0
   38.0310   27.9730   31.0960 C   0  0  0  0  0  0  0  0  0  0  0  0
   37.1800   28.6670   31.9370 O   0  0  0  0  0  0  0  0  0  0  0  0
   36.2680   27.7690   32.4710 C   0  0  0  0  0  0  0  0  0  0  0  0
   36.9740   26.7410   33.3300 C   0  0  0  0  0  0  0  0  0  0  0  0
   38.9960   24.0360   34.3650 C   0  0  0  0  0  0  0  0  0  0  0  0
   37.9170   24.2180   37.9760 C   0  0  0  0  0  0  0  0  0  0  0  0
   37.9590   24.4440   36.5960 C   0  0  0  0  0  0  0  0  0  0  0  0
   38.9340   23.8180   35.8270 C   0  0  0  0  0  0  0  0  0  0  0  0
   39.8250   22.9960   36.4660 N   0  0  0  0  0  0  0  0  0  0  0  0
   39.7670   22.7920   37.7940 C   0  0  0  0  0  0  0  0  0  0  0  0
   38.8240   23.3980   38.5370 N   0  0  0  0  0  0  0  0  0  0  0  0
   38.4880   22.1002   32.9060 H   0  0  0  0  0  0  0  0  0  0  0  0
   37.1156   21.8428   33.9783 H   0  0  0  0  0  0  0  0  0  0  0  0
   37.0548   22.2661   31.1281 H   0  0  0  0  0  0  0  0  0  0  0  0
   35.6437   22.1668   32.1770 H   0  0  0  0  0  0  0  0  0  0  0  0
   36.3499   24.5427   30.8425 H   0  0  0  0  0  0  0  0  0  0  0  0
   35.5045   24.6524   32.3291 H   0  0  0  0  0  0  0  0  0  0  0  0
   38.6418   24.4091   31.9597 H   0  0  0  0  0  0  0  0  0  0  0  0
   38.7625   26.0444   30.6348 H   0  0  0  0  0  0  0  0  0  0  0  0
   36.9577   26.1949   30.7695 H   0  0  0  0  0  0  0  0  0  0  0  0
   39.0642   28.2611   31.3400 H   0  0  0  0  0  0  0  0  0  0  0  0
   37.7388   28.2390   30.0694 H   0  0  0  0  0  0  0  0  0  0  0  0
   35.5397   28.3166   33.0873 H   0  0  0  0  0  0  0  0  0  0  0  0
   35.7554   27.2512   31.6469 H   0  0  0  0  0  0  0  0  0  0  0  0
   36.2313   26.0231   33.7083 H   0  0  0  0  0  0  0  0  0  0  0  0
   37.4705   27.2704   34.1566 H   0  0  0  0  0  0  0  0  0  0  0  0
   39.7013   23.3132   33.9291 H   0  0  0  0  0  0  0  0  0  0  0  0
   39.3245   25.0715   34.1926 H   0  0  0  0  0  0  0  0  0  0  0  0
   37.1503   24.7057   38.5959 H   0  0  0  0  0  0  0  0  0  0  0  0
   37.2253   25.1127   36.1222 H   0  0  0  0  0  0  0  0  0  0  0  0
   40.4964   22.1245   38.2761 H   0  0  0  0  0  0  0  0  0  0  0  0
  1 12  1  0
  2  1  1  0
  3  2  1  0
  4  3  1  0
  4  5  1  0
  5  6  1  0
  5  1  1  0
  6 11  1  0
  7  6  1  0
  8  7  1  0
  8  9  1  0
  9 10  1  0
 10 11  1  0
 12 15  1  0
 13 18  2  0
 14 13  1  0
 15 16  1  0
 15 14  2  0
 16 17  2  0
 17 18  1  0
  2 19  1  0
  2 20  1  0
  3 21  1  0
  3 22  1  0
  4 23  1  0
  4 24  1  0
  5 25  1  6
  7 26  1  0
  7 27  1  0
  8 28  1  0
  8 29  1  0
 10 30  1  0
 10 31  1  0
 11 32  1  0
 11 33  1  0
 12 34  1  0
 12 35  1  0
 13 36  1  0
 14 37  1  0
 17 38  1  0
M  ISO  8  19  13  20  13  21  13  22  13  23  13  24  13  25  13  26  13
M  ISO  8  27  13  28  13  29  13  30  13  31  13  32  13  33  13  34   8
M  ISO  4  35   8  36  14  37  14  38  14
M  END
>  <minimizedAffinity>  (1) 
-4.3523488

>  <minimizedRMSD>  (1) 
3.33170104

$$$$
