
     RDKit          3D

 31 33  0  0  0  0  0  0  0  0999 V2000
   37.4030   23.9340   32.9440 C   0  0  0  0  0  0  0  0  0  0  0  0
   36.7200   24.6660   31.9670 C   0  0  0  0  0  0  0  0  0  0  0  0
   35.9110   23.9690   31.0790 C   0  0  0  0  0  0  0  0  0  0  0  0
   35.8360   22.6110   31.2180 N   0  0  0  0  0  0  0  0  0  0  0  0
   36.5090   21.9540   32.1690 C   0  0  0  0  0  0  0  0  0  0  0  0
   37.2850   22.6050   33.0240 N   0  0  0  0  0  0  0  0  0  0  0  0
   36.3460   20.5320   32.2080 N   0  0  0  0  0  0  0  0  0  0  0  0
   35.3130   20.1460   32.8750 N   0  0  0  0  0  0  0  0  0  0  0  0
   35.2660   18.7820   32.8390 C   0  0  0  0  0  0  0  0  0  0  0  0
   36.3360   18.3310   32.1070 C   0  0  0  0  0  0  0  0  0  0  0  0
   37.0240   19.4520   31.7040 C   0  0  0  0  0  0  0  0  0  0  0  0
   38.2400   24.6450   33.8630 N   0  0  0  0  0  0  0  0  0  0  0  0
   38.1940   19.6950   30.9400 N   0  0  0  0  0  0  0  0  0  0  0  0
   39.5980   19.7660   31.2810 C   0  0  0  0  0  0  0  0  0  0  0  0
   40.2430   20.6920   30.2880 C   0  0  0  0  0  0  0  0  0  0  0  0
   39.0530   21.2190   29.4750 C   0  0  0  0  0  0  0  0  0  0  0  0
   38.1910   19.9520   29.4930 C   0  0  0  0  0  0  0  0  0  0  0  0
   36.8205   25.7596   31.9040 H   0  0  0  0  0  0  0  0  0  0  0  0
   35.3497   24.4918   30.2906 H   0  0  0  0  0  0  0  0  0  0  0  0
   34.5008   18.1517   33.3156 H   0  0  0  0  0  0  0  0  0  0  0  0
   36.5918   17.2840   31.8870 H   0  0  0  0  0  0  0  0  0  0  0  0
   38.3258   25.6692   33.7950 H   0  0  0  0  0  0  0  0  0  0  0  0
   38.7562   24.1322   34.5920 H   0  0  0  0  0  0  0  0  0  0  0  0
   39.7200   20.1605   32.3006 H   0  0  0  0  0  0  0  0  0  0  0  0
   40.0617   18.7691   31.2481 H   0  0  0  0  0  0  0  0  0  0  0  0
   40.7672   21.5138   30.7978 H   0  0  0  0  0  0  0  0  0  0  0  0
   41.0037   20.1962   29.6671 H   0  0  0  0  0  0  0  0  0  0  0  0
   39.3435   21.5088   28.4544 H   0  0  0  0  0  0  0  0  0  0  0  0
   38.5737   22.1299   29.8631 H   0  0  0  0  0  0  0  0  0  0  0  0
   37.1771   20.1370   29.1087 H   0  0  0  0  0  0  0  0  0  0  0  0
   38.5514   19.1247   28.8640 H   0  0  0  0  0  0  0  0  0  0  0  0
  1  6  2  0
  1 12  1  0
  2  1  1  0
  3  4  1  0
  3  2  2  0
  4  5  2  0
  5  7  1  0
  5  6  1  0
  7  8  1  0
  9  8  2  0
 10  9  1  0
 11 10  2  0
 11  7  1  0
 13 14  1  0
 13 11  1  0
 15 14  1  0
 16 17  1  0
 16 15  1  0
 17 13  1  0
  2 18  1  0
  3 19  1  0
  9 20  1  0
 10 21  1  0
 12 22  1  0
 12 23  1  0
 14 24  1  0
 14 25  1  0
 15 26  1  0
 15 27  1  0
 16 28  1  0
 16 29  1  0
 17 30  1  0
 17 31  1  0
M  ISO  8  18  14  19  14  20  14  21  14  24  13  25  13  26  13  27  13
M  ISO  4  28  13  29  13  30  13  31  13
M  END
>  <minimizedAffinity>  (1) 
-3.53299069

>  <minimizedRMSD>  (1) 
6.60888624

$$$$
