
     RDKit          3D

 33 35  0  0  0  0  0  0  0  0999 V2000
   39.6270   26.3010   35.1670 C   0  0  0  0  0  0  0  0  0  0  0  0
   39.2520   24.9610   35.1270 C   0  0  0  0  0  0  0  0  0  0  0  0
   38.1630   24.5730   34.3350 C   0  0  0  0  0  0  0  0  0  0  0  0
   37.5440   25.5820   33.6480 N   0  0  0  0  0  0  0  0  0  0  0  0
   37.9380   26.8790   33.7090 C   0  0  0  0  0  0  0  0  0  0  0  0
   38.9730   27.2190   34.4680 N   0  0  0  0  0  0  0  0  0  0  0  0
   37.2260   27.8530   32.9540 N   0  0  0  0  0  0  0  0  0  0  0  0
   37.5080   28.2740   31.5950 C   0  0  0  0  0  0  0  0  0  0  0  0
   36.0970   28.3420   31.0290 C   0  0  0  0  0  0  0  0  0  0  0  0
   35.3560   29.0560   32.1450 C   0  0  0  0  0  0  0  0  0  0  0  0
   36.0780   28.6060   33.4220 C   0  0  0  0  0  0  0  0  0  0  0  0
   39.9030   23.8990   35.8560 C   0  0  0  0  0  0  0  0  0  0  0  0
   39.4430   23.3020   37.0170 C   0  0  0  0  0  0  0  0  0  0  0  0
   40.1860   22.3140   37.5620 C   0  0  0  0  0  0  0  0  0  0  0  0
   41.3770   21.9510   36.9220 C   0  0  0  0  0  0  0  0  0  0  0  0
   41.4360   23.0900   35.4540 S   0  0  0  0  0  0  0  0  0  0  0  0
   42.3880   21.0070   37.1690 C   0  0  0  0  0  0  0  0  0  0  0  0
   43.3940   20.9660   36.4310 O   0  0  0  0  0  0  0  0  0  0  0  0
   42.3120   20.0800   38.2440 N   0  0  0  0  0  0  0  0  0  0  0  0
   40.4815   26.6041   35.7898 H   0  0  0  0  0  0  0  0  0  0  0  0
   37.8280   23.5273   34.2698 H   0  0  0  0  0  0  0  0  0  0  0  0
   38.0043   29.2553   31.5683 H   0  0  0  0  0  0  0  0  0  0  0  0
   38.1928   27.6137   31.0427 H   0  0  0  0  0  0  0  0  0  0  0  0
   36.0670   28.9195   30.0933 H   0  0  0  0  0  0  0  0  0  0  0  0
   35.6726   27.3622   30.7647 H   0  0  0  0  0  0  0  0  0  0  0  0
   35.4230   30.1471   32.0225 H   0  0  0  0  0  0  0  0  0  0  0  0
   34.2827   28.8157   32.1601 H   0  0  0  0  0  0  0  0  0  0  0  0
   35.4216   27.9706   34.0346 H   0  0  0  0  0  0  0  0  0  0  0  0
   36.3701   29.4568   34.0551 H   0  0  0  0  0  0  0  0  0  0  0  0
   38.4994   23.6228   37.4826 H   0  0  0  0  0  0  0  0  0  0  0  0
   39.8637   21.8082   38.4841 H   0  0  0  0  0  0  0  0  0  0  0  0
   43.0728   19.4021   38.3942 H   0  0  0  0  0  0  0  0  0  0  0  0
   41.4961   20.0862   38.8727 H   0  0  0  0  0  0  0  0  0  0  0  0
  2  1  2  0
  2 12  1  0
  3  2  1  0
  4  5  1  0
  4  3  2  0
  5  6  2  0
  6  1  1  0
  7 11  1  0
  7  5  1  0
  8  7  1  0
  9  8  1  0
  9 10  1  0
 10 11  1  0
 12 13  2  0
 13 14  1  0
 15 17  1  0
 15 14  2  0
 16 12  1  0
 16 15  1  0
 17 19  1  0
 18 17  2  0
  1 20  1  0
  3 21  1  0
  8 22  1  0
  8 23  1  0
  9 24  1  0
  9 25  1  0
 10 26  1  0
 10 27  1  0
 11 28  1  0
 11 29  1  0
 13 30  1  0
 14 31  1  0
 19 32  1  0
 19 33  1  0
M  ISO  8  20  14  21  14  22  13  23  13  24  13  25  13  26  13  27  13
M  ISO  4  28  13  29  13  30  14  31  14
M  END
>  <minimizedAffinity>  (1) 
-5.02900887

>  <minimizedRMSD>  (1) 
8.20174217

$$$$
