
     RDKit          3D

 55 58  0  0  0  0  0  0  0  0999 V2000
   37.7380   26.6250   31.3710 N   0  0  0  0  0  0  0  0  0  0  0  0
   36.4980   27.1220   31.0830 C   0  0  0  0  0  0  0  0  0  0  0  0
   36.6930   28.1540   30.1670 C   0  0  0  0  0  0  0  0  0  0  0  0
   38.0040   28.2570   29.9270 N   0  0  0  0  0  0  0  0  0  0  0  0
   38.6760   27.3150   30.6650 C   0  0  0  0  0  0  0  0  0  0  0  0
   38.7480   24.3040   33.8840 N   0  0  0  0  0  0  0  0  0  0  0  0
   38.8670   23.6070   32.7530 N   0  0  0  0  0  0  0  0  0  0  0  0
   38.5210   24.3500   31.6990 C   0  0  0  0  0  0  0  0  0  0  0  0
   38.1670   25.5880   32.2210 C   0  0  0  0  0  0  0  0  0  0  0  0
   38.3080   25.5720   33.6150 C   0  0  0  0  0  0  0  0  0  0  0  0
   37.9880   23.6190   36.0860 C   0  0  0  0  0  0  0  0  0  0  0  0
   39.0370   23.8090   35.1810 C   0  0  0  0  0  0  0  0  0  0  0  0
   40.3450   23.5160   35.5470 C   0  0  0  0  0  0  0  0  0  0  0  0
   40.5250   23.0440   36.8170 N   0  0  0  0  0  0  0  0  0  0  0  0
   39.5290   22.8630   37.6820 C   0  0  0  0  0  0  0  0  0  0  0  0
   38.2430   23.1510   37.3180 N   0  0  0  0  0  0  0  0  0  0  0  0
   38.0430   26.6500   34.4680 N   0  0  0  0  0  0  0  0  0  0  0  0
   39.0030   27.1270   35.4150 C   0  0  0  0  0  0  0  0  0  0  0  0
   40.2680   27.0960   35.0120 N   0  0  0  0  0  0  0  0  0  0  0  0
   38.5290   27.5830   36.6770 N   0  0  0  0  0  0  0  0  0  0  0  0
   40.9370   27.4720   35.7130 H   0  0  0  0  0  0  0  0  0  0  0  0
   40.1640   27.2880   30.5140 C   0  0  0  0  0  0  0  0  0  0  0  0
   40.5820   26.1660   29.5500 C   0  0  0  0  0  0  0  0  0  0  0  0
   40.9330   27.0710   31.7430 C   0  0  0  0  0  0  0  0  0  0  0  0
   40.5250   28.5580   29.7610 C   0  0  0  0  0  0  0  0  0  0  0  0
   41.8390   28.7310   29.3240 N   0  0  0  0  0  0  0  0  0  0  0  0
   42.7950   29.4030   30.0980 C   0  0  0  0  0  0  0  0  0  0  0  0
   43.4330   30.3850   29.0760 C   0  0  0  0  0  0  0  0  0  0  0  0
   43.3700   29.5650   27.7810 C   0  0  0  0  0  0  0  0  0  0  0  0
   41.9960   28.9640   27.9230 C   0  0  0  0  0  0  0  0  0  0  0  0
   35.5374   26.7763   31.4926 H   0  0  0  0  0  0  0  0  0  0  0  0
   35.9044   28.7763   29.7189 H   0  0  0  0  0  0  0  0  0  0  0  0
   38.5170   24.0464   30.6417 H   0  0  0  0  0  0  0  0  0  0  0  0
   36.9551   23.8528   35.7886 H   0  0  0  0  0  0  0  0  0  0  0  0
   41.1877   23.6560   34.8540 H   0  0  0  0  0  0  0  0  0  0  0  0
   39.7413   22.4810   38.6915 H   0  0  0  0  0  0  0  0  0  0  0  0
   37.1258   27.1153   34.4117 H   0  0  0  0  0  0  0  0  0  0  0  0
   39.1943   27.9327   37.3813 H   0  0  0  0  0  0  0  0  0  0  0  0
   37.5206   27.5633   36.8861 H   0  0  0  0  0  0  0  0  0  0  0  0
   40.9088   25.2889   30.1279 H   0  0  0  0  0  0  0  0  0  0  0  0
   39.7265   25.8895   28.9161 H   0  0  0  0  0  0  0  0  0  0  0  0
   41.4098   26.5166   28.9161 H   0  0  0  0  0  0  0  0  0  0  0  0
   40.2885   27.2529   32.6157 H   0  0  0  0  0  0  0  0  0  0  0  0
   41.2998   26.0343   31.7678 H   0  0  0  0  0  0  0  0  0  0  0  0
   41.7877   27.7630   31.7678 H   0  0  0  0  0  0  0  0  0  0  0  0
   39.8802   28.6001   28.8708 H   0  0  0  0  0  0  0  0  0  0  0  0
   40.3852   29.3564   30.5046 H   0  0  0  0  0  0  0  0  0  0  0  0
   42.3216   29.9471   30.9286 H   0  0  0  0  0  0  0  0  0  0  0  0
   43.5252   28.7299   30.5710 H   0  0  0  0  0  0  0  0  0  0  0  0
   42.8486   31.3132   28.9924 H   0  0  0  0  0  0  0  0  0  0  0  0
   44.4460   30.7174   29.3467 H   0  0  0  0  0  0  0  0  0  0  0  0
   44.1526   28.7927   27.7476 H   0  0  0  0  0  0  0  0  0  0  0  0
   43.5322   30.1409   26.8579 H   0  0  0  0  0  0  0  0  0  0  0  0
   41.2285   29.6627   27.5586 H   0  0  0  0  0  0  0  0  0  0  0  0
   41.8852   28.0410   27.3350 H   0  0  0  0  0  0  0  0  0  0  0  0
  1  9  1  0
  2  1  1  0
  3  2  2  0
  4  3  1  0
  4  5  2  0
  5  1  1  0
  6 12  1  0
  7  6  1  0
  8  9  1  0
  8  7  2  0
  9 10  2  0
 10  6  1  0
 10 17  1  0
 11 16  2  0
 12 13  2  0
 12 11  1  0
 13 14  1  0
 14 15  2  0
 16 15  1  0
 17 18  1  0
 18 20  1  0
 19 18  2  0
 19 21  1  0
 22  5  1  0
 22 24  1  0
 23 22  1  0
 25 22  1  0
 26 25  1  0
 26 27  1  0
 28 27  1  0
 29 30  1  0
 29 28  1  0
 30 26  1  0
  2 31  1  0
  3 32  1  0
  8 33  1  0
 11 34  1  0
 13 35  1  0
 15 36  1  0
 17 37  1  0
 20 38  1  0
 20 39  1  0
 23 40  1  0
 23 41  1  0
 23 42  1  0
 24 43  1  0
 24 44  1  0
 24 45  1  0
 25 46  1  0
 25 47  1  0
 27 48  1  0
 27 49  1  0
 28 50  1  0
 28 51  1  0
 29 52  1  0
 29 53  1  0
 30 54  1  0
 30 55  1  0
M  ISO  8  31  14  32  14  33  14  34  14  35  14  36  14  40   8  41   8
M  ISO  8  42   8  43   8  44   8  45   8  46   8  47   8  48  13  49  13
M  ISO  6  50  13  51  13  52  13  53  13  54  13  55  13
M  END
>  <minimizedAffinity>  (1) 
-4.76590967

>  <minimizedRMSD>  (1) 
0.232902765

$$$$
