
     RDKit          3D

 45 49  0  0  0  0  0  0  0  0999 V2000
   35.6600   28.7020   32.7350 C   0  0  0  0  0  0  0  0  0  0  0  0
   35.4960   27.6580   31.8390 C   0  0  0  0  0  0  0  0  0  0  0  0
   36.1440   26.4270   32.1190 C   0  0  0  0  0  0  0  0  0  0  0  0
   36.8960   26.3650   33.2760 N   0  0  0  0  0  0  0  0  0  0  0  0
   37.0160   27.3960   34.0940 C   0  0  0  0  0  0  0  0  0  0  0  0
   36.4070   28.5590   33.8340 N   0  0  0  0  0  0  0  0  0  0  0  0
   37.8400   27.3450   35.3410 C   0  0  0  0  0  0  0  0  0  0  0  0
   39.0400   26.5240   35.2090 C   0  0  0  0  0  0  0  0  0  0  0  0
   40.1580   27.0080   34.5300 C   0  0  0  0  0  0  0  0  0  0  0  0
   41.3000   26.2490   34.4150 C   0  0  0  0  0  0  0  0  0  0  0  0
   41.3720   24.9730   34.9750 C   0  0  0  0  0  0  0  0  0  0  0  0
   40.2580   24.5040   35.6460 C   0  0  0  0  0  0  0  0  0  0  0  0
   40.3300   23.2390   36.2030 C   0  0  0  0  0  0  0  0  0  0  0  0
   39.2490   22.7110   36.8900 C   0  0  0  0  0  0  0  0  0  0  0  0
   38.0850   23.4730   37.0130 C   0  0  0  0  0  0  0  0  0  0  0  0
   38.0650   24.7390   36.4330 C   0  0  0  0  0  0  0  0  0  0  0  0
   39.1230   25.2870   35.7470 C   0  0  0  0  0  0  0  0  0  0  0  0
   36.0380   25.3050   31.2220 C   0  0  0  0  0  0  0  0  0  0  0  0
   35.0080   25.2670   30.4750 O   0  0  0  0  0  0  0  0  0  0  0  0
   36.8300   24.1240   30.9120 C   0  0  0  0  0  0  0  0  0  0  0  0
   37.9690   24.2920   30.2210 N   0  0  0  0  0  0  0  0  0  0  0  0
   38.7800   23.2400   29.8820 C   0  0  0  0  0  0  0  0  0  0  0  0
   38.4650   21.9800   30.2320 N   0  0  0  0  0  0  0  0  0  0  0  0
   37.3380   21.7140   30.9300 C   0  0  0  0  0  0  0  0  0  0  0  0
   36.9870   20.4400   31.3160 C   0  0  0  0  0  0  0  0  0  0  0  0
   35.8400   20.1890   32.0390 C   0  0  0  0  0  0  0  0  0  0  0  0
   35.0550   21.3020   32.3570 C   0  0  0  0  0  0  0  0  0  0  0  0
   35.4420   22.5380   31.9550 C   0  0  0  0  0  0  0  0  0  0  0  0
   36.5710   22.8120   31.2370 C   0  0  0  0  0  0  0  0  0  0  0  0
   35.1668   29.6654   32.5384 H   0  0  0  0  0  0  0  0  0  0  0  0
   34.8805   27.7800   30.9355 H   0  0  0  0  0  0  0  0  0  0  0  0
   38.1451   28.3697   35.5996 H   0  0  0  0  0  0  0  0  0  0  0  0
   37.2173   26.8870   36.1236 H   0  0  0  0  0  0  0  0  0  0  0  0
   40.1264   28.0112   34.0798 H   0  0  0  0  0  0  0  0  0  0  0  0
   42.1681   26.6538   33.8741 H   0  0  0  0  0  0  0  0  0  0  0  0
   42.2825   24.3622   34.8858 H   0  0  0  0  0  0  0  0  0  0  0  0
   41.2523   22.6485   36.0994 H   0  0  0  0  0  0  0  0  0  0  0  0
   39.3066   21.7056   37.3325 H   0  0  0  0  0  0  0  0  0  0  0  0
   37.2089   23.0842   37.5527 H   0  0  0  0  0  0  0  0  0  0  0  0
   37.1468   25.3369   36.5296 H   0  0  0  0  0  0  0  0  0  0  0  0
   39.7032   23.4293   29.3146 H   0  0  0  0  0  0  0  0  0  0  0  0
   37.6398   19.5988   31.0399 H   0  0  0  0  0  0  0  0  0  0  0  0
   35.5585   19.1715   32.3480 H   0  0  0  0  0  0  0  0  0  0  0  0
   34.1258   21.1751   32.9319 H   0  0  0  0  0  0  0  0  0  0  0  0
   34.7965   23.3857   32.2284 H   0  0  0  0  0  0  0  0  0  0  0  0
  1  6  2  0
  2  3  2  0
  2  1  1  0
  3  4  1  0
  4  5  2  0
  5  7  1  0
  6  5  1  0
  8  7  1  0
  8 17  1  0
  9  8  2  0
 10  9  1  0
 10 11  2  0
 11 12  1  0
 12 17  2  0
 12 13  1  0
 13 14  2  0
 14 15  1  0
 16 15  2  0
 17 16  1  0
 18  3  1  0
 19 18  2  0
 20 18  1  0
 20 29  1  0
 21 20  2  0
 22 21  1  0
 22 23  2  0
 23 24  1  0
 24 29  2  0
 24 25  1  0
 25 26  2  0
 26 27  1  0
 28 27  2  0
 29 28  1  0
  1 30  1  0
  2 31  1  0
  7 32  1  0
  7 33  1  0
  9 34  1  0
 10 35  1  0
 11 36  1  0
 13 37  1  0
 14 38  1  0
 15 39  1  0
 16 40  1  0
 22 41  1  0
 25 42  1  0
 26 43  1  0
 27 44  1  0
 28 45  1  0
M  ISO  8  30  14  31  14  32   8  33   8  34  14  35  14  36  14  37  14
M  ISO  8  38  14  39  14  40  14  41  14  42  14  43  14  44  14  45  14
M  END
>  <minimizedAffinity>  (1) 
-7.18706131

>  <minimizedRMSD>  (1) 
2.14560866

$$$$
