
     RDKit          3D

 29 30  0  0  1  0  0  0  0  0999 V2000
   40.8230   23.9480   34.5550 C   0  0  0  0  0  0  0  0  0  0  0  0
   43.5870   23.6520   36.8170 C   0  0  0  0  0  0  0  0  0  0  0  0
   42.3310   23.3230   36.2310 C   0  0  0  0  0  0  0  0  0  0  0  0
   42.0280   24.1890   35.2470 C   0  0  0  0  0  0  0  0  0  0  0  0
   42.8680   25.2470   34.8940 N   0  0  0  0  0  0  0  0  0  0  0  0
   44.0150   25.4820   35.4890 C   0  0  0  0  0  0  0  0  0  0  0  0
   44.3750   24.6750   36.4600 N   0  0  0  0  0  0  0  0  0  0  0  0
   41.6790   22.1850   36.7740 C   0  0  0  0  0  0  0  0  0  0  0  0
   40.9350   22.5090   37.9350 F   0  0  0  0  0  0  0  0  0  0  0  0
   42.3590   21.2500   37.4770 F   0  0  0  0  0  0  0  0  0  0  0  0
   40.5550   21.6940   36.1370 F   0  0  0  0  0  0  0  0  0  0  0  0
   39.8310   24.9900   34.7180 C   0  0  0  0  0  0  0  0  0  0  0  0
   38.6240   24.3880   35.4530 C   0  0  2  0  0  0  0  0  0  0  0  0
   37.7570   25.3860   36.1330 C   0  0  0  0  0  0  0  0  0  0  0  0
   38.5130   24.3050   36.8710 C   0  0  1  0  0  0  0  0  0  0  0  0
   37.6720   23.0940   37.2910 C   0  0  0  0  0  0  0  0  0  0  0  0
   37.1340   22.3490   36.4700 O   0  0  0  0  0  0  0  0  0  0  0  0
   37.4470   22.7360   38.6090 O   0  0  0  0  0  0  0  0  0  0  0  0
   40.3959   23.0034   34.9229 H   0  0  0  0  0  0  0  0  0  0  0  0
   41.0730   23.9116   33.4844 H   0  0  0  0  0  0  0  0  0  0  0  0
   43.9416   23.0087   37.6358 H   0  0  0  0  0  0  0  0  0  0  0  0
   44.6519   26.3256   35.1844 H   0  0  0  0  0  0  0  0  0  0  0  0
   40.2524   25.8172   35.3081 H   0  0  0  0  0  0  0  0  0  0  0  0
   39.5238   25.3810   33.7368 H   0  0  0  0  0  0  0  0  0  0  0  0
   38.5264   23.6013   34.6904 H   0  0  0  0  0  0  0  0  0  0  0  0
   38.0695   26.4379   36.2092 H   0  0  0  0  0  0  0  0  0  0  0  0
   36.7103   25.7153   36.0564 H   0  0  0  0  0  0  0  0  0  0  0  0
   39.2015   24.3167   37.7288 H   0  0  0  0  0  0  0  0  0  0  0  0
   36.8942   21.9419   38.8188 H   0  0  0  0  0  0  0  0  0  0  0  0
  1 12  1  0
  1  4  1  0
  3  8  1  0
  3  2  2  0
  4  3  1  0
  5  4  2  0
  5  6  1  0
  6  7  2  0
  7  2  1  0
  8 10  1  0
  8  9  1  0
 11  8  1  0
 12 13  1  0
 13 14  1  0
 13 15  1  0
 14 15  1  0
 15 16  1  0
 16 18  1  0
 17 16  2  0
  1 19  1  0
  1 20  1  0
  2 21  1  0
  6 22  1  0
 12 23  1  0
 12 24  1  0
 13 25  1  6
 14 26  1  0
 14 27  1  0
 15 28  1  1
 18 29  1  0
M  ISO  8  19   8  20   8  21  14  22  14  23   8  24   8  25  13  26  13
M  ISO  3  27  13  28  13  29   3
M  END
>  <minimizedAffinity>  (1) 
-4.2167058

>  <minimizedRMSD>  (1) 
1.27779293

$$$$
