
     RDKit          3D

 24 26  0  0  0  0  0  0  0  0999 V2000
   38.2400   24.5400   35.9820 N   0  0  0  0  0  0  0  0  0  0  0  0
   37.4720   24.0170   36.9580 C   0  0  0  0  0  0  0  0  0  0  0  0
   38.1520   23.1390   37.7190 N   0  0  0  0  0  0  0  0  0  0  0  0
   39.3960   23.0940   37.2190 C   0  0  0  0  0  0  0  0  0  0  0  0
   40.5400   22.4010   37.5460 C   0  0  0  0  0  0  0  0  0  0  0  0
   41.7100   22.5190   36.8790 N   0  0  0  0  0  0  0  0  0  0  0  0
   41.7130   23.3810   35.8330 C   0  0  0  0  0  0  0  0  0  0  0  0
   40.6090   24.0540   35.5140 N   0  0  0  0  0  0  0  0  0  0  0  0
   39.4380   23.9640   36.1470 C   0  0  0  0  0  0  0  0  0  0  0  0
   37.6810   25.1000   33.7090 C   0  0  0  0  0  0  0  0  0  0  0  0
   37.8360   25.4710   35.0380 C   0  0  0  0  0  0  0  0  0  0  0  0
   37.5840   26.7870   35.3600 C   0  0  0  0  0  0  0  0  0  0  0  0
   37.2010   27.6560   34.3850 N   0  0  0  0  0  0  0  0  0  0  0  0
   37.0610   27.2540   33.0960 C   0  0  0  0  0  0  0  0  0  0  0  0
   37.3020   25.9680   32.7560 N   0  0  0  0  0  0  0  0  0  0  0  0
   37.8750   23.7570   33.1900 C   0  0  0  0  0  0  0  0  0  0  0  0
   37.0190   22.9270   32.8390 O   0  0  0  0  0  0  0  0  0  0  0  0
   38.9840   22.9780   32.9200 O   0  0  0  0  0  0  0  0  0  0  0  0
   36.4146   24.2767   37.1144 H   0  0  0  0  0  0  0  0  0  0  0  0
   40.4995   21.7101   38.4010 H   0  0  0  0  0  0  0  0  0  0  0  0
   42.6314   23.5253   35.2450 H   0  0  0  0  0  0  0  0  0  0  0  0
   37.6917   27.1330   36.3986 H   0  0  0  0  0  0  0  0  0  0  0  0
   36.7508   27.9762   32.3265 H   0  0  0  0  0  0  0  0  0  0  0  0
   38.8703   22.0633   32.5588 H   0  0  0  0  0  0  0  0  0  0  0  0
  1  9  1  0
  1  2  1  0
  2  3  2  0
  4  5  2  0
  4  3  1  0
  6  5  1  0
  7  6  2  0
  8  7  1  0
  8  9  2  0
  9  4  1  0
 10 11  2  0
 11 12  1  0
 11  1  1  0
 13 12  2  0
 14 13  1  0
 15 14  2  0
 15 10  1  0
 16 10  1  0
 17 16  2  0
 18 16  1  0
  2 19  1  0
  5 20  1  0
  7 21  1  0
 12 22  1  0
 14 23  1  0
 18 24  1  0
M  ISO  6  19  14  20  14  21  14  22  14  23  14  24   3
M  END
>  <minimizedAffinity>  (1) 
-4.4069705

>  <minimizedRMSD>  (1) 
0.875561833

$$$$
