
     RDKit          3D

 36 38  0  0  1  0  0  0  0  0999 V2000
   37.6390   25.4550   34.5650 N   0  0  0  0  0  0  0  0  0  0  0  0
   37.1890   25.7270   33.2160 C   0  0  0  0  0  0  0  0  0  0  0  0
   37.2810   27.2050   33.0530 C   0  0  0  0  0  0  0  0  0  0  0  0
   37.8400   27.6910   34.3790 C   0  0  0  0  0  0  0  0  0  0  0  0
   38.6560   26.4330   34.7890 C   0  0  2  0  0  0  0  0  0  0  0  0
   38.2530   24.1620   34.6660 C   0  0  0  0  0  0  0  0  0  0  0  0
   37.9350   23.6810   38.4120 C   0  0  0  0  0  0  0  0  0  0  0  0
   37.6000   24.0450   37.1080 C   0  0  0  0  0  0  0  0  0  0  0  0
   38.5450   23.7990   36.0890 C   0  0  0  0  0  0  0  0  0  0  0  0
   39.7290   23.2190   36.4470 N   0  0  0  0  0  0  0  0  0  0  0  0
   39.9900   22.8920   37.7250 C   0  0  0  0  0  0  0  0  0  0  0  0
   39.0880   23.1250   38.6960 N   0  0  0  0  0  0  0  0  0  0  0  0
   39.7490   26.2500   33.9880 O   0  0  0  0  0  0  0  0  0  0  0  0
   40.9510   26.4890   34.6070 C   0  0  2  0  0  0  0  0  0  0  0  0
   41.9820   27.2040   33.7900 C   0  0  0  0  0  0  0  0  0  0  0  0
   42.1880   25.7670   34.1750 C   0  0  1  0  0  0  0  0  0  0  0  0
   43.1330   25.4380   35.2670 C   0  0  0  0  0  0  0  0  0  0  0  0
   43.0160   24.4300   36.0130 O   0  0  0  0  0  0  0  0  0  0  0  0
   44.2000   26.3450   35.4260 O   0  0  0  0  0  0  0  0  0  0  0  0
   37.8361   25.2192   32.4857 H   0  0  0  0  0  0  0  0  0  0  0  0
   36.1651   25.3620   33.0472 H   0  0  0  0  0  0  0  0  0  0  0  0
   37.9574   27.4650   32.2255 H   0  0  0  0  0  0  0  0  0  0  0  0
   36.3110   27.6638   32.8107 H   0  0  0  0  0  0  0  0  0  0  0  0
   38.4831   28.5747   34.2542 H   0  0  0  0  0  0  0  0  0  0  0  0
   37.0886   28.0212   35.1114 H   0  0  0  0  0  0  0  0  0  0  0  0
   39.0945   26.4422   35.7978 H   0  0  0  0  0  0  0  0  0  0  0  0
   37.5737   23.4100   34.2382 H   0  0  0  0  0  0  0  0  0  0  0  0
   39.2053   24.1899   34.1162 H   0  0  0  0  0  0  0  0  0  0  0  0
   37.2141   23.8649   39.2222 H   0  0  0  0  0  0  0  0  0  0  0  0
   36.6291   24.5095   36.8807 H   0  0  0  0  0  0  0  0  0  0  0  0
   40.9540   22.4277   37.9801 H   0  0  0  0  0  0  0  0  0  0  0  0
   40.4645   26.6252   35.5841 H   0  0  0  0  0  0  0  0  0  0  0  0
   42.5992   27.9906   34.2486 H   0  0  0  0  0  0  0  0  0  0  0  0
   41.9745   27.7630   32.8427 H   0  0  0  0  0  0  0  0  0  0  0  0
   42.4308   24.8602   33.6016 H   0  0  0  0  0  0  0  0  0  0  0  0
   44.8753   26.1956   36.1343 H   0  0  0  0  0  0  0  0  0  0  0  0
  1  6  1  0
  1  5  1  0
  2  1  1  0
  3  2  1  0
  3  4  1  0
  4  5  1  0
  6  9  1  0
  7 12  2  0
  8  7  1  0
  9 10  1  0
  9  8  2  0
 10 11  2  0
 11 12  1  0
 13 14  1  0
 13  5  1  0
 15 16  1  0
 15 14  1  0
 16 14  1  0
 16 17  1  0
 17 19  1  0
 17 18  2  0
  2 20  1  0
  2 21  1  0
  3 22  1  0
  3 23  1  0
  4 24  1  0
  4 25  1  0
  5 26  1  1
  6 27  1  0
  6 28  1  0
  7 29  1  0
  8 30  1  0
 11 31  1  0
 14 32  1  1
 15 33  1  0
 15 34  1  0
 16 35  1  6
 19 36  1  0
M  ISO  8  20  13  21  13  22  13  23  13  24  13  25  13  26  13  27   8
M  ISO  8  28   8  29  14  30  14  31  14  32  13  33  13  34  13  35  13
M  ISO  1  36   3
M  END
>  <minimizedAffinity>  (1) 
-4.333498

>  <minimizedRMSD>  (1) 
0.762170255

$$$$
