
     RDKit          3D

 36 39  0  0  0  0  0  0  0  0999 V2000
   37.7130   27.2190   35.1260 C   0  0  0  0  0  0  0  0  0  0  0  0
   38.9570   26.4570   35.0640 C   0  0  0  0  0  0  0  0  0  0  0  0
   40.0680   26.9840   34.4110 C   0  0  0  0  0  0  0  0  0  0  0  0
   41.2470   26.2810   34.3590 C   0  0  0  0  0  0  0  0  0  0  0  0
   41.3640   25.0290   34.9530 C   0  0  0  0  0  0  0  0  0  0  0  0
   40.2610   24.5050   35.6020 C   0  0  0  0  0  0  0  0  0  0  0  0
   40.3540   23.2650   36.2010 C   0  0  0  0  0  0  0  0  0  0  0  0
   39.2830   22.7040   36.8600 C   0  0  0  0  0  0  0  0  0  0  0  0
   38.0800   23.4120   36.9160 C   0  0  0  0  0  0  0  0  0  0  0  0
   38.0160   24.6650   36.3010 C   0  0  0  0  0  0  0  0  0  0  0  0
   39.0780   25.2400   35.6380 C   0  0  0  0  0  0  0  0  0  0  0  0
   36.1140   28.7690   32.2180 C   0  0  0  0  0  0  0  0  0  0  0  0
   35.7570   27.7080   31.4120 C   0  0  0  0  0  0  0  0  0  0  0  0
   36.0680   26.4090   31.8740 C   0  0  0  0  0  0  0  0  0  0  0  0
   36.6970   26.2670   33.0780 N   0  0  0  0  0  0  0  0  0  0  0  0
   37.0160   27.3210   33.8100 C   0  0  0  0  0  0  0  0  0  0  0  0
   36.7270   28.5680   33.3860 N   0  0  0  0  0  0  0  0  0  0  0  0
   35.7190   25.2410   31.0750 C   0  0  0  0  0  0  0  0  0  0  0  0
   34.5970   25.2020   30.5110 O   0  0  0  0  0  0  0  0  0  0  0  0
   36.6260   24.1240   30.9100 C   0  0  0  0  0  0  0  0  0  0  0  0
   36.3130   22.8510   31.2150 N   0  0  0  0  0  0  0  0  0  0  0  0
   37.3340   22.0920   30.9550 O   0  0  0  0  0  0  0  0  0  0  0  0
   38.2840   22.8360   30.4950 C   0  0  0  0  0  0  0  0  0  0  0  0
   37.8880   24.1180   30.4490 N   0  0  0  0  0  0  0  0  0  0  0  0
   37.0376   26.7270   35.8414 H   0  0  0  0  0  0  0  0  0  0  0  0
   37.9729   28.2417   35.4368 H   0  0  0  0  0  0  0  0  0  0  0  0
   40.0010   27.9722   33.9324 H   0  0  0  0  0  0  0  0  0  0  0  0
   42.1132   26.7157   33.8387 H   0  0  0  0  0  0  0  0  0  0  0  0
   42.3101   24.4696   34.9077 H   0  0  0  0  0  0  0  0  0  0  0  0
   41.3042   22.7130   36.1509 H   0  0  0  0  0  0  0  0  0  0  0  0
   39.3731   21.7155   37.3341 H   0  0  0  0  0  0  0  0  0  0  0  0
   37.2037   22.9929   37.4322 H   0  0  0  0  0  0  0  0  0  0  0  0
   37.0683   25.2213   36.3487 H   0  0  0  0  0  0  0  0  0  0  0  0
   35.8901   29.7958   31.8931 H   0  0  0  0  0  0  0  0  0  0  0  0
   35.2506   27.8665   30.4484 H   0  0  0  0  0  0  0  0  0  0  0  0
   39.2748   22.4719   30.1855 H   0  0  0  0  0  0  0  0  0  0  0  0
  2  1  1  0
  2 11  1  0
  3  2  2  0
  4  3  1  0
  4  5  2  0
  5  6  1  0
  6 11  2  0
  6  7  1  0
  7  8  2  0
  8  9  1  0
 10  9  2  0
 11 10  1  0
 12 17  2  0
 13 14  2  0
 13 12  1  0
 14 15  1  0
 15 16  2  0
 16  1  1  0
 17 16  1  0
 18 14  1  0
 19 18  2  0
 20 18  1  0
 20 21  2  0
 22 21  1  0
 23 22  1  0
 24 23  2  0
 24 20  1  0
  1 25  1  0
  1 26  1  0
  3 27  1  0
  4 28  1  0
  5 29  1  0
  7 30  1  0
  8 31  1  0
  9 32  1  0
 10 33  1  0
 12 34  1  0
 13 35  1  0
 23 36  1  0
M  ISO  8  25   8  26   8  27  14  28  14  29  14  30  14  31  14  32  14
M  ISO  4  33  14  34  14  35  14  36  14
M  END
>  <minimizedAffinity>  (1) 
-5.83811617

>  <minimizedRMSD>  (1) 
1.66849637

$$$$
