
     RDKit          3D

 28 29  0  0  1  0  0  0  0  0999 V2000
   40.5450   23.8500   34.6130 C   0  0  0  0  0  0  0  0  0  0  0  0
   43.3490   23.5770   36.8200 C   0  0  0  0  0  0  0  0  0  0  0  0
   42.0720   23.2690   36.2880 C   0  0  0  0  0  0  0  0  0  0  0  0
   41.7820   24.0710   35.2600 C   0  0  0  0  0  0  0  0  0  0  0  0
   42.6490   25.0610   34.8080 N   0  0  0  0  0  0  0  0  0  0  0  0
   43.8300   25.2900   35.3570 C   0  0  0  0  0  0  0  0  0  0  0  0
   44.1780   24.5410   36.3700 N   0  0  0  0  0  0  0  0  0  0  0  0
   41.3960   22.1990   36.9250 C   0  0  0  0  0  0  0  0  0  0  0  0
   40.6640   22.6220   38.0630 F   0  0  0  0  0  0  0  0  0  0  0  0
   42.0510   21.2780   37.6550 F   0  0  0  0  0  0  0  0  0  0  0  0
   40.2370   21.6940   36.3270 F   0  0  0  0  0  0  0  0  0  0  0  0
   39.7070   25.0300   34.5160 C   0  0  0  0  0  0  0  0  0  0  0  0
   38.4600   24.8100   35.3890 C   0  0  2  0  0  0  0  0  0  0  0  0
   38.1050   25.9590   36.2580 C   0  0  0  0  0  0  0  0  0  0  0  0
   38.4960   24.6110   36.7980 C   0  0  1  0  0  0  0  0  0  0  0  0
   37.3200   23.7430   37.2730 C   0  0  0  0  0  0  0  0  0  0  0  0
   37.3090   22.6660   36.6990 O   0  0  0  0  0  0  0  0  0  0  0  0
   40.7480   23.4861   33.5950 H   0  0  0  0  0  0  0  0  0  0  0  0
   39.9941   23.1197   35.2239 H   0  0  0  0  0  0  0  0  0  0  0  0
   43.6943   22.9772   37.6750 H   0  0  0  0  0  0  0  0  0  0  0  0
   44.4937   26.0801   34.9760 H   0  0  0  0  0  0  0  0  0  0  0  0
   40.2611   25.9102   34.8741 H   0  0  0  0  0  0  0  0  0  0  0  0
   39.4121   25.2004   33.4701 H   0  0  0  0  0  0  0  0  0  0  0  0
   37.9931   24.2016   34.6004 H   0  0  0  0  0  0  0  0  0  0  0  0
   38.7856   26.8178   36.3539 H   0  0  0  0  0  0  0  0  0  0  0  0
   37.2485   26.6409   36.3648 H   0  0  0  0  0  0  0  0  0  0  0  0
   39.2408   24.2768   37.5353 H   0  0  0  0  0  0  0  0  0  0  0  0
   36.5848   24.0518   38.0307 H   0  0  0  0  0  0  0  0  0  0  0  0
  1  4  1  0
  3  2  2  0
  3  8  1  0
  4  3  1  0
  5  4  2  0
  5  6  1  0
  6  7  2  0
  7  2  1  0
  8 10  1  0
  8  9  1  0
 11  8  1  0
 12  1  1  0
 12 13  1  0
 13 14  1  0
 13 15  1  0
 14 15  1  0
 15 16  1  0
 17 16  2  0
  1 18  1  0
  1 19  1  0
  2 20  1  0
  6 21  1  0
 12 22  1  0
 12 23  1  0
 13 24  1  6
 14 25  1  0
 14 26  1  0
 15 27  1  1
 16 28  1  0
M  ISO  8  18   8  19   8  20  14  21  14  22   8  23   8  24  13  25  13
M  ISO  3  26  13  27  13  28   6
M  END
>  <minimizedAffinity>  (1) 
-3.7963419

>  <minimizedRMSD>  (1) 
1.16791856

$$$$
