
     RDKit          3D

 26 28  0  0  1  0  0  0  0  0999 V2000
   38.7250   23.8890   34.6960 C   0  0  0  0  0  0  0  0  0  0  0  0
   37.9360   23.1390   33.8460 C   0  0  0  0  0  0  0  0  0  0  0  0
   38.2290   23.6200   32.6040 N   0  0  0  0  0  0  0  0  0  0  0  0
   39.1240   24.5770   32.7450 C   0  0  0  0  0  0  0  0  0  0  0  0
   39.4610   24.7790   34.0330 N   0  0  0  0  0  0  0  0  0  0  0  0
   38.7600   23.7400   36.1400 C   0  0  0  0  0  0  0  0  0  0  0  0
   37.8180   24.3780   36.9470 C   0  0  0  0  0  0  0  0  0  0  0  0
   37.8920   24.2040   38.3430 C   0  0  0  0  0  0  0  0  0  0  0  0
   38.8770   23.4250   38.8240 N   0  0  0  0  0  0  0  0  0  0  0  0
   39.7910   22.8080   38.0210 C   0  0  0  0  0  0  0  0  0  0  0  0
   39.7300   22.9670   36.6910 N   0  0  0  0  0  0  0  0  0  0  0  0
   40.4170   25.7640   34.4730 C   0  0  1  0  0  0  0  0  0  0  0  0
   40.6460   27.0200   33.7800 C   0  0  0  0  0  0  0  0  0  0  0  0
   39.7740   27.0090   35.0310 C   0  0  1  0  0  0  0  0  0  0  0  0
   38.3850   27.3680   34.7360 C   0  0  0  0  0  0  0  0  0  0  0  0
   37.7370   27.7920   35.7070 O   0  0  0  0  0  0  0  0  0  0  0  0
   37.2317   22.3365   34.1106 H   0  0  0  0  0  0  0  0  0  0  0  0
   39.5481   25.1467   31.9050 H   0  0  0  0  0  0  0  0  0  0  0  0
   37.0319   25.0054   36.5016 H   0  0  0  0  0  0  0  0  0  0  0  0
   37.1693   24.6884   39.0161 H   0  0  0  0  0  0  0  0  0  0  0  0
   40.5779   22.1802   38.4645 H   0  0  0  0  0  0  0  0  0  0  0  0
   41.1326   24.9909   34.7896 H   0  0  0  0  0  0  0  0  0  0  0  0
   41.6408   27.4886   33.8098 H   0  0  0  0  0  0  0  0  0  0  0  0
   40.5094   27.3682   32.7455 H   0  0  0  0  0  0  0  0  0  0  0  0
   39.7376   27.4276   36.0476 H   0  0  0  0  0  0  0  0  0  0  0  0
   37.9489   27.2696   33.7309 H   0  0  0  0  0  0  0  0  0  0  0  0
  1  6  1  0
  2  1  2  0
  3  4  2  0
  3  2  1  0
  4  5  1  0
  5 12  1  0
  5  1  1  0
  6 11  1  0
  6  7  2  0
  7  8  1  0
  8  9  2  0
 10  9  1  0
 11 10  2  0
 12 14  1  0
 13 12  1  0
 13 14  1  0
 15 14  1  0
 15 16  2  0
  2 17  1  0
  4 18  1  0
  7 19  1  0
  8 20  1  0
 10 21  1  0
 12 22  1  1
 13 23  1  0
 13 24  1  0
 14 25  1  1
 15 26  1  0
M  ISO  8  17  14  18  14  19  14  20  14  21  14  22  13  23  13  24  13
M  ISO  2  25  13  26   6
M  END
>  <minimizedAffinity>  (1) 
-4.17263079

>  <minimizedRMSD>  (1) 
4.17826509

$$$$
