
     RDKit          3D

 27 28  0  0  1  0  0  0  0  0999 V2000
   37.8850   24.5800   33.8830 N   0  0  0  0  0  0  0  0  0  0  0  0
   37.9710   23.5520   32.9160 C   0  0  0  0  0  0  0  0  0  0  0  0
   37.0590   23.9640   31.7900 C   0  0  0  0  0  0  0  0  0  0  0  0
   36.5020   25.3120   32.2120 C   0  0  0  0  0  0  0  0  0  0  0  0
   37.6830   25.7670   33.0790 C   0  0  1  0  0  0  0  0  0  0  0  0
   39.0730   24.7690   34.6550 C   0  0  0  0  0  0  0  0  0  0  0  0
   37.9330   24.2350   38.2090 C   0  0  0  0  0  0  0  0  0  0  0  0
   38.0040   24.7350   36.9050 C   0  0  0  0  0  0  0  0  0  0  0  0
   38.9790   24.2520   36.0360 C   0  0  0  0  0  0  0  0  0  0  0  0
   39.8360   23.2940   36.5030 N   0  0  0  0  0  0  0  0  0  0  0  0
   39.7430   22.8260   37.7720 C   0  0  0  0  0  0  0  0  0  0  0  0
   38.7890   23.3050   38.6130 N   0  0  0  0  0  0  0  0  0  0  0  0
   37.1560   26.8970   33.8880 C   0  0  0  0  0  0  0  0  0  0  0  0
   36.7580   27.6790   34.7180 O   0  0  0  0  0  0  0  0  0  0  0  0
   39.0050   23.4534   32.5538 H   0  0  0  0  0  0  0  0  0  0  0  0
   37.6784   22.5783   33.3359 H   0  0  0  0  0  0  0  0  0  0  0  0
   36.2473   23.2327   31.6620 H   0  0  0  0  0  0  0  0  0  0  0  0
   37.5880   24.0175   30.8270 H   0  0  0  0  0  0  0  0  0  0  0  0
   36.3324   25.9800   31.3546 H   0  0  0  0  0  0  0  0  0  0  0  0
   35.5186   25.2959   32.7046 H   0  0  0  0  0  0  0  0  0  0  0  0
   38.6044   26.1002   32.5790 H   0  0  0  0  0  0  0  0  0  0  0  0
   39.9013   24.2528   34.1477 H   0  0  0  0  0  0  0  0  0  0  0  0
   39.2347   25.8544   34.7310 H   0  0  0  0  0  0  0  0  0  0  0  0
   37.1662   24.6133   38.9011 H   0  0  0  0  0  0  0  0  0  0  0  0
   37.2943   25.5048   36.5679 H   0  0  0  0  0  0  0  0  0  0  0  0
   40.4438   22.0541   38.1229 H   0  0  0  0  0  0  0  0  0  0  0  0
   37.0061   27.5723   33.0327 H   0  0  0  0  0  0  0  0  0  0  0  0
  1  6  1  0
  2  1  1  0
  3  4  1  0
  3  2  1  0
  4  5  1  0
  5  1  1  0
  5 13  1  0
  6  9  1  0
  7 12  2  0
  8  7  1  0
  9 10  1  0
  9  8  2  0
 10 11  2  0
 11 12  1  0
 13 14  2  0
  2 15  1  0
  2 16  1  0
  3 17  1  0
  3 18  1  0
  4 19  1  0
  4 20  1  0
  5 21  1  6
  6 22  1  0
  6 23  1  0
  7 24  1  0
  8 25  1  0
 11 26  1  0
 13 27  1  0
M  ISO  8  15  13  16  13  17  13  18  13  19  13  20  13  21  13  22   8
M  ISO  5  23   8  24  14  25  14  26  14  27   6
M  END
>  <minimizedAffinity>  (1) 
-3.72493649

>  <minimizedRMSD>  (1) 
1.58325624

$$$$
