
     RDKit          3D

 35 37  0  0  1  0  0  0  0  0999 V2000
   38.5490   25.8350   34.0620 C   0  0  0  0  0  0  0  0  0  0  0  0
   37.5570   25.5850   33.0870 N   0  0  0  0  0  0  0  0  0  0  0  0
   37.1070   24.4970   32.4620 C   0  0  0  0  0  0  0  0  0  0  0  0
   36.0840   24.7460   31.5710 C   0  0  0  0  0  0  0  0  0  0  0  0
   35.8970   26.0640   31.6560 N   0  0  0  0  0  0  0  0  0  0  0  0
   36.7800   26.5730   32.5650 C   0  0  0  0  0  0  0  0  0  0  0  0
   36.8030   28.0560   32.8330 C   0  0  1  0  0  0  0  0  0  0  0  0
   35.7190   28.8690   32.2410 C   0  0  0  0  0  0  0  0  0  0  0  0
   35.6760   28.5790   33.7230 C   0  0  2  0  0  0  0  0  0  0  0  0
   35.9530   29.8000   34.5300 C   0  0  0  0  0  0  0  0  0  0  0  0
   35.2220   30.5950   35.1300 O   0  0  0  0  0  0  0  0  0  0  0  0
   38.0330   25.8300   35.4520 C   0  0  1  0  0  0  0  0  0  0  0  0
   38.6490   23.3980   38.2830 C   0  0  0  0  0  0  0  0  0  0  0  0
   38.0440   24.4530   37.5780 C   0  0  0  0  0  0  0  0  0  0  0  0
   38.6060   24.7520   36.2840 C   0  0  0  0  0  0  0  0  0  0  0  0
   39.6770   24.0110   35.8090 N   0  0  0  0  0  0  0  0  0  0  0  0
   40.2050   23.0230   36.5270 C   0  0  0  0  0  0  0  0  0  0  0  0
   39.6880   22.7110   37.7760 N   0  0  0  0  0  0  0  0  0  0  0  0
   38.2760   27.1840   36.1120 C   0  0  0  0  0  0  0  0  0  0  0  0
   38.9937   26.8206   33.8602 H   0  0  0  0  0  0  0  0  0  0  0  0
   39.2842   25.0200   33.9890 H   0  0  0  0  0  0  0  0  0  0  0  0
   37.5148   23.4911   32.6407 H   0  0  0  0  0  0  0  0  0  0  0  0
   35.5469   24.0249   30.9373 H   0  0  0  0  0  0  0  0  0  0  0  0
   37.9009   28.1239   32.8299 H   0  0  0  0  0  0  0  0  0  0  0  0
   35.9314   29.8898   31.8905 H   0  0  0  0  0  0  0  0  0  0  0  0
   35.0154   28.7231   31.4081 H   0  0  0  0  0  0  0  0  0  0  0  0
   34.9998   28.1034   34.4487 H   0  0  0  0  0  0  0  0  0  0  0  0
   37.0232   30.0425   34.6072 H   0  0  0  0  0  0  0  0  0  0  0  0
   36.9526   25.6355   35.3817 H   0  0  0  0  0  0  0  0  0  0  0  0
   38.2620   23.1270   39.2764 H   0  0  0  0  0  0  0  0  0  0  0  0
   37.1932   25.0165   37.9886 H   0  0  0  0  0  0  0  0  0  0  0  0
   41.0556   22.4508   36.1283 H   0  0  0  0  0  0  0  0  0  0  0  0
   38.2552   27.0678   37.2056 H   0  0  0  0  0  0  0  0  0  0  0  0
   39.2580   27.5715   35.8031 H   0  0  0  0  0  0  0  0  0  0  0  0
   37.4900   27.8888   35.8031 H   0  0  0  0  0  0  0  0  0  0  0  0
  1 12  1  0
  2  1  1  0
  3  2  1  0
  4  5  1  0
  4  3  2  0
  5  6  2  0
  6  7  1  0
  6  2  1  0
  7  9  1  0
  8  7  1  0
  8  9  1  0
  9 10  1  0
 10 11  2  0
 12 19  1  0
 12 15  1  0
 14 13  2  0
 15 14  1  0
 16 15  2  0
 16 17  1  0
 17 18  2  0
 18 13  1  0
  1 20  1  0
  1 21  1  0
  3 22  1  0
  4 23  1  0
  7 24  1  1
  8 25  1  0
  8 26  1  0
  9 27  1  1
 10 28  1  0
 12 29  1  6
 13 30  1  0
 14 31  1  0
 17 32  1  0
 19 33  1  0
 19 34  1  0
 19 35  1  0
M  ISO  8  20   8  21   8  22  14  23  14  24  13  25  13  26  13  27  13
M  ISO  8  28   6  29   8  30  14  31  14  32  14  33   8  34   8  35   8
M  END
>  <minimizedAffinity>  (1) 
-4.67144394

>  <minimizedRMSD>  (1) 
0.502690971

$$$$
