
     RDKit          3D

 26 28  0  0  0  0  0  0  0  0999 V2000
   38.0730   23.1030   33.7790 C   0  0  0  0  0  0  0  0  0  0  0  0
   38.2990   24.1310   32.9380 N   0  0  0  0  0  0  0  0  0  0  0  0
   37.6410   24.3600   31.8060 C   0  0  0  0  0  0  0  0  0  0  0  0
   36.6540   23.5400   31.4010 N   0  0  0  0  0  0  0  0  0  0  0  0
   36.3470   22.4830   32.1700 C   0  0  0  0  0  0  0  0  0  0  0  0
   35.3280   21.6570   31.7320 C   0  0  0  0  0  0  0  0  0  0  0  0
   34.9740   20.5630   32.4760 C   0  0  0  0  0  0  0  0  0  0  0  0
   35.6660   20.3320   33.6550 C   0  0  0  0  0  0  0  0  0  0  0  0
   36.6690   21.1900   34.0360 C   0  0  0  0  0  0  0  0  0  0  0  0
   37.0540   22.2810   33.3370 C   0  0  0  0  0  0  0  0  0  0  0  0
   40.4260   22.1490   36.5470 C   0  0  0  0  0  0  0  0  0  0  0  0
   39.7450   22.6680   37.6350 C   0  0  0  0  0  0  0  0  0  0  0  0
   38.5330   23.3060   37.3540 C   0  0  0  0  0  0  0  0  0  0  0  0
   38.1400   23.3600   36.0700 N   0  0  0  0  0  0  0  0  0  0  0  0
   38.8020   22.8570   35.0280 C   0  0  0  0  0  0  0  0  0  0  0  0
   39.9330   22.2680   35.3390 N   0  0  0  0  0  0  0  0  0  0  0  0
   37.7360   23.8920   38.4540 C   0  0  0  0  0  0  0  0  0  0  0  0
   38.1040   24.9940   38.9290 O   0  0  0  0  0  0  0  0  0  0  0  0
   37.9072   25.2325   31.1913 H   0  0  0  0  0  0  0  0  0  0  0  0
   34.8041   21.8777   30.7903 H   0  0  0  0  0  0  0  0  0  0  0  0
   34.1676   19.8901   32.1491 H   0  0  0  0  0  0  0  0  0  0  0  0
   35.4129   19.4650   34.2829 H   0  0  0  0  0  0  0  0  0  0  0  0
   37.1963   20.9738   34.9768 H   0  0  0  0  0  0  0  0  0  0  0  0
   41.3862   21.6339   36.6976 H   0  0  0  0  0  0  0  0  0  0  0  0
   40.1346   22.5834   38.6602 H   0  0  0  0  0  0  0  0  0  0  0  0
   36.8462   23.3766   38.8445 H   0  0  0  0  0  0  0  0  0  0  0  0
  1 15  1  0
  2  1  2  0
  3  2  1  0
  4  3  2  0
  4  5  1  0
  5 10  2  0
  6  5  1  0
  6  7  2  0
  7  8  1  0
  8  9  2  0
 10  1  1  0
 10  9  1  0
 11 12  2  0
 13 12  1  0
 13 17  1  0
 14 13  2  0
 15 16  2  0
 15 14  1  0
 16 11  1  0
 17 18  2  0
  3 19  1  0
  6 20  1  0
  7 21  1  0
  8 22  1  0
  9 23  1  0
 11 24  1  0
 12 25  1  0
 17 26  1  0
M  ISO  8  19  14  20  14  21  14  22  14  23  14  24  14  25  14  26   6
M  END
>  <minimizedAffinity>  (1) 
-5.02918625

>  <minimizedRMSD>  (1) 
0.939903378

$$$$
