
     RDKit          3D

 42 47  0  0  0  0  0  0  0  0999 V2000
   41.4000   82.7960   59.5560 C   0  0  0  0  0  0  0  0  0  0  0  0
   40.6010   81.7780   59.9940 C   0  0  0  0  0  0  0  0  0  0  0  0
   40.2260   81.7130   61.3100 C   0  0  0  0  0  0  0  0  0  0  0  0
   40.6520   82.6810   62.2130 C   0  0  0  0  0  0  0  0  0  0  0  0
   40.4410   82.8570   63.5310 N   0  0  0  0  0  0  0  0  0  0  0  0
   41.0940   83.9750   63.9340 C   0  0  0  0  0  0  0  0  0  0  0  0
   41.7130   84.4920   62.8600 N   0  0  0  0  0  0  0  0  0  0  0  0
   41.4640   83.7160   61.7680 C   0  0  0  0  0  0  0  0  0  0  0  0
   41.8490   83.7890   60.4390 C   0  0  0  0  0  0  0  0  0  0  0  0
   43.9130   84.9700   60.6920 C   0  0  0  0  0  0  0  0  0  0  0  0
   42.6880   84.8900   60.0570 C   0  0  0  0  0  0  0  0  0  0  0  0
   42.3180   85.8270   59.1110 C   0  0  0  0  0  0  0  0  0  0  0  0
   43.2220   86.8160   58.8540 C   0  0  0  0  0  0  0  0  0  0  0  0
   43.1790   87.8690   58.0030 N   0  0  0  0  0  0  0  0  0  0  0  0
   44.2980   88.6090   58.0640 C   0  0  0  0  0  0  0  0  0  0  0  0
   45.0970   88.0210   58.9790 N   0  0  0  0  0  0  0  0  0  0  0  0
   44.4570   86.9470   59.4560 C   0  0  0  0  0  0  0  0  0  0  0  0
   44.7870   85.9890   60.3930 C   0  0  0  0  0  0  0  0  0  0  0  0
   39.5620   80.0700   56.7920 C   0  0  0  0  0  0  0  0  0  0  0  0
   39.9570   81.0890   57.6710 C   0  0  0  0  0  0  0  0  0  0  0  0
   40.1850   80.7900   58.9930 C   0  0  0  0  0  0  0  0  0  0  0  0
   40.0190   79.5000   59.4070 N   0  0  0  0  0  0  0  0  0  0  0  0
   39.6330   78.5300   58.5240 C   0  0  0  0  0  0  0  0  0  0  0  0
   39.4070   78.7980   57.2430 N   0  0  0  0  0  0  0  0  0  0  0  0
   39.4750   77.1660   59.0440 C   0  0  0  0  0  0  0  0  0  0  0  0
   39.2210   76.0890   58.1150 C   0  0  0  0  0  0  0  0  0  0  0  0
   39.1000   74.6250   59.1840 S   0  0  0  0  0  0  0  0  0  0  0  0
   39.4120   75.6980   60.7240 C   0  0  0  0  0  0  0  0  0  0  0  0
   39.5290   76.7290   60.2900 N   0  0  0  0  0  0  0  0  0  0  0  0
   41.6950   82.8374   58.4971 H   0  0  0  0  0  0  0  0  0  0  0  0
   39.5835   80.8894   61.6548 H   0  0  0  0  0  0  0  0  0  0  0  0
   39.8759   82.2428   64.1346 H   0  0  0  0  0  0  0  0  0  0  0  0
   41.1133   84.3841   64.9549 H   0  0  0  0  0  0  0  0  0  0  0  0
   44.1907   84.2140   61.4412 H   0  0  0  0  0  0  0  0  0  0  0  0
   41.3484   85.7781   58.5939 H   0  0  0  0  0  0  0  0  0  0  0  0
   42.3832   88.0772   57.3832 H   0  0  0  0  0  0  0  0  0  0  0  0
   44.5197   89.5160   57.4825 H   0  0  0  0  0  0  0  0  0  0  0  0
   45.7588   86.0409   60.9058 H   0  0  0  0  0  0  0  0  0  0  0  0
   39.3769   80.3018   55.7328 H   0  0  0  0  0  0  0  0  0  0  0  0
   40.0833   82.1188   57.3055 H   0  0  0  0  0  0  0  0  0  0  0  0
   39.1239   76.1427   57.0206 H   0  0  0  0  0  0  0  0  0  0  0  0
   39.4649   75.3870   61.7778 H   0  0  0  0  0  0  0  0  0  0  0  0
  1  2  2  0
  1  9  1  0
  2  3  1  0
  3  4  2  0
  4  5  1  0
  5  6  1  0
  7  6  2  0
  8  4  1  0
  8  7  1  0
  9  8  2  0
 11  9  1  0
 11 10  2  0
 12 11  1  0
 13 12  2  0
 13 17  1  0
 14 15  1  0
 14 13  1  0
 15 16  2  0
 16 17  1  0
 17 18  2  0
 18 10  1  0
 19 24  2  0
 19 20  1  0
 20 21  2  0
 21 22  1  0
 21  2  1  0
 23 25  1  0
 23 22  2  0
 24 23  1  0
 25 29  1  0
 26 25  2  0
 26 27  1  0
 27 28  1  0
 29 28  2  0
  1 30  1  0
  3 31  1  0
  5 32  1  0
  6 33  1  0
 10 34  1  0
 12 35  1  0
 14 36  1  0
 15 37  1  0
 18 38  1  0
 19 39  1  0
 20 40  1  0
 26 41  1  0
 28 42  1  0
M  END
>  <Score>  (1) 
-7.04378

>  <Score_dual>  (1) 
-7.55

>  <Choices>  (1) 
[None, 8, ['34-23', 60], 19, ['34-22', 180], 35, ['33-20', 285]]

$$$$
