
     RDKit          3D

 55 61  0  0  1  0  0  0  0  0999 V2000
   39.5630   79.9220   54.5230 C   0  0  2  0  0  0  0  0  0  0  0  0
   38.0860   79.6280   54.1670 C   0  0  0  0  0  0  0  0  0  0  0  0
   39.1240   78.5310   54.2830 C   0  0  2  0  0  0  0  0  0  0  0  0
   39.5620   80.2030   58.1910 C   0  0  0  0  0  0  0  0  0  0  0  0
   40.3670   81.3300   58.4200 C   0  0  0  0  0  0  0  0  0  0  0  0
   40.8930   81.9870   57.3090 C   0  0  0  0  0  0  0  0  0  0  0  0
   40.6210   81.5330   56.0560 N   0  0  0  0  0  0  0  0  0  0  0  0
   39.8470   80.4500   55.8600 C   0  0  0  0  0  0  0  0  0  0  0  0
   39.3330   79.8080   56.9210 N   0  0  0  0  0  0  0  0  0  0  0  0
   41.6930   83.1330   57.5460 N   0  0  0  0  0  0  0  0  0  0  0  0
   41.6140   81.0470   60.4760 C   0  0  0  0  0  0  0  0  0  0  0  0
   40.6070   81.7250   59.8040 C   0  0  0  0  0  0  0  0  0  0  0  0
   39.8450   82.7140   60.3410 C   0  0  0  0  0  0  0  0  0  0  0  0
   40.1180   83.0540   61.6730 C   0  0  0  0  0  0  0  0  0  0  0  0
   39.5710   83.9740   62.5310 N   0  0  0  0  0  0  0  0  0  0  0  0
   40.2170   83.8770   63.7120 C   0  0  0  0  0  0  0  0  0  0  0  0
   41.1500   82.9130   63.5890 N   0  0  0  0  0  0  0  0  0  0  0  0
   41.1250   82.3770   62.3480 C   0  0  0  0  0  0  0  0  0  0  0  0
   41.8820   81.3900   61.8040 C   0  0  0  0  0  0  0  0  0  0  0  0
   38.7960   77.5710   55.3670 C   0  0  0  0  0  0  0  0  0  0  0  0
   37.5590   76.9220   55.2380 C   0  0  0  0  0  0  0  0  0  0  0  0
   37.3870   76.0650   56.3380 C   0  0  0  0  0  0  0  0  0  0  0  0
   38.5060   76.2200   57.0830 N   0  0  0  0  0  0  0  0  0  0  0  0
   39.2790   77.0790   56.5030 N   0  0  0  0  0  0  0  0  0  0  0  0
   38.8890   75.6030   58.3140 C   0  0  0  0  0  0  0  0  0  0  0  0
   38.7180   76.2070   59.5570 C   0  0  0  0  0  0  0  0  0  0  0  0
   39.0790   75.6320   60.7380 C   0  0  0  0  0  0  0  0  0  0  0  0
   39.6490   74.3780   60.7150 C   0  0  0  0  0  0  0  0  0  0  0  0
   39.8470   73.7220   59.5210 C   0  0  0  0  0  0  0  0  0  0  0  0
   40.4220   72.4680   59.5710 C   0  0  0  0  0  0  0  0  0  0  0  0
   40.6280   71.7950   58.3660 C   0  0  0  0  0  0  0  0  0  0  0  0
   40.2560   72.3940   57.1730 C   0  0  0  0  0  0  0  0  0  0  0  0
   39.6850   73.6510   57.1920 C   0  0  0  0  0  0  0  0  0  0  0  0
   39.4640   74.3490   58.3580 C   0  0  0  0  0  0  0  0  0  0  0  0
   40.3892   80.5240   54.1167 H   0  0  0  0  0  0  0  0  0  0  0  0
   37.6839   79.9115   53.1832 H   0  0  0  0  0  0  0  0  0  0  0  0
   37.1060   79.8407   54.6191 H   0  0  0  0  0  0  0  0  0  0  0  0
   39.5893   77.7531   53.6599 H   0  0  0  0  0  0  0  0  0  0  0  0
   39.1240   79.6496   59.0348 H   0  0  0  0  0  0  0  0  0  0  0  0
   42.1016   83.6487   56.7535 H   0  0  0  0  0  0  0  0  0  0  0  0
   41.8657   83.4500   58.5107 H   0  0  0  0  0  0  0  0  0  0  0  0
   42.1897   80.2556   59.9737 H   0  0  0  0  0  0  0  0  0  0  0  0
   39.0578   83.2195   59.7624 H   0  0  0  0  0  0  0  0  0  0  0  0
   38.8027   84.6242   62.3124 H   0  0  0  0  0  0  0  0  0  0  0  0
   40.0177   84.4767   64.6123 H   0  0  0  0  0  0  0  0  0  0  0  0
   42.6696   80.8839   62.3816 H   0  0  0  0  0  0  0  0  0  0  0  0
   36.8437   77.0608   54.4139 H   0  0  0  0  0  0  0  0  0  0  0  0
   36.5287   75.4099   56.5481 H   0  0  0  0  0  0  0  0  0  0  0  0
   38.2642   77.2086   59.5870 H   0  0  0  0  0  0  0  0  0  0  0  0
   38.9187   76.1582   61.6906 H   0  0  0  0  0  0  0  0  0  0  0  0
   39.9482   73.8972   61.6580 H   0  0  0  0  0  0  0  0  0  0  0  0
   40.7089   72.0134   60.5307 H   0  0  0  0  0  0  0  0  0  0  0  0
   41.0835   70.7938   58.3631 H   0  0  0  0  0  0  0  0  0  0  0  0
   40.4145   71.8719   56.2179 H   0  0  0  0  0  0  0  0  0  0  0  0
   39.3950   74.1134   56.2370 H   0  0  0  0  0  0  0  0  0  0  0  0
  1  8  1  0
  2  3  1  0
  2  1  1  0
  3  1  1  0
  3 20  1  0
  4  5  2  0
  5 12  1  0
  6 10  1  0
  6  5  1  0
  7  6  2  0
  8  7  1  0
  8  9  2  0
  9  4  1  0
 11 19  2  0
 12 13  2  0
 12 11  1  0
 13 14  1  0
 14 18  2  0
 14 15  1  0
 15 16  1  0
 17 16  2  0
 18 17  1  0
 19 18  1  0
 20 24  2  0
 21 20  1  0
 21 22  2  0
 22 23  1  0
 23 25  1  0
 24 23  1  0
 25 34  1  0
 25 26  2  0
 26 27  1  0
 28 27  2  0
 29 30  2  0
 29 28  1  0
 31 30  1  0
 32 33  1  0
 32 31  2  0
 33 34  2  0
 34 29  1  0
  1 35  1  6
  2 36  1  0
  2 37  1  0
  3 38  1  6
  4 39  1  0
 10 40  1  0
 10 41  1  0
 11 42  1  0
 13 43  1  0
 15 44  1  0
 16 45  1  0
 19 46  1  0
 21 47  1  0
 22 48  1  0
 26 49  1  0
 27 50  1  0
 28 51  1  0
 30 52  1  0
 31 53  1  0
 32 54  1  0
 33 55  1  0
M  END
>  <Score>  (1) 
-7.7899

>  <Score_dual>  (1) 
-8.06

>  <Choices>  (1) 
[None, 7, ['34-23', 225], 21, ['0-2', 0], 22, ['16-24', 330], 31, ['22-6', 150], 38, ['26-16', 195]]

$$$$
