
     RDKit          3D

 51 55  0  0  0  0  0  0  0  0999 V2000
   41.3190   80.1040   61.4980 C   0  0  0  0  0  0  0  0  0  0  0  0
   40.5760   80.6340   60.4660 C   0  0  0  0  0  0  0  0  0  0  0  0
   40.3960   79.8550   59.3500 C   0  0  0  0  0  0  0  0  0  0  0  0
   40.9390   78.5970   59.2710 C   0  0  0  0  0  0  0  0  0  0  0  0
   41.6610   78.1140   60.3030 C   0  0  0  0  0  0  0  0  0  0  0  0
   41.8800   78.8310   61.4410 C   0  0  0  0  0  0  0  0  0  0  0  0
   39.5790   84.2240   59.8070 C   0  0  0  0  0  0  0  0  0  0  0  0
   40.1250   82.9430   59.6300 C   0  0  0  0  0  0  0  0  0  0  0  0
   40.0290   81.9680   60.5990 C   0  0  0  0  0  0  0  0  0  0  0  0
   39.3740   82.3460   61.7150 N   0  0  0  0  0  0  0  0  0  0  0  0
   38.8530   83.5730   61.8800 C   0  0  0  0  0  0  0  0  0  0  0  0
   38.9460   84.5060   60.9530 N   0  0  0  0  0  0  0  0  0  0  0  0
   40.7130   77.7990   58.0400 C   0  0  0  0  0  0  0  0  0  0  0  0
   39.2810   77.5560   57.8570 N   0  0  0  0  0  0  0  0  0  0  0  0
   38.6530   78.3670   56.9530 C   0  0  0  0  0  0  0  0  0  0  0  0
   37.3120   78.2220   56.7080 C   0  0  0  0  0  0  0  0  0  0  0  0
   36.5900   77.2660   57.3670 C   0  0  0  0  0  0  0  0  0  0  0  0
   35.3630   77.1750   57.1040 O   0  0  0  0  0  0  0  0  0  0  0  0
   37.2450   76.4810   58.2550 N   0  0  0  0  0  0  0  0  0  0  0  0
   38.5570   76.6240   58.4930 C   0  0  0  0  0  0  0  0  0  0  0  0
   39.1750   75.8960   59.3210 O   0  0  0  0  0  0  0  0  0  0  0  0
   41.5100   80.8860   62.6410 O   0  0  0  0  0  0  0  0  0  0  0  0
   42.6120   78.4010   62.5380 O   0  0  0  0  0  0  0  0  0  0  0  0
   43.9740   78.2270   62.5740 C   0  0  0  0  0  0  0  0  0  0  0  0
   44.6320   79.4000   62.2520 C   0  0  0  0  0  0  0  0  0  0  0  0
   46.0250   79.4770   62.2210 C   0  0  0  0  0  0  0  0  0  0  0  0
   46.7380   78.3160   62.5290 C   0  0  0  0  0  0  0  0  0  0  0  0
   46.1010   77.1470   62.8490 C   0  0  0  0  0  0  0  0  0  0  0  0
   46.7320   75.9580   63.1540 C   0  0  0  0  0  0  0  0  0  0  0  0
   46.0290   74.7960   63.4600 C   0  0  0  0  0  0  0  0  0  0  0  0
   44.6450   74.8220   63.4630 C   0  0  0  0  0  0  0  0  0  0  0  0
   44.0090   75.9960   63.1620 C   0  0  0  0  0  0  0  0  0  0  0  0
   44.7260   77.1100   62.8690 C   0  0  0  0  0  0  0  0  0  0  0  0
   39.8077   80.2450   58.5063 H   0  0  0  0  0  0  0  0  0  0  0  0
   42.0889   77.1038   60.2230 H   0  0  0  0  0  0  0  0  0  0  0  0
   39.6696   84.9841   59.0170 H   0  0  0  0  0  0  0  0  0  0  0  0
   40.6453   82.7104   58.6892 H   0  0  0  0  0  0  0  0  0  0  0  0
   38.3314   83.8072   62.8197 H   0  0  0  0  0  0  0  0  0  0  0  0
   41.1028   78.3504   57.1717 H   0  0  0  0  0  0  0  0  0  0  0  0
   41.2339   76.8347   58.1340 H   0  0  0  0  0  0  0  0  0  0  0  0
   39.2265   79.1395   56.4197 H   0  0  0  0  0  0  0  0  0  0  0  0
   36.8147   78.8776   55.9781 H   0  0  0  0  0  0  0  0  0  0  0  0
   36.7208   75.7536   58.7619 H   0  0  0  0  0  0  0  0  0  0  0  0
   42.0393   80.5330   63.3995 H   0  0  0  0  0  0  0  0  0  0  0  0
   44.0412   80.2968   62.0138 H   0  0  0  0  0  0  0  0  0  0  0  0
   46.5407   80.4141   61.9644 H   0  0  0  0  0  0  0  0  0  0  0  0
   47.8376   78.3415   62.5141 H   0  0  0  0  0  0  0  0  0  0  0  0
   47.8316   75.9274   63.1554 H   0  0  0  0  0  0  0  0  0  0  0  0
   46.5678   73.8667   63.6970 H   0  0  0  0  0  0  0  0  0  0  0  0
   44.0676   73.9169   63.7026 H   0  0  0  0  0  0  0  0  0  0  0  0
   42.9098   76.0366   63.1576 H   0  0  0  0  0  0  0  0  0  0  0  0
  1 22  1  0
  2  9  1  0
  2  1  2  0
  3  2  1  0
  4  3  2  0
  4  5  1  0
  5  6  2  0
  6  1  1  0
  6 23  1  0
  7 12  2  0
  8  7  1  0
  8  9  2  0
  9 10  1  0
 10 11  2  0
 12 11  1  0
 13  4  1  0
 14 13  1  0
 14 20  1  0
 15 14  1  0
 16 15  2  0
 16 17  1  0
 17 19  1  0
 18 17  2  0
 19 20  1  0
 20 21  2  0
 23 24  1  0
 24 33  1  0
 25 24  2  0
 26 25  1  0
 26 27  2  0
 27 28  1  0
 28 33  2  0
 28 29  1  0
 29 30  2  0
 30 31  1  0
 32 31  2  0
 33 32  1  0
  3 34  1  0
  5 35  1  0
  7 36  1  0
  8 37  1  0
 11 38  1  0
 13 39  1  0
 13 40  1  0
 15 41  1  0
 16 42  1  0
 19 43  1  0
 22 44  1  0
 25 45  1  0
 26 46  1  0
 27 47  1  0
 29 48  1  0
 30 49  1  0
 31 50  1  0
 32 51  1  0
M  END
>  <Score>  (1) 
-7.6563

>  <Score_dual>  (1) 
-7.08

>  <Choices>  (1) 
[None, 8, ['35-27', 345], 15, ['3-9', 0], 24, ['37-11', 225], 34, ['26-18', 270]]

$$$$
