
     RDKit          3D

 50 53  0  0  1  0  0  0  0  0999 V2000
   40.4600   82.2580   59.8510 C   0  0  0  0  0  0  0  0  0  0  0  0
   40.6490   81.7850   61.0560 C   0  0  0  0  0  0  0  0  0  0  0  0
   40.5590   80.4770   61.3370 C   0  0  0  0  0  0  0  0  0  0  0  0
   40.2480   79.6900   60.2320 C   0  0  0  0  0  0  0  0  0  0  0  0
   40.1050   80.8470   58.8690 S   0  0  0  0  0  0  0  0  0  0  0  0
   40.9830   82.6820   62.2030 C   0  0  0  0  0  0  0  0  0  0  0  0
   40.1400   83.4170   63.0410 C   0  0  0  0  0  0  0  0  0  0  0  0
   40.7140   84.1330   64.0120 C   0  0  0  0  0  0  0  0  0  0  0  0
   42.0670   84.1970   64.2440 C   0  0  0  0  0  0  0  0  0  0  0  0
   42.8900   83.4480   63.3850 C   0  0  0  0  0  0  0  0  0  0  0  0
   42.3320   82.7330   62.4160 N   0  0  0  0  0  0  0  0  0  0  0  0
   45.2510   82.4720   63.3670 C   0  0  0  0  0  0  0  0  0  0  0  0
   44.8680   81.4100   62.8510 O   0  0  0  0  0  0  0  0  0  0  0  0
   44.2960   83.4920   63.5950 N   0  0  0  0  0  0  0  0  0  0  0  0
   39.3460   85.5730   58.8030 C   0  0  0  0  0  0  0  0  0  0  0  0
   40.5510   86.1310   58.2990 C   0  0  0  0  0  0  0  0  0  0  0  0
   41.7090   85.3910   58.3170 C   0  0  0  0  0  0  0  0  0  0  0  0
   41.6540   84.1150   58.8340 N   0  0  0  0  0  0  0  0  0  0  0  0
   40.5010   83.6010   59.3080 C   0  0  2  0  0  0  0  0  0  0  0  0
   39.3360   84.3210   59.2990 N   0  0  0  0  0  0  0  0  0  0  0  0
   42.8560   85.9210   57.8380 O   0  0  0  0  0  0  0  0  0  0  0  0
   45.1340   86.6750   58.1190 C   0  0  1  0  0  0  0  0  0  0  0  0
   43.6500   86.8940   58.3910 C   0  0  2  0  0  0  0  0  0  0  0  0
   43.5560   86.9930   59.7780 O   0  0  0  0  0  0  0  0  0  0  0  0
   43.7890   85.7950   60.4340 C   0  0  0  0  0  0  0  0  0  0  0  0
   45.1160   85.1770   60.0940 C   0  0  1  0  0  0  0  0  0  0  0  0
   45.4760   85.3150   58.6370 C   0  0  1  0  0  0  0  0  0  0  0  0
   45.4510   86.7850   56.7810 O   0  0  0  0  0  0  0  0  0  0  0  0
   46.1250   85.6860   60.9180 O   0  0  0  0  0  0  0  0  0  0  0  0
   44.8970   84.3090   57.8720 O   0  0  0  0  0  0  0  0  0  0  0  0
   40.7160   80.0652   62.3448 H   0  0  0  0  0  0  0  0  0  0  0  0
   40.1184   78.5981   60.2013 H   0  0  0  0  0  0  0  0  0  0  0  0
   39.0483   83.4064   62.9066 H   0  0  0  0  0  0  0  0  0  0  0  0
   40.0553   84.7139   64.6743 H   0  0  0  0  0  0  0  0  0  0  0  0
   42.4850   84.8038   65.0608 H   0  0  0  0  0  0  0  0  0  0  0  0
   46.3066   82.6171   63.6404 H   0  0  0  0  0  0  0  0  0  0  0  0
   44.6674   84.3806   63.9601 H   0  0  0  0  0  0  0  0  0  0  0  0
   38.4189   86.1648   58.7882 H   0  0  0  0  0  0  0  0  0  0  0  0
   40.7473   87.0429   58.8819 H   0  0  0  0  0  0  0  0  0  0  0  0
   40.3446   86.2532   57.2255 H   0  0  0  0  0  0  0  0  0  0  0  0
   40.2672   83.2042   58.3090 H   0  0  0  0  0  0  0  0  0  0  0  0
   45.7199   87.4561   58.6255 H   0  0  0  0  0  0  0  0  0  0  0  0
   43.2682   87.8058   57.9084 H   0  0  0  0  0  0  0  0  0  0  0  0
   43.7576   85.9791   61.5180 H   0  0  0  0  0  0  0  0  0  0  0  0
   43.0096   85.0899   60.1094 H   0  0  0  0  0  0  0  0  0  0  0  0
   45.0198   84.0975   60.2825 H   0  0  0  0  0  0  0  0  0  0  0  0
   46.5664   85.1985   58.5508 H   0  0  0  0  0  0  0  0  0  0  0  0
   46.3822   87.1081   56.6880 H   0  0  0  0  0  0  0  0  0  0  0  0
   45.8721   85.5584   61.8666 H   0  0  0  0  0  0  0  0  0  0  0  0
   44.5033   83.6250   58.4697 H   0  0  0  0  0  0  0  0  0  0  0  0
  1  2  2  0
  2  3  1  0
  2  6  1  0
  4  3  2  0
  5  1  1  0
  5  4  1  0
  6 11  1  0
  6  7  2  0
  7  8  1  0
  8  9  2  0
 10 14  1  0
 10  9  1  0
 11 10  2  0
 12 14  1  0
 13 12  2  0
 15 20  2  0
 16 17  1  0
 16 15  1  0
 17 18  2  0
 18 19  1  0
 19  1  1  0
 20 19  1  0
 21 17  1  0
 22 28  1  0
 22 23  1  0
 22 27  1  0
 23 21  1  0
 23 24  1  0
 24 25  1  0
 26 25  1  0
 26 29  1  0
 27 30  1  0
 27 26  1  0
  3 31  1  0
  4 32  1  0
  7 33  1  0
  8 34  1  0
  9 35  1  0
 12 36  1  0
 14 37  1  0
 15 38  1  0
 16 39  1  0
 16 40  1  0
 19 41  1  6
 22 42  1  1
 23 43  1  6
 25 44  1  0
 25 45  1  0
 26 46  1  1
 27 47  1  1
 28 48  1  0
 29 49  1  0
 30 50  1  0
M  END
>  <Score>  (1) 
-7.4042

>  <Score_dual>  (1) 
-7.08

>  <Choices>  (1) 
[None, 9, ['25-21', 105], 14, ['6-13', 165], 25, ['12-3', 60], 29, ['2-1', 0], 30, ['21-17', 270]]

$$$$
