
     RDKit          3D

 51 54  0  0  0  0  0  0  0  0999 V2000
   40.4550   79.8960   61.0750 C   0  0  0  0  0  0  0  0  0  0  0  0
   39.6770   80.3370   61.9470 O   0  0  0  0  0  0  0  0  0  0  0  0
   41.4240   80.8230   60.5860 N   0  0  0  0  0  0  0  0  0  0  0  0
   40.3950   78.5870   60.6010 N   0  0  0  0  0  0  0  0  0  0  0  0
   40.8580   77.4060   61.3370 C   0  0  0  0  0  0  0  0  0  0  0  0
   40.9050   76.2870   60.3400 C   0  0  0  0  0  0  0  0  0  0  0  0
   40.7970   76.9670   59.0240 C   0  0  0  0  0  0  0  0  0  0  0  0
   39.8760   78.1650   59.3260 C   0  0  0  0  0  0  0  0  0  0  0  0
   42.0590   84.4560   60.5830 C   0  0  0  0  0  0  0  0  0  0  0  0
   41.9160   83.1410   60.1530 C   0  0  0  0  0  0  0  0  0  0  0  0
   41.5630   82.1590   61.0460 C   0  0  0  0  0  0  0  0  0  0  0  0
   41.3770   82.5530   62.3020 N   0  0  0  0  0  0  0  0  0  0  0  0
   41.5100   83.8120   62.7310 C   0  0  0  0  0  0  0  0  0  0  0  0
   41.8490   84.7520   61.8760 N   0  0  0  0  0  0  0  0  0  0  0  0
   42.4340   85.5240   59.6610 C   0  0  0  0  0  0  0  0  0  0  0  0
   42.0060   86.0280   58.4590 C   0  0  0  0  0  0  0  0  0  0  0  0
   42.6510   87.0700   57.9170 C   0  0  0  0  0  0  0  0  0  0  0  0
   43.7130   87.6230   58.5410 C   0  0  0  0  0  0  0  0  0  0  0  0
   43.8170   86.6050   60.0030 S   0  0  0  0  0  0  0  0  0  0  0  0
   45.6830   88.5300   57.3870 C   0  0  0  0  0  0  0  0  0  0  0  0
   44.5390   88.7740   58.0860 C   0  0  0  0  0  0  0  0  0  0  0  0
   44.0750   90.0040   58.4120 C   0  0  0  0  0  0  0  0  0  0  0  0
   44.8040   91.1010   58.0130 C   0  0  0  0  0  0  0  0  0  0  0  0
   45.9800   91.0000   57.3000 C   0  0  0  0  0  0  0  0  0  0  0  0
   46.3590   89.7040   57.0240 C   0  0  0  0  0  0  0  0  0  0  0  0
   46.3010   86.9570   56.9560 S   0  0  0  0  0  0  0  0  0  0  0  0
   46.7620   86.1620   58.1420 O   0  0  0  0  0  0  0  0  0  0  0  0
   45.4020   86.1910   56.0440 O   0  0  0  0  0  0  0  0  0  0  0  0
   41.2640   84.0980   64.1880 C   0  0  0  0  0  0  0  0  0  0  0  0
   42.4400   84.1070   64.8850 F   0  0  0  0  0  0  0  0  0  0  0  0
   40.6800   85.3590   64.2850 F   0  0  0  0  0  0  0  0  0  0  0  0
   40.4370   83.1260   64.7420 F   0  0  0  0  0  0  0  0  0  0  0  0
   42.1430   82.8530   58.7780 N   0  0  0  0  0  0  0  0  0  0  0  0
   42.0667   80.5005   59.8486 H   0  0  0  0  0  0  0  0  0  0  0  0
   41.8588   77.5858   61.7566 H   0  0  0  0  0  0  0  0  0  0  0  0
   40.1889   77.1681   62.1771 H   0  0  0  0  0  0  0  0  0  0  0  0
   41.8534   75.7351   60.4173 H   0  0  0  0  0  0  0  0  0  0  0  0
   40.1066   75.5472   60.4989 H   0  0  0  0  0  0  0  0  0  0  0  0
   40.3471   76.3025   58.2716 H   0  0  0  0  0  0  0  0  0  0  0  0
   41.7714   77.2638   58.6087 H   0  0  0  0  0  0  0  0  0  0  0  0
   39.9759   78.9544   58.5665 H   0  0  0  0  0  0  0  0  0  0  0  0
   38.8022   77.9261   59.3269 H   0  0  0  0  0  0  0  0  0  0  0  0
   41.1420   85.5812   57.9453 H   0  0  0  0  0  0  0  0  0  0  0  0
   42.3118   87.4790   56.9539 H   0  0  0  0  0  0  0  0  0  0  0  0
   43.1407   90.1229   58.9803 H   0  0  0  0  0  0  0  0  0  0  0  0
   44.4321   92.1027   58.2744 H   0  0  0  0  0  0  0  0  0  0  0  0
   46.5636   91.8758   56.9800 H   0  0  0  0  0  0  0  0  0  0  0  0
   47.2932   89.5765   56.4574 H   0  0  0  0  0  0  0  0  0  0  0  0
   47.4278   87.2022   56.2163 H   0  0  0  0  0  0  0  0  0  0  0  0
   42.0445   81.8883   58.4308 H   0  0  0  0  0  0  0  0  0  0  0  0
   42.4058   83.6092   58.1300 H   0  0  0  0  0  0  0  0  0  0  0  0
  1  2  2  0
  3 11  1  0
  3  1  1  0
  4  1  1  0
  4  5  1  0
  6  5  1  0
  7  8  1  0
  7  6  1  0
  8  4  1  0
  9 14  1  0
 10  9  2  0
 10 11  1  0
 11 12  2  0
 12 13  1  0
 13 29  1  0
 14 13  2  0
 15 19  1  0
 15  9  1  0
 16 15  2  0
 17 16  1  0
 17 18  2  0
 18 19  1  0
 20 21  2  0
 21 22  1  0
 21 18  1  0
 23 22  2  0
 24 23  1  0
 25 24  2  0
 25 20  1  0
 26 20  1  0
 26 27  2  0
 28 26  2  0
 29 31  1  0
 29 32  1  0
 29 30  1  0
 33 10  1  0
  3 34  1  0
  5 35  1  0
  5 36  1  0
  6 37  1  0
  6 38  1  0
  7 39  1  0
  7 40  1  0
  8 41  1  0
  8 42  1  0
 16 43  1  0
 17 44  1  0
 22 45  1  0
 23 46  1  0
 24 47  1  0
 25 48  1  0
 26 49  1  0
 33 50  1  0
 33 51  1  0
M  END
>  <Score>  (1) 
-7.10069

>  <Score_dual>  (1) 
-7.95

>  <Choices>  (1) 
[None, 8, ['12-5', 75], 12, ['13-1', 285], 25, ['11-11', 135], 28, ['0-3', 0], 28, ['25-19', 0], 35, ['27-15', 15]]

$$$$
