
     RDKit          3D

 43 48  0  0  0  0  0  0  0  0999 V2000
   40.1900   79.0000   58.7820 C   0  0  0  0  0  0  0  0  0  0  0  0
   40.8900   79.0210   59.9610 C   0  0  0  0  0  0  0  0  0  0  0  0
   40.7550   77.9900   60.8540 C   0  0  0  0  0  0  0  0  0  0  0  0
   39.9050   76.9120   60.5710 C   0  0  0  0  0  0  0  0  0  0  0  0
   39.5940   75.8050   61.2460 N   0  0  0  0  0  0  0  0  0  0  0  0
   38.7120   75.0790   60.5250 C   0  0  0  0  0  0  0  0  0  0  0  0
   38.4790   75.7580   59.3810 N   0  0  0  0  0  0  0  0  0  0  0  0
   39.2010   76.9050   59.3710 C   0  0  0  0  0  0  0  0  0  0  0  0
   39.3300   77.9420   58.4570 C   0  0  0  0  0  0  0  0  0  0  0  0
   37.2810   77.3660   57.3700 C   0  0  0  0  0  0  0  0  0  0  0  0
   38.5700   77.8530   57.2510 C   0  0  0  0  0  0  0  0  0  0  0  0
   39.0770   78.2260   56.0210 C   0  0  0  0  0  0  0  0  0  0  0  0
   38.2380   78.0860   54.9590 C   0  0  0  0  0  0  0  0  0  0  0  0
   38.4140   78.3540   53.6380 N   0  0  0  0  0  0  0  0  0  0  0  0
   37.2960   78.0590   52.9240 C   0  0  0  0  0  0  0  0  0  0  0  0
   36.3870   77.5910   53.8050 N   0  0  0  0  0  0  0  0  0  0  0  0
   36.9320   77.6020   55.0150 C   0  0  0  0  0  0  0  0  0  0  0  0
   36.4670   77.2390   56.2700 C   0  0  0  0  0  0  0  0  0  0  0  0
   43.6500   81.5790   59.7800 C   0  0  0  0  0  0  0  0  0  0  0  0
   42.8990   80.4370   59.4640 C   0  0  0  0  0  0  0  0  0  0  0  0
   41.7580   80.1740   60.1920 C   0  0  0  0  0  0  0  0  0  0  0  0
   41.4030   81.0340   61.1930 N   0  0  0  0  0  0  0  0  0  0  0  0
   42.1660   82.1330   61.4630 C   0  0  0  0  0  0  0  0  0  0  0  0
   43.2690   82.4140   60.7810 N   0  0  0  0  0  0  0  0  0  0  0  0
   41.7180   83.0370   62.5770 C   0  0  0  0  0  0  0  0  0  0  0  0
   40.7380   82.8040   63.4440 C   0  0  0  0  0  0  0  0  0  0  0  0
   40.4390   83.7250   64.4140 C   0  0  0  0  0  0  0  0  0  0  0  0
   41.2230   84.8860   64.4130 C   0  0  0  0  0  0  0  0  0  0  0  0
   42.3910   84.5660   62.9560 S   0  0  0  0  0  0  0  0  0  0  0  0
   40.3063   79.8338   58.0740 H   0  0  0  0  0  0  0  0  0  0  0  0
   41.3175   78.0087   61.7991 H   0  0  0  0  0  0  0  0  0  0  0  0
   39.9669   75.5448   62.1702 H   0  0  0  0  0  0  0  0  0  0  0  0
   38.2671   74.1157   60.8151 H   0  0  0  0  0  0  0  0  0  0  0  0
   36.9013   77.0757   58.3608 H   0  0  0  0  0  0  0  0  0  0  0  0
   40.1000   78.6138   55.9069 H   0  0  0  0  0  0  0  0  0  0  0  0
   39.2817   78.7315   53.2312 H   0  0  0  0  0  0  0  0  0  0  0  0
   37.1586   78.1784   51.8392 H   0  0  0  0  0  0  0  0  0  0  0  0
   35.4450   76.8488   56.3852 H   0  0  0  0  0  0  0  0  0  0  0  0
   44.5625   81.8018   59.2076 H   0  0  0  0  0  0  0  0  0  0  0  0
   43.2140   79.7651   58.6520 H   0  0  0  0  0  0  0  0  0  0  0  0
   40.1641   81.8675   63.3828 H   0  0  0  0  0  0  0  0  0  0  0  0
   39.6347   83.5629   65.1466 H   0  0  0  0  0  0  0  0  0  0  0  0
   41.1734   85.7566   65.0835 H   0  0  0  0  0  0  0  0  0  0  0  0
  1  2  2  0
  2 21  1  0
  2  3  1  0
  4  3  2  0
  4  5  1  0
  6  5  1  0
  7  6  2  0
  8  7  1  0
  8  4  1  0
  9  1  1  0
  9  8  2  0
 11 10  2  0
 11  9  1  0
 12 11  1  0
 13 17  1  0
 13 12  2  0
 14 13  1  0
 15 14  1  0
 15 16  2  0
 16 17  1  0
 17 18  2  0
 18 10  1  0
 19 24  2  0
 20 19  1  0
 20 21  2  0
 21 22  1  0
 22 23  2  0
 23 25  1  0
 24 23  1  0
 25 29  1  0
 25 26  2  0
 26 27  1  0
 28 27  2  0
 29 28  1  0
  1 30  1  0
  3 31  1  0
  5 32  1  0
  6 33  1  0
 10 34  1  0
 12 35  1  0
 14 36  1  0
 15 37  1  0
 18 38  1  0
 19 39  1  0
 20 40  1  0
 26 41  1  0
 27 42  1  0
 28 43  1  0
M  END
>  <Score>  (1) 
-7.50695

>  <Score_dual>  (1) 
-7.62

>  <Choices>  (1) 
[None, 8, ['34-23', 60], 19, ['34-22', 180], 35, ['25-18', 315]]

$$$$
