
     RDKit          3D

 47 50  0  0  1  0  0  0  0  0999 V2000
   40.4500   82.1660   59.8810 C   0  0  0  0  0  0  0  0  0  0  0  0
   40.6290   81.7280   61.0950 C   0  0  0  0  0  0  0  0  0  0  0  0
   40.5300   80.4240   61.4200 C   0  0  0  0  0  0  0  0  0  0  0  0
   40.2200   79.6110   60.3370 C   0  0  0  0  0  0  0  0  0  0  0  0
   40.0880   80.7340   58.9260 S   0  0  0  0  0  0  0  0  0  0  0  0
   40.9650   82.6500   62.2260 C   0  0  0  0  0  0  0  0  0  0  0  0
   40.1200   83.3910   63.0380 C   0  0  0  0  0  0  0  0  0  0  0  0
   40.7000   84.1360   64.0020 C   0  0  0  0  0  0  0  0  0  0  0  0
   42.0560   84.2060   64.2270 C   0  0  0  0  0  0  0  0  0  0  0  0
   42.8710   83.4480   63.3900 C   0  0  0  0  0  0  0  0  0  0  0  0
   42.3130   82.7040   62.4310 N   0  0  0  0  0  0  0  0  0  0  0  0
   45.2370   82.4710   63.3810 C   0  0  0  0  0  0  0  0  0  0  0  0
   44.8490   81.3830   62.9000 O   0  0  0  0  0  0  0  0  0  0  0  0
   44.2780   83.4940   63.5860 N   0  0  0  0  0  0  0  0  0  0  0  0
   39.4220   85.5370   58.8720 C   0  0  0  0  0  0  0  0  0  0  0  0
   40.6090   86.0120   58.2330 C   0  0  0  0  0  0  0  0  0  0  0  0
   41.7100   85.1760   58.1650 C   0  0  0  0  0  0  0  0  0  0  0  0
   41.6360   83.9230   58.7100 N   0  0  0  0  0  0  0  0  0  0  0  0
   40.5050   83.5020   59.3060 C   0  0  0  0  0  0  0  0  0  0  0  0
   39.3990   84.2920   59.3930 N   0  0  0  0  0  0  0  0  0  0  0  0
   42.8340   85.6540   57.5430 O   0  0  0  0  0  0  0  0  0  0  0  0
   44.1510   87.2970   58.5960 C   0  0  2  0  0  0  0  0  0  0  0  0
   44.0830   85.8770   58.1230 C   0  0  1  0  0  0  0  0  0  0  0  0
   44.4460   84.8590   59.1750 C   0  0  0  0  0  0  0  0  0  0  0  0
   43.8500   85.1610   60.3990 O   0  0  0  0  0  0  0  0  0  0  0  0
   44.4990   86.3030   60.8660 C   0  0  0  0  0  0  0  0  0  0  0  0
   43.9180   87.4540   60.0630 C   0  0  1  0  0  0  0  0  0  0  0  0
   43.2700   88.1260   57.8940 O   0  0  0  0  0  0  0  0  0  0  0  0
   44.4100   88.6290   60.5810 O   0  0  0  0  0  0  0  0  0  0  0  0
   40.6796   80.0416   62.4405 H   0  0  0  0  0  0  0  0  0  0  0  0
   40.0841   78.5194   60.3377 H   0  0  0  0  0  0  0  0  0  0  0  0
   39.0285   83.3724   62.9027 H   0  0  0  0  0  0  0  0  0  0  0  0
   40.0425   84.7295   64.6543 H   0  0  0  0  0  0  0  0  0  0  0  0
   42.4758   84.8306   65.0293 H   0  0  0  0  0  0  0  0  0  0  0  0
   46.2948   82.6293   63.6380 H   0  0  0  0  0  0  0  0  0  0  0  0
   44.6513   84.3930   63.9228 H   0  0  0  0  0  0  0  0  0  0  0  0
   38.5332   86.1817   58.9387 H   0  0  0  0  0  0  0  0  0  0  0  0
   40.6468   87.0238   57.8030 H   0  0  0  0  0  0  0  0  0  0  0  0
   45.1860   87.6082   58.3911 H   0  0  0  0  0  0  0  0  0  0  0  0
   44.8616   85.7326   57.3595 H   0  0  0  0  0  0  0  0  0  0  0  0
   44.1053   83.8663   58.8457 H   0  0  0  0  0  0  0  0  0  0  0  0
   45.5379   84.8712   59.3080 H   0  0  0  0  0  0  0  0  0  0  0  0
   44.3035   86.4451   61.9391 H   0  0  0  0  0  0  0  0  0  0  0  0
   45.5902   86.2309   60.7470 H   0  0  0  0  0  0  0  0  0  0  0  0
   42.8221   87.4643   60.1569 H   0  0  0  0  0  0  0  0  0  0  0  0
   42.7210   88.6426   58.5357 H   0  0  0  0  0  0  0  0  0  0  0  0
   44.3923   88.5867   61.5699 H   0  0  0  0  0  0  0  0  0  0  0  0
  1  2  2  0
  2  3  1  0
  2  6  1  0
  4  3  2  0
  5  1  1  0
  5  4  1  0
  6 11  1  0
  6  7  2  0
  7  8  1  0
  8  9  2  0
 10 14  1  0
 10  9  1  0
 11 10  2  0
 12 14  1  0
 13 12  2  0
 15 20  2  0
 16 15  1  0
 17 16  2  0
 17 18  1  0
 18 19  2  0
 19 20  1  0
 19  1  1  0
 21 17  1  0
 22 28  1  0
 22 27  1  0
 23 21  1  0
 23 22  1  0
 23 24  1  0
 24 25  1  0
 25 26  1  0
 27 29  1  0
 27 26  1  0
  3 30  1  0
  4 31  1  0
  7 32  1  0
  8 33  1  0
  9 34  1  0
 12 35  1  0
 14 36  1  0
 15 37  1  0
 16 38  1  0
 22 39  1  1
 23 40  1  6
 24 41  1  0
 24 42  1  0
 26 43  1  0
 26 44  1  0
 27 45  1  6
 28 46  1  0
 29 47  1  0
M  END
>  <Score>  (1) 
-7.61304

>  <Score_dual>  (1) 
-7.28

>  <Choices>  (1) 
[None, 9, ['25-21', 105], 14, ['6-13', 165], 25, ['12-3', 60], 29, ['2-1', 0], 30, ['59-7', 165]]

$$$$
