
     RDKit          3D

 45 49  0  0  1  0  0  0  0  0999 V2000
   40.1610   80.6680   59.0660 C   0  0  0  0  0  0  0  0  0  0  0  0
   40.4640   79.6440   59.9260 C   0  0  0  0  0  0  0  0  0  0  0  0
   40.2820   80.0900   61.1760 N   0  0  0  0  0  0  0  0  0  0  0  0
   39.8790   81.3450   61.1510 C   0  0  0  0  0  0  0  0  0  0  0  0
   39.8110   81.6800   59.8330 N   0  0  0  0  0  0  0  0  0  0  0  0
   39.3880   79.6830   55.6530 C   0  0  0  0  0  0  0  0  0  0  0  0
   40.3590   80.3770   54.9390 C   0  0  0  0  0  0  0  0  0  0  0  0
   41.2970   81.1950   55.5850 C   0  0  0  0  0  0  0  0  0  0  0  0
   41.1830   81.2520   56.9420 N   0  0  0  0  0  0  0  0  0  0  0  0
   40.2450   80.5780   57.6150 C   0  0  0  0  0  0  0  0  0  0  0  0
   39.3630   79.8070   56.9830 N   0  0  0  0  0  0  0  0  0  0  0  0
   39.8680   76.8050   56.0860 Cl  0  0  0  0  0  0  0  0  0  0  0  0
   38.5500   77.4560   55.1130 C   0  0  0  0  0  0  0  0  0  0  0  0
   38.4090   78.8280   54.9690 C   0  0  0  0  0  0  0  0  0  0  0  0
   37.3780   79.2870   54.2090 C   0  0  0  0  0  0  0  0  0  0  0  0
   36.4840   78.4250   53.5870 C   0  0  0  0  0  0  0  0  0  0  0  0
   36.6550   77.0760   53.7520 C   0  0  0  0  0  0  0  0  0  0  0  0
   37.6670   76.5580   54.4990 C   0  0  0  0  0  0  0  0  0  0  0  0
   39.5670   82.2140   62.2210 O   0  0  0  0  0  0  0  0  0  0  0  0
   39.4410   83.5690   61.7900 C   0  0  2  0  0  0  0  0  0  0  0  0
   40.1050   83.8800   60.4890 C   0  0  0  0  0  0  0  0  0  0  0  0
   40.6800   84.4050   61.7370 C   0  0  2  0  0  0  0  0  0  0  0  0
   41.9290   83.9990   62.2850 N   0  0  0  0  0  0  0  0  0  0  0  0
   42.9050   83.4330   61.5140 C   0  0  0  0  0  0  0  0  0  0  0  0
   44.1300   83.0190   61.9810 C   0  0  0  0  0  0  0  0  0  0  0  0
   44.4220   83.1740   63.3200 C   0  0  0  0  0  0  0  0  0  0  0  0
   45.5630   82.7700   63.6620 O   0  0  0  0  0  0  0  0  0  0  0  0
   43.4770   83.7270   64.0940 N   0  0  0  0  0  0  0  0  0  0  0  0
   42.2990   84.1110   63.5710 C   0  0  0  0  0  0  0  0  0  0  0  0
   41.5180   84.6060   64.3920 O   0  0  0  0  0  0  0  0  0  0  0  0
   40.7973   78.6354   59.6403 H   0  0  0  0  0  0  0  0  0  0  0  0
   40.4343   79.5347   62.0300 H   0  0  0  0  0  0  0  0  0  0  0  0
   40.3919   80.2821   53.8436 H   0  0  0  0  0  0  0  0  0  0  0  0
   42.0704   81.7515   55.0353 H   0  0  0  0  0  0  0  0  0  0  0  0
   37.2488   80.3722   54.0835 H   0  0  0  0  0  0  0  0  0  0  0  0
   35.6575   78.8167   52.9758 H   0  0  0  0  0  0  0  0  0  0  0  0
   35.9496   76.3877   53.2635 H   0  0  0  0  0  0  0  0  0  0  0  0
   37.7880   75.4711   54.6170 H   0  0  0  0  0  0  0  0  0  0  0  0
   38.4431   83.7024   62.2332 H   0  0  0  0  0  0  0  0  0  0  0  0
   39.6220   84.5653   59.7769 H   0  0  0  0  0  0  0  0  0  0  0  0
   40.4894   83.2780   59.6525 H   0  0  0  0  0  0  0  0  0  0  0  0
   40.9647   85.4059   62.0936 H   0  0  0  0  0  0  0  0  0  0  0  0
   42.6954   83.2990   60.4425 H   0  0  0  0  0  0  0  0  0  0  0  0
   44.8660   82.5710   61.2972 H   0  0  0  0  0  0  0  0  0  0  0  0
   43.6552   83.8591   65.0998 H   0  0  0  0  0  0  0  0  0  0  0  0
  1  5  1  0
  1  2  2  0
  2  3  1  0
  4  3  1  0
  4 19  1  0
  5  4  2  0
  6 11  2  0
  7  8  2  0
  7  6  1  0
  8  9  1  0
  9 10  2  0
 10  1  1  0
 11 10  1  0
 13 12  1  0
 14 13  2  0
 14  6  1  0
 15 14  1  0
 16 17  1  0
 16 15  2  0
 17 18  2  0
 18 13  1  0
 20 19  1  0
 21 22  1  0
 21 20  1  0
 22 20  1  0
 22 23  1  0
 23 29  1  0
 24 25  2  0
 24 23  1  0
 25 26  1  0
 26 27  2  0
 26 28  1  0
 29 28  1  0
 29 30  2  0
  2 31  1  0
  3 32  1  0
  7 33  1  0
  8 34  1  0
 15 35  1  0
 16 36  1  0
 17 37  1  0
 18 38  1  0
 20 39  1  6
 21 40  1  0
 21 41  1  0
 22 42  1  6
 24 43  1  0
 25 44  1  0
 28 45  1  0
M  END
>  <Score>  (1) 
-7.0312

>  <Score_dual>  (1) 
-7.47

>  <Choices>  (1) 
[None, 6, ['7-19', 90], 15, ['23-9', 105], 26, ['2-1', 60], 27, ['16-19', 210], 34, ['37-13', 270]]

$$$$
