
     RDKit          3D

 46 50  0  0  0  0  0  0  0  0999 V2000
   39.0690   77.4180   57.9960 C   0  0  0  0  0  0  0  0  0  0  0  0
   38.2120   76.9250   58.7310 O   0  0  0  0  0  0  0  0  0  0  0  0
   40.0210   78.2650   58.5620 N   0  0  0  0  0  0  0  0  0  0  0  0
   38.1500   79.5990   56.0610 Cl  0  0  0  0  0  0  0  0  0  0  0  0
   38.7150   78.0050   55.5970 C   0  0  0  0  0  0  0  0  0  0  0  0
   39.0960   77.1260   56.5580 C   0  0  0  0  0  0  0  0  0  0  0  0
   39.5500   75.8470   56.2250 C   0  0  0  0  0  0  0  0  0  0  0  0
   39.6210   75.4500   54.9100 C   0  0  0  0  0  0  0  0  0  0  0  0
   39.2290   76.3550   53.9270 C   0  0  0  0  0  0  0  0  0  0  0  0
   38.7700   77.6440   54.2470 C   0  0  0  0  0  0  0  0  0  0  0  0
   39.3710   79.2680   52.5520 C   0  0  0  0  0  0  0  0  0  0  0  0
   38.3670   78.5700   53.1930 C   0  0  0  0  0  0  0  0  0  0  0  0
   37.0690   78.7980   52.7960 C   0  0  0  0  0  0  0  0  0  0  0  0
   36.7830   79.7000   51.7820 C   0  0  0  0  0  0  0  0  0  0  0  0
   35.6190   80.1020   51.2100 N   0  0  0  0  0  0  0  0  0  0  0  0
   35.8790   81.0240   50.2370 C   0  0  0  0  0  0  0  0  0  0  0  0
   37.2140   81.2040   50.1980 N   0  0  0  0  0  0  0  0  0  0  0  0
   37.7720   80.4070   51.1270 C   0  0  0  0  0  0  0  0  0  0  0  0
   39.0770   80.1770   51.5290 C   0  0  0  0  0  0  0  0  0  0  0  0
   40.3660   80.3020   61.5310 C   0  0  0  0  0  0  0  0  0  0  0  0
   40.1790   79.9510   60.2150 C   0  0  0  0  0  0  0  0  0  0  0  0
   40.2170   78.6050   59.9350 C   0  0  0  0  0  0  0  0  0  0  0  0
   40.4290   77.6940   60.9300 C   0  0  0  0  0  0  0  0  0  0  0  0
   40.6160   78.0720   62.2570 C   0  0  0  0  0  0  0  0  0  0  0  0
   40.5770   79.4180   62.5350 N   0  0  0  0  0  0  0  0  0  0  0  0
   39.8430   83.9800   61.3810 C   0  0  0  0  0  0  0  0  0  0  0  0
   39.8560   82.6400   60.9920 C   0  0  0  0  0  0  0  0  0  0  0  0
   40.3390   81.7010   61.9030 C   0  0  0  0  0  0  0  0  0  0  0  0
   40.7790   82.1280   63.1360 N   0  0  0  0  0  0  0  0  0  0  0  0
   40.7520   83.4280   63.4780 C   0  0  0  0  0  0  0  0  0  0  0  0
   40.2890   84.3530   62.6150 N   0  0  0  0  0  0  0  0  0  0  0  0
   40.6730   78.7065   57.8980 H   0  0  0  0  0  0  0  0  0  0  0  0
   39.8533   75.1516   57.0215 H   0  0  0  0  0  0  0  0  0  0  0  0
   39.9779   74.4446   54.6421 H   0  0  0  0  0  0  0  0  0  0  0  0
   39.2801   76.0525   52.8706 H   0  0  0  0  0  0  0  0  0  0  0  0
   40.4177   79.1074   52.8497 H   0  0  0  0  0  0  0  0  0  0  0  0
   36.2476   78.2577   53.2894 H   0  0  0  0  0  0  0  0  0  0  0  0
   34.6820   79.7629   51.4706 H   0  0  0  0  0  0  0  0  0  0  0  0
   35.1354   81.5274   49.6017 H   0  0  0  0  0  0  0  0  0  0  0  0
   39.8975   80.7185   51.0354 H   0  0  0  0  0  0  0  0  0  0  0  0
   40.0088   80.7035   59.4310 H   0  0  0  0  0  0  0  0  0  0  0  0
   40.4529   76.6244   60.6743 H   0  0  0  0  0  0  0  0  0  0  0  0
   40.7873   77.3269   63.0478 H   0  0  0  0  0  0  0  0  0  0  0  0
   39.4687   84.7446   60.6844 H   0  0  0  0  0  0  0  0  0  0  0  0
   39.4967   82.3340   59.9984 H   0  0  0  0  0  0  0  0  0  0  0  0
   41.1108   83.7387   64.4703 H   0  0  0  0  0  0  0  0  0  0  0  0
  1  3  1  0
  1  2  2  0
  3 22  1  0
  5  4  1  0
  5  6  2  0
  6  1  1  0
  7  6  1  0
  8  7  2  0
  9 10  2  0
  9  8  1  0
 10  5  1  0
 11 12  2  0
 12 10  1  0
 13 12  1  0
 14 13  2  0
 15 14  1  0
 16 15  1  0
 17 16  2  0
 17 18  1  0
 18 19  2  0
 18 14  1  0
 19 11  1  0
 20 28  1  0
 20 25  1  0
 21 20  2  0
 22 21  1  0
 22 23  2  0
 23 24  1  0
 24 25  2  0
 26 31  2  0
 27 26  1  0
 27 28  2  0
 28 29  1  0
 29 30  2  0
 31 30  1  0
  3 32  1  0
  7 33  1  0
  8 34  1  0
  9 35  1  0
 11 36  1  0
 13 37  1  0
 15 38  1  0
 16 39  1  0
 19 40  1  0
 21 41  1  0
 23 42  1  0
 24 43  1  0
 26 44  1  0
 27 45  1  0
 30 46  1  0
M  END
>  <Score>  (1) 
-7.33909

>  <Score_dual>  (1) 
-7.66

>  <Choices>  (1) 
[None, 8, ['6-17', 165], 16, ['12-4', 0], 21, ['7-2', 15], 32, ['34-20', 15]]

$$$$
