
     RDKit          3D

 48 52  0  0  0  0  0  0  0  0999 V2000
   40.1290   79.1320   59.8790 C   0  0  0  0  0  0  0  0  0  0  0  0
   39.5370   78.5020   58.7820 C   0  0  0  0  0  0  0  0  0  0  0  0
   39.3800   77.1900   59.0480 N   0  0  0  0  0  0  0  0  0  0  0  0
   39.8620   76.9680   60.3000 C   0  0  0  0  0  0  0  0  0  0  0  0
   40.2890   78.1390   60.7420 N   0  0  0  0  0  0  0  0  0  0  0  0
   39.8790   75.7030   60.9570 N   0  0  0  0  0  0  0  0  0  0  0  0
   40.7430   82.6670   58.7710 C   0  0  0  0  0  0  0  0  0  0  0  0
   40.4500   81.2940   58.6620 C   0  0  0  0  0  0  0  0  0  0  0  0
   40.4180   80.5400   59.8770 C   0  0  0  0  0  0  0  0  0  0  0  0
   40.6630   81.1740   61.0160 N   0  0  0  0  0  0  0  0  0  0  0  0
   40.9430   82.4990   61.0980 C   0  0  0  0  0  0  0  0  0  0  0  0
   40.9810   83.2440   59.9590 N   0  0  0  0  0  0  0  0  0  0  0  0
   41.2080   83.1760   62.3570 C   0  0  0  0  0  0  0  0  0  0  0  0
   40.1820   83.4140   63.2310 C   0  0  0  0  0  0  0  0  0  0  0  0
   40.3970   84.0620   64.4520 C   0  0  0  0  0  0  0  0  0  0  0  0
   41.6730   84.4550   64.7450 C   0  0  0  0  0  0  0  0  0  0  0  0
   42.7150   84.2450   63.9180 C   0  0  0  0  0  0  0  0  0  0  0  0
   42.4450   83.6020   62.7310 C   0  0  0  0  0  0  0  0  0  0  0  0
   38.8080   76.1660   58.1880 C   0  0  0  0  0  0  0  0  0  0  0  0
   37.4160   76.6100   57.7000 C   0  0  0  0  0  0  0  0  0  0  0  0
   37.4420   76.8790   56.2810 N   0  0  0  0  0  0  0  0  0  0  0  0
   37.5100   76.0040   55.2390 C   0  0  0  0  0  0  0  0  0  0  0  0
   37.5090   76.7140   54.0760 N   0  0  0  0  0  0  0  0  0  0  0  0
   37.4390   78.0140   54.4110 C   0  0  0  0  0  0  0  0  0  0  0  0
   37.4100   79.1150   53.5870 C   0  0  0  0  0  0  0  0  0  0  0  0
   37.3380   80.3090   54.1840 N   0  0  0  0  0  0  0  0  0  0  0  0
   37.2950   80.4590   55.5250 C   0  0  0  0  0  0  0  0  0  0  0  0
   37.3240   79.3720   56.3320 N   0  0  0  0  0  0  0  0  0  0  0  0
   37.3960   78.1360   55.7820 C   0  0  0  0  0  0  0  0  0  0  0  0
   39.2442   78.9996   57.8457 H   0  0  0  0  0  0  0  0  0  0  0  0
   40.2636   75.6223   61.9091 H   0  0  0  0  0  0  0  0  0  0  0  0
   39.5067   74.8697   60.4796 H   0  0  0  0  0  0  0  0  0  0  0  0
   40.7777   83.2819   57.8596 H   0  0  0  0  0  0  0  0  0  0  0  0
   40.2547   80.8230   57.6873 H   0  0  0  0  0  0  0  0  0  0  0  0
   39.1650   83.0883   62.9673 H   0  0  0  0  0  0  0  0  0  0  0  0
   39.5687   84.2486   65.1514 H   0  0  0  0  0  0  0  0  0  0  0  0
   41.8574   84.9668   65.7011 H   0  0  0  0  0  0  0  0  0  0  0  0
   43.7327   84.5715   64.1784 H   0  0  0  0  0  0  0  0  0  0  0  0
   43.2825   83.4211   62.0411 H   0  0  0  0  0  0  0  0  0  0  0  0
   39.4658   76.0089   57.3205 H   0  0  0  0  0  0  0  0  0  0  0  0
   38.7113   75.2286   58.7554 H   0  0  0  0  0  0  0  0  0  0  0  0
   36.6884   75.8107   57.9041 H   0  0  0  0  0  0  0  0  0  0  0  0
   37.1276   77.5285   58.2321 H   0  0  0  0  0  0  0  0  0  0  0  0
   37.5577   74.9082   55.3225 H   0  0  0  0  0  0  0  0  0  0  0  0
   36.5330   79.0171   52.9303 H   0  0  0  0  0  0  0  0  0  0  0  0
   38.3777   79.1107   53.0640 H   0  0  0  0  0  0  0  0  0  0  0  0
   37.2363   81.4663   55.9630 H   0  0  0  0  0  0  0  0  0  0  0  0
   37.2916   79.4840   57.3554 H   0  0  0  0  0  0  0  0  0  0  0  0
  1  5  1  0
  2  3  1  0
  2  1  2  0
  3  4  1  0
  4  5  2  0
  4  6  1  0
  7 12  2  0
  8  7  1  0
  8  9  2  0
  9  1  1  0
  9 10  1  0
 10 11  2  0
 11 13  1  0
 12 11  1  0
 13 18  1  0
 13 14  2  0
 14 15  1  0
 15 16  2  0
 17 16  1  0
 18 17  2  0
 19  3  1  0
 20 19  1  0
 21 20  1  0
 22 21  1  0
 23 24  1  0
 23 22  2  0
 24 29  2  0
 25 26  1  0
 25 24  1  0
 26 27  2  0
 27 28  1  0
 29 21  1  0
 29 28  1  0
  2 30  1  0
  6 31  1  0
  6 32  1  0
  7 33  1  0
  8 34  1  0
 14 35  1  0
 15 36  1  0
 16 37  1  0
 17 38  1  0
 18 39  1  0
 19 40  1  0
 19 41  1  0
 20 42  1  0
 20 43  1  0
 22 44  1  0
 25 45  1  0
 25 46  1  0
 27 47  1  0
 28 48  1  0
M  END
>  <Score>  (1) 
-7.01525

>  <Score_dual>  (1) 
-7.97

>  <Choices>  (1) 
[None, 9, ['1-28', 255], 14, ['23-9', 225], 26, ['0-4', 0], 26, ['4-2', 30], 34, ['45-9', 315]]

$$$$
