
     RDKit          3D

 45 49  0  0  0  0  0  0  0  0999 V2000
   39.9910   82.3410   60.1770 C   0  0  0  0  0  0  0  0  0  0  0  0
   40.1130   82.2590   58.7860 C   0  0  0  0  0  0  0  0  0  0  0  0
   40.2580   80.9190   58.4410 C   0  0  0  0  0  0  0  0  0  0  0  0
   40.2210   80.2500   59.6030 N   0  0  0  0  0  0  0  0  0  0  0  0
   40.0650   81.0780   60.6230 N   0  0  0  0  0  0  0  0  0  0  0  0
   40.4320   80.5350   57.0740 C   0  0  0  0  0  0  0  0  0  0  0  0
   40.9200   81.2200   55.9970 C   0  0  0  0  0  0  0  0  0  0  0  0
   40.9950   80.6830   54.7290 C   0  0  0  0  0  0  0  0  0  0  0  0
   40.5770   79.3990   54.4590 C   0  0  0  0  0  0  0  0  0  0  0  0
   40.0790   78.6670   55.5070 C   0  0  0  0  0  0  0  0  0  0  0  0
   40.0220   79.2370   56.7500 C   0  0  0  0  0  0  0  0  0  0  0  0
   39.5300   77.0040   55.1950 S   0  0  0  0  0  0  0  0  0  0  0  0
   39.7960   76.7080   53.4590 C   0  0  0  0  0  0  0  0  0  0  0  0
   39.4370   75.4720   53.0020 C   0  0  0  0  0  0  0  0  0  0  0  0
   39.6130   75.1710   51.6690 C   0  0  0  0  0  0  0  0  0  0  0  0
   40.1460   76.1180   50.8290 C   0  0  0  0  0  0  0  0  0  0  0  0
   40.4810   77.3400   51.3730 C   0  0  0  0  0  0  0  0  0  0  0  0
   40.3330   77.7110   52.6930 C   0  0  0  0  0  0  0  0  0  0  0  0
   40.7170   78.9950   53.1160 N   0  0  0  0  0  0  0  0  0  0  0  0
   40.3390   78.8180   59.7910 C   0  0  0  0  0  0  0  0  0  0  0  0
   41.5470   78.3490   59.3320 F   0  0  0  0  0  0  0  0  0  0  0  0
   39.3300   78.0910   59.2030 F   0  0  0  0  0  0  0  0  0  0  0  0
   40.2150   78.5110   61.1650 F   0  0  0  0  0  0  0  0  0  0  0  0
   39.8220   83.6060   60.8800 C   0  0  0  0  0  0  0  0  0  0  0  0
   38.9470   84.4040   60.4500 O   0  0  0  0  0  0  0  0  0  0  0  0
   42.7440   83.9190   63.0700 C   0  0  0  0  0  0  0  0  0  0  0  0
   42.1740   84.3890   64.2710 C   0  0  0  0  0  0  0  0  0  0  0  0
   40.8130   84.5840   64.2960 C   0  0  0  0  0  0  0  0  0  0  0  0
   40.1170   84.3070   63.1530 N   0  0  0  0  0  0  0  0  0  0  0  0
   40.6740   83.8650   62.0290 C   0  0  0  0  0  0  0  0  0  0  0  0
   42.0100   83.6670   61.9850 N   0  0  0  0  0  0  0  0  0  0  0  0
   40.0930   85.0500   65.4320 N   0  0  0  0  0  0  0  0  0  0  0  0
   40.0971   83.1073   58.0859 H   0  0  0  0  0  0  0  0  0  0  0  0
   41.2706   82.2515   56.1491 H   0  0  0  0  0  0  0  0  0  0  0  0
   41.3997   81.2970   53.9110 H   0  0  0  0  0  0  0  0  0  0  0  0
   39.6182   78.6202   57.5664 H   0  0  0  0  0  0  0  0  0  0  0  0
   39.0125   74.7259   53.6898 H   0  0  0  0  0  0  0  0  0  0  0  0
   39.3293   74.1815   51.2812 H   0  0  0  0  0  0  0  0  0  0  0  0
   40.3002   75.9090   49.7601 H   0  0  0  0  0  0  0  0  0  0  0  0
   40.9064   78.0897   50.6896 H   0  0  0  0  0  0  0  0  0  0  0  0
   41.1093   79.6552   52.4296 H   0  0  0  0  0  0  0  0  0  0  0  0
   43.8308   83.7546   63.0263 H   0  0  0  0  0  0  0  0  0  0  0  0
   42.7954   84.5923   65.1556 H   0  0  0  0  0  0  0  0  0  0  0  0
   39.0718   85.1733   65.3795 H   0  0  0  0  0  0  0  0  0  0  0  0
   40.5932   85.2639   66.3066 H   0  0  0  0  0  0  0  0  0  0  0  0
  1  5  2  0
  1 24  1  0
  2  1  1  0
  3  2  2  0
  3  4  1  0
  4 20  1  0
  4  5  1  0
  6  3  1  0
  7  6  2  0
  8  7  1  0
  9  8  2  0
  9 10  1  0
 10 11  2  0
 11  6  1  0
 12 10  1  0
 13 12  1  0
 14 13  2  0
 15 14  1  0
 16 17  1  0
 16 15  2  0
 17 18  2  0
 18 19  1  0
 18 13  1  0
 19  9  1  0
 20 23  1  0
 21 20  1  0
 22 20  1  0
 24 30  1  0
 25 24  2  0
 26 27  2  0
 27 28  1  0
 28 32  1  0
 29 28  2  0
 30 29  1  0
 31 30  2  0
 31 26  1  0
  2 33  1  0
  7 34  1  0
  8 35  1  0
 11 36  1  0
 14 37  1  0
 15 38  1  0
 16 39  1  0
 17 40  1  0
 19 41  1  0
 26 42  1  0
 27 43  1  0
 32 44  1  0
 32 45  1  0
M  END
>  <Score>  (1) 
-7.17936

>  <Score_dual>  (1) 
-8.97

>  <Choices>  (1) 
[None, 9, ['5-9', 195], 10, ['0-3', 0], 11, ['22-6', 225], 20, ['11-3', 225], 23, ['60-10', 120]]

$$$$
