
     RDKit          3D

 37 41  0  0  0  0  0  0  0  0999 V2000
   40.3320   77.0830   60.4010 C   0  0  0  0  0  0  0  0  0  0  0  0
   39.1920   76.3870   60.4120 C   0  0  0  0  0  0  0  0  0  0  0  0
   39.1680   75.0140   60.5050 C   0  0  0  0  0  0  0  0  0  0  0  0
   40.5280   74.4580   60.5910 C   0  0  0  0  0  0  0  0  0  0  0  0
   41.6000   75.9710   60.5210 S   0  0  0  0  0  0  0  0  0  0  0  0
   41.6600   72.6300   61.7670 C   0  0  0  0  0  0  0  0  0  0  0  0
   40.9130   73.0860   60.7030 C   0  0  0  0  0  0  0  0  0  0  0  0
   40.4960   72.2570   59.6940 C   0  0  0  0  0  0  0  0  0  0  0  0
   40.8010   70.9150   59.6860 C   0  0  0  0  0  0  0  0  0  0  0  0
   40.5240   69.8970   58.8380 N   0  0  0  0  0  0  0  0  0  0  0  0
   41.0980   68.7710   59.3570 C   0  0  0  0  0  0  0  0  0  0  0  0
   41.7110   69.1220   60.5060 N   0  0  0  0  0  0  0  0  0  0  0  0
   41.5450   70.4360   60.7360 C   0  0  0  0  0  0  0  0  0  0  0  0
   41.9560   71.2840   61.7410 C   0  0  0  0  0  0  0  0  0  0  0  0
   40.8800   80.7090   61.0900 C   0  0  0  0  0  0  0  0  0  0  0  0
   40.8330   79.3940   61.2830 C   0  0  0  0  0  0  0  0  0  0  0  0
   40.4270   78.5530   60.3040 C   0  0  0  0  0  0  0  0  0  0  0  0
   40.0720   79.1600   59.1100 C   0  0  0  0  0  0  0  0  0  0  0  0
   40.3460   80.9510   59.4580 S   0  0  0  0  0  0  0  0  0  0  0  0
   41.2910   81.7690   62.0520 C   0  0  0  0  0  0  0  0  0  0  0  0
   42.6130   82.1990   62.0730 C   0  0  0  0  0  0  0  0  0  0  0  0
   42.8980   83.1990   63.0190 C   0  0  0  0  0  0  0  0  0  0  0  0
   41.9010   83.6640   63.8230 N   0  0  0  0  0  0  0  0  0  0  0  0
   40.6180   83.2010   63.7570 C   0  0  0  0  0  0  0  0  0  0  0  0
   40.3470   82.2550   62.8600 N   0  0  0  0  0  0  0  0  0  0  0  0
   38.2381   76.9306   60.3443 H   0  0  0  0  0  0  0  0  0  0  0  0
   38.2492   74.4092   60.5139 H   0  0  0  0  0  0  0  0  0  0  0  0
   41.9959   73.2922   62.5786 H   0  0  0  0  0  0  0  0  0  0  0  0
   39.9016   72.6757   58.8685 H   0  0  0  0  0  0  0  0  0  0  0  0
   39.9817   69.9595   57.9645 H   0  0  0  0  0  0  0  0  0  0  0  0
   41.0660   67.7628   58.9182 H   0  0  0  0  0  0  0  0  0  0  0  0
   42.5514   70.8651   62.5656 H   0  0  0  0  0  0  0  0  0  0  0  0
   41.1303   78.9817   62.2585 H   0  0  0  0  0  0  0  0  0  0  0  0
   39.7145   78.6894   58.1822 H   0  0  0  0  0  0  0  0  0  0  0  0
   43.3790   81.7873   61.3994 H   0  0  0  0  0  0  0  0  0  0  0  0
   43.9172   83.6027   63.1094 H   0  0  0  0  0  0  0  0  0  0  0  0
   39.8356   83.5958   64.4218 H   0  0  0  0  0  0  0  0  0  0  0  0
  1  2  2  0
  1  5  1  0
  2  3  1  0
  3  4  2  0
  4  7  1  0
  5  4  1  0
  7  6  2  0
  8  7  1  0
  9  8  2  0
  9 13  1  0
 10 11  1  0
 10  9  1  0
 11 12  2  0
 12 13  1  0
 13 14  2  0
 14  6  1  0
 15 16  2  0
 15 20  1  0
 17  1  1  0
 17 16  1  0
 18 19  1  0
 18 17  2  0
 19 15  1  0
 20 21  2  0
 20 25  1  0
 21 22  1  0
 22 23  2  0
 24 23  1  0
 25 24  2  0
  2 26  1  0
  3 27  1  0
  6 28  1  0
  8 29  1  0
 10 30  1  0
 11 31  1  0
 14 32  1  0
 16 33  1  0
 18 34  1  0
 21 35  1  0
 22 36  1  0
 24 37  1  0
M  END
>  <Score>  (1) 
-7.19915

>  <Score_dual>  (1) 
-7.79

>  <Choices>  (1) 
[None, 6, ['25-21', 60], 15, ['25-19', 105], 23, ['34-19', 255]]

$$$$
