
     RDKit          3D

 41 44  0  0  0  0  0  0  0  0999 V2000
   40.4140   80.3540   54.8160 Cl  0  0  0  0  0  0  0  0  0  0  0  0
   40.6180   81.2000   56.3820 C   0  0  0  0  0  0  0  0  0  0  0  0
   39.8550   80.7750   57.4670 C   0  0  0  0  0  0  0  0  0  0  0  0
   39.9930   81.4070   58.6760 C   0  0  0  0  0  0  0  0  0  0  0  0
   40.8930   82.4490   58.7640 C   0  0  0  0  0  0  0  0  0  0  0  0
   41.6490   82.8770   57.7030 C   0  0  0  0  0  0  0  0  0  0  0  0
   41.4990   82.2370   56.5080 C   0  0  0  0  0  0  0  0  0  0  0  0
   41.0040   83.0940   60.0810 C   0  0  0  0  0  0  0  0  0  0  0  0
   42.1180   83.8260   60.5380 C   0  0  0  0  0  0  0  0  0  0  0  0
   41.7770   84.2240   61.7830 N   0  0  0  0  0  0  0  0  0  0  0  0
   40.5430   83.7790   62.0890 C   0  0  0  0  0  0  0  0  0  0  0  0
   40.0750   83.0840   61.0370 N   0  0  0  0  0  0  0  0  0  0  0  0
   40.4350   84.1150   64.5570 C   0  0  0  0  0  0  0  0  0  0  0  0
   41.7150   84.0700   64.6290 O   0  0  0  0  0  0  0  0  0  0  0  0
   39.8040   83.9730   63.3000 N   0  0  0  0  0  0  0  0  0  0  0  0
   36.9970   78.8220   56.3090 C   0  0  0  0  0  0  0  0  0  0  0  0
   37.1990   77.5570   56.9050 C   0  0  0  0  0  0  0  0  0  0  0  0
   38.3180   77.4090   57.6940 C   0  0  0  0  0  0  0  0  0  0  0  0
   39.1390   78.4660   57.8440 N   0  0  0  0  0  0  0  0  0  0  0  0
   38.9250   79.6560   57.2680 C   0  0  0  0  0  0  0  0  0  0  0  0
   37.8390   79.8540   56.4840 N   0  0  0  0  0  0  0  0  0  0  0  0
   39.5570   75.2520   55.9570 Cl  0  0  0  0  0  0  0  0  0  0  0  0
   39.2030   75.1140   57.6560 C   0  0  0  0  0  0  0  0  0  0  0  0
   38.6380   76.1540   58.3630 C   0  0  0  0  0  0  0  0  0  0  0  0
   38.4150   75.9020   59.6990 C   0  0  0  0  0  0  0  0  0  0  0  0
   38.7020   74.7410   60.3490 C   0  0  0  0  0  0  0  0  0  0  0  0
   39.2700   73.7120   59.6200 C   0  0  0  0  0  0  0  0  0  0  0  0
   39.5170   73.9070   58.2750 C   0  0  0  0  0  0  0  0  0  0  0  0
   40.2350   72.6010   57.3610 Cl  0  0  0  0  0  0  0  0  0  0  0  0
   39.4036   81.0925   59.5499 H   0  0  0  0  0  0  0  0  0  0  0  0
   42.3561   83.7125   57.8126 H   0  0  0  0  0  0  0  0  0  0  0  0
   42.0918   82.5581   55.6388 H   0  0  0  0  0  0  0  0  0  0  0  0
   43.0563   84.0283   60.0006 H   0  0  0  0  0  0  0  0  0  0  0  0
   42.3735   84.7857   62.4072 H   0  0  0  0  0  0  0  0  0  0  0  0
   39.8333   84.2629   65.4659 H   0  0  0  0  0  0  0  0  0  0  0  0
   38.7757   84.0104   63.2536 H   0  0  0  0  0  0  0  0  0  0  0  0
   36.1111   78.9683   55.6736 H   0  0  0  0  0  0  0  0  0  0  0  0
   36.4941   76.7276   56.7460 H   0  0  0  0  0  0  0  0  0  0  0  0
   37.9650   76.7110   60.2932 H   0  0  0  0  0  0  0  0  0  0  0  0
   38.4886   74.6247   61.4218 H   0  0  0  0  0  0  0  0  0  0  0  0
   39.5205   72.7557   60.1025 H   0  0  0  0  0  0  0  0  0  0  0  0
  1  2  1  0
  2  7  2  0
  2  3  1  0
  3  4  2  0
  4  5  1  0
  5  8  1  0
  6  5  2  0
  7  6  1  0
  8  9  2  0
  8 12  1  0
  9 10  1  0
 10 11  1  0
 11 15  1  0
 12 11  2  0
 13 14  2  0
 15 13  1  0
 16 21  2  0
 16 17  1  0
 17 18  2  0
 18 19  1  0
 18 24  1  0
 20  3  1  0
 20 19  2  0
 21 20  1  0
 22 23  1  0
 23 28  2  0
 23 24  1  0
 24 25  2  0
 25 26  1  0
 27 26  2  0
 28 27  1  0
 29 28  1  0
  4 30  1  0
  6 31  1  0
  7 32  1  0
  9 33  1  0
 10 34  1  0
 13 35  1  0
 15 36  1  0
 16 37  1  0
 17 38  1  0
 25 39  1  0
 26 40  1  0
 27 41  1  0
M  END
>  <Score>  (1) 
-7.86249

>  <Score_dual>  (1) 
-7.33

>  <Choices>  (1) 
[None, 9, ['7-18', 60], 17, ['23-8', 315], 26, ['12-5', 150], 30, ['51-23', 315]]

$$$$
