
     RDKit          3D

 47 51  0  0  1  0  0  0  0  0999 V2000
   41.1940   80.1070   59.5130 C   0  0  2  0  0  0  0  0  0  0  0  0
   42.6010   79.5110   59.3510 C   0  0  0  0  0  0  0  0  0  0  0  0
   43.0270   80.0580   58.0080 C   0  0  0  0  0  0  0  0  0  0  0  0
   41.9200   80.4300   57.3200 O   0  0  0  0  0  0  0  0  0  0  0  0
   40.8470   80.6100   58.1890 C   0  0  1  0  0  0  0  0  0  0  0  0
   43.3190   86.2340   59.7820 C   0  0  0  0  0  0  0  0  0  0  0  0
   44.5370   86.5380   60.3840 C   0  0  0  0  0  0  0  0  0  0  0  0
   44.9980   85.6750   61.3820 C   0  0  0  0  0  0  0  0  0  0  0  0
   44.2490   84.5730   61.7280 N   0  0  0  0  0  0  0  0  0  0  0  0
   43.0970   84.3200   61.1300 C   0  0  0  0  0  0  0  0  0  0  0  0
   42.6240   85.1560   60.1470 N   0  0  0  0  0  0  0  0  0  0  0  0
   42.2480   83.2120   61.4140 N   0  0  0  0  0  0  0  0  0  0  0  0
   42.1140   82.2400   60.4840 C   0  0  0  0  0  0  0  0  0  0  0  0
   41.3230   81.1050   60.5930 C   0  0  0  0  0  0  0  0  0  0  0  0
   40.6240   80.9940   61.7780 C   0  0  0  0  0  0  0  0  0  0  0  0
   39.8920   79.9690   61.9120 O   0  0  0  0  0  0  0  0  0  0  0  0
   40.7460   81.9680   62.7350 N   0  0  0  0  0  0  0  0  0  0  0  0
   41.5290   83.0490   62.5740 C   0  0  0  0  0  0  0  0  0  0  0  0
   41.6620   83.9450   63.4140 O   0  0  0  0  0  0  0  0  0  0  0  0
   39.6880   79.9980   57.5240 C   0  0  0  0  0  0  0  0  0  0  0  0
   39.0410   80.6440   56.4910 C   0  0  0  0  0  0  0  0  0  0  0  0
   37.9550   80.1730   55.8070 C   0  0  0  0  0  0  0  0  0  0  0  0
   37.4420   78.9340   56.1730 C   0  0  0  0  0  0  0  0  0  0  0  0
   38.0410   78.2260   57.2030 C   0  0  0  0  0  0  0  0  0  0  0  0
   37.5390   76.9830   57.5780 C   0  0  0  0  0  0  0  0  0  0  0  0
   38.1120   76.2500   58.5980 C   0  0  0  0  0  0  0  0  0  0  0  0
   39.2020   76.8200   59.2160 C   0  0  0  0  0  0  0  0  0  0  0  0
   39.7170   78.0500   58.8620 C   0  0  0  0  0  0  0  0  0  0  0  0
   39.1350   78.7730   57.8410 C   0  0  0  0  0  0  0  0  0  0  0  0
   40.3787   79.4323   59.8132 H   0  0  0  0  0  0  0  0  0  0  0  0
   43.2733   79.8522   60.1520 H   0  0  0  0  0  0  0  0  0  0  0  0
   42.6245   78.4127   59.4079 H   0  0  0  0  0  0  0  0  0  0  0  0
   43.6824   80.9293   58.1541 H   0  0  0  0  0  0  0  0  0  0  0  0
   43.5764   79.2880   57.4466 H   0  0  0  0  0  0  0  0  0  0  0  0
   40.5876   81.6603   58.3878 H   0  0  0  0  0  0  0  0  0  0  0  0
   42.9243   86.8924   58.9941 H   0  0  0  0  0  0  0  0  0  0  0  0
   45.1152   87.4248   60.0852 H   0  0  0  0  0  0  0  0  0  0  0  0
   45.9539   85.8752   61.8881 H   0  0  0  0  0  0  0  0  0  0  0  0
   42.6864   82.3602   59.5524 H   0  0  0  0  0  0  0  0  0  0  0  0
   40.2165   81.8676   63.6127 H   0  0  0  0  0  0  0  0  0  0  0  0
   39.4342   81.6264   56.1906 H   0  0  0  0  0  0  0  0  0  0  0  0
   37.5012   80.7564   54.9923 H   0  0  0  0  0  0  0  0  0  0  0  0
   36.5680   78.5190   55.6496 H   0  0  0  0  0  0  0  0  0  0  0  0
   36.6650   76.5751   57.0491 H   0  0  0  0  0  0  0  0  0  0  0  0
   37.7202   75.2673   58.8994 H   0  0  0  0  0  0  0  0  0  0  0  0
   39.6871   76.2667   60.0336 H   0  0  0  0  0  0  0  0  0  0  0  0
   40.5912   78.4541   59.3935 H   0  0  0  0  0  0  0  0  0  0  0  0
  1 14  1  0
  2  1  1  0
  3  2  1  0
  4  3  1  0
  4  5  1  0
  5  1  1  0
  6 11  2  0
  6  7  1  0
  7  8  2  0
  8  9  1  0
 10 12  1  0
 10  9  2  0
 11 10  1  0
 12 18  1  0
 13 14  2  0
 13 12  1  0
 14 15  1  0
 15 16  2  0
 15 17  1  0
 18 17  1  0
 18 19  2  0
 20 29  1  0
 20  5  1  0
 21 20  2  0
 22 23  2  0
 22 21  1  0
 23 24  1  0
 24 25  1  0
 24 29  2  0
 25 26  2  0
 26 27  1  0
 28 27  2  0
 29 28  1  0
  1 30  1  1
  2 31  1  0
  2 32  1  0
  3 33  1  0
  3 34  1  0
  5 35  1  1
  6 36  1  0
  7 37  1  0
  8 38  1  0
 13 39  1  0
 17 40  1  0
 21 41  1  0
 22 42  1  0
 23 43  1  0
 25 44  1  0
 26 45  1  0
 27 46  1  0
 28 47  1  0
M  END
>  <Score>  (1) 
-7.5604

>  <Score_dual>  (1) 
-7.29

>  <Choices>  (1) 
[None, 9, ['37-15', 30], 18, ['50-26', 285], 30, ['26-23', 210]]

$$$$
