
     RDKit          3D

 43 46  0  0  0  0  0  0  0  0999 V2000
   40.2820   81.5210   57.9950 F   0  0  0  0  0  0  0  0  0  0  0  0
   41.0480   82.4600   57.3860 C   0  0  0  0  0  0  0  0  0  0  0  0
   41.3960   83.5730   58.1160 C   0  0  0  0  0  0  0  0  0  0  0  0
   42.1690   84.5050   57.4840 C   0  0  0  0  0  0  0  0  0  0  0  0
   42.5600   84.3070   56.1820 C   0  0  0  0  0  0  0  0  0  0  0  0
   42.1970   83.1830   55.4780 C   0  0  0  0  0  0  0  0  0  0  0  0
   41.4170   82.2170   56.0790 C   0  0  0  0  0  0  0  0  0  0  0  0
   39.7580   84.3870   59.8120 C   0  0  0  0  0  0  0  0  0  0  0  0
   40.9540   83.7380   59.4980 C   0  0  0  0  0  0  0  0  0  0  0  0
   41.7720   83.2190   60.5460 C   0  0  0  0  0  0  0  0  0  0  0  0
   41.3110   83.4020   61.8100 N   0  0  0  0  0  0  0  0  0  0  0  0
   40.1520   84.0320   62.0900 C   0  0  0  0  0  0  0  0  0  0  0  0
   39.3930   84.5140   61.1000 N   0  0  0  0  0  0  0  0  0  0  0  0
   40.9240   84.5850   64.2650 C   0  0  0  0  0  0  0  0  0  0  0  0
   42.0940   84.8330   63.8770 O   0  0  0  0  0  0  0  0  0  0  0  0
   39.7830   84.1560   63.4780 N   0  0  0  0  0  0  0  0  0  0  0  0
   41.0260   81.0360   55.3600 C   0  0  0  0  0  0  0  0  0  0  0  0
   40.7570   81.1350   54.1260 O   0  0  0  0  0  0  0  0  0  0  0  0
   41.7650   77.6310   56.7480 N   0  0  0  0  0  0  0  0  0  0  0  0
   41.9510   78.8490   56.2080 C   0  0  0  0  0  0  0  0  0  0  0  0
   40.9110   79.7000   55.9440 C   0  0  0  0  0  0  0  0  0  0  0  0
   39.6340   79.2310   56.2710 C   0  0  0  0  0  0  0  0  0  0  0  0
   38.6580   79.9620   56.0530 O   0  0  0  0  0  0  0  0  0  0  0  0
   39.5040   78.0080   56.8070 N   0  0  0  0  0  0  0  0  0  0  0  0
   40.5410   77.1830   57.0600 C   0  0  0  0  0  0  0  0  0  0  0  0
   40.4300   76.0370   57.5620 O   0  0  0  0  0  0  0  0  0  0  0  0
   38.1940   77.5510   57.1310 C   0  0  0  0  0  0  0  0  0  0  0  0
   37.0840   77.9630   56.3950 C   0  0  0  0  0  0  0  0  0  0  0  0
   35.9510   77.3740   56.9200 C   0  0  0  0  0  0  0  0  0  0  0  0
   36.3880   76.6260   57.9520 N   0  0  0  0  0  0  0  0  0  0  0  0
   37.7000   76.7290   58.0770 N   0  0  0  0  0  0  0  0  0  0  0  0
   42.4789   85.4153   58.0182 H   0  0  0  0  0  0  0  0  0  0  0  0
   43.1810   85.0692   55.6887 H   0  0  0  0  0  0  0  0  0  0  0  0
   42.5282   83.0543   54.4370 H   0  0  0  0  0  0  0  0  0  0  0  0
   39.1198   84.7910   59.0123 H   0  0  0  0  0  0  0  0  0  0  0  0
   42.7206   82.7009   60.3417 H   0  0  0  0  0  0  0  0  0  0  0  0
   40.7415   84.7096   65.3426 H   0  0  0  0  0  0  0  0  0  0  0  0
   38.8440   83.9671   63.8568 H   0  0  0  0  0  0  0  0  0  0  0  0
   42.5817   77.0291   56.9257 H   0  0  0  0  0  0  0  0  0  0  0  0
   42.9749   79.1729   55.9700 H   0  0  0  0  0  0  0  0  0  0  0  0
   37.1071   78.6475   55.5342 H   0  0  0  0  0  0  0  0  0  0  0  0
   34.9144   77.4904   56.5708 H   0  0  0  0  0  0  0  0  0  0  0  0
   35.7839   76.0537   58.5590 H   0  0  0  0  0  0  0  0  0  0  0  0
  2  1  1  0
  2  3  2  0
  3  9  1  0
  4  3  1  0
  5  4  2  0
  6  7  2  0
  6  5  1  0
  7  2  1  0
  8 13  2  0
  9  8  1  0
  9 10  2  0
 10 11  1  0
 11 12  2  0
 12 16  1  0
 13 12  1  0
 15 14  2  0
 16 14  1  0
 17 21  1  0
 17  7  1  0
 18 17  2  0
 19 25  1  0
 20 19  1  0
 21 20  2  0
 21 22  1  0
 22 24  1  0
 23 22  2  0
 24 25  1  0
 24 27  1  0
 25 26  2  0
 27 31  2  0
 28 29  2  0
 28 27  1  0
 29 30  1  0
 30 31  1  0
  4 32  1  0
  5 33  1  0
  6 34  1  0
  8 35  1  0
 10 36  1  0
 14 37  1  0
 16 38  1  0
 19 39  1  0
 20 40  1  0
 28 41  1  0
 29 42  1  0
 30 43  1  0
M  END
>  <Score>  (1) 
-7.79924

>  <Score_dual>  (1) 
-7.9

>  <Choices>  (1) 
[None, 7, ['9-20', 150], 15, ['12-5', 135], 23, ['5-8', 300], 25, ['37-17', 165], 35, ['22-9', 165]]

$$$$
