
     RDKit          3D

 51 55  0  0  1  0  0  0  0  0999 V2000
   41.6910   80.8210   61.8230 C   0  0  0  0  0  0  0  0  0  0  0  0
   40.7840   80.0080   61.2890 C   0  0  0  0  0  0  0  0  0  0  0  0
   41.1150   78.7740   60.8260 C   0  0  0  0  0  0  0  0  0  0  0  0
   42.3860   78.3990   60.9260 C   0  0  0  0  0  0  0  0  0  0  0  0
   43.2140   79.8280   61.7080 S   0  0  0  0  0  0  0  0  0  0  0  0
   39.8950   79.2140   58.3310 F   0  0  0  0  0  0  0  0  0  0  0  0
   39.5860   78.0770   59.0020 C   0  0  0  0  0  0  0  0  0  0  0  0
   40.1450   77.8080   60.2160 C   0  0  0  0  0  0  0  0  0  0  0  0
   39.8020   76.6630   60.8560 C   0  0  0  0  0  0  0  0  0  0  0  0
   38.9000   75.7840   60.2840 C   0  0  0  0  0  0  0  0  0  0  0  0
   38.3340   76.0590   59.0500 C   0  0  0  0  0  0  0  0  0  0  0  0
   38.6890   77.2300   58.4040 C   0  0  0  0  0  0  0  0  0  0  0  0
   38.0520   77.4010   57.0760 C   0  0  0  0  0  0  0  0  0  0  0  0
   36.5510   77.4350   57.0250 C   0  0  0  0  0  0  0  0  0  0  0  0
   37.3560   76.3490   56.3600 C   0  0  0  0  0  0  0  0  0  0  0  0
   40.8610   83.7830   63.9140 C   0  0  0  0  0  0  0  0  0  0  0  0
   40.8140   82.4500   63.4380 C   0  0  0  0  0  0  0  0  0  0  0  0
   41.6610   82.1240   62.3760 C   0  0  0  0  0  0  0  0  0  0  0  0
   42.4970   83.0740   61.8330 N   0  0  0  0  0  0  0  0  0  0  0  0
   42.4900   84.3280   62.3360 C   0  0  0  0  0  0  0  0  0  0  0  0
   41.7050   84.6800   63.3400 N   0  0  0  0  0  0  0  0  0  0  0  0
   43.0140   85.4570   60.2370 C   0  0  1  0  0  0  0  0  0  0  0  0
   43.4290   85.2940   61.6860 C   0  0  2  0  0  0  0  0  0  0  0  0
   44.7390   84.8220   61.7180 O   0  0  0  0  0  0  0  0  0  0  0  0
   45.5170   85.5230   60.8130 C   0  0  0  0  0  0  0  0  0  0  0  0
   45.2530   84.9960   59.4020 C   0  0  1  0  0  0  0  0  0  0  0  0
   43.8270   84.4430   59.4340 C   0  0  1  0  0  0  0  0  0  0  0  0
   41.6580   85.2830   60.0260 O   0  0  0  0  0  0  0  0  0  0  0  0
   45.2540   86.0710   58.5230 O   0  0  0  0  0  0  0  0  0  0  0  0
   43.8960   83.2940   60.2320 O   0  0  0  0  0  0  0  0  0  0  0  0
   39.7386   80.3432   61.2203 H   0  0  0  0  0  0  0  0  0  0  0  0
   42.8365   77.4464   60.6103 H   0  0  0  0  0  0  0  0  0  0  0  0
   40.2438   76.4316   61.8364 H   0  0  0  0  0  0  0  0  0  0  0  0
   38.6298   74.8586   60.8137 H   0  0  0  0  0  0  0  0  0  0  0  0
   37.6171   75.3609   58.5931 H   0  0  0  0  0  0  0  0  0  0  0  0
   38.8882   78.0528   56.7828 H   0  0  0  0  0  0  0  0  0  0  0  0
   35.9586   77.2162   57.9256 H   0  0  0  0  0  0  0  0  0  0  0  0
   35.7861   78.1595   56.7088 H   0  0  0  0  0  0  0  0  0  0  0  0
   37.3394   75.3277   56.7683 H   0  0  0  0  0  0  0  0  0  0  0  0
   37.4104   75.9442   55.3386 H   0  0  0  0  0  0  0  0  0  0  0  0
   40.2143   84.0922   64.7484 H   0  0  0  0  0  0  0  0  0  0  0  0
   40.1402   81.7041   63.8849 H   0  0  0  0  0  0  0  0  0  0  0  0
   43.2148   86.4902   59.9172 H   0  0  0  0  0  0  0  0  0  0  0  0
   43.3865   86.2498   62.2289 H   0  0  0  0  0  0  0  0  0  0  0  0
   45.2612   86.5918   60.8595 H   0  0  0  0  0  0  0  0  0  0  0  0
   46.5802   85.3905   61.0620 H   0  0  0  0  0  0  0  0  0  0  0  0
   46.0008   84.2496   59.0958 H   0  0  0  0  0  0  0  0  0  0  0  0
   43.4091   84.2524   58.4345 H   0  0  0  0  0  0  0  0  0  0  0  0
   41.1933   85.2234   60.8981 H   0  0  0  0  0  0  0  0  0  0  0  0
   45.2548   86.9173   59.0367 H   0  0  0  0  0  0  0  0  0  0  0  0
   43.8804   83.5541   61.1871 H   0  0  0  0  0  0  0  0  0  0  0  0
  1 18  1  0
  2  1  2  0
  3  4  2  0
  3  2  1  0
  4  5  1  0
  5  1  1  0
  6  7  1  0
  7  8  2  0
  8  3  1  0
  8  9  1  0
 10  9  2  0
 11 10  1  0
 12  7  1  0
 12 11  2  0
 13 12  1  0
 14 13  1  0
 15 14  1  0
 15 13  1  0
 17 16  2  0
 18 17  1  0
 19 20  1  0
 19 18  2  0
 20 21  2  0
 21 16  1  0
 22 28  1  0
 22 23  1  0
 23 24  1  0
 23 20  1  0
 25 24  1  0
 26 29  1  0
 26 27  1  0
 26 25  1  0
 27 30  1  0
 27 22  1  0
  2 31  1  0
  4 32  1  0
  9 33  1  0
 10 34  1  0
 11 35  1  0
 13 36  1  0
 14 37  1  0
 14 38  1  0
 15 39  1  0
 15 40  1  0
 16 41  1  0
 17 42  1  0
 22 43  1  6
 23 44  1  1
 25 45  1  0
 25 46  1  0
 26 47  1  6
 27 48  1  6
 28 49  1  0
 29 50  1  0
 30 51  1  0
M  END
>  <Score>  (1) 
-7.29181

>  <Score_dual>  (1) 
-7.76

>  <Choices>  (1) 
[None, 8, ['25-21', 150], 15, ['9-16', 0], 26, ['16-24', 105], 33, ['21-22', 255]]

$$$$
