
     RDKit          3D

 46 50  0  0  0  0  0  0  0  0999 V2000
   43.7660   83.0410   62.6580 F   0  0  0  0  0  0  0  0  0  0  0  0
   44.5100   81.8930   62.6860 C   0  0  0  0  0  0  0  0  0  0  0  0
   43.9050   80.6870   62.2740 C   0  0  0  0  0  0  0  0  0  0  0  0
   44.7370   79.6150   62.3430 C   0  0  0  0  0  0  0  0  0  0  0  0
   46.0300   79.6660   62.7620 C   0  0  0  0  0  0  0  0  0  0  0  0
   46.5810   80.8640   63.1540 C   0  0  0  0  0  0  0  0  0  0  0  0
   45.8070   81.9930   63.1140 C   0  0  0  0  0  0  0  0  0  0  0  0
   48.3160   79.9560   64.5610 C   0  0  0  0  0  0  0  0  0  0  0  0
   47.9740   80.8830   63.5990 C   0  0  0  0  0  0  0  0  0  0  0  0
   48.9360   81.7580   63.1160 C   0  0  0  0  0  0  0  0  0  0  0  0
   50.2230   81.6710   63.6220 C   0  0  0  0  0  0  0  0  0  0  0  0
   51.3190   82.4010   63.3170 N   0  0  0  0  0  0  0  0  0  0  0  0
   52.3430   81.9490   64.0700 C   0  0  0  0  0  0  0  0  0  0  0  0
   51.8800   80.9360   64.8450 N   0  0  0  0  0  0  0  0  0  0  0  0
   50.5730   80.7340   64.5970 C   0  0  0  0  0  0  0  0  0  0  0  0
   49.5980   79.8750   65.0610 C   0  0  0  0  0  0  0  0  0  0  0  0
   40.7790   81.8880   60.8030 C   0  0  0  0  0  0  0  0  0  0  0  0
   40.0200   80.7730   61.0040 C   0  0  0  0  0  0  0  0  0  0  0  0
   40.4610   79.6040   61.6080 C   0  0  0  0  0  0  0  0  0  0  0  0
   41.7640   79.5510   62.0440 C   0  0  0  0  0  0  0  0  0  0  0  0
   42.5140   80.6840   61.8330 C   0  0  0  0  0  0  0  0  0  0  0  0
   42.0590   81.8120   61.2410 N   0  0  0  0  0  0  0  0  0  0  0  0
   40.6280   83.5100   58.8920 C   0  0  0  0  0  0  0  0  0  0  0  0
   40.2910   83.0940   60.1700 C   0  0  0  0  0  0  0  0  0  0  0  0
   39.4200   83.9020   60.8890 C   0  0  0  0  0  0  0  0  0  0  0  0
   38.9330   85.0470   60.3410 N   0  0  0  0  0  0  0  0  0  0  0  0
   39.2970   85.4030   59.0890 C   0  0  0  0  0  0  0  0  0  0  0  0
   40.1430   84.6370   58.3640 N   0  0  0  0  0  0  0  0  0  0  0  0
   38.8160   86.5930   58.4640 N   0  0  0  0  0  0  0  0  0  0  0  0
   46.3390   83.2510   63.5120 N   0  0  0  0  0  0  0  0  0  0  0  0
   44.3366   78.6368   62.0385 H   0  0  0  0  0  0  0  0  0  0  0  0
   46.6358   78.7482   62.7874 H   0  0  0  0  0  0  0  0  0  0  0  0
   47.5477   79.2650   64.9382 H   0  0  0  0  0  0  0  0  0  0  0  0
   48.6828   82.5042   62.3485 H   0  0  0  0  0  0  0  0  0  0  0  0
   51.3643   83.1675   62.6305 H   0  0  0  0  0  0  0  0  0  0  0  0
   53.3732   82.3343   64.0578 H   0  0  0  0  0  0  0  0  0  0  0  0
   49.8434   79.1266   65.8289 H   0  0  0  0  0  0  0  0  0  0  0  0
   38.9755   80.8026   60.6602 H   0  0  0  0  0  0  0  0  0  0  0  0
   39.7871   78.7439   61.7344 H   0  0  0  0  0  0  0  0  0  0  0  0
   42.1807   78.6573   62.5315 H   0  0  0  0  0  0  0  0  0  0  0  0
   41.3156   82.8936   58.2943 H   0  0  0  0  0  0  0  0  0  0  0  0
   39.1223   83.6139   61.9080 H   0  0  0  0  0  0  0  0  0  0  0  0
   39.1167   86.8302   57.5078 H   0  0  0  0  0  0  0  0  0  0  0  0
   38.1683   87.2144   58.9692 H   0  0  0  0  0  0  0  0  0  0  0  0
   47.3154   83.3190   63.8329 H   0  0  0  0  0  0  0  0  0  0  0  0
   45.7478   84.0938   63.4793 H   0  0  0  0  0  0  0  0  0  0  0  0
  1  2  1  0
  2  7  2  0
  3  4  2  0
  3  2  1  0
  4  5  1  0
  5  6  2  0
  6  9  1  0
  7  6  1  0
  7 30  1  0
  8 16  2  0
  9  8  1  0
 10  9  2  0
 10 11  1  0
 11 15  2  0
 12 11  1  0
 12 13  1  0
 13 14  2  0
 15 14  1  0
 15 16  1  0
 17 18  2  0
 17 22  1  0
 18 19  1  0
 19 20  2  0
 21 20  1  0
 21  3  1  0
 22 21  2  0
 23 24  2  0
 24 17  1  0
 24 25  1  0
 26 25  2  0
 27 26  1  0
 28 23  1  0
 28 27  2  0
 29 27  1  0
  4 31  1  0
  5 32  1  0
  8 33  1  0
 10 34  1  0
 12 35  1  0
 13 36  1  0
 16 37  1  0
 18 38  1  0
 19 39  1  0
 20 40  1  0
 23 41  1  0
 25 42  1  0
 29 43  1  0
 29 44  1  0
 30 45  1  0
 30 46  1  0
M  END
>  <Score>  (1) 
-7.21898

>  <Score_dual>  (1) 
-8.93

>  <Choices>  (1) 
[None, 7, ['6-18', 150], 18, ['9-19', 75], 28, ['0-2', 150], 30, ['0-4', 60], 30, ['34-19', 255]]

$$$$
