
     RDKit          3D

 52 56  0  0  0  0  0  0  0  0999 V2000
   41.7670   79.0960   59.7320 C   0  0  0  0  0  0  0  0  0  0  0  0
   40.8210   78.0190   60.0140 N   0  0  0  0  0  0  0  0  0  0  0  0
   40.7470   77.2280   61.0950 C   0  0  0  0  0  0  0  0  0  0  0  0
   39.6990   76.3720   60.8950 N   0  0  0  0  0  0  0  0  0  0  0  0
   39.1550   76.6550   59.7030 C   0  0  0  0  0  0  0  0  0  0  0  0
   38.0830   76.0940   58.9930 C   0  0  0  0  0  0  0  0  0  0  0  0
   37.7300   76.5960   57.7820 N   0  0  0  0  0  0  0  0  0  0  0  0
   38.4530   77.6290   57.2730 C   0  0  0  0  0  0  0  0  0  0  0  0
   39.4690   78.1190   57.9660 N   0  0  0  0  0  0  0  0  0  0  0  0
   39.8490   77.6810   59.1470 C   0  0  0  0  0  0  0  0  0  0  0  0
   38.0310   79.1430   55.3090 C   0  0  0  0  0  0  0  0  0  0  0  0
   37.8580   77.9570   55.9800 C   0  0  0  0  0  0  0  0  0  0  0  0
   37.0370   77.1280   55.2500 C   0  0  0  0  0  0  0  0  0  0  0  0
   36.4450   77.3550   54.0480 C   0  0  0  0  0  0  0  0  0  0  0  0
   36.6650   78.5550   53.4440 C   0  0  0  0  0  0  0  0  0  0  0  0
   37.4710   79.4590   54.0900 C   0  0  0  0  0  0  0  0  0  0  0  0
   39.4920   81.0790   56.2240 N   0  0  0  0  0  0  0  0  0  0  0  0
   38.8370   80.2020   55.8220 C   0  0  0  0  0  0  0  0  0  0  0  0
   41.3070   80.2990   60.4860 C   0  0  0  0  0  0  0  0  0  0  0  0
   42.2300   82.2350   61.8130 C   0  0  0  0  0  0  0  0  0  0  0  0
   43.2680   82.7230   62.5730 C   0  0  0  0  0  0  0  0  0  0  0  0
   44.3760   81.9570   62.8250 C   0  0  0  0  0  0  0  0  0  0  0  0
   44.5080   80.6720   62.3370 C   0  0  0  0  0  0  0  0  0  0  0  0
   43.4910   80.1730   61.5820 C   0  0  0  0  0  0  0  0  0  0  0  0
   42.3460   80.9430   61.3130 C   0  0  0  0  0  0  0  0  0  0  0  0
   41.0240   83.0250   61.5190 C   0  0  0  0  0  0  0  0  0  0  0  0
   40.9330   83.9350   60.4920 C   0  0  0  0  0  0  0  0  0  0  0  0
   39.7760   84.6480   60.2630 C   0  0  0  0  0  0  0  0  0  0  0  0
   38.7160   84.4100   61.1070 N   0  0  0  0  0  0  0  0  0  0  0  0
   38.8300   83.5210   62.0980 C   0  0  0  0  0  0  0  0  0  0  0  0
   39.9670   82.8150   62.3280 N   0  0  0  0  0  0  0  0  0  0  0  0
   42.0760   84.1250   59.6590 N   0  0  0  0  0  0  0  0  0  0  0  0
   42.7756   78.8073   60.0627 H   0  0  0  0  0  0  0  0  0  0  0  0
   41.8089   79.3051   58.6529 H   0  0  0  0  0  0  0  0  0  0  0  0
   41.4049   77.2615   61.9759 H   0  0  0  0  0  0  0  0  0  0  0  0
   38.3270   75.0328   58.8372 H   0  0  0  0  0  0  0  0  0  0  0  0
   37.2135   76.3277   59.6249 H   0  0  0  0  0  0  0  0  0  0  0  0
   39.9996   78.8983   57.5512 H   0  0  0  0  0  0  0  0  0  0  0  0
   36.8317   76.1463   55.7018 H   0  0  0  0  0  0  0  0  0  0  0  0
   35.8073   76.5922   53.5774 H   0  0  0  0  0  0  0  0  0  0  0  0
   36.2117   78.7924   52.4702 H   0  0  0  0  0  0  0  0  0  0  0  0
   37.6707   80.4394   53.6330 H   0  0  0  0  0  0  0  0  0  0  0  0
   40.9398   81.0390   59.7596 H   0  0  0  0  0  0  0  0  0  0  0  0
   40.5283   79.9512   61.1807 H   0  0  0  0  0  0  0  0  0  0  0  0
   43.2076   83.7416   62.9838 H   0  0  0  0  0  0  0  0  0  0  0  0
   45.1870   82.3797   63.4362 H   0  0  0  0  0  0  0  0  0  0  0  0
   45.4046   80.0718   62.5511 H   0  0  0  0  0  0  0  0  0  0  0  0
   43.5662   79.1531   61.1768 H   0  0  0  0  0  0  0  0  0  0  0  0
   39.7033   85.3756   59.4412 H   0  0  0  0  0  0  0  0  0  0  0  0
   37.9649   83.3537   62.7564 H   0  0  0  0  0  0  0  0  0  0  0  0
   42.0401   84.7993   58.8812 H   0  0  0  0  0  0  0  0  0  0  0  0
   42.9369   83.5878   59.8355 H   0  0  0  0  0  0  0  0  0  0  0  0
  1  2  1  0
  1 19  1  0
  2  3  1  0
  4  3  2  0
  5  4  1  0
  6  5  1  0
  7  6  1  0
  8  7  2  0
  8  9  1  0
  9 10  1  0
 10  5  2  0
 10  2  1  0
 11 18  1  0
 11 12  2  0
 12  8  1  0
 13 12  1  0
 14 13  2  0
 15 14  1  0
 15 16  2  0
 16 11  1  0
 18 17  3  0
 19 25  1  0
 20 21  2  0
 21 22  1  0
 23 22  2  0
 24 23  1  0
 25 24  2  0
 25 20  1  0
 26 20  1  0
 26 31  1  0
 27 26  2  0
 28 27  1  0
 28 29  2  0
 29 30  1  0
 30 31  2  0
 32 27  1  0
  1 33  1  0
  1 34  1  0
  3 35  1  0
  6 36  1  0
  6 37  1  0
  9 38  1  0
 13 39  1  0
 14 40  1  0
 15 41  1  0
 16 42  1  0
 19 43  1  0
 19 44  1  0
 21 45  1  0
 22 46  1  0
 23 47  1  0
 24 48  1  0
 28 49  1  0
 30 50  1  0
 32 51  1  0
 32 52  1  0
M  END
>  <Score>  (1) 
-7.7832

>  <Score_dual>  (1) 
-7.35

>  <Choices>  (1) 
[None, 7, ['0-3', 0], 7, ['1-25', 90], 19, ['4-13', 0], 27, ['45-11', 285], 39, ['40-23', 0]]

$$$$
