
     RDKit          3D

 49 53  0  0  1  0  0  0  0  0999 V2000
   40.4400   82.4720   59.7630 C   0  0  1  0  0  0  0  0  0  0  0  0
   39.8920   82.4390   61.0890 C   0  0  1  0  0  0  0  0  0  0  0  0
   39.8200   81.2340   61.7670 O   0  0  0  0  0  0  0  0  0  0  0  0
   40.2920   80.1050   61.2270 C   0  0  0  0  0  0  0  0  0  0  0  0
   41.3090   80.2710   60.1540 C   0  0  1  0  0  0  0  0  0  0  0  0
   40.7170   81.1320   59.0790 C   0  0  1  0  0  0  0  0  0  0  0  0
   40.7230   83.2680   62.0280 C   0  0  0  0  0  0  0  0  0  0  0  0
   40.2950   83.3060   63.3360 C   0  0  0  0  0  0  0  0  0  0  0  0
   41.0140   84.0720   64.2590 C   0  0  0  0  0  0  0  0  0  0  0  0
   42.1180   84.7480   63.8010 N   0  0  0  0  0  0  0  0  0  0  0  0
   42.5190   84.7010   62.5300 C   0  0  0  0  0  0  0  0  0  0  0  0
   41.8270   83.9670   61.6550 N   0  0  0  0  0  0  0  0  0  0  0  0
   42.6030   80.7030   60.6810 C   0  0  0  0  0  0  0  0  0  0  0  0
   43.2960   80.6460   61.9050 C   0  0  0  0  0  0  0  0  0  0  0  0
   44.5160   81.2520   61.7500 C   0  0  0  0  0  0  0  0  0  0  0  0
   44.5200   81.6590   60.4270 C   0  0  0  0  0  0  0  0  0  0  0  0
   43.3920   81.3240   59.8360 O   0  0  0  0  0  0  0  0  0  0  0  0
   39.6580   83.2080   58.8910 O   0  0  0  0  0  0  0  0  0  0  0  0
   41.5980   78.9790   59.6600 O   0  0  0  0  0  0  0  0  0  0  0  0
   39.5580   80.6080   58.5670 O   0  0  0  0  0  0  0  0  0  0  0  0
   39.4190   80.2720   57.2340 C   0  0  0  0  0  0  0  0  0  0  0  0
   40.0450   80.6660   56.0810 C   0  0  0  0  0  0  0  0  0  0  0  0
   39.6670   80.1300   54.8690 C   0  0  0  0  0  0  0  0  0  0  0  0
   38.6740   79.2040   54.7520 C   0  0  0  0  0  0  0  0  0  0  0  0
   38.4030   78.7640   53.5180 N   0  0  0  0  0  0  0  0  0  0  0  0
   37.4380   77.8470   53.3110 C   0  0  0  0  0  0  0  0  0  0  0  0
   36.7620   77.4050   54.4320 C   0  0  0  0  0  0  0  0  0  0  0  0
   37.0330   77.8520   55.7110 C   0  0  0  0  0  0  0  0  0  0  0  0
   38.0090   78.7750   55.9030 C   0  0  0  0  0  0  0  0  0  0  0  0
   38.3950   79.3190   57.1340 C   0  0  0  0  0  0  0  0  0  0  0  0
   41.4163   82.9396   59.9587 H   0  0  0  0  0  0  0  0  0  0  0  0
   38.8702   82.7815   60.8685 H   0  0  0  0  0  0  0  0  0  0  0  0
   40.7472   79.5109   62.0332 H   0  0  0  0  0  0  0  0  0  0  0  0
   39.4285   79.6230   60.7453 H   0  0  0  0  0  0  0  0  0  0  0  0
   41.4012   81.2193   58.2221 H   0  0  0  0  0  0  0  0  0  0  0  0
   39.4031   82.7437   63.6495 H   0  0  0  0  0  0  0  0  0  0  0  0
   40.7064   84.1309   65.3135 H   0  0  0  0  0  0  0  0  0  0  0  0
   43.4092   85.2602   62.2062 H   0  0  0  0  0  0  0  0  0  0  0  0
   42.9205   80.1903   62.8331 H   0  0  0  0  0  0  0  0  0  0  0  0
   45.3077   81.3841   62.5022 H   0  0  0  0  0  0  0  0  0  0  0  0
   45.3503   82.1888   59.9373 H   0  0  0  0  0  0  0  0  0  0  0  0
   39.0430   83.7868   59.4076 H   0  0  0  0  0  0  0  0  0  0  0  0
   41.7367   78.3589   60.4191 H   0  0  0  0  0  0  0  0  0  0  0  0
   40.8519   81.4125   56.1227 H   0  0  0  0  0  0  0  0  0  0  0  0
   40.1879   80.4631   53.9592 H   0  0  0  0  0  0  0  0  0  0  0  0
   37.2013   77.4708   52.3048 H   0  0  0  0  0  0  0  0  0  0  0  0
   35.9659   76.6576   54.2992 H   0  0  0  0  0  0  0  0  0  0  0  0
   36.4621   77.4627   56.5669 H   0  0  0  0  0  0  0  0  0  0  0  0
   37.8805   78.9895   58.0487 H   0  0  0  0  0  0  0  0  0  0  0  0
  1  2  1  0
  2  3  1  0
  2  7  1  0
  4  3  1  0
  5 19  1  6
  5 13  1  0
  5  4  1  0
  6  1  1  0
  6  5  1  0
  7  8  2  0
  8  9  1  0
 10  9  2  0
 11 10  1  0
 12  7  1  0
 12 11  2  0
 13 14  2  0
 15 14  1  0
 16 15  2  0
 17 16  1  0
 17 13  1  0
 18  1  1  0
 20  6  1  0
 21 20  1  0
 22 21  2  0
 23 22  1  0
 24 23  2  0
 24 29  1  0
 25 24  1  0
 26 25  2  0
 26 27  1  0
 27 28  2  0
 28 29  1  0
 29 30  2  0
 30 21  1  0
  1 31  1  1
  2 32  1  6
  4 33  1  0
  4 34  1  0
  6 35  1  6
  8 36  1  0
  9 37  1  0
 11 38  1  0
 14 39  1  0
 15 40  1  0
 16 41  1  0
 18 42  1  0
 19 43  1  0
 22 44  1  0
 23 45  1  0
 26 46  1  0
 27 47  1  0
 28 48  1  0
 30 49  1  0
M  END
>  <Score>  (1) 
-7.02492

>  <Score_dual>  (1) 
-7.57

>  <Choices>  (1) 
[None, 6, ['21-27', 0], 19, ['43-22', 90], 33, ['36-23', 315]]

$$$$
