
     RDKit          3D

 55 59  0  0  1  0  0  0  0  0999 V2000
   41.2930   80.2660   60.9970 C   0  0  1  0  0  0  0  0  0  0  0  0
   41.0610   81.1350   59.8620 C   0  0  1  0  0  0  0  0  0  0  0  0
   40.2800   80.5410   58.8250 O   0  0  0  0  0  0  0  0  0  0  0  0
   40.3270   79.1920   58.8010 C   0  0  0  0  0  0  0  0  0  0  0  0
   41.7500   78.7070   59.1890 C   0  0  1  0  0  0  0  0  0  0  0  0
   41.7670   78.8880   60.7010 C   0  0  1  0  0  0  0  0  0  0  0  0
   39.3440   84.5030   59.9520 C   0  0  0  0  0  0  0  0  0  0  0  0
   40.0940   83.4450   59.4740 C   0  0  0  0  0  0  0  0  0  0  0  0
   40.2450   82.3340   60.2920 C   0  0  0  0  0  0  0  0  0  0  0  0
   39.6370   82.3420   61.5460 N   0  0  0  0  0  0  0  0  0  0  0  0
   38.9060   83.4100   61.9700 C   0  0  0  0  0  0  0  0  0  0  0  0
   38.7630   84.4760   61.1830 N   0  0  0  0  0  0  0  0  0  0  0  0
   39.2800   85.5440   59.0200 O   0  0  0  0  0  0  0  0  0  0  0  0
   42.2050   80.8800   61.8430 O   0  0  0  0  0  0  0  0  0  0  0  0
   41.7600   77.3490   58.8580 O   0  0  0  0  0  0  0  0  0  0  0  0
   40.4630   76.8570   58.7130 C   0  0  0  0  0  0  0  0  0  0  0  0
   40.5280   75.3730   58.7820 C   0  0  0  0  0  0  0  0  0  0  0  0
   40.2120   74.6990   57.6050 C   0  0  0  0  0  0  0  0  0  0  0  0
   40.2530   73.3130   57.5970 C   0  0  0  0  0  0  0  0  0  0  0  0
   40.5900   72.5400   58.6870 C   0  0  0  0  0  0  0  0  0  0  0  0
   40.8950   73.2410   59.8270 C   0  0  0  0  0  0  0  0  0  0  0  0
   40.8650   74.6060   59.8750 C   0  0  0  0  0  0  0  0  0  0  0  0
   41.3420   72.3250   61.2830 S   0  0  0  0  0  0  0  0  0  0  0  0
   41.2690   70.6010   60.8410 C   0  0  0  0  0  0  0  0  0  0  0  0
   41.5730   69.6830   61.8000 C   0  0  0  0  0  0  0  0  0  0  0  0
   41.5370   68.3320   61.5230 C   0  0  0  0  0  0  0  0  0  0  0  0
   41.1850   67.9340   60.2490 C   0  0  0  0  0  0  0  0  0  0  0  0
   40.8900   68.9190   59.3280 C   0  0  0  0  0  0  0  0  0  0  0  0
   40.9110   70.2780   59.5550 C   0  0  0  0  0  0  0  0  0  0  0  0
   40.5840   71.1410   58.5070 N   0  0  0  0  0  0  0  0  0  0  0  0
   43.0420   78.6630   61.1040 O   0  0  0  0  0  0  0  0  0  0  0  0
   43.1520   77.7130   62.1240 C   0  0  0  0  0  0  0  0  0  0  0  0
   43.0600   76.4270   61.5630 F   0  0  0  0  0  0  0  0  0  0  0  0
   42.1210   77.9190   62.9740 F   0  0  0  0  0  0  0  0  0  0  0  0
   44.3710   77.8380   62.7400 F   0  0  0  0  0  0  0  0  0  0  0  0
   40.3008   80.1250   61.4505 H   0  0  0  0  0  0  0  0  0  0  0  0
   42.0676   81.3779   59.4908 H   0  0  0  0  0  0  0  0  0  0  0  0
   39.5960   78.7886   59.5172 H   0  0  0  0  0  0  0  0  0  0  0  0
   40.0874   78.8388   57.7872 H   0  0  0  0  0  0  0  0  0  0  0  0
   42.5988   79.2176   58.7107 H   0  0  0  0  0  0  0  0  0  0  0  0
   41.1058   78.1927   61.2389 H   0  0  0  0  0  0  0  0  0  0  0  0
   40.5566   83.4823   58.4767 H   0  0  0  0  0  0  0  0  0  0  0  0
   38.4331   83.3928   62.9630 H   0  0  0  0  0  0  0  0  0  0  0  0
   39.7430   85.4579   58.1492 H   0  0  0  0  0  0  0  0  0  0  0  0
   41.9498   80.7082   62.7840 H   0  0  0  0  0  0  0  0  0  0  0  0
   40.0513   77.1685   57.7417 H   0  0  0  0  0  0  0  0  0  0  0  0
   39.8125   77.2499   59.5082 H   0  0  0  0  0  0  0  0  0  0  0  0
   39.9348   75.2561   56.6979 H   0  0  0  0  0  0  0  0  0  0  0  0
   40.0000   72.7967   56.6592 H   0  0  0  0  0  0  0  0  0  0  0  0
   41.1188   75.1098   60.8193 H   0  0  0  0  0  0  0  0  0  0  0  0
   41.8508   70.0232   62.8085 H   0  0  0  0  0  0  0  0  0  0  0  0
   41.7826   67.5907   62.2977 H   0  0  0  0  0  0  0  0  0  0  0  0
   41.1411   66.8690   59.9771 H   0  0  0  0  0  0  0  0  0  0  0  0
   40.6117   68.5876   58.3167 H   0  0  0  0  0  0  0  0  0  0  0  0
   40.3344   70.7496   57.5876 H   0  0  0  0  0  0  0  0  0  0  0  0
  1 14  1  0
  2  9  1  0
  2  1  1  0
  3  2  1  0
  4  3  1  0
  4  5  1  0
  5  6  1  0
  6  1  1  0
  6 31  1  0
  7 12  2  0
  8  7  1  0
  8  9  2  0
  9 10  1  0
 10 11  2  0
 12 11  1  0
 13  7  1  0
 15  5  1  0
 16 17  1  0
 16 15  1  0
 17 22  1  0
 18 17  2  0
 19 18  1  0
 19 20  2  0
 20 21  1  0
 21 22  2  0
 21 23  1  0
 24 23  1  0
 24 25  2  0
 26 25  1  0
 27 26  2  0
 28 29  2  0
 28 27  1  0
 29 24  1  0
 30 20  1  0
 30 29  1  0
 31 32  1  0
 32 35  1  0
 32 34  1  0
 33 32  1  0
  1 36  1  1
  2 37  1  6
  4 38  1  0
  4 39  1  0
  5 40  1  6
  6 41  1  1
  8 42  1  0
 11 43  1  0
 13 44  1  0
 14 45  1  0
 16 46  1  0
 16 47  1  0
 18 48  1  0
 19 49  1  0
 22 50  1  0
 25 51  1  0
 26 52  1  0
 27 53  1  0
 28 54  1  0
 30 55  1  0
M  END
>  <Score>  (1) 
-7.56851

>  <Score_dual>  (1) 
-8.82

>  <Choices>  (1) 
[None, 6, ['2-1', 0], 8, ['21-24', 270], 27, ['11-5', 15], 30, ['3-2', 0], 33, ['60-11', 120]]

$$$$
