
     RDKit          3D

 49 54  0  0  0  0  0  0  0  0999 V2000
   44.4500   82.6630   61.4400 Cl  0  0  0  0  0  0  0  0  0  0  0  0
   44.4950   80.9580   61.9050 C   0  0  0  0  0  0  0  0  0  0  0  0
   43.3670   80.1800   61.7590 C   0  0  0  0  0  0  0  0  0  0  0  0
   43.4500   78.8680   62.1330 C   0  0  0  0  0  0  0  0  0  0  0  0
   44.6170   78.3150   62.6430 C   0  0  0  0  0  0  0  0  0  0  0  0
   45.7120   79.1440   62.7660 C   0  0  0  0  0  0  0  0  0  0  0  0
   45.7040   80.4650   62.4130 C   0  0  0  0  0  0  0  0  0  0  0  0
   42.1680   80.7990   61.2210 C   0  0  0  0  0  0  0  0  0  0  0  0
   41.6850   80.4190   59.9610 C   0  0  0  0  0  0  0  0  0  0  0  0
   40.5320   80.9940   59.4090 C   0  0  0  0  0  0  0  0  0  0  0  0
   39.9200   81.9360   60.1750 N   0  0  0  0  0  0  0  0  0  0  0  0
   40.3850   82.2980   61.3800 C   0  0  0  0  0  0  0  0  0  0  0  0
   41.4790   81.7240   61.8560 N   0  0  0  0  0  0  0  0  0  0  0  0
   40.0560   80.5960   58.1290 N   0  0  0  0  0  0  0  0  0  0  0  0
   40.1800   81.4760   57.0930 C   0  0  0  0  0  0  0  0  0  0  0  0
   39.6950   80.9780   55.9520 N   0  0  0  0  0  0  0  0  0  0  0  0
   39.2450   79.7520   56.2340 C   0  0  0  0  0  0  0  0  0  0  0  0
   38.6410   78.6990   55.5800 C   0  0  0  0  0  0  0  0  0  0  0  0
   38.3170   77.5610   56.2300 N   0  0  0  0  0  0  0  0  0  0  0  0
   38.5680   77.3980   57.5620 C   0  0  0  0  0  0  0  0  0  0  0  0
   39.1620   78.4030   58.2700 N   0  0  0  0  0  0  0  0  0  0  0  0
   39.4730   79.5300   57.5770 C   0  0  0  0  0  0  0  0  0  0  0  0
   39.7060   83.3300   62.2050 C   0  0  0  0  0  0  0  0  0  0  0  0
   38.3430   83.0640   62.1110 F   0  0  0  0  0  0  0  0  0  0  0  0
   39.9500   84.5740   61.6790 F   0  0  0  0  0  0  0  0  0  0  0  0
   40.1150   83.2720   63.5260 F   0  0  0  0  0  0  0  0  0  0  0  0
   45.6890   76.6120   63.9990 C   0  0  0  0  0  0  0  0  0  0  0  0
   44.7380   76.9230   63.0490 C   0  0  0  0  0  0  0  0  0  0  0  0
   43.9780   75.8680   62.5610 C   0  0  0  0  0  0  0  0  0  0  0  0
   44.1830   74.5790   63.0200 C   0  0  0  0  0  0  0  0  0  0  0  0
   43.6050   73.4010   62.7270 N   0  0  0  0  0  0  0  0  0  0  0  0
   44.1480   72.4310   63.4340 C   0  0  0  0  0  0  0  0  0  0  0  0
   45.1180   72.9700   64.2250 N   0  0  0  0  0  0  0  0  0  0  0  0
   45.1400   74.2830   63.9730 C   0  0  0  0  0  0  0  0  0  0  0  0
   45.8940   75.3340   64.4560 C   0  0  0  0  0  0  0  0  0  0  0  0
   42.5616   78.2282   62.0263 H   0  0  0  0  0  0  0  0  0  0  0  0
   46.6428   78.7194   63.1702 H   0  0  0  0  0  0  0  0  0  0  0  0
   46.5938   81.1026   62.5214 H   0  0  0  0  0  0  0  0  0  0  0  0
   42.2252   79.6492   59.3904 H   0  0  0  0  0  0  0  0  0  0  0  0
   40.6265   82.4770   57.1864 H   0  0  0  0  0  0  0  0  0  0  0  0
   39.3199   78.4089   54.7646 H   0  0  0  0  0  0  0  0  0  0  0  0
   37.6557   79.1137   55.3208 H   0  0  0  0  0  0  0  0  0  0  0  0
   38.2922   76.4588   58.0639 H   0  0  0  0  0  0  0  0  0  0  0  0
   39.3637   78.3119   59.2759 H   0  0  0  0  0  0  0  0  0  0  0  0
   46.3096   77.4231   64.4077 H   0  0  0  0  0  0  0  0  0  0  0  0
   43.2052   76.0591   61.8019 H   0  0  0  0  0  0  0  0  0  0  0  0
   42.8437   73.2745   62.0448 H   0  0  0  0  0  0  0  0  0  0  0  0
   43.8667   71.3684   63.3929 H   0  0  0  0  0  0  0  0  0  0  0  0
   46.6673   75.1451   65.2152 H   0  0  0  0  0  0  0  0  0  0  0  0
  1  2  1  0
  2  7  2  0
  3  2  1  0
  3  4  2  0
  4  5  1  0
  5  6  2  0
  5 28  1  0
  7  6  1  0
  8  3  1  0
  8 13  1  0
  9  8  2  0
 10  9  1  0
 10 11  2  0
 11 12  1  0
 12 13  2  0
 12 23  1  0
 14 10  1  0
 15 14  1  0
 16 17  1  0
 16 15  2  0
 17 22  2  0
 18 19  1  0
 18 17  1  0
 19 20  2  0
 20 21  1  0
 22 14  1  0
 22 21  1  0
 23 26  1  0
 24 23  1  0
 25 23  1  0
 27 35  2  0
 28 27  1  0
 29 30  1  0
 29 28  2  0
 30 34  2  0
 31 30  1  0
 31 32  1  0
 32 33  2  0
 34 33  1  0
 34 35  1  0
  4 36  1  0
  6 37  1  0
  7 38  1  0
  9 39  1  0
 15 40  1  0
 18 41  1  0
 18 42  1  0
 20 43  1  0
 21 44  1  0
 27 45  1  0
 29 46  1  0
 31 47  1  0
 32 48  1  0
 35 49  1  0
M  END
>  <Score>  (1) 
-8.10602

>  <Score_dual>  (1) 
-8.06

>  <Choices>  (1) 
[None, 6, ['7-19', 90], 17, ['34-24', 330], 32, ['11-14', 60], 35, ['45-11', 180]]

$$$$
