
     RDKit          3D

 46 51  0  0  0  0  0  0  0  0999 V2000
   39.2780   77.5260   58.9750 Cl  0  0  0  0  0  0  0  0  0  0  0  0
   40.7210   76.7470   59.5400 C   0  0  0  0  0  0  0  0  0  0  0  0
   41.8480   77.4910   59.7570 C   0  0  0  0  0  0  0  0  0  0  0  0
   42.9670   76.7820   60.2220 C   0  0  0  0  0  0  0  0  0  0  0  0
   42.9400   75.4330   60.4490 C   0  0  0  0  0  0  0  0  0  0  0  0
   41.7820   74.7090   60.2180 C   0  0  0  0  0  0  0  0  0  0  0  0
   40.6630   75.3850   59.7590 C   0  0  0  0  0  0  0  0  0  0  0  0
   41.9930   72.7190   61.6530 C   0  0  0  0  0  0  0  0  0  0  0  0
   41.6410   73.2600   60.4250 C   0  0  0  0  0  0  0  0  0  0  0  0
   41.1820   72.3550   59.5070 C   0  0  0  0  0  0  0  0  0  0  0  0
   41.0860   71.0190   59.7970 C   0  0  0  0  0  0  0  0  0  0  0  0
   40.6740   69.9470   59.0820 N   0  0  0  0  0  0  0  0  0  0  0  0
   40.7580   68.8320   59.7930 N   0  0  0  0  0  0  0  0  0  0  0  0
   41.2310   69.1260   61.0080 C   0  0  0  0  0  0  0  0  0  0  0  0
   41.4360   70.5030   61.0100 C   0  0  0  0  0  0  0  0  0  0  0  0
   41.9010   71.3740   61.9600 C   0  0  0  0  0  0  0  0  0  0  0  0
   42.0150   80.8390   58.0770 C   0  0  0  0  0  0  0  0  0  0  0  0
   42.0720   79.4600   58.2840 C   0  0  0  0  0  0  0  0  0  0  0  0
   41.8190   78.9170   59.5150 C   0  0  0  0  0  0  0  0  0  0  0  0
   41.5050   79.7650   60.5610 N   0  0  0  0  0  0  0  0  0  0  0  0
   41.4530   81.1070   60.3500 C   0  0  0  0  0  0  0  0  0  0  0  0
   41.7030   81.6480   59.1250 N   0  0  0  0  0  0  0  0  0  0  0  0
   39.8290   82.4840   61.5600 C   0  0  0  0  0  0  0  0  0  0  0  0
   41.1240   82.0210   61.4420 C   0  0  0  0  0  0  0  0  0  0  0  0
   42.0540   82.4340   62.3490 C   0  0  0  0  0  0  0  0  0  0  0  0
   41.8030   83.3000   63.4070 C   0  0  0  0  0  0  0  0  0  0  0  0
   42.5220   83.8440   64.4080 N   0  0  0  0  0  0  0  0  0  0  0  0
   41.7280   84.6230   65.1400 N   0  0  0  0  0  0  0  0  0  0  0  0
   40.4730   84.5890   64.6110 C   0  0  0  0  0  0  0  0  0  0  0  0
   40.4840   83.7530   63.5010 C   0  0  0  0  0  0  0  0  0  0  0  0
   39.5320   83.3470   62.5940 C   0  0  0  0  0  0  0  0  0  0  0  0
   43.9008   77.3318   60.4110 H   0  0  0  0  0  0  0  0  0  0  0  0
   43.8417   74.9213   60.8165 H   0  0  0  0  0  0  0  0  0  0  0  0
   39.7285   74.8366   59.5691 H   0  0  0  0  0  0  0  0  0  0  0  0
   42.3681   73.4016   62.4297 H   0  0  0  0  0  0  0  0  0  0  0  0
   40.8821   72.7092   58.5097 H   0  0  0  0  0  0  0  0  0  0  0  0
   40.3380   69.9918   58.1094 H   0  0  0  0  0  0  0  0  0  0  0  0
   41.4192   68.4253   61.8348 H   0  0  0  0  0  0  0  0  0  0  0  0
   42.1973   71.0079   62.9541 H   0  0  0  0  0  0  0  0  0  0  0  0
   42.2189   81.2644   57.0833 H   0  0  0  0  0  0  0  0  0  0  0  0
   42.3247   78.7975   57.4430 H   0  0  0  0  0  0  0  0  0  0  0  0
   39.0523   82.1721   60.8463 H   0  0  0  0  0  0  0  0  0  0  0  0
   43.0798   82.0535   62.2352 H   0  0  0  0  0  0  0  0  0  0  0  0
   43.5248   83.6832   64.5796 H   0  0  0  0  0  0  0  0  0  0  0  0
   39.5980   85.1321   64.9976 H   0  0  0  0  0  0  0  0  0  0  0  0
   38.5031   83.7221   62.6968 H   0  0  0  0  0  0  0  0  0  0  0  0
  1  2  1  0
  2  3  2  0
  2  7  1  0
  3  4  1  0
  4  5  2  0
  6  9  1  0
  6  5  1  0
  7  6  2  0
  8 16  2  0
  9  8  1  0
 10 11  1  0
 10  9  2  0
 11 15  2  0
 12 13  1  0
 12 11  1  0
 13 14  2  0
 14 15  1  0
 15 16  1  0
 17 18  2  0
 17 22  1  0
 18 19  1  0
 19  3  1  0
 19 20  2  0
 21 20  1  0
 21 24  1  0
 22 21  2  0
 23 31  2  0
 24 23  1  0
 24 25  2  0
 25 26  1  0
 26 30  2  0
 26 27  1  0
 27 28  1  0
 29 28  2  0
 30 29  1  0
 31 30  1  0
  4 32  1  0
  5 33  1  0
  7 34  1  0
  8 35  1  0
 10 36  1  0
 12 37  1  0
 14 38  1  0
 16 39  1  0
 17 40  1  0
 18 41  1  0
 23 42  1  0
 25 43  1  0
 27 44  1  0
 29 45  1  0
 31 46  1  0
M  END
>  <Score>  (1) 
-7.42505

>  <Score_dual>  (1) 
-9.42

>  <Choices>  (1) 
[None, 8, ['7-18', 120], 18, ['54-9', 240], 32, ['54-12', 270]]

$$$$
