
     RDKit          3D

 38 42  0  0  0  0  0  0  0  0999 V2000
   39.8670   76.5280   60.1800 C   0  0  0  0  0  0  0  0  0  0  0  0
   39.0750   76.7290   59.1080 C   0  0  0  0  0  0  0  0  0  0  0  0
   38.7060   75.6720   58.2960 C   0  0  0  0  0  0  0  0  0  0  0  0
   39.1570   74.4610   58.6110 N   0  0  0  0  0  0  0  0  0  0  0  0
   39.9610   74.2880   59.7080 C   0  0  0  0  0  0  0  0  0  0  0  0
   40.3320   75.3210   60.5140 N   0  0  0  0  0  0  0  0  0  0  0  0
   41.0740   72.7410   61.2650 C   0  0  0  0  0  0  0  0  0  0  0  0
   40.4560   72.9490   60.0500 C   0  0  0  0  0  0  0  0  0  0  0  0
   40.3150   71.8780   59.1680 C   0  0  0  0  0  0  0  0  0  0  0  0
   40.7960   70.6220   59.5260 C   0  0  0  0  0  0  0  0  0  0  0  0
   40.7330   69.4990   58.7860 N   0  0  0  0  0  0  0  0  0  0  0  0
   41.3200   68.5710   59.5440 C   0  0  0  0  0  0  0  0  0  0  0  0
   41.7290   69.0920   60.7050 N   0  0  0  0  0  0  0  0  0  0  0  0
   41.4180   70.3940   60.7370 C   0  0  0  0  0  0  0  0  0  0  0  0
   41.5340   71.4820   61.5750 C   0  0  0  0  0  0  0  0  0  0  0  0
   40.7380   80.1460   61.8710 C   0  0  0  0  0  0  0  0  0  0  0  0
   40.8180   79.1150   62.7000 C   0  0  0  0  0  0  0  0  0  0  0  0
   40.5530   77.8520   62.2690 C   0  0  0  0  0  0  0  0  0  0  0  0
   40.2070   77.6860   60.9750 C   0  0  0  0  0  0  0  0  0  0  0  0
   40.2430   79.4070   60.2690 S   0  0  0  0  0  0  0  0  0  0  0  0
   42.3000   83.4940   62.3800 C   0  0  0  0  0  0  0  0  0  0  0  0
   42.2150   82.0870   62.2160 C   0  0  0  0  0  0  0  0  0  0  0  0
   40.9510   81.5450   62.0490 C   0  0  0  0  0  0  0  0  0  0  0  0
   39.8520   82.3680   62.0480 N   0  0  0  0  0  0  0  0  0  0  0  0
   39.9830   83.6960   62.2070 C   0  0  0  0  0  0  0  0  0  0  0  0
   41.1960   84.2420   62.3710 N   0  0  0  0  0  0  0  0  0  0  0  0
   38.7187   77.7437   58.8767 H   0  0  0  0  0  0  0  0  0  0  0  0
   38.0609   75.8277   57.4187 H   0  0  0  0  0  0  0  0  0  0  0  0
   41.1975   73.5705   61.9768 H   0  0  0  0  0  0  0  0  0  0  0  0
   39.8259   72.0252   58.1938 H   0  0  0  0  0  0  0  0  0  0  0  0
   40.3244   69.3827   57.8477 H   0  0  0  0  0  0  0  0  0  0  0  0
   41.4499   67.5183   59.2525 H   0  0  0  0  0  0  0  0  0  0  0  0
   42.0232   71.3351   62.5492 H   0  0  0  0  0  0  0  0  0  0  0  0
   41.1021   79.2825   63.7494 H   0  0  0  0  0  0  0  0  0  0  0  0
   40.6187   76.9934   62.9535 H   0  0  0  0  0  0  0  0  0  0  0  0
   43.2822   83.9704   62.5153 H   0  0  0  0  0  0  0  0  0  0  0  0
   43.1144   81.4537   62.2212 H   0  0  0  0  0  0  0  0  0  0  0  0
   39.0900   84.3383   62.2025 H   0  0  0  0  0  0  0  0  0  0  0  0
  1  6  1  0
  1 19  1  0
  2  1  2  0
  3  4  2  0
  3  2  1  0
  4  5  1  0
  5  8  1  0
  5  6  2  0
  7 15  2  0
  8  7  1  0
  9 10  1  0
  9  8  2  0
 10 14  2  0
 11 10  1  0
 11 12  1  0
 12 13  2  0
 13 14  1  0
 14 15  1  0
 16 23  1  0
 16 17  2  0
 18 17  1  0
 19 18  2  0
 20 19  1  0
 20 16  1  0
 22 21  2  0
 23 22  1  0
 24 23  2  0
 24 25  1  0
 25 26  2  0
 26 21  1  0
  2 27  1  0
  3 28  1  0
  7 29  1  0
  9 30  1  0
 11 31  1  0
 12 32  1  0
 15 33  1  0
 17 34  1  0
 18 35  1  0
 21 36  1  0
 22 37  1  0
 25 38  1  0
M  END
>  <Score>  (1) 
-7.07641

>  <Score_dual>  (1) 
-7.61

>  <Choices>  (1) 
[None, 8, ['25-21', 150], 16, ['19-18', 45], 24, ['34-19', 195]]

$$$$
