
     RDKit          3D

 47 51  0  0  0  0  0  0  0  0999 V2000
   40.7810   83.9240   60.5700 C   0  0  0  0  0  0  0  0  0  0  0  0
   40.9800   82.5580   60.7270 C   0  0  0  0  0  0  0  0  0  0  0  0
   40.1270   81.7700   61.4790 C   0  0  0  0  0  0  0  0  0  0  0  0
   39.0760   82.4060   62.0610 N   0  0  0  0  0  0  0  0  0  0  0  0
   38.8550   83.7210   61.9300 C   0  0  0  0  0  0  0  0  0  0  0  0
   39.6940   84.4660   61.1980 N   0  0  0  0  0  0  0  0  0  0  0  0
   41.5250   84.8810   59.8340 C   0  0  0  0  0  0  0  0  0  0  0  0
   40.9710   85.3120   58.6010 C   0  0  0  0  0  0  0  0  0  0  0  0
   41.5560   86.2350   57.7480 C   0  0  0  0  0  0  0  0  0  0  0  0
   42.7500   86.7870   58.0950 C   0  0  0  0  0  0  0  0  0  0  0  0
   43.3280   86.4150   59.2600 C   0  0  0  0  0  0  0  0  0  0  0  0
   44.5510   86.9770   59.6170 C   0  0  0  0  0  0  0  0  0  0  0  0
   45.2090   86.6410   60.8020 C   0  0  0  0  0  0  0  0  0  0  0  0
   44.5540   85.7060   61.6020 C   0  0  0  0  0  0  0  0  0  0  0  0
   43.3520   85.1730   61.2230 C   0  0  0  0  0  0  0  0  0  0  0  0
   42.7280   85.5020   60.0790 C   0  0  0  0  0  0  0  0  0  0  0  0
   40.4030   80.3740   61.5810 C   0  0  0  0  0  0  0  0  0  0  0  0
   40.7730   79.7840   62.6450 O   0  0  0  0  0  0  0  0  0  0  0  0
   40.1550   77.7410   62.1770 F   0  0  0  0  0  0  0  0  0  0  0  0
   40.1650   78.1390   60.8720 C   0  0  0  0  0  0  0  0  0  0  0  0
   40.2850   79.4620   60.4440 C   0  0  0  0  0  0  0  0  0  0  0  0
   40.2800   79.7460   59.1040 C   0  0  0  0  0  0  0  0  0  0  0  0
   40.1570   78.7150   58.2140 C   0  0  0  0  0  0  0  0  0  0  0  0
   40.0390   77.4110   58.6190 C   0  0  0  0  0  0  0  0  0  0  0  0
   40.0430   77.1110   59.9910 C   0  0  0  0  0  0  0  0  0  0  0  0
   39.9070   75.6930   60.2500 C   0  0  0  0  0  0  0  0  0  0  0  0
   38.7530   74.9470   60.2360 C   0  0  0  0  0  0  0  0  0  0  0  0
   38.6430   73.6000   60.4850 C   0  0  0  0  0  0  0  0  0  0  0  0
   39.7900   72.8980   60.7790 C   0  0  0  0  0  0  0  0  0  0  0  0
   40.9570   73.6240   60.7980 C   0  0  0  0  0  0  0  0  0  0  0  0
   40.9820   74.9400   60.5440 N   0  0  0  0  0  0  0  0  0  0  0  0
   41.8449   82.0871   60.2369 H   0  0  0  0  0  0  0  0  0  0  0  0
   37.9882   84.1870   62.4215 H   0  0  0  0  0  0  0  0  0  0  0  0
   40.0048   84.8815   58.2993 H   0  0  0  0  0  0  0  0  0  0  0  0
   41.0628   86.5165   56.8059 H   0  0  0  0  0  0  0  0  0  0  0  0
   43.2372   87.5235   57.4392 H   0  0  0  0  0  0  0  0  0  0  0  0
   45.0150   87.7112   58.9420 H   0  0  0  0  0  0  0  0  0  0  0  0
   46.1760   87.0830   61.0843 H   0  0  0  0  0  0  0  0  0  0  0  0
   45.0103   85.3919   62.5523 H   0  0  0  0  0  0  0  0  0  0  0  0
   42.8728   84.4390   61.8875 H   0  0  0  0  0  0  0  0  0  0  0  0
   40.3731   80.7835   58.7506 H   0  0  0  0  0  0  0  0  0  0  0  0
   40.1526   78.9398   57.1372 H   0  0  0  0  0  0  0  0  0  0  0  0
   39.9420   76.6060   57.8756 H   0  0  0  0  0  0  0  0  0  0  0  0
   37.8216   75.4831   60.0014 H   0  0  0  0  0  0  0  0  0  0  0  0
   37.6655   73.0967   60.4503 H   0  0  0  0  0  0  0  0  0  0  0  0
   39.7736   71.8179   60.9868 H   0  0  0  0  0  0  0  0  0  0  0  0
   41.9009   73.1085   61.0291 H   0  0  0  0  0  0  0  0  0  0  0  0
  1  2  2  0
  1  6  1  0
  2  3  1  0
  3 17  1  0
  3  4  2  0
  5  4  1  0
  6  5  2  0
  7 16  1  0
  7  1  1  0
  8  7  2  0
  9 10  2  0
  9  8  1  0
 10 11  1  0
 11 12  1  0
 11 16  2  0
 12 13  2  0
 13 14  1  0
 15 14  2  0
 16 15  1  0
 17 18  2  0
 20 19  1  0
 21 20  2  0
 21 17  1  0
 22 21  1  0
 23 24  1  0
 23 22  2  0
 24 25  2  0
 25 26  1  0
 25 20  1  0
 26 31  1  0
 27 26  2  0
 27 28  1  0
 28 29  2  0
 29 30  1  0
 31 30  2  0
  2 32  1  0
  5 33  1  0
  8 34  1  0
  9 35  1  0
 10 36  1  0
 12 37  1  0
 13 38  1  0
 14 39  1  0
 15 40  1  0
 22 41  1  0
 23 42  1  0
 24 43  1  0
 27 44  1  0
 28 45  1  0
 29 46  1  0
 30 47  1  0
M  END
>  <Score>  (1) 
-7.56321

>  <Score_dual>  (1) 
-8.44

>  <Choices>  (1) 
[None, 8, ['5-9', 180], 8, ['26-25', 345], 27, ['9-4', 240], 37, ['6-14', 135]]

$$$$
