
     RDKit          3D

 52 57  0  0  0  0  0  0  0  0999 V2000
   43.1910   82.0900   60.5540 C   0  0  0  0  0  0  0  0  0  0  0  0
   42.7520   83.0840   61.3830 C   0  0  0  0  0  0  0  0  0  0  0  0
   43.6220   83.5950   62.3280 C   0  0  0  0  0  0  0  0  0  0  0  0
   44.9170   83.1170   62.4400 C   0  0  0  0  0  0  0  0  0  0  0  0
   45.9630   83.4130   63.2420 N   0  0  0  0  0  0  0  0  0  0  0  0
   47.0220   82.6180   62.9120 C   0  0  0  0  0  0  0  0  0  0  0  0
   46.6310   81.8270   61.9010 N   0  0  0  0  0  0  0  0  0  0  0  0
   45.3350   82.1020   61.5770 C   0  0  0  0  0  0  0  0  0  0  0  0
   44.4720   81.5780   60.6240 C   0  0  0  0  0  0  0  0  0  0  0  0
   39.6370   84.8560   60.2400 C   0  0  0  0  0  0  0  0  0  0  0  0
   41.0030   84.4870   60.2720 C   0  0  0  0  0  0  0  0  0  0  0  0
   41.3770   83.5590   61.2310 C   0  0  0  0  0  0  0  0  0  0  0  0
   40.4390   83.0660   62.0670 N   0  0  0  0  0  0  0  0  0  0  0  0
   39.1460   83.4400   62.0070 C   0  0  0  0  0  0  0  0  0  0  0  0
   38.7330   84.3390   61.0940 N   0  0  0  0  0  0  0  0  0  0  0  0
   42.3820   81.5200   59.5760 O   0  0  0  0  0  0  0  0  0  0  0  0
   41.3520   79.5900   58.6100 C   0  0  0  0  0  0  0  0  0  0  0  0
   41.7260   80.3400   59.7100 C   0  0  0  0  0  0  0  0  0  0  0  0
   41.3930   79.8140   60.9760 C   0  0  0  0  0  0  0  0  0  0  0  0
   40.7240   78.6070   61.0830 C   0  0  0  0  0  0  0  0  0  0  0  0
   40.2950   77.8960   62.1480 N   0  0  0  0  0  0  0  0  0  0  0  0
   39.6990   76.7880   61.7300 N   0  0  0  0  0  0  0  0  0  0  0  0
   39.7400   76.7750   60.3640 C   0  0  0  0  0  0  0  0  0  0  0  0
   40.3830   77.9180   59.9780 C   0  0  0  0  0  0  0  0  0  0  0  0
   40.6810   78.3790   58.7010 C   0  0  0  0  0  0  0  0  0  0  0  0
   39.1860   75.7130   59.4480 C   0  0  0  0  0  0  0  0  0  0  0  0
   40.1720   74.5630   59.3280 C   0  0  0  0  0  0  0  0  0  0  0  0
   39.8060   73.6240   60.4690 C   0  0  0  0  0  0  0  0  0  0  0  0
   38.3020   73.6390   60.3710 C   0  0  0  0  0  0  0  0  0  0  0  0
   37.9990   75.0880   60.1350 C   0  0  0  0  0  0  0  0  0  0  0  0
   40.3460   77.6950   57.5020 N   0  0  0  0  0  0  0  0  0  0  0  0
   43.2801   84.3943   63.0020 H   0  0  0  0  0  0  0  0  0  0  0  0
   45.9615   84.1261   63.9852 H   0  0  0  0  0  0  0  0  0  0  0  0
   48.0139   82.6244   63.3874 H   0  0  0  0  0  0  0  0  0  0  0  0
   44.7991   80.7777   59.9439 H   0  0  0  0  0  0  0  0  0  0  0  0
   39.3023   85.5900   59.4922 H   0  0  0  0  0  0  0  0  0  0  0  0
   41.7327   84.9161   59.5695 H   0  0  0  0  0  0  0  0  0  0  0  0
   38.4205   83.0064   62.7111 H   0  0  0  0  0  0  0  0  0  0  0  0
   41.5997   79.9740   57.6094 H   0  0  0  0  0  0  0  0  0  0  0  0
   41.6674   80.3679   61.8859 H   0  0  0  0  0  0  0  0  0  0  0  0
   40.4127   78.1720   63.1333 H   0  0  0  0  0  0  0  0  0  0  0  0
   38.9600   76.1746   58.4754 H   0  0  0  0  0  0  0  0  0  0  0  0
   40.0621   74.0566   58.3577 H   0  0  0  0  0  0  0  0  0  0  0  0
   41.2171   74.9014   59.3847 H   0  0  0  0  0  0  0  0  0  0  0  0
   40.2126   72.6144   60.3095 H   0  0  0  0  0  0  0  0  0  0  0  0
   40.2028   73.9218   61.4508 H   0  0  0  0  0  0  0  0  0  0  0  0
   37.9534   73.0195   59.5315 H   0  0  0  0  0  0  0  0  0  0  0  0
   37.8034   73.2293   61.2618 H   0  0  0  0  0  0  0  0  0  0  0  0
   37.8176   75.5915   61.0960 H   0  0  0  0  0  0  0  0  0  0  0  0
   37.1007   75.1906   59.5085 H   0  0  0  0  0  0  0  0  0  0  0  0
   39.8479   76.7945   57.5448 H   0  0  0  0  0  0  0  0  0  0  0  0
   40.6012   78.0996   56.5898 H   0  0  0  0  0  0  0  0  0  0  0  0
  1  9  2  0
  1  2  1  0
  2  3  2  0
  3  4  1  0
  4  5  1  0
  6  5  1  0
  7  6  2  0
  8  7  1  0
  8  4  2  0
  9  8  1  0
 10 11  2  0
 10 15  1  0
 11 12  1  0
 12  2  1  0
 12 13  2  0
 14 13  1  0
 15 14  2  0
 16 18  1  0
 16  1  1  0
 17 25  2  0
 17 18  1  0
 18 19  2  0
 19 20  1  0
 20 21  1  0
 22 21  1  0
 23 22  2  0
 24 23  1  0
 24 20  2  0
 25 24  1  0
 26 30  1  0
 26 23  1  0
 27 26  1  0
 27 28  1  0
 29 28  1  0
 30 29  1  0
 31 25  1  0
  3 32  1  0
  5 33  1  0
  6 34  1  0
  9 35  1  0
 10 36  1  0
 11 37  1  0
 14 38  1  0
 17 39  1  0
 19 40  1  0
 21 41  1  0
 26 42  1  0
 27 43  1  0
 27 44  1  0
 28 45  1  0
 28 46  1  0
 29 47  1  0
 29 48  1  0
 30 49  1  0
 30 50  1  0
 31 51  1  0
 31 52  1  0
M  END
>  <Score>  (1) 
-7.07607

>  <Score_dual>  (1) 
-7.02

>  <Choices>  (1) 
[None, 8, ['34-23', 60], 15, ['2-1', 0], 23, ['54-21', 15], 36, ['0-4', 0], 36, ['31-23', 300]]

$$$$
