
     RDKit          3D

 59 64  0  0  1  0  0  0  0  0999 V2000
   43.1180   83.3570   62.8300 C   0  0  0  0  0  0  0  0  0  0  0  0
   43.8510   84.3120   62.0870 C   0  0  0  0  0  0  0  0  0  0  0  0
   45.0110   83.8610   61.4230 C   0  0  0  0  0  0  0  0  0  0  0  0
   45.3570   82.5610   61.5280 N   0  0  0  0  0  0  0  0  0  0  0  0
   44.6300   81.6830   62.2480 C   0  0  0  0  0  0  0  0  0  0  0  0
   43.5220   82.0800   62.8910 N   0  0  0  0  0  0  0  0  0  0  0  0
   41.9220   83.7690   63.5320 C   0  0  0  0  0  0  0  0  0  0  0  0
   40.6340   83.6650   63.0920 C   0  0  0  0  0  0  0  0  0  0  0  0
   39.8000   84.1620   64.0420 N   0  0  0  0  0  0  0  0  0  0  0  0
   40.5880   84.5720   65.0710 C   0  0  0  0  0  0  0  0  0  0  0  0
   41.8810   84.3320   64.7580 N   0  0  0  0  0  0  0  0  0  0  0  0
   40.1120   83.1480   61.8800 C   0  0  0  0  0  0  0  0  0  0  0  0
   39.4630   82.1000   61.7540 O   0  0  0  0  0  0  0  0  0  0  0  0
   40.1070   83.5500   60.5060 N   0  0  0  0  0  0  0  0  0  0  0  0
   39.4850   84.8160   60.4200 C   0  0  0  0  0  0  0  0  0  0  0  0
   39.5110   85.2140   58.9690 C   0  0  0  0  0  0  0  0  0  0  0  0
   40.4790   84.3090   58.3110 C   0  0  0  0  0  0  0  0  0  0  0  0
   40.5360   83.0720   59.1640 C   0  0  2  0  0  0  0  0  0  0  0  0
   39.6690   82.0820   58.7350 O   0  0  0  0  0  0  0  0  0  0  0  0
   44.9600   80.2670   62.4010 C   0  0  0  0  0  0  0  0  0  0  0  0
   44.4680   79.0380   62.0360 C   0  0  0  0  0  0  0  0  0  0  0  0
   45.3010   78.0960   62.5310 N   0  0  0  0  0  0  0  0  0  0  0  0
   46.3060   78.7170   63.2010 C   0  0  0  0  0  0  0  0  0  0  0  0
   46.0960   80.0640   63.1210 N   0  0  0  0  0  0  0  0  0  0  0  0
   47.4170   77.9560   63.8720 C   0  0  0  0  0  0  0  0  0  0  0  0
   48.6240   78.7900   63.9840 C   0  0  0  0  0  0  0  0  0  0  0  0
   49.0640   79.2450   65.1470 C   0  0  0  0  0  0  0  0  0  0  0  0
   50.2430   80.0280   65.1200 N   0  0  0  0  0  0  0  0  0  0  0  0
   51.4770   80.3820   65.7740 C   0  0  0  0  0  0  0  0  0  0  0  0
   51.9080   80.3030   66.9600 O   0  0  0  0  0  0  0  0  0  0  0  0
   52.0890   80.8910   64.5160 C   0  0  0  0  0  0  0  0  0  0  0  0
   50.6220   80.9760   64.0880 C   0  0  1  0  0  0  0  0  0  0  0  0
   50.4460   80.2030   62.4610 S   0  0  0  0  0  0  0  0  0  0  0  0
   49.1600   78.9660   62.6150 C   0  0  0  0  0  0  0  0  0  0  0  0
   48.4480   78.9980   66.4440 C   0  0  0  0  0  0  0  0  0  0  0  0
   47.9010   78.0190   67.0070 O   0  0  0  0  0  0  0  0  0  0  0  0
   48.3520   79.9610   67.4190 O   0  0  0  0  0  0  0  0  0  0  0  0
   43.5298   85.3625   62.0295 H   0  0  0  0  0  0  0  0  0  0  0  0
   45.6227   84.5568   60.8301 H   0  0  0  0  0  0  0  0  0  0  0  0
   38.7727   84.2173   63.9924 H   0  0  0  0  0  0  0  0  0  0  0  0
   40.2311   85.0258   66.0073 H   0  0  0  0  0  0  0  0  0  0  0  0
   38.4465   84.7530   60.7771 H   0  0  0  0  0  0  0  0  0  0  0  0
   40.0084   85.5567   61.0425 H   0  0  0  0  0  0  0  0  0  0  0  0
   38.5128   85.0944   58.5227 H   0  0  0  0  0  0  0  0  0  0  0  0
   39.8006   86.2682   58.8472 H   0  0  0  0  0  0  0  0  0  0  0  0
   40.1382   84.0578   57.2958 H   0  0  0  0  0  0  0  0  0  0  0  0
   41.4691   84.7787   58.2158 H   0  0  0  0  0  0  0  0  0  0  0  0
   41.5388   82.6207   59.1379 H   0  0  0  0  0  0  0  0  0  0  0  0
   39.2717   81.6283   59.5201 H   0  0  0  0  0  0  0  0  0  0  0  0
   43.5582   78.8533   61.4460 H   0  0  0  0  0  0  0  0  0  0  0  0
   45.1920   77.0779   62.4190 H   0  0  0  0  0  0  0  0  0  0  0  0
   47.0917   77.6544   64.8786 H   0  0  0  0  0  0  0  0  0  0  0  0
   47.6546   77.0690   63.2663 H   0  0  0  0  0  0  0  0  0  0  0  0
   52.6212   81.8503   64.5960 H   0  0  0  0  0  0  0  0  0  0  0  0
   52.8755   80.3709   63.9494 H   0  0  0  0  0  0  0  0  0  0  0  0
   50.1093   81.9461   64.0098 H   0  0  0  0  0  0  0  0  0  0  0  0
   48.3274   79.2551   61.9568 H   0  0  0  0  0  0  0  0  0  0  0  0
   49.6210   78.0062   62.3388 H   0  0  0  0  0  0  0  0  0  0  0  0
   47.9246   79.7468   68.2859 H   0  0  0  0  0  0  0  0  0  0  0  0
  1  6  1  0
  1  7  1  0
  2  1  2  0
  3  4  2  0
  3  2  1  0
  4  5  1  0
  5 20  1  0
  5  6  2  0
  7 11  1  0
  8  7  2  0
  8  9  1  0
  9 10  1  0
 11 10  2  0
 12  8  1  0
 13 12  2  0
 14 12  1  0
 15 14  1  0
 16 15  1  0
 17 16  1  0
 17 18  1  0
 18 14  1  0
 19 18  1  0
 20 24  1  0
 21 20  2  0
 21 22  1  0
 22 23  1  0
 23 25  1  0
 24 23  2  0
 25 26  1  0
 26 27  2  0
 27 35  1  0
 28 27  1  0
 28 29  1  0
 29 30  2  0
 31 29  1  0
 32 33  1  0
 32 31  1  0
 32 28  1  0
 33 34  1  0
 34 26  1  0
 35 36  2  0
 35 37  1  0
  2 38  1  0
  3 39  1  0
  9 40  1  0
 10 41  1  0
 15 42  1  0
 15 43  1  0
 16 44  1  0
 16 45  1  0
 17 46  1  0
 17 47  1  0
 18 48  1  1
 19 49  1  0
 21 50  1  0
 22 51  1  0
 25 52  1  0
 25 53  1  0
 31 54  1  0
 31 55  1  0
 32 56  1  6
 34 57  1  0
 34 58  1  0
 37 59  1  0
M  END
>  <Score>  (1) 
-7.16209

>  <Score_dual>  (1) 
-8.76

>  <Choices>  (1) 
[None, 6, ['23-9', 180], 14, ['5-8', 345], 18, ['13-1', 120], 30, ['2-1', 330], 31, ['23-6', 210], 38, ['55-12', 240]]

$$$$
