
     RDKit          3D

 40 44  0  0  0  0  0  0  0  0999 V2000
   38.4440   77.2530   58.3500 Cl  0  0  0  0  0  0  0  0  0  0  0  0
   39.8170   76.7030   59.2770 C   0  0  0  0  0  0  0  0  0  0  0  0
   40.6890   77.6170   59.7900 C   0  0  0  0  0  0  0  0  0  0  0  0
   41.7570   77.0850   60.5300 C   0  0  0  0  0  0  0  0  0  0  0  0
   41.9170   75.7400   60.7240 C   0  0  0  0  0  0  0  0  0  0  0  0
   41.0280   74.8520   60.1970 C   0  0  0  0  0  0  0  0  0  0  0  0
   39.9530   75.3430   59.4570 C   0  0  0  0  0  0  0  0  0  0  0  0
   41.5920   72.8420   61.5160 C   0  0  0  0  0  0  0  0  0  0  0  0
   41.0990   73.3850   60.3410 C   0  0  0  0  0  0  0  0  0  0  0  0
   40.7090   72.4620   59.3880 C   0  0  0  0  0  0  0  0  0  0  0  0
   40.8110   71.1150   59.6070 C   0  0  0  0  0  0  0  0  0  0  0  0
   40.5150   70.0270   58.8770 N   0  0  0  0  0  0  0  0  0  0  0  0
   40.7940   68.9100   59.5270 N   0  0  0  0  0  0  0  0  0  0  0  0
   41.2910   69.2160   60.7270 C   0  0  0  0  0  0  0  0  0  0  0  0
   41.3010   70.6020   60.7750 C   0  0  0  0  0  0  0  0  0  0  0  0
   41.7030   71.4850   61.7570 C   0  0  0  0  0  0  0  0  0  0  0  0
   40.0870   80.9110   58.1000 C   0  0  0  0  0  0  0  0  0  0  0  0
   40.3210   79.5470   58.2960 C   0  0  0  0  0  0  0  0  0  0  0  0
   40.4650   79.0320   59.5580 C   0  0  0  0  0  0  0  0  0  0  0  0
   40.3790   79.8810   60.6450 N   0  0  0  0  0  0  0  0  0  0  0  0
   40.1540   81.2040   60.4370 C   0  0  0  0  0  0  0  0  0  0  0  0
   40.0060   81.7310   59.1840 N   0  0  0  0  0  0  0  0  0  0  0  0
   40.0610   82.1160   61.5720 C   0  0  0  0  0  0  0  0  0  0  0  0
   39.2800   83.2050   61.8750 C   0  0  0  0  0  0  0  0  0  0  0  0
   39.6840   83.6270   63.1010 N   0  0  0  0  0  0  0  0  0  0  0  0
   40.6730   82.8280   63.5340 C   0  0  0  0  0  0  0  0  0  0  0  0
   40.9290   81.8720   62.5960 N   0  0  0  0  0  0  0  0  0  0  0  0
   42.4922   77.7749   60.9700 H   0  0  0  0  0  0  0  0  0  0  0  0
   42.7715   75.3721   61.3110 H   0  0  0  0  0  0  0  0  0  0  0  0
   39.2188   74.6502   59.0200 H   0  0  0  0  0  0  0  0  0  0  0  0
   41.9157   73.5340   62.3074 H   0  0  0  0  0  0  0  0  0  0  0  0
   40.3063   72.8198   58.4289 H   0  0  0  0  0  0  0  0  0  0  0  0
   40.1190   70.0590   57.9267 H   0  0  0  0  0  0  0  0  0  0  0  0
   41.6219   68.5183   61.5104 H   0  0  0  0  0  0  0  0  0  0  0  0
   42.1039   71.1162   62.7127 H   0  0  0  0  0  0  0  0  0  0  0  0
   39.9699   81.3164   57.0841 H   0  0  0  0  0  0  0  0  0  0  0  0
   40.3905   78.8779   57.4257 H   0  0  0  0  0  0  0  0  0  0  0  0
   38.4883   83.6456   61.2512 H   0  0  0  0  0  0  0  0  0  0  0  0
   39.2949   84.4299   63.6156 H   0  0  0  0  0  0  0  0  0  0  0  0
   41.1957   82.9292   64.4966 H   0  0  0  0  0  0  0  0  0  0  0  0
  1  2  1  0
  2  7  2  0
  2  3  1  0
  3  4  2  0
  4  5  1  0
  6  9  1  0
  6  5  2  0
  7  6  1  0
  8 16  2  0
  9  8  1  0
 10 11  1  0
 10  9  2  0
 11 15  2  0
 12 13  1  0
 12 11  1  0
 13 14  2  0
 14 15  1  0
 15 16  1  0
 17 18  2  0
 17 22  1  0
 18 19  1  0
 19  3  1  0
 19 20  2  0
 21 20  1  0
 21 23  1  0
 22 21  2  0
 23 24  2  0
 23 27  1  0
 24 25  1  0
 25 26  1  0
 27 26  2  0
  4 28  1  0
  5 29  1  0
  7 30  1  0
  8 31  1  0
 10 32  1  0
 12 33  1  0
 14 34  1  0
 16 35  1  0
 17 36  1  0
 18 37  1  0
 24 38  1  0
 25 39  1  0
 26 40  1  0
M  END
>  <Score>  (1) 
-7.38676

>  <Score_dual>  (1) 
-8.47

>  <Choices>  (1) 
[None, 8, ['7-18', 120], 18, ['54-9', 240], 32, ['23-9', 345]]

$$$$
