
     RDKit          3D

 48 51  0  0  0  0  0  0  0  0999 V2000
   40.7890   84.7710   59.8420 C   0  0  0  0  0  0  0  0  0  0  0  0
   39.5000   85.0210   59.4030 C   0  0  0  0  0  0  0  0  0  0  0  0
   39.2390   85.8580   58.3180 C   0  0  0  0  0  0  0  0  0  0  0  0
   40.3020   86.4440   57.6730 C   0  0  0  0  0  0  0  0  0  0  0  0
   41.5790   86.2070   58.0940 C   0  0  0  0  0  0  0  0  0  0  0  0
   41.8180   85.3640   59.1870 C   0  0  0  0  0  0  0  0  0  0  0  0
   40.9360   83.8810   60.9850 C   0  0  0  0  0  0  0  0  0  0  0  0
   41.1200   82.4990   60.8420 C   0  0  0  0  0  0  0  0  0  0  0  0
   41.2550   81.6860   61.9680 C   0  0  0  0  0  0  0  0  0  0  0  0
   41.1990   82.2860   63.1630 N   0  0  0  0  0  0  0  0  0  0  0  0
   41.0220   83.6190   63.3000 C   0  0  0  0  0  0  0  0  0  0  0  0
   40.8860   84.4410   62.2180 N   0  0  0  0  0  0  0  0  0  0  0  0
   41.4430   80.2800   61.8500 N   0  0  0  0  0  0  0  0  0  0  0  0
   42.7830   79.7410   61.7640 C   0  0  0  0  0  0  0  0  0  0  0  0
   42.8290   78.2810   62.1490 C   0  0  0  0  0  0  0  0  0  0  0  0
   41.8480   77.4800   61.3670 C   0  0  0  0  0  0  0  0  0  0  0  0
   40.5050   78.0910   61.1860 C   0  0  0  0  0  0  0  0  0  0  0  0
   40.2980   79.4240   61.8190 C   0  0  0  0  0  0  0  0  0  0  0  0
   40.9560   84.3070   64.6180 C   0  0  0  0  0  0  0  0  0  0  0  0
   39.9730   83.7370   65.4190 F   0  0  0  0  0  0  0  0  0  0  0  0
   40.5730   85.6210   64.4530 F   0  0  0  0  0  0  0  0  0  0  0  0
   42.2060   84.2770   65.2070 F   0  0  0  0  0  0  0  0  0  0  0  0
   43.3570   83.0310   57.9940 Cl  0  0  0  0  0  0  0  0  0  0  0  0
   44.0590   84.1440   59.1570 C   0  0  0  0  0  0  0  0  0  0  0  0
   43.1990   85.1480   59.5900 C   0  0  0  0  0  0  0  0  0  0  0  0
   43.7000   86.0660   60.5170 C   0  0  0  0  0  0  0  0  0  0  0  0
   44.9970   85.9940   60.9970 C   0  0  0  0  0  0  0  0  0  0  0  0
   45.8320   84.9870   60.5520 C   0  0  0  0  0  0  0  0  0  0  0  0
   45.3580   84.0560   59.6260 C   0  0  0  0  0  0  0  0  0  0  0  0
   38.6567   84.5455   59.9252 H   0  0  0  0  0  0  0  0  0  0  0  0
   38.2069   86.0447   57.9864 H   0  0  0  0  0  0  0  0  0  0  0  0
   40.1230   87.1070   56.8137 H   0  0  0  0  0  0  0  0  0  0  0  0
   42.4241   86.6802   57.5725 H   0  0  0  0  0  0  0  0  0  0  0  0
   41.1582   82.0530   59.8372 H   0  0  0  0  0  0  0  0  0  0  0  0
   43.1435   79.8476   60.7302 H   0  0  0  0  0  0  0  0  0  0  0  0
   43.4204   80.2988   62.4659 H   0  0  0  0  0  0  0  0  0  0  0  0
   43.8404   77.8927   61.9585 H   0  0  0  0  0  0  0  0  0  0  0  0
   42.5719   78.1967   63.2152 H   0  0  0  0  0  0  0  0  0  0  0  0
   42.2757   77.3054   60.3687 H   0  0  0  0  0  0  0  0  0  0  0  0
   41.6805   76.5633   61.9514 H   0  0  0  0  0  0  0  0  0  0  0  0
   40.3294   78.2015   60.1057 H   0  0  0  0  0  0  0  0  0  0  0  0
   39.8023   77.4126   61.6919 H   0  0  0  0  0  0  0  0  0  0  0  0
   39.5032   79.9426   61.2627 H   0  0  0  0  0  0  0  0  0  0  0  0
   40.0468   79.2209   62.8705 H   0  0  0  0  0  0  0  0  0  0  0  0
   43.0431   86.8716   60.8769 H   0  0  0  0  0  0  0  0  0  0  0  0
   45.3597   86.7327   61.7269 H   0  0  0  0  0  0  0  0  0  0  0  0
   46.8645   84.9193   60.9253 H   0  0  0  0  0  0  0  0  0  0  0  0
   46.0178   83.2516   59.2688 H   0  0  0  0  0  0  0  0  0  0  0  0
  1  7  1  0
  2  1  2  0
  3  2  1  0
  4  5  1  0
  4  3  2  0
  5  6  2  0
  6 25  1  0
  6  1  1  0
  7 12  1  0
  8  7  2  0
  8  9  1  0
  9 10  2  0
 10 11  1  0
 11 19  1  0
 12 11  2  0
 13  9  1  0
 14 13  1  0
 14 15  1  0
 16 15  1  0
 17 16  1  0
 17 18  1  0
 18 13  1  0
 19 22  1  0
 19 20  1  0
 21 19  1  0
 23 24  1  0
 24 25  2  0
 24 29  1  0
 25 26  1  0
 26 27  2  0
 28 27  1  0
 29 28  2  0
  2 30  1  0
  3 31  1  0
  4 32  1  0
  5 33  1  0
  8 34  1  0
 14 35  1  0
 14 36  1  0
 15 37  1  0
 15 38  1  0
 16 39  1  0
 16 40  1  0
 17 41  1  0
 17 42  1  0
 18 43  1  0
 18 44  1  0
 26 45  1  0
 27 46  1  0
 28 47  1  0
 29 48  1  0
M  END
>  <Score>  (1) 
-7.2133

>  <Score_dual>  (1) 
-7.15

>  <Choices>  (1) 
[None, 6, ['1-28', 270], 14, ['11-14', 45], 22, ['7-16', 0], 32, ['8-4', 90]]

$$$$
