
     RDKit          3D

 46 50  0  0  0  0  0  0  0  0999 V2000
   40.3100   79.1910   60.7580 C   0  0  0  0  0  0  0  0  0  0  0  0
   40.3970   80.5240   60.4920 C   0  0  0  0  0  0  0  0  0  0  0  0
   40.4010   80.9650   59.1520 C   0  0  0  0  0  0  0  0  0  0  0  0
   40.3170   80.0560   58.1040 C   0  0  0  0  0  0  0  0  0  0  0  0
   40.2320   78.7300   58.4530 C   0  0  0  0  0  0  0  0  0  0  0  0
   40.2260   78.2680   59.7460 C   0  0  0  0  0  0  0  0  0  0  0  0
   39.4190   82.4200   61.8750 C   0  0  0  0  0  0  0  0  0  0  0  0
   40.4920   81.6310   61.4450 C   0  0  0  0  0  0  0  0  0  0  0  0
   41.7630   81.9070   61.9540 C   0  0  0  0  0  0  0  0  0  0  0  0
   41.8980   82.9360   62.8490 N   0  0  0  0  0  0  0  0  0  0  0  0
   40.8430   83.6620   63.2300 C   0  0  0  0  0  0  0  0  0  0  0  0
   39.6190   83.4080   62.7510 N   0  0  0  0  0  0  0  0  0  0  0  0
   42.8740   81.1330   61.5440 N   0  0  0  0  0  0  0  0  0  0  0  0
   40.1340   76.8550   60.0890 C   0  0  0  0  0  0  0  0  0  0  0  0
   38.9860   76.1260   60.2520 C   0  0  0  0  0  0  0  0  0  0  0  0
   39.3630   74.8700   60.5670 N   0  0  0  0  0  0  0  0  0  0  0  0
   40.7120   74.7770   60.6080 C   0  0  0  0  0  0  0  0  0  0  0  0
   41.1180   76.0030   60.3120 N   0  0  0  0  0  0  0  0  0  0  0  0
   41.2970   73.5020   60.9300 C   0  0  0  0  0  0  0  0  0  0  0  0
   40.7430   72.3100   60.5160 C   0  0  0  0  0  0  0  0  0  0  0  0
   41.2730   71.0690   60.8050 C   0  0  0  0  0  0  0  0  0  0  0  0
   42.4130   70.9540   61.5390 C   0  0  0  0  0  0  0  0  0  0  0  0
   43.0170   72.1090   61.9840 C   0  0  0  0  0  0  0  0  0  0  0  0
   44.1720   72.0030   62.7290 C   0  0  0  0  0  0  0  0  0  0  0  0
   44.8190   73.1120   63.1990 C   0  0  0  0  0  0  0  0  0  0  0  0
   44.2760   74.3480   62.9020 C   0  0  0  0  0  0  0  0  0  0  0  0
   43.1190   74.4100   62.1540 C   0  0  0  0  0  0  0  0  0  0  0  0
   42.4450   73.3210   61.6670 C   0  0  0  0  0  0  0  0  0  0  0  0
   40.3280   78.5660   63.2840 N   0  0  0  0  0  0  0  0  0  0  0  0
   40.3150   78.8540   62.1380 C   0  0  0  0  0  0  0  0  0  0  0  0
   40.4714   82.0409   58.9340 H   0  0  0  0  0  0  0  0  0  0  0  0
   40.3185   80.3804   57.0529 H   0  0  0  0  0  0  0  0  0  0  0  0
   40.1642   77.9891   57.6427 H   0  0  0  0  0  0  0  0  0  0  0  0
   38.4071   82.2256   61.4900 H   0  0  0  0  0  0  0  0  0  0  0  0
   40.9826   84.4823   63.9495 H   0  0  0  0  0  0  0  0  0  0  0  0
   43.8109   81.3373   61.9200 H   0  0  0  0  0  0  0  0  0  0  0  0
   42.7460   80.3651   60.8695 H   0  0  0  0  0  0  0  0  0  0  0  0
   37.9548   76.4941   60.1463 H   0  0  0  0  0  0  0  0  0  0  0  0
   38.7148   74.0909   60.7506 H   0  0  0  0  0  0  0  0  0  0  0  0
   39.8207   72.3502   59.9178 H   0  0  0  0  0  0  0  0  0  0  0  0
   40.7685   70.1630   60.4380 H   0  0  0  0  0  0  0  0  0  0  0  0
   42.8399   69.9669   61.7703 H   0  0  0  0  0  0  0  0  0  0  0  0
   44.5813   71.0062   62.9498 H   0  0  0  0  0  0  0  0  0  0  0  0
   45.7404   73.0236   63.7933 H   0  0  0  0  0  0  0  0  0  0  0  0
   44.7601   75.2696   63.2574 H   0  0  0  0  0  0  0  0  0  0  0  0
   42.7075   75.4058   61.9323 H   0  0  0  0  0  0  0  0  0  0  0  0
  1 30  1  0
  2  1  2  0
  2  8  1  0
  3  2  1  0
  4  5  1  0
  4  3  2  0
  5  6  2  0
  6 14  1  0
  6  1  1  0
  7 12  2  0
  8  7  1  0
  8  9  2  0
  9 10  1  0
 10 11  2  0
 12 11  1  0
 13  9  1  0
 14 15  2  0
 14 18  1  0
 15 16  1  0
 16 17  1  0
 17 19  1  0
 18 17  2  0
 19 28  2  0
 20 21  2  0
 20 19  1  0
 21 22  1  0
 22 23  2  0
 23 24  1  0
 24 25  2  0
 26 25  1  0
 27 26  2  0
 28 23  1  0
 28 27  1  0
 30 29  3  0
  3 31  1  0
  4 32  1  0
  5 33  1  0
  7 34  1  0
 11 35  1  0
 13 36  1  0
 13 37  1  0
 15 38  1  0
 16 39  1  0
 20 40  1  0
 21 41  1  0
 22 42  1  0
 24 43  1  0
 25 44  1  0
 26 45  1  0
 27 46  1  0
M  END
>  <Score>  (1) 
-7.02693

>  <Score_dual>  (1) 
-7.17

>  <Choices>  (1) 
[None, 8, ['0-3', 0], 8, ['40-21', 255], 20, ['23-6', 0], 29, ['26-23', 0]]

$$$$
