
     RDKit          3D

 40 43  0  0  0  0  0  0  0  0999 V2000
   40.6500   80.8390   59.4880 C   0  0  0  0  0  0  0  0  0  0  0  0
   40.1810   79.6300   59.7950 C   0  0  0  0  0  0  0  0  0  0  0  0
   40.7660   78.5130   59.2590 C   0  0  0  0  0  0  0  0  0  0  0  0
   41.8170   78.7240   58.4260 C   0  0  0  0  0  0  0  0  0  0  0  0
   41.9940   80.5490   58.3900 S   0  0  0  0  0  0  0  0  0  0  0  0
   40.2680   77.1440   59.5800 C   0  0  0  0  0  0  0  0  0  0  0  0
   38.9440   76.9380   59.2580 C   0  0  0  0  0  0  0  0  0  0  0  0
   38.3190   75.7160   59.5000 C   0  0  0  0  0  0  0  0  0  0  0  0
   39.0440   74.7040   60.0670 C   0  0  0  0  0  0  0  0  0  0  0  0
   40.3600   74.9280   60.3790 C   0  0  0  0  0  0  0  0  0  0  0  0
   41.1590   73.9460   60.9580 C   0  0  0  0  0  0  0  0  0  0  0  0
   42.4900   74.1870   61.2690 C   0  0  0  0  0  0  0  0  0  0  0  0
   43.0720   75.4040   61.0170 C   0  0  0  0  0  0  0  0  0  0  0  0
   42.2990   76.3870   60.4440 C   0  0  0  0  0  0  0  0  0  0  0  0
   40.9830   76.1320   60.1430 C   0  0  0  0  0  0  0  0  0  0  0  0
   40.1930   82.1820   59.9350 C   0  0  0  0  0  0  0  0  0  0  0  0
   39.9790   83.1920   59.0010 C   0  0  0  0  0  0  0  0  0  0  0  0
   39.5460   84.4080   59.5640 C   0  0  0  0  0  0  0  0  0  0  0  0
   39.3730   84.5240   60.8890 N   0  0  0  0  0  0  0  0  0  0  0  0
   39.6010   83.5000   61.7460 C   0  0  0  0  0  0  0  0  0  0  0  0
   40.0110   82.3350   61.2460 N   0  0  0  0  0  0  0  0  0  0  0  0
   41.6490   83.8500   63.6810 N   0  0  0  0  0  0  0  0  0  0  0  0
   40.4390   84.1040   64.0280 C   0  0  0  0  0  0  0  0  0  0  0  0
   39.4060   83.6640   63.1460 N   0  0  0  0  0  0  0  0  0  0  0  0
   40.1060   84.7890   65.2280 N   0  0  0  0  0  0  0  0  0  0  0  0
   42.4450   84.1370   64.2660 H   0  0  0  0  0  0  0  0  0  0  0  0
   39.3249   79.5289   60.4782 H   0  0  0  0  0  0  0  0  0  0  0  0
   42.4222   77.9741   57.8956 H   0  0  0  0  0  0  0  0  0  0  0  0
   38.3680   77.7557   58.8001 H   0  0  0  0  0  0  0  0  0  0  0  0
   37.2606   75.5678   59.2395 H   0  0  0  0  0  0  0  0  0  0  0  0
   38.5792   73.7277   60.2690 H   0  0  0  0  0  0  0  0  0  0  0  0
   40.7262   72.9580   61.1736 H   0  0  0  0  0  0  0  0  0  0  0  0
   43.0902   73.3867   61.7265 H   0  0  0  0  0  0  0  0  0  0  0  0
   44.1274   75.5883   61.2663 H   0  0  0  0  0  0  0  0  0  0  0  0
   42.7332   77.3742   60.2275 H   0  0  0  0  0  0  0  0  0  0  0  0
   40.1341   83.0528   57.9209 H   0  0  0  0  0  0  0  0  0  0  0  0
   39.3478   85.2708   58.9110 H   0  0  0  0  0  0  0  0  0  0  0  0
   38.4778   83.4559   63.5409 H   0  0  0  0  0  0  0  0  0  0  0  0
   39.1190   84.9686   65.4616 H   0  0  0  0  0  0  0  0  0  0  0  0
   40.8516   85.1058   65.8641 H   0  0  0  0  0  0  0  0  0  0  0  0
  1  2  2  0
  1 16  1  0
  3  6  1  0
  3  2  1  0
  4  3  2  0
  5  4  1  0
  5  1  1  0
  6 15  2  0
  7  8  2  0
  7  6  1  0
  8  9  1  0
  9 10  2  0
 10 11  1  0
 11 12  2  0
 13 12  1  0
 14 13  2  0
 15 10  1  0
 15 14  1  0
 16 21  2  0
 17 18  2  0
 17 16  1  0
 18 19  1  0
 19 20  2  0
 20 24  1  0
 21 20  1  0
 22 23  2  0
 22 26  1  0
 23 25  1  0
 24 23  1  0
  2 27  1  0
  4 28  1  0
  7 29  1  0
  8 30  1  0
  9 31  1  0
 11 32  1  0
 12 33  1  0
 13 34  1  0
 14 35  1  0
 17 36  1  0
 18 37  1  0
 24 38  1  0
 25 39  1  0
 25 40  1  0
M  END
>  <Score>  (1) 
-7.44682

>  <Score_dual>  (1) 
-7.05

>  <Choices>  (1) 
[None, 6, ['25-21', 60], 15, ['26-25', 15], 32, ['48-11', 90]]

$$$$
