
     RDKit          3D

 37 41  0  0  0  0  0  0  0  0999 V2000
   41.3280   76.5680   59.9120 C   0  0  0  0  0  0  0  0  0  0  0  0
   42.0410   76.2800   58.7730 C   0  0  0  0  0  0  0  0  0  0  0  0
   42.1040   74.9130   58.6300 C   0  0  0  0  0  0  0  0  0  0  0  0
   41.4230   74.4070   59.6950 N   0  0  0  0  0  0  0  0  0  0  0  0
   40.9690   75.4030   60.4430 N   0  0  0  0  0  0  0  0  0  0  0  0
   40.9630   72.2040   58.7610 C   0  0  0  0  0  0  0  0  0  0  0  0
   41.2910   73.0010   59.8590 C   0  0  0  0  0  0  0  0  0  0  0  0
   41.4700   72.3460   61.0610 C   0  0  0  0  0  0  0  0  0  0  0  0
   41.3220   70.9740   61.1310 C   0  0  0  0  0  0  0  0  0  0  0  0
   41.4250   70.0580   62.1220 N   0  0  0  0  0  0  0  0  0  0  0  0
   41.1840   68.8140   61.6780 C   0  0  0  0  0  0  0  0  0  0  0  0
   40.9130   68.8980   60.3650 N   0  0  0  0  0  0  0  0  0  0  0  0
   40.9940   70.1930   60.0270 C   0  0  0  0  0  0  0  0  0  0  0  0
   40.8110   70.8330   58.8090 C   0  0  0  0  0  0  0  0  0  0  0  0
   40.2740   80.3880   60.9640 C   0  0  0  0  0  0  0  0  0  0  0  0
   40.5860   79.5920   61.9830 C   0  0  0  0  0  0  0  0  0  0  0  0
   40.9550   78.3020   61.7670 C   0  0  0  0  0  0  0  0  0  0  0  0
   40.9910   77.8630   60.4920 C   0  0  0  0  0  0  0  0  0  0  0  0
   40.4740   79.3480   59.4820 S   0  0  0  0  0  0  0  0  0  0  0  0
   39.6760   83.9080   59.8830 C   0  0  0  0  0  0  0  0  0  0  0  0
   40.1150   82.5530   59.7940 C   0  0  0  0  0  0  0  0  0  0  0  0
   39.8700   81.7640   60.9340 C   0  0  0  0  0  0  0  0  0  0  0  0
   39.2530   82.3050   62.0180 N   0  0  0  0  0  0  0  0  0  0  0  0
   38.8570   83.5780   62.0620 C   0  0  0  0  0  0  0  0  0  0  0  0
   39.0710   84.3680   60.9940 N   0  0  0  0  0  0  0  0  0  0  0  0
   42.4866   77.0184   58.0902 H   0  0  0  0  0  0  0  0  0  0  0  0
   42.5993   74.3488   57.8261 H   0  0  0  0  0  0  0  0  0  0  0  0
   40.8156   72.7025   57.7916 H   0  0  0  0  0  0  0  0  0  0  0  0
   41.7308   72.9171   61.9642 H   0  0  0  0  0  0  0  0  0  0  0  0
   41.6598   70.2874   63.0983 H   0  0  0  0  0  0  0  0  0  0  0  0
   41.2047   67.8935   62.2799 H   0  0  0  0  0  0  0  0  0  0  0  0
   40.5515   70.2622   57.9052 H   0  0  0  0  0  0  0  0  0  0  0  0
   40.5449   79.9818   63.0108 H   0  0  0  0  0  0  0  0  0  0  0  0
   41.2157   77.6378   62.6042 H   0  0  0  0  0  0  0  0  0  0  0  0
   39.8343   84.5862   59.0315 H   0  0  0  0  0  0  0  0  0  0  0  0
   40.6104   82.1529   58.8971 H   0  0  0  0  0  0  0  0  0  0  0  0
   38.3619   83.9768   62.9597 H   0  0  0  0  0  0  0  0  0  0  0  0
  1  5  2  0
  1 18  1  0
  2  1  1  0
  3  2  2  0
  3  4  1  0
  4  7  1  0
  4  5  1  0
  6 14  2  0
  6  7  1  0
  7  8  2  0
  8  9  1  0
  9 10  1  0
 11 10  1  0
 12 11  2  0
 13 12  1  0
 13  9  2  0
 14 13  1  0
 15 16  2  0
 17 16  1  0
 18 17  2  0
 19 18  1  0
 19 15  1  0
 20 25  2  0
 21 20  1  0
 21 22  2  0
 22 15  1  0
 22 23  1  0
 23 24  2  0
 25 24  1  0
  2 26  1  0
  3 27  1  0
  6 28  1  0
  8 29  1  0
 10 30  1  0
 11 31  1  0
 14 32  1  0
 16 33  1  0
 17 34  1  0
 20 35  1  0
 21 36  1  0
 24 37  1  0
M  END
>  <Score>  (1) 
-7.21655

>  <Score_dual>  (1) 
-7.09

>  <Choices>  (1) 
[None, 8, ['25-21', 150], 16, ['22-8', 60], 23, ['34-12', 30]]

$$$$
