
     RDKit          3D

 45 49  0  0  0  0  0  0  0  0999 V2000
   40.8010   83.8750   60.5540 C   0  0  0  0  0  0  0  0  0  0  0  0
   41.0020   82.4980   60.6490 C   0  0  0  0  0  0  0  0  0  0  0  0
   40.1490   81.6980   61.4090 C   0  0  0  0  0  0  0  0  0  0  0  0
   39.1220   82.3290   62.0450 N   0  0  0  0  0  0  0  0  0  0  0  0
   38.9160   83.6510   61.9640 C   0  0  0  0  0  0  0  0  0  0  0  0
   39.7430   84.4110   61.2310 N   0  0  0  0  0  0  0  0  0  0  0  0
   41.5340   84.8500   59.8300 C   0  0  0  0  0  0  0  0  0  0  0  0
   40.9810   85.2880   58.6030 C   0  0  0  0  0  0  0  0  0  0  0  0
   41.5480   86.2300   57.7600 C   0  0  0  0  0  0  0  0  0  0  0  0
   42.7370   86.7940   58.1190 C   0  0  0  0  0  0  0  0  0  0  0  0
   43.3220   86.4110   59.2910 C   0  0  0  0  0  0  0  0  0  0  0  0
   44.5370   86.9840   59.6620 C   0  0  0  0  0  0  0  0  0  0  0  0
   45.1920   86.6490   60.8350 C   0  0  0  0  0  0  0  0  0  0  0  0
   44.5450   85.6940   61.6170 C   0  0  0  0  0  0  0  0  0  0  0  0
   43.3530   85.1420   61.2390 C   0  0  0  0  0  0  0  0  0  0  0  0
   42.7300   85.4810   60.0940 C   0  0  0  0  0  0  0  0  0  0  0  0
   40.4060   80.3020   61.4600 C   0  0  0  0  0  0  0  0  0  0  0  0
   40.7710   79.6600   62.4830 O   0  0  0  0  0  0  0  0  0  0  0  0
   39.9660   77.6650   61.9550 F   0  0  0  0  0  0  0  0  0  0  0  0
   40.0430   78.1070   60.6530 C   0  0  0  0  0  0  0  0  0  0  0  0
   40.2650   79.4310   60.2750 C   0  0  0  0  0  0  0  0  0  0  0  0
   40.3240   79.7560   58.9500 C   0  0  0  0  0  0  0  0  0  0  0  0
   40.1620   78.7670   58.0110 C   0  0  0  0  0  0  0  0  0  0  0  0
   39.9410   77.4540   58.3780 C   0  0  0  0  0  0  0  0  0  0  0  0
   39.8810   77.1260   59.7170 C   0  0  0  0  0  0  0  0  0  0  0  0
   39.6450   75.7280   60.0580 C   0  0  0  0  0  0  0  0  0  0  0  0
   38.5150   75.0590   60.1810 C   0  0  0  0  0  0  0  0  0  0  0  0
   38.5820   73.7330   60.5180 C   0  0  0  0  0  0  0  0  0  0  0  0
   39.8110   73.1570   60.7100 C   0  0  0  0  0  0  0  0  0  0  0  0
   40.9650   74.5840   60.3980 S   0  0  0  0  0  0  0  0  0  0  0  0
   41.8462   82.0359   60.1163 H   0  0  0  0  0  0  0  0  0  0  0  0
   38.0711   84.1113   62.4972 H   0  0  0  0  0  0  0  0  0  0  0  0
   40.0232   84.8444   58.2935 H   0  0  0  0  0  0  0  0  0  0  0  0
   41.0503   86.5168   56.8219 H   0  0  0  0  0  0  0  0  0  0  0  0
   43.2165   87.5453   57.4743 H   0  0  0  0  0  0  0  0  0  0  0  0
   44.9936   87.7318   58.9969 H   0  0  0  0  0  0  0  0  0  0  0  0
   46.1506   87.1024   61.1275 H   0  0  0  0  0  0  0  0  0  0  0  0
   45.0059   85.3759   62.5638 H   0  0  0  0  0  0  0  0  0  0  0  0
   42.8850   84.3928   61.8945 H   0  0  0  0  0  0  0  0  0  0  0  0
   40.4990   80.7964   58.6388 H   0  0  0  0  0  0  0  0  0  0  0  0
   40.2093   79.0263   56.9430 H   0  0  0  0  0  0  0  0  0  0  0  0
   39.8140   76.6769   57.6099 H   0  0  0  0  0  0  0  0  0  0  0  0
   37.5455   75.5523   60.0175 H   0  0  0  0  0  0  0  0  0  0  0  0
   37.6632   73.1392   60.6329 H   0  0  0  0  0  0  0  0  0  0  0  0
   40.0531   72.1183   60.9793 H   0  0  0  0  0  0  0  0  0  0  0  0
  1  2  2  0
  1  6  1  0
  2  3  1  0
  3 17  1  0
  3  4  2  0
  5  4  1  0
  6  5  2  0
  7 16  1  0
  7  1  1  0
  8  7  2  0
  9 10  2  0
  9  8  1  0
 10 11  1  0
 11 12  1  0
 11 16  2  0
 12 13  2  0
 13 14  1  0
 15 14  2  0
 16 15  1  0
 17 18  2  0
 20 19  1  0
 21 20  2  0
 21 17  1  0
 22 21  1  0
 23 24  1  0
 23 22  2  0
 24 25  2  0
 25 26  1  0
 25 20  1  0
 26 27  2  0
 26 30  1  0
 27 28  1  0
 28 29  2  0
 30 29  1  0
  2 31  1  0
  5 32  1  0
  8 33  1  0
  9 34  1  0
 10 35  1  0
 12 36  1  0
 13 37  1  0
 14 38  1  0
 15 39  1  0
 22 40  1  0
 23 41  1  0
 24 42  1  0
 27 43  1  0
 28 44  1  0
 29 45  1  0
M  END
>  <Score>  (1) 
-7.42445

>  <Score_dual>  (1) 
-7.74

>  <Choices>  (1) 
[None, 8, ['5-9', 180], 8, ['26-25', 345], 27, ['9-4', 240], 37, ['25-16', 330]]

$$$$
