
     RDKit          3D

 48 51  0  0  0  0  0  0  0  0999 V2000
   39.3870   83.6860   61.9570 C   0  0  0  0  0  0  0  0  0  0  0  0
   39.2200   85.6850   58.8600 C   0  0  0  0  0  0  0  0  0  0  0  0
   40.5410   85.6900   58.4080 C   0  0  0  0  0  0  0  0  0  0  0  0
   41.4850   85.0000   59.1730 C   0  0  0  0  0  0  0  0  0  0  0  0
   41.0080   84.4070   60.2590 N   0  0  0  0  0  0  0  0  0  0  0  0
   39.7780   84.3680   60.7340 C   0  0  0  0  0  0  0  0  0  0  0  0
   38.8780   85.0440   59.9770 N   0  0  0  0  0  0  0  0  0  0  0  0
   42.8690   84.7730   58.9690 C   0  0  0  0  0  0  0  0  0  0  0  0
   43.1520   83.4210   59.1820 C   0  0  0  0  0  0  0  0  0  0  0  0
   44.4250   82.9060   59.0640 C   0  0  0  0  0  0  0  0  0  0  0  0
   45.4910   83.7100   58.7270 C   0  0  0  0  0  0  0  0  0  0  0  0
   45.2600   85.0390   58.5120 C   0  0  0  0  0  0  0  0  0  0  0  0
   46.2890   85.8950   58.2000 C   0  0  0  0  0  0  0  0  0  0  0  0
   46.0660   87.2450   58.0110 C   0  0  0  0  0  0  0  0  0  0  0  0
   44.7420   87.6790   58.1570 C   0  0  0  0  0  0  0  0  0  0  0  0
   43.7110   86.8230   58.4680 C   0  0  0  0  0  0  0  0  0  0  0  0
   43.9760   85.4980   58.6420 C   0  0  0  0  0  0  0  0  0  0  0  0
   40.4580   82.7110   62.3480 C   0  0  0  0  0  0  0  0  0  0  0  0
   41.4530   83.8730   64.3080 C   0  0  0  0  0  0  0  0  0  0  0  0
   40.4570   83.7620   64.9940 O   0  0  0  0  0  0  0  0  0  0  0  0
   41.5470   83.5890   62.9260 N   0  0  0  0  0  0  0  0  0  0  0  0
   43.5880   83.4940   63.4880 C   0  0  0  0  0  0  0  0  0  0  0  0
   43.1560   82.5250   62.7810 O   0  0  0  0  0  0  0  0  0  0  0  0
   42.7410   84.2710   64.4520 N   0  0  0  0  0  0  0  0  0  0  0  0
   44.9380   83.4390   62.9890 C   0  0  0  0  0  0  0  0  0  0  0  0
   45.4980   82.3840   63.6140 N   0  0  0  0  0  0  0  0  0  0  0  0
   46.7680   82.2410   63.1790 C   0  0  0  0  0  0  0  0  0  0  0  0
   46.9990   83.2880   62.3510 N   0  0  0  0  0  0  0  0  0  0  0  0
   45.8420   83.9620   62.2140 N   0  0  0  0  0  0  0  0  0  0  0  0
   38.4428   83.1468   61.7907 H   0  0  0  0  0  0  0  0  0  0  0  0
   39.2502   84.4237   62.7614 H   0  0  0  0  0  0  0  0  0  0  0  0
   38.4492   86.2188   58.2848 H   0  0  0  0  0  0  0  0  0  0  0  0
   40.8274   86.2166   57.4857 H   0  0  0  0  0  0  0  0  0  0  0  0
   42.3291   82.7435   59.4536 H   0  0  0  0  0  0  0  0  0  0  0  0
   44.5925   81.8335   59.2422 H   0  0  0  0  0  0  0  0  0  0  0  0
   46.5042   83.2920   58.6332 H   0  0  0  0  0  0  0  0  0  0  0  0
   47.3096   85.4974   58.0989 H   0  0  0  0  0  0  0  0  0  0  0  0
   46.8813   87.9395   57.7602 H   0  0  0  0  0  0  0  0  0  0  0  0
   44.5179   88.7468   58.0174 H   0  0  0  0  0  0  0  0  0  0  0  0
   42.6846   87.2039   58.5749 H   0  0  0  0  0  0  0  0  0  0  0  0
   40.0860   82.0003   63.1007 H   0  0  0  0  0  0  0  0  0  0  0  0
   40.8068   82.0987   61.5034 H   0  0  0  0  0  0  0  0  0  0  0  0
   42.3133   83.9587   62.3454 H   0  0  0  0  0  0  0  0  0  0  0  0
   43.0804   84.9857   65.1115 H   0  0  0  0  0  0  0  0  0  0  0  0
   47.4675   82.2632   64.0276 H   0  0  0  0  0  0  0  0  0  0  0  0
   46.9115   81.2801   62.6633 H   0  0  0  0  0  0  0  0  0  0  0  0
   47.7184   83.9039   62.7560 H   0  0  0  0  0  0  0  0  0  0  0  0
   45.6950   84.7687   61.5906 H   0  0  0  0  0  0  0  0  0  0  0  0
  1 18  1  0
  2  7  2  0
  3  2  1  0
  3  4  2  0
  4  5  1  0
  5  6  2  0
  6  1  1  0
  7  6  1  0
  8  4  1  0
  8  9  2  0
 10  9  1  0
 11 10  2  0
 12 17  2  0
 12 11  1  0
 13 12  1  0
 14 15  1  0
 14 13  2  0
 15 16  2  0
 16 17  1  0
 17  8  1  0
 18 21  1  0
 19 24  1  0
 19 20  2  0
 21 19  1  0
 22 24  1  0
 23 22  2  0
 25 22  1  0
 25 26  2  0
 27 26  1  0
 28 27  1  0
 29 28  1  0
 29 25  1  0
  1 30  1  0
  1 31  1  0
  2 32  1  0
  3 33  1  0
  9 34  1  0
 10 35  1  0
 11 36  1  0
 13 37  1  0
 14 38  1  0
 15 39  1  0
 16 40  1  0
 18 41  1  0
 18 42  1  0
 21 43  1  0
 24 44  1  0
 27 45  1  0
 27 46  1  0
 28 47  1  0
 29 48  1  0
M  END
>  <Score>  (1) 
-7.23006

>  <Score_dual>  (1) 
-7.51

>  <Choices>  (1) 
[None, 9, ['4-11', 75], 15, ['12-5', 345], 18, ['12-20', 150], 22, ['57-11', 60], 31, ['26-24', 345]]

$$$$
