
     RDKit          3D

 51 56  0  0  1  0  0  0  0  0999 V2000
   42.2300   80.2460   61.7350 C   0  0  0  0  0  0  0  0  0  0  0  0
   40.8850   80.3360   61.3480 C   0  0  0  0  0  0  0  0  0  0  0  0
   40.1110   79.2030   61.1660 C   0  0  0  0  0  0  0  0  0  0  0  0
   40.6760   77.9650   61.3680 C   0  0  0  0  0  0  0  0  0  0  0  0
   42.0270   77.8930   61.7560 C   0  0  0  0  0  0  0  0  0  0  0  0
   42.8260   79.0190   61.9480 C   0  0  0  0  0  0  0  0  0  0  0  0
   40.3410   83.6300   59.8700 C   0  0  0  0  0  0  0  0  0  0  0  0
   39.4380   84.2490   60.7410 C   0  0  0  0  0  0  0  0  0  0  0  0
   39.0020   83.5170   61.8680 C   0  0  0  0  0  0  0  0  0  0  0  0
   39.4880   82.2450   62.0430 N   0  0  0  0  0  0  0  0  0  0  0  0
   40.3640   81.6930   61.1650 C   0  0  0  0  0  0  0  0  0  0  0  0
   40.7660   82.3860   60.1140 N   0  0  0  0  0  0  0  0  0  0  0  0
   40.7900   84.3600   58.7240 C   0  0  0  0  0  0  0  0  0  0  0  0
   40.5460   85.7200   58.4490 C   0  0  0  0  0  0  0  0  0  0  0  0
   41.1650   85.9720   57.2400 N   0  0  0  0  0  0  0  0  0  0  0  0
   41.7630   84.8160   56.7930 C   0  0  0  0  0  0  0  0  0  0  0  0
   41.5290   83.8460   57.7000 N   0  0  0  0  0  0  0  0  0  0  0  0
   42.4790   84.6530   55.6260 O   0  0  0  0  0  0  0  0  0  0  0  0
   43.0880   81.3210   61.9400 O   0  0  0  0  0  0  0  0  0  0  0  0
   44.1220   78.8580   62.3330 O   0  0  0  0  0  0  0  0  0  0  0  0
   44.9380   77.7330   62.2920 C   0  0  1  0  0  0  0  0  0  0  0  0
   46.2870   77.8300   62.9310 C   0  0  0  0  0  0  0  0  0  0  0  0
   45.1920   77.1660   63.6820 C   0  0  2  0  0  0  0  0  0  0  0  0
   45.1380   75.6770   63.7200 C   0  0  0  0  0  0  0  0  0  0  0  0
   44.2030   74.9280   63.1110 N   0  0  0  0  0  0  0  0  0  0  0  0
   44.1720   73.5860   63.1070 C   0  0  0  0  0  0  0  0  0  0  0  0
   45.1080   72.8610   63.7370 N   0  0  0  0  0  0  0  0  0  0  0  0
   46.0950   73.5240   64.3840 C   0  0  0  0  0  0  0  0  0  0  0  0
   47.0570   72.7900   65.0480 C   0  0  0  0  0  0  0  0  0  0  0  0
   48.0720   73.4280   65.7330 C   0  0  0  0  0  0  0  0  0  0  0  0
   48.1020   74.8260   65.7390 C   0  0  0  0  0  0  0  0  0  0  0  0
   47.1060   75.4850   65.0510 C   0  0  0  0  0  0  0  0  0  0  0  0
   46.0850   74.9020   64.3590 C   0  0  0  0  0  0  0  0  0  0  0  0
   39.0571   79.2914   60.8636 H   0  0  0  0  0  0  0  0  0  0  0  0
   40.0832   77.0489   61.2289 H   0  0  0  0  0  0  0  0  0  0  0  0
   42.4738   76.9006   61.9154 H   0  0  0  0  0  0  0  0  0  0  0  0
   39.0793   85.2720   60.5545 H   0  0  0  0  0  0  0  0  0  0  0  0
   38.2924   83.9544   62.5858 H   0  0  0  0  0  0  0  0  0  0  0  0
   39.9807   86.4324   59.0677 H   0  0  0  0  0  0  0  0  0  0  0  0
   41.1770   86.8789   56.7518 H   0  0  0  0  0  0  0  0  0  0  0  0
   42.8679   83.7703   55.4030 H   0  0  0  0  0  0  0  0  0  0  0  0
   42.7605   82.2467   61.8140 H   0  0  0  0  0  0  0  0  0  0  0  0
   44.5930   77.3738   61.3112 H   0  0  0  0  0  0  0  0  0  0  0  0
   47.1215   77.2304   62.5384 H   0  0  0  0  0  0  0  0  0  0  0  0
   46.9772   78.6583   63.1490 H   0  0  0  0  0  0  0  0  0  0  0  0
   44.8008   77.2972   64.7017 H   0  0  0  0  0  0  0  0  0  0  0  0
   43.3601   73.0690   62.5746 H   0  0  0  0  0  0  0  0  0  0  0  0
   47.0148   71.6909   65.0314 H   0  0  0  0  0  0  0  0  0  0  0  0
   48.8417   72.8481   66.2634 H   0  0  0  0  0  0  0  0  0  0  0  0
   48.8899   75.3783   66.2721 H   0  0  0  0  0  0  0  0  0  0  0  0
   47.1373   76.5845   65.0608 H   0  0  0  0  0  0  0  0  0  0  0  0
  1 19  1  0
  1  6  2  0
  2  1  1  0
  3  2  2  0
  3  4  1  0
  4  5  2  0
  5  6  1  0
  6 20  1  0
  7 12  1  0
  7  8  2  0
  8  9  1  0
  9 10  2  0
 11  2  1  0
 11 10  1  0
 12 11  2  0
 13  7  1  0
 14 13  2  0
 15 14  1  0
 16 15  1  0
 16 17  2  0
 17 13  1  0
 18 16  1  0
 21 20  1  0
 21 22  1  0
 21 23  1  0
 22 23  1  0
 23 24  1  0
 24 33  1  0
 25 24  2  0
 26 25  1  0
 26 27  2  0
 27 28  1  0
 28 29  1  0
 29 30  2  0
 30 31  1  0
 32 31  2  0
 33 28  2  0
 33 32  1  0
  3 34  1  0
  4 35  1  0
  5 36  1  0
  8 37  1  0
  9 38  1  0
 14 39  1  0
 15 40  1  0
 18 41  1  0
 19 42  1  0
 21 43  1  6
 22 44  1  0
 22 45  1  0
 23 46  1  1
 26 47  1  0
 29 48  1  0
 30 49  1  0
 31 50  1  0
 32 51  1  0
M  END
>  <Score>  (1) 
-7.11078

>  <Score_dual>  (1) 
-8.89

>  <Choices>  (1) 
[None, 6, ['23-9', 180], 13, ['35-25', 255], 28, ['16-16', 165], 35, ['2-1', 255], 36, ['47-22', 345]]

$$$$
