
     RDKit          3D

 44 47  0  0  0  0  0  0  0  0999 V2000
   43.5400   85.6600   60.5850 C   0  0  0  0  0  0  0  0  0  0  0  0
   42.7500   85.1970   59.5480 C   0  0  0  0  0  0  0  0  0  0  0  0
   42.4710   85.9390   58.4080 C   0  0  0  0  0  0  0  0  0  0  0  0
   42.9880   87.1610   58.3040 N   0  0  0  0  0  0  0  0  0  0  0  0
   43.7590   87.6050   59.3240 C   0  0  0  0  0  0  0  0  0  0  0  0
   44.0200   86.8790   60.4170 N   0  0  0  0  0  0  0  0  0  0  0  0
   44.3370   88.9730   59.2050 C   0  0  0  0  0  0  0  0  0  0  0  0
   45.5400   88.9710   58.5360 F   0  0  0  0  0  0  0  0  0  0  0  0
   43.4680   89.8250   58.5490 F   0  0  0  0  0  0  0  0  0  0  0  0
   44.5290   89.5220   60.4690 F   0  0  0  0  0  0  0  0  0  0  0  0
   43.7820   84.7850   61.7690 C   0  0  0  0  0  0  0  0  0  0  0  0
   44.9940   84.7820   62.1310 O   0  0  0  0  0  0  0  0  0  0  0  0
   41.0370   83.8490   64.0960 C   0  0  0  0  0  0  0  0  0  0  0  0
   42.0660   84.5940   63.4870 C   0  0  0  0  0  0  0  0  0  0  0  0
   42.7340   84.0470   62.4010 C   0  0  0  0  0  0  0  0  0  0  0  0
   42.3270   82.8250   62.0190 N   0  0  0  0  0  0  0  0  0  0  0  0
   41.3520   82.1150   62.5930 C   0  0  0  0  0  0  0  0  0  0  0  0
   40.7140   82.6320   63.6250 N   0  0  0  0  0  0  0  0  0  0  0  0
   41.0540   80.7890   62.0230 C   0  0  0  0  0  0  0  0  0  0  0  0
   41.0840   80.5060   60.6970 C   0  0  0  0  0  0  0  0  0  0  0  0
   40.7940   79.2420   60.2320 C   0  0  0  0  0  0  0  0  0  0  0  0
   40.4730   78.2740   61.1460 C   0  0  0  0  0  0  0  0  0  0  0  0
   40.4400   78.5590   62.5060 C   0  0  0  0  0  0  0  0  0  0  0  0
   40.7340   79.8100   62.8830 N   0  0  0  0  0  0  0  0  0  0  0  0
   41.6260   85.3580   57.3720 C   0  0  0  0  0  0  0  0  0  0  0  0
   40.8120   86.0740   56.7140 O   0  0  0  0  0  0  0  0  0  0  0  0
   39.9360   83.4140   59.0100 Cl  0  0  0  0  0  0  0  0  0  0  0  0
   40.9170   82.9300   57.6210 C   0  0  0  0  0  0  0  0  0  0  0  0
   41.6220   83.9390   56.9920 C   0  0  0  0  0  0  0  0  0  0  0  0
   42.4090   83.6120   55.8940 C   0  0  0  0  0  0  0  0  0  0  0  0
   42.5200   82.3120   55.3990 C   0  0  0  0  0  0  0  0  0  0  0  0
   41.7890   81.3310   56.0690 C   0  0  0  0  0  0  0  0  0  0  0  0
   41.8710   79.6640   55.5120 Cl  0  0  0  0  0  0  0  0  0  0  0  0
   41.0090   81.6360   57.1520 C   0  0  0  0  0  0  0  0  0  0  0  0
   42.3202   84.1878   59.6309 H   0  0  0  0  0  0  0  0  0  0  0  0
   40.4964   84.2643   64.9593 H   0  0  0  0  0  0  0  0  0  0  0  0
   42.3349   85.5912   63.8656 H   0  0  0  0  0  0  0  0  0  0  0  0
   41.3443   81.2991   59.9806 H   0  0  0  0  0  0  0  0  0  0  0  0
   40.8196   79.0164   59.1557 H   0  0  0  0  0  0  0  0  0  0  0  0
   40.2380   77.2569   60.7991 H   0  0  0  0  0  0  0  0  0  0  0  0
   40.1821   77.7860   63.2449 H   0  0  0  0  0  0  0  0  0  0  0  0
   42.9698   84.4144   55.3924 H   0  0  0  0  0  0  0  0  0  0  0  0
   43.1491   82.0741   54.5286 H   0  0  0  0  0  0  0  0  0  0  0  0
   40.4466   80.8363   57.6563 H   0  0  0  0  0  0  0  0  0  0  0  0
  1 11  1  0
  2  1  2  0
  3  2  1  0
  4  3  2  0
  4  5  1  0
  5  6  2  0
  6  1  1  0
  7  5  1  0
  7 10  1  0
  8  7  1  0
  9  7  1  0
 11 12  2  0
 11 15  1  0
 14 13  2  0
 15 14  1  0
 16 15  2  0
 16 17  1  0
 17 18  2  0
 18 13  1  0
 19 17  1  0
 19 24  1  0
 20 19  2  0
 21 20  1  0
 21 22  2  0
 22 23  1  0
 23 24  2  0
 25  3  1  0
 26 25  2  0
 28 27  1  0
 29 25  1  0
 29 28  2  0
 30 29  1  0
 31 30  2  0
 31 32  1  0
 32 34  2  0
 33 32  1  0
 34 28  1  0
  2 35  1  0
 13 36  1  0
 14 37  1  0
 20 38  1  0
 21 39  1  0
 22 40  1  0
 23 41  1  0
 30 42  1  0
 31 43  1  0
 34 44  1  0
M  END
>  <Score>  (1) 
-7.22537

>  <Score_dual>  (1) 
-7.26

>  <Choices>  (1) 
[None, 8, ['5-9', 180], 10, ['6-16', 285], 20, ['19-5', 120], 28, ['11-12', 15], 31, ['5-7', 60], 33, ['29-7', 315]]

$$$$
