
     RDKit          3D

 50 54  0  0  1  0  0  0  0  0999 V2000
   40.8340   82.0130   58.7920 N   0  0  0  0  0  0  0  0  0  0  0  0
   40.7420   82.5290   57.3950 C   0  0  0  0  0  0  0  0  0  0  0  0
   41.9070   82.0340   56.5740 C   0  0  0  0  0  0  0  0  0  0  0  0
   41.7970   80.5540   56.3910 C   0  0  0  0  0  0  0  0  0  0  0  0
   41.2300   79.9390   57.7420 C   0  0  1  0  0  0  0  0  0  0  0  0
   41.6790   80.8420   58.8270 C   0  0  0  0  0  0  0  0  0  0  0  0
   39.6430   83.9120   59.8880 C   0  0  0  0  0  0  0  0  0  0  0  0
   40.1610   82.6460   59.8300 C   0  0  0  0  0  0  0  0  0  0  0  0
   40.0040   81.8660   60.9700 C   0  0  0  0  0  0  0  0  0  0  0  0
   39.3600   82.3810   62.0650 N   0  0  0  0  0  0  0  0  0  0  0  0
   38.8760   83.6270   62.0570 C   0  0  0  0  0  0  0  0  0  0  0  0
   39.0160   84.3800   60.9850 N   0  0  0  0  0  0  0  0  0  0  0  0
   39.8300   79.9440   57.5850 O   0  0  0  0  0  0  0  0  0  0  0  0
   39.9660   77.8740   59.7640 Cl  0  0  0  0  0  0  0  0  0  0  0  0
   38.9710   77.8920   58.3520 C   0  0  0  0  0  0  0  0  0  0  0  0
   39.0130   78.8960   57.4440 C   0  0  0  0  0  0  0  0  0  0  0  0
   38.1600   78.8250   56.3110 C   0  0  0  0  0  0  0  0  0  0  0  0
   37.2810   77.7430   56.1130 C   0  0  0  0  0  0  0  0  0  0  0  0
   37.2860   76.7360   57.0900 C   0  0  0  0  0  0  0  0  0  0  0  0
   38.1260   76.8230   58.1940 C   0  0  0  0  0  0  0  0  0  0  0  0
   38.0410   75.7960   59.0780 O   0  0  0  0  0  0  0  0  0  0  0  0
   39.2600   74.1810   58.1250 C   0  0  0  0  0  0  0  0  0  0  0  0
   38.8390   74.7430   59.3420 C   0  0  0  0  0  0  0  0  0  0  0  0
   39.3210   74.1100   60.4670 C   0  0  0  0  0  0  0  0  0  0  0  0
   40.1490   73.0130   60.4090 C   0  0  0  0  0  0  0  0  0  0  0  0
   40.5590   72.4690   59.2150 C   0  0  0  0  0  0  0  0  0  0  0  0
   40.1050   73.0650   58.0630 C   0  0  0  0  0  0  0  0  0  0  0  0
   41.3760   71.3870   59.4940 O   0  0  0  0  0  0  0  0  0  0  0  0
   41.5740   71.2750   60.8880 C   0  0  0  0  0  0  0  0  0  0  0  0
   40.7090   72.2780   61.4360 O   0  0  0  0  0  0  0  0  0  0  0  0
   39.8035   82.1790   56.9404 H   0  0  0  0  0  0  0  0  0  0  0  0
   40.7635   83.6285   57.4185 H   0  0  0  0  0  0  0  0  0  0  0  0
   41.8975   82.5265   55.5904 H   0  0  0  0  0  0  0  0  0  0  0  0
   42.8473   82.2695   57.0939 H   0  0  0  0  0  0  0  0  0  0  0  0
   41.1113   80.3294   55.5607 H   0  0  0  0  0  0  0  0  0  0  0  0
   42.7805   80.1217   56.1547 H   0  0  0  0  0  0  0  0  0  0  0  0
   41.5703   78.9194   57.9756 H   0  0  0  0  0  0  0  0  0  0  0  0
   42.7282   81.1305   58.6660 H   0  0  0  0  0  0  0  0  0  0  0  0
   41.6079   80.3409   59.8036 H   0  0  0  0  0  0  0  0  0  0  0  0
   39.7419   84.5683   59.0108 H   0  0  0  0  0  0  0  0  0  0  0  0
   40.3955   80.8383   60.9933 H   0  0  0  0  0  0  0  0  0  0  0  0
   38.3613   84.0233   62.9447 H   0  0  0  0  0  0  0  0  0  0  0  0
   38.1866   79.6364   55.5687 H   0  0  0  0  0  0  0  0  0  0  0  0
   36.6217   77.6897   55.2341 H   0  0  0  0  0  0  0  0  0  0  0  0
   36.6182   75.8687   56.9811 H   0  0  0  0  0  0  0  0  0  0  0  0
   38.9129   74.6345   57.1849 H   0  0  0  0  0  0  0  0  0  0  0  0
   39.0311   74.4987   61.4543 H   0  0  0  0  0  0  0  0  0  0  0  0
   40.4073   72.6629   57.0848 H   0  0  0  0  0  0  0  0  0  0  0  0
   41.2899   70.2742   61.2453 H   0  0  0  0  0  0  0  0  0  0  0  0
   42.6252   71.4122   61.1815 H   0  0  0  0  0  0  0  0  0  0  0  0
  1  6  1  0
  1  8  1  0
  2  1  1  0
  3  2  1  0
  4  3  1  0
  4  5  1  0
  5  6  1  0
  7 12  2  0
  8  7  1  0
  8  9  2  0
  9 10  1  0
 11 10  2  0
 12 11  1  0
 13  5  1  0
 15 14  1  0
 16 13  1  0
 16 15  2  0
 17 16  1  0
 18 17  2  0
 18 19  1  0
 19 20  2  0
 20 15  1  0
 20 21  1  0
 21 23  1  0
 22 23  2  0
 23 24  1  0
 25 24  2  0
 25 30  1  0
 26 28  1  0
 26 25  1  0
 27 22  1  0
 27 26  2  0
 28 29  1  0
 29 30  1  0
  2 31  1  0
  2 32  1  0
  3 33  1  0
  3 34  1  0
  4 35  1  0
  4 36  1  0
  5 37  1  1
  6 38  1  0
  6 39  1  0
  7 40  1  0
  9 41  1  0
 11 42  1  0
 17 43  1  0
 18 44  1  0
 19 45  1  0
 22 46  1  0
 24 47  1  0
 27 48  1  0
 29 49  1  0
 29 50  1  0
M  END
>  <Score>  (1) 
-7.00593

>  <Score_dual>  (1) 
-7.03

>  <Choices>  (1) 
[None, 7, ['8-4', 180], 21, ['2-1', 0], 25, ['7-8', 225], 35, ['2-1', 0], 36, ['52-7', 315]]

$$$$
