
     RDKit          3D

 51 56  0  0  1  0  0  0  0  0999 V2000
   40.7110   81.1060   57.1250 C   0  0  1  0  0  0  0  0  0  0  0  0
   40.3630   79.9290   57.8780 C   0  0  0  0  0  0  0  0  0  0  0  0
   39.2150   80.7340   57.3040 C   0  0  2  0  0  0  0  0  0  0  0  0
   41.2690   83.5670   59.9290 C   0  0  0  0  0  0  0  0  0  0  0  0
   40.9730   82.4840   59.1990 C   0  0  0  0  0  0  0  0  0  0  0  0
   41.0840   82.3950   57.7950 C   0  0  0  0  0  0  0  0  0  0  0  0
   41.5260   83.4890   57.1170 C   0  0  0  0  0  0  0  0  0  0  0  0
   41.8250   84.5900   57.8890 C   0  0  0  0  0  0  0  0  0  0  0  0
   41.7120   84.6570   59.2270 N   0  0  0  0  0  0  0  0  0  0  0  0
   40.1780   83.0980   62.1470 C   0  0  0  0  0  0  0  0  0  0  0  0
   41.1580   83.6470   61.3580 C   0  0  0  0  0  0  0  0  0  0  0  0
   42.1650   84.3720   62.0470 C   0  0  0  0  0  0  0  0  0  0  0  0
   42.1320   84.4980   63.4050 N   0  0  0  0  0  0  0  0  0  0  0  0
   41.1460   83.9360   64.1120 C   0  0  0  0  0  0  0  0  0  0  0  0
   40.1880   83.2500   63.4950 N   0  0  0  0  0  0  0  0  0  0  0  0
   38.5640   80.1000   56.0820 C   0  0  2  0  0  0  0  0  0  0  0  0
   37.3200   80.5680   55.4860 C   0  0  0  0  0  0  0  0  0  0  0  0
   37.2740   79.3610   56.3640 C   0  0  1  0  0  0  0  0  0  0  0  0
   37.0990   77.9870   55.8030 C   0  0  0  0  0  0  0  0  0  0  0  0
   37.7120   76.9120   56.6230 C   0  0  0  0  0  0  0  0  0  0  0  0
   38.1470   75.7870   55.9140 C   0  0  0  0  0  0  0  0  0  0  0  0
   38.7440   74.6830   56.4970 C   0  0  0  0  0  0  0  0  0  0  0  0
   38.9200   74.6920   57.8720 C   0  0  0  0  0  0  0  0  0  0  0  0
   39.4960   73.6390   58.4880 N   0  0  0  0  0  0  0  0  0  0  0  0
   39.6730   73.6380   59.8320 C   0  0  0  0  0  0  0  0  0  0  0  0
   39.2540   74.7330   60.5540 C   0  0  0  0  0  0  0  0  0  0  0  0
   38.6630   75.8220   59.9570 C   0  0  0  0  0  0  0  0  0  0  0  0
   38.4940   75.7940   58.5760 C   0  0  0  0  0  0  0  0  0  0  0  0
   37.9060   76.8790   57.9890 C   0  0  0  0  0  0  0  0  0  0  0  0
   41.4319   81.2549   56.3076 H   0  0  0  0  0  0  0  0  0  0  0  0
   40.5875   78.9355   57.4626 H   0  0  0  0  0  0  0  0  0  0  0  0
   40.6098   79.5765   58.8903 H   0  0  0  0  0  0  0  0  0  0  0  0
   38.3085   81.2298   57.6815 H   0  0  0  0  0  0  0  0  0  0  0  0
   40.6150   81.5934   59.7363 H   0  0  0  0  0  0  0  0  0  0  0  0
   41.6374   83.4938   56.0227 H   0  0  0  0  0  0  0  0  0  0  0  0
   42.1861   85.4887   57.3676 H   0  0  0  0  0  0  0  0  0  0  0  0
   39.3673   82.5226   61.6762 H   0  0  0  0  0  0  0  0  0  0  0  0
   42.9830   84.8385   61.4784 H   0  0  0  0  0  0  0  0  0  0  0  0
   41.1271   84.0413   65.2068 H   0  0  0  0  0  0  0  0  0  0  0  0
   39.5505   79.9078   55.6349 H   0  0  0  0  0  0  0  0  0  0  0  0
   36.8708   81.5109   55.8314 H   0  0  0  0  0  0  0  0  0  0  0  0
   36.9945   80.7818   54.4573 H   0  0  0  0  0  0  0  0  0  0  0  0
   36.6855   79.0713   57.2470 H   0  0  0  0  0  0  0  0  0  0  0  0
   36.0213   77.7839   55.7179 H   0  0  0  0  0  0  0  0  0  0  0  0
   37.6132   77.9749   54.8307 H   0  0  0  0  0  0  0  0  0  0  0  0
   38.0054   75.7796   54.8232 H   0  0  0  0  0  0  0  0  0  0  0  0
   39.0685   73.8258   55.8888 H   0  0  0  0  0  0  0  0  0  0  0  0
   40.1419   72.7798   60.3356 H   0  0  0  0  0  0  0  0  0  0  0  0
   39.3967   74.7369   61.6447 H   0  0  0  0  0  0  0  0  0  0  0  0
   38.3346   76.6870   60.5519 H   0  0  0  0  0  0  0  0  0  0  0  0
   37.5858   77.7300   58.6081 H   0  0  0  0  0  0  0  0  0  0  0  0
  1  3  1  0
  1  6  1  0
  1  2  1  0
  3  2  1  0
  4 11  1  0
  5  4  2  0
  6  5  1  0
  7  6  2  0
  7  8  1  0
  8  9  2  0
  9  4  1  0
 10 15  2  0
 11 12  2  0
 11 10  1  0
 12 13  1  0
 13 14  2  0
 15 14  1  0
 16 18  1  0
 16  3  1  0
 17 16  1  0
 17 18  1  0
 19 18  1  0
 19 20  1  0
 20 29  2  0
 21 22  2  0
 21 20  1  0
 22 23  1  0
 23 24  2  0
 23 28  1  0
 24 25  1  0
 25 26  2  0
 27 26  1  0
 28 27  2  0
 29 28  1  0
  1 30  1  6
  2 31  1  0
  2 32  1  0
  3 33  1  1
  5 34  1  0
  7 35  1  0
  8 36  1  0
 10 37  1  0
 12 38  1  0
 14 39  1  0
 16 40  1  6
 17 41  1  0
 17 42  1  0
 18 43  1  1
 19 44  1  0
 19 45  1  0
 21 46  1  0
 22 47  1  0
 25 48  1  0
 26 49  1  0
 27 50  1  0
 29 51  1  0
M  END
>  <Score>  (1) 
-7.40895

>  <Score_dual>  (1) 
-7.3

>  <Choices>  (1) 
[None, 7, ['6-18', 150], 16, ['16-23', 345], 25, ['16-22', 150], 32, ['3-10', 165], 35, ['36-23', 90]]

$$$$
