10-2_60_repair
     RDKit          3D

 28 30  0  0  0  0  0  0  0  0999 V2000
   39.6420   79.5310   58.5230 F   0  0  0  0  0  0  0  0  0  0  0  0
   39.9670   78.9500   59.7170 C   0  0  0  0  0  0  0  0  0  0  0  0
   40.2040   79.7740   60.7480 C   0  0  0  0  0  0  0  0  0  0  0  0
   40.5500   79.1390   61.9470 C   0  0  0  0  0  0  0  0  0  0  0  0
   40.6340   77.7810   62.0310 C   0  0  0  0  0  0  0  0  0  0  0  0
   40.3830   76.9590   60.9350 C   0  0  0  0  0  0  0  0  0  0  0  0
   40.0460   77.5580   59.7700 C   0  0  0  0  0  0  0  0  0  0  0  0
   38.8520   75.4740   58.9960 C   0  0  2  0  0  0  0  0  0  0  0  0
   39.7120   76.7220   58.5950 C   0  0  1  0  0  0  0  0  0  0  0  0
   39.1450   77.3800   57.6270 O   0  0  0  0  0  0  0  0  0  0  0  0
   38.3120   76.6680   56.7610 C   0  0  0  0  0  0  0  0  0  0  0  0
   38.7580   75.2690   56.5360 C   0  0  1  0  0  0  0  0  0  0  0  0
   39.0710   74.5030   57.8450 C   0  0  1  0  0  0  0  0  0  0  0  0
   37.5970   75.8770   59.1390 O   0  0  0  0  0  0  0  0  0  0  0  0
   37.7080   74.5770   55.9260 O   0  0  0  0  0  0  0  0  0  0  0  0
   40.4840   74.2770   57.7080 O   0  0  0  0  0  0  0  0  0  0  0  0
   40.7390   72.9470   57.5770 C   0  0  0  0  0  0  0  0  0  0  0  0
   40.2370   83.1890   59.1250 C   0  0  0  0  0  0  0  0  0  0  0  0
   40.2650   81.8060   59.3120 C   0  0  0  0  0  0  0  0  0  0  0  0
   40.1570   81.2050   60.6060 C   0  0  0  0  0  0  0  0  0  0  0  0
   40.0260   82.0340   61.6420 N   0  0  0  0  0  0  0  0  0  0  0  0
   40.0010   83.3760   61.4350 C   0  0  0  0  0  0  0  0  0  0  0  0
   40.1040   83.9520   60.2030 N   0  0  0  0  0  0  0  0  0  0  0  0
   39.8670   84.2950   62.4690 O   0  0  0  0  0  0  0  0  0  0  0  0
   42.1370   84.5790   63.7580 O   0  0  0  0  0  0  0  0  0  0  0  0
   40.7140   84.1160   63.9380 P   0  0  0  0  0  0  0  0  0  0  0  0
   39.9040   85.0850   65.0800 O   0  0  0  0  0  0  0  0  0  0  0  0
   40.6340   82.4860   64.3850 O   0  0  0  0  0  0  0  0  0  0  0  0
  1  2  1  0
  2  3  2  0
  2  7  1  0
  3  4  1  0
  3 20  1  0
  4  5  2  0
  5  6  1  0
  6  7  2  0
  9  7  1  1
  8  9  1  0
  8 13  1  0
  8 14  1  6
  9 10  1  0
 10 11  1  0
 11 12  1  0
 12 13  1  0
 12 15  1  1
 13 16  1  6
 16 17  1  0
 18 19  2  0
 18 23  1  0
 19 20  1  0
 20 21  2  0
 21 22  1  0
 22 23  2  0
 22 24  1  0
 24 26  1  0
 25 26  2  0
 26 27  1  0
 26 28  1  0
M  END
>  <Score>  (1) 
-7.38534

>  <Score_dual>  (1) 
-7.08

>  <Choices>  (1) 
[None, 8, ['9-19', 105], 19, ['21-23', 315], 36, ['3-3', 0], 39, ['10-2', 60]]

$$$$
