
     RDKit          3D

 39 43  0  0  0  0  0  0  0  0999 V2000
   41.3940   83.7090   61.2500 C   0  0  0  0  0  0  0  0  0  0  0  0
   41.7450   82.3780   61.1210 C   0  0  0  0  0  0  0  0  0  0  0  0
   40.8180   81.3990   61.4390 C   0  0  0  0  0  0  0  0  0  0  0  0
   39.5990   81.7960   61.8650 N   0  0  0  0  0  0  0  0  0  0  0  0
   39.2670   83.0840   61.9860 C   0  0  0  0  0  0  0  0  0  0  0  0
   40.1500   84.0370   61.6830 N   0  0  0  0  0  0  0  0  0  0  0  0
   43.3270   85.2560   61.7480 C   0  0  0  0  0  0  0  0  0  0  0  0
   42.3420   84.7670   60.9250 C   0  0  0  0  0  0  0  0  0  0  0  0
   42.2790   85.3680   59.6720 C   0  0  0  0  0  0  0  0  0  0  0  0
   43.1380   86.3830   59.2720 C   0  0  0  0  0  0  0  0  0  0  0  0
   43.2760   87.1010   58.1500 N   0  0  0  0  0  0  0  0  0  0  0  0
   44.2810   87.9770   58.2740 C   0  0  0  0  0  0  0  0  0  0  0  0
   44.8360   87.8340   59.5350 C   0  0  0  0  0  0  0  0  0  0  0  0
   44.0960   86.8310   60.1230 C   0  0  0  0  0  0  0  0  0  0  0  0
   44.1830   86.2590   61.3660 C   0  0  0  0  0  0  0  0  0  0  0  0
   41.0700   79.9640   61.3440 C   0  0  0  0  0  0  0  0  0  0  0  0
   42.1740   79.3520   61.9310 C   0  0  0  0  0  0  0  0  0  0  0  0
   42.3900   77.9820   61.8260 C   0  0  0  0  0  0  0  0  0  0  0  0
   41.5350   77.2040   61.1500 N   0  0  0  0  0  0  0  0  0  0  0  0
   40.4750   77.8180   60.5900 C   0  0  0  0  0  0  0  0  0  0  0  0
   40.2200   79.1420   60.6640 N   0  0  0  0  0  0  0  0  0  0  0  0
   39.4780   77.0720   59.8310 C   0  0  0  0  0  0  0  0  0  0  0  0
   38.9240   75.8910   60.3250 C   0  0  0  0  0  0  0  0  0  0  0  0
   38.0450   75.4030   59.4510 N   0  0  0  0  0  0  0  0  0  0  0  0
   38.0300   76.2570   58.4030 C   0  0  0  0  0  0  0  0  0  0  0  0
   38.9040   77.2770   58.6330 N   0  0  0  0  0  0  0  0  0  0  0  0
   42.7495   82.0994   60.7697 H   0  0  0  0  0  0  0  0  0  0  0  0
   38.2617   83.3601   62.3368 H   0  0  0  0  0  0  0  0  0  0  0  0
   43.4344   84.8262   62.7548 H   0  0  0  0  0  0  0  0  0  0  0  0
   41.5115   85.0224   58.9638 H   0  0  0  0  0  0  0  0  0  0  0  0
   42.6908   86.9943   57.3091 H   0  0  0  0  0  0  0  0  0  0  0  0
   44.6104   88.6902   57.5040 H   0  0  0  0  0  0  0  0  0  0  0  0
   45.6772   88.3943   59.9690 H   0  0  0  0  0  0  0  0  0  0  0  0
   44.9523   86.6100   62.0696 H   0  0  0  0  0  0  0  0  0  0  0  0
   42.8933   79.9671   62.4917 H   0  0  0  0  0  0  0  0  0  0  0  0
   43.2731   77.5325   62.3036 H   0  0  0  0  0  0  0  0  0  0  0  0
   39.1755   75.4312   61.2921 H   0  0  0  0  0  0  0  0  0  0  0  0
   37.4864   74.5437   59.5535 H   0  0  0  0  0  0  0  0  0  0  0  0
   37.4078   76.1456   57.5028 H   0  0  0  0  0  0  0  0  0  0  0  0
  1  6  1  0
  2  1  2  0
  2  3  1  0
  3  4  2  0
  4  5  1  0
  6  5  2  0
  8  1  1  0
  8  7  2  0
  9  8  1  0
 10  9  2  0
 10 14  1  0
 11 12  1  0
 11 10  1  0
 12 13  2  0
 13 14  1  0
 14 15  2  0
 15  7  1  0
 16  3  1  0
 16 17  2  0
 18 17  1  0
 19 18  2  0
 20 21  2  0
 20 19  1  0
 21 16  1  0
 22 23  2  0
 22 20  1  0
 24 23  1  0
 25 26  2  0
 25 24  1  0
 26 22  1  0
  2 27  1  0
  5 28  1  0
  7 29  1  0
  9 30  1  0
 11 31  1  0
 12 32  1  0
 13 33  1  0
 15 34  1  0
 17 35  1  0
 18 36  1  0
 23 37  1  0
 24 38  1  0
 25 39  1  0
M  END
>  <Score>  (1) 
-7.04215

>  <Score_dual>  (1) 
-7.9

>  <Choices>  (1) 
[None, 8, ['19-20', 0], 12, ['24-9', 315], 31, ['23-7', 120]]

$$$$
