
     RDKit          3D

 46 51  0  0  1  0  0  0  0  0999 V2000
   40.7130   81.8460   61.1030 N   0  0  0  0  0  0  0  0  0  0  0  0
   40.1180   80.6660   61.2080 C   0  0  0  0  0  0  0  0  0  0  0  0
   39.7710   80.2410   59.9500 N   0  0  0  0  0  0  0  0  0  0  0  0
   40.1630   81.1780   59.0980 C   0  0  0  0  0  0  0  0  0  0  0  0
   40.0370   81.3800   57.7570 C   0  0  1  0  0  0  0  0  0  0  0  0
   40.7540   82.3730   57.1290 N   0  0  0  0  0  0  0  0  0  0  0  0
   41.3450   83.3410   57.8360 C   0  0  0  0  0  0  0  0  0  0  0  0
   41.3330   83.2360   59.1920 N   0  0  0  0  0  0  0  0  0  0  0  0
   40.7540   82.1780   59.8020 C   0  0  0  0  0  0  0  0  0  0  0  0
   41.2080   82.6790   62.1460 C   0  0  0  0  0  0  0  0  0  0  0  0
   40.3410   83.5200   62.9190 C   0  0  0  0  0  0  0  0  0  0  0  0
   40.9060   84.3030   63.9170 C   0  0  0  0  0  0  0  0  0  0  0  0
   42.2560   84.2160   64.0930 N   0  0  0  0  0  0  0  0  0  0  0  0
   43.0410   83.4090   63.3420 C   0  0  0  0  0  0  0  0  0  0  0  0
   42.4940   82.6420   62.3670 N   0  0  0  0  0  0  0  0  0  0  0  0
   39.0000   83.4840   62.6030 O   0  0  0  0  0  0  0  0  0  0  0  0
   39.9050   80.2330   56.9310 N   0  0  0  0  0  0  0  0  0  0  0  0
   39.0250   80.3160   55.8310 C   0  0  2  0  0  0  0  0  0  0  0  0
   37.5810   80.1940   55.8340 C   0  0  0  0  0  0  0  0  0  0  0  0
   38.3660   79.0020   55.4020 C   0  0  2  0  0  0  0  0  0  0  0  0
   38.0040   77.6350   57.5470 C   0  0  0  0  0  0  0  0  0  0  0  0
   38.4590   77.8130   56.2590 C   0  0  0  0  0  0  0  0  0  0  0  0
   39.0970   76.6810   55.7400 C   0  0  0  0  0  0  0  0  0  0  0  0
   39.2680   75.5020   56.4170 C   0  0  0  0  0  0  0  0  0  0  0  0
   39.8450   74.3320   56.0830 N   0  0  0  0  0  0  0  0  0  0  0  0
   39.7350   73.4940   57.1350 C   0  0  0  0  0  0  0  0  0  0  0  0
   39.0840   74.1490   58.1300 N   0  0  0  0  0  0  0  0  0  0  0  0
   38.7940   75.3800   57.6990 C   0  0  0  0  0  0  0  0  0  0  0  0
   38.1660   76.4650   58.2390 C   0  0  0  0  0  0  0  0  0  0  0  0
   39.9336   80.1199   62.1449 H   0  0  0  0  0  0  0  0  0  0  0  0
   39.0387   81.8305   57.8596 H   0  0  0  0  0  0  0  0  0  0  0  0
   41.8258   84.1954   57.3371 H   0  0  0  0  0  0  0  0  0  0  0  0
   41.7714   83.9733   59.7622 H   0  0  0  0  0  0  0  0  0  0  0  0
   40.2896   84.9670   64.5408 H   0  0  0  0  0  0  0  0  0  0  0  0
   44.1255   83.3753   63.5231 H   0  0  0  0  0  0  0  0  0  0  0  0
   38.3577   84.0452   63.1057 H   0  0  0  0  0  0  0  0  0  0  0  0
   40.8402   80.0108   56.5610 H   0  0  0  0  0  0  0  0  0  0  0  0
   39.6662   81.1152   55.4307 H   0  0  0  0  0  0  0  0  0  0  0  0
   37.0409   80.1695   56.7920 H   0  0  0  0  0  0  0  0  0  0  0  0
   36.7669   80.7758   55.3771 H   0  0  0  0  0  0  0  0  0  0  0  0
   38.3912   78.3507   54.5159 H   0  0  0  0  0  0  0  0  0  0  0  0
   37.4872   78.4706   58.0417 H   0  0  0  0  0  0  0  0  0  0  0  0
   39.4897   76.7420   54.7143 H   0  0  0  0  0  0  0  0  0  0  0  0
   40.2926   74.1145   55.1812 H   0  0  0  0  0  0  0  0  0  0  0  0
   40.1079   72.4601   57.1787 H   0  0  0  0  0  0  0  0  0  0  0  0
   37.7767   76.3969   59.2655 H   0  0  0  0  0  0  0  0  0  0  0  0
  1  2  1  0
  1 10  1  0
  3  2  2  0
  4  9  2  0
  4  3  1  0
  5  4  1  0
  6  5  1  0
  6  7  2  0
  7  8  1  0
  8  9  1  0
  9  1  1  0
 10 15  1  0
 10 11  2  0
 11 12  1  0
 12 13  2  0
 14 13  1  0
 15 14  2  0
 16 11  1  0
 17  5  1  0
 18 19  1  0
 18 17  1  0
 20 18  1  0
 20 19  1  0
 20 22  1  0
 21 29  2  0
 22 21  1  0
 23 22  2  0
 23 24  1  0
 24 28  2  0
 25 24  1  0
 25 26  1  0
 26 27  2  0
 28 27  1  0
 28 29  1  0
  2 30  1  0
  5 31  1  1
  7 32  1  0
  8 33  1  0
 12 34  1  0
 14 35  1  0
 16 36  1  0
 17 37  1  0
 18 38  1  6
 19 39  1  0
 19 40  1  0
 20 41  1  6
 21 42  1  0
 23 43  1  0
 25 44  1  0
 26 45  1  0
 29 46  1  0
M  END
>  <Score>  (1) 
-7.16324

>  <Score_dual>  (1) 
-7.7

>  <Choices>  (1) 
[None, 7, ['2-1', 0], 7, ['28-7', 165], 25, ['16-17', 150], 32, ['34-20', 15]]

$$$$
