
     RDKit          3D

 45 49  0  0  0  0  0  0  0  0999 V2000
   44.4520   82.6540   61.4600 Cl  0  0  0  0  0  0  0  0  0  0  0  0
   44.5350   80.9540   61.9460 C   0  0  0  0  0  0  0  0  0  0  0  0
   43.4140   80.1450   61.8360 C   0  0  0  0  0  0  0  0  0  0  0  0
   43.5330   78.8510   62.2220 C   0  0  0  0  0  0  0  0  0  0  0  0
   44.7090   78.3150   62.7120 C   0  0  0  0  0  0  0  0  0  0  0  0
   45.7920   79.1640   62.8000 C   0  0  0  0  0  0  0  0  0  0  0  0
   45.7540   80.4840   62.4300 C   0  0  0  0  0  0  0  0  0  0  0  0
   45.8930   76.6430   64.0220 C   0  0  0  0  0  0  0  0  0  0  0  0
   44.8770   76.9360   63.1350 C   0  0  0  0  0  0  0  0  0  0  0  0
   44.0700   75.8700   62.7000 C   0  0  0  0  0  0  0  0  0  0  0  0
   44.3190   74.5910   63.1670 C   0  0  0  0  0  0  0  0  0  0  0  0
   43.7360   73.4060   62.9370 N   0  0  0  0  0  0  0  0  0  0  0  0
   44.3350   72.4360   63.6230 C   0  0  0  0  0  0  0  0  0  0  0  0
   45.3360   73.0020   64.3210 N   0  0  0  0  0  0  0  0  0  0  0  0
   45.3410   74.3050   64.0560 C   0  0  0  0  0  0  0  0  0  0  0  0
   46.1250   75.3760   64.4720 C   0  0  0  0  0  0  0  0  0  0  0  0
   42.1950   80.7420   61.3170 C   0  0  0  0  0  0  0  0  0  0  0  0
   41.6440   80.2900   60.1010 C   0  0  0  0  0  0  0  0  0  0  0  0
   40.4780   80.8360   59.5690 C   0  0  0  0  0  0  0  0  0  0  0  0
   39.9080   81.8240   60.2860 N   0  0  0  0  0  0  0  0  0  0  0  0
   40.4280   82.2640   61.4520 C   0  0  0  0  0  0  0  0  0  0  0  0
   41.5430   81.7100   61.9170 N   0  0  0  0  0  0  0  0  0  0  0  0
   39.9350   80.3440   58.3090 C   0  0  0  0  0  0  0  0  0  0  0  0
   39.8660   81.2090   57.2420 C   0  0  0  0  0  0  0  0  0  0  0  0
   39.3380   80.6540   56.0930 C   0  0  0  0  0  0  0  0  0  0  0  0
   38.9110   79.3400   56.0150 C   0  0  0  0  0  0  0  0  0  0  0  0
   39.0100   78.5140   57.1400 C   0  0  0  0  0  0  0  0  0  0  0  0
   39.5330   79.0610   58.2750 N   0  0  0  0  0  0  0  0  0  0  0  0
   39.7940   83.3560   62.2390 C   0  0  0  0  0  0  0  0  0  0  0  0
   38.4180   83.1850   62.0960 F   0  0  0  0  0  0  0  0  0  0  0  0
   40.1430   84.5680   61.7020 F   0  0  0  0  0  0  0  0  0  0  0  0
   40.1490   83.2920   63.5750 F   0  0  0  0  0  0  0  0  0  0  0  0
   42.6523   78.1969   62.1415 H   0  0  0  0  0  0  0  0  0  0  0  0
   46.7386   78.7602   63.1884 H   0  0  0  0  0  0  0  0  0  0  0  0
   46.6367   81.1354   62.5108 H   0  0  0  0  0  0  0  0  0  0  0  0
   46.5382   77.4594   64.3786 H   0  0  0  0  0  0  0  0  0  0  0  0
   43.2465   76.0511   61.9935 H   0  0  0  0  0  0  0  0  0  0  0  0
   42.9301   73.2649   62.3113 H   0  0  0  0  0  0  0  0  0  0  0  0
   44.0626   71.3703   63.6199 H   0  0  0  0  0  0  0  0  0  0  0  0
   46.9491   75.1978   65.1784 H   0  0  0  0  0  0  0  0  0  0  0  0
   42.1506   79.4806   59.5549 H   0  0  0  0  0  0  0  0  0  0  0  0
   40.2029   82.2546   57.2990 H   0  0  0  0  0  0  0  0  0  0  0  0
   39.2528   81.2865   55.1971 H   0  0  0  0  0  0  0  0  0  0  0  0
   38.4965   78.9475   55.0747 H   0  0  0  0  0  0  0  0  0  0  0  0
   38.6793   77.4653   57.1104 H   0  0  0  0  0  0  0  0  0  0  0  0
  1  2  1  0
  2  7  2  0
  3  2  1  0
  3  4  2  0
  4  5  1  0
  5  6  2  0
  5  9  1  0
  7  6  1  0
  8 16  2  0
  9  8  1  0
 10  9  2  0
 10 11  1  0
 11 15  2  0
 12 11  1  0
 12 13  1  0
 13 14  2  0
 15 14  1  0
 15 16  1  0
 17  3  1  0
 17 22  1  0
 18 17  2  0
 19 18  1  0
 19 20  2  0
 20 21  1  0
 21 22  2  0
 21 29  1  0
 23 19  1  0
 24 23  2  0
 25 24  1  0
 26 25  2  0
 26 27  1  0
 27 28  2  0
 28 23  1  0
 29 32  1  0
 30 29  1  0
 31 29  1  0
  4 33  1  0
  6 34  1  0
  7 35  1  0
  8 36  1  0
 10 37  1  0
 12 38  1  0
 13 39  1  0
 16 40  1  0
 18 41  1  0
 24 42  1  0
 25 43  1  0
 26 44  1  0
 27 45  1  0
M  END
>  <Score>  (1) 
-7.26228

>  <Score_dual>  (1) 
-7.22

>  <Choices>  (1) 
[None, 6, ['7-19', 90], 17, ['34-24', 330], 32, ['11-14', 60], 35, ['6-12', 45]]

$$$$
