
     RDKit          3D

 49 54  0  0  1  0  0  0  0  0999 V2000
   39.7110   80.4790   58.4350 C   0  0  0  0  0  0  0  0  0  0  0  0
   40.5050   81.6360   58.5710 C   0  0  0  0  0  0  0  0  0  0  0  0
   40.9150   82.2800   57.4180 C   0  0  0  0  0  0  0  0  0  0  0  0
   40.5510   81.7920   56.2040 N   0  0  0  0  0  0  0  0  0  0  0  0
   39.7930   80.6860   56.0890 C   0  0  0  0  0  0  0  0  0  0  0  0
   39.3870   80.0510   57.2000 N   0  0  0  0  0  0  0  0  0  0  0  0
   41.7010   83.4500   57.5660 N   0  0  0  0  0  0  0  0  0  0  0  0
   42.0890   81.6840   60.4080 C   0  0  0  0  0  0  0  0  0  0  0  0
   40.8440   82.0660   59.9300 C   0  0  0  0  0  0  0  0  0  0  0  0
   39.9560   82.7880   60.6300 C   0  0  0  0  0  0  0  0  0  0  0  0
   40.3330   83.1720   61.9260 C   0  0  0  0  0  0  0  0  0  0  0  0
   39.6760   83.9040   62.9000 N   0  0  0  0  0  0  0  0  0  0  0  0
   40.5260   83.9630   63.9690 C   0  0  0  0  0  0  0  0  0  0  0  0
   41.6540   83.2940   63.6510 N   0  0  0  0  0  0  0  0  0  0  0  0
   41.5650   82.7970   62.4050 C   0  0  0  0  0  0  0  0  0  0  0  0
   42.4690   82.0600   61.6920 C   0  0  0  0  0  0  0  0  0  0  0  0
   39.4110   80.1250   54.7910 C   0  0  2  0  0  0  0  0  0  0  0  0
   37.9020   79.9370   54.4960 C   0  0  0  0  0  0  0  0  0  0  0  0
   38.8550   78.7710   54.6240 C   0  0  2  0  0  0  0  0  0  0  0  0
   38.4980   77.8890   55.7660 C   0  0  0  0  0  0  0  0  0  0  0  0
   37.1300   77.7680   56.0340 C   0  0  0  0  0  0  0  0  0  0  0  0
   36.9630   76.9180   57.1380 C   0  0  0  0  0  0  0  0  0  0  0  0
   38.2160   76.5570   57.4970 N   0  0  0  0  0  0  0  0  0  0  0  0
   39.0600   77.1260   56.6980 N   0  0  0  0  0  0  0  0  0  0  0  0
   39.0390   73.7300   56.7450 Cl  0  0  0  0  0  0  0  0  0  0  0  0
   39.1080   74.4090   58.3620 C   0  0  0  0  0  0  0  0  0  0  0  0
   38.6970   75.7150   58.5390 C   0  0  0  0  0  0  0  0  0  0  0  0
   38.7910   76.1580   59.8540 C   0  0  0  0  0  0  0  0  0  0  0  0
   39.2470   75.3950   60.9080 C   0  0  0  0  0  0  0  0  0  0  0  0
   39.6400   74.0980   60.6460 C   0  0  0  0  0  0  0  0  0  0  0  0
   39.5710   73.5970   59.3570 C   0  0  0  0  0  0  0  0  0  0  0  0
   39.3614   79.9341   59.3243 H   0  0  0  0  0  0  0  0  0  0  0  0
   42.0272   83.9601   56.7328 H   0  0  0  0  0  0  0  0  0  0  0  0
   41.9460   83.7902   58.5068 H   0  0  0  0  0  0  0  0  0  0  0  0
   42.7682   81.0903   59.7785 H   0  0  0  0  0  0  0  0  0  0  0  0
   38.9788   83.0658   60.2081 H   0  0  0  0  0  0  0  0  0  0  0  0
   38.7363   84.3203   62.8328 H   0  0  0  0  0  0  0  0  0  0  0  0
   40.3249   84.4691   64.9247 H   0  0  0  0  0  0  0  0  0  0  0  0
   43.4461   81.7790   62.1119 H   0  0  0  0  0  0  0  0  0  0  0  0
   40.2678   80.6414   54.3336 H   0  0  0  0  0  0  0  0  0  0  0  0
   37.4880   80.2125   53.5148 H   0  0  0  0  0  0  0  0  0  0  0  0
   36.9581   80.2441   54.9700 H   0  0  0  0  0  0  0  0  0  0  0  0
   39.2311   77.9346   54.0165 H   0  0  0  0  0  0  0  0  0  0  0  0
   36.3204   78.2576   55.4728 H   0  0  0  0  0  0  0  0  0  0  0  0
   36.0175   76.6116   57.6094 H   0  0  0  0  0  0  0  0  0  0  0  0
   38.4793   77.1909   60.0685 H   0  0  0  0  0  0  0  0  0  0  0  0
   39.2961   75.8073   61.9266 H   0  0  0  0  0  0  0  0  0  0  0  0
   40.0089   73.4608   61.4633 H   0  0  0  0  0  0  0  0  0  0  0  0
   39.8831   72.5650   59.1390 H   0  0  0  0  0  0  0  0  0  0  0  0
  1  2  2  0
  2  9  1  0
  3  7  1  0
  3  2  1  0
  4  3  2  0
  5  4  1  0
  5  6  2  0
  6  1  1  0
  8 16  2  0
  9  8  1  0
  9 10  2  0
 10 11  1  0
 11 15  2  0
 11 12  1  0
 12 13  1  0
 14 13  2  0
 15 14  1  0
 16 15  1  0
 17  5  1  0
 18 19  1  0
 18 17  1  0
 19 17  1  0
 19 20  1  0
 20 21  1  0
 20 24  2  0
 21 22  2  0
 22 23  1  0
 23 27  1  0
 24 23  1  0
 25 26  1  0
 26 27  2  0
 26 31  1  0
 27 28  1  0
 28 29  2  0
 30 29  1  0
 31 30  2  0
  1 32  1  0
  7 33  1  0
  7 34  1  0
  8 35  1  0
 10 36  1  0
 12 37  1  0
 13 38  1  0
 16 39  1  0
 17 40  1  6
 18 41  1  0
 18 42  1  0
 19 43  1  6
 21 44  1  0
 22 45  1  0
 28 46  1  0
 29 47  1  0
 30 48  1  0
 31 49  1  0
M  END
>  <Score>  (1) 
-7.30819

>  <Score_dual>  (1) 
-7.02

>  <Choices>  (1) 
[None, 7, ['34-23', 225], 21, ['0-2', 0], 22, ['16-24', 330], 31, ['22-6', 150], 38, ['7-6', 210]]

$$$$
