
     RDKit          3D

 45 50  0  0  0  0  0  0  0  0999 V2000
   40.5780   78.2820   60.5080 C   0  0  0  0  0  0  0  0  0  0  0  0
   41.0720   77.0600   60.9140 C   0  0  0  0  0  0  0  0  0  0  0  0
   42.3020   76.9710   61.5160 C   0  0  0  0  0  0  0  0  0  0  0  0
   43.0690   78.1240   61.7240 C   0  0  0  0  0  0  0  0  0  0  0  0
   44.2750   78.3150   62.2750 N   0  0  0  0  0  0  0  0  0  0  0  0
   44.5580   79.6360   62.2290 C   0  0  0  0  0  0  0  0  0  0  0  0
   43.5180   80.2570   61.6450 N   0  0  0  0  0  0  0  0  0  0  0  0
   42.5700   79.3450   61.3170 C   0  0  0  0  0  0  0  0  0  0  0  0
   41.3290   79.4400   60.7090 C   0  0  0  0  0  0  0  0  0  0  0  0
   41.0450   81.0840   58.9900 C   0  0  0  0  0  0  0  0  0  0  0  0
   40.8870   80.7620   60.3140 C   0  0  0  0  0  0  0  0  0  0  0  0
   40.3370   81.6520   61.2190 C   0  0  0  0  0  0  0  0  0  0  0  0
   39.9660   82.8630   60.6940 C   0  0  0  0  0  0  0  0  0  0  0  0
   39.4060   83.9500   61.2860 N   0  0  0  0  0  0  0  0  0  0  0  0
   39.2000   84.9450   60.3930 C   0  0  0  0  0  0  0  0  0  0  0  0
   39.6400   84.4890   59.2010 N   0  0  0  0  0  0  0  0  0  0  0  0
   40.1000   83.2420   59.3760 C   0  0  0  0  0  0  0  0  0  0  0  0
   40.6590   82.3070   58.5150 C   0  0  0  0  0  0  0  0  0  0  0  0
   38.1570   74.7920   60.1290 C   0  0  0  0  0  0  0  0  0  0  0  0
   38.8910   75.9590   60.3490 C   0  0  0  0  0  0  0  0  0  0  0  0
   40.2220   75.9000   60.6670 C   0  0  0  0  0  0  0  0  0  0  0  0
   40.7950   74.6600   60.7580 N   0  0  0  0  0  0  0  0  0  0  0  0
   40.0520   73.5380   60.5370 C   0  0  0  0  0  0  0  0  0  0  0  0
   38.7610   73.5910   60.2290 N   0  0  0  0  0  0  0  0  0  0  0  0
   40.7330   72.2500   60.6530 C   0  0  0  0  0  0  0  0  0  0  0  0
   40.6060   71.3150   59.6470 C   0  0  0  0  0  0  0  0  0  0  0  0
   41.2790   70.1360   59.8370 C   0  0  0  0  0  0  0  0  0  0  0  0
   42.0520   69.8090   60.9190 C   0  0  0  0  0  0  0  0  0  0  0  0
   42.1330   70.8080   61.8970 C   0  0  0  0  0  0  0  0  0  0  0  0
   41.4840   71.9970   61.7570 N   0  0  0  0  0  0  0  0  0  0  0  0
   39.5914   78.3434   60.0255 H   0  0  0  0  0  0  0  0  0  0  0  0
   42.6865   75.9913   61.8360 H   0  0  0  0  0  0  0  0  0  0  0  0
   44.8825   77.5811   62.6666 H   0  0  0  0  0  0  0  0  0  0  0  0
   45.4744   80.1166   62.6022 H   0  0  0  0  0  0  0  0  0  0  0  0
   41.4878   80.3492   58.3016 H   0  0  0  0  0  0  0  0  0  0  0  0
   40.2067   81.4059   62.2832 H   0  0  0  0  0  0  0  0  0  0  0  0
   39.1687   84.0090   62.2866 H   0  0  0  0  0  0  0  0  0  0  0  0
   38.7602   85.9322   60.5980 H   0  0  0  0  0  0  0  0  0  0  0  0
   40.7914   82.5501   57.4504 H   0  0  0  0  0  0  0  0  0  0  0  0
   37.0885   74.8524   59.8747 H   0  0  0  0  0  0  0  0  0  0  0  0
   38.3947   76.9372   60.2660 H   0  0  0  0  0  0  0  0  0  0  0  0
   40.0017   71.5038   58.7474 H   0  0  0  0  0  0  0  0  0  0  0  0
   41.1895   69.3794   59.0436 H   0  0  0  0  0  0  0  0  0  0  0  0
   42.5669   68.8414   61.0122 H   0  0  0  0  0  0  0  0  0  0  0  0
   42.7352   70.6280   62.7998 H   0  0  0  0  0  0  0  0  0  0  0  0
  1  9  2  0
  1  2  1  0
  2  3  2  0
  3  4  1  0
  4  5  1  0
  6  5  1  0
  7  6  2  0
  8  7  1  0
  8  4  2  0
  9  8  1  0
 10 11  2  0
 11  9  1  0
 11 12  1  0
 13 12  2  0
 13 14  1  0
 15 14  1  0
 16 17  1  0
 16 15  2  0
 17 13  1  0
 18 10  1  0
 18 17  2  0
 19 24  2  0
 19 20  1  0
 20 21  2  0
 21 22  1  0
 21  2  1  0
 23 25  1  0
 23 22  2  0
 24 23  1  0
 25 30  2  0
 26 27  2  0
 26 25  1  0
 27 28  1  0
 28 29  2  0
 30 29  1  0
  1 31  1  0
  3 32  1  0
  5 33  1  0
  6 34  1  0
 10 35  1  0
 12 36  1  0
 14 37  1  0
 15 38  1  0
 18 39  1  0
 19 40  1  0
 20 41  1  0
 26 42  1  0
 27 43  1  0
 28 44  1  0
 29 45  1  0
M  END
>  <Score>  (1) 
-7.50653

>  <Score_dual>  (1) 
-7.95

>  <Choices>  (1) 
[None, 8, ['34-23', 60], 19, ['34-22', 180], 35, ['6-14', 240]]

$$$$
