
     RDKit          3D

 55 59  0  0  0  0  0  0  0  0999 V2000
   41.8820   79.0860   59.8900 C   0  0  0  0  0  0  0  0  0  0  0  0
   40.9410   78.0170   60.1050 N   0  0  0  0  0  0  0  0  0  0  0  0
   40.8730   77.1810   61.1510 C   0  0  0  0  0  0  0  0  0  0  0  0
   39.8230   76.3330   60.9260 N   0  0  0  0  0  0  0  0  0  0  0  0
   39.2590   76.6490   59.7580 C   0  0  0  0  0  0  0  0  0  0  0  0
   38.1910   76.1480   59.0390 C   0  0  0  0  0  0  0  0  0  0  0  0
   37.8230   76.6790   57.8400 N   0  0  0  0  0  0  0  0  0  0  0  0
   38.5400   77.7050   57.3870 C   0  0  0  0  0  0  0  0  0  0  0  0
   39.5880   78.2120   58.0710 N   0  0  0  0  0  0  0  0  0  0  0  0
   39.9600   77.7000   59.2530 C   0  0  0  0  0  0  0  0  0  0  0  0
   38.0500   78.1710   56.1150 N   0  0  0  0  0  0  0  0  0  0  0  0
   36.7900   77.6020   55.6180 C   0  0  0  0  0  0  0  0  0  0  0  0
   37.2520   76.5780   54.5730 C   0  0  0  0  0  0  0  0  0  0  0  0
   38.3050   77.1600   53.7880 N   0  0  0  0  0  0  0  0  0  0  0  0
   38.3290   78.6050   53.8030 C   0  0  0  0  0  0  0  0  0  0  0  0
   38.6150   79.1420   55.2110 C   0  0  0  0  0  0  0  0  0  0  0  0
   41.3980   80.2990   60.6130 C   0  0  0  0  0  0  0  0  0  0  0  0
   42.2870   82.2960   61.8760 C   0  0  0  0  0  0  0  0  0  0  0  0
   43.3180   82.8160   62.6220 C   0  0  0  0  0  0  0  0  0  0  0  0
   44.4360   82.0750   62.9070 C   0  0  0  0  0  0  0  0  0  0  0  0
   44.5780   80.7900   62.4650 C   0  0  0  0  0  0  0  0  0  0  0  0
   43.5780   80.2380   61.7240 C   0  0  0  0  0  0  0  0  0  0  0  0
   42.4220   80.9810   61.4200 C   0  0  0  0  0  0  0  0  0  0  0  0
   41.0760   83.0540   61.5510 C   0  0  0  0  0  0  0  0  0  0  0  0
   40.9650   83.9420   60.5050 C   0  0  0  0  0  0  0  0  0  0  0  0
   39.7960   84.6270   60.2520 C   0  0  0  0  0  0  0  0  0  0  0  0
   38.7330   84.3770   61.1030 N   0  0  0  0  0  0  0  0  0  0  0  0
   38.8610   83.5090   62.1170 C   0  0  0  0  0  0  0  0  0  0  0  0
   40.0110   82.8350   62.3650 N   0  0  0  0  0  0  0  0  0  0  0  0
   42.1110   84.1370   59.6790 N   0  0  0  0  0  0  0  0  0  0  0  0
   42.8696   78.7937   60.2764 H   0  0  0  0  0  0  0  0  0  0  0  0
   41.9691   79.2993   58.8144 H   0  0  0  0  0  0  0  0  0  0  0  0
   41.5379   77.1775   62.0273 H   0  0  0  0  0  0  0  0  0  0  0  0
   38.4144   75.0873   58.8520 H   0  0  0  0  0  0  0  0  0  0  0  0
   37.3355   76.4046   59.6811 H   0  0  0  0  0  0  0  0  0  0  0  0
   40.1114   79.0070   57.6774 H   0  0  0  0  0  0  0  0  0  0  0  0
   36.2318   77.1122   56.4295 H   0  0  0  0  0  0  0  0  0  0  0  0
   36.1089   78.3606   55.2050 H   0  0  0  0  0  0  0  0  0  0  0  0
   37.6242   75.6753   55.0795 H   0  0  0  0  0  0  0  0  0  0  0  0
   36.4093   76.3024   53.9219 H   0  0  0  0  0  0  0  0  0  0  0  0
   38.1897   76.8494   52.8127 H   0  0  0  0  0  0  0  0  0  0  0  0
   39.1145   78.9576   53.1184 H   0  0  0  0  0  0  0  0  0  0  0  0
   37.3423   78.9724   53.4846 H   0  0  0  0  0  0  0  0  0  0  0  0
   39.6988   79.2346   55.3745 H   0  0  0  0  0  0  0  0  0  0  0  0
   38.1818   80.1417   55.3626 H   0  0  0  0  0  0  0  0  0  0  0  0
   41.0167   81.0130   59.8681 H   0  0  0  0  0  0  0  0  0  0  0  0
   40.6253   79.9549   61.3163 H   0  0  0  0  0  0  0  0  0  0  0  0
   43.2446   83.8472   62.9978 H   0  0  0  0  0  0  0  0  0  0  0  0
   45.2395   82.5269   63.5071 H   0  0  0  0  0  0  0  0  0  0  0  0
   45.4832   80.2123   62.7033 H   0  0  0  0  0  0  0  0  0  0  0  0
   43.6742   79.2043   61.3605 H   0  0  0  0  0  0  0  0  0  0  0  0
   39.7119   85.3367   59.4158 H   0  0  0  0  0  0  0  0  0  0  0  0
   37.9967   83.3365   62.7752 H   0  0  0  0  0  0  0  0  0  0  0  0
   42.0687   84.7930   58.8861 H   0  0  0  0  0  0  0  0  0  0  0  0
   42.9810   83.6218   59.8754 H   0  0  0  0  0  0  0  0  0  0  0  0
  1  2  1  0
  1 17  1  0
  2  3  1  0
  4  3  2  0
  5  4  1  0
  6  5  1  0
  7  6  1  0
  8  7  2  0
  8  9  1  0
  9 10  1  0
 10  5  2  0
 10  2  1  0
 11  8  1  0
 12 11  1  0
 13 12  1  0
 14 15  1  0
 14 13  1  0
 15 16  1  0
 16 11  1  0
 17 23  1  0
 18 19  2  0
 19 20  1  0
 21 20  2  0
 22 21  1  0
 23 22  2  0
 23 18  1  0
 24 18  1  0
 24 29  1  0
 25 24  2  0
 26 25  1  0
 26 27  2  0
 27 28  1  0
 28 29  2  0
 30 25  1  0
  1 31  1  0
  1 32  1  0
  3 33  1  0
  6 34  1  0
  6 35  1  0
  9 36  1  0
 12 37  1  0
 12 38  1  0
 13 39  1  0
 13 40  1  0
 14 41  1  0
 15 42  1  0
 15 43  1  0
 16 44  1  0
 16 45  1  0
 17 46  1  0
 17 47  1  0
 19 48  1  0
 20 49  1  0
 21 50  1  0
 22 51  1  0
 26 52  1  0
 28 53  1  0
 30 54  1  0
 30 55  1  0
M  END
>  <Score>  (1) 
-7.45515

>  <Score_dual>  (1) 
-7.35

>  <Choices>  (1) 
[None, 7, ['0-3', 0], 7, ['1-25', 90], 19, ['4-13', 0], 27, ['45-11', 285], 39, ['15-6', 75]]

$$$$
