
     RDKit          3D

 43 47  0  0  1  0  0  0  0  0999 V2000
   40.6450   83.4580   64.1970 C   0  0  1  0  0  0  0  0  0  0  0  0
   41.9240   84.2840   64.3890 C   0  0  2  0  0  0  0  0  0  0  0  0
   40.5790   84.7980   64.7210 C   0  0  0  0  0  0  0  0  0  0  0  0
   40.1070   83.7710   60.5900 C   0  0  0  0  0  0  0  0  0  0  0  0
   39.9360   82.4470   60.1710 C   0  0  0  0  0  0  0  0  0  0  0  0
   40.0160   81.4400   61.1440 C   0  0  0  0  0  0  0  0  0  0  0  0
   40.2550   81.7960   62.4450 N   0  0  0  0  0  0  0  0  0  0  0  0
   40.4130   83.1080   62.7880 C   0  0  0  0  0  0  0  0  0  0  0  0
   40.3400   84.0790   61.8710 N   0  0  0  0  0  0  0  0  0  0  0  0
   40.0110   84.7980   59.5630 C   0  0  0  0  0  0  0  0  0  0  0  0
   40.9500   85.1550   58.6580 C   0  0  0  0  0  0  0  0  0  0  0  0
   40.3500   86.1900   57.9040 C   0  0  0  0  0  0  0  0  0  0  0  0
   39.1140   86.4160   58.3630 N   0  0  0  0  0  0  0  0  0  0  0  0
   38.9040   85.5820   59.3620 N   0  0  0  0  0  0  0  0  0  0  0  0
   43.7340   83.9760   62.7400 C   0  0  0  0  0  0  0  0  0  0  0  0
   44.0120   82.8300   63.2120 O   0  0  0  0  0  0  0  0  0  0  0  0
   42.6580   84.7600   63.2470 N   0  0  0  0  0  0  0  0  0  0  0  0
   44.5320   84.5170   61.6450 C   0  0  0  0  0  0  0  0  0  0  0  0
   45.7650   84.0670   61.2160 C   0  0  0  0  0  0  0  0  0  0  0  0
   46.4220   84.6670   60.1620 C   0  0  0  0  0  0  0  0  0  0  0  0
   45.8970   85.7370   59.4850 C   0  0  0  0  0  0  0  0  0  0  0  0
   46.5080   86.3430   58.4580 N   0  0  0  0  0  0  0  0  0  0  0  0
   45.9800   87.3960   57.8000 C   0  0  0  0  0  0  0  0  0  0  0  0
   44.7350   87.9090   58.1760 C   0  0  0  0  0  0  0  0  0  0  0  0
   44.0750   87.3010   59.2390 C   0  0  0  0  0  0  0  0  0  0  0  0
   44.6730   86.2320   59.8640 C   0  0  0  0  0  0  0  0  0  0  0  0
   44.0450   85.6100   60.9180 C   0  0  0  0  0  0  0  0  0  0  0  0
   40.1704   82.5308   64.5507 H   0  0  0  0  0  0  0  0  0  0  0  0
   42.8779   84.1754   64.9259 H   0  0  0  0  0  0  0  0  0  0  0  0
   40.1393   85.5973   64.1064 H   0  0  0  0  0  0  0  0  0  0  0  0
   40.1385   85.2347   65.6294 H   0  0  0  0  0  0  0  0  0  0  0  0
   39.7454   82.2043   59.1152 H   0  0  0  0  0  0  0  0  0  0  0  0
   39.8891   80.3830   60.8673 H   0  0  0  0  0  0  0  0  0  0  0  0
   41.9585   84.7332   58.5353 H   0  0  0  0  0  0  0  0  0  0  0  0
   40.8258   86.7260   57.0696 H   0  0  0  0  0  0  0  0  0  0  0  0
   38.4482   87.1140   58.0019 H   0  0  0  0  0  0  0  0  0  0  0  0
   42.4091   85.6550   62.8022 H   0  0  0  0  0  0  0  0  0  0  0  0
   46.2332   83.2119   61.7256 H   0  0  0  0  0  0  0  0  0  0  0  0
   47.4017   84.2730   59.8539 H   0  0  0  0  0  0  0  0  0  0  0  0
   46.5312   87.8525   56.9646 H   0  0  0  0  0  0  0  0  0  0  0  0
   44.2914   88.7661   57.6481 H   0  0  0  0  0  0  0  0  0  0  0  0
   43.0935   87.6683   59.5732 H   0  0  0  0  0  0  0  0  0  0  0  0
   43.0654   86.0100   61.2188 H   0  0  0  0  0  0  0  0  0  0  0  0
  1  2  1  0
  1  3  1  0
  2  3  1  0
  4  9  1  0
  5  4  2  0
  5  6  1  0
  6  7  2  0
  7  8  1  0
  8  1  1  0
  9  8  2  0
 10  4  1  0
 11 10  1  0
 12 13  1  0
 12 11  2  0
 13 14  1  0
 14 10  2  0
 15 16  2  0
 15 17  1  0
 17  2  1  0
 18 15  1  0
 19 18  2  0
 20 19  1  0
 21 26  1  0
 21 20  2  0
 22 21  1  0
 23 24  1  0
 23 22  2  0
 24 25  2  0
 25 26  1  0
 26 27  2  0
 27 18  1  0
  1 28  1  1
  2 29  1  1
  3 30  1  0
  3 31  1  0
  5 32  1  0
  6 33  1  0
 11 34  1  0
 12 35  1  0
 13 36  1  0
 17 37  1  0
 19 38  1  0
 20 39  1  0
 23 40  1  0
 24 41  1  0
 25 42  1  0
 27 43  1  0
M  END
>  <Score>  (1) 
-7.33437

>  <Score_dual>  (1) 
-7.11

>  <Choices>  (1) 
[None, 6, ['22-8', 120], 13, ['16-22', 285], 21, ['12-4', 0], 26, ['36-18', 120]]

$$$$
