
     RDKit          3D

 48 53  0  0  0  0  0  0  0  0999 V2000
   41.6760   80.7020   59.5010 O   0  0  0  0  0  0  0  0  0  0  0  0
   42.5500   81.0220   60.5290 C   0  0  0  0  0  0  0  0  0  0  0  0
   42.3460   82.0430   61.3940 C   0  0  0  0  0  0  0  0  0  0  0  0
   43.2890   82.2850   62.3980 C   0  0  0  0  0  0  0  0  0  0  0  0
   44.4290   81.4670   62.4970 C   0  0  0  0  0  0  0  0  0  0  0  0
   45.4710   81.4670   63.3380 N   0  0  0  0  0  0  0  0  0  0  0  0
   46.3040   80.4730   63.0110 C   0  0  0  0  0  0  0  0  0  0  0  0
   45.7660   79.8450   61.9440 N   0  0  0  0  0  0  0  0  0  0  0  0
   44.5990   80.4360   61.5960 C   0  0  0  0  0  0  0  0  0  0  0  0
   43.6650   80.1900   60.5930 C   0  0  0  0  0  0  0  0  0  0  0  0
   39.8020   84.5660   60.2530 C   0  0  0  0  0  0  0  0  0  0  0  0
   41.0240   83.8580   60.2880 C   0  0  0  0  0  0  0  0  0  0  0  0
   41.1430   82.8570   61.2390 C   0  0  0  0  0  0  0  0  0  0  0  0
   40.1090   82.6220   62.0560 N   0  0  0  0  0  0  0  0  0  0  0  0
   38.9460   83.3090   62.0080 C   0  0  0  0  0  0  0  0  0  0  0  0
   38.7830   84.2990   61.0930 N   0  0  0  0  0  0  0  0  0  0  0  0
   40.0720   79.3050   58.3860 C   0  0  0  0  0  0  0  0  0  0  0  0
   40.8870   79.5950   59.4650 C   0  0  0  0  0  0  0  0  0  0  0  0
   40.8560   78.6770   60.5260 C   0  0  0  0  0  0  0  0  0  0  0  0
   40.0540   77.5520   60.4870 C   0  0  0  0  0  0  0  0  0  0  0  0
   39.8280   76.5230   61.3400 N   0  0  0  0  0  0  0  0  0  0  0  0
   38.9490   75.6930   60.8060 N   0  0  0  0  0  0  0  0  0  0  0  0
   38.5810   76.1700   59.5790 C   0  0  0  0  0  0  0  0  0  0  0  0
   39.2760   77.3370   59.3810 C   0  0  0  0  0  0  0  0  0  0  0  0
   39.2660   78.2010   58.3140 C   0  0  0  0  0  0  0  0  0  0  0  0
   38.2960   78.9620   56.1450 C   0  0  0  0  0  0  0  0  0  0  0  0
   38.4590   78.0240   57.1120 C   0  0  0  0  0  0  0  0  0  0  0  0
   37.8450   76.7790   57.0260 C   0  0  0  0  0  0  0  0  0  0  0  0
   37.0430   76.4700   55.9320 C   0  0  0  0  0  0  0  0  0  0  0  0
   36.8770   77.4220   54.9470 C   0  0  0  0  0  0  0  0  0  0  0  0
   37.5020   78.6580   55.0610 C   0  0  0  0  0  0  0  0  0  0  0  0
   39.5020   81.2480   56.4250 N   0  0  0  0  0  0  0  0  0  0  0  0
   38.9590   80.2120   56.3080 C   0  0  0  0  0  0  0  0  0  0  0  0
   43.1397   83.1121   63.1077 H   0  0  0  0  0  0  0  0  0  0  0  0
   45.6093   82.1288   64.1150 H   0  0  0  0  0  0  0  0  0  0  0  0
   47.2473   80.2163   63.5152 H   0  0  0  0  0  0  0  0  0  0  0  0
   43.8030   79.3672   59.8762 H   0  0  0  0  0  0  0  0  0  0  0  0
   39.6774   85.3675   59.5100 H   0  0  0  0  0  0  0  0  0  0  0  0
   41.8436   84.0906   59.5922 H   0  0  0  0  0  0  0  0  0  0  0  0
   38.1333   83.0667   62.7086 H   0  0  0  0  0  0  0  0  0  0  0  0
   40.0714   80.0026   57.5355 H   0  0  0  0  0  0  0  0  0  0  0  0
   41.4852   78.8571   61.4101 H   0  0  0  0  0  0  0  0  0  0  0  0
   40.2726   76.4061   62.2617 H   0  0  0  0  0  0  0  0  0  0  0  0
   37.8652   75.7074   58.8836 H   0  0  0  0  0  0  0  0  0  0  0  0
   37.9938   76.0372   57.8245 H   0  0  0  0  0  0  0  0  0  0  0  0
   36.5522   75.4887   55.8540 H   0  0  0  0  0  0  0  0  0  0  0  0
   36.2494   77.2024   54.0707 H   0  0  0  0  0  0  0  0  0  0  0  0
   37.3599   79.4088   54.2697 H   0  0  0  0  0  0  0  0  0  0  0  0
  1  2  1  0
  2 10  2  0
  2  3  1  0
  3  4  2  0
  4  5  1  0
  5  6  1  0
  7  6  1  0
  8  7  2  0
  9  8  1  0
  9  5  2  0
 10  9  1  0
 11 12  2  0
 11 16  1  0
 12 13  1  0
 13  3  1  0
 13 14  2  0
 15 14  1  0
 16 15  2  0
 17 18  2  0
 18  1  1  0
 18 19  1  0
 20 19  2  0
 20 21  1  0
 22 21  1  0
 23 22  2  0
 24 23  1  0
 24 20  1  0
 25 17  1  0
 25 24  2  0
 26 33  1  0
 26 27  2  0
 27 25  1  0
 28 27  1  0
 29 28  2  0
 30 31  2  0
 30 29  1  0
 31 26  1  0
 33 32  3  0
  4 34  1  0
  6 35  1  0
  7 36  1  0
 10 37  1  0
 11 38  1  0
 12 39  1  0
 15 40  1  0
 17 41  1  0
 19 42  1  0
 21 43  1  0
 23 44  1  0
 28 45  1  0
 29 46  1  0
 30 47  1  0
 31 48  1  0
M  END
>  <Score>  (1) 
-7.66861

>  <Score_dual>  (1) 
-7.32

>  <Choices>  (1) 
[None, 8, ['34-23', 60], 15, ['2-1', 0], 23, ['54-21', 15], 36, ['40-25', 255]]

$$$$
