
     RDKit          3D

 48 52  0  0  0  0  0  0  0  0999 V2000
   40.3630   80.5530   59.7250 C   0  0  0  0  0  0  0  0  0  0  0  0
   40.6050   79.6550   60.7240 C   0  0  0  0  0  0  0  0  0  0  0  0
   40.3130   78.3240   60.5370 C   0  0  0  0  0  0  0  0  0  0  0  0
   39.7850   77.8930   59.3640 N   0  0  0  0  0  0  0  0  0  0  0  0
   39.5590   78.7960   58.4050 C   0  0  0  0  0  0  0  0  0  0  0  0
   39.8420   80.1120   58.5770 N   0  0  0  0  0  0  0  0  0  0  0  0
   40.5150   84.1930   59.1230 C   0  0  0  0  0  0  0  0  0  0  0  0
   40.2030   82.8490   58.9160 C   0  0  0  0  0  0  0  0  0  0  0  0
   40.6530   81.9750   59.8770 C   0  0  0  0  0  0  0  0  0  0  0  0
   41.3540   82.4200   60.9470 N   0  0  0  0  0  0  0  0  0  0  0  0
   41.6390   83.7340   61.1170 C   0  0  0  0  0  0  0  0  0  0  0  0
   41.2080   84.6370   60.1830 N   0  0  0  0  0  0  0  0  0  0  0  0
   41.7650   84.0240   63.5330 C   0  0  0  0  0  0  0  0  0  0  0  0
   40.5070   83.7460   63.5460 O   0  0  0  0  0  0  0  0  0  0  0  0
   42.3710   84.0230   62.2770 N   0  0  0  0  0  0  0  0  0  0  0  0
   42.4540   84.3060   64.7210 N   0  0  0  0  0  0  0  0  0  0  0  0
   38.5040   79.2570   56.2230 C   0  0  0  0  0  0  0  0  0  0  0  0
   38.9900   78.3530   57.1320 C   0  0  0  0  0  0  0  0  0  0  0  0
   38.9490   77.0150   56.8580 C   0  0  0  0  0  0  0  0  0  0  0  0
   38.4090   76.5860   55.6470 C   0  0  0  0  0  0  0  0  0  0  0  0
   38.2460   75.3310   55.1240 N   0  0  0  0  0  0  0  0  0  0  0  0
   37.6670   75.5430   53.9190 C   0  0  0  0  0  0  0  0  0  0  0  0
   37.4670   76.8540   53.6760 N   0  0  0  0  0  0  0  0  0  0  0  0
   37.9190   77.5140   54.7350 C   0  0  0  0  0  0  0  0  0  0  0  0
   37.9690   78.8430   55.0280 C   0  0  0  0  0  0  0  0  0  0  0  0
   37.3350   80.0000   53.8440 S   0  0  0  0  0  0  0  0  0  0  0  0
   40.4140   80.2780   53.6000 Cl  0  0  0  0  0  0  0  0  0  0  0  0
   39.4230   79.9630   52.1710 C   0  0  0  0  0  0  0  0  0  0  0  0
   38.0490   79.8310   52.2350 C   0  0  0  0  0  0  0  0  0  0  0  0
   37.2930   79.5860   51.1040 C   0  0  0  0  0  0  0  0  0  0  0  0
   37.9150   79.4670   49.8900 C   0  0  0  0  0  0  0  0  0  0  0  0
   39.2970   79.5950   49.7950 C   0  0  0  0  0  0  0  0  0  0  0  0
   40.0430   79.8400   50.9280 C   0  0  0  0  0  0  0  0  0  0  0  0
   41.0334   79.9956   61.6782 H   0  0  0  0  0  0  0  0  0  0  0  0
   40.5091   77.6035   61.3447 H   0  0  0  0  0  0  0  0  0  0  0  0
   40.1750   84.9275   58.3780 H   0  0  0  0  0  0  0  0  0  0  0  0
   39.6326   82.5099   58.0387 H   0  0  0  0  0  0  0  0  0  0  0  0
   43.3752   84.2387   62.2003 H   0  0  0  0  0  0  0  0  0  0  0  0
   43.4598   84.5264   64.6931 H   0  0  0  0  0  0  0  0  0  0  0  0
   41.9544   84.2928   65.6216 H   0  0  0  0  0  0  0  0  0  0  0  0
   38.5433   80.3316   56.4548 H   0  0  0  0  0  0  0  0  0  0  0  0
   39.3373   76.2857   57.5841 H   0  0  0  0  0  0  0  0  0  0  0  0
   38.5052   74.4301   55.5507 H   0  0  0  0  0  0  0  0  0  0  0  0
   37.3918   74.7396   53.2198 H   0  0  0  0  0  0  0  0  0  0  0  0
   36.2000   79.4874   51.1787 H   0  0  0  0  0  0  0  0  0  0  0  0
   37.3197   79.2694   48.9864 H   0  0  0  0  0  0  0  0  0  0  0  0
   39.7934   79.5009   48.8179 H   0  0  0  0  0  0  0  0  0  0  0  0
   41.1358   79.9392   50.8510 H   0  0  0  0  0  0  0  0  0  0  0  0
  1  9  1  0
  1  2  2  0
  3  2  1  0
  4  3  2  0
  5  6  2  0
  5  4  1  0
  6  1  1  0
  7 12  2  0
  8  7  1  0
  8  9  2  0
  9 10  1  0
 10 11  2  0
 11 15  1  0
 12 11  1  0
 13 14  2  0
 13 16  1  0
 15 13  1  0
 17 18  2  0
 18  5  1  0
 19 18  1  0
 20 19  2  0
 21 20  1  0
 22 21  1  0
 23 22  2  0
 23 24  1  0
 24 25  2  0
 24 20  1  0
 25 17  1  0
 26 25  1  0
 28 29  2  0
 28 27  1  0
 29 26  1  0
 30 29  1  0
 31 30  2  0
 32 31  1  0
 32 33  2  0
 33 28  1  0
  2 34  1  0
  3 35  1  0
  7 36  1  0
  8 37  1  0
 15 38  1  0
 16 39  1  0
 16 40  1  0
 17 41  1  0
 19 42  1  0
 21 43  1  0
 22 44  1  0
 30 45  1  0
 31 46  1  0
 32 47  1  0
 33 48  1  0
M  END
>  <Score>  (1) 
-7.02208

>  <Score_dual>  (1) 
-8.99

>  <Choices>  (1) 
[None, 9, ['12-5', 195], 12, ['0-20', 0], 12, ['19-19', 60], 23, ['34-20', 315], 36, ['17-14', 0], 37, ['7-8', 105]]

$$$$
