
     RDKit          3D

 52 56  0  0  1  0  0  0  0  0999 V2000
   41.3490   78.3200   57.4410 Cl  0  0  0  0  0  0  0  0  0  0  0  0
   39.7490   78.6590   56.7800 C   0  0  0  0  0  0  0  0  0  0  0  0
   39.4790   79.9770   56.6150 C   0  0  0  0  0  0  0  0  0  0  0  0
   38.2030   80.2880   56.1050 C   0  0  0  0  0  0  0  0  0  0  0  0
   37.2560   79.3070   55.7830 C   0  0  0  0  0  0  0  0  0  0  0  0
   37.6260   77.9850   55.9870 C   0  0  0  0  0  0  0  0  0  0  0  0
   38.8680   77.6630   56.4840 C   0  0  0  0  0  0  0  0  0  0  0  0
   41.0850   82.8210   58.4940 C   0  0  0  0  0  0  0  0  0  0  0  0
   40.3110   81.7100   58.1910 C   0  0  0  0  0  0  0  0  0  0  0  0
   40.3070   81.1400   56.8910 C   0  0  0  0  0  0  0  0  0  0  0  0
   41.0830   81.7040   55.9280 C   0  0  0  0  0  0  0  0  0  0  0  0
   41.8520   82.8120   56.2350 C   0  0  0  0  0  0  0  0  0  0  0  0
   41.8320   83.3370   57.5040 C   0  0  0  0  0  0  0  0  0  0  0  0
   41.0080   83.3210   59.8680 C   0  0  0  0  0  0  0  0  0  0  0  0
   42.0860   83.8650   60.5420 C   0  0  0  0  0  0  0  0  0  0  0  0
   41.9610   84.3230   61.8440 C   0  0  0  0  0  0  0  0  0  0  0  0
   40.7370   84.2110   62.4140 N   0  0  0  0  0  0  0  0  0  0  0  0
   39.7000   83.6910   61.7730 C   0  0  0  0  0  0  0  0  0  0  0  0
   39.8270   83.2430   60.5000 N   0  0  0  0  0  0  0  0  0  0  0  0
   38.4170   83.5710   62.3650 N   0  0  0  0  0  0  0  0  0  0  0  0
   39.2350   76.2500   56.6350 C   0  0  2  0  0  0  0  0  0  0  0  0
   38.3090   75.2180   56.2280 C   0  0  0  0  0  0  0  0  0  0  0  0
   38.5740   75.4240   57.7300 C   0  0  1  0  0  0  0  0  0  0  0  0
   38.7060   73.7880   59.6640 C   0  0  1  0  0  0  0  0  0  0  0  0
   39.2540   74.2960   58.3760 C   0  0  2  0  0  0  0  0  0  0  0  0
   40.6300   74.5360   58.5940 O   0  0  0  0  0  0  0  0  0  0  0  0
   40.9810   73.3910   59.3350 C   0  0  0  0  0  0  0  0  0  0  0  0
   39.9790   73.5350   60.4780 C   0  0  1  0  0  0  0  0  0  0  0  0
   37.8030   74.5760   60.3110 O   0  0  0  0  0  0  0  0  0  0  0  0
   40.3730   74.6830   61.1740 O   0  0  0  0  0  0  0  0  0  0  0  0
   37.9393   81.3451   55.9533 H   0  0  0  0  0  0  0  0  0  0  0  0
   36.2648   79.5724   55.3867 H   0  0  0  0  0  0  0  0  0  0  0  0
   36.9144   77.1811   55.7473 H   0  0  0  0  0  0  0  0  0  0  0  0
   39.6859   81.2604   58.9766 H   0  0  0  0  0  0  0  0  0  0  0  0
   41.0993   81.2824   54.9121 H   0  0  0  0  0  0  0  0  0  0  0  0
   42.4816   83.2741   55.4603 H   0  0  0  0  0  0  0  0  0  0  0  0
   42.4546   84.2180   57.7189 H   0  0  0  0  0  0  0  0  0  0  0  0
   43.0600   83.9354   60.0357 H   0  0  0  0  0  0  0  0  0  0  0  0
   42.8135   84.7561   62.3878 H   0  0  0  0  0  0  0  0  0  0  0  0
   37.6390   83.1602   61.8293 H   0  0  0  0  0  0  0  0  0  0  0  0
   38.2631   83.8946   63.3306 H   0  0  0  0  0  0  0  0  0  0  0  0
   40.2777   76.4813   56.3717 H   0  0  0  0  0  0  0  0  0  0  0  0
   37.3337   75.4960   55.8020 H   0  0  0  0  0  0  0  0  0  0  0  0
   38.3667   74.3563   55.5467 H   0  0  0  0  0  0  0  0  0  0  0  0
   38.0397   75.6893   58.6542 H   0  0  0  0  0  0  0  0  0  0  0  0
   38.0764   72.9015   59.4979 H   0  0  0  0  0  0  0  0  0  0  0  0
   39.0692   73.5171   57.6215 H   0  0  0  0  0  0  0  0  0  0  0  0
   40.8247   72.4646   58.7628 H   0  0  0  0  0  0  0  0  0  0  0  0
   42.0372   73.3253   59.6352 H   0  0  0  0  0  0  0  0  0  0  0  0
   39.8802   72.7117   61.2008 H   0  0  0  0  0  0  0  0  0  0  0  0
   37.9183   74.4754   61.2891 H   0  0  0  0  0  0  0  0  0  0  0  0
   40.3152   74.5146   62.1479 H   0  0  0  0  0  0  0  0  0  0  0  0
  2  1  1  0
  3  2  2  0
  3 10  1  0
  4  3  1  0
  5  6  1  0
  5  4  2  0
  6  7  2  0
  7 21  1  0
  7  2  1  0
  8 14  1  0
  9  8  2  0
 10  9  1  0
 11 12  1  0
 11 10  2  0
 12 13  2  0
 13  8  1  0
 14 19  1  0
 14 15  2  0
 15 16  1  0
 16 17  2  0
 18 20  1  0
 18 17  1  0
 19 18  2  0
 21 23  1  0
 22 21  1  0
 22 23  1  0
 23 25  1  0
 24 29  1  0
 24 28  1  0
 25 26  1  0
 25 24  1  0
 26 27  1  0
 27 28  1  0
 28 30  1  0
  4 31  1  0
  5 32  1  0
  6 33  1  0
  9 34  1  0
 11 35  1  0
 12 36  1  0
 13 37  1  0
 15 38  1  0
 16 39  1  0
 20 40  1  0
 20 41  1  0
 21 42  1  6
 22 43  1  0
 22 44  1  0
 23 45  1  1
 24 46  1  6
 25 47  1  6
 27 48  1  0
 27 49  1  0
 28 50  1  1
 29 51  1  0
 30 52  1  0
M  END
>  <Score>  (1) 
-7.41055

>  <Score_dual>  (1) 
-8.07

>  <Choices>  (1) 
[None, 6, ['1-28', 270], 16, ['7-17', 105], 29, ['16-25', 300], 36, ['0-3', 0], 38, ['14-10', 135]]

$$$$
