
     RDKit          3D

 47 51  0  0  0  0  0  0  0  0999 V2000
   40.4270   76.7080   60.6320 C   0  0  0  0  0  0  0  0  0  0  0  0
   40.2340   78.0400   58.5190 C   0  0  0  0  0  0  0  0  0  0  0  0
   39.7290   77.1160   59.4300 C   0  0  0  0  0  0  0  0  0  0  0  0
   38.4930   76.5990   59.1120 C   0  0  0  0  0  0  0  0  0  0  0  0
   37.7780   76.9390   57.9930 C   0  0  0  0  0  0  0  0  0  0  0  0
   36.5760   76.5490   57.5180 N   0  0  0  0  0  0  0  0  0  0  0  0
   36.3470   77.2030   56.3640 C   0  0  0  0  0  0  0  0  0  0  0  0
   37.4110   77.9980   56.1270 N   0  0  0  0  0  0  0  0  0  0  0  0
   38.3220   77.8530   57.1300 C   0  0  0  0  0  0  0  0  0  0  0  0
   39.5780   78.4280   57.3800 C   0  0  0  0  0  0  0  0  0  0  0  0
   40.0870   79.3870   56.4240 C   0  0  0  0  0  0  0  0  0  0  0  0
   40.4640   80.6490   56.7630 C   0  0  0  0  0  0  0  0  0  0  0  0
   40.9480   81.5630   55.8660 C   0  0  0  0  0  0  0  0  0  0  0  0
   41.0650   81.2140   54.5710 N   0  0  0  0  0  0  0  0  0  0  0  0
   40.6910   79.9530   54.2140 C   0  0  0  0  0  0  0  0  0  0  0  0
   40.2230   79.0890   55.1220 N   0  0  0  0  0  0  0  0  0  0  0  0
   40.3140   77.5210   61.8620 C   0  0  0  0  0  0  0  0  0  0  0  0
   41.4500   81.0000   61.5650 C   0  0  0  0  0  0  0  0  0  0  0  0
   42.8090   80.9300   61.7440 C   0  0  0  0  0  0  0  0  0  0  0  0
   43.3770   79.6740   61.9740 C   0  0  0  0  0  0  0  0  0  0  0  0
   42.5520   78.5990   62.0060 N   0  0  0  0  0  0  0  0  0  0  0  0
   41.2330   78.7160   61.8260 C   0  0  0  0  0  0  0  0  0  0  0  0
   40.6350   79.9170   61.6000 N   0  0  0  0  0  0  0  0  0  0  0  0
   40.7550   82.2450   61.3210 N   0  0  0  0  0  0  0  0  0  0  0  0
   40.6830   82.5290   59.9690 C   0  0  0  0  0  0  0  0  0  0  0  0
   40.0610   83.6710   59.5110 C   0  0  0  0  0  0  0  0  0  0  0  0
   39.5070   84.5320   60.4570 C   0  0  0  0  0  0  0  0  0  0  0  0
   38.9380   85.5740   60.0670 O   0  0  0  0  0  0  0  0  0  0  0  0
   39.6040   84.2100   61.7500 N   0  0  0  0  0  0  0  0  0  0  0  0
   40.2110   83.0980   62.1780 C   0  0  0  0  0  0  0  0  0  0  0  0
   40.3360   82.7430   63.3440 O   0  0  0  0  0  0  0  0  0  0  0  0
   41.4964   76.6617   60.3785 H   0  0  0  0  0  0  0  0  0  0  0  0
   39.9321   75.7643   60.9050 H   0  0  0  0  0  0  0  0  0  0  0  0
   41.2184   78.4852   58.7259 H   0  0  0  0  0  0  0  0  0  0  0  0
   38.0503   75.8649   59.8013 H   0  0  0  0  0  0  0  0  0  0  0  0
   35.9432   75.8683   57.9621 H   0  0  0  0  0  0  0  0  0  0  0  0
   35.4539   77.1067   55.7290 H   0  0  0  0  0  0  0  0  0  0  0  0
   40.3751   80.9522   57.8166 H   0  0  0  0  0  0  0  0  0  0  0  0
   41.2378   82.5704   56.1994 H   0  0  0  0  0  0  0  0  0  0  0  0
   40.7753   79.6406   53.1627 H   0  0  0  0  0  0  0  0  0  0  0  0
   39.2764   77.8719   61.9635 H   0  0  0  0  0  0  0  0  0  0  0  0
   40.6023   76.8919   62.7170 H   0  0  0  0  0  0  0  0  0  0  0  0
   43.4325   81.8355   61.7075 H   0  0  0  0  0  0  0  0  0  0  0  0
   44.4608   79.5612   62.1245 H   0  0  0  0  0  0  0  0  0  0  0  0
   41.1302   81.8309   59.2461 H   0  0  0  0  0  0  0  0  0  0  0  0
   40.0038   83.8951   58.4356 H   0  0  0  0  0  0  0  0  0  0  0  0
   39.1931   84.8463   62.4480 H   0  0  0  0  0  0  0  0  0  0  0  0
  1 17  1  0
  2  3  2  0
  3  1  1  0
  4  3  1  0
  5  4  2  0
  6  5  1  0
  7  6  1  0
  8  7  2  0
  8  9  1  0
  9 10  2  0
  9  5  1  0
 10  2  1  0
 11 12  2  0
 11 10  1  0
 13 12  1  0
 14 13  2  0
 15 14  1  0
 15 16  2  0
 16 11  1  0
 18 23  1  0
 18 19  2  0
 19 20  1  0
 20 21  2  0
 22 17  1  0
 22 21  1  0
 23 22  2  0
 24 18  1  0
 24 30  1  0
 25 24  1  0
 26 25  2  0
 26 27  1  0
 27 29  1  0
 28 27  2  0
 29 30  1  0
 30 31  2  0
  1 32  1  0
  1 33  1  0
  2 34  1  0
  4 35  1  0
  6 36  1  0
  7 37  1  0
 12 38  1  0
 13 39  1  0
 15 40  1  0
 17 41  1  0
 17 42  1  0
 19 43  1  0
 20 44  1  0
 25 45  1  0
 26 46  1  0
 29 47  1  0
M  END
>  <Score>  (1) 
-7.51079

>  <Score_dual>  (1) 
-7.39

>  <Choices>  (1) 
[None, 6, ['37-16', 135], 19, ['4-9', 270], 25, ['34-15', 255], 38, ['19-15', 345]]

$$$$
