
     RDKit          3D

 52 56  0  0  1  0  0  0  0  0999 V2000
   41.1080   83.5730   60.3980 C   0  0  0  0  0  0  0  0  0  0  0  0
   41.4310   82.2140   60.3190 C   0  0  0  0  0  0  0  0  0  0  0  0
   40.7150   81.2600   61.0410 C   0  0  0  0  0  0  0  0  0  0  0  0
   39.6930   81.7060   61.8220 N   0  0  0  0  0  0  0  0  0  0  0  0
   39.3650   83.0070   61.9130 C   0  0  0  0  0  0  0  0  0  0  0  0
   40.0580   83.9230   61.2170 N   0  0  0  0  0  0  0  0  0  0  0  0
   41.6970   84.6870   59.7410 C   0  0  0  0  0  0  0  0  0  0  0  0
   41.0870   85.1020   58.5450 C   0  0  0  0  0  0  0  0  0  0  0  0
   41.5230   86.1720   57.7680 C   0  0  0  0  0  0  0  0  0  0  0  0
   42.6180   86.8770   58.1890 C   0  0  0  0  0  0  0  0  0  0  0  0
   43.2310   86.5110   59.3290 C   0  0  0  0  0  0  0  0  0  0  0  0
   44.3550   87.2200   59.7790 C   0  0  0  0  0  0  0  0  0  0  0  0
   45.0460   86.9220   60.9320 C   0  0  0  0  0  0  0  0  0  0  0  0
   44.5340   85.8420   61.6320 C   0  0  0  0  0  0  0  0  0  0  0  0
   43.4400   85.1310   61.2200 C   0  0  0  0  0  0  0  0  0  0  0  0
   42.7830   85.4560   60.0730 C   0  0  0  0  0  0  0  0  0  0  0  0
   41.0850   79.9030   60.9190 C   0  0  0  0  0  0  0  0  0  0  0  0
   42.0060   79.3250   61.5450 O   0  0  0  0  0  0  0  0  0  0  0  0
   40.1990   77.5530   61.9910 F   0  0  0  0  0  0  0  0  0  0  0  0
   39.9910   77.8220   60.6680 C   0  0  0  0  0  0  0  0  0  0  0  0
   40.3900   78.9810   59.9950 C   0  0  0  0  0  0  0  0  0  0  0  0
   40.1180   79.1200   58.6720 C   0  0  0  0  0  0  0  0  0  0  0  0
   39.4540   78.1200   58.0110 C   0  0  0  0  0  0  0  0  0  0  0  0
   39.0510   76.9720   58.6480 C   0  0  0  0  0  0  0  0  0  0  0  0
   39.3190   76.8150   59.9890 C   0  0  0  0  0  0  0  0  0  0  0  0
   37.4430   76.6470   56.7580 C   0  0  1  0  0  0  0  0  0  0  0  0
   38.3350   75.9880   57.8000 C   0  0  1  0  0  0  0  0  0  0  0  0
   39.2170   75.0670   57.0260 C   0  0  0  0  0  0  0  0  0  0  0  0
   39.2050   75.5400   55.6960 O   0  0  0  0  0  0  0  0  0  0  0  0
   37.8760   75.9090   55.5080 C   0  0  0  0  0  0  0  0  0  0  0  0
   36.0910   76.5020   57.0280 O   0  0  0  0  0  0  0  0  0  0  0  0
   38.8970   75.6110   60.6440 N   0  0  0  0  0  0  0  0  0  0  0  0
   42.2640   81.8927   59.6764 H   0  0  0  0  0  0  0  0  0  0  0  0
   38.5300   83.3206   62.5568 H   0  0  0  0  0  0  0  0  0  0  0  0
   40.2048   84.5434   58.1990 H   0  0  0  0  0  0  0  0  0  0  0  0
   41.0005   86.4439   56.8390 H   0  0  0  0  0  0  0  0  0  0  0  0
   42.9912   87.7303   57.6037 H   0  0  0  0  0  0  0  0  0  0  0  0
   44.7064   88.0676   59.1722 H   0  0  0  0  0  0  0  0  0  0  0  0
   45.9259   87.4907   61.2672 H   0  0  0  0  0  0  0  0  0  0  0  0
   45.0317   85.5409   62.5656 H   0  0  0  0  0  0  0  0  0  0  0  0
   43.0858   84.2835   61.8252 H   0  0  0  0  0  0  0  0  0  0  0  0
   40.4283   80.0284   58.1349 H   0  0  0  0  0  0  0  0  0  0  0  0
   39.2375   78.2403   56.9392 H   0  0  0  0  0  0  0  0  0  0  0  0
   37.5531   77.7399   56.7001 H   0  0  0  0  0  0  0  0  0  0  0  0
   37.7586   75.4220   58.5466 H   0  0  0  0  0  0  0  0  0  0  0  0
   40.2400   75.0888   57.4298 H   0  0  0  0  0  0  0  0  0  0  0  0
   38.8638   74.0270   57.0861 H   0  0  0  0  0  0  0  0  0  0  0  0
   37.7865   76.5663   54.6305 H   0  0  0  0  0  0  0  0  0  0  0  0
   37.2434   75.0263   55.3329 H   0  0  0  0  0  0  0  0  0  0  0  0
   35.9499   76.4869   58.0078 H   0  0  0  0  0  0  0  0  0  0  0  0
   39.0888   75.4760   61.6469 H   0  0  0  0  0  0  0  0  0  0  0  0
   38.4021   74.8813   60.1115 H   0  0  0  0  0  0  0  0  0  0  0  0
  1  6  1  0
  2  1  2  0
  2  3  1  0
  3  4  2  0
  4  5  1  0
  6  5  2  0
  7 16  1  0
  7  1  1  0
  8  7  2  0
  9 10  2  0
  9  8  1  0
 10 11  1  0
 11 12  1  0
 11 16  2  0
 12 13  2  0
 13 14  1  0
 15 14  2  0
 16 15  1  0
 17  3  1  0
 17 18  2  0
 20 19  1  0
 21 20  2  0
 21 17  1  0
 22 21  1  0
 23 24  1  0
 23 22  2  0
 24 25  2  0
 25 32  1  0
 25 20  1  0
 26 31  1  0
 26 27  1  0
 27 24  1  0
 28 27  1  0
 29 28  1  0
 30 29  1  0
 30 26  1  0
  2 33  1  0
  5 34  1  0
  8 35  1  0
  9 36  1  0
 10 37  1  0
 12 38  1  0
 13 39  1  0
 14 40  1  0
 15 41  1  0
 22 42  1  0
 23 43  1  0
 26 44  1  6
 27 45  1  1
 28 46  1  0
 28 47  1  0
 30 48  1  0
 30 49  1  0
 31 50  1  0
 32 51  1  0
 32 52  1  0
M  END
>  <Score>  (1) 
-7.58329

>  <Score_dual>  (1) 
-8.03

>  <Choices>  (1) 
[None, 8, ['5-9', 180], 8, ['26-25', 345], 27, ['9-4', 240], 37, ['0-3', 0], 37, ['30-12', 240]]

$$$$
