
     RDKit          3D

 39 41  0  0  0  0  0  0  0  0999 V2000
   41.1500   79.5560   61.5380 C   0  0  0  0  0  0  0  0  0  0  0  0
   42.4590   79.1000   61.7440 C   0  0  0  0  0  0  0  0  0  0  0  0
   42.7340   77.7420   61.4380 C   0  0  0  0  0  0  0  0  0  0  0  0
   41.6970   76.9920   60.9670 N   0  0  0  0  0  0  0  0  0  0  0  0
   40.4700   77.4800   60.7900 C   0  0  0  0  0  0  0  0  0  0  0  0
   40.1590   78.7740   61.0690 N   0  0  0  0  0  0  0  0  0  0  0  0
   40.8940   80.9470   61.8580 C   0  0  0  0  0  0  0  0  0  0  0  0
   41.7870   81.8400   62.4310 C   0  0  0  0  0  0  0  0  0  0  0  0
   41.1150   83.0300   62.5470 N   0  0  0  0  0  0  0  0  0  0  0  0
   39.8690   82.8990   62.0770 C   0  0  0  0  0  0  0  0  0  0  0  0
   39.7310   81.6340   61.6570 N   0  0  0  0  0  0  0  0  0  0  0  0
   38.8780   83.9150   62.0310 N   0  0  0  0  0  0  0  0  0  0  0  0
   41.7620   84.2010   63.1160 C   0  0  0  0  0  0  0  0  0  0  0  0
   40.9170   84.9470   63.8910 F   0  0  0  0  0  0  0  0  0  0  0  0
   42.2600   85.0260   62.1120 F   0  0  0  0  0  0  0  0  0  0  0  0
   42.8020   83.7600   63.9410 F   0  0  0  0  0  0  0  0  0  0  0  0
   39.4540   76.5910   60.2860 C   0  0  0  0  0  0  0  0  0  0  0  0
   38.7820   75.9200   61.1080 O   0  0  0  0  0  0  0  0  0  0  0  0
   39.3240   75.1500   58.2390 C   0  0  0  0  0  0  0  0  0  0  0  0
   39.0310   76.3110   58.9000 C   0  0  0  0  0  0  0  0  0  0  0  0
   38.3060   77.2250   58.1900 C   0  0  0  0  0  0  0  0  0  0  0  0
   37.8810   77.0180   56.8840 C   0  0  0  0  0  0  0  0  0  0  0  0
   38.2070   75.8260   56.2680 C   0  0  0  0  0  0  0  0  0  0  0  0
   38.9360   74.8810   56.9510 C   0  0  0  0  0  0  0  0  0  0  0  0
   39.2890   73.6340   56.3340 N   0  0  0  0  0  0  0  0  0  0  0  0
   37.7830   75.5620   54.8970 C   0  0  0  0  0  0  0  0  0  0  0  0
   37.1740   76.4590   54.2600 O   0  0  0  0  0  0  0  0  0  0  0  0
   40.7090   73.3330   59.5320 N   0  0  0  0  0  0  0  0  0  0  0  0
   40.1010   74.1360   58.9570 C   0  0  0  0  0  0  0  0  0  0  0  0
   43.2431   79.7690   62.1281 H   0  0  0  0  0  0  0  0  0  0  0  0
   43.7380   77.3137   61.5745 H   0  0  0  0  0  0  0  0  0  0  0  0
   42.8251   81.6352   62.7318 H   0  0  0  0  0  0  0  0  0  0  0  0
   37.9451   83.7074   61.6470 H   0  0  0  0  0  0  0  0  0  0  0  0
   39.0921   84.8595   62.3816 H   0  0  0  0  0  0  0  0  0  0  0  0
   38.0448   78.1754   58.6783 H   0  0  0  0  0  0  0  0  0  0  0  0
   37.2986   77.7854   56.3531 H   0  0  0  0  0  0  0  0  0  0  0  0
   39.8355   72.9362   56.8588 H   0  0  0  0  0  0  0  0  0  0  0  0
   38.9958   73.4369   55.3665 H   0  0  0  0  0  0  0  0  0  0  0  0
   37.9935   74.5903   54.4265 H   0  0  0  0  0  0  0  0  0  0  0  0
  1  2  2  0
  1  7  1  0
  3  2  1  0
  4  3  2  0
  5  4  1  0
  5  6  2  0
  6  1  1  0
  7  8  2  0
  8  9  1  0
  9 13  1  0
 10  9  1  0
 11  7  1  0
 11 10  2  0
 12 10  1  0
 13 14  1  0
 13 16  1  0
 15 13  1  0
 17  5  1  0
 17 18  2  0
 19 20  2  0
 19 29  1  0
 20 17  1  0
 21 20  1  0
 22 21  2  0
 23 22  1  0
 23 24  2  0
 24 19  1  0
 25 24  1  0
 26 23  1  0
 27 26  2  0
 29 28  3  0
  2 30  1  0
  3 31  1  0
  8 32  1  0
 12 33  1  0
 12 34  1  0
 21 35  1  0
 22 36  1  0
 25 37  1  0
 25 38  1  0
 26 39  1  0
M  END
>  <Score>  (1) 
-7.10959

>  <Score_dual>  (1) 
-7.24

>  <Choices>  (1) 
[None, 6, ['23-9', 180], 15, ['11-3', 300], 16, ['0-2', 0], 21, ['5-9', 345], 23, ['40-8', 135], 34, ['0-2', 0], 34, ['5-8', 150]]

$$$$
