
     RDKit          3D

 53 58  0  0  1  0  0  0  0  0999 V2000
   44.8840   80.9150   62.7480 C   0  0  2  0  0  0  0  0  0  0  0  0
   44.9660   82.3460   62.1580 C   0  0  2  0  0  0  0  0  0  0  0  0
   46.0350   82.9060   63.0600 C   0  0  0  0  0  0  0  0  0  0  0  0
   46.9420   81.8760   63.2930 O   0  0  0  0  0  0  0  0  0  0  0  0
   46.3030   80.6750   63.1120 C   0  0  0  0  0  0  0  0  0  0  0  0
   41.7280   84.2330   61.6060 C   0  0  0  0  0  0  0  0  0  0  0  0
   42.9100   83.5240   61.3120 C   0  0  0  0  0  0  0  0  0  0  0  0
   43.7310   83.0770   62.3560 C   0  0  0  0  0  0  0  0  0  0  0  0
   43.3260   83.3620   63.6160 N   0  0  0  0  0  0  0  0  0  0  0  0
   42.1740   84.0510   63.8740 C   0  0  0  0  0  0  0  0  0  0  0  0
   41.4060   84.4680   62.8500 N   0  0  0  0  0  0  0  0  0  0  0  0
   40.9290   84.6630   60.4820 C   0  0  0  0  0  0  0  0  0  0  0  0
   39.5410   84.6100   60.4030 C   0  0  0  0  0  0  0  0  0  0  0  0
   39.1780   85.0960   59.2090 N   0  0  0  0  0  0  0  0  0  0  0  0
   40.2900   85.4600   58.5230 C   0  0  0  0  0  0  0  0  0  0  0  0
   41.3510   85.1900   59.3120 N   0  0  0  0  0  0  0  0  0  0  0  0
   44.4780   80.0140   61.8030 O   0  0  0  0  0  0  0  0  0  0  0  0
   43.4820   79.0730   61.9100 C   0  0  0  0  0  0  0  0  0  0  0  0
   43.3010   77.7160   62.1860 C   0  0  0  0  0  0  0  0  0  0  0  0
   41.9540   77.5140   62.1970 N   0  0  0  0  0  0  0  0  0  0  0  0
   41.3270   78.6130   61.7980 C   0  0  1  0  0  0  0  0  0  0  0  0
   42.2430   79.5930   61.6740 N   0  0  0  0  0  0  0  0  0  0  0  0
   40.5940   78.3890   60.5560 N   0  0  0  0  0  0  0  0  0  0  0  0
   40.4990   79.1370   59.4430 C   0  0  0  0  0  0  0  0  0  0  0  0
   39.7050   78.5350   58.5380 N   0  0  0  0  0  0  0  0  0  0  0  0
   39.2580   77.3830   59.0260 C   0  0  0  0  0  0  0  0  0  0  0  0
   38.4510   76.3250   58.6530 C   0  0  1  0  0  0  0  0  0  0  0  0
   38.2000   75.2620   59.4390 N   0  0  0  0  0  0  0  0  0  0  0  0
   38.7640   75.2050   60.6760 C   0  0  0  0  0  0  0  0  0  0  0  0
   39.5400   76.2170   61.0400 N   0  0  0  0  0  0  0  0  0  0  0  0
   39.8180   77.2990   60.2880 C   0  0  0  0  0  0  0  0  0  0  0  0
   37.8700   76.4040   57.3550 N   0  0  0  0  0  0  0  0  0  0  0  0
   44.1693   80.8120   63.5778 H   0  0  0  0  0  0  0  0  0  0  0  0
   45.1560   82.3915   61.0755 H   0  0  0  0  0  0  0  0  0  0  0  0
   46.5396   83.7518   62.5701 H   0  0  0  0  0  0  0  0  0  0  0  0
   45.6041   83.2745   64.0026 H   0  0  0  0  0  0  0  0  0  0  0  0
   46.3482   80.0923   64.0439 H   0  0  0  0  0  0  0  0  0  0  0  0
   46.7977   80.1165   62.3037 H   0  0  0  0  0  0  0  0  0  0  0  0
   43.1871   83.3222   60.2668 H   0  0  0  0  0  0  0  0  0  0  0  0
   41.8764   84.2633   64.9115 H   0  0  0  0  0  0  0  0  0  0  0  0
   38.8620   84.2353   61.1831 H   0  0  0  0  0  0  0  0  0  0  0  0
   38.2102   85.1799   58.8667 H   0  0  0  0  0  0  0  0  0  0  0  0
   40.3212   85.8940   57.5127 H   0  0  0  0  0  0  0  0  0  0  0  0
   43.7739   77.1006   61.4065 H   0  0  0  0  0  0  0  0  0  0  0  0
   43.7596   77.4342   63.1453 H   0  0  0  0  0  0  0  0  0  0  0  0
   41.7203   76.7381   61.5612 H   0  0  0  0  0  0  0  0  0  0  0  0
   40.5730   78.9079   62.5427 H   0  0  0  0  0  0  0  0  0  0  0  0
   40.9997   80.1049   59.2930 H   0  0  0  0  0  0  0  0  0  0  0  0
   39.3248   75.8075   58.2304 H   0  0  0  0  0  0  0  0  0  0  0  0
   38.5834   74.3529   61.3478 H   0  0  0  0  0  0  0  0  0  0  0  0
   39.9659   76.1716   61.9767 H   0  0  0  0  0  0  0  0  0  0  0  0
   36.8530   76.5423   57.4419 H   0  0  0  0  0  0  0  0  0  0  0  0
   38.2817   77.1967   56.8422 H   0  0  0  0  0  0  0  0  0  0  0  0
  1  5  1  0
  2  8  1  0
  2  1  1  0
  2  3  1  0
  3  4  1  0
  5  4  1  0
  6 11  1  0
  7  6  2  0
  7  8  1  0
  8  9  2  0
  9 10  1  0
 11 10  2  0
 12  6  1  0
 13 12  2  0
 14 13  1  0
 15 14  1  0
 15 16  2  0
 16 12  1  0
 17 18  1  0
 17  1  1  0
 18 19  1  0
 19 20  1  0
 21 20  1  0
 22 21  1  0
 22 18  2  0
 23 21  1  0
 24 23  1  0
 25 26  1  0
 25 24  2  0
 26 31  2  0
 27 32  1  0
 27 26  1  0
 27 28  1  0
 28 29  2  0
 29 30  1  0
 31 23  1  0
 31 30  1  0
  1 33  1  1
  2 34  1  6
  3 35  1  0
  3 36  1  0
  5 37  1  0
  5 38  1  0
  7 39  1  0
 10 40  1  0
 13 41  1  0
 14 42  1  0
 15 43  1  0
 19 44  1  0
 19 45  1  0
 20 46  1  0
 21 47  1  1
 24 48  1  0
 27 49  1  6
 29 50  1  0
 30 51  1  0
 32 52  1  0
 32 53  1  0
M  END
>  <Score>  (1) 
-7.16499

>  <Score_dual>  (1) 
-7.05

>  <Choices>  (1) 
[None, 6, ['23-9', 180], 12, ['30-12', 270], 28, ['23-10', 195], 37, ['28-8', 345]]

$$$$
