
     RDKit          3D

 37 40  0  0  0  0  0  0  0  0999 V2000
   40.5000   80.1280   60.8490 C   0  0  0  0  0  0  0  0  0  0  0  0
   40.6810   78.8600   61.4540 C   0  0  0  0  0  0  0  0  0  0  0  0
   40.3680   77.7120   60.7490 C   0  0  0  0  0  0  0  0  0  0  0  0
   39.8930   77.8690   59.4840 N   0  0  0  0  0  0  0  0  0  0  0  0
   39.7260   79.0770   58.9220 C   0  0  0  0  0  0  0  0  0  0  0  0
   40.0260   80.1990   59.5970 N   0  0  0  0  0  0  0  0  0  0  0  0
   39.2100   79.1650   57.5600 C   0  0  0  0  0  0  0  0  0  0  0  0
   39.5830   80.2050   56.7310 C   0  0  0  0  0  0  0  0  0  0  0  0
   39.0870   80.2880   55.4250 C   0  0  0  0  0  0  0  0  0  0  0  0
   38.2210   79.3060   54.9880 C   0  0  0  0  0  0  0  0  0  0  0  0
   37.7010   79.3250   53.7250 N   0  0  0  0  0  0  0  0  0  0  0  0
   36.8480   78.3310   53.3410 C   0  0  0  0  0  0  0  0  0  0  0  0
   36.4640   77.2830   54.1520 C   0  0  0  0  0  0  0  0  0  0  0  0
   36.9810   77.2370   55.4500 C   0  0  0  0  0  0  0  0  0  0  0  0
   37.8380   78.2590   55.8010 C   0  0  0  0  0  0  0  0  0  0  0  0
   38.3420   78.2020   57.0860 C   0  0  0  0  0  0  0  0  0  0  0  0
   40.8430   81.3020   61.6320 C   0  0  0  0  0  0  0  0  0  0  0  0
   42.1490   81.4900   62.0230 C   0  0  0  0  0  0  0  0  0  0  0  0
   42.3960   82.6410   62.7710 C   0  0  0  0  0  0  0  0  0  0  0  0
   41.3230   83.4690   63.0440 C   0  0  0  0  0  0  0  0  0  0  0  0
   40.0500   83.2520   62.6420 C   0  0  0  0  0  0  0  0  0  0  0  0
   39.8340   82.1450   61.9270 N   0  0  0  0  0  0  0  0  0  0  0  0
   41.7370   84.6670   63.8560 C   0  0  0  0  0  0  0  0  0  0  0  0
   40.6520   85.3850   64.2940 F   0  0  0  0  0  0  0  0  0  0  0  0
   42.5960   85.4760   63.1530 F   0  0  0  0  0  0  0  0  0  0  0  0
   42.4020   84.1870   64.9670 F   0  0  0  0  0  0  0  0  0  0  0  0
   41.0691   78.7886   62.4808 H   0  0  0  0  0  0  0  0  0  0  0  0
   40.4977   76.7138   61.1926 H   0  0  0  0  0  0  0  0  0  0  0  0
   40.2762   80.9749   57.1007 H   0  0  0  0  0  0  0  0  0  0  0  0
   39.3802   81.1159   54.7627 H   0  0  0  0  0  0  0  0  0  0  0  0
   36.4408   78.3679   52.3198 H   0  0  0  0  0  0  0  0  0  0  0  0
   35.7729   76.5081   53.7887 H   0  0  0  0  0  0  0  0  0  0  0  0
   36.7191   76.4313   56.1517 H   0  0  0  0  0  0  0  0  0  0  0  0
   38.0456   77.3724   57.7448 H   0  0  0  0  0  0  0  0  0  0  0  0
   42.9465   80.7786   61.7625 H   0  0  0  0  0  0  0  0  0  0  0  0
   43.4075   82.8812   63.1305 H   0  0  0  0  0  0  0  0  0  0  0  0
   39.2366   83.9496   62.8905 H   0  0  0  0  0  0  0  0  0  0  0  0
  1  2  2  0
  1 17  1  0
  3  2  1  0
  4  3  2  0
  5  4  1  0
  5  6  2  0
  6  1  1  0
  7  5  1  0
  8  7  2  0
  9  8  1  0
 10  9  2  0
 10 15  1  0
 11 10  1  0
 12 11  2  0
 12 13  1  0
 13 14  2  0
 14 15  1  0
 15 16  2  0
 16  7  1  0
 17 22  1  0
 17 18  2  0
 18 19  1  0
 19 20  2  0
 20 23  1  0
 21 20  1  0
 22 21  2  0
 23 24  1  0
 23 26  1  0
 25 23  1  0
  2 27  1  0
  3 28  1  0
  8 29  1  0
  9 30  1  0
 12 31  1  0
 13 32  1  0
 14 33  1  0
 16 34  1  0
 18 35  1  0
 19 36  1  0
 21 37  1  0
M  END
>  <Score>  (1) 
-7.16203

>  <Score_dual>  (1) 
-7.1

>  <Choices>  (1) 
[None, 6, ['6-18', 60], 17, ['11-13', 75], 21, ['36-25', 315]]

$$$$
