
     RDKit          3D

 48 52  0  0  1  0  0  0  0  0999 V2000
   40.3430   80.1400   58.7960 C   0  0  0  0  0  0  0  0  0  0  0  0
   40.3470   80.6710   60.0580 C   0  0  0  0  0  0  0  0  0  0  0  0
   40.7190   79.7700   61.0480 C   0  0  0  0  0  0  0  0  0  0  0  0
   41.0590   78.4620   60.8180 C   0  0  0  0  0  0  0  0  0  0  0  0
   41.4330   77.4590   61.6360 N   0  0  0  0  0  0  0  0  0  0  0  0
   41.6530   76.3470   60.8960 C   0  0  0  0  0  0  0  0  0  0  0  0
   41.4060   76.6890   59.6180 N   0  0  0  0  0  0  0  0  0  0  0  0
   41.0430   77.9690   59.5440 C   0  0  0  0  0  0  0  0  0  0  0  0
   40.6800   78.8190   58.5130 C   0  0  0  0  0  0  0  0  0  0  0  0
   39.5180   84.2790   59.8520 C   0  0  0  0  0  0  0  0  0  0  0  0
   39.8440   82.9790   59.4270 C   0  0  0  0  0  0  0  0  0  0  0  0
   40.0130   82.0190   60.4050 C   0  0  0  0  0  0  0  0  0  0  0  0
   39.8590   82.3740   61.7020 N   0  0  0  0  0  0  0  0  0  0  0  0
   39.5500   83.6110   62.0930 C   0  0  0  0  0  0  0  0  0  0  0  0
   39.3820   84.5570   61.1610 N   0  0  0  0  0  0  0  0  0  0  0  0
   39.3160   85.3680   58.9200 N   0  0  0  0  0  0  0  0  0  0  0  0
   40.6020   83.6490   64.2260 C   0  0  0  0  0  0  0  0  0  0  0  0
   41.6940   83.2080   63.7200 O   0  0  0  0  0  0  0  0  0  0  0  0
   39.4060   83.9040   63.4880 N   0  0  0  0  0  0  0  0  0  0  0  0
   40.6500   78.3750   57.0980 C   0  0  0  0  0  0  0  0  0  0  0  0
   39.3740   77.7570   56.6480 C   0  0  2  0  0  0  0  0  0  0  0  0
   39.6880   76.6810   55.6320 C   0  0  0  0  0  0  0  0  0  0  0  0
   38.6410   76.6860   54.6350 N   0  0  0  0  0  0  0  0  0  0  0  0
   37.5670   76.3270   53.7640 C   0  0  0  0  0  0  0  0  0  0  0  0
   37.0220   75.2380   53.3760 O   0  0  0  0  0  0  0  0  0  0  0  0
   37.2450   77.7360   53.4090 C   0  0  0  0  0  0  0  0  0  0  0  0
   38.5850   78.0100   54.0290 C   0  0  1  0  0  0  0  0  0  0  0  0
   38.5530   78.9930   55.5590 S   0  0  0  0  0  0  0  0  0  0  0  0
   38.4510   77.2940   57.7190 C   0  0  0  0  0  0  0  0  0  0  0  0
   40.0575   80.7937   57.9587 H   0  0  0  0  0  0  0  0  0  0  0  0
   40.7423   80.1307   62.0869 H   0  0  0  0  0  0  0  0  0  0  0  0
   41.5350   77.5272   62.6587 H   0  0  0  0  0  0  0  0  0  0  0  0
   41.9703   75.3607   61.2655 H   0  0  0  0  0  0  0  0  0  0  0  0
   39.9596   82.7369   58.3602 H   0  0  0  0  0  0  0  0  0  0  0  0
   39.4095   85.2034   57.9075 H   0  0  0  0  0  0  0  0  0  0  0  0
   39.0788   86.3075   59.2693 H   0  0  0  0  0  0  0  0  0  0  0  0
   40.5847   83.8455   65.3082 H   0  0  0  0  0  0  0  0  0  0  0  0
   38.5368   84.2590   63.9115 H   0  0  0  0  0  0  0  0  0  0  0  0
   40.8441   79.2522   56.4633 H   0  0  0  0  0  0  0  0  0  0  0  0
   41.4137   77.5880   57.0120 H   0  0  0  0  0  0  0  0  0  0  0  0
   40.6575   76.8893   55.1558 H   0  0  0  0  0  0  0  0  0  0  0  0
   39.7428   75.6979   56.1224 H   0  0  0  0  0  0  0  0  0  0  0  0
   37.1672   77.9487   52.3326 H   0  0  0  0  0  0  0  0  0  0  0  0
   36.3159   78.2470   53.7018 H   0  0  0  0  0  0  0  0  0  0  0  0
   39.3045   78.4646   53.3321 H   0  0  0  0  0  0  0  0  0  0  0  0
   38.8909   77.5146   58.7028 H   0  0  0  0  0  0  0  0  0  0  0  0
   37.4871   77.8153   57.6230 H   0  0  0  0  0  0  0  0  0  0  0  0
   38.2926   76.2097   57.6230 H   0  0  0  0  0  0  0  0  0  0  0  0
  1  2  2  0
  2 12  1  0
  2  3  1  0
  4  3  2  0
  4  5  1  0
  6  5  1  0
  7  6  2  0
  8  7  1  0
  8  4  1  0
  9  1  1  0
  9  8  2  0
 10 15  2  0
 11 10  1  0
 11 12  2  0
 12 13  1  0
 13 14  2  0
 14 19  1  0
 15 14  1  0
 16 10  1  0
 18 17  2  0
 19 17  1  0
 20  9  1  0
 21 20  1  1
 21 29  1  0
 22 21  1  0
 23 22  1  0
 24 23  1  0
 25 24  2  0
 26 24  1  0
 27 26  1  0
 27 23  1  0
 27 28  1  0
 28 21  1  0
  1 30  1  0
  3 31  1  0
  5 32  1  0
  6 33  1  0
 11 34  1  0
 16 35  1  0
 16 36  1  0
 17 37  1  0
 19 38  1  0
 20 39  1  0
 20 40  1  0
 22 41  1  0
 22 42  1  0
 26 43  1  0
 26 44  1  0
 27 45  1  6
 29 46  1  0
 29 47  1  0
 29 48  1  0
M  END
>  <Score>  (1) 
-7.10799

>  <Score_dual>  (1) 
-7.18

>  <Choices>  (1) 
[None, 6, ['0-3', 0], 9, ['12-5', 150], 11, ['34-20', 15], 28, ['53-14', 75]]

$$$$
