
     RDKit          3D

 46 51  0  0  0  0  0  0  0  0999 V2000
   41.8190   77.9870   59.9070 Cl  0  0  0  0  0  0  0  0  0  0  0  0
   42.5740   76.8140   60.9400 C   0  0  0  0  0  0  0  0  0  0  0  0
   43.4470   77.2260   61.9080 C   0  0  0  0  0  0  0  0  0  0  0  0
   44.0010   76.2100   62.6980 C   0  0  0  0  0  0  0  0  0  0  0  0
   43.6960   74.8910   62.5240 C   0  0  0  0  0  0  0  0  0  0  0  0
   42.8190   74.5050   61.5490 C   0  0  0  0  0  0  0  0  0  0  0  0
   42.2480   75.4840   60.7410 C   0  0  0  0  0  0  0  0  0  0  0  0
   42.6900   72.1320   62.2030 C   0  0  0  0  0  0  0  0  0  0  0  0
   42.4150   73.1160   61.2670 C   0  0  0  0  0  0  0  0  0  0  0  0
   41.7740   72.6700   60.1430 C   0  0  0  0  0  0  0  0  0  0  0  0
   41.4360   71.3540   59.9650 C   0  0  0  0  0  0  0  0  0  0  0  0
   40.8170   70.6790   58.9760 N   0  0  0  0  0  0  0  0  0  0  0  0
   40.7140   69.3890   59.2640 N   0  0  0  0  0  0  0  0  0  0  0  0
   41.2640   69.1610   60.4630 C   0  0  0  0  0  0  0  0  0  0  0  0
   41.7180   70.4010   60.9030 C   0  0  0  0  0  0  0  0  0  0  0  0
   42.3590   70.8010   62.0460 C   0  0  0  0  0  0  0  0  0  0  0  0
   45.2110   80.4740   62.5540 C   0  0  0  0  0  0  0  0  0  0  0  0
   44.9590   79.1080   62.4370 C   0  0  0  0  0  0  0  0  0  0  0  0
   43.7250   78.6440   62.0630 C   0  0  0  0  0  0  0  0  0  0  0  0
   42.7170   79.5560   61.8030 N   0  0  0  0  0  0  0  0  0  0  0  0
   42.9790   80.8820   61.9220 C   0  0  0  0  0  0  0  0  0  0  0  0
   44.2030   81.3510   62.2910 N   0  0  0  0  0  0  0  0  0  0  0  0
   41.0610   82.2240   62.6600 C   0  0  0  0  0  0  0  0  0  0  0  0
   41.9300   81.8610   61.6530 C   0  0  0  0  0  0  0  0  0  0  0  0
   41.7600   82.4450   60.4370 C   0  0  0  0  0  0  0  0  0  0  0  0
   40.7690   83.3700   60.1860 C   0  0  0  0  0  0  0  0  0  0  0  0
   40.3380   84.1090   59.1480 N   0  0  0  0  0  0  0  0  0  0  0  0
   39.2870   84.8690   59.4860 C   0  0  0  0  0  0  0  0  0  0  0  0
   39.0180   84.6190   60.7930 N   0  0  0  0  0  0  0  0  0  0  0  0
   39.9110   83.7120   61.2220 C   0  0  0  0  0  0  0  0  0  0  0  0
   40.0550   83.1390   62.4710 C   0  0  0  0  0  0  0  0  0  0  0  0
   44.7111   76.4868   63.4912 H   0  0  0  0  0  0  0  0  0  0  0  0
   44.1592   74.1332   63.1730 H   0  0  0  0  0  0  0  0  0  0  0  0
   41.5405   75.2016   59.9475 H   0  0  0  0  0  0  0  0  0  0  0  0
   43.2040   72.4299   63.1287 H   0  0  0  0  0  0  0  0  0  0  0  0
   41.5211   73.3938   59.3543 H   0  0  0  0  0  0  0  0  0  0  0  0
   40.4687   71.1101   58.1078 H   0  0  0  0  0  0  0  0  0  0  0  0
   41.3408   68.1979   60.9889 H   0  0  0  0  0  0  0  0  0  0  0  0
   42.6070   70.0699   62.8296 H   0  0  0  0  0  0  0  0  0  0  0  0
   46.2055   80.8367   62.8532 H   0  0  0  0  0  0  0  0  0  0  0  0
   45.7649   78.3898   62.6486 H   0  0  0  0  0  0  0  0  0  0  0  0
   41.1781   81.7633   63.6520 H   0  0  0  0  0  0  0  0  0  0  0  0
   42.4416   82.1679   59.6193 H   0  0  0  0  0  0  0  0  0  0  0  0
   40.7629   84.0928   58.2099 H   0  0  0  0  0  0  0  0  0  0  0  0
   38.7446   85.5642   58.8284 H   0  0  0  0  0  0  0  0  0  0  0  0
   39.3789   83.4098   63.2953 H   0  0  0  0  0  0  0  0  0  0  0  0
  1  2  1  0
  2  3  2  0
  3 19  1  0
  3  4  1  0
  5  4  2  0
  6  5  1  0
  7  2  1  0
  7  6  2  0
  9  6  1  0
  9  8  2  0
 10  9  1  0
 11 10  2  0
 11 15  1  0
 12 13  1  0
 12 11  1  0
 13 14  2  0
 14 15  1  0
 15 16  2  0
 16  8  1  0
 18 17  2  0
 19 18  1  0
 20 21  1  0
 20 19  2  0
 21 22  2  0
 22 17  1  0
 24 21  1  0
 24 23  2  0
 25 24  1  0
 26 25  2  0
 26 30  1  0
 27 28  1  0
 27 26  1  0
 28 29  2  0
 29 30  1  0
 30 31  2  0
 31 23  1  0
  4 32  1  0
  5 33  1  0
  7 34  1  0
  8 35  1  0
 10 36  1  0
 12 37  1  0
 14 38  1  0
 16 39  1  0
 17 40  1  0
 18 41  1  0
 23 42  1  0
 25 43  1  0
 27 44  1  0
 28 45  1  0
 31 46  1  0
M  END
>  <Score>  (1) 
-7.68511

>  <Score_dual>  (1) 
-9.44

>  <Choices>  (1) 
[None, 8, ['7-18', 120], 18, ['54-9', 240], 32, ['34-23', 270]]

$$$$
