
     RDKit          3D

 54 58  0  0  0  0  0  0  0  0999 V2000
   42.0370   78.3380   62.5430 Cl  0  0  0  0  0  0  0  0  0  0  0  0
   43.4880   79.2770   62.2590 C   0  0  0  0  0  0  0  0  0  0  0  0
   43.3810   80.5980   61.8980 C   0  0  0  0  0  0  0  0  0  0  0  0
   44.5560   81.2390   61.7000 C   0  0  0  0  0  0  0  0  0  0  0  0
   45.7890   80.6630   61.8350 C   0  0  0  0  0  0  0  0  0  0  0  0
   45.8830   79.3360   62.1970 C   0  0  0  0  0  0  0  0  0  0  0  0
   44.7160   78.6390   62.4110 C   0  0  0  0  0  0  0  0  0  0  0  0
   39.8600   81.2580   60.9040 C   0  0  0  0  0  0  0  0  0  0  0  0
   41.0870   80.6000   60.9650 C   0  0  0  0  0  0  0  0  0  0  0  0
   42.0690   81.1920   61.7590 C   0  0  0  0  0  0  0  0  0  0  0  0
   41.7670   82.3470   62.4040 N   0  0  0  0  0  0  0  0  0  0  0  0
   40.5520   82.9570   62.3170 C   0  0  0  0  0  0  0  0  0  0  0  0
   39.5900   82.3890   61.5470 N   0  0  0  0  0  0  0  0  0  0  0  0
   40.3530   84.0940   64.4690 C   0  0  0  0  0  0  0  0  0  0  0  0
   40.3480   82.9390   65.0020 O   0  0  0  0  0  0  0  0  0  0  0  0
   40.4580   84.1350   63.0620 N   0  0  0  0  0  0  0  0  0  0  0  0
   40.2580   85.2730   65.2190 N   0  0  0  0  0  0  0  0  0  0  0  0
   45.9150   76.7380   63.5330 C   0  0  0  0  0  0  0  0  0  0  0  0
   44.8540   77.2370   62.7920 C   0  0  0  0  0  0  0  0  0  0  0  0
   43.8900   76.3280   62.4120 C   0  0  0  0  0  0  0  0  0  0  0  0
   43.9820   75.0030   62.7500 C   0  0  0  0  0  0  0  0  0  0  0  0
   43.1980   73.9420   62.5090 N   0  0  0  0  0  0  0  0  0  0  0  0
   43.7640   72.8600   63.0780 C   0  0  0  0  0  0  0  0  0  0  0  0
   44.9090   73.1830   63.6930 N   0  0  0  0  0  0  0  0  0  0  0  0
   45.0370   74.5160   63.4840 C   0  0  0  0  0  0  0  0  0  0  0  0
   46.0200   75.4050   63.8800 C   0  0  0  0  0  0  0  0  0  0  0  0
   47.1510   75.0390   64.6340 N   0  0  0  0  0  0  0  0  0  0  0  0
   47.7130   75.8850   65.6920 C   0  0  0  0  0  0  0  0  0  0  0  0
   49.1140   75.4030   65.9900 C   0  0  0  0  0  0  0  0  0  0  0  0
   49.1310   73.9750   66.4740 C   0  0  0  0  0  0  0  0  0  0  0  0
   48.0350   73.1760   65.8070 C   0  0  0  0  0  0  0  0  0  0  0  0
   47.8510   73.7720   64.4070 C   0  0  0  0  0  0  0  0  0  0  0  0
   44.5167   82.2993   61.4097 H   0  0  0  0  0  0  0  0  0  0  0  0
   46.6992   81.2542   61.6561 H   0  0  0  0  0  0  0  0  0  0  0  0
   46.8625   78.8486   62.3114 H   0  0  0  0  0  0  0  0  0  0  0  0
   39.0662   80.8137   60.2855 H   0  0  0  0  0  0  0  0  0  0  0  0
   41.2710   79.6644   60.4166 H   0  0  0  0  0  0  0  0  0  0  0  0
   40.4654   85.0445   62.5787 H   0  0  0  0  0  0  0  0  0  0  0  0
   40.2660   86.1872   64.7446 H   0  0  0  0  0  0  0  0  0  0  0  0
   40.1801   85.2259   66.2450 H   0  0  0  0  0  0  0  0  0  0  0  0
   46.7047   77.4317   63.8574 H   0  0  0  0  0  0  0  0  0  0  0  0
   43.0271   76.6740   61.8240 H   0  0  0  0  0  0  0  0  0  0  0  0
   42.3145   73.9526   61.9796 H   0  0  0  0  0  0  0  0  0  0  0  0
   43.3414   71.8450   63.0422 H   0  0  0  0  0  0  0  0  0  0  0  0
   47.7434   76.9316   65.3547 H   0  0  0  0  0  0  0  0  0  0  0  0
   47.0905   75.8244   66.5969 H   0  0  0  0  0  0  0  0  0  0  0  0
   49.7163   75.4738   65.0723 H   0  0  0  0  0  0  0  0  0  0  0  0
   49.5278   76.0365   66.7884 H   0  0  0  0  0  0  0  0  0  0  0  0
   50.1050   73.5234   66.2345 H   0  0  0  0  0  0  0  0  0  0  0  0
   48.9656   73.9663   67.5615 H   0  0  0  0  0  0  0  0  0  0  0  0
   48.3269   72.1180   65.7340 H   0  0  0  0  0  0  0  0  0  0  0  0
   47.1004   73.2236   66.3852 H   0  0  0  0  0  0  0  0  0  0  0  0
   47.2477   73.1026   63.7761 H   0  0  0  0  0  0  0  0  0  0  0  0
   48.8085   73.9122   63.8841 H   0  0  0  0  0  0  0  0  0  0  0  0
  2  7  2  0
  2  1  1  0
  3  2  1  0
  4  5  1  0
  4  3  2  0
  5  6  2  0
  6  7  1  0
  7 19  1  0
  8  9  2  0
  8 13  1  0
  9 10  1  0
 10  3  1  0
 10 11  2  0
 12 11  1  0
 12 16  1  0
 13 12  2  0
 14 15  2  0
 14 17  1  0
 16 14  1  0
 18 26  2  0
 19 18  1  0
 20 21  1  0
 20 19  2  0
 21 25  2  0
 22 21  1  0
 22 23  1  0
 23 24  2  0
 25 24  1  0
 25 26  1  0
 26 27  1  0
 27 28  1  0
 28 29  1  0
 29 30  1  0
 31 30  1  0
 32 27  1  0
 32 31  1  0
  4 33  1  0
  5 34  1  0
  6 35  1  0
  8 36  1  0
  9 37  1  0
 16 38  1  0
 17 39  1  0
 17 40  1  0
 18 41  1  0
 20 42  1  0
 22 43  1  0
 23 44  1  0
 28 45  1  0
 28 46  1  0
 29 47  1  0
 29 48  1  0
 30 49  1  0
 30 50  1  0
 31 51  1  0
 31 52  1  0
 32 53  1  0
 32 54  1  0
M  END
>  <Score>  (1) 
-7.64528

>  <Score_dual>  (1) 
-8.34

>  <Choices>  (1) 
[None, 9, ['12-5', 195], 12, ['0-20', 0], 12, ['7-17', 150], 25, ['34-21', 120], 38, ['8-4', 105]]

$$$$
