
     RDKit          3D

 50 54  0  0  0  0  0  0  0  0999 V2000
   39.6540   78.3040   59.1430 C   0  0  0  0  0  0  0  0  0  0  0  0
   38.9810   78.2250   57.9390 C   0  0  0  0  0  0  0  0  0  0  0  0
   38.3080   77.0300   57.6710 C   0  0  0  0  0  0  0  0  0  0  0  0
   38.3560   76.0260   58.6040 N   0  0  0  0  0  0  0  0  0  0  0  0
   39.0220   76.1510   59.7540 C   0  0  0  0  0  0  0  0  0  0  0  0
   39.6830   77.2870   60.0500 N   0  0  0  0  0  0  0  0  0  0  0  0
   38.7330   79.1830   56.8670 C   0  0  0  0  0  0  0  0  0  0  0  0
   39.4270   78.7790   55.5700 C   0  0  0  0  0  0  0  0  0  0  0  0
   38.4280   78.6260   54.4390 C   0  0  0  0  0  0  0  0  0  0  0  0
   37.6630   79.7390   54.2350 O   0  0  0  0  0  0  0  0  0  0  0  0
   37.3120   80.4160   55.3970 C   0  0  0  0  0  0  0  0  0  0  0  0
   37.2560   79.3540   56.5220 C   0  0  0  0  0  0  0  0  0  0  0  0
   40.3610   79.5320   59.4240 C   0  0  0  0  0  0  0  0  0  0  0  0
   41.1160   79.7870   60.5360 C   0  0  0  0  0  0  0  0  0  0  0  0
   41.5980   81.0840   60.3810 C   0  0  0  0  0  0  0  0  0  0  0  0
   41.1360   81.5720   59.2110 N   0  0  0  0  0  0  0  0  0  0  0  0
   40.3860   80.6380   58.6230 N   0  0  0  0  0  0  0  0  0  0  0  0
   42.4750   81.7330   61.3400 C   0  0  0  0  0  0  0  0  0  0  0  0
   43.8400   81.5730   61.4530 C   0  0  0  0  0  0  0  0  0  0  0  0
   44.6830   82.1420   62.3480 C   0  0  0  0  0  0  0  0  0  0  0  0
   44.1380   82.9990   63.2810 C   0  0  0  0  0  0  0  0  0  0  0  0
   42.7830   83.2370   63.2670 C   0  0  0  0  0  0  0  0  0  0  0  0
   42.2710   84.0940   64.2170 C   0  0  0  0  0  0  0  0  0  0  0  0
   40.9190   84.3610   64.2490 C   0  0  0  0  0  0  0  0  0  0  0  0
   40.0820   83.7650   63.3260 C   0  0  0  0  0  0  0  0  0  0  0  0
   40.6620   82.9200   62.4060 C   0  0  0  0  0  0  0  0  0  0  0  0
   42.0010   82.6130   62.3190 C   0  0  0  0  0  0  0  0  0  0  0  0
   41.3510   82.8640   58.5800 C   0  0  0  0  0  0  0  0  0  0  0  0
   40.6590   83.8580   59.2200 F   0  0  0  0  0  0  0  0  0  0  0  0
   42.7080   83.0860   58.5220 F   0  0  0  0  0  0  0  0  0  0  0  0
   40.8530   82.8080   57.2660 F   0  0  0  0  0  0  0  0  0  0  0  0
   37.7515   76.8974   56.7315 H   0  0  0  0  0  0  0  0  0  0  0  0
   39.0313   75.3155   60.4694 H   0  0  0  0  0  0  0  0  0  0  0  0
   39.1328   80.1272   57.2653 H   0  0  0  0  0  0  0  0  0  0  0  0
   40.1602   79.5529   55.2991 H   0  0  0  0  0  0  0  0  0  0  0  0
   39.9256   77.8113   55.7281 H   0  0  0  0  0  0  0  0  0  0  0  0
   38.9806   78.4085   53.5131 H   0  0  0  0  0  0  0  0  0  0  0  0
   37.7451   77.8100   54.7179 H   0  0  0  0  0  0  0  0  0  0  0  0
   38.0657   81.1815   55.6337 H   0  0  0  0  0  0  0  0  0  0  0  0
   36.3450   80.9279   55.2835 H   0  0  0  0  0  0  0  0  0  0  0  0
   36.6825   79.7176   57.3873 H   0  0  0  0  0  0  0  0  0  0  0  0
   36.7574   78.4191   56.2264 H   0  0  0  0  0  0  0  0  0  0  0  0
   41.3038   79.1067   61.3797 H   0  0  0  0  0  0  0  0  0  0  0  0
   44.3047   80.8955   60.7215 H   0  0  0  0  0  0  0  0  0  0  0  0
   45.7619   81.9284   62.3311 H   0  0  0  0  0  0  0  0  0  0  0  0
   44.7802   83.4873   64.0288 H   0  0  0  0  0  0  0  0  0  0  0  0
   42.9418   84.5654   64.9504 H   0  0  0  0  0  0  0  0  0  0  0  0
   40.5087   85.0455   65.0060 H   0  0  0  0  0  0  0  0  0  0  0  0
   38.9989   83.9570   63.3257 H   0  0  0  0  0  0  0  0  0  0  0  0
   39.9930   82.4464   61.6725 H   0  0  0  0  0  0  0  0  0  0  0  0
  1 13  1  0
  1  6  2  0
  2  1  1  0
  3  2  2  0
  3  4  1  0
  4  5  2  0
  5  6  1  0
  7  2  1  0
  8  7  1  0
  9  8  1  0
 10  9  1  0
 10 11  1  0
 11 12  1  0
 12  7  1  0
 13 14  1  0
 15 14  2  0
 15 18  1  0
 16 15  1  0
 17 16  1  0
 17 13  2  0
 18 19  2  0
 18 27  1  0
 19 20  1  0
 20 21  2  0
 22 21  1  0
 22 23  2  0
 23 24  1  0
 25 24  2  0
 26 25  1  0
 27 26  2  0
 27 22  1  0
 28 16  1  0
 28 29  1  0
 30 28  1  0
 31 28  1  0
  3 32  1  0
  5 33  1  0
  7 34  1  0
  8 35  1  0
  8 36  1  0
  9 37  1  0
  9 38  1  0
 11 39  1  0
 11 40  1  0
 12 41  1  0
 12 42  1  0
 14 43  1  0
 19 44  1  0
 20 45  1  0
 21 46  1  0
 23 47  1  0
 24 48  1  0
 25 49  1  0
 26 50  1  0
M  END
>  <Score>  (1) 
-7.20981

>  <Score_dual>  (1) 
-7.44

>  <Choices>  (1) 
[None, 6, ['22-8', 120], 11, ['56-24', 90], 30, ['11-3', 315], 33, ['26-23', 75]]

$$$$
