
     RDKit          3D

 40 44  0  0  0  0  0  0  0  0999 V2000
   40.2900   79.5460   60.2960 C   0  0  0  0  0  0  0  0  0  0  0  0
   40.9070   80.3610   61.2000 C   0  0  0  0  0  0  0  0  0  0  0  0
   41.9400   79.8750   61.9700 C   0  0  0  0  0  0  0  0  0  0  0  0
   42.3540   78.5420   61.8200 C   0  0  0  0  0  0  0  0  0  0  0  0
   43.3130   77.8220   62.4240 N   0  0  0  0  0  0  0  0  0  0  0  0
   43.3000   76.5710   61.9080 C   0  0  0  0  0  0  0  0  0  0  0  0
   42.3280   76.5220   60.9810 N   0  0  0  0  0  0  0  0  0  0  0  0
   41.7150   77.7360   60.8970 C   0  0  0  0  0  0  0  0  0  0  0  0
   40.6810   78.2190   60.1260 C   0  0  0  0  0  0  0  0  0  0  0  0
   39.1500   76.4330   59.6940 C   0  0  0  0  0  0  0  0  0  0  0  0
   40.0710   77.3090   59.1910 C   0  0  0  0  0  0  0  0  0  0  0  0
   40.4030   77.3210   57.8330 C   0  0  0  0  0  0  0  0  0  0  0  0
   39.7380   76.3960   57.0680 C   0  0  0  0  0  0  0  0  0  0  0  0
   39.8070   76.1280   55.7420 N   0  0  0  0  0  0  0  0  0  0  0  0
   38.9690   75.1220   55.3930 C   0  0  0  0  0  0  0  0  0  0  0  0
   38.3510   74.7390   56.5220 N   0  0  0  0  0  0  0  0  0  0  0  0
   38.7950   75.4830   57.5240 C   0  0  0  0  0  0  0  0  0  0  0  0
   38.5140   75.5250   58.8750 C   0  0  0  0  0  0  0  0  0  0  0  0
   39.5550   83.7950   60.4570 C   0  0  0  0  0  0  0  0  0  0  0  0
   39.9950   82.4810   60.2150 C   0  0  0  0  0  0  0  0  0  0  0  0
   40.4220   81.7420   61.3040 C   0  0  0  0  0  0  0  0  0  0  0  0
   40.3990   82.3030   62.5370 N   0  0  0  0  0  0  0  0  0  0  0  0
   39.9610   83.5870   62.7190 C   0  0  0  0  0  0  0  0  0  0  0  0
   39.5440   84.3270   61.6960 N   0  0  0  0  0  0  0  0  0  0  0  0
   41.1340   84.7810   64.5240 C   0  0  0  0  0  0  0  0  0  0  0  0
   42.1760   84.9470   63.8300 O   0  0  0  0  0  0  0  0  0  0  0  0
   39.9670   84.1060   64.0440 N   0  0  0  0  0  0  0  0  0  0  0  0
   39.4652   79.9454   59.6876 H   0  0  0  0  0  0  0  0  0  0  0  0
   42.4391   80.5290   62.7002 H   0  0  0  0  0  0  0  0  0  0  0  0
   43.9510   78.1642   63.1566 H   0  0  0  0  0  0  0  0  0  0  0  0
   43.9651   75.7434   62.1955 H   0  0  0  0  0  0  0  0  0  0  0  0
   38.9130   76.4530   60.7680 H   0  0  0  0  0  0  0  0  0  0  0  0
   41.1409   78.0186   57.4101 H   0  0  0  0  0  0  0  0  0  0  0  0
   40.4200   76.6267   55.0814 H   0  0  0  0  0  0  0  0  0  0  0  0
   38.8240   74.7029   54.3863 H   0  0  0  0  0  0  0  0  0  0  0  0
   37.7769   74.8285   59.3011 H   0  0  0  0  0  0  0  0  0  0  0  0
   39.2097   84.4066   59.6104 H   0  0  0  0  0  0  0  0  0  0  0  0
   39.9994   82.0576   59.1998 H   0  0  0  0  0  0  0  0  0  0  0  0
   41.1229   85.1757   65.5507 H   0  0  0  0  0  0  0  0  0  0  0  0
   39.1414   83.9971   64.6502 H   0  0  0  0  0  0  0  0  0  0  0  0
  1  2  2  0
  2 21  1  0
  2  3  1  0
  4  3  2  0
  4  5  1  0
  6  5  1  0
  7  6  2  0
  8  7  1  0
  8  4  1  0
  9  1  1  0
  9  8  2  0
 11 10  2  0
 11  9  1  0
 12 11  1  0
 13 17  1  0
 13 12  2  0
 14 13  1  0
 15 14  1  0
 15 16  2  0
 16 17  1  0
 17 18  2  0
 18 10  1  0
 19 24  2  0
 20 19  1  0
 20 21  2  0
 21 22  1  0
 22 23  2  0
 23 27  1  0
 24 23  1  0
 26 25  2  0
 27 25  1  0
  1 28  1  0
  3 29  1  0
  5 30  1  0
  6 31  1  0
 10 32  1  0
 12 33  1  0
 14 34  1  0
 15 35  1  0
 18 36  1  0
 19 37  1  0
 20 38  1  0
 25 39  1  0
 27 40  1  0
M  END
>  <Score>  (1) 
-7.02022

>  <Score_dual>  (1) 
-7.28

>  <Choices>  (1) 
[None, 8, ['34-23', 60], 19, ['34-22', 180], 35, ['12-4', 90]]

$$$$
