
     RDKit          3D

 50 54  0  0  1  0  0  0  0  0999 V2000
   41.8690   84.2150   62.0880 N   0  0  0  0  0  0  0  0  0  0  0  0
   41.7250   84.9770   63.3160 C   0  0  0  0  0  0  0  0  0  0  0  0
   40.9740   84.3040   64.3900 C   0  0  0  0  0  0  0  0  0  0  0  0
   40.7270   82.9300   64.2560 N   0  0  0  0  0  0  0  0  0  0  0  0
   41.0060   82.2590   63.0770 C   0  0  0  0  0  0  0  0  0  0  0  0
   42.0660   82.8070   62.1550 C   0  0  2  0  0  0  0  0  0  0  0  0
   43.3610   82.2670   62.5160 C   0  0  0  0  0  0  0  0  0  0  0  0
   44.4090   82.8810   63.1680 C   0  0  0  0  0  0  0  0  0  0  0  0
   45.6260   82.3310   63.4810 C   0  0  0  0  0  0  0  0  0  0  0  0
   45.8690   81.0220   63.1190 C   0  0  0  0  0  0  0  0  0  0  0  0
   44.8700   80.3410   62.4650 C   0  0  0  0  0  0  0  0  0  0  0  0
   45.1870   79.0370   62.1480 C   0  0  0  0  0  0  0  0  0  0  0  0
   44.2580   78.2550   61.4990 C   0  0  0  0  0  0  0  0  0  0  0  0
   43.0340   78.8040   61.1860 C   0  0  0  0  0  0  0  0  0  0  0  0
   42.7910   80.1050   61.5320 C   0  0  0  0  0  0  0  0  0  0  0  0
   43.6670   80.9480   62.1780 C   0  0  0  0  0  0  0  0  0  0  0  0
   44.3730   85.4560   60.9090 Cl  0  0  0  0  0  0  0  0  0  0  0  0
   42.8260   85.3780   60.1110 C   0  0  0  0  0  0  0  0  0  0  0  0
   42.6710   85.8950   58.8350 C   0  0  0  0  0  0  0  0  0  0  0  0
   41.4570   85.8470   58.1820 C   0  0  0  0  0  0  0  0  0  0  0  0
   40.3550   85.2620   58.8240 C   0  0  0  0  0  0  0  0  0  0  0  0
   40.5780   84.7690   60.0890 C   0  0  0  0  0  0  0  0  0  0  0  0
   39.1870   84.0510   60.8880 Cl  0  0  0  0  0  0  0  0  0  0  0  0
   41.7880   84.7950   60.7870 C   0  0  0  0  0  0  0  0  0  0  0  0
   45.0540   88.4140   57.6830 C   0  0  0  0  0  0  0  0  0  0  0  0
   46.0540   87.6760   57.0280 C   0  0  0  0  0  0  0  0  0  0  0  0
   45.8940   86.2920   56.9870 C   0  0  0  0  0  0  0  0  0  0  0  0
   44.7890   85.7450   57.5790 N   0  0  0  0  0  0  0  0  0  0  0  0
   43.8420   86.4930   58.2050 C   0  0  0  0  0  0  0  0  0  0  0  0
   43.9890   87.8360   58.2500 N   0  0  0  0  0  0  0  0  0  0  0  0
   42.7323   85.2030   63.6958 H   0  0  0  0  0  0  0  0  0  0  0  0
   41.1424   85.8720   63.0521 H   0  0  0  0  0  0  0  0  0  0  0  0
   41.5387   84.4459   65.3232 H   0  0  0  0  0  0  0  0  0  0  0  0
   39.9769   84.7677   64.3619 H   0  0  0  0  0  0  0  0  0  0  0  0
   41.2736   82.4626   64.9934 H   0  0  0  0  0  0  0  0  0  0  0  0
   41.3142   81.2395   63.3520 H   0  0  0  0  0  0  0  0  0  0  0  0
   40.0773   82.3528   62.4950 H   0  0  0  0  0  0  0  0  0  0  0  0
   41.9983   82.4808   61.1067 H   0  0  0  0  0  0  0  0  0  0  0  0
   44.2521   83.9269   63.4705 H   0  0  0  0  0  0  0  0  0  0  0  0
   46.3907   82.9201   64.0085 H   0  0  0  0  0  0  0  0  0  0  0  0
   46.8308   80.5391   63.3463 H   0  0  0  0  0  0  0  0  0  0  0  0
   46.1726   78.6255   62.4111 H   0  0  0  0  0  0  0  0  0  0  0  0
   44.4887   77.2122   61.2356 H   0  0  0  0  0  0  0  0  0  0  0  0
   42.2676   78.2084   60.6684 H   0  0  0  0  0  0  0  0  0  0  0  0
   41.8047   80.5154   61.2699 H   0  0  0  0  0  0  0  0  0  0  0  0
   41.3539   86.2628   57.1689 H   0  0  0  0  0  0  0  0  0  0  0  0
   39.3678   85.2009   58.3427 H   0  0  0  0  0  0  0  0  0  0  0  0
   45.1503   89.5087   57.7315 H   0  0  0  0  0  0  0  0  0  0  0  0
   46.9238   88.1681   56.5683 H   0  0  0  0  0  0  0  0  0  0  0  0
   46.6396   85.6541   56.4898 H   0  0  0  0  0  0  0  0  0  0  0  0
  1  6  1  0
  1  2  1  0
  2  3  1  0
  4  3  1  0
  5  4  1  0
  6  7  1  0
  6  5  1  0
  7  8  2  0
  8  9  1  0
 10  9  2  0
 11 10  1  0
 12 11  2  0
 13 12  1  0
 14 13  2  0
 14 15  1  0
 15 16  2  0
 16 11  1  0
 16  7  1  0
 18 24  2  0
 18 17  1  0
 19 18  1  0
 20 21  1  0
 20 19  2  0
 21 22  2  0
 22 24  1  0
 22 23  1  0
 24  1  1  0
 25 30  2  0
 26 25  1  0
 27 26  2  0
 27 28  1  0
 28 29  2  0
 29 30  1  0
 29 19  1  0
  2 31  1  0
  2 32  1  0
  3 33  1  0
  3 34  1  0
  4 35  1  0
  5 36  1  0
  5 37  1  0
  6 38  1  6
  8 39  1  0
  9 40  1  0
 10 41  1  0
 12 42  1  0
 13 43  1  0
 14 44  1  0
 15 45  1  0
 20 46  1  0
 21 47  1  0
 25 48  1  0
 26 49  1  0
 27 50  1  0
M  END
>  <Score>  (1) 
-7.70533

>  <Score_dual>  (1) 
-7.2

>  <Choices>  (1) 
[None, 9, ['29-22', 90], 16, ['15-6', 315], 33, ['26-25', 345]]

$$$$
