
     RDKit          3D

 47 50  0  0  1  0  0  0  0  0999 V2000
   39.3310   83.7230   61.9260 C   0  0  0  0  0  0  0  0  0  0  0  0
   39.3500   85.5830   58.7420 C   0  0  0  0  0  0  0  0  0  0  0  0
   40.7290   85.6810   58.4310 C   0  0  0  0  0  0  0  0  0  0  0  0
   41.6380   85.0890   59.3460 C   0  0  0  0  0  0  0  0  0  0  0  0
   41.0750   84.5090   60.3920 N   0  0  0  0  0  0  0  0  0  0  0  0
   39.8020   84.3920   60.7260 C   0  0  0  0  0  0  0  0  0  0  0  0
   38.9310   84.9530   59.8590 N   0  0  0  0  0  0  0  0  0  0  0  0
   43.0390   85.1590   59.0810 N   0  0  0  0  0  0  0  0  0  0  0  0
   43.9100   84.1130   59.1880 C   0  0  0  0  0  0  0  0  0  0  0  0
   45.1430   84.5720   58.8580 N   0  0  0  0  0  0  0  0  0  0  0  0
   45.0300   85.8950   58.5490 C   0  0  0  0  0  0  0  0  0  0  0  0
   46.0420   86.7780   58.1510 C   0  0  1  0  0  0  0  0  0  0  0  0
   45.6290   88.0370   57.9120 N   0  0  0  0  0  0  0  0  0  0  0  0
   44.3460   88.4290   58.0390 C   0  0  0  0  0  0  0  0  0  0  0  0
   43.3760   87.5490   58.4290 N   0  0  0  0  0  0  0  0  0  0  0  0
   43.7000   86.2630   58.6910 C   0  0  0  0  0  0  0  0  0  0  0  0
   47.3860   86.3220   58.0290 N   0  0  0  0  0  0  0  0  0  0  0  0
   40.3740   82.7330   62.3900 C   0  0  0  0  0  0  0  0  0  0  0  0
   41.4070   83.8970   64.3340 C   0  0  0  0  0  0  0  0  0  0  0  0
   40.4290   83.7740   65.0420 O   0  0  0  0  0  0  0  0  0  0  0  0
   41.4690   83.6230   62.9480 N   0  0  0  0  0  0  0  0  0  0  0  0
   43.5230   83.5420   63.4600 C   0  0  0  0  0  0  0  0  0  0  0  0
   43.0790   82.5660   62.7570 O   0  0  0  0  0  0  0  0  0  0  0  0
   42.6930   84.3050   64.4490 N   0  0  0  0  0  0  0  0  0  0  0  0
   44.8600   83.5010   62.9290 C   0  0  0  0  0  0  0  0  0  0  0  0
   45.4650   82.4830   63.5760 N   0  0  0  0  0  0  0  0  0  0  0  0
   46.7490   82.4090   63.1630 C   0  0  0  0  0  0  0  0  0  0  0  0
   46.9000   83.3710   62.2250 N   0  0  0  0  0  0  0  0  0  0  0  0
   45.7280   84.0210   62.1130 N   0  0  0  0  0  0  0  0  0  0  0  0
   38.3930   83.1921   61.7062 H   0  0  0  0  0  0  0  0  0  0  0  0
   39.1531   84.4673   62.7162 H   0  0  0  0  0  0  0  0  0  0  0  0
   38.6090   86.0279   58.0615 H   0  0  0  0  0  0  0  0  0  0  0  0
   41.0788   86.1924   57.5221 H   0  0  0  0  0  0  0  0  0  0  0  0
   43.6577   83.0850   59.4874 H   0  0  0  0  0  0  0  0  0  0  0  0
   45.8574   86.5154   57.0989 H   0  0  0  0  0  0  0  0  0  0  0  0
   44.0753   89.4736   57.8254 H   0  0  0  0  0  0  0  0  0  0  0  0
   42.4002   87.8649   58.5231 H   0  0  0  0  0  0  0  0  0  0  0  0
   47.7887   86.1854   58.9671 H   0  0  0  0  0  0  0  0  0  0  0  0
   47.4003   85.4291   57.5158 H   0  0  0  0  0  0  0  0  0  0  0  0
   39.9697   82.0691   63.1684 H   0  0  0  0  0  0  0  0  0  0  0  0
   40.7249   82.0668   61.5881 H   0  0  0  0  0  0  0  0  0  0  0  0
   42.2156   84.0061   62.3508 H   0  0  0  0  0  0  0  0  0  0  0  0
   43.0421   85.0185   65.1047 H   0  0  0  0  0  0  0  0  0  0  0  0
   47.4318   82.5885   64.0066 H   0  0  0  0  0  0  0  0  0  0  0  0
   46.9826   81.4136   62.7573 H   0  0  0  0  0  0  0  0  0  0  0  0
   47.6394   84.0280   62.5123 H   0  0  0  0  0  0  0  0  0  0  0  0
   45.5459   84.8107   61.4773 H   0  0  0  0  0  0  0  0  0  0  0  0
  1 18  1  0
  2  7  2  0
  3  2  1  0
  3  4  2  0
  4  5  1  0
  5  6  2  0
  6  1  1  0
  7  6  1  0
  8  9  1  0
  8  4  1  0
 10  9  2  0
 11 16  2  0
 11 10  1  0
 12 17  1  0
 12 11  1  0
 13 14  2  0
 13 12  1  0
 14 15  1  0
 15 16  1  0
 16  8  1  0
 18 21  1  0
 19 24  1  0
 19 20  2  0
 21 19  1  0
 22 24  1  0
 23 22  2  0
 25 22  1  0
 25 26  2  0
 27 26  1  0
 28 27  1  0
 29 28  1  0
 29 25  1  0
  1 30  1  0
  1 31  1  0
  2 32  1  0
  3 33  1  0
  9 34  1  0
 12 35  1  6
 14 36  1  0
 15 37  1  0
 17 38  1  0
 17 39  1  0
 18 40  1  0
 18 41  1  0
 21 42  1  0
 24 43  1  0
 27 44  1  0
 27 45  1  0
 28 46  1  0
 29 47  1  0
M  END
>  <Score>  (1) 
-7.38712

>  <Score_dual>  (1) 
-7.12

>  <Choices>  (1) 
[None, 9, ['4-11', 75], 15, ['12-5', 345], 18, ['12-20', 150], 22, ['57-11', 60], 31, ['28-8', 150]]

$$$$
