
     RDKit          3D

 53 57  0  0  0  0  0  0  0  0999 V2000
   41.3480   83.6700   61.0590 C   0  0  0  0  0  0  0  0  0  0  0  0
   41.1200   82.3130   60.8590 C   0  0  0  0  0  0  0  0  0  0  0  0
   40.6960   81.4730   61.8870 C   0  0  0  0  0  0  0  0  0  0  0  0
   40.5210   82.0500   63.0890 N   0  0  0  0  0  0  0  0  0  0  0  0
   40.7310   83.3500   63.3200 C   0  0  0  0  0  0  0  0  0  0  0  0
   41.1370   84.1450   62.3200 N   0  0  0  0  0  0  0  0  0  0  0  0
   41.7560   84.6810   60.1520 C   0  0  0  0  0  0  0  0  0  0  0  0
   40.9030   84.9290   59.0470 C   0  0  0  0  0  0  0  0  0  0  0  0
   41.1310   85.8720   58.0570 C   0  0  0  0  0  0  0  0  0  0  0  0
   42.2670   86.6340   58.1330 C   0  0  0  0  0  0  0  0  0  0  0  0
   43.1170   86.4370   59.1680 C   0  0  0  0  0  0  0  0  0  0  0  0
   44.2690   87.2090   59.2450 C   0  0  0  0  0  0  0  0  0  0  0  0
   45.1970   87.0750   60.2720 C   0  0  0  0  0  0  0  0  0  0  0  0
   44.8840   86.0990   61.2290 C   0  0  0  0  0  0  0  0  0  0  0  0
   43.7440   85.3550   61.1260 C   0  0  0  0  0  0  0  0  0  0  0  0
   42.8560   85.4980   60.1240 C   0  0  0  0  0  0  0  0  0  0  0  0
   40.4830   80.0980   61.5780 C   0  0  0  0  0  0  0  0  0  0  0  0
   40.4430   79.1640   62.4420 O   0  0  0  0  0  0  0  0  0  0  0  0
   39.9720   77.4450   61.3110 F   0  0  0  0  0  0  0  0  0  0  0  0
   40.0330   78.2500   60.2000 C   0  0  0  0  0  0  0  0  0  0  0  0
   40.2870   79.6120   60.2220 C   0  0  0  0  0  0  0  0  0  0  0  0
   40.3250   80.3060   59.0370 C   0  0  0  0  0  0  0  0  0  0  0  0
   40.1110   79.6220   57.8660 C   0  0  0  0  0  0  0  0  0  0  0  0
   39.8600   78.2780   57.8420 C   0  0  0  0  0  0  0  0  0  0  0  0
   39.8190   77.5570   59.0440 C   0  0  0  0  0  0  0  0  0  0  0  0
   39.5200   76.1750   58.8790 N   0  0  0  0  0  0  0  0  0  0  0  0
   38.2110   75.6130   59.2440 C   0  0  0  0  0  0  0  0  0  0  0  0
   38.3310   74.6990   60.4330 C   0  0  0  0  0  0  0  0  0  0  0  0
   39.7600   74.3420   60.7480 C   0  0  0  0  0  0  0  0  0  0  0  0
   40.6660   74.2100   59.5860 C   0  0  0  0  0  0  0  0  0  0  0  0
   40.3430   75.0850   58.3960 C   0  0  0  0  0  0  0  0  0  0  0  0
   41.2795   81.8887   59.8567 H   0  0  0  0  0  0  0  0  0  0  0  0
   40.5714   83.7653   64.3260 H   0  0  0  0  0  0  0  0  0  0  0  0
   39.9871   84.3248   58.9691 H   0  0  0  0  0  0  0  0  0  0  0  0
   40.4173   86.0053   57.2306 H   0  0  0  0  0  0  0  0  0  0  0  0
   42.4846   87.3925   57.3666 H   0  0  0  0  0  0  0  0  0  0  0  0
   44.4551   87.9577   58.4609 H   0  0  0  0  0  0  0  0  0  0  0  0
   46.1082   87.6886   60.3294 H   0  0  0  0  0  0  0  0  0  0  0  0
   45.5668   85.9305   62.0748 H   0  0  0  0  0  0  0  0  0  0  0  0
   43.5407   84.6008   61.9005 H   0  0  0  0  0  0  0  0  0  0  0  0
   40.5229   81.3880   59.0266 H   0  0  0  0  0  0  0  0  0  0  0  0
   40.1425   80.1738   56.9149 H   0  0  0  0  0  0  0  0  0  0  0  0
   39.6910   77.7647   56.8839 H   0  0  0  0  0  0  0  0  0  0  0  0
   37.5223   76.4348   59.4897 H   0  0  0  0  0  0  0  0  0  0  0  0
   37.8283   75.0322   58.3918 H   0  0  0  0  0  0  0  0  0  0  0  0
   37.8921   75.2003   61.3083 H   0  0  0  0  0  0  0  0  0  0  0  0
   37.8005   73.7663   60.1908 H   0  0  0  0  0  0  0  0  0  0  0  0
   40.1661   75.1259   61.4042 H   0  0  0  0  0  0  0  0  0  0  0  0
   39.7219   73.3443   61.2096 H   0  0  0  0  0  0  0  0  0  0  0  0
   41.6835   74.4591   59.9216 H   0  0  0  0  0  0  0  0  0  0  0  0
   40.5514   73.1740   59.2345 H   0  0  0  0  0  0  0  0  0  0  0  0
   39.7946   74.5050   57.6391 H   0  0  0  0  0  0  0  0  0  0  0  0
   41.2633   75.4665   57.9295 H   0  0  0  0  0  0  0  0  0  0  0  0
  1  6  1  0
  2  1  2  0
  2  3  1  0
  3  4  2  0
  4  5  1  0
  6  5  2  0
  7  1  1  0
  8  7  2  0
  9 10  2  0
  9  8  1  0
 10 11  1  0
 11 12  1  0
 11 16  2  0
 12 13  2  0
 13 14  1  0
 15 14  2  0
 16  7  1  0
 16 15  1  0
 17  3  1  0
 17 18  2  0
 20 21  2  0
 20 19  1  0
 21 17  1  0
 22 21  1  0
 23 22  2  0
 24 23  1  0
 24 25  2  0
 25 20  1  0
 26 25  1  0
 26 27  1  0
 27 28  1  0
 28 29  1  0
 30 29  1  0
 31 26  1  0
 31 30  1  0
  2 32  1  0
  5 33  1  0
  8 34  1  0
  9 35  1  0
 10 36  1  0
 12 37  1  0
 13 38  1  0
 14 39  1  0
 15 40  1  0
 22 41  1  0
 23 42  1  0
 24 43  1  0
 27 44  1  0
 27 45  1  0
 28 46  1  0
 28 47  1  0
 29 48  1  0
 29 49  1  0
 30 50  1  0
 30 51  1  0
 31 52  1  0
 31 53  1  0
M  END
>  <Score>  (1) 
-7.3119

>  <Score_dual>  (1) 
-8.28

>  <Choices>  (1) 
[None, 8, ['5-9', 180], 8, ['26-25', 345], 27, ['9-4', 240], 37, ['8-4', 225]]

$$$$
