
     RDKit          3D

 48 53  0  0  1  0  0  0  0  0999 V2000
   40.1280   78.1170   60.1610 C   0  0  0  0  0  0  0  0  0  0  0  0
   39.8330   77.0670   59.3090 C   0  0  0  0  0  0  0  0  0  0  0  0
   39.7150   75.9780   60.2100 C   0  0  0  0  0  0  0  0  0  0  0  0
   39.9310   76.3830   61.5010 N   0  0  0  0  0  0  0  0  0  0  0  0
   40.1810   77.6900   61.4560 N   0  0  0  0  0  0  0  0  0  0  0  0
   39.6430   76.9760   57.9160 N   0  0  0  0  0  0  0  0  0  0  0  0
   40.5560   76.7560   56.9440 C   0  0  0  0  0  0  0  0  0  0  0  0
   39.9710   76.7800   55.7300 N   0  0  0  0  0  0  0  0  0  0  0  0
   38.6400   77.0150   55.8650 C   0  0  0  0  0  0  0  0  0  0  0  0
   37.5620   77.2190   55.0700 C   0  0  2  0  0  0  0  0  0  0  0  0
   36.3110   77.1620   55.6030 N   0  0  0  0  0  0  0  0  0  0  0  0
   36.1220   77.2590   56.9180 C   0  0  0  0  0  0  0  0  0  0  0  0
   37.2090   77.2450   57.6850 N   0  0  0  0  0  0  0  0  0  0  0  0
   38.4580   77.1270   57.2240 C   0  0  0  0  0  0  0  0  0  0  0  0
   37.7120   76.7490   53.7240 N   0  0  0  0  0  0  0  0  0  0  0  0
   40.1950   81.2080   58.1580 C   0  0  0  0  0  0  0  0  0  0  0  0
   40.0340   79.8920   58.5420 C   0  0  0  0  0  0  0  0  0  0  0  0
   40.3300   79.4790   59.7960 C   0  0  0  0  0  0  0  0  0  0  0  0
   40.8060   80.4290   60.6650 N   0  0  0  0  0  0  0  0  0  0  0  0
   40.9790   81.7310   60.3180 C   0  0  0  0  0  0  0  0  0  0  0  0
   40.6740   82.1120   59.0770 N   0  0  0  0  0  0  0  0  0  0  0  0
   41.4900   82.4980   61.4430 C   0  0  0  0  0  0  0  0  0  0  0  0
   40.7100   83.4080   62.1220 C   0  0  0  0  0  0  0  0  0  0  0  0
   41.1430   84.1600   63.1930 C   0  0  0  0  0  0  0  0  0  0  0  0
   42.4340   84.0230   63.6460 C   0  0  0  0  0  0  0  0  0  0  0  0
   43.2700   83.1290   63.0130 C   0  0  0  0  0  0  0  0  0  0  0  0
   44.5630   82.9930   63.4710 C   0  0  0  0  0  0  0  0  0  0  0  0
   45.4340   82.1090   62.8700 C   0  0  0  0  0  0  0  0  0  0  0  0
   44.9530   81.3770   61.8000 C   0  0  0  0  0  0  0  0  0  0  0  0
   43.6530   81.5530   61.3820 C   0  0  0  0  0  0  0  0  0  0  0  0
   42.7560   82.4220   61.9540 C   0  0  0  0  0  0  0  0  0  0  0  0
   39.4811   74.9453   59.9119 H   0  0  0  0  0  0  0  0  0  0  0  0
   39.9050   75.7909   62.3434 H   0  0  0  0  0  0  0  0  0  0  0  0
   41.6278   76.5816   57.1194 H   0  0  0  0  0  0  0  0  0  0  0  0
   37.6018   78.3151   54.9868 H   0  0  0  0  0  0  0  0  0  0  0  0
   35.1141   77.3466   57.3497 H   0  0  0  0  0  0  0  0  0  0  0  0
   37.0792   77.3309   58.7032 H   0  0  0  0  0  0  0  0  0  0  0  0
   38.0251   75.7678   53.7358 H   0  0  0  0  0  0  0  0  0  0  0  0
   36.8081   76.8150   53.2345 H   0  0  0  0  0  0  0  0  0  0  0  0
   39.9448   81.5278   57.1357 H   0  0  0  0  0  0  0  0  0  0  0  0
   39.6561   79.1618   57.8113 H   0  0  0  0  0  0  0  0  0  0  0  0
   39.6712   83.5438   61.7868 H   0  0  0  0  0  0  0  0  0  0  0  0
   40.4581   84.8673   63.6836 H   0  0  0  0  0  0  0  0  0  0  0  0
   42.7933   84.6170   64.4993 H   0  0  0  0  0  0  0  0  0  0  0  0
   44.9037   83.5963   64.3253 H   0  0  0  0  0  0  0  0  0  0  0  0
   46.4679   81.9911   63.2267 H   0  0  0  0  0  0  0  0  0  0  0  0
   45.6062   80.6572   61.2850 H   0  0  0  0  0  0  0  0  0  0  0  0
   43.3072   80.9535   60.5270 H   0  0  0  0  0  0  0  0  0  0  0  0
  1  5  2  0
  2  1  1  0
  2  3  2  0
  3  4  1  0
  5  4  1  0
  6  2  1  0
  7  6  1  0
  8  9  1  0
  8  7  2  0
  9 14  2  0
 10 11  1  0
 10  9  1  0
 11 12  2  0
 12 13  1  0
 14 13  1  0
 14  6  1  0
 15 10  1  0
 16 17  2  0
 16 21  1  0
 17 18  1  0
 18  1  1  0
 18 19  2  0
 20 19  1  0
 20 22  1  0
 21 20  2  0
 22 31  1  0
 22 23  2  0
 23 24  1  0
 24 25  2  0
 26 27  2  0
 26 25  1  0
 28 27  1  0
 29 28  2  0
 30 29  1  0
 30 31  2  0
 31 26  1  0
  3 32  1  0
  4 33  1  0
  7 34  1  0
 10 35  1  6
 12 36  1  0
 13 37  1  0
 15 38  1  0
 15 39  1  0
 16 40  1  0
 17 41  1  0
 23 42  1  0
 24 43  1  0
 25 44  1  0
 27 45  1  0
 28 46  1  0
 29 47  1  0
 30 48  1  0
M  END
>  <Score>  (1) 
-7.44628

>  <Score_dual>  (1) 
-8.39

>  <Choices>  (1) 
[None, 8, ['22-8', 225], 14, ['28-8', 105], 31, ['26-24', 285]]

$$$$
