
     RDKit          3D

 48 52  0  0  1  0  0  0  0  0999 V2000
   40.3420   80.5540   59.7130 C   0  0  0  0  0  0  0  0  0  0  0  0
   40.5530   79.6600   60.7240 C   0  0  0  0  0  0  0  0  0  0  0  0
   40.2700   78.3360   60.5380 C   0  0  0  0  0  0  0  0  0  0  0  0
   39.7840   77.9000   59.3640 N   0  0  0  0  0  0  0  0  0  0  0  0
   39.5780   78.8010   58.3620 C   0  0  0  0  0  0  0  0  0  0  0  0
   39.8540   80.1080   58.5410 N   0  0  0  0  0  0  0  0  0  0  0  0
   40.4990   84.1910   59.0860 C   0  0  0  0  0  0  0  0  0  0  0  0
   40.1800   82.8560   58.8700 C   0  0  0  0  0  0  0  0  0  0  0  0
   40.6220   81.9930   59.8380 C   0  0  0  0  0  0  0  0  0  0  0  0
   41.3150   82.4450   60.9150 N   0  0  0  0  0  0  0  0  0  0  0  0
   41.6010   83.7570   61.0790 C   0  0  0  0  0  0  0  0  0  0  0  0
   41.1790   84.6500   60.1380 N   0  0  0  0  0  0  0  0  0  0  0  0
   41.7370   84.0530   63.4990 C   0  0  0  0  0  0  0  0  0  0  0  0
   40.4830   83.7770   63.5030 O   0  0  0  0  0  0  0  0  0  0  0  0
   42.3270   84.0460   62.2510 N   0  0  0  0  0  0  0  0  0  0  0  0
   42.4880   84.3450   64.6550 N   0  0  0  0  0  0  0  0  0  0  0  0
   38.6860   79.2180   56.1220 C   0  0  0  0  0  0  0  0  0  0  0  0
   39.0530   78.3190   57.1000 C   0  0  0  0  0  0  0  0  0  0  0  0
   38.9220   76.9740   56.8780 C   0  0  0  0  0  0  0  0  0  0  0  0
   38.4190   76.5210   55.6690 C   0  0  0  0  0  0  0  0  0  0  0  0
   38.1890   75.2630   55.2000 N   0  0  0  0  0  0  0  0  0  0  0  0
   37.6990   75.4510   53.9700 C   0  0  0  0  0  0  0  0  0  0  0  0
   37.6100   76.7460   53.6500 N   0  0  0  0  0  0  0  0  0  0  0  0
   38.0520   77.4450   54.6910 C   0  0  0  0  0  0  0  0  0  0  0  0
   38.1850   78.7990   54.9160 C   0  0  0  0  0  0  0  0  0  0  0  0
   37.7670   79.6930   53.8120 C   0  0  1  0  0  0  0  0  0  0  0  0
   38.8310   79.7510   52.7120 C   0  0  0  0  0  0  0  0  0  0  0  0
   38.0290   79.6060   51.4430 C   0  0  0  0  0  0  0  0  0  0  0  0
   36.7430   79.9220   51.8270 O   0  0  0  0  0  0  0  0  0  0  0  0
   36.5870   79.1840   53.0190 C   0  0  0  0  0  0  0  0  0  0  0  0
   40.9512   80.0062   61.6892 H   0  0  0  0  0  0  0  0  0  0  0  0
   40.4416   77.6214   61.3564 H   0  0  0  0  0  0  0  0  0  0  0  0
   40.1667   84.9227   58.3349 H   0  0  0  0  0  0  0  0  0  0  0  0
   39.6154   82.5177   57.9887 H   0  0  0  0  0  0  0  0  0  0  0  0
   43.3318   84.2592   62.1742 H   0  0  0  0  0  0  0  0  0  0  0  0
   43.4927   84.5579   64.5763 H   0  0  0  0  0  0  0  0  0  0  0  0
   42.0323   84.3456   65.5787 H   0  0  0  0  0  0  0  0  0  0  0  0
   38.7974   80.2956   56.3129 H   0  0  0  0  0  0  0  0  0  0  0  0
   39.2153   76.2553   57.6573 H   0  0  0  0  0  0  0  0  0  0  0  0
   38.3550   74.3688   55.6835 H   0  0  0  0  0  0  0  0  0  0  0  0
   37.4026   74.6325   53.2975 H   0  0  0  0  0  0  0  0  0  0  0  0
   37.5620   80.6394   54.3338 H   0  0  0  0  0  0  0  0  0  0  0  0
   39.3660   80.7119   52.7320 H   0  0  0  0  0  0  0  0  0  0  0  0
   39.6052   78.9774   52.8218 H   0  0  0  0  0  0  0  0  0  0  0  0
   38.0818   78.5755   51.0620 H   0  0  0  0  0  0  0  0  0  0  0  0
   38.3996   80.2483   50.6306 H   0  0  0  0  0  0  0  0  0  0  0  0
   35.6334   79.4132   53.5170 H   0  0  0  0  0  0  0  0  0  0  0  0
   36.5614   78.0927   52.8833 H   0  0  0  0  0  0  0  0  0  0  0  0
  1  9  1  0
  1  2  2  0
  3  2  1  0
  4  3  2  0
  5  6  2  0
  5  4  1  0
  6  1  1  0
  7 12  2  0
  8  7  1  0
  8  9  2  0
  9 10  1  0
 10 11  2  0
 11 15  1  0
 12 11  1  0
 13 14  2  0
 13 16  1  0
 15 13  1  0
 17 18  2  0
 18  5  1  0
 19 18  1  0
 20 19  2  0
 21 20  1  0
 22 21  1  0
 23 22  2  0
 23 24  1  0
 24 25  2  0
 24 20  1  0
 25 17  1  0
 26 25  1  0
 27 26  1  0
 28 29  1  0
 28 27  1  0
 29 30  1  0
 30 26  1  0
  2 31  1  0
  3 32  1  0
  7 33  1  0
  8 34  1  0
 15 35  1  0
 16 36  1  0
 16 37  1  0
 17 38  1  0
 19 39  1  0
 21 40  1  0
 22 41  1  0
 26 42  1  1
 27 43  1  0
 27 44  1  0
 28 45  1  0
 28 46  1  0
 30 47  1  0
 30 48  1  0
M  END
>  <Score>  (1) 
-7.32077

>  <Score_dual>  (1) 
-8.21

>  <Choices>  (1) 
[None, 9, ['12-5', 195], 12, ['0-20', 0], 12, ['19-19', 60], 23, ['34-20', 315], 36, ['50-25', 180]]

$$$$
