
     RDKit          3D

 50 55  0  0  0  0  0  0  0  0999 V2000
   40.5460   82.0760   59.1890 C   0  0  0  0  0  0  0  0  0  0  0  0
   41.8000   82.6000   59.2130 C   0  0  0  0  0  0  0  0  0  0  0  0
   41.8520   83.7400   59.9900 C   0  0  0  0  0  0  0  0  0  0  0  0
   40.5060   83.8360   60.4210 C   0  0  0  0  0  0  0  0  0  0  0  0
   39.7960   82.8730   59.9450 O   0  0  0  0  0  0  0  0  0  0  0  0
   43.1450   85.7810   59.5620 C   0  0  0  0  0  0  0  0  0  0  0  0
   42.9320   84.6470   60.3270 C   0  0  0  0  0  0  0  0  0  0  0  0
   43.7280   84.3340   61.4310 C   0  0  0  0  0  0  0  0  0  0  0  0
   44.7550   85.1870   61.7590 C   0  0  0  0  0  0  0  0  0  0  0  0
   45.0080   86.3290   61.0290 C   0  0  0  0  0  0  0  0  0  0  0  0
   44.1850   86.5940   59.9400 C   0  0  0  0  0  0  0  0  0  0  0  0
   44.4140   87.7640   59.1600 N   0  0  0  0  0  0  0  0  0  0  0  0
   44.9160   87.5940   57.9020 C   0  0  0  0  0  0  0  0  0  0  0  0
   45.0570   88.8140   57.3390 N   0  0  0  0  0  0  0  0  0  0  0  0
   44.6600   89.7610   58.2040 C   0  0  0  0  0  0  0  0  0  0  0  0
   44.5510   91.1390   58.2620 C   0  0  0  0  0  0  0  0  0  0  0  0
   44.0780   91.7450   59.3780 N   0  0  0  0  0  0  0  0  0  0  0  0
   43.6950   91.0300   60.4770 C   0  0  0  0  0  0  0  0  0  0  0  0
   43.7920   89.6690   60.4500 N   0  0  0  0  0  0  0  0  0  0  0  0
   44.2640   89.0720   59.3340 C   0  0  0  0  0  0  0  0  0  0  0  0
   41.6230   86.2420   57.5540 N   0  0  0  0  0  0  0  0  0  0  0  0
   42.2910   86.0350   58.4480 C   0  0  0  0  0  0  0  0  0  0  0  0
   39.2420   79.8000   56.6030 C   0  0  0  0  0  0  0  0  0  0  0  0
   39.6260   80.9880   57.1730 C   0  0  0  0  0  0  0  0  0  0  0  0
   40.1070   80.8790   58.4780 C   0  0  0  0  0  0  0  0  0  0  0  0
   40.1610   79.6600   59.0690 N   0  0  0  0  0  0  0  0  0  0  0  0
   39.7610   78.5290   58.4380 C   0  0  0  0  0  0  0  0  0  0  0  0
   39.3000   78.6110   57.1950 N   0  0  0  0  0  0  0  0  0  0  0  0
   38.7030   79.7810   55.2000 C   0  0  0  0  0  0  0  0  0  0  0  0
   37.4790   79.8560   54.7210 C   0  0  0  0  0  0  0  0  0  0  0  0
   37.2330   79.8180   53.3980 C   0  0  0  0  0  0  0  0  0  0  0  0
   38.2960   79.6990   52.5920 C   0  0  0  0  0  0  0  0  0  0  0  0
   39.7000   79.6390   53.7450 S   0  0  0  0  0  0  0  0  0  0  0  0
   39.9510   84.8620   61.2840 N   0  0  0  0  0  0  0  0  0  0  0  0
   42.6624   82.1710   58.6817 H   0  0  0  0  0  0  0  0  0  0  0  0
   43.5378   83.4270   62.0237 H   0  0  0  0  0  0  0  0  0  0  0  0
   45.3908   84.9526   62.6255 H   0  0  0  0  0  0  0  0  0  0  0  0
   45.8317   87.0064   61.2985 H   0  0  0  0  0  0  0  0  0  0  0  0
   45.1626   86.6318   57.4293 H   0  0  0  0  0  0  0  0  0  0  0  0
   45.5593   91.5425   58.0875 H   0  0  0  0  0  0  0  0  0  0  0  0
   43.7748   91.3575   57.5139 H   0  0  0  0  0  0  0  0  0  0  0  0
   43.3136   91.5441   61.3715 H   0  0  0  0  0  0  0  0  0  0  0  0
   43.5103   89.1071   61.2660 H   0  0  0  0  0  0  0  0  0  0  0  0
   39.5598   81.9496   56.6430 H   0  0  0  0  0  0  0  0  0  0  0  0
   39.8174   77.5563   58.9485 H   0  0  0  0  0  0  0  0  0  0  0  0
   36.6352   79.9522   55.4201 H   0  0  0  0  0  0  0  0  0  0  0  0
   36.2099   79.8815   52.9988 H   0  0  0  0  0  0  0  0  0  0  0  0
   38.3149   79.6494   51.4933 H   0  0  0  0  0  0  0  0  0  0  0  0
   38.9529   84.8375   61.5371 H   0  0  0  0  0  0  0  0  0  0  0  0
   40.5551   85.6148   61.6435 H   0  0  0  0  0  0  0  0  0  0  0  0
  1  2  2  0
  1  5  1  0
  2  3  1  0
  3  7  1  0
  3  4  2  0
  4 34  1  0
  5  4  1  0
  6 11  2  0
  6  7  1  0
  7  8  2  0
  8  9  1  0
 10  9  2  0
 11 10  1  0
 12 20  1  0
 12 11  1  0
 13 12  1  0
 14 13  2  0
 14 15  1  0
 15 16  1  0
 15 20  2  0
 16 17  1  0
 17 18  2  0
 19 18  1  0
 20 19  1  0
 21 22  3  0
 22  6  1  0
 23 24  2  0
 23 28  1  0
 24 25  1  0
 25 26  2  0
 25  1  1  0
 27 26  1  0
 28 27  2  0
 29 23  1  0
 30 29  2  0
 31 30  1  0
 32 31  2  0
 32 33  1  0
 33 29  1  0
  2 35  1  0
  8 36  1  0
  9 37  1  0
 10 38  1  0
 13 39  1  0
 16 40  1  0
 16 41  1  0
 18 42  1  0
 19 43  1  0
 24 44  1  0
 27 45  1  0
 30 46  1  0
 31 47  1  0
 32 48  1  0
 34 49  1  0
 34 50  1  0
M  END
>  <Score>  (1) 
-7.03364

>  <Score_dual>  (1) 
-8.53

>  <Choices>  (1) 
[None, 6, ['25-21', 60], 12, ['43-21', 315], 23, ['0-2', 0], 23, ['40-19', 60], 34, ['45-16', 285]]

$$$$
