
     RDKit          3D

 48 53  0  0  0  0  0  0  0  0999 V2000
   43.3320   85.3360   59.3580 C   0  0  0  0  0  0  0  0  0  0  0  0
   44.4450   84.5630   59.3100 C   0  0  0  0  0  0  0  0  0  0  0  0
   45.6460   85.2040   59.0670 C   0  0  0  0  0  0  0  0  0  0  0  0
   45.6290   86.5800   58.8910 C   0  0  0  0  0  0  0  0  0  0  0  0
   44.4750   87.3470   58.9450 C   0  0  0  0  0  0  0  0  0  0  0  0
   43.3400   86.6730   59.1840 N   0  0  0  0  0  0  0  0  0  0  0  0
   40.7430   82.7560   60.2230 C   0  0  0  0  0  0  0  0  0  0  0  0
   41.9550   83.3850   59.9780 C   0  0  0  0  0  0  0  0  0  0  0  0
   42.0540   84.7170   59.6050 C   0  0  0  0  0  0  0  0  0  0  0  0
   40.8740   85.3750   59.4930 N   0  0  0  0  0  0  0  0  0  0  0  0
   39.6890   84.7650   59.7310 C   0  0  0  0  0  0  0  0  0  0  0  0
   39.6210   83.4860   60.0870 N   0  0  0  0  0  0  0  0  0  0  0  0
   41.1370   82.2410   63.0820 Cl  0  0  0  0  0  0  0  0  0  0  0  0
   40.8540   81.0020   61.9090 C   0  0  0  0  0  0  0  0  0  0  0  0
   40.6840   81.3430   60.6140 C   0  0  0  0  0  0  0  0  0  0  0  0
   40.4610   80.3180   59.7080 C   0  0  0  0  0  0  0  0  0  0  0  0
   40.4070   78.9870   60.0900 C   0  0  0  0  0  0  0  0  0  0  0  0
   40.5870   78.7060   61.4240 C   0  0  0  0  0  0  0  0  0  0  0  0
   40.8120   79.6870   62.3560 C   0  0  0  0  0  0  0  0  0  0  0  0
   44.5300   88.8240   58.7460 C   0  0  0  0  0  0  0  0  0  0  0  0
   45.1400   89.3810   57.6230 C   0  0  0  0  0  0  0  0  0  0  0  0
   44.9020   91.1370   57.9260 S   0  0  0  0  0  0  0  0  0  0  0  0
   44.0180   90.8520   59.5180 C   0  0  0  0  0  0  0  0  0  0  0  0
   43.9990   89.6510   59.6340 N   0  0  0  0  0  0  0  0  0  0  0  0
   44.3830   93.0170   60.7150 C   0  0  0  0  0  0  0  0  0  0  0  0
   43.5410   92.0410   60.2880 C   0  0  0  0  0  0  0  0  0  0  0  0
   42.1940   92.0120   60.4960 C   0  0  0  0  0  0  0  0  0  0  0  0
   41.6630   93.0910   61.2110 C   0  0  0  0  0  0  0  0  0  0  0  0
   40.4380   93.4580   61.6280 N   0  0  0  0  0  0  0  0  0  0  0  0
   40.4940   94.6030   62.2830 N   0  0  0  0  0  0  0  0  0  0  0  0
   41.7690   95.0620   62.3370 C   0  0  0  0  0  0  0  0  0  0  0  0
   42.4890   94.1010   61.6600 C   0  0  0  0  0  0  0  0  0  0  0  0
   43.8610   94.0820   61.4200 C   0  0  0  0  0  0  0  0  0  0  0  0
   44.3948   83.4741   59.4578 H   0  0  0  0  0  0  0  0  0  0  0  0
   46.5882   84.6388   59.0147 H   0  0  0  0  0  0  0  0  0  0  0  0
   46.5838   87.0909   58.6979 H   0  0  0  0  0  0  0  0  0  0  0  0
   42.8804   82.8000   60.0846 H   0  0  0  0  0  0  0  0  0  0  0  0
   38.7586   85.3425   59.6271 H   0  0  0  0  0  0  0  0  0  0  0  0
   40.3217   80.5704   58.6464 H   0  0  0  0  0  0  0  0  0  0  0  0
   40.2274   78.1877   59.3559 H   0  0  0  0  0  0  0  0  0  0  0  0
   40.5492   77.6578   61.7554 H   0  0  0  0  0  0  0  0  0  0  0  0
   40.9540   79.4416   63.4188 H   0  0  0  0  0  0  0  0  0  0  0  0
   45.6346   88.8801   56.7777 H   0  0  0  0  0  0  0  0  0  0  0  0
   45.4608   92.9597   60.5029 H   0  0  0  0  0  0  0  0  0  0  0  0
   41.5634   91.1908   60.1245 H   0  0  0  0  0  0  0  0  0  0  0  0
   39.5758   92.9203   61.4597 H   0  0  0  0  0  0  0  0  0  0  0  0
   42.1407   95.9833   62.8093 H   0  0  0  0  0  0  0  0  0  0  0  0
   44.5099   94.8930   61.7822 H   0  0  0  0  0  0  0  0  0  0  0  0
  1  9  1  0
  2  1  2  0
  3  2  1  0
  4  5  1  0
  4  3  2  0
  5  6  2  0
  6  1  1  0
  7 15  1  0
  8  7  2  0
  9  8  1  0
 10  9  2  0
 10 11  1  0
 11 12  2  0
 12  7  1  0
 14 19  2  0
 14 13  1  0
 15 14  1  0
 16 17  1  0
 16 15  2  0
 17 18  2  0
 18 19  1  0
 20  5  1  0
 20 24  1  0
 21 22  1  0
 21 20  2  0
 22 23  1  0
 23 24  2  0
 23 26  1  0
 25 33  2  0
 26 27  2  0
 26 25  1  0
 27 28  1  0
 28 29  1  0
 28 32  2  0
 29 30  1  0
 30 31  2  0
 32 31  1  0
 33 32  1  0
  2 34  1  0
  3 35  1  0
  4 36  1  0
  8 37  1  0
 11 38  1  0
 16 39  1  0
 17 40  1  0
 18 41  1  0
 19 42  1  0
 21 43  1  0
 25 44  1  0
 27 45  1  0
 29 46  1  0
 31 47  1  0
 33 48  1  0
M  END
>  <Score>  (1) 
-7.01565

>  <Score_dual>  (1) 
-9.11

>  <Choices>  (1) 
[None, 6, ['7-19', 90], 14, ['6-17', 105], 28, ['33-20', 30], 34, ['54-6', 300]]

$$$$
