
     RDKit          3D

 46 51  0  0  0  0  0  0  0  0999 V2000
   40.1600   78.8640   58.7930 C   0  0  0  0  0  0  0  0  0  0  0  0
   40.8610   78.8620   59.9700 C   0  0  0  0  0  0  0  0  0  0  0  0
   40.7110   77.8100   60.8510 C   0  0  0  0  0  0  0  0  0  0  0  0
   39.8510   76.7500   60.5540 C   0  0  0  0  0  0  0  0  0  0  0  0
   39.5220   75.6270   61.2130 N   0  0  0  0  0  0  0  0  0  0  0  0
   38.6340   74.9330   60.4710 C   0  0  0  0  0  0  0  0  0  0  0  0
   38.4110   75.6330   59.3430 N   0  0  0  0  0  0  0  0  0  0  0  0
   39.1500   76.7670   59.3580 C   0  0  0  0  0  0  0  0  0  0  0  0
   39.2900   77.8140   58.4650 C   0  0  0  0  0  0  0  0  0  0  0  0
   37.2400   77.3050   57.3550 C   0  0  0  0  0  0  0  0  0  0  0  0
   38.5280   77.7570   57.2500 C   0  0  0  0  0  0  0  0  0  0  0  0
   39.0550   78.1390   56.0270 C   0  0  0  0  0  0  0  0  0  0  0  0
   38.2200   78.0350   54.9530 C   0  0  0  0  0  0  0  0  0  0  0  0
   38.3990   78.3130   53.6430 N   0  0  0  0  0  0  0  0  0  0  0  0
   37.2750   78.0520   52.9230 C   0  0  0  0  0  0  0  0  0  0  0  0
   36.3540   77.5950   53.7990 N   0  0  0  0  0  0  0  0  0  0  0  0
   36.9100   77.5830   55.0010 C   0  0  0  0  0  0  0  0  0  0  0  0
   36.4270   77.2120   56.2550 C   0  0  0  0  0  0  0  0  0  0  0  0
   43.6870   81.3490   59.8840 C   0  0  0  0  0  0  0  0  0  0  0  0
   42.9190   80.2200   59.5440 C   0  0  0  0  0  0  0  0  0  0  0  0
   41.7410   79.9900   60.2280 C   0  0  0  0  0  0  0  0  0  0  0  0
   41.3810   80.8660   61.1970 N   0  0  0  0  0  0  0  0  0  0  0  0
   42.1490   81.9520   61.5030 C   0  0  0  0  0  0  0  0  0  0  0  0
   43.2910   82.1930   60.8540 N   0  0  0  0  0  0  0  0  0  0  0  0
   39.4170   82.5670   61.9290 F   0  0  0  0  0  0  0  0  0  0  0  0
   40.3580   83.1280   62.7290 C   0  0  0  0  0  0  0  0  0  0  0  0
   41.7030   82.8570   62.5590 C   0  0  0  0  0  0  0  0  0  0  0  0
   42.6260   83.4500   63.3960 C   0  0  0  0  0  0  0  0  0  0  0  0
   42.2730   84.3120   64.4100 C   0  0  0  0  0  0  0  0  0  0  0  0
   40.9290   84.5780   64.5750 C   0  0  0  0  0  0  0  0  0  0  0  0
   39.9750   84.0000   63.7530 C   0  0  0  0  0  0  0  0  0  0  0  0
   40.2816   79.7038   58.0930 H   0  0  0  0  0  0  0  0  0  0  0  0
   41.2740   77.8063   61.7960 H   0  0  0  0  0  0  0  0  0  0  0  0
   39.8873   75.3424   62.1331 H   0  0  0  0  0  0  0  0  0  0  0  0
   38.1754   73.9698   60.7392 H   0  0  0  0  0  0  0  0  0  0  0  0
   36.8500   77.0109   58.3406 H   0  0  0  0  0  0  0  0  0  0  0  0
   40.0875   78.5052   55.9275 H   0  0  0  0  0  0  0  0  0  0  0  0
   39.2749   78.6762   53.2409 H   0  0  0  0  0  0  0  0  0  0  0  0
   37.1420   78.1867   51.8394 H   0  0  0  0  0  0  0  0  0  0  0  0
   35.3954   76.8453   56.3617 H   0  0  0  0  0  0  0  0  0  0  0  0
   44.6272   81.5448   59.3476 H   0  0  0  0  0  0  0  0  0  0  0  0
   43.2499   79.5346   58.7498 H   0  0  0  0  0  0  0  0  0  0  0  0
   43.6920   83.2238   63.2464 H   0  0  0  0  0  0  0  0  0  0  0  0
   43.0314   84.7700   65.0620 H   0  0  0  0  0  0  0  0  0  0  0  0
   40.6088   85.2622   65.3746 H   0  0  0  0  0  0  0  0  0  0  0  0
   38.9100   84.2284   63.9068 H   0  0  0  0  0  0  0  0  0  0  0  0
  1  2  2  0
  2 21  1  0
  2  3  1  0
  4  3  2  0
  4  5  1  0
  6  5  1  0
  7  8  1  0
  7  6  2  0
  8  4  1  0
  9  1  1  0
  9  8  2  0
 11 10  2  0
 11  9  1  0
 12 11  1  0
 13 17  1  0
 13 12  2  0
 14 13  1  0
 15 14  1  0
 15 16  2  0
 16 17  1  0
 17 18  2  0
 18 10  1  0
 19 24  2  0
 20 19  1  0
 20 21  2  0
 21 22  1  0
 22 23  2  0
 23 27  1  0
 24 23  1  0
 25 26  1  0
 26 31  2  0
 27 26  1  0
 27 28  2  0
 28 29  1  0
 29 30  2  0
 31 30  1  0
  1 32  1  0
  3 33  1  0
  5 34  1  0
  6 35  1  0
 10 36  1  0
 12 37  1  0
 14 38  1  0
 15 39  1  0
 18 40  1  0
 19 41  1  0
 20 42  1  0
 28 43  1  0
 29 44  1  0
 30 45  1  0
 31 46  1  0
M  END
>  <Score>  (1) 
-7.9334

>  <Score_dual>  (1) 
-8.02

>  <Choices>  (1) 
[None, 8, ['34-23', 60], 19, ['34-22', 180], 35, ['9-16', 270]]

$$$$
