
     RDKit          3D

 48 52  0  0  1  0  0  0  0  0999 V2000
   40.7600   77.8350   58.5480 Cl  0  0  0  0  0  0  0  0  0  0  0  0
   39.1870   78.0170   57.7590 C   0  0  0  0  0  0  0  0  0  0  0  0
   38.9680   79.2450   57.2290 C   0  0  0  0  0  0  0  0  0  0  0  0
   37.7170   79.4280   56.6020 C   0  0  0  0  0  0  0  0  0  0  0  0
   36.7530   78.4140   56.5250 C   0  0  0  0  0  0  0  0  0  0  0  0
   37.0810   77.1960   57.1000 C   0  0  0  0  0  0  0  0  0  0  0  0
   38.2840   76.9970   57.7110 C   0  0  0  0  0  0  0  0  0  0  0  0
   40.8200   82.3170   58.3780 C   0  0  0  0  0  0  0  0  0  0  0  0
   40.0050   81.1940   58.3580 C   0  0  0  0  0  0  0  0  0  0  0  0
   39.8290   80.4110   57.2070 C   0  0  0  0  0  0  0  0  0  0  0  0
   40.4930   80.7730   56.0570 C   0  0  0  0  0  0  0  0  0  0  0  0
   41.3070   81.8900   56.0660 C   0  0  0  0  0  0  0  0  0  0  0  0
   41.4480   82.6280   57.2230 C   0  0  0  0  0  0  0  0  0  0  0  0
   40.9220   83.0460   59.6320 C   0  0  0  0  0  0  0  0  0  0  0  0
   42.0750   83.6440   60.0790 C   0  0  0  0  0  0  0  0  0  0  0  0
   42.1270   84.3300   61.2800 C   0  0  0  0  0  0  0  0  0  0  0  0
   40.9720   84.3820   62.0000 N   0  0  0  0  0  0  0  0  0  0  0  0
   39.8540   83.8070   61.5710 C   0  0  0  0  0  0  0  0  0  0  0  0
   39.8150   83.1400   60.3990 N   0  0  0  0  0  0  0  0  0  0  0  0
   38.6350   83.8530   62.3140 N   0  0  0  0  0  0  0  0  0  0  0  0
   38.6160   75.6700   58.2960 C   0  0  2  0  0  0  0  0  0  0  0  0
   38.0730   75.3210   59.5930 C   0  0  0  0  0  0  0  0  0  0  0  0
   39.5760   75.6240   59.4890 C   0  0  1  0  0  0  0  0  0  0  0  0
   40.4300   74.4210   59.6680 C   0  0  0  0  0  0  0  0  0  0  0  0
   40.9580   73.6750   58.6330 C   0  0  0  0  0  0  0  0  0  0  0  0
   41.7290   72.5890   58.9170 C   0  0  0  0  0  0  0  0  0  0  0  0
   41.9660   72.2570   60.2320 C   0  0  0  0  0  0  0  0  0  0  0  0
   41.4450   72.9940   61.2790 C   0  0  0  0  0  0  0  0  0  0  0  0
   40.6920   74.0550   60.9360 N   0  0  0  0  0  0  0  0  0  0  0  0
   37.4893   80.4071   56.1553 H   0  0  0  0  0  0  0  0  0  0  0  0
   35.7831   78.5766   56.0322 H   0  0  0  0  0  0  0  0  0  0  0  0
   36.3543   76.3711   57.0626 H   0  0  0  0  0  0  0  0  0  0  0  0
   39.4770   80.9068   59.2793 H   0  0  0  0  0  0  0  0  0  0  0  0
   40.3769   80.1785   55.1388 H   0  0  0  0  0  0  0  0  0  0  0  0
   41.8413   82.1899   55.1525 H   0  0  0  0  0  0  0  0  0  0  0  0
   42.1029   83.5116   57.2042 H   0  0  0  0  0  0  0  0  0  0  0  0
   42.9844   83.5756   59.4639 H   0  0  0  0  0  0  0  0  0  0  0  0
   43.0522   84.8079   61.6343 H   0  0  0  0  0  0  0  0  0  0  0  0
   37.7898   83.3938   61.9457 H   0  0  0  0  0  0  0  0  0  0  0  0
   38.6012   84.3453   63.2181 H   0  0  0  0  0  0  0  0  0  0  0  0
   38.5938   75.1902   57.3064 H   0  0  0  0  0  0  0  0  0  0  0  0
   37.4092   76.0266   60.1141 H   0  0  0  0  0  0  0  0  0  0  0  0
   37.4851   74.4742   59.9768 H   0  0  0  0  0  0  0  0  0  0  0  0
   40.3130   76.3228   59.9116 H   0  0  0  0  0  0  0  0  0  0  0  0
   40.7576   73.9554   57.5884 H   0  0  0  0  0  0  0  0  0  0  0  0
   42.1577   71.9837   58.1047 H   0  0  0  0  0  0  0  0  0  0  0  0
   42.5889   71.3785   60.4563 H   0  0  0  0  0  0  0  0  0  0  0  0
   41.6346   72.7290   62.3296 H   0  0  0  0  0  0  0  0  0  0  0  0
  2  1  1  0
  3  2  2  0
  4  3  1  0
  5  4  2  0
  5  6  1  0
  6  7  2  0
  7  2  1  0
  7 21  1  0
  8 14  1  0
  9  8  2  0
 10  3  1  0
 10  9  1  0
 11 12  1  0
 11 10  2  0
 12 13  2  0
 13  8  1  0
 14 15  2  0
 14 19  1  0
 15 16  1  0
 16 17  2  0
 18 17  1  0
 18 20  1  0
 19 18  2  0
 21 23  1  0
 21 22  1  0
 23 22  1  0
 23 24  1  0
 24 29  2  0
 25 26  2  0
 25 24  1  0
 26 27  1  0
 27 28  2  0
 29 28  1  0
  4 30  1  0
  5 31  1  0
  6 32  1  0
  9 33  1  0
 11 34  1  0
 12 35  1  0
 13 36  1  0
 15 37  1  0
 16 38  1  0
 20 39  1  0
 20 40  1  0
 21 41  1  6
 22 42  1  0
 22 43  1  0
 23 44  1  1
 25 45  1  0
 26 46  1  0
 27 47  1  0
 28 48  1  0
M  END
>  <Score>  (1) 
-7.10108

>  <Score_dual>  (1) 
-7.37

>  <Choices>  (1) 
[None, 6, ['1-28', 270], 16, ['7-17', 105], 29, ['16-25', 300], 36, ['0-3', 0], 38, ['6-12', 0]]

$$$$
