
     RDKit          3D

 43 47  0  0  0  0  0  0  0  0999 V2000
   38.1500   76.8790   58.4260 Cl  0  0  0  0  0  0  0  0  0  0  0  0
   39.6440   76.2820   59.0580 C   0  0  0  0  0  0  0  0  0  0  0  0
   40.6580   77.1510   59.3550 C   0  0  0  0  0  0  0  0  0  0  0  0
   41.8280   76.5790   59.8690 C   0  0  0  0  0  0  0  0  0  0  0  0
   41.9620   75.2330   60.0660 C   0  0  0  0  0  0  0  0  0  0  0  0
   40.9230   74.3730   59.7580 C   0  0  0  0  0  0  0  0  0  0  0  0
   39.7590   74.9130   59.2490 C   0  0  0  0  0  0  0  0  0  0  0  0
   40.6760   72.1050   58.8470 C   0  0  0  0  0  0  0  0  0  0  0  0
   40.9570   72.9140   59.9330 C   0  0  0  0  0  0  0  0  0  0  0  0
   41.2470   72.2470   61.1020 C   0  0  0  0  0  0  0  0  0  0  0  0
   41.2530   70.8780   61.1660 C   0  0  0  0  0  0  0  0  0  0  0  0
   41.4960   69.9960   62.1510 N   0  0  0  0  0  0  0  0  0  0  0  0
   41.3810   68.7460   61.7270 N   0  0  0  0  0  0  0  0  0  0  0  0
   41.0520   68.7510   60.4280 C   0  0  0  0  0  0  0  0  0  0  0  0
   40.9710   70.0970   60.0740 C   0  0  0  0  0  0  0  0  0  0  0  0
   40.6780   70.7230   58.8920 C   0  0  0  0  0  0  0  0  0  0  0  0
   39.9170   80.4650   57.7610 C   0  0  0  0  0  0  0  0  0  0  0  0
   40.1400   79.0930   57.9170 C   0  0  0  0  0  0  0  0  0  0  0  0
   40.4610   78.5790   59.1550 C   0  0  0  0  0  0  0  0  0  0  0  0
   40.5630   79.4330   60.2420 N   0  0  0  0  0  0  0  0  0  0  0  0
   40.3430   80.7460   60.0540 C   0  0  0  0  0  0  0  0  0  0  0  0
   40.0210   81.2740   58.8330 N   0  0  0  0  0  0  0  0  0  0  0  0
   42.8900   80.5440   61.6820 Cl  0  0  0  0  0  0  0  0  0  0  0  0
   41.5650   81.6570   61.9840 C   0  0  0  0  0  0  0  0  0  0  0  0
   40.4430   81.6700   61.1800 C   0  0  0  0  0  0  0  0  0  0  0  0
   39.4400   82.5700   61.4750 C   0  0  0  0  0  0  0  0  0  0  0  0
   39.5450   83.4440   62.5470 C   0  0  0  0  0  0  0  0  0  0  0  0
   40.6870   83.4040   63.3350 C   0  0  0  0  0  0  0  0  0  0  0  0
   40.6790   84.5610   64.6480 Cl  0  0  0  0  0  0  0  0  0  0  0  0
   41.7130   82.5090   63.0630 C   0  0  0  0  0  0  0  0  0  0  0  0
   42.6713   77.2377   60.1239 H   0  0  0  0  0  0  0  0  0  0  0  0
   42.9020   74.8310   60.4720 H   0  0  0  0  0  0  0  0  0  0  0  0
   38.9169   74.2531   58.9931 H   0  0  0  0  0  0  0  0  0  0  0  0
   40.4364   72.5904   57.8894 H   0  0  0  0  0  0  0  0  0  0  0  0
   41.4797   72.8273   62.0071 H   0  0  0  0  0  0  0  0  0  0  0  0
   41.7413   70.2594   63.1161 H   0  0  0  0  0  0  0  0  0  0  0  0
   40.8821   67.8790   59.7793 H   0  0  0  0  0  0  0  0  0  0  0  0
   40.4476   70.1350   57.9913 H   0  0  0  0  0  0  0  0  0  0  0  0
   39.6598   80.8784   56.7746 H   0  0  0  0  0  0  0  0  0  0  0  0
   40.0589   78.4221   57.0490 H   0  0  0  0  0  0  0  0  0  0  0  0
   38.5375   82.5951   60.8466 H   0  0  0  0  0  0  0  0  0  0  0  0
   38.7370   84.1567   62.7689 H   0  0  0  0  0  0  0  0  0  0  0  0
   42.6177   82.4786   63.6880 H   0  0  0  0  0  0  0  0  0  0  0  0
  1  2  1  0
  2  7  2  0
  2  3  1  0
  3  4  2  0
  4  5  1  0
  6  9  1  0
  6  5  2  0
  7  6  1  0
  8 16  2  0
  8  9  1  0
  9 10  2  0
 10 11  1  0
 11 12  1  0
 13 12  1  0
 14 13  2  0
 15 14  1  0
 15 11  2  0
 16 15  1  0
 17 18  2  0
 17 22  1  0
 18 19  1  0
 19  3  1  0
 19 20  2  0
 21 20  1  0
 21 25  1  0
 22 21  2  0
 23 24  1  0
 24 30  2  0
 25 26  2  0
 25 24  1  0
 26 27  1  0
 27 28  2  0
 28 29  1  0
 30 28  1  0
  4 31  1  0
  5 32  1  0
  7 33  1  0
  8 34  1  0
 10 35  1  0
 12 36  1  0
 14 37  1  0
 16 38  1  0
 17 39  1  0
 18 40  1  0
 26 41  1  0
 27 42  1  0
 30 43  1  0
M  END
>  <Score>  (1) 
-7.8475

>  <Score_dual>  (1) 
-9.1

>  <Choices>  (1) 
[None, 8, ['7-18', 120], 18, ['54-9', 240], 32, ['29-22', 30]]

$$$$
