
     RDKit          3D

 42 46  0  0  0  0  0  0  0  0999 V2000
   39.4240   83.2510   60.6220 C   0  0  0  0  0  0  0  0  0  0  0  0
   40.5860   82.7690   60.0590 C   0  0  0  0  0  0  0  0  0  0  0  0
   41.7520   82.9160   60.7610 C   0  0  0  0  0  0  0  0  0  0  0  0
   41.7860   83.5210   61.9890 C   0  0  0  0  0  0  0  0  0  0  0  0
   42.8290   83.7540   62.8210 N   0  0  0  0  0  0  0  0  0  0  0  0
   42.2620   84.3860   63.8920 C   0  0  0  0  0  0  0  0  0  0  0  0
   40.9120   84.5260   63.7030 N   0  0  0  0  0  0  0  0  0  0  0  0
   40.6030   83.9770   62.4940 C   0  0  0  0  0  0  0  0  0  0  0  0
   39.3960   83.8720   61.8600 C   0  0  0  0  0  0  0  0  0  0  0  0
   44.2010   83.4560   62.6980 C   0  0  0  0  0  0  0  0  0  0  0  0
   45.1660   84.0140   61.9040 C   0  0  0  0  0  0  0  0  0  0  0  0
   46.3540   83.4080   62.1190 N   0  0  0  0  0  0  0  0  0  0  0  0
   46.1430   82.4620   63.0530 C   0  0  0  0  0  0  0  0  0  0  0  0
   44.8460   82.4780   63.4150 N   0  0  0  0  0  0  0  0  0  0  0  0
   46.9810   81.5170   63.6810 N   0  0  0  0  0  0  0  0  0  0  0  0
   41.2700   82.0500   56.5470 C   0  0  0  0  0  0  0  0  0  0  0  0
   40.5020   80.9130   56.3170 C   0  0  0  0  0  0  0  0  0  0  0  0
   39.7510   80.3960   57.3730 C   0  0  0  0  0  0  0  0  0  0  0  0
   39.8280   81.0490   58.5500 N   0  0  0  0  0  0  0  0  0  0  0  0
   40.5600   82.1330   58.7690 C   0  0  0  0  0  0  0  0  0  0  0  0
   41.2910   82.6420   57.7590 N   0  0  0  0  0  0  0  0  0  0  0  0
   37.2750   80.8040   55.7180 Cl  0  0  0  0  0  0  0  0  0  0  0  0
   37.7600   79.2980   56.4880 C   0  0  0  0  0  0  0  0  0  0  0  0
   38.9180   79.2120   57.2290 C   0  0  0  0  0  0  0  0  0  0  0  0
   39.2100   77.9890   57.7900 C   0  0  0  0  0  0  0  0  0  0  0  0
   38.4020   76.8870   57.6370 C   0  0  0  0  0  0  0  0  0  0  0  0
   37.2390   76.9730   56.8920 C   0  0  0  0  0  0  0  0  0  0  0  0
   36.9320   78.2100   56.3170 C   0  0  0  0  0  0  0  0  0  0  0  0
   38.4814   83.1381   60.0663 H   0  0  0  0  0  0  0  0  0  0  0  0
   42.6887   82.5372   60.3261 H   0  0  0  0  0  0  0  0  0  0  0  0
   42.8113   84.7330   64.7796 H   0  0  0  0  0  0  0  0  0  0  0  0
   38.4650   84.2550   62.3034 H   0  0  0  0  0  0  0  0  0  0  0  0
   44.9985   84.8369   61.1935 H   0  0  0  0  0  0  0  0  0  0  0  0
   47.2483   83.6274   61.6575 H   0  0  0  0  0  0  0  0  0  0  0  0
   46.5941   80.8741   64.3866 H   0  0  0  0  0  0  0  0  0  0  0  0
   47.9798   81.4699   63.4340 H   0  0  0  0  0  0  0  0  0  0  0  0
   41.8696   82.4730   55.7276 H   0  0  0  0  0  0  0  0  0  0  0  0
   40.4873   80.4335   55.3271 H   0  0  0  0  0  0  0  0  0  0  0  0
   40.1291   77.8892   58.3861 H   0  0  0  0  0  0  0  0  0  0  0  0
   38.6812   75.9333   58.1087 H   0  0  0  0  0  0  0  0  0  0  0  0
   36.5813   76.1016   56.7573 H   0  0  0  0  0  0  0  0  0  0  0  0
   36.0151   78.3163   55.7187 H   0  0  0  0  0  0  0  0  0  0  0  0
  1  9  2  0
  2  1  1  0
  2  3  2  0
  3  4  1  0
  4  8  2  0
  4  5  1  0
  5  6  1  0
  7  6  2  0
  8  7  1  0
  9  8  1  0
 10  5  1  0
 10 14  1  0
 11 12  1  0
 11 10  2  0
 12 13  1  0
 13 14  2  0
 13 15  1  0
 16 21  2  0
 17 16  1  0
 17 18  2  0
 18 19  1  0
 19 20  2  0
 20  2  1  0
 21 20  1  0
 22 23  1  0
 23 24  2  0
 24 18  1  0
 24 25  1  0
 26 25  2  0
 27 26  1  0
 28 23  1  0
 28 27  2  0
  1 29  1  0
  3 30  1  0
  6 31  1  0
  9 32  1  0
 11 33  1  0
 12 34  1  0
 15 35  1  0
 15 36  1  0
 16 37  1  0
 17 38  1  0
 25 39  1  0
 26 40  1  0
 27 41  1  0
 28 42  1  0
M  END
>  <Score>  (1) 
-7.48674

>  <Score_dual>  (1) 
-7.24

>  <Choices>  (1) 
[None, 9, ['34-23', 255], 17, ['23-10', 60], 29, ['0-3', 225], 31, ['7-17', 30]]

$$$$
