
     RDKit          3D

 45 47  0  0  1  0  0  0  0  0999 V2000
   41.4410   81.0890   61.7470 C   0  0  0  0  0  0  0  0  0  0  0  0
   43.8970   79.1900   61.2920 Cl  0  0  0  0  0  0  0  0  0  0  0  0
   44.0040   80.7700   62.0880 C   0  0  0  0  0  0  0  0  0  0  0  0
   42.8110   81.4150   62.1880 C   0  0  0  0  0  0  0  0  0  0  0  0
   42.9190   82.6550   62.8340 C   0  0  0  0  0  0  0  0  0  0  0  0
   44.1000   83.1650   63.3150 C   0  0  0  0  0  0  0  0  0  0  0  0
   45.2780   82.4430   63.1730 C   0  0  0  0  0  0  0  0  0  0  0  0
   45.1750   81.2370   62.5450 C   0  0  0  0  0  0  0  0  0  0  0  0
   46.9900   79.9040   63.6560 C   0  0  2  0  0  0  0  0  0  0  0  0
   46.4120   80.4480   62.3810 C   0  0  2  0  0  0  0  0  0  0  0  0
   47.4320   81.3210   61.9840 O   0  0  0  0  0  0  0  0  0  0  0  0
   48.6040   80.5790   62.0870 C   0  0  0  0  0  0  0  0  0  0  0  0
   48.4860   79.9850   63.4750 C   0  0  1  0  0  0  0  0  0  0  0  0
   46.6260   78.5560   63.7210 O   0  0  0  0  0  0  0  0  0  0  0  0
   49.0940   80.7530   64.4550 O   0  0  0  0  0  0  0  0  0  0  0  0
   39.7470   84.0550   60.1870 C   0  0  0  0  0  0  0  0  0  0  0  0
   40.6380   83.0180   60.3410 C   0  0  0  0  0  0  0  0  0  0  0  0
   40.5690   82.2110   61.4580 C   0  0  0  0  0  0  0  0  0  0  0  0
   39.6160   82.4680   62.3740 N   0  0  0  0  0  0  0  0  0  0  0  0
   38.7350   83.5100   62.1970 C   0  0  0  0  0  0  0  0  0  0  0  0
   38.8240   84.2800   61.1010 N   0  0  0  0  0  0  0  0  0  0  0  0
   39.9050   84.8570   58.9610 C   0  0  0  0  0  0  0  0  0  0  0  0
   39.2110   85.9090   58.7710 O   0  0  0  0  0  0  0  0  0  0  0  0
   41.2150   86.6600   57.4010 N   0  0  0  0  0  0  0  0  0  0  0  0
   41.5420   85.4280   57.1320 C   0  0  0  0  0  0  0  0  0  0  0  0
   40.8400   84.4850   57.9450 N   0  0  0  0  0  0  0  0  0  0  0  0
   42.4670   84.9540   56.1710 N   0  0  0  0  0  0  0  0  0  0  0  0
   41.6310   87.4070   56.8120 H   0  0  0  0  0  0  0  0  0  0  0  0
   41.5199   80.4831   60.8323 H   0  0  0  0  0  0  0  0  0  0  0  0
   40.9765   80.5720   62.5996 H   0  0  0  0  0  0  0  0  0  0  0  0
   42.0052   83.2536   62.9629 H   0  0  0  0  0  0  0  0  0  0  0  0
   44.1130   84.1458   63.8129 H   0  0  0  0  0  0  0  0  0  0  0  0
   46.2404   82.8229   63.5463 H   0  0  0  0  0  0  0  0  0  0  0  0
   46.6524   80.4391   64.5558 H   0  0  0  0  0  0  0  0  0  0  0  0
   46.1314   79.6376   61.6921 H   0  0  0  0  0  0  0  0  0  0  0  0
   48.6469   79.7926   61.3190 H   0  0  0  0  0  0  0  0  0  0  0  0
   49.5174   81.1734   61.9374 H   0  0  0  0  0  0  0  0  0  0  0  0
   49.0003   79.0175   63.5718 H   0  0  0  0  0  0  0  0  0  0  0  0
   46.5514   78.2797   64.6687 H   0  0  0  0  0  0  0  0  0  0  0  0
   48.8290   80.4183   65.3482 H   0  0  0  0  0  0  0  0  0  0  0  0
   41.4047   82.8325   59.5743 H   0  0  0  0  0  0  0  0  0  0  0  0
   37.9601   83.7114   62.9513 H   0  0  0  0  0  0  0  0  0  0  0  0
   41.0174   83.4822   57.7905 H   0  0  0  0  0  0  0  0  0  0  0  0
   42.6275   83.9420   56.0660 H   0  0  0  0  0  0  0  0  0  0  0  0
   42.9796   85.6211   55.5767 H   0  0  0  0  0  0  0  0  0  0  0  0
  1  4  1  0
  2  3  1  0
  3  4  2  0
  3  8  1  0
  4  5  1  0
  5  6  2  0
  7  6  1  0
  8  7  2  0
  9 14  1  0
 10  8  1  0
 10  9  1  0
 11 12  1  0
 11 10  1  0
 12 13  1  0
 13  9  1  0
 13 15  1  0
 16 17  2  0
 16 21  1  0
 17 18  1  0
 18  1  1  0
 18 19  2  0
 20 19  1  0
 21 20  2  0
 22 16  1  0
 23 22  2  0
 25 24  2  0
 25 26  1  0
 26 22  1  0
 27 25  1  0
 28 24  1  0
  1 29  1  0
  1 30  1  0
  5 31  1  0
  6 32  1  0
  7 33  1  0
  9 34  1  1
 10 35  1  6
 12 36  1  0
 12 37  1  0
 13 38  1  6
 14 39  1  0
 15 40  1  0
 17 41  1  0
 20 42  1  0
 26 43  1  0
 27 44  1  0
 27 45  1  0
M  END
>  <Score>  (1) 
-7.05029

>  <Score_dual>  (1) 
-7.45

>  <Choices>  (1) 
[None, 8, ['3-10', 0], 7, ['5-10', 165], 14, ['48-21', 30], 21, ['7-12', 210], 31, ['14-15', 240]]

$$$$
