
     RDKit          3D

 57 62  0  0  1  0  0  0  0  0999 V2000
   41.2580   81.7140   57.5110 C   0  0  1  0  0  0  0  0  0  0  0  0
   42.0620   82.8080   57.4720 N   0  0  0  0  0  0  0  0  0  0  0  0
   42.5930   83.2600   56.3010 C   0  0  0  0  0  0  0  0  0  0  0  0
   42.3490   82.6460   55.1250 N   0  0  0  0  0  0  0  0  0  0  0  0
   41.5620   81.5590   55.1000 C   0  0  0  0  0  0  0  0  0  0  0  0
   41.3200   80.9300   53.9100 C   0  0  0  0  0  0  0  0  0  0  0  0
   40.5130   79.8000   53.8680 C   0  0  0  0  0  0  0  0  0  0  0  0
   39.9700   79.3330   55.0260 C   0  0  0  0  0  0  0  0  0  0  0  0
   40.2320   79.9940   56.2230 C   0  0  0  0  0  0  0  0  0  0  0  0
   41.0160   81.0930   56.2910 C   0  0  0  0  0  0  0  0  0  0  0  0
   40.5900   81.0810   58.9610 S   0  0  0  0  0  0  0  0  0  0  0  0
   40.5170   82.1320   61.4940 N   0  0  0  0  0  0  0  0  0  0  0  0
   40.2600   82.3250   60.1860 C   0  0  0  0  0  0  0  0  0  0  0  0
   39.7360   83.5000   59.7020 C   0  0  0  0  0  0  0  0  0  0  0  0
   39.4700   84.5150   60.6010 C   0  0  0  0  0  0  0  0  0  0  0  0
   38.9940   85.6030   60.2020 O   0  0  0  0  0  0  0  0  0  0  0  0
   39.7350   84.2950   61.8850 N   0  0  0  0  0  0  0  0  0  0  0  0
   40.2460   83.1440   62.3490 C   0  0  0  0  0  0  0  0  0  0  0  0
   40.5150   82.8770   63.5360 O   0  0  0  0  0  0  0  0  0  0  0  0
   41.0550   80.8350   61.7780 C   0  0  0  0  0  0  0  0  0  0  0  0
   42.4230   80.5670   61.6990 C   0  0  0  0  0  0  0  0  0  0  0  0
   42.8300   79.2520   62.0000 C   0  0  0  0  0  0  0  0  0  0  0  0
   41.8730   78.3470   62.3440 N   0  0  0  0  0  0  0  0  0  0  0  0
   40.5640   78.6550   62.4060 C   0  0  0  0  0  0  0  0  0  0  0  0
   40.1350   79.9150   62.1220 N   0  0  0  0  0  0  0  0  0  0  0  0
   39.5530   79.3700   57.3930 C   0  0  0  0  0  0  0  0  0  0  0  0
   39.9730   77.9270   57.6000 C   0  0  0  0  0  0  0  0  0  0  0  0
   39.0740   76.9330   57.6730 C   0  0  0  0  0  0  0  0  0  0  0  0
   39.5690   75.6330   57.8520 N   0  0  0  0  0  0  0  0  0  0  0  0
   39.3110   74.4410   58.6300 C   0  0  0  0  0  0  0  0  0  0  0  0
   38.5200   73.9040   59.4540 O   0  0  0  0  0  0  0  0  0  0  0  0
   40.5630   73.8840   58.0370 C   0  0  0  0  0  0  0  0  0  0  0  0
   40.6920   75.0870   57.1200 C   0  0  2  0  0  0  0  0  0  0  0  0
   42.0960   76.1480   57.3850 S   0  0  0  0  0  0  0  0  0  0  0  0
   41.4460   77.7520   57.7510 C   0  0  0  0  0  0  0  0  0  0  0  0
   37.6020   77.1340   57.5600 C   0  0  0  0  0  0  0  0  0  0  0  0
   36.7580   77.8200   56.9470 O   0  0  0  0  0  0  0  0  0  0  0  0
   36.7000   76.4320   58.2800 O   0  0  0  0  0  0  0  0  0  0  0  0
   40.3753   82.3583   57.3856 H   0  0  0  0  0  0  0  0  0  0  0  0
   43.2386   84.1505   56.3153 H   0  0  0  0  0  0  0  0  0  0  0  0
   42.7629   83.0080   54.2541 H   0  0  0  0  0  0  0  0  0  0  0  0
   41.7658   81.3201   52.9831 H   0  0  0  0  0  0  0  0  0  0  0  0
   40.3156   79.2902   52.9135 H   0  0  0  0  0  0  0  0  0  0  0  0
   39.3286   78.4394   55.0159 H   0  0  0  0  0  0  0  0  0  0  0  0
   39.5340   83.6287   58.6284 H   0  0  0  0  0  0  0  0  0  0  0  0
   39.5377   85.0479   62.5596 H   0  0  0  0  0  0  0  0  0  0  0  0
   43.1477   81.3445   61.4156 H   0  0  0  0  0  0  0  0  0  0  0  0
   43.8910   78.9648   61.9582 H   0  0  0  0  0  0  0  0  0  0  0  0
   39.8347   77.8815   62.6887 H   0  0  0  0  0  0  0  0  0  0  0  0
   39.8050   79.9449   58.2963 H   0  0  0  0  0  0  0  0  0  0  0  0
   38.4703   79.3809   57.1991 H   0  0  0  0  0  0  0  0  0  0  0  0
   41.3892   73.7811   58.7560 H   0  0  0  0  0  0  0  0  0  0  0  0
   40.5654   72.8686   57.6139 H   0  0  0  0  0  0  0  0  0  0  0  0
   40.7541   74.9307   56.0329 H   0  0  0  0  0  0  0  0  0  0  0  0
   41.9379   78.4721   57.0805 H   0  0  0  0  0  0  0  0  0  0  0  0
   41.6480   77.9091   58.8208 H   0  0  0  0  0  0  0  0  0  0  0  0
   35.7321   76.6059   58.1658 H   0  0  0  0  0  0  0  0  0  0  0  0
  1 11  1  0
  2  1  1  0
  3  2  2  0
  4  3  1  0
  5  4  1  0
  5 10  2  0
  6  5  1  0
  7  6  2  0
  7  8  1  0
  8  9  2  0
  9 10  1  0
  9 26  1  0
 10  1  1  0
 11 13  1  0
 12 20  1  0
 12 18  1  0
 13 12  1  0
 14 13  2  0
 14 15  1  0
 15 17  1  0
 16 15  2  0
 17 18  1  0
 18 19  2  0
 20 25  1  0
 21 20  2  0
 21 22  1  0
 22 23  2  0
 23 24  1  0
 25 24  2  0
 26 27  1  0
 27 28  2  0
 27 35  1  0
 28 29  1  0
 29 30  1  0
 30 31  2  0
 32 30  1  0
 33 34  1  0
 33 29  1  0
 33 32  1  0
 34 35  1  0
 36 28  1  0
 36 38  1  0
 37 36  2  0
  1 39  1  6
  3 40  1  0
  4 41  1  0
  6 42  1  0
  7 43  1  0
  8 44  1  0
 14 45  1  0
 17 46  1  0
 21 47  1  0
 22 48  1  0
 24 49  1  0
 26 50  1  0
 26 51  1  0
 32 52  1  0
 32 53  1  0
 33 54  1  6
 35 55  1  0
 35 56  1  0
 38 57  1  0
M  END
>  <Score>  (1) 
-7.8785

>  <Score_dual>  (1) 
-7.24

>  <Choices>  (1) 
[None, 6, ['37-16', 135], 14, ['17-16', 0], 20, ['47-14', 135], 34, ['55-16', 75]]

$$$$
