
     RDKit          3D

 47 52  0  0  0  0  0  0  0  0999 V2000
   39.7890   80.6730   56.6010 C   0  0  0  0  0  0  0  0  0  0  0  0
   39.7720   79.3860   57.1090 C   0  0  0  0  0  0  0  0  0  0  0  0
   39.0070   78.5780   56.3600 N   0  0  0  0  0  0  0  0  0  0  0  0
   38.5250   79.3270   55.3650 C   0  0  0  0  0  0  0  0  0  0  0  0
   38.9980   80.5810   55.5160 N   0  0  0  0  0  0  0  0  0  0  0  0
   37.6650   78.9660   54.2930 N   0  0  0  0  0  0  0  0  0  0  0  0
   42.0820   83.5750   57.0520 C   0  0  0  0  0  0  0  0  0  0  0  0
   41.4110   82.5420   56.4240 C   0  0  0  0  0  0  0  0  0  0  0  0
   40.5260   81.7700   57.1930 C   0  0  0  0  0  0  0  0  0  0  0  0
   40.3710   82.0650   58.4950 N   0  0  0  0  0  0  0  0  0  0  0  0
   41.0400   83.0800   59.0810 C   0  0  0  0  0  0  0  0  0  0  0  0
   41.9030   83.8460   58.3660 N   0  0  0  0  0  0  0  0  0  0  0  0
   39.5920   83.2050   61.0580 C   0  0  0  0  0  0  0  0  0  0  0  0
   40.8390   83.3680   60.5110 C   0  0  0  0  0  0  0  0  0  0  0  0
   41.8910   83.7930   61.2740 C   0  0  0  0  0  0  0  0  0  0  0  0
   41.7220   84.0640   62.5980 C   0  0  0  0  0  0  0  0  0  0  0  0
   42.5960   84.4890   63.5410 N   0  0  0  0  0  0  0  0  0  0  0  0
   41.8590   84.5850   64.6900 C   0  0  0  0  0  0  0  0  0  0  0  0
   40.5670   84.2220   64.4280 N   0  0  0  0  0  0  0  0  0  0  0  0
   40.4520   83.8900   63.1270 C   0  0  0  0  0  0  0  0  0  0  0  0
   39.3830   83.4690   62.3960 C   0  0  0  0  0  0  0  0  0  0  0  0
   38.7220   77.1930   56.5280 C   0  0  0  0  0  0  0  0  0  0  0  0
   37.6920   76.4370   56.0360 C   0  0  0  0  0  0  0  0  0  0  0  0
   37.8270   75.1600   56.4580 N   0  0  0  0  0  0  0  0  0  0  0  0
   38.9400   75.1280   57.2090 C   0  0  0  0  0  0  0  0  0  0  0  0
   39.4700   76.3520   57.2460 N   0  0  0  0  0  0  0  0  0  0  0  0
   39.4780   73.9470   57.8750 C   0  0  0  0  0  0  0  0  0  0  0  0
   39.4360   73.8380   59.2500 C   0  0  0  0  0  0  0  0  0  0  0  0
   39.9420   72.7190   59.9180 C   0  0  0  0  0  0  0  0  0  0  0  0
   40.4700   71.7620   59.1340 N   0  0  0  0  0  0  0  0  0  0  0  0
   40.5260   71.8370   57.7920 C   0  0  0  0  0  0  0  0  0  0  0  0
   40.0240   72.9380   57.1710 N   0  0  0  0  0  0  0  0  0  0  0  0
   40.3156   79.0668   58.0105 H   0  0  0  0  0  0  0  0  0  0  0  0
   37.3236   77.9977   54.2103 H   0  0  0  0  0  0  0  0  0  0  0  0
   37.3830   79.6726   53.5987 H   0  0  0  0  0  0  0  0  0  0  0  0
   42.7799   84.1931   56.4682 H   0  0  0  0  0  0  0  0  0  0  0  0
   41.5658   82.3317   55.3554 H   0  0  0  0  0  0  0  0  0  0  0  0
   38.7569   82.8632   60.4289 H   0  0  0  0  0  0  0  0  0  0  0  0
   42.8827   83.9171   60.8144 H   0  0  0  0  0  0  0  0  0  0  0  0
   43.5978   84.6952   63.4198 H   0  0  0  0  0  0  0  0  0  0  0  0
   42.2449   84.9038   65.6695 H   0  0  0  0  0  0  0  0  0  0  0  0
   38.3910   83.3442   62.8546 H   0  0  0  0  0  0  0  0  0  0  0  0
   36.8796   76.8113   55.3958 H   0  0  0  0  0  0  0  0  0  0  0  0
   37.2015   74.3696   56.2460 H   0  0  0  0  0  0  0  0  0  0  0  0
   38.9916   74.6551   59.8373 H   0  0  0  0  0  0  0  0  0  0  0  0
   39.9104   72.6271   61.0137 H   0  0  0  0  0  0  0  0  0  0  0  0
   40.9713   71.0198   57.2055 H   0  0  0  0  0  0  0  0  0  0  0  0
  1  2  2  0
  1  9  1  0
  3 22  1  0
  3  2  1  0
  4  5  2  0
  4  3  1  0
  5  1  1  0
  6  4  1  0
  7 12  2  0
  8  7  1  0
  8  9  2  0
  9 10  1  0
 10 11  2  0
 11 14  1  0
 12 11  1  0
 13 21  2  0
 14 13  1  0
 14 15  2  0
 15 16  1  0
 16 20  2  0
 16 17  1  0
 17 18  1  0
 19 18  2  0
 20 19  1  0
 21 20  1  0
 22 26  1  0
 23 24  1  0
 23 22  2  0
 24 25  1  0
 25 26  2  0
 25 27  1  0
 27 28  2  0
 28 29  1  0
 30 29  2  0
 31 30  1  0
 32 31  2  0
 32 27  1  0
  2 33  1  0
  6 34  1  0
  6 35  1  0
  7 36  1  0
  8 37  1  0
 13 38  1  0
 15 39  1  0
 17 40  1  0
 18 41  1  0
 21 42  1  0
 23 43  1  0
 24 44  1  0
 28 45  1  0
 29 46  1  0
 31 47  1  0
M  END
>  <Score>  (1) 
-7.57151

>  <Score_dual>  (1) 
-8.34

>  <Choices>  (1) 
[None, 9, ['34-23', 255], 22, ['23-8', 120], 29, ['0-4', 0], 29, ['23-12', 255], 38, ['19-18', 75]]

$$$$
