
     RDKit          3D

 50 54  0  0  0  0  0  0  0  0999 V2000
   40.8100   83.8580   60.5630 C   0  0  0  0  0  0  0  0  0  0  0  0
   41.0390   82.4920   60.6990 C   0  0  0  0  0  0  0  0  0  0  0  0
   40.1790   81.6910   61.4560 C   0  0  0  0  0  0  0  0  0  0  0  0
   39.1250   82.3080   62.0430 N   0  0  0  0  0  0  0  0  0  0  0  0
   38.8880   83.6220   61.9240 C   0  0  0  0  0  0  0  0  0  0  0  0
   39.7180   84.3860   61.1950 N   0  0  0  0  0  0  0  0  0  0  0  0
   41.5420   84.8320   59.8320 C   0  0  0  0  0  0  0  0  0  0  0  0
   40.9820   85.2590   58.6020 C   0  0  0  0  0  0  0  0  0  0  0  0
   41.5530   86.1990   57.7580 C   0  0  0  0  0  0  0  0  0  0  0  0
   42.7430   86.7680   58.1170 C   0  0  0  0  0  0  0  0  0  0  0  0
   43.3170   86.3920   59.2820 C   0  0  0  0  0  0  0  0  0  0  0  0
   44.5300   86.9730   59.6450 C   0  0  0  0  0  0  0  0  0  0  0  0
   45.1930   86.6460   60.8250 C   0  0  0  0  0  0  0  0  0  0  0  0
   44.5490   85.6900   61.6210 C   0  0  0  0  0  0  0  0  0  0  0  0
   43.3590   85.1380   61.2370 C   0  0  0  0  0  0  0  0  0  0  0  0
   42.7290   85.4650   60.0910 C   0  0  0  0  0  0  0  0  0  0  0  0
   40.4740   80.2960   61.5460 C   0  0  0  0  0  0  0  0  0  0  0  0
   40.8820   79.7070   62.5940 O   0  0  0  0  0  0  0  0  0  0  0  0
   39.9630   77.6940   62.1480 F   0  0  0  0  0  0  0  0  0  0  0  0
   40.0790   78.0920   60.8530 C   0  0  0  0  0  0  0  0  0  0  0  0
   40.3320   79.3870   60.4160 C   0  0  0  0  0  0  0  0  0  0  0  0
   40.4180   79.6470   59.0730 C   0  0  0  0  0  0  0  0  0  0  0  0
   40.2490   78.6130   58.1850 C   0  0  0  0  0  0  0  0  0  0  0  0
   39.9990   77.3290   58.6040 C   0  0  0  0  0  0  0  0  0  0  0  0
   39.9110   77.0570   59.9560 C   0  0  0  0  0  0  0  0  0  0  0  0
   39.6510   75.7010   60.3110 N   0  0  0  0  0  0  0  0  0  0  0  0
   40.6020   74.6840   60.7130 C   0  0  0  0  0  0  0  0  0  0  0  0
   40.2750   73.4200   59.9490 C   0  0  0  0  0  0  0  0  0  0  0  0
   38.8890   73.7330   59.4280 C   0  0  0  0  0  0  0  0  0  0  0  0
   38.5040   74.8370   60.4240 C   0  0  0  0  0  0  0  0  0  0  0  0
   41.9090   82.0361   60.2038 H   0  0  0  0  0  0  0  0  0  0  0  0
   38.0168   84.0730   62.4216 H   0  0  0  0  0  0  0  0  0  0  0  0
   40.0249   84.8122   58.2948 H   0  0  0  0  0  0  0  0  0  0  0  0
   41.0579   86.4816   56.8173 H   0  0  0  0  0  0  0  0  0  0  0  0
   43.2241   87.5170   57.4708 H   0  0  0  0  0  0  0  0  0  0  0  0
   44.9813   87.7186   58.9738 H   0  0  0  0  0  0  0  0  0  0  0  0
   46.1512   87.1043   61.1109 H   0  0  0  0  0  0  0  0  0  0  0  0
   45.0085   85.3784   62.5706 H   0  0  0  0  0  0  0  0  0  0  0  0
   42.8926   84.3903   61.8954 H   0  0  0  0  0  0  0  0  0  0  0  0
   40.6190   80.6666   58.7125 H   0  0  0  0  0  0  0  0  0  0  0  0
   40.3158   78.8192   57.1066 H   0  0  0  0  0  0  0  0  0  0  0  0
   39.8696   76.5221   57.8677 H   0  0  0  0  0  0  0  0  0  0  0  0
   41.6245   75.0120   60.4743 H   0  0  0  0  0  0  0  0  0  0  0  0
   40.5401   74.5058   61.7967 H   0  0  0  0  0  0  0  0  0  0  0  0
   40.9854   73.2527   59.1260 H   0  0  0  0  0  0  0  0  0  0  0  0
   40.3304   72.5030   60.5540 H   0  0  0  0  0  0  0  0  0  0  0  0
   38.9109   74.1013   58.3917 H   0  0  0  0  0  0  0  0  0  0  0  0
   38.1978   72.8788   59.3769 H   0  0  0  0  0  0  0  0  0  0  0  0
   38.3913   74.4424   61.4446 H   0  0  0  0  0  0  0  0  0  0  0  0
   37.5396   75.3247   60.2189 H   0  0  0  0  0  0  0  0  0  0  0  0
  1  2  2  0
  1  6  1  0
  2  3  1  0
  3 17  1  0
  3  4  2  0
  5  4  1  0
  6  5  2  0
  7 16  1  0
  7  1  1  0
  8  7  2  0
  9 10  2  0
  9  8  1  0
 10 11  1  0
 11 12  1  0
 11 16  2  0
 12 13  2  0
 13 14  1  0
 15 14  2  0
 16 15  1  0
 17 18  2  0
 20 19  1  0
 21 20  2  0
 21 17  1  0
 22 21  1  0
 23 24  1  0
 23 22  2  0
 24 25  2  0
 25 26  1  0
 25 20  1  0
 26 30  1  0
 26 27  1  0
 28 27  1  0
 29 28  1  0
 29 30  1  0
  2 31  1  0
  5 32  1  0
  8 33  1  0
  9 34  1  0
 10 35  1  0
 12 36  1  0
 13 37  1  0
 14 38  1  0
 15 39  1  0
 22 40  1  0
 23 41  1  0
 24 42  1  0
 27 43  1  0
 27 44  1  0
 28 45  1  0
 28 46  1  0
 29 47  1  0
 29 48  1  0
 30 49  1  0
 30 50  1  0
M  END
>  <Score>  (1) 
-7.18589

>  <Score_dual>  (1) 
-7.79

>  <Choices>  (1) 
[None, 8, ['5-9', 180], 8, ['26-25', 345], 27, ['9-4', 240], 37, ['13-5', 30]]

$$$$
