
     RDKit          3D

 52 57  0  0  1  0  0  0  0  0999 V2000
   43.1450   83.6260   62.8010 C   0  0  0  0  0  0  0  0  0  0  0  0
   43.5470   84.5200   61.7650 C   0  0  0  0  0  0  0  0  0  0  0  0
   44.7290   84.2130   61.0730 C   0  0  0  0  0  0  0  0  0  0  0  0
   45.4180   83.1050   61.4150 N   0  0  0  0  0  0  0  0  0  0  0  0
   45.0060   82.2800   62.4030 C   0  0  0  0  0  0  0  0  0  0  0  0
   43.8880   82.5380   63.0830 N   0  0  0  0  0  0  0  0  0  0  0  0
   41.9340   83.8990   63.5440 C   0  0  0  0  0  0  0  0  0  0  0  0
   40.6670   83.6880   63.1450 C   0  0  0  0  0  0  0  0  0  0  0  0
   39.8170   84.0720   64.1250 N   0  0  0  0  0  0  0  0  0  0  0  0
   40.5890   84.5270   65.1440 C   0  0  0  0  0  0  0  0  0  0  0  0
   41.8860   84.4220   64.7910 N   0  0  0  0  0  0  0  0  0  0  0  0
   40.1540   83.1570   61.9250 C   0  0  0  0  0  0  0  0  0  0  0  0
   39.5200   82.0880   61.7990 O   0  0  0  0  0  0  0  0  0  0  0  0
   40.1470   83.5570   60.5550 N   0  0  0  0  0  0  0  0  0  0  0  0
   39.5060   84.8140   60.4540 C   0  0  0  0  0  0  0  0  0  0  0  0
   39.5220   85.1990   59.0050 C   0  0  0  0  0  0  0  0  0  0  0  0
   40.5160   84.3190   58.3520 C   0  0  0  0  0  0  0  0  0  0  0  0
   40.5900   83.0880   59.2110 C   0  0  2  0  0  0  0  0  0  0  0  0
   39.7440   82.0780   58.7780 O   0  0  0  0  0  0  0  0  0  0  0  0
   45.7070   81.0740   62.8210 C   0  0  0  0  0  0  0  0  0  0  0  0
   45.6180   79.7090   62.6700 C   0  0  0  0  0  0  0  0  0  0  0  0
   46.6340   79.1450   63.3510 N   0  0  0  0  0  0  0  0  0  0  0  0
   47.3670   80.1250   63.9310 C   0  0  0  0  0  0  0  0  0  0  0  0
   46.7960   81.3150   63.6050 N   0  0  0  0  0  0  0  0  0  0  0  0
   49.8170   80.3160   64.3230 C   0  0  0  0  0  0  0  0  0  0  0  0
   48.5610   79.9430   64.7610 C   0  0  0  0  0  0  0  0  0  0  0  0
   48.4210   79.3840   66.0120 C   0  0  0  0  0  0  0  0  0  0  0  0
   49.4750   79.1680   66.8750 C   0  0  0  0  0  0  0  0  0  0  0  0
   50.7290   79.5470   66.4250 C   0  0  0  0  0  0  0  0  0  0  0  0
   50.8840   80.1080   65.1720 C   0  0  0  0  0  0  0  0  0  0  0  0
   51.6630   79.2600   67.4090 O   0  0  0  0  0  0  0  0  0  0  0  0
   51.0480   78.5420   68.4590 C   0  0  0  0  0  0  0  0  0  0  0  0
   49.6810   78.6510   68.1480 O   0  0  0  0  0  0  0  0  0  0  0  0
   42.9549   85.4136   61.5183 H   0  0  0  0  0  0  0  0  0  0  0  0
   45.0880   84.8662   60.2640 H   0  0  0  0  0  0  0  0  0  0  0  0
   38.7882   84.0278   64.1022 H   0  0  0  0  0  0  0  0  0  0  0  0
   40.2170   84.9180   66.1025 H   0  0  0  0  0  0  0  0  0  0  0  0
   38.4691   84.7393   60.8136 H   0  0  0  0  0  0  0  0  0  0  0  0
   40.0221   85.5682   61.0663 H   0  0  0  0  0  0  0  0  0  0  0  0
   38.5278   85.0468   58.5595 H   0  0  0  0  0  0  0  0  0  0  0  0
   39.7820   86.2600   58.8763 H   0  0  0  0  0  0  0  0  0  0  0  0
   40.1888   84.0585   57.3346 H   0  0  0  0  0  0  0  0  0  0  0  0
   41.4958   84.8101   58.2583 H   0  0  0  0  0  0  0  0  0  0  0  0
   41.6026   82.6588   59.1922 H   0  0  0  0  0  0  0  0  0  0  0  0
   39.3556   81.6143   59.5617 H   0  0  0  0  0  0  0  0  0  0  0  0
   44.8505   79.1719   62.0934 H   0  0  0  0  0  0  0  0  0  0  0  0
   46.8225   78.1347   63.4194 H   0  0  0  0  0  0  0  0  0  0  0  0
   49.9615   80.7645   63.3290 H   0  0  0  0  0  0  0  0  0  0  0  0
   47.4124   79.0936   66.3412 H   0  0  0  0  0  0  0  0  0  0  0  0
   51.8918   80.3984   64.8404 H   0  0  0  0  0  0  0  0  0  0  0  0
   51.3713   77.4906   68.4633 H   0  0  0  0  0  0  0  0  0  0  0  0
   51.3007   78.9270   69.4580 H   0  0  0  0  0  0  0  0  0  0  0  0
  1  6  1  0
  1  7  1  0
  2  1  2  0
  3  4  2  0
  3  2  1  0
  4  5  1  0
  5 20  1  0
  5  6  2  0
  7 11  1  0
  8  7  2  0
  8  9  1  0
  9 10  1  0
 11 10  2  0
 12  8  1  0
 13 12  2  0
 14 12  1  0
 15 14  1  0
 16 15  1  0
 17 16  1  0
 17 18  1  0
 18 14  1  0
 19 18  1  0
 20 24  1  0
 21 20  2  0
 21 22  1  0
 22 23  1  0
 23 26  1  0
 24 23  2  0
 25 26  2  0
 25 30  1  0
 26 27  1  0
 27 28  2  0
 28 33  1  0
 29 28  1  0
 29 31  1  0
 30 29  2  0
 31 32  1  0
 33 32  1  0
  2 34  1  0
  3 35  1  0
  9 36  1  0
 10 37  1  0
 15 38  1  0
 15 39  1  0
 16 40  1  0
 16 41  1  0
 17 42  1  0
 17 43  1  0
 18 44  1  1
 19 45  1  0
 21 46  1  0
 22 47  1  0
 25 48  1  0
 27 49  1  0
 30 50  1  0
 32 51  1  0
 32 52  1  0
M  END
>  <Score>  (1) 
-7.33683

>  <Score_dual>  (1) 
-8.67

>  <Choices>  (1) 
[None, 6, ['23-9', 180], 14, ['5-8', 345], 18, ['13-1', 120], 30, ['2-1', 330], 31, ['23-6', 210], 38, ['52-11', 285]]

$$$$
