
     RDKit          3D

 48 51  0  0  0  0  0  0  0  0999 V2000
   43.0610   82.2390   62.3560 C   0  0  0  0  0  0  0  0  0  0  0  0
   44.1230   82.8920   62.9590 C   0  0  0  0  0  0  0  0  0  0  0  0
   45.2320   82.1080   63.2690 C   0  0  0  0  0  0  0  0  0  0  0  0
   45.2060   80.7920   62.9690 N   0  0  0  0  0  0  0  0  0  0  0  0
   44.1260   80.2140   62.3740 C   0  0  0  0  0  0  0  0  0  0  0  0
   43.0290   80.9370   62.0570 N   0  0  0  0  0  0  0  0  0  0  0  0
   41.8450   82.9530   61.9840 N   0  0  0  0  0  0  0  0  0  0  0  0
   41.9470   83.5210   60.7140 C   0  0  0  0  0  0  0  0  0  0  0  0
   40.9180   84.2370   60.1660 C   0  0  0  0  0  0  0  0  0  0  0  0
   39.7630   84.3890   60.9080 C   0  0  0  0  0  0  0  0  0  0  0  0
   38.7930   85.0400   60.4430 O   0  0  0  0  0  0  0  0  0  0  0  0
   39.7140   83.8280   62.1150 N   0  0  0  0  0  0  0  0  0  0  0  0
   40.7120   83.1330   62.6460 C   0  0  0  0  0  0  0  0  0  0  0  0
   40.7410   82.5910   63.7440 O   0  0  0  0  0  0  0  0  0  0  0  0
   41.0210   84.8460   58.8090 C   0  0  0  0  0  0  0  0  0  0  0  0
   40.0970   85.9030   58.6950 F   0  0  0  0  0  0  0  0  0  0  0  0
   42.2560   85.3870   58.5610 F   0  0  0  0  0  0  0  0  0  0  0  0
   40.7760   83.9090   57.8210 F   0  0  0  0  0  0  0  0  0  0  0  0
   44.1290   78.7880   62.0640 C   0  0  0  0  0  0  0  0  0  0  0  0
   44.8280   77.9480   62.6820 O   0  0  0  0  0  0  0  0  0  0  0  0
   41.4290   78.1620   62.3600 F   0  0  0  0  0  0  0  0  0  0  0  0
   41.9470   77.9720   61.1270 C   0  0  0  0  0  0  0  0  0  0  0  0
   43.2760   78.2780   60.9700 C   0  0  0  0  0  0  0  0  0  0  0  0
   43.9030   78.1210   59.7500 C   0  0  0  0  0  0  0  0  0  0  0  0
   43.2200   77.6490   58.6290 C   0  0  0  0  0  0  0  0  0  0  0  0
   41.8850   77.3570   58.8420 C   0  0  0  0  0  0  0  0  0  0  0  0
   41.2370   77.5010   60.0340 C   0  0  0  0  0  0  0  0  0  0  0  0
   39.8140   77.1790   60.2240 C   0  0  0  0  0  0  0  0  0  0  0  0
   39.5520   75.8300   60.8250 C   0  0  0  0  0  0  0  0  0  0  0  0
   38.3560   75.2630   60.0550 C   0  0  0  0  0  0  0  0  0  0  0  0
   38.7240   75.7310   58.6470 C   0  0  0  0  0  0  0  0  0  0  0  0
   39.0580   77.1720   58.9000 C   0  0  0  0  0  0  0  0  0  0  0  0
   44.0926   83.9690   63.1807 H   0  0  0  0  0  0  0  0  0  0  0  0
   46.1147   82.5541   63.7505 H   0  0  0  0  0  0  0  0  0  0  0  0
   42.8762   83.3902   60.1399 H   0  0  0  0  0  0  0  0  0  0  0  0
   38.8522   83.9400   62.6679 H   0  0  0  0  0  0  0  0  0  0  0  0
   44.9695   78.3749   59.6596 H   0  0  0  0  0  0  0  0  0  0  0  0
   43.7059   77.5190   57.6507 H   0  0  0  0  0  0  0  0  0  0  0  0
   41.3029   76.9811   57.9877 H   0  0  0  0  0  0  0  0  0  0  0  0
   39.4726   77.9675   60.9109 H   0  0  0  0  0  0  0  0  0  0  0  0
   40.4302   75.1786   60.7047 H   0  0  0  0  0  0  0  0  0  0  0  0
   39.3475   75.8971   61.9037 H   0  0  0  0  0  0  0  0  0  0  0  0
   38.3053   74.1663   60.1236 H   0  0  0  0  0  0  0  0  0  0  0  0
   37.3685   75.5874   60.4151 H   0  0  0  0  0  0  0  0  0  0  0  0
   37.8764   75.6289   57.9533 H   0  0  0  0  0  0  0  0  0  0  0  0
   39.5338   75.1547   58.1757 H   0  0  0  0  0  0  0  0  0  0  0  0
   39.6904   77.5692   58.0923 H   0  0  0  0  0  0  0  0  0  0  0  0
   38.1578   77.8030   58.9366 H   0  0  0  0  0  0  0  0  0  0  0  0
  1  2  2  0
  2  3  1  0
  4  3  2  0
  5  4  1  0
  6  1  1  0
  6  5  2  0
  7  1  1  0
  7 13  1  0
  8  7  1  0
  9  8  2  0
  9 10  1  0
 10 12  1  0
 11 10  2  0
 12 13  1  0
 13 14  2  0
 15  9  1  0
 16 15  1  0
 17 15  1  0
 18 15  1  0
 19  5  1  0
 19 20  2  0
 22 21  1  0
 23 22  2  0
 23 19  1  0
 24 23  1  0
 25 26  1  0
 25 24  2  0
 26 27  2  0
 27 28  1  0
 27 22  1  0
 28 29  1  0
 30 29  1  0
 31 32  1  0
 31 30  1  0
 32 28  1  0
  2 33  1  0
  3 34  1  0
  8 35  1  0
 12 36  1  0
 24 37  1  0
 25 38  1  0
 26 39  1  0
 28 40  1  0
 29 41  1  0
 29 42  1  0
 30 43  1  0
 30 44  1  0
 31 45  1  0
 31 46  1  0
 32 47  1  0
 32 48  1  0
M  END
>  <Score>  (1) 
-7.30393

>  <Score_dual>  (1) 
-7.62

>  <Choices>  (1) 
[None, 6, ['37-16', 135], 15, ['11-10', 135], 22, ['5-7', 30], 24, ['9-4', 330], 34, ['31-23', 0]]

$$$$
