
     RDKit          3D

 43 46  0  0  0  0  0  0  0  0999 V2000
   41.9220   78.5740   62.3830 Cl  0  0  0  0  0  0  0  0  0  0  0  0
   43.3670   79.5120   62.0660 C   0  0  0  0  0  0  0  0  0  0  0  0
   43.2470   80.8470   61.7380 C   0  0  0  0  0  0  0  0  0  0  0  0
   44.4160   81.5000   61.5080 C   0  0  0  0  0  0  0  0  0  0  0  0
   45.6540   80.9180   61.5850 C   0  0  0  0  0  0  0  0  0  0  0  0
   45.7650   79.5730   61.9170 C   0  0  0  0  0  0  0  0  0  0  0  0
   44.5890   78.8730   62.1580 C   0  0  0  0  0  0  0  0  0  0  0  0
   39.6940   81.5420   60.8810 C   0  0  0  0  0  0  0  0  0  0  0  0
   40.9260   80.8870   60.8780 C   0  0  0  0  0  0  0  0  0  0  0  0
   41.9270   81.4410   61.6620 C   0  0  0  0  0  0  0  0  0  0  0  0
   41.6420   82.5620   62.3650 N   0  0  0  0  0  0  0  0  0  0  0  0
   40.4330   83.1780   62.3490 C   0  0  0  0  0  0  0  0  0  0  0  0
   39.4510   82.6560   61.5950 N   0  0  0  0  0  0  0  0  0  0  0  0
   40.2960   84.2050   64.5670 C   0  0  0  0  0  0  0  0  0  0  0  0
   40.3070   83.0290   65.0370 O   0  0  0  0  0  0  0  0  0  0  0  0
   40.3610   84.3200   63.1480 N   0  0  0  0  0  0  0  0  0  0  0  0
   40.2250   85.3630   65.3580 N   0  0  0  0  0  0  0  0  0  0  0  0
   45.8280   76.9490   63.1780 C   0  0  0  0  0  0  0  0  0  0  0  0
   44.7470   77.4630   62.5030 C   0  0  0  0  0  0  0  0  0  0  0  0
   43.7770   76.5700   62.1460 C   0  0  0  0  0  0  0  0  0  0  0  0
   43.8690   75.2330   62.4420 C   0  0  0  0  0  0  0  0  0  0  0  0
   43.0650   74.1880   62.2020 N   0  0  0  0  0  0  0  0  0  0  0  0
   43.6630   73.0810   62.7280 C   0  0  0  0  0  0  0  0  0  0  0  0
   44.8320   73.3870   63.3000 N   0  0  0  0  0  0  0  0  0  0  0  0
   44.9520   74.7270   63.1170 C   0  0  0  0  0  0  0  0  0  0  0  0
   45.9480   75.6090   63.4890 C   0  0  0  0  0  0  0  0  0  0  0  0
   46.8780   75.3650   65.5990 C   0  0  0  0  0  0  0  0  0  0  0  0
   45.8080   75.8530   66.0930 O   0  0  0  0  0  0  0  0  0  0  0  0
   47.0950   75.1740   64.1860 N   0  0  0  0  0  0  0  0  0  0  0  0
   44.3652   82.5663   61.2425 H   0  0  0  0  0  0  0  0  0  0  0  0
   46.5571   81.5133   61.3847 H   0  0  0  0  0  0  0  0  0  0  0  0
   46.7465   79.0812   61.9864 H   0  0  0  0  0  0  0  0  0  0  0  0
   38.8802   81.1265   60.2685 H   0  0  0  0  0  0  0  0  0  0  0  0
   41.0949   79.9769   60.2837 H   0  0  0  0  0  0  0  0  0  0  0  0
   40.3548   85.2519   62.7093 H   0  0  0  0  0  0  0  0  0  0  0  0
   40.2199   86.2916   64.9123 H   0  0  0  0  0  0  0  0  0  0  0  0
   40.1780   85.2838   66.3839 H   0  0  0  0  0  0  0  0  0  0  0  0
   46.6322   77.6344   63.4837 H   0  0  0  0  0  0  0  0  0  0  0  0
   42.8925   76.9346   61.6031 H   0  0  0  0  0  0  0  0  0  0  0  0
   42.1605   74.2159   61.7101 H   0  0  0  0  0  0  0  0  0  0  0  0
   43.2383   72.0671   62.6869 H   0  0  0  0  0  0  0  0  0  0  0  0
   47.6818   75.0729   66.2908 H   0  0  0  0  0  0  0  0  0  0  0  0
   47.9464   74.7845   63.7568 H   0  0  0  0  0  0  0  0  0  0  0  0
  2  7  2  0
  2  1  1  0
  3  2  1  0
  4  5  1  0
  4  3  2  0
  5  6  2  0
  6  7  1  0
  7 19  1  0
  8 13  2  0
  9  8  1  0
  9 10  2  0
 10  3  1  0
 10 11  1  0
 12 11  2  0
 12 16  1  0
 13 12  1  0
 14 15  2  0
 14 17  1  0
 16 14  1  0
 18 26  2  0
 19 18  1  0
 20 21  1  0
 20 19  2  0
 21 25  2  0
 22 21  1  0
 22 23  1  0
 23 24  2  0
 25 24  1  0
 25 26  1  0
 26 29  1  0
 27 28  2  0
 29 27  1  0
  4 30  1  0
  5 31  1  0
  6 32  1  0
  8 33  1  0
  9 34  1  0
 16 35  1  0
 17 36  1  0
 17 37  1  0
 18 38  1  0
 20 39  1  0
 22 40  1  0
 23 41  1  0
 27 42  1  0
 29 43  1  0
M  END
>  <Score>  (1) 
-7.35865

>  <Score_dual>  (1) 
-7.65

>  <Choices>  (1) 
[None, 9, ['12-5', 195], 12, ['0-20', 0], 12, ['7-17', 150], 25, ['34-21', 120], 38, ['12-5', 330]]

$$$$
