
     RDKit          3D

 50 54  0  0  1  0  0  0  0  0999 V2000
   43.5540   81.5630   57.8190 S   0  0  0  0  0  0  0  0  0  0  0  0
   41.2330   80.3810   56.6400 N   0  0  0  0  0  0  0  0  0  0  0  0
   42.1140   80.5480   57.6260 C   0  0  0  0  0  0  0  0  0  0  0  0
   41.7840   79.7490   58.6590 N   0  0  0  0  0  0  0  0  0  0  0  0
   40.6840   79.0600   58.3420 C   0  0  0  0  0  0  0  0  0  0  0  0
   39.8700   78.1070   58.9470 C   0  0  0  0  0  0  0  0  0  0  0  0
   38.7910   77.6170   58.2770 N   0  0  0  0  0  0  0  0  0  0  0  0
   38.4980   78.0430   57.0340 C   0  0  0  0  0  0  0  0  0  0  0  0
   39.2910   78.9800   56.4280 N   0  0  0  0  0  0  0  0  0  0  0  0
   40.3620   79.4700   57.0850 C   0  0  0  0  0  0  0  0  0  0  0  0
   37.4500   75.9920   56.0480 C   0  0  1  0  0  0  0  0  0  0  0  0
   37.2800   77.4230   56.4060 C   0  0  2  0  0  0  0  0  0  0  0  0
   36.9440   78.0140   55.2200 O   0  0  0  0  0  0  0  0  0  0  0  0
   37.5890   77.3910   54.1800 C   0  0  0  0  0  0  0  0  0  0  0  0
   38.0450   76.0430   54.6630 C   0  0  2  0  0  0  0  0  0  0  0  0
   38.2100   75.2400   56.9280 O   0  0  0  0  0  0  0  0  0  0  0  0
   37.6010   75.0590   53.8130 O   0  0  0  0  0  0  0  0  0  0  0  0
   43.0810   83.1760   58.4080 C   0  0  0  0  0  0  0  0  0  0  0  0
   43.5710   84.3140   57.7920 C   0  0  0  0  0  0  0  0  0  0  0  0
   43.1780   85.5600   58.2890 C   0  0  0  0  0  0  0  0  0  0  0  0
   42.3350   85.5860   59.3510 N   0  0  0  0  0  0  0  0  0  0  0  0
   41.8780   84.4670   59.9250 C   0  0  0  0  0  0  0  0  0  0  0  0
   42.2580   83.2820   59.4440 N   0  0  0  0  0  0  0  0  0  0  0  0
   39.5080   84.3600   60.7360 C   0  0  2  0  0  0  0  0  0  0  0  0
   40.9620   84.5100   61.0960 C   0  0  1  0  0  0  0  0  0  0  0  0
   41.2390   83.5160   62.0170 O   0  0  0  0  0  0  0  0  0  0  0  0
   40.1040   83.3280   62.7720 C   0  0  0  0  0  0  0  0  0  0  0  0
   38.9850   83.4110   61.7630 C   0  0  1  0  0  0  0  0  0  0  0  0
   39.3040   83.9170   59.4240 O   0  0  0  0  0  0  0  0  0  0  0  0
   37.7960   83.9080   62.3550 O   0  0  0  0  0  0  0  0  0  0  0  0
   41.2250   80.8551   55.7256 H   0  0  0  0  0  0  0  0  0  0  0  0
   40.5119   77.2473   59.1897 H   0  0  0  0  0  0  0  0  0  0  0  0
   39.4212   78.6524   59.7903 H   0  0  0  0  0  0  0  0  0  0  0  0
   39.0712   79.3085   55.4769 H   0  0  0  0  0  0  0  0  0  0  0  0
   36.4864   75.4636   56.0965 H   0  0  0  0  0  0  0  0  0  0  0  0
   36.5152   77.5574   57.1851 H   0  0  0  0  0  0  0  0  0  0  0  0
   38.4571   77.9892   53.8661 H   0  0  0  0  0  0  0  0  0  0  0  0
   36.9130   77.2819   53.3191 H   0  0  0  0  0  0  0  0  0  0  0  0
   39.1335   75.8862   54.6862 H   0  0  0  0  0  0  0  0  0  0  0  0
   37.9695   75.4780   57.8584 H   0  0  0  0  0  0  0  0  0  0  0  0
   37.2569   74.2964   54.3422 H   0  0  0  0  0  0  0  0  0  0  0  0
   44.2531   84.2400   56.9322 H   0  0  0  0  0  0  0  0  0  0  0  0
   43.5418   86.4921   57.8321 H   0  0  0  0  0  0  0  0  0  0  0  0
   38.9771   85.3233   60.7476 H   0  0  0  0  0  0  0  0  0  0  0  0
   41.1385   85.5090   61.5212 H   0  0  0  0  0  0  0  0  0  0  0  0
   40.1177   82.3434   63.2623 H   0  0  0  0  0  0  0  0  0  0  0  0
   40.0035   84.0660   63.5815 H   0  0  0  0  0  0  0  0  0  0  0  0
   38.7179   82.4299   61.3434 H   0  0  0  0  0  0  0  0  0  0  0  0
   38.8900   83.0179   59.4399 H   0  0  0  0  0  0  0  0  0  0  0  0
   37.8788   83.8734   63.3409 H   0  0  0  0  0  0  0  0  0  0  0  0
  1 18  1  0
  2 10  1  0
  2  3  1  0
  3  1  1  0
  3  4  2  0
  5  4  1  0
  5  6  1  0
  7  6  1  0
  8  7  2  0
  9  8  1  0
  9 10  1  0
 10  5  2  0
 11 12  1  0
 11 16  1  0
 12  8  1  0
 13 12  1  0
 14 15  1  0
 14 13  1  0
 15 17  1  0
 15 11  1  0
 18 23  2  0
 19 20  2  0
 19 18  1  0
 20 21  1  0
 21 22  2  0
 22 25  1  0
 23 22  1  0
 24 25  1  0
 24 28  1  0
 25 26  1  0
 26 27  1  0
 28 30  1  0
 28 27  1  0
 29 24  1  0
  2 31  1  0
  6 32  1  0
  6 33  1  0
  9 34  1  0
 11 35  1  6
 12 36  1  1
 14 37  1  0
 14 38  1  0
 15 39  1  1
 16 40  1  0
 17 41  1  0
 19 42  1  0
 20 43  1  0
 24 44  1  6
 25 45  1  1
 27 46  1  0
 27 47  1  0
 28 48  1  6
 29 49  1  0
 30 50  1  0
M  END
>  <Score>  (1) 
-7.15563

>  <Score_dual>  (1) 
-8.25

>  <Choices>  (1) 
[None, 6, ['17-17', 0], 10, ['45-17', 165], 23, ['14-12', 330], 35, ['14-11', 225]]

$$$$
