
     RDKit          3D

 42 46  0  0  0  0  0  0  0  0999 V2000
   39.6740   83.3390   60.0990 C   0  0  0  0  0  0  0  0  0  0  0  0
   40.9100   83.0000   59.6050 C   0  0  0  0  0  0  0  0  0  0  0  0
   41.9920   83.0720   60.4480 C   0  0  0  0  0  0  0  0  0  0  0  0
   41.8470   83.4730   61.7510 C   0  0  0  0  0  0  0  0  0  0  0  0
   42.7790   83.6090   62.7330 N   0  0  0  0  0  0  0  0  0  0  0  0
   42.0690   84.0350   63.8130 C   0  0  0  0  0  0  0  0  0  0  0  0
   40.7390   84.1530   63.4930 N   0  0  0  0  0  0  0  0  0  0  0  0
   40.5910   83.7970   62.1860 C   0  0  0  0  0  0  0  0  0  0  0  0
   39.4770   83.7500   61.4100 C   0  0  0  0  0  0  0  0  0  0  0  0
   44.1810   83.3830   62.7160 C   0  0  0  0  0  0  0  0  0  0  0  0
   45.1930   84.0390   62.1080 C   0  0  0  0  0  0  0  0  0  0  0  0
   46.3820   83.4550   62.3750 N   0  0  0  0  0  0  0  0  0  0  0  0
   46.1080   82.3960   63.1760 C   0  0  0  0  0  0  0  0  0  0  0  0
   44.7790   82.3440   63.3880 N   0  0  0  0  0  0  0  0  0  0  0  0
   46.9150   81.4080   63.7850 N   0  0  0  0  0  0  0  0  0  0  0  0
   42.2060   82.6910   56.2080 C   0  0  0  0  0  0  0  0  0  0  0  0
   41.3340   81.7660   55.6360 C   0  0  0  0  0  0  0  0  0  0  0  0
   40.3020   81.2510   56.4220 C   0  0  0  0  0  0  0  0  0  0  0  0
   40.2330   81.7000   57.6920 N   0  0  0  0  0  0  0  0  0  0  0  0
   41.0650   82.5810   58.2370 C   0  0  0  0  0  0  0  0  0  0  0  0
   42.0650   83.0840   57.4870 N   0  0  0  0  0  0  0  0  0  0  0  0
   40.7590   80.3140   53.5770 Cl  0  0  0  0  0  0  0  0  0  0  0  0
   39.4600   79.8000   54.6530 C   0  0  0  0  0  0  0  0  0  0  0  0
   39.3350   80.2810   55.9270 C   0  0  0  0  0  0  0  0  0  0  0  0
   38.2780   79.8020   56.6680 C   0  0  0  0  0  0  0  0  0  0  0  0
   37.3590   78.8830   56.2020 C   0  0  0  0  0  0  0  0  0  0  0  0
   37.5070   78.4070   54.9020 C   0  0  0  0  0  0  0  0  0  0  0  0
   36.3610   77.2460   54.2890 Cl  0  0  0  0  0  0  0  0  0  0  0  0
   38.5510   78.8740   54.1550 C   0  0  0  0  0  0  0  0  0  0  0  0
   38.8043   83.2824   59.4279 H   0  0  0  0  0  0  0  0  0  0  0  0
   42.9903   82.8038   60.0719 H   0  0  0  0  0  0  0  0  0  0  0  0
   42.4993   84.2536   64.8015 H   0  0  0  0  0  0  0  0  0  0  0  0
   38.4829   84.0202   61.7958 H   0  0  0  0  0  0  0  0  0  0  0  0
   45.0660   84.9317   61.4780 H   0  0  0  0  0  0  0  0  0  0  0  0
   47.3084   83.7538   62.0383 H   0  0  0  0  0  0  0  0  0  0  0  0
   46.4826   80.6779   64.3689 H   0  0  0  0  0  0  0  0  0  0  0  0
   47.9354   81.4182   63.6448 H   0  0  0  0  0  0  0  0  0  0  0  0
   43.0245   83.1073   55.6025 H   0  0  0  0  0  0  0  0  0  0  0  0
   41.4564   81.4494   54.5897 H   0  0  0  0  0  0  0  0  0  0  0  0
   38.1582   80.1749   57.6959 H   0  0  0  0  0  0  0  0  0  0  0  0
   36.5328   78.5365   56.8402 H   0  0  0  0  0  0  0  0  0  0  0  0
   38.6763   78.5053   53.1262 H   0  0  0  0  0  0  0  0  0  0  0  0
  1  9  2  0
  2  1  1  0
  2  3  2  0
  3  4  1  0
  4  8  2  0
  4  5  1  0
  5  6  1  0
  7  6  2  0
  8  7  1  0
  9  8  1  0
 10  5  1  0
 10 14  1  0
 11 12  1  0
 11 10  2  0
 12 13  1  0
 13 14  2  0
 13 15  1  0
 16 21  2  0
 17 16  1  0
 17 18  2  0
 18 19  1  0
 19 20  2  0
 20  2  1  0
 21 20  1  0
 22 23  1  0
 23 24  2  0
 24 18  1  0
 24 25  1  0
 26 25  2  0
 27 26  1  0
 28 27  1  0
 29 23  1  0
 29 27  2  0
  1 30  1  0
  3 31  1  0
  6 32  1  0
  9 33  1  0
 11 34  1  0
 12 35  1  0
 15 36  1  0
 15 37  1  0
 16 38  1  0
 17 39  1  0
 25 40  1  0
 26 41  1  0
 29 42  1  0
M  END
>  <Score>  (1) 
-7.30856

>  <Score_dual>  (1) 
-7.63

>  <Choices>  (1) 
[None, 9, ['34-23', 255], 17, ['23-10', 60], 29, ['0-3', 225], 31, ['29-20', 180]]

$$$$
