
     RDKit          3D

 38 41  0  0  1  0  0  0  0  0999 V2000
   39.8020   80.1230   58.8060 F   0  0  0  0  0  0  0  0  0  0  0  0
   40.2690   79.6480   59.9750 C   0  0  0  0  0  0  0  0  0  0  0  0
   40.3630   80.3990   61.1290 C   0  0  0  0  0  0  0  0  0  0  0  0
   40.8630   79.7480   62.2340 C   0  0  0  0  0  0  0  0  0  0  0  0
   41.2480   78.4340   62.2100 C   0  0  0  0  0  0  0  0  0  0  0  0
   41.1510   77.6970   61.0640 C   0  0  0  0  0  0  0  0  0  0  0  0
   40.6580   78.3080   59.9430 C   0  0  0  0  0  0  0  0  0  0  0  0
   40.5630   77.5240   58.7560 N   0  0  0  0  0  0  0  0  0  0  0  0
   41.7180   77.0820   58.1850 C   0  0  0  0  0  0  0  0  0  0  0  0
   41.4230   76.3650   57.0840 N   0  0  0  0  0  0  0  0  0  0  0  0
   40.0960   76.3500   56.9520 C   0  0  0  0  0  0  0  0  0  0  0  0
   39.1750   75.8030   56.0520 C   0  0  2  0  0  0  0  0  0  0  0  0
   37.8590   76.0070   56.2510 N   0  0  0  0  0  0  0  0  0  0  0  0
   37.3910   76.7290   57.2980 C   0  0  0  0  0  0  0  0  0  0  0  0
   38.2420   77.2870   58.2090 N   0  0  0  0  0  0  0  0  0  0  0  0
   39.5550   77.0730   57.9950 C   0  0  0  0  0  0  0  0  0  0  0  0
   39.6990   75.0470   54.9590 N   0  0  0  0  0  0  0  0  0  0  0  0
   39.9080   83.9670   60.0190 C   0  0  0  0  0  0  0  0  0  0  0  0
   40.3360   82.6440   60.0440 C   0  0  0  0  0  0  0  0  0  0  0  0
   39.9350   81.7850   61.0730 C   0  0  0  0  0  0  0  0  0  0  0  0
   39.1170   82.3230   62.0220 N   0  0  0  0  0  0  0  0  0  0  0  0
   38.7190   83.5890   61.9780 C   0  0  0  0  0  0  0  0  0  0  0  0
   39.1080   84.4160   60.9850 N   0  0  0  0  0  0  0  0  0  0  0  0
   40.3440   84.8490   58.9280 C   0  0  0  0  0  0  0  0  0  0  0  0
   39.3640   85.7190   58.5270 F   0  0  0  0  0  0  0  0  0  0  0  0
   40.8120   84.1780   57.8120 F   0  0  0  0  0  0  0  0  0  0  0  0
   41.4240   85.5840   59.4140 F   0  0  0  0  0  0  0  0  0  0  0  0
   40.9573   80.3071   63.1766 H   0  0  0  0  0  0  0  0  0  0  0  0
   41.6403   77.9662   63.1250 H   0  0  0  0  0  0  0  0  0  0  0  0
   41.4606   76.6417   61.0427 H   0  0  0  0  0  0  0  0  0  0  0  0
   42.7317   77.2796   58.5635 H   0  0  0  0  0  0  0  0  0  0  0  0
   39.2247   76.7178   55.4431 H   0  0  0  0  0  0  0  0  0  0  0  0
   36.3063   76.8681   57.4163 H   0  0  0  0  0  0  0  0  0  0  0  0
   37.9011   77.8374   59.0101 H   0  0  0  0  0  0  0  0  0  0  0  0
   40.2482   74.2547   55.3216 H   0  0  0  0  0  0  0  0  0  0  0  0
   38.9221   74.6916   54.3837 H   0  0  0  0  0  0  0  0  0  0  0  0
   40.9958   82.2695   59.2475 H   0  0  0  0  0  0  0  0  0  0  0  0
   38.0573   83.9723   62.7687 H   0  0  0  0  0  0  0  0  0  0  0  0
  1  2  1  0
  2  3  2  0
  3  4  1  0
  5  4  2  0
  6  5  1  0
  7  2  1  0
  7  6  2  0
  8  7  1  0
  9  8  1  0
 10  9  2  0
 11 10  1  0
 11 16  2  0
 12 17  1  0
 12 13  1  0
 12 11  1  0
 13 14  2  0
 14 15  1  0
 16 15  1  0
 16  8  1  0
 18 19  2  0
 18 23  1  0
 19 20  1  0
 20  3  1  0
 20 21  2  0
 22 21  1  0
 23 22  2  0
 24 27  1  0
 24 18  1  0
 25 24  1  0
 26 24  1  0
  4 28  1  0
  5 29  1  0
  6 30  1  0
  9 31  1  0
 12 32  1  6
 14 33  1  0
 15 34  1  0
 17 35  1  0
 17 36  1  0
 19 37  1  0
 22 38  1  0
M  END
>  <Score>  (1) 
-7.06139

>  <Score_dual>  (1) 
-7.06

>  <Choices>  (1) 
[None, 6, ['11-13', 60], 11, ['9-15', 180], 22, ['28-8', 150]]

$$$$
