
     RDKit          3D

 53 57  0  0  1  0  0  0  0  0999 V2000
   39.5590   84.8910   59.4160 C   0  0  0  0  0  0  0  0  0  0  0  0
   39.3420   85.6170   58.2530 C   0  0  0  0  0  0  0  0  0  0  0  0
   40.4280   86.2750   57.7050 C   0  0  0  0  0  0  0  0  0  0  0  0
   41.6040   86.1520   58.3540 N   0  0  0  0  0  0  0  0  0  0  0  0
   41.8100   85.4550   59.4680 C   0  0  0  0  0  0  0  0  0  0  0  0
   40.7710   84.8310   59.9830 N   0  0  0  0  0  0  0  0  0  0  0  0
   43.0860   85.4220   60.0210 N   0  0  0  0  0  0  0  0  0  0  0  0
   43.8280   86.6670   60.1290 C   0  0  1  0  0  0  0  0  0  0  0  0
   44.9240   86.6300   61.1600 C   0  0  0  0  0  0  0  0  0  0  0  0
   44.8890   85.4690   61.9860 N   0  0  0  0  0  0  0  0  0  0  0  0
   44.9640   84.3220   61.1300 C   0  0  0  0  0  0  0  0  0  0  0  0
   43.6080   84.1470   60.4600 C   0  0  1  0  0  0  0  0  0  0  0  0
   42.8230   81.5490   59.5530 F   0  0  0  0  0  0  0  0  0  0  0  0
   42.3460   82.0680   60.7300 C   0  0  0  0  0  0  0  0  0  0  0  0
   42.6850   83.3210   61.2320 C   0  0  0  0  0  0  0  0  0  0  0  0
   42.1370   83.7320   62.4290 C   0  0  0  0  0  0  0  0  0  0  0  0
   41.2710   82.9640   63.1540 C   0  0  0  0  0  0  0  0  0  0  0  0
   40.9410   81.7230   62.6490 C   0  0  0  0  0  0  0  0  0  0  0  0
   41.4680   81.2830   61.4600 C   0  0  0  0  0  0  0  0  0  0  0  0
   41.0570   79.9470   61.0040 C   0  0  0  0  0  0  0  0  0  0  0  0
   41.3540   78.9320   61.9170 C   0  0  0  0  0  0  0  0  0  0  0  0
   41.0040   77.6390   61.5750 C   0  0  0  0  0  0  0  0  0  0  0  0
   40.3820   77.3510   60.3750 C   0  0  0  0  0  0  0  0  0  0  0  0
   40.1000   78.3710   59.4900 C   0  0  0  0  0  0  0  0  0  0  0  0
   39.4790   78.1320   58.2780 C   0  0  0  0  0  0  0  0  0  0  0  0
   39.2200   79.2050   57.4250 C   0  0  0  0  0  0  0  0  0  0  0  0
   39.5710   80.4970   57.7690 C   0  0  0  0  0  0  0  0  0  0  0  0
   40.1930   80.7760   58.9730 C   0  0  0  0  0  0  0  0  0  0  0  0
   40.4350   79.6770   59.7960 C   0  0  0  0  0  0  0  0  0  0  0  0
   44.4220   87.1400   58.8090 C   0  0  0  0  0  0  0  0  0  0  0  0
   45.6300   87.7900   58.9700 F   0  0  0  0  0  0  0  0  0  0  0  0
   44.4210   86.1900   57.8090 F   0  0  0  0  0  0  0  0  0  0  0  0
   43.5250   88.1040   58.3300 F   0  0  0  0  0  0  0  0  0  0  0  0
   38.7190   84.3543   59.8812 H   0  0  0  0  0  0  0  0  0  0  0  0
   38.3471   85.6669   57.7864 H   0  0  0  0  0  0  0  0  0  0  0  0
   40.3371   86.8700   56.7843 H   0  0  0  0  0  0  0  0  0  0  0  0
   43.0615   87.3868   60.4521 H   0  0  0  0  0  0  0  0  0  0  0  0
   45.8927   86.6578   60.6395 H   0  0  0  0  0  0  0  0  0  0  0  0
   44.7786   87.4995   61.8179 H   0  0  0  0  0  0  0  0  0  0  0  0
   45.6893   85.4756   62.6344 H   0  0  0  0  0  0  0  0  0  0  0  0
   45.7408   84.4759   60.3665 H   0  0  0  0  0  0  0  0  0  0  0  0
   45.2212   83.4255   61.7132 H   0  0  0  0  0  0  0  0  0  0  0  0
   43.7495   83.5542   59.5443 H   0  0  0  0  0  0  0  0  0  0  0  0
   42.4100   84.7241   62.8178 H   0  0  0  0  0  0  0  0  0  0  0  0
   40.8518   83.3218   64.1060 H   0  0  0  0  0  0  0  0  0  0  0  0
   40.2464   81.0775   63.2065 H   0  0  0  0  0  0  0  0  0  0  0  0
   41.8488   79.1538   62.8741 H   0  0  0  0  0  0  0  0  0  0  0  0
   41.2259   76.8198   62.2748 H   0  0  0  0  0  0  0  0  0  0  0  0
   40.1131   76.3137   60.1268 H   0  0  0  0  0  0  0  0  0  0  0  0
   39.1930   77.1095   57.9903 H   0  0  0  0  0  0  0  0  0  0  0  0
   38.7267   79.0193   56.4595 H   0  0  0  0  0  0  0  0  0  0  0  0
   39.3516   81.3192   57.0720 H   0  0  0  0  0  0  0  0  0  0  0  0
   40.4780   81.7984   59.2620 H   0  0  0  0  0  0  0  0  0  0  0  0
  1  6  2  0
  2  1  1  0
  3  2  2  0
  3  4  1  0
  4  5  2  0
  5  6  1  0
  5  7  1  0
  7  8  1  0
  7 12  1  0
  8  9  1  0
  9 10  1  0
 11 10  1  0
 12 11  1  0
 12 15  1  0
 13 14  1  0
 14 15  2  0
 14 19  1  0
 15 16  1  0
 16 17  2  0
 18 17  1  0
 19 18  2  0
 20 19  1  0
 20 21  2  0
 22 21  1  0
 23 22  2  0
 24 29  2  0
 24 23  1  0
 25 24  1  0
 26 27  1  0
 26 25  2  0
 27 28  2  0
 28 29  1  0
 29 20  1  0
 30 31  1  0
 30  8  1  0
 32 30  1  0
 33 30  1  0
  1 34  1  0
  2 35  1  0
  3 36  1  0
  8 37  1  1
  9 38  1  0
  9 39  1  0
 10 40  1  0
 11 41  1  0
 11 42  1  0
 12 43  1  6
 16 44  1  0
 17 45  1  0
 18 46  1  0
 21 47  1  0
 22 48  1  0
 23 49  1  0
 25 50  1  0
 26 51  1  0
 27 52  1  0
 28 53  1  0
M  END
>  <Score>  (1) 
-7.42147

>  <Score_dual>  (1) 
-7.24

>  <Choices>  (1) 
[None, 9, ['15-7', 45], 16, ['11-13', 300], 26, ['9-15', 30], 36, ['26-23', 60]]

$$$$
