
     RDKit          3D

 40 43  0  0  0  0  0  0  0  0999 V2000
   43.2900   84.8300   61.3110 C   0  0  0  0  0  0  0  0  0  0  0  0
   44.5010   84.9020   61.7040 O   0  0  0  0  0  0  0  0  0  0  0  0
   43.0180   85.6340   60.1020 C   0  0  0  0  0  0  0  0  0  0  0  0
   41.9820   85.2830   59.2700 C   0  0  0  0  0  0  0  0  0  0  0  0
   41.6440   85.9820   58.1010 C   0  0  0  0  0  0  0  0  0  0  0  0
   42.3870   87.0560   57.7890 N   0  0  0  0  0  0  0  0  0  0  0  0
   43.4020   87.3860   58.6170 C   0  0  0  0  0  0  0  0  0  0  0  0
   43.7080   86.7060   59.7290 N   0  0  0  0  0  0  0  0  0  0  0  0
   44.1480   88.5400   58.2200 N   0  0  0  0  0  0  0  0  0  0  0  0
   43.7810   89.7400   58.7420 C   0  0  0  0  0  0  0  0  0  0  0  0
   44.4990   90.8820   58.3660 C   0  0  0  0  0  0  0  0  0  0  0  0
   45.5440   90.7200   57.4830 C   0  0  0  0  0  0  0  0  0  0  0  0
   46.2890   91.8870   57.0890 N   0  0  0  0  0  0  0  0  0  0  0  0
   45.9100   89.5190   56.9600 N   0  0  0  0  0  0  0  0  0  0  0  0
   45.1890   88.4280   57.3470 C   0  0  0  0  0  0  0  0  0  0  0  0
   45.4250   87.2500   56.9360 O   0  0  0  0  0  0  0  0  0  0  0  0
   40.5940   83.7930   63.6520 C   0  0  0  0  0  0  0  0  0  0  0  0
   41.5720   84.5780   63.0350 C   0  0  0  0  0  0  0  0  0  0  0  0
   42.2830   84.0540   61.9660 C   0  0  0  0  0  0  0  0  0  0  0  0
   41.9520   82.7970   61.6160 N   0  0  0  0  0  0  0  0  0  0  0  0
   41.0290   82.0350   62.1880 C   0  0  0  0  0  0  0  0  0  0  0  0
   40.3400   82.5440   63.2220 N   0  0  0  0  0  0  0  0  0  0  0  0
   40.7930   80.6950   61.6880 C   0  0  0  0  0  0  0  0  0  0  0  0
   40.6260   80.4230   60.3540 C   0  0  0  0  0  0  0  0  0  0  0  0
   40.4010   79.1260   59.9140 C   0  0  0  0  0  0  0  0  0  0  0  0
   40.3510   78.1140   60.8520 C   0  0  0  0  0  0  0  0  0  0  0  0
   40.5210   78.4120   62.1890 C   0  0  0  0  0  0  0  0  0  0  0  0
   40.7360   79.6890   62.5590 N   0  0  0  0  0  0  0  0  0  0  0  0
   41.3814   84.4008   59.5365 H   0  0  0  0  0  0  0  0  0  0  0  0
   40.8044   85.6630   57.4660 H   0  0  0  0  0  0  0  0  0  0  0  0
   42.9380   89.8126   59.4448 H   0  0  0  0  0  0  0  0  0  0  0  0
   44.2376   91.8744   58.7621 H   0  0  0  0  0  0  0  0  0  0  0  0
   47.0757   91.7976   56.4302 H   0  0  0  0  0  0  0  0  0  0  0  0
   46.0354   92.8114   57.4659 H   0  0  0  0  0  0  0  0  0  0  0  0
   40.0248   84.2017   64.4999 H   0  0  0  0  0  0  0  0  0  0  0  0
   41.7751   85.5982   63.3927 H   0  0  0  0  0  0  0  0  0  0  0  0
   40.6710   81.2438   59.6231 H   0  0  0  0  0  0  0  0  0  0  0  0
   40.2658   78.9096   58.8440 H   0  0  0  0  0  0  0  0  0  0  0  0
   40.1765   77.0751   60.5353 H   0  0  0  0  0  0  0  0  0  0  0  0
   40.4813   77.6141   62.9451 H   0  0  0  0  0  0  0  0  0  0  0  0
  1  2  2  0
  1 19  1  0
  3  1  1  0
  4  3  2  0
  5  4  1  0
  6  5  2  0
  6  7  1  0
  7  8  2  0
  8  3  1  0
  9  7  1  0
  9 10  1  0
 11 10  2  0
 12 11  1  0
 13 12  1  0
 14 15  1  0
 14 12  2  0
 15  9  1  0
 16 15  2  0
 18 17  2  0
 19 18  1  0
 20 19  2  0
 20 21  1  0
 21 22  2  0
 22 17  1  0
 23 21  1  0
 23 28  1  0
 24 23  2  0
 25 24  1  0
 25 26  2  0
 26 27  1  0
 27 28  2  0
  4 29  1  0
  5 30  1  0
 10 31  1  0
 11 32  1  0
 13 33  1  0
 13 34  1  0
 17 35  1  0
 18 36  1  0
 24 37  1  0
 25 38  1  0
 26 39  1  0
 27 40  1  0
M  END
>  <Score>  (1) 
-7.05107

>  <Score_dual>  (1) 
-7.85

>  <Choices>  (1) 
[None, 8, ['5-9', 180], 10, ['6-16', 285], 20, ['19-5', 120], 28, ['49-14', 195]]

$$$$
