
     RDKit          3D

 53 58  0  0  0  0  0  0  0  0999 V2000
   40.9370   81.7740   61.6110 C   0  0  0  0  0  0  0  0  0  0  0  0
   41.2870   80.4960   61.6660 C   0  0  0  0  0  0  0  0  0  0  0  0
   40.9720   79.6510   60.6350 C   0  0  0  0  0  0  0  0  0  0  0  0
   40.3040   80.1900   59.5930 C   0  0  0  0  0  0  0  0  0  0  0  0
   40.1070   81.9410   60.0690 S   0  0  0  0  0  0  0  0  0  0  0  0
   41.1570   82.8840   62.5880 C   0  0  0  0  0  0  0  0  0  0  0  0
   42.0710   83.8530   62.3420 C   0  0  0  0  0  0  0  0  0  0  0  0
   42.2150   84.8450   63.3000 C   0  0  0  0  0  0  0  0  0  0  0  0
   41.4420   84.7820   64.4060 N   0  0  0  0  0  0  0  0  0  0  0  0
   40.5410   83.8010   64.6190 C   0  0  0  0  0  0  0  0  0  0  0  0
   40.4120   82.8540   63.6940 N   0  0  0  0  0  0  0  0  0  0  0  0
   42.9440   84.0000   61.1820 C   0  0  0  0  0  0  0  0  0  0  0  0
   44.1100   83.4080   60.8260 C   0  0  0  0  0  0  0  0  0  0  0  0
   44.7500   83.7150   59.6740 C   0  0  0  0  0  0  0  0  0  0  0  0
   44.1920   84.6500   58.8610 C   0  0  0  0  0  0  0  0  0  0  0  0
   43.0080   85.2650   59.2020 C   0  0  0  0  0  0  0  0  0  0  0  0
   42.3820   84.9380   60.3690 N   0  0  0  0  0  0  0  0  0  0  0  0
   42.4530   86.2810   58.2610 C   0  0  0  0  0  0  0  0  0  0  0  0
   41.2360   85.7170   57.6100 C   0  0  0  0  0  0  0  0  0  0  0  0
   39.8210   79.5870   58.3490 C   0  0  0  0  0  0  0  0  0  0  0  0
   39.4500   78.3280   58.2080 N   0  0  0  0  0  0  0  0  0  0  0  0
   39.0740   78.0860   56.9460 C   0  0  0  0  0  0  0  0  0  0  0  0
   39.1960   79.2690   56.2750 N   0  0  0  0  0  0  0  0  0  0  0  0
   39.6620   80.1730   57.1390 N   0  0  0  0  0  0  0  0  0  0  0  0
   39.8880   79.6970   53.9560 C   0  0  0  0  0  0  0  0  0  0  0  0
   38.8770   79.4910   54.8790 C   0  0  0  0  0  0  0  0  0  0  0  0
   37.5700   79.5040   54.4400 C   0  0  0  0  0  0  0  0  0  0  0  0
   37.2320   79.7140   53.1200 C   0  0  0  0  0  0  0  0  0  0  0  0
   36.0850   79.7760   52.4320 N   0  0  0  0  0  0  0  0  0  0  0  0
   36.3470   80.0090   51.1360 N   0  0  0  0  0  0  0  0  0  0  0  0
   37.6750   80.1030   50.9630 C   0  0  0  0  0  0  0  0  0  0  0  0
   38.2570   79.9180   52.2050 C   0  0  0  0  0  0  0  0  0  0  0  0
   39.5730   79.9080   52.6350 C   0  0  0  0  0  0  0  0  0  0  0  0
   41.8317   80.1136   62.5418 H   0  0  0  0  0  0  0  0  0  0  0  0
   41.2494   78.5867   60.6551 H   0  0  0  0  0  0  0  0  0  0  0  0
   42.9393   85.6614   63.1630 H   0  0  0  0  0  0  0  0  0  0  0  0
   39.9294   83.7846   65.5331 H   0  0  0  0  0  0  0  0  0  0  0  0
   44.5502   82.6538   61.4949 H   0  0  0  0  0  0  0  0  0  0  0  0
   45.6952   83.2217   59.4033 H   0  0  0  0  0  0  0  0  0  0  0  0
   44.6922   84.9189   57.9189 H   0  0  0  0  0  0  0  0  0  0  0  0
   42.1868   87.1927   58.8159 H   0  0  0  0  0  0  0  0  0  0  0  0
   43.2033   86.5330   57.4971 H   0  0  0  0  0  0  0  0  0  0  0  0
   40.5259   85.3879   58.3829 H   0  0  0  0  0  0  0  0  0  0  0  0
   40.7645   86.4884   56.9834 H   0  0  0  0  0  0  0  0  0  0  0  0
   41.5198   84.8586   56.9834 H   0  0  0  0  0  0  0  0  0  0  0  0
   39.7254   77.3233   56.4944 H   0  0  0  0  0  0  0  0  0  0  0  0
   38.0423   77.7068   56.9025 H   0  0  0  0  0  0  0  0  0  0  0  0
   39.8677   81.1583   56.9204 H   0  0  0  0  0  0  0  0  0  0  0  0
   40.9396   79.6918   54.2787 H   0  0  0  0  0  0  0  0  0  0  0  0
   36.7652   79.3404   55.1718 H   0  0  0  0  0  0  0  0  0  0  0  0
   35.1443   79.6622   52.8358 H   0  0  0  0  0  0  0  0  0  0  0  0
   38.2003   80.2912   50.0150 H   0  0  0  0  0  0  0  0  0  0  0  0
   40.3807   80.0718   51.9065 H   0  0  0  0  0  0  0  0  0  0  0  0
  1  2  2  0
  1  6  1  0
  3  2  1  0
  4  5  1  0
  4  3  2  0
  5  1  1  0
  6 11  2  0
  7  6  1  0
  7  8  2  0
  8  9  1  0
  9 10  2  0
 11 10  1  0
 12  7  1  0
 13 12  2  0
 14 13  1  0
 15 16  1  0
 15 14  2  0
 16 17  2  0
 17 12  1  0
 18 16  1  0
 19 18  1  0
 20  4  1  0
 21 20  2  0
 22 21  1  0
 23 22  1  0
 23 24  1  0
 24 20  1  0
 25 26  2  0
 26 23  1  0
 27 26  1  0
 28 27  2  0
 29 28  1  0
 30 29  1  0
 31 30  2  0
 31 32  1  0
 32 33  2  0
 32 28  1  0
 33 25  1  0
  2 34  1  0
  3 35  1  0
  8 36  1  0
 10 37  1  0
 13 38  1  0
 14 39  1  0
 15 40  1  0
 18 41  1  0
 18 42  1  0
 19 43  1  0
 19 44  1  0
 19 45  1  0
 22 46  1  0
 22 47  1  0
 24 48  1  0
 25 49  1  0
 27 50  1  0
 29 51  1  0
 31 52  1  0
 33 53  1  0
M  END
>  <Score>  (1) 
-7.21798

>  <Score_dual>  (1) 
-8.16

>  <Choices>  (1) 
[None, 6, ['25-21', 60], 11, ['6-15', 120], 25, ['4-11', 15], 31, ['57-14', 105], 38, ['54-19', 45]]

$$$$
