
     RDKit          3D

 44 48  0  0  1  0  0  0  0  0999 V2000
   40.0510   81.8340   57.7600 C   0  0  1  0  0  0  0  0  0  0  0  0
   41.0750   81.1610   56.8440 C   0  0  0  0  0  0  0  0  0  0  0  0
   40.3720   80.4370   57.9360 C   0  0  2  0  0  0  0  0  0  0  0  0
   40.5300   77.8310   59.1690 F   0  0  0  0  0  0  0  0  0  0  0  0
   39.5380   78.0550   58.3230 C   0  0  0  0  0  0  0  0  0  0  0  0
   39.4910   79.3010   57.7520 C   0  0  0  0  0  0  0  0  0  0  0  0
   38.4500   79.5330   56.8620 C   0  0  0  0  0  0  0  0  0  0  0  0
   37.5050   78.5820   56.5570 C   0  0  0  0  0  0  0  0  0  0  0  0
   37.6270   77.3590   57.1760 C   0  0  0  0  0  0  0  0  0  0  0  0
   38.6170   77.0540   58.0570 C   0  0  0  0  0  0  0  0  0  0  0  0
   40.2750   75.2480   56.2650 Br  0  0  0  0  0  0  0  0  0  0  0  0
   39.5170   74.8630   57.9790 C   0  0  0  0  0  0  0  0  0  0  0  0
   38.7680   75.7610   58.7280 C   0  0  0  0  0  0  0  0  0  0  0  0
   38.2620   75.3890   59.9570 C   0  0  0  0  0  0  0  0  0  0  0  0
   38.5050   74.1180   60.4380 C   0  0  0  0  0  0  0  0  0  0  0  0
   39.2440   73.1900   59.7290 C   0  0  0  0  0  0  0  0  0  0  0  0
   39.7460   73.5900   58.4890 C   0  0  0  0  0  0  0  0  0  0  0  0
   41.1500   83.7670   60.6800 C   0  0  0  0  0  0  0  0  0  0  0  0
   41.7770   84.8930   60.1020 C   0  0  0  0  0  0  0  0  0  0  0  0
   41.8190   84.9600   58.6970 C   0  0  0  0  0  0  0  0  0  0  0  0
   41.2570   83.9460   57.9790 N   0  0  0  0  0  0  0  0  0  0  0  0
   40.6770   82.9050   58.5860 C   0  0  0  0  0  0  0  0  0  0  0  0
   40.6090   82.7880   59.9350 N   0  0  0  0  0  0  0  0  0  0  0  0
   41.1130   83.7430   62.1270 C   0  0  0  0  0  0  0  0  0  0  0  0
   41.8900   84.4880   62.9880 C   0  0  0  0  0  0  0  0  0  0  0  0
   41.4510   84.0890   64.2780 C   0  0  0  0  0  0  0  0  0  0  0  0
   40.4780   83.1690   64.1500 N   0  0  0  0  0  0  0  0  0  0  0  0
   40.2840   82.9700   62.8660 N   0  0  0  0  0  0  0  0  0  0  0  0
   39.0784   82.3446   57.7026 H   0  0  0  0  0  0  0  0  0  0  0  0
   40.8312   80.9552   55.7913 H   0  0  0  0  0  0  0  0  0  0  0  0
   42.1212   81.3406   56.5555 H   0  0  0  0  0  0  0  0  0  0  0  0
   40.6883   79.8435   58.8064 H   0  0  0  0  0  0  0  0  0  0  0  0
   38.3787   80.5196   56.3807 H   0  0  0  0  0  0  0  0  0  0  0  0
   36.6882   78.7894   55.8500 H   0  0  0  0  0  0  0  0  0  0  0  0
   36.8813   76.5840   56.9450 H   0  0  0  0  0  0  0  0  0  0  0  0
   37.6687   76.1009   60.5496 H   0  0  0  0  0  0  0  0  0  0  0  0
   38.0965   73.8342   61.4191 H   0  0  0  0  0  0  0  0  0  0  0  0
   39.4287   72.1802   60.1243 H   0  0  0  0  0  0  0  0  0  0  0  0
   40.3400   72.8771   57.8983 H   0  0  0  0  0  0  0  0  0  0  0  0
   42.2152   85.6862   60.7255 H   0  0  0  0  0  0  0  0  0  0  0  0
   42.2948   85.8118   58.1890 H   0  0  0  0  0  0  0  0  0  0  0  0
   42.6695   85.2216   62.7345 H   0  0  0  0  0  0  0  0  0  0  0  0
   41.8444   84.4717   65.2313 H   0  0  0  0  0  0  0  0  0  0  0  0
   39.9757   82.7044   64.9199 H   0  0  0  0  0  0  0  0  0  0  0  0
  1  3  1  0
  1 22  1  0
  2  1  1  0
  2  3  1  0
  5  4  1  0
  6  3  1  0
  6  5  2  0
  7  6  1  0
  8  7  2  0
  8  9  1  0
  9 10  2  0
 10  5  1  0
 10 13  1  0
 11 12  1  0
 12 17  2  0
 12 13  1  0
 13 14  2  0
 14 15  1  0
 16 15  2  0
 17 16  1  0
 18 24  1  0
 19 18  2  0
 20 19  1  0
 21 22  1  0
 21 20  2  0
 22 23  2  0
 23 18  1  0
 24 28  2  0
 24 25  1  0
 25 26  2  0
 27 26  1  0
 28 27  1  0
  1 29  1  6
  2 30  1  0
  2 31  1  0
  3 32  1  1
  7 33  1  0
  8 34  1  0
  9 35  1  0
 14 36  1  0
 15 37  1  0
 16 38  1  0
 17 39  1  0
 19 40  1  0
 20 41  1  0
 25 42  1  0
 26 43  1  0
 27 44  1  0
M  END
>  <Score>  (1) 
-7.06364

>  <Score_dual>  (1) 
-7.04

>  <Choices>  (1) 
[None, 6, ['22-8', 120], 13, ['16-22', 285], 23, ['9-15', 180], 33, ['39-16', 285]]

$$$$
