
     RDKit          3D

 39 42  0  0  0  0  0  0  0  0999 V2000
   40.6850   79.6750   59.1890 C   0  0  0  0  0  0  0  0  0  0  0  0
   40.0400   79.7760   57.9630 C   0  0  0  0  0  0  0  0  0  0  0  0
   39.2110   78.7570   57.5670 C   0  0  0  0  0  0  0  0  0  0  0  0
   39.0510   77.7020   58.3750 N   0  0  0  0  0  0  0  0  0  0  0  0
   39.6710   77.5950   59.5660 C   0  0  0  0  0  0  0  0  0  0  0  0
   40.4950   78.5840   59.9840 N   0  0  0  0  0  0  0  0  0  0  0  0
   37.6890   77.6740   55.9970 C   0  0  0  0  0  0  0  0  0  0  0  0
   38.4870   78.7570   56.3050 C   0  0  0  0  0  0  0  0  0  0  0  0
   38.5350   79.7730   55.3750 C   0  0  0  0  0  0  0  0  0  0  0  0
   37.8060   79.6680   54.2090 C   0  0  0  0  0  0  0  0  0  0  0  0
   37.7430   80.5720   53.1980 N   0  0  0  0  0  0  0  0  0  0  0  0
   36.9080   80.0590   52.2540 C   0  0  0  0  0  0  0  0  0  0  0  0
   36.4680   78.8530   52.6900 N   0  0  0  0  0  0  0  0  0  0  0  0
   37.0140   78.6070   53.8900 C   0  0  0  0  0  0  0  0  0  0  0  0
   36.9580   77.5820   54.8160 C   0  0  0  0  0  0  0  0  0  0  0  0
   39.5040   76.4570   60.4470 C   0  0  0  0  0  0  0  0  0  0  0  0
   38.4720   75.7450   60.5010 O   0  0  0  0  0  0  0  0  0  0  0  0
   40.6420   76.2100   61.2700 N   0  0  0  0  0  0  0  0  0  0  0  0
   41.7760   80.9400   59.7880 S   0  0  0  0  0  0  0  0  0  0  0  0
   39.6320   81.6000   61.8290 F   0  0  0  0  0  0  0  0  0  0  0  0
   39.8580   82.6170   60.9870 C   0  0  0  0  0  0  0  0  0  0  0  0
   40.8170   82.4320   60.0120 C   0  0  0  0  0  0  0  0  0  0  0  0
   41.0970   83.4770   59.0940 C   0  0  0  0  0  0  0  0  0  0  0  0
   40.4450   84.6390   59.1600 C   0  0  0  0  0  0  0  0  0  0  0  0
   39.4650   84.8640   60.1380 C   0  0  0  0  0  0  0  0  0  0  0  0
   39.2170   83.8140   61.0220 C   0  0  0  0  0  0  0  0  0  0  0  0
   38.2450   84.0300   61.9950 O   0  0  0  0  0  0  0  0  0  0  0  0
   40.1910   80.6567   57.3214 H   0  0  0  0  0  0  0  0  0  0  0  0
   37.6278   76.8454   56.7179 H   0  0  0  0  0  0  0  0  0  0  0  0
   39.1523   80.6641   55.5620 H   0  0  0  0  0  0  0  0  0  0  0  0
   38.2347   81.4760   53.1539 H   0  0  0  0  0  0  0  0  0  0  0  0
   36.6370   80.5394   51.3023 H   0  0  0  0  0  0  0  0  0  0  0  0
   36.3370   76.6955   54.6199 H   0  0  0  0  0  0  0  0  0  0  0  0
   40.6350   75.4246   61.9363 H   0  0  0  0  0  0  0  0  0  0  0  0
   41.4710   76.8170   61.1982 H   0  0  0  0  0  0  0  0  0  0  0  0
   41.8617   83.3271   58.3177 H   0  0  0  0  0  0  0  0  0  0  0  0
   40.6796   85.4332   58.4360 H   0  0  0  0  0  0  0  0  0  0  0  0
   38.9210   85.8178   60.2043 H   0  0  0  0  0  0  0  0  0  0  0  0
   37.7682   84.8967   62.0346 H   0  0  0  0  0  0  0  0  0  0  0  0
  1 19  1  0
  1  6  1  0
  2  1  2  0
  3  2  1  0
  3  4  2  0
  4  5  1  0
  5  6  2  0
  5 16  1  0
  7  8  2  0
  8  3  1  0
  9  8  1  0
 10  9  2  0
 11 10  1  0
 12 13  2  0
 12 11  1  0
 13 14  1  0
 14 10  1  0
 14 15  2  0
 15  7  1  0
 16 17  2  0
 16 18  1  0
 19 22  1  0
 21 26  2  0
 21 20  1  0
 22 21  1  0
 23 24  1  0
 23 22  2  0
 24 25  2  0
 25 26  1  0
 26 27  1  0
  2 28  1  0
  7 29  1  0
  9 30  1  0
 11 31  1  0
 12 32  1  0
 15 33  1  0
 18 34  1  0
 18 35  1  0
 23 36  1  0
 24 37  1  0
 25 38  1  0
 27 39  1  0
M  END
>  <Score>  (1) 
-7.38725

>  <Score_dual>  (1) 
-7.16

>  <Choices>  (1) 
[None, 6, ['17-17', 0], 10, ['9-7', 225], 20, ['2-1', 0], 21, ['5-7', 240], 23, ['0-19', 0], 23, ['34-19', 195]]

$$$$
