
     RDKit          3D

 54 58  0  0  0  0  0  0  0  0999 V2000
   40.8960   83.8240   60.5290 C   0  0  0  0  0  0  0  0  0  0  0  0
   41.2120   82.4700   60.7050 C   0  0  0  0  0  0  0  0  0  0  0  0
   40.3960   81.6240   61.4610 C   0  0  0  0  0  0  0  0  0  0  0  0
   39.2900   82.1720   62.0140 N   0  0  0  0  0  0  0  0  0  0  0  0
   38.9610   83.4680   61.8620 C   0  0  0  0  0  0  0  0  0  0  0  0
   39.7500   84.2740   61.1350 N   0  0  0  0  0  0  0  0  0  0  0  0
   41.5740   84.8320   59.8000 C   0  0  0  0  0  0  0  0  0  0  0  0
   40.9850   85.2460   58.5950 C   0  0  0  0  0  0  0  0  0  0  0  0
   41.5030   86.2180   57.7470 C   0  0  0  0  0  0  0  0  0  0  0  0
   42.6870   86.8290   58.1080 C   0  0  0  0  0  0  0  0  0  0  0  0
   43.2830   86.4620   59.2540 C   0  0  0  0  0  0  0  0  0  0  0  0
   44.4870   87.0720   59.6350 C   0  0  0  0  0  0  0  0  0  0  0  0
   45.1770   86.7660   60.7860 C   0  0  0  0  0  0  0  0  0  0  0  0
   44.5670   85.7740   61.5660 C   0  0  0  0  0  0  0  0  0  0  0  0
   43.4010   85.1780   61.2080 C   0  0  0  0  0  0  0  0  0  0  0  0
   42.7480   85.5080   60.0570 C   0  0  0  0  0  0  0  0  0  0  0  0
   40.7710   80.2720   61.5930 C   0  0  0  0  0  0  0  0  0  0  0  0
   41.4080   79.7720   62.5540 O   0  0  0  0  0  0  0  0  0  0  0  0
   40.1360   77.7790   62.5060 F   0  0  0  0  0  0  0  0  0  0  0  0
   40.1440   78.0350   61.1690 C   0  0  0  0  0  0  0  0  0  0  0  0
   40.4450   79.2590   60.5740 C   0  0  0  0  0  0  0  0  0  0  0  0
   40.4150   79.3830   59.2180 C   0  0  0  0  0  0  0  0  0  0  0  0
   40.0870   78.2970   58.4500 C   0  0  0  0  0  0  0  0  0  0  0  0
   39.7860   77.0790   58.9980 C   0  0  0  0  0  0  0  0  0  0  0  0
   39.8120   76.9410   60.3820 C   0  0  0  0  0  0  0  0  0  0  0  0
   39.4500   75.9830   58.0890 C   0  0  0  0  0  0  0  0  0  0  0  0
   38.6560   76.4260   56.8620 C   0  0  0  0  0  0  0  0  0  0  0  0
   38.2650   75.1490   56.1440 C   0  0  0  0  0  0  0  0  0  0  0  0
   38.6690   73.9970   56.7770 O   0  0  0  0  0  0  0  0  0  0  0  0
   40.0130   73.8850   57.0360 C   0  0  0  0  0  0  0  0  0  0  0  0
   40.6010   75.2060   57.5570 C   0  0  0  0  0  0  0  0  0  0  0  0
   39.4770   75.6740   60.9540 N   0  0  0  0  0  0  0  0  0  0  0  0
   42.1217   82.0645   60.2381 H   0  0  0  0  0  0  0  0  0  0  0  0
   38.0490   83.8650   62.3318 H   0  0  0  0  0  0  0  0  0  0  0  0
   40.0413   84.7644   58.2991 H   0  0  0  0  0  0  0  0  0  0  0  0
   40.9849   86.4921   56.8161 H   0  0  0  0  0  0  0  0  0  0  0  0
   43.1347   87.6034   57.4678 H   0  0  0  0  0  0  0  0  0  0  0  0
   44.9062   87.8435   58.9724 H   0  0  0  0  0  0  0  0  0  0  0  0
   46.1210   87.2553   61.0680 H   0  0  0  0  0  0  0  0  0  0  0  0
   45.0517   85.4666   62.5044 H   0  0  0  0  0  0  0  0  0  0  0  0
   42.9709   84.4074   61.8646 H   0  0  0  0  0  0  0  0  0  0  0  0
   40.6521   80.3467   58.7436 H   0  0  0  0  0  0  0  0  0  0  0  0
   40.0647   78.4074   57.3558 H   0  0  0  0  0  0  0  0  0  0  0  0
   38.8523   75.3445   58.7561 H   0  0  0  0  0  0  0  0  0  0  0  0
   37.7589   76.9848   57.1668 H   0  0  0  0  0  0  0  0  0  0  0  0
   39.2461   77.0915   56.2148 H   0  0  0  0  0  0  0  0  0  0  0  0
   38.7150   75.1665   55.1404 H   0  0  0  0  0  0  0  0  0  0  0  0
   37.1655   75.1257   56.1194 H   0  0  0  0  0  0  0  0  0  0  0  0
   40.1665   73.1025   57.7938 H   0  0  0  0  0  0  0  0  0  0  0  0
   40.5241   73.6278   56.0965 H   0  0  0  0  0  0  0  0  0  0  0  0
   41.3324   75.0108   58.3551 H   0  0  0  0  0  0  0  0  0  0  0  0
   41.1262   75.7556   56.7619 H   0  0  0  0  0  0  0  0  0  0  0  0
   39.4902   75.5509   61.9765 H   0  0  0  0  0  0  0  0  0  0  0  0
   39.2225   74.8844   60.3435 H   0  0  0  0  0  0  0  0  0  0  0  0
  1  2  2  0
  1  6  1  0
  2  3  1  0
  3 17  1  0
  3  4  2  0
  5  4  1  0
  6  5  2  0
  7 16  1  0
  7  1  1  0
  8  7  2  0
  9 10  2  0
  9  8  1  0
 10 11  1  0
 11 12  1  0
 11 16  2  0
 12 13  2  0
 13 14  1  0
 15 14  2  0
 16 15  1  0
 17 18  2  0
 20 19  1  0
 21 20  2  0
 21 17  1  0
 22 21  1  0
 23 24  1  0
 23 22  2  0
 24 25  2  0
 25 32  1  0
 25 20  1  0
 26 24  1  0
 27 26  1  0
 28 29  1  0
 28 27  1  0
 29 30  1  0
 30 31  1  0
 31 26  1  0
  2 33  1  0
  5 34  1  0
  8 35  1  0
  9 36  1  0
 10 37  1  0
 12 38  1  0
 13 39  1  0
 14 40  1  0
 15 41  1  0
 22 42  1  0
 23 43  1  0
 26 44  1  0
 27 45  1  0
 27 46  1  0
 28 47  1  0
 28 48  1  0
 30 49  1  0
 30 50  1  0
 31 51  1  0
 31 52  1  0
 32 53  1  0
 32 54  1  0
M  END
>  <Score>  (1) 
-7.40581

>  <Score_dual>  (1) 
-8.47

>  <Choices>  (1) 
[None, 8, ['5-9', 180], 8, ['26-25', 345], 27, ['9-4', 240], 37, ['0-3', 0], 37, ['56-25', 150]]

$$$$
