
     RDKit          3D

 48 52  0  0  1  0  0  0  0  0999 V2000
   39.8640   76.3330   61.0910 O   0  0  0  0  0  0  0  0  0  0  0  0
   40.6330   77.6510   61.1140 P   0  0  2  0  0  0  0  0  0  0  0  0
   40.6220   78.2910   62.6790 O   0  0  0  0  0  0  0  0  0  0  0  0
   39.9520   78.7130   59.9720 O   0  0  0  0  0  0  0  0  0  0  0  0
   40.5550   82.1060   58.6960 C   0  0  0  0  0  0  0  0  0  0  0  0
   40.0830   80.7330   58.7540 C   0  0  0  0  0  0  0  0  0  0  0  0
   40.2620   80.0730   59.9400 C   0  0  0  0  0  0  0  0  0  0  0  0
   40.7250   80.7430   61.0290 N   0  0  0  0  0  0  0  0  0  0  0  0
   40.6280   82.1330   61.0220 C   0  0  2  0  0  0  0  0  0  0  0  0
   40.8480   82.7390   59.8390 N   0  0  0  0  0  0  0  0  0  0  0  0
   43.5800   82.3730   61.4620 Cl  0  0  0  0  0  0  0  0  0  0  0  0
   42.3550   83.0520   62.5400 C   0  0  0  0  0  0  0  0  0  0  0  0
   41.0350   82.8770   62.2180 C   0  0  0  0  0  0  0  0  0  0  0  0
   40.1270   83.4090   63.0500 C   0  0  0  0  0  0  0  0  0  0  0  0
   40.5150   84.0940   64.1680 C   0  0  0  0  0  0  0  0  0  0  0  0
   41.8050   84.2770   64.5030 C   0  0  0  0  0  0  0  0  0  0  0  0
   42.7480   83.7430   63.6680 C   0  0  0  0  0  0  0  0  0  0  0  0
   42.2460   77.2980   60.6260 O   0  0  0  0  0  0  0  0  0  0  0  0
   42.8400   76.2050   61.2780 C   0  0  0  0  0  0  0  0  0  0  0  0
   43.7070   76.1800   62.3760 C   0  0  0  0  0  0  0  0  0  0  0  0
   44.0210   74.8500   62.6500 C   0  0  0  0  0  0  0  0  0  0  0  0
   43.3600   74.1120   61.7430 N   0  0  0  0  0  0  0  0  0  0  0  0
   42.6760   74.9160   60.9500 N   0  0  0  0  0  0  0  0  0  0  0  0
   44.6080   71.9490   61.6040 C   0  0  0  0  0  0  0  0  0  0  0  0
   43.4480   72.6880   61.7220 C   0  0  0  0  0  0  0  0  0  0  0  0
   42.2000   72.0660   61.8370 C   0  0  0  0  0  0  0  0  0  0  0  0
   42.1180   70.6790   61.8320 C   0  0  0  0  0  0  0  0  0  0  0  0
   41.0750   69.8090   61.9260 N   0  0  0  0  0  0  0  0  0  0  0  0
   41.6050   68.5710   61.8640 C   0  0  0  0  0  0  0  0  0  0  0  0
   42.9600   68.6550   61.7330 N   0  0  0  0  0  0  0  0  0  0  0  0
   43.2850   69.9810   61.7140 C   0  0  0  0  0  0  0  0  0  0  0  0
   44.5390   70.5570   61.5980 C   0  0  0  0  0  0  0  0  0  0  0  0
   40.6347   77.5521   63.3378 H   0  0  0  0  0  0  0  0  0  0  0  0
   40.6698   82.6172   57.7288 H   0  0  0  0  0  0  0  0  0  0  0  0
   39.0048   80.7412   58.5360 H   0  0  0  0  0  0  0  0  0  0  0  0
   40.6943   80.1849   58.0219 H   0  0  0  0  0  0  0  0  0  0  0  0
   39.5382   82.2191   61.1443 H   0  0  0  0  0  0  0  0  0  0  0  0
   39.0556   83.2926   62.8298 H   0  0  0  0  0  0  0  0  0  0  0  0
   39.7375   84.5143   64.8228 H   0  0  0  0  0  0  0  0  0  0  0  0
   42.0893   84.8320   65.4092 H   0  0  0  0  0  0  0  0  0  0  0  0
   43.8174   83.8642   63.8953 H   0  0  0  0  0  0  0  0  0  0  0  0
   44.0765   77.0574   62.9271 H   0  0  0  0  0  0  0  0  0  0  0  0
   44.6789   74.4787   63.4496 H   0  0  0  0  0  0  0  0  0  0  0  0
   45.5804   72.4555   61.5153 H   0  0  0  0  0  0  0  0  0  0  0  0
   41.2873   72.6727   61.9310 H   0  0  0  0  0  0  0  0  0  0  0  0
   40.0783   70.0492   62.0249 H   0  0  0  0  0  0  0  0  0  0  0  0
   41.0309   67.6339   61.9119 H   0  0  0  0  0  0  0  0  0  0  0  0
   45.4450   69.9402   61.5048 H   0  0  0  0  0  0  0  0  0  0  0  0
  2  1  2  0
  2  3  1  1
  4  2  1  0
  5  6  1  0
  5 10  2  0
  6  7  1  0
  7  4  1  0
  7  8  2  0
  9  8  1  0
  9 13  1  0
 10  9  1  0
 11 12  1  0
 12 17  2  0
 13 12  1  0
 13 14  2  0
 14 15  1  0
 15 16  2  0
 17 16  1  0
 18  2  1  0
 18 19  1  0
 19 20  1  0
 20 21  2  0
 22 21  1  0
 23 19  2  0
 23 22  1  0
 24 25  2  0
 25 22  1  0
 25 26  1  0
 27 26  2  0
 27 28  1  0
 29 28  1  0
 30 29  2  0
 31 30  1  0
 31 27  1  0
 32 24  1  0
 32 31  2  0
  3 33  1  0
  5 34  1  0
  6 35  1  0
  6 36  1  0
  9 37  1  1
 14 38  1  0
 15 39  1  0
 16 40  1  0
 17 41  1  0
 20 42  1  0
 21 43  1  0
 24 44  1  0
 26 45  1  0
 28 46  1  0
 29 47  1  0
 32 48  1  0
M  END
>  <Score>  (1) 
-7.07665

>  <Score_dual>  (1) 
-7.92

>  <Choices>  (1) 
[None, 9, ['7-18', 60], 15, ['10-2', 315], 27, ['22-13', 330], 34, ['34-14', 270]]

$$$$
