
     RDKit          3D

 52 57  0  0  1  0  0  0  0  0999 V2000
   38.4310   78.4120   56.8880 C   0  0  0  0  0  0  0  0  0  0  0  0
   38.8520   79.7180   56.8980 C   0  0  0  0  0  0  0  0  0  0  0  0
   38.5130   80.5920   55.8700 C   0  0  0  0  0  0  0  0  0  0  0  0
   37.7280   80.1300   54.8040 C   0  0  0  0  0  0  0  0  0  0  0  0
   37.2780   80.7510   53.6920 N   0  0  0  0  0  0  0  0  0  0  0  0
   36.5770   79.8430   52.9820 N   0  0  0  0  0  0  0  0  0  0  0  0
   36.5930   78.6750   53.6460 C   0  0  0  0  0  0  0  0  0  0  0  0
   37.3110   78.8120   54.8080 C   0  0  0  0  0  0  0  0  0  0  0  0
   37.6500   77.9530   55.8300 C   0  0  0  0  0  0  0  0  0  0  0  0
   39.8510   80.4870   58.1700 S   0  0  0  0  0  0  0  0  0  0  0  0
   40.8470   83.0030   58.2580 C   0  0  0  0  0  0  0  0  0  0  0  0
   40.7910   81.8650   57.5210 C   0  0  0  0  0  0  0  0  0  0  0  0
   41.3950   81.6520   56.2970 C   0  0  0  0  0  0  0  0  0  0  0  0
   42.1270   82.6800   55.7580 C   0  0  0  0  0  0  0  0  0  0  0  0
   42.1820   83.8470   56.5200 C   0  0  0  0  0  0  0  0  0  0  0  0
   41.5800   84.0190   57.7090 N   0  0  0  0  0  0  0  0  0  0  0  0
   39.4130   84.3130   59.8770 C   0  0  0  0  0  0  0  0  0  0  0  0
   40.1990   83.1880   59.5380 C   0  0  0  0  0  0  0  0  0  0  0  0
   40.3440   82.2090   60.5030 C   0  0  0  0  0  0  0  0  0  0  0  0
   39.7450   82.3480   61.7220 N   0  0  0  0  0  0  0  0  0  0  0  0
   38.9940   83.4610   61.9970 C   0  0  0  0  0  0  0  0  0  0  0  0
   38.8320   84.4400   61.0700 N   0  0  0  0  0  0  0  0  0  0  0  0
   37.2030   76.5560   55.9320 C   0  0  0  0  0  0  0  0  0  0  0  0
   38.1500   75.5860   55.3200 C   0  0  1  0  0  0  0  0  0  0  0  0
   37.5940   75.1780   53.9710 C   0  0  0  0  0  0  0  0  0  0  0  0
   38.6010   75.2840   52.9730 N   0  0  0  0  0  0  0  0  0  0  0  0
   39.4920   75.0180   51.8970 C   0  0  0  0  0  0  0  0  0  0  0  0
   39.5710   74.0860   51.0320 O   0  0  0  0  0  0  0  0  0  0  0  0
   40.3270   76.2240   52.1210 C   0  0  0  0  0  0  0  0  0  0  0  0
   39.2190   76.6160   53.0340 C   0  0  2  0  0  0  0  0  0  0  0  0
   39.6290   76.5680   54.8260 S   0  0  0  0  0  0  0  0  0  0  0  0
   38.5310   74.4260   56.1600 C   0  0  0  0  0  0  0  0  0  0  0  0
   38.7079   77.7335   57.7084 H   0  0  0  0  0  0  0  0  0  0  0  0
   38.8578   81.6363   55.8933 H   0  0  0  0  0  0  0  0  0  0  0  0
   37.4400   81.7349   53.4341 H   0  0  0  0  0  0  0  0  0  0  0  0
   36.1045   77.7487   53.3093 H   0  0  0  0  0  0  0  0  0  0  0  0
   41.2926   80.6907   55.7721 H   0  0  0  0  0  0  0  0  0  0  0  0
   42.6374   82.5896   54.7878 H   0  0  0  0  0  0  0  0  0  0  0  0
   42.7621   84.6903   56.1171 H   0  0  0  0  0  0  0  0  0  0  0  0
   39.2763   85.1102   59.1315 H   0  0  0  0  0  0  0  0  0  0  0  0
   40.9451   81.3133   60.2877 H   0  0  0  0  0  0  0  0  0  0  0  0
   38.5158   83.5627   62.9824 H   0  0  0  0  0  0  0  0  0  0  0  0
   37.0857   76.3044   56.9964 H   0  0  0  0  0  0  0  0  0  0  0  0
   36.2554   76.4773   55.3789 H   0  0  0  0  0  0  0  0  0  0  0  0
   37.2418   74.1372   54.0228 H   0  0  0  0  0  0  0  0  0  0  0  0
   36.7586   75.8444   53.7104 H   0  0  0  0  0  0  0  0  0  0  0  0
   41.2983   76.0443   52.6049 H   0  0  0  0  0  0  0  0  0  0  0  0
   40.7077   76.8636   51.3111 H   0  0  0  0  0  0  0  0  0  0  0  0
   38.7744   77.5881   52.7743 H   0  0  0  0  0  0  0  0  0  0  0  0
   38.4418   74.6975   57.2222 H   0  0  0  0  0  0  0  0  0  0  0  0
   37.8637   73.5795   55.9406 H   0  0  0  0  0  0  0  0  0  0  0  0
   39.5703   74.1400   55.9406 H   0  0  0  0  0  0  0  0  0  0  0  0
  1  2  2  0
  2 10  1  0
  3  2  1  0
  4  8  1  0
  4  3  2  0
  5  4  1  0
  6  7  2  0
  6  5  1  0
  7  8  1  0
  8  9  2  0
  9 23  1  0
  9  1  1  0
 11 18  1  0
 12 10  1  0
 12 11  1  0
 13 12  2  0
 14 13  1  0
 14 15  2  0
 15 16  1  0
 16 11  2  0
 17 22  2  0
 18 17  1  0
 18 19  2  0
 19 20  1  0
 20 21  2  0
 22 21  1  0
 24 23  1  1
 24 32  1  0
 25 24  1  0
 26 30  1  0
 26 25  1  0
 27 29  1  0
 27 26  1  0
 28 27  2  0
 30 29  1  0
 30 31  1  0
 31 24  1  0
  1 33  1  0
  3 34  1  0
  5 35  1  0
  7 36  1  0
 13 37  1  0
 14 38  1  0
 15 39  1  0
 17 40  1  0
 19 41  1  0
 21 42  1  0
 23 43  1  0
 23 44  1  0
 25 45  1  0
 25 46  1  0
 29 47  1  0
 29 48  1  0
 30 49  1  6
 32 50  1  0
 32 51  1  0
 32 52  1  0
M  END
>  <Score>  (1) 
-7.52956

>  <Score_dual>  (1) 
-7.22

>  <Choices>  (1) 
[None, 7, ['6-18', 150], 15, ['17-16', 0], 19, ['54-19', 0], 32, ['53-12', 150]]

$$$$
