
     RDKit          3D

 49 53  0  0  1  0  0  0  0  0999 V2000
   43.1440   83.4570   62.7630 C   0  0  0  0  0  0  0  0  0  0  0  0
   43.8970   84.4850   62.1390 C   0  0  0  0  0  0  0  0  0  0  0  0
   45.0560   84.1080   61.4360 C   0  0  0  0  0  0  0  0  0  0  0  0
   45.3920   82.8040   61.3880 N   0  0  0  0  0  0  0  0  0  0  0  0
   44.6540   81.8470   61.9920 C   0  0  0  0  0  0  0  0  0  0  0  0
   43.5400   82.1670   62.6740 N   0  0  0  0  0  0  0  0  0  0  0  0
   41.9420   83.7920   63.4990 C   0  0  0  0  0  0  0  0  0  0  0  0
   40.6670   83.6390   63.0920 C   0  0  0  0  0  0  0  0  0  0  0  0
   39.8320   84.0720   64.0740 N   0  0  0  0  0  0  0  0  0  0  0  0
   40.6310   84.4960   65.0970 C   0  0  0  0  0  0  0  0  0  0  0  0
   41.9210   84.3250   64.7470 N   0  0  0  0  0  0  0  0  0  0  0  0
   40.1400   83.1280   61.8760 C   0  0  0  0  0  0  0  0  0  0  0  0
   39.4890   82.0610   61.7560 O   0  0  0  0  0  0  0  0  0  0  0  0
   40.1210   83.5320   60.5050 N   0  0  0  0  0  0  0  0  0  0  0  0
   39.4890   84.7930   60.4260 C   0  0  0  0  0  0  0  0  0  0  0  0
   39.5030   85.1960   58.9830 C   0  0  0  0  0  0  0  0  0  0  0  0
   40.4730   84.3000   58.3090 C   0  0  0  0  0  0  0  0  0  0  0  0
   40.5440   83.0640   59.1590 C   0  0  2  0  0  0  0  0  0  0  0  0
   39.6830   82.0650   58.7300 O   0  0  0  0  0  0  0  0  0  0  0  0
   44.9670   80.4330   61.9810 C   0  0  0  0  0  0  0  0  0  0  0  0
   44.6900   79.3070   61.2400 C   0  0  0  0  0  0  0  0  0  0  0  0
   45.3260   78.2610   61.8010 N   0  0  0  0  0  0  0  0  0  0  0  0
   46.0010   78.6980   62.8810 C   0  0  0  0  0  0  0  0  0  0  0  0
   45.7830   80.0320   62.9950 N   0  0  0  0  0  0  0  0  0  0  0  0
   44.5850   76.4040   64.1210 Cl  0  0  0  0  0  0  0  0  0  0  0  0
   46.2760   76.7890   64.4170 C   0  0  0  0  0  0  0  0  0  0  0  0
   46.8300   77.8830   63.7830 C   0  0  0  0  0  0  0  0  0  0  0  0
   48.1490   78.2390   63.9710 C   0  0  0  0  0  0  0  0  0  0  0  0
   48.9290   77.4580   64.8310 C   0  0  0  0  0  0  0  0  0  0  0  0
   48.3590   76.3580   65.4640 C   0  0  0  0  0  0  0  0  0  0  0  0
   49.4010   75.4420   66.5170 Cl  0  0  0  0  0  0  0  0  0  0  0  0
   47.0380   76.0100   65.2690 C   0  0  0  0  0  0  0  0  0  0  0  0
   43.5860   85.5382   62.2025 H   0  0  0  0  0  0  0  0  0  0  0  0
   45.6771   84.8647   60.9343 H   0  0  0  0  0  0  0  0  0  0  0  0
   38.8023   84.0788   64.0508 H   0  0  0  0  0  0  0  0  0  0  0  0
   40.2783   84.9105   66.0530 H   0  0  0  0  0  0  0  0  0  0  0  0
   38.4530   84.7205   60.7887 H   0  0  0  0  0  0  0  0  0  0  0  0
   40.0112   85.5352   61.0476 H   0  0  0  0  0  0  0  0  0  0  0  0
   38.5021   85.0728   58.5436 H   0  0  0  0  0  0  0  0  0  0  0  0
   39.7871   86.2522   58.8661 H   0  0  0  0  0  0  0  0  0  0  0  0
   40.1240   84.0494   57.2964 H   0  0  0  0  0  0  0  0  0  0  0  0
   41.4588   84.7762   58.2023 H   0  0  0  0  0  0  0  0  0  0  0  0
   41.5511   82.6226   59.1271 H   0  0  0  0  0  0  0  0  0  0  0  0
   39.2896   81.6086   59.5155 H   0  0  0  0  0  0  0  0  0  0  0  0
   44.0564   79.2680   60.3416 H   0  0  0  0  0  0  0  0  0  0  0  0
   45.3004   77.2891   61.4608 H   0  0  0  0  0  0  0  0  0  0  0  0
   48.5765   79.1135   63.4586 H   0  0  0  0  0  0  0  0  0  0  0  0
   49.9850   77.7119   65.0053 H   0  0  0  0  0  0  0  0  0  0  0  0
   46.6028   75.1369   65.7772 H   0  0  0  0  0  0  0  0  0  0  0  0
  1  7  1  0
  2  1  2  0
  3  2  1  0
  4  3  2  0
  4  5  1  0
  5  6  2  0
  6  1  1  0
  7 11  1  0
  8  7  2  0
  8  9  1  0
  9 10  1  0
 11 10  2  0
 12  8  1  0
 13 12  2  0
 14 12  1  0
 15 14  1  0
 16 15  1  0
 17 16  1  0
 17 18  1  0
 18 14  1  0
 19 18  1  0
 20  5  1  0
 20 24  1  0
 21 22  1  0
 21 20  2  0
 22 23  1  0
 23 24  2  0
 23 27  1  0
 25 26  1  0
 26 32  2  0
 27 28  2  0
 27 26  1  0
 28 29  1  0
 29 30  2  0
 30 31  1  0
 32 30  1  0
  2 33  1  0
  3 34  1  0
  9 35  1  0
 10 36  1  0
 15 37  1  0
 15 38  1  0
 16 39  1  0
 16 40  1  0
 17 41  1  0
 17 42  1  0
 18 43  1  1
 19 44  1  0
 21 45  1  0
 22 46  1  0
 28 47  1  0
 29 48  1  0
 32 49  1  0
M  END
>  <Score>  (1) 
-7.22226

>  <Score_dual>  (1) 
-7.94

>  <Choices>  (1) 
[None, 6, ['23-9', 180], 14, ['5-8', 345], 18, ['13-1', 120], 30, ['2-1', 330], 31, ['23-6', 210], 38, ['29-18', 165]]

$$$$
