
     RDKit          3D

 40 43  0  0  0  0  0  0  0  0999 V2000
   41.8940   78.4690   62.6050 Cl  0  0  0  0  0  0  0  0  0  0  0  0
   43.3940   79.2940   62.2540 C   0  0  0  0  0  0  0  0  0  0  0  0
   43.3640   80.5900   61.8140 C   0  0  0  0  0  0  0  0  0  0  0  0
   44.5720   81.1530   61.5660 C   0  0  0  0  0  0  0  0  0  0  0  0
   45.7720   80.5110   61.7290 C   0  0  0  0  0  0  0  0  0  0  0  0
   45.7890   79.2000   62.1750 C   0  0  0  0  0  0  0  0  0  0  0  0
   44.5840   78.5970   62.4370 C   0  0  0  0  0  0  0  0  0  0  0  0
   39.9250   81.4740   60.6900 C   0  0  0  0  0  0  0  0  0  0  0  0
   41.1180   80.7530   60.7740 C   0  0  0  0  0  0  0  0  0  0  0  0
   42.0850   81.2570   61.6450 C   0  0  0  0  0  0  0  0  0  0  0  0
   41.8010   82.3900   62.3360 N   0  0  0  0  0  0  0  0  0  0  0  0
   40.6300   83.0560   62.2240 C   0  0  0  0  0  0  0  0  0  0  0  0
   39.6800   82.5800   61.3810 N   0  0  0  0  0  0  0  0  0  0  0  0
   40.3730   84.0880   64.4290 C   0  0  0  0  0  0  0  0  0  0  0  0
   40.2910   82.9180   64.8870 O   0  0  0  0  0  0  0  0  0  0  0  0
   40.5510   84.1960   63.0260 N   0  0  0  0  0  0  0  0  0  0  0  0
   40.2960   85.2480   65.2110 N   0  0  0  0  0  0  0  0  0  0  0  0
   45.4200   76.7900   63.9620 C   0  0  0  0  0  0  0  0  0  0  0  0
   44.6440   77.2120   62.9070 C   0  0  0  0  0  0  0  0  0  0  0  0
   43.8850   76.2510   62.2690 C   0  0  0  0  0  0  0  0  0  0  0  0
   43.9120   74.9390   62.6800 C   0  0  0  0  0  0  0  0  0  0  0  0
   43.2910   73.8300   62.2500 N   0  0  0  0  0  0  0  0  0  0  0  0
   43.6890   72.7930   63.0270 C   0  0  0  0  0  0  0  0  0  0  0  0
   44.5480   73.1990   63.9450 N   0  0  0  0  0  0  0  0  0  0  0  0
   44.6930   74.5250   63.7370 C   0  0  0  0  0  0  0  0  0  0  0  0
   45.4670   75.4790   64.3950 C   0  0  0  0  0  0  0  0  0  0  0  0
   46.2660   75.1040   65.4660 O   0  0  0  0  0  0  0  0  0  0  0  0
   44.5904   82.1938   61.2105 H   0  0  0  0  0  0  0  0  0  0  0  0
   46.7144   81.0332   61.5072 H   0  0  0  0  0  0  0  0  0  0  0  0
   46.7369   78.6597   62.3147 H   0  0  0  0  0  0  0  0  0  0  0  0
   39.1426   81.1034   60.0113 H   0  0  0  0  0  0  0  0  0  0  0  0
   41.2862   79.8385   60.1862 H   0  0  0  0  0  0  0  0  0  0  0  0
   40.6229   85.1278   62.5931 H   0  0  0  0  0  0  0  0  0  0  0  0
   40.3713   86.1743   64.7670 H   0  0  0  0  0  0  0  0  0  0  0  0
   40.1641   85.1744   66.2299 H   0  0  0  0  0  0  0  0  0  0  0  0
   46.0349   77.5352   64.4879 H   0  0  0  0  0  0  0  0  0  0  0  0
   43.2491   76.5393   61.4190 H   0  0  0  0  0  0  0  0  0  0  0  0
   42.6265   73.7760   61.4649 H   0  0  0  0  0  0  0  0  0  0  0  0
   43.3439   71.7552   62.9093 H   0  0  0  0  0  0  0  0  0  0  0  0
   46.2862   74.1594   65.7616 H   0  0  0  0  0  0  0  0  0  0  0  0
  2  7  2  0
  2  1  1  0
  3  2  1  0
  4  5  1  0
  4  3  2  0
  5  6  2  0
  6  7  1  0
  7 19  1  0
  8  9  2  0
  8 13  1  0
  9 10  1  0
 10  3  1  0
 10 11  2  0
 12 11  1  0
 12 16  1  0
 13 12  2  0
 14 15  2  0
 14 17  1  0
 16 14  1  0
 18 26  2  0
 19 18  1  0
 20 21  1  0
 20 19  2  0
 21 25  2  0
 22 21  1  0
 22 23  1  0
 23 24  2  0
 25 24  1  0
 25 26  1  0
 26 27  1  0
  4 28  1  0
  5 29  1  0
  6 30  1  0
  8 31  1  0
  9 32  1  0
 16 33  1  0
 17 34  1  0
 17 35  1  0
 18 36  1  0
 20 37  1  0
 22 38  1  0
 23 39  1  0
 27 40  1  0
M  END
>  <Score>  (1) 
-7.54

>  <Score_dual>  (1) 
-7.67

>  <Choices>  (1) 
[None, 9, ['12-5', 195], 12, ['0-20', 0], 12, ['7-17', 150], 25, ['34-21', 120], 38, ['2-1', 0]]

$$$$
