
     RDKit          3D

 45 49  0  0  0  0  0  0  0  0999 V2000
   40.3240   79.0970   60.7830 C   0  0  0  0  0  0  0  0  0  0  0  0
   40.4330   80.4260   60.5160 C   0  0  0  0  0  0  0  0  0  0  0  0
   40.4790   80.8620   59.1760 C   0  0  0  0  0  0  0  0  0  0  0  0
   40.4120   79.9450   58.1280 C   0  0  0  0  0  0  0  0  0  0  0  0
   40.3030   78.6130   58.4850 C   0  0  0  0  0  0  0  0  0  0  0  0
   40.2560   78.1590   59.7900 C   0  0  0  0  0  0  0  0  0  0  0  0
   39.4690   82.3490   61.8670 C   0  0  0  0  0  0  0  0  0  0  0  0
   40.5160   81.5430   61.4670 C   0  0  0  0  0  0  0  0  0  0  0  0
   41.7990   81.7920   62.0060 C   0  0  0  0  0  0  0  0  0  0  0  0
   41.9250   82.8250   62.9000 N   0  0  0  0  0  0  0  0  0  0  0  0
   40.8870   83.5750   63.2550 C   0  0  0  0  0  0  0  0  0  0  0  0
   39.6830   83.3380   62.7470 N   0  0  0  0  0  0  0  0  0  0  0  0
   42.9040   80.9980   61.6320 N   0  0  0  0  0  0  0  0  0  0  0  0
   40.1400   76.7480   60.1360 C   0  0  0  0  0  0  0  0  0  0  0  0
   38.9470   76.0710   60.2700 C   0  0  0  0  0  0  0  0  0  0  0  0
   39.2850   74.7870   60.5980 N   0  0  0  0  0  0  0  0  0  0  0  0
   40.6200   74.6750   60.6650 C   0  0  0  0  0  0  0  0  0  0  0  0
   41.1300   75.8850   60.3790 N   0  0  0  0  0  0  0  0  0  0  0  0
   41.3740   73.4650   60.9870 C   0  0  0  0  0  0  0  0  0  0  0  0
   42.6120   73.6240   61.6210 C   0  0  0  0  0  0  0  0  0  0  0  0
   43.2660   72.4510   61.8940 C   0  0  0  0  0  0  0  0  0  0  0  0
   42.8280   71.1790   61.6100 C   0  0  0  0  0  0  0  0  0  0  0  0
   43.5440   70.0820   61.9180 N   0  0  0  0  0  0  0  0  0  0  0  0
   43.0190   68.8860   61.5940 C   0  0  0  0  0  0  0  0  0  0  0  0
   41.8210   68.7030   60.9790 C   0  0  0  0  0  0  0  0  0  0  0  0
   41.1090   69.8530   60.6750 C   0  0  0  0  0  0  0  0  0  0  0  0
   41.5980   71.1040   60.9840 C   0  0  0  0  0  0  0  0  0  0  0  0
   40.8510   72.2300   60.6620 C   0  0  0  0  0  0  0  0  0  0  0  0
   40.2720   78.4870   63.3180 N   0  0  0  0  0  0  0  0  0  0  0  0
   40.2880   78.7710   62.1680 C   0  0  0  0  0  0  0  0  0  0  0  0
   40.5686   81.9359   58.9553 H   0  0  0  0  0  0  0  0  0  0  0  0
   40.4440   80.2631   57.0755 H   0  0  0  0  0  0  0  0  0  0  0  0
   40.2503   77.8668   57.6785 H   0  0  0  0  0  0  0  0  0  0  0  0
   38.4595   82.1800   61.4640 H   0  0  0  0  0  0  0  0  0  0  0  0
   41.0257   84.3964   63.9734 H   0  0  0  0  0  0  0  0  0  0  0  0
   43.8340   81.1889   62.0314 H   0  0  0  0  0  0  0  0  0  0  0  0
   42.7805   80.2275   60.9596 H   0  0  0  0  0  0  0  0  0  0  0  0
   37.9336   76.4787   60.1401 H   0  0  0  0  0  0  0  0  0  0  0  0
   38.6162   74.0223   60.7678 H   0  0  0  0  0  0  0  0  0  0  0  0
   43.0260   74.6099   61.8790 H   0  0  0  0  0  0  0  0  0  0  0  0
   44.2430   72.5360   62.3922 H   0  0  0  0  0  0  0  0  0  0  0  0
   43.6036   67.9889   61.8459 H   0  0  0  0  0  0  0  0  0  0  0  0
   41.4385   67.7006   60.7365 H   0  0  0  0  0  0  0  0  0  0  0  0
   40.1325   69.7651   60.1763 H   0  0  0  0  0  0  0  0  0  0  0  0
   39.8743   72.1402   60.1641 H   0  0  0  0  0  0  0  0  0  0  0  0
  1 30  1  0
  2  1  2  0
  2  8  1  0
  3  2  1  0
  4  5  1  0
  4  3  2  0
  5  6  2  0
  6 14  1  0
  6  1  1  0
  7 12  2  0
  8  7  1  0
  8  9  2  0
  9 10  1  0
 10 11  2  0
 12 11  1  0
 13  9  1  0
 14 15  2  0
 14 18  1  0
 15 16  1  0
 16 17  1  0
 17 19  1  0
 18 17  2  0
 19 20  2  0
 20 21  1  0
 22 21  2  0
 22 23  1  0
 24 23  2  0
 25 24  1  0
 26 25  2  0
 26 27  1  0
 27 22  1  0
 28 27  2  0
 28 19  1  0
 30 29  3  0
  3 31  1  0
  4 32  1  0
  5 33  1  0
  7 34  1  0
 11 35  1  0
 13 36  1  0
 13 37  1  0
 15 38  1  0
 16 39  1  0
 20 40  1  0
 21 41  1  0
 24 42  1  0
 25 43  1  0
 26 44  1  0
 28 45  1  0
M  END
>  <Score>  (1) 
-7.29884

>  <Score_dual>  (1) 
-8.2

>  <Choices>  (1) 
[None, 8, ['0-3', 0], 8, ['40-21', 255], 20, ['23-6', 0], 29, ['36-26', 150]]

$$$$
