
     RDKit          3D

 52 56  0  0  0  0  0  0  0  0999 V2000
   40.7940   83.8100   60.5340 C   0  0  0  0  0  0  0  0  0  0  0  0
   41.0000   82.4270   60.6370 C   0  0  0  0  0  0  0  0  0  0  0  0
   40.1420   81.6270   61.3900 C   0  0  0  0  0  0  0  0  0  0  0  0
   39.1030   82.2410   62.0150 N   0  0  0  0  0  0  0  0  0  0  0  0
   38.8880   83.5680   61.9290 C   0  0  0  0  0  0  0  0  0  0  0  0
   39.7170   84.3310   61.2040 N   0  0  0  0  0  0  0  0  0  0  0  0
   41.5360   84.7830   59.8180 C   0  0  0  0  0  0  0  0  0  0  0  0
   40.9740   85.2400   58.6120 C   0  0  0  0  0  0  0  0  0  0  0  0
   41.5550   86.1880   57.7770 C   0  0  0  0  0  0  0  0  0  0  0  0
   42.7610   86.7250   58.1420 C   0  0  0  0  0  0  0  0  0  0  0  0
   43.3400   86.3170   59.2950 C   0  0  0  0  0  0  0  0  0  0  0  0
   44.5680   86.8510   59.6870 C   0  0  0  0  0  0  0  0  0  0  0  0
   45.2360   86.4990   60.8390 C   0  0  0  0  0  0  0  0  0  0  0  0
   44.5650   85.5400   61.6040 C   0  0  0  0  0  0  0  0  0  0  0  0
   43.3670   85.0070   61.2400 C   0  0  0  0  0  0  0  0  0  0  0  0
   42.7450   85.3850   60.0900 C   0  0  0  0  0  0  0  0  0  0  0  0
   40.4010   80.2360   61.4550 C   0  0  0  0  0  0  0  0  0  0  0  0
   40.7680   79.6020   62.4810 O   0  0  0  0  0  0  0  0  0  0  0  0
   40.0190   77.5840   61.9780 F   0  0  0  0  0  0  0  0  0  0  0  0
   40.0740   78.0320   60.6820 C   0  0  0  0  0  0  0  0  0  0  0  0
   40.2650   79.3540   60.2890 C   0  0  0  0  0  0  0  0  0  0  0  0
   40.3010   79.6660   58.9670 C   0  0  0  0  0  0  0  0  0  0  0  0
   40.1490   78.6790   58.0210 C   0  0  0  0  0  0  0  0  0  0  0  0
   39.9580   77.3550   58.4110 C   0  0  0  0  0  0  0  0  0  0  0  0
   39.9200   77.0280   59.7520 C   0  0  0  0  0  0  0  0  0  0  0  0
   39.8020   76.3520   57.4000 N   0  0  0  0  0  0  0  0  0  0  0  0
   40.8630   75.6310   56.6840 C   0  0  0  0  0  0  0  0  0  0  0  0
   40.4580   74.1850   56.9910 C   0  0  0  0  0  0  0  0  0  0  0  0
   38.9320   74.2680   57.0110 C   0  0  0  0  0  0  0  0  0  0  0  0
   38.6200   75.7420   56.7740 C   0  0  0  0  0  0  0  0  0  0  0  0
   39.7280   75.6630   60.0800 N   0  0  0  0  0  0  0  0  0  0  0  0
   41.8519   81.9661   60.1155 H   0  0  0  0  0  0  0  0  0  0  0  0
   38.0345   84.0237   62.4523 H   0  0  0  0  0  0  0  0  0  0  0  0
   40.0053   84.8170   58.3077 H   0  0  0  0  0  0  0  0  0  0  0  0
   41.0583   86.4990   56.8461 H   0  0  0  0  0  0  0  0  0  0  0  0
   43.2519   87.4772   57.5069 H   0  0  0  0  0  0  0  0  0  0  0  0
   45.0335   87.6029   59.0327 H   0  0  0  0  0  0  0  0  0  0  0  0
   46.2050   86.9311   61.1295 H   0  0  0  0  0  0  0  0  0  0  0  0
   45.0267   85.2009   62.5431 H   0  0  0  0  0  0  0  0  0  0  0  0
   42.8919   84.2558   61.8881 H   0  0  0  0  0  0  0  0  0  0  0  0
   40.4519   80.7093   58.6528 H   0  0  0  0  0  0  0  0  0  0  0  0
   40.1784   78.9361   56.9519 H   0  0  0  0  0  0  0  0  0  0  0  0
   41.8597   75.8692   57.0839 H   0  0  0  0  0  0  0  0  0  0  0  0
   40.9449   75.8714   55.6137 H   0  0  0  0  0  0  0  0  0  0  0  0
   40.8088   73.4985   56.2064 H   0  0  0  0  0  0  0  0  0  0  0  0
   40.8891   73.7972   57.9258 H   0  0  0  0  0  0  0  0  0  0  0  0
   38.4995   73.6469   56.2128 H   0  0  0  0  0  0  0  0  0  0  0  0
   38.5081   73.9003   57.9571 H   0  0  0  0  0  0  0  0  0  0  0  0
   38.5566   75.9794   55.7018 H   0  0  0  0  0  0  0  0  0  0  0  0
   37.6537   76.0831   57.1739 H   0  0  0  0  0  0  0  0  0  0  0  0
   39.6927   75.3705   61.0670 H   0  0  0  0  0  0  0  0  0  0  0  0
   39.6238   74.9632   59.3315 H   0  0  0  0  0  0  0  0  0  0  0  0
  1  2  2  0
  1  6  1  0
  2  3  1  0
  3 17  1  0
  3  4  2  0
  5  4  1  0
  6  5  2  0
  7 16  1  0
  7  1  1  0
  8  7  2  0
  9 10  2  0
  9  8  1  0
 10 11  1  0
 11 12  1  0
 11 16  2  0
 12 13  2  0
 13 14  1  0
 15 14  2  0
 16 15  1  0
 17 18  2  0
 20 19  1  0
 21 20  2  0
 21 17  1  0
 22 21  1  0
 23 24  1  0
 23 22  2  0
 24 25  2  0
 25 31  1  0
 25 20  1  0
 26 24  1  0
 27 28  1  0
 27 26  1  0
 28 29  1  0
 30 29  1  0
 30 26  1  0
  2 32  1  0
  5 33  1  0
  8 34  1  0
  9 35  1  0
 10 36  1  0
 12 37  1  0
 13 38  1  0
 14 39  1  0
 15 40  1  0
 22 41  1  0
 23 42  1  0
 27 43  1  0
 27 44  1  0
 28 45  1  0
 28 46  1  0
 29 47  1  0
 29 48  1  0
 30 49  1  0
 30 50  1  0
 31 51  1  0
 31 52  1  0
M  END
>  <Score>  (1) 
-7.11138

>  <Score_dual>  (1) 
-8.1

>  <Choices>  (1) 
[None, 8, ['5-9', 180], 8, ['26-25', 345], 27, ['9-4', 240], 37, ['0-3', 0], 37, ['13-6', 225]]

$$$$
