
     RDKit          3D

 51 56  0  0  1  0  0  0  0  0999 V2000
   40.9110   80.0940   61.5760 C   0  0  1  0  0  0  0  0  0  0  0  0
   42.1040   79.0560   61.9040 C   0  0  0  0  0  0  0  0  0  0  0  0
   40.6370   78.6670   61.8550 C   0  0  2  0  0  0  0  0  0  0  0  0
   40.3930   77.6650   60.8120 C   0  0  0  0  0  0  0  0  0  0  0  0
   39.7800   78.0060   59.5950 C   0  0  0  0  0  0  0  0  0  0  0  0
   39.6960   76.8600   58.8420 C   0  0  0  0  0  0  0  0  0  0  0  0
   40.2400   75.8720   59.5900 N   0  0  0  0  0  0  0  0  0  0  0  0
   40.6470   76.3850   60.7610 N   0  0  0  0  0  0  0  0  0  0  0  0
   40.2700   74.5630   59.0160 C   0  0  0  0  0  0  0  0  0  0  0  0
   39.9140   74.3930   57.7120 N   0  0  0  0  0  0  0  0  0  0  0  0
   39.9210   73.1810   57.1120 C   0  0  0  0  0  0  0  0  0  0  0  0
   40.2840   72.0810   57.7830 N   0  0  0  0  0  0  0  0  0  0  0  0
   40.6460   72.1920   59.0790 C   0  0  0  0  0  0  0  0  0  0  0  0
   41.0120   71.0410   59.7360 C   0  0  0  0  0  0  0  0  0  0  0  0
   41.3880   71.1320   61.0670 C   0  0  0  0  0  0  0  0  0  0  0  0
   41.3740   72.3860   61.6680 C   0  0  0  0  0  0  0  0  0  0  0  0
   41.0070   73.5310   61.0030 C   0  0  0  0  0  0  0  0  0  0  0  0
   40.6410   73.4200   59.6950 C   0  0  0  0  0  0  0  0  0  0  0  0
   40.9710   80.9540   62.4820 O   0  0  0  0  0  0  0  0  0  0  0  0
   41.5630   83.1830   62.1650 C   0  0  1  0  0  0  0  0  0  0  0  0
   42.1490   83.4820   60.8560 C   0  0  1  0  0  0  0  0  0  0  0  0
   40.9350   83.4300   60.1230 O   0  0  0  0  0  0  0  0  0  0  0  0
   40.8030   82.0370   60.2810 C   0  0  0  0  0  0  0  0  0  0  0  0
   40.5080   82.2280   61.9830 C   0  0  1  0  0  0  0  0  0  0  0  0
   44.1320   86.4430   61.6650 C   0  0  0  0  0  0  0  0  0  0  0  0
   44.1350   87.1680   60.4480 C   0  0  0  0  0  0  0  0  0  0  0  0
   43.4420   86.6330   59.3570 C   0  0  0  0  0  0  0  0  0  0  0  0
   42.8120   85.4530   59.5360 N   0  0  0  0  0  0  0  0  0  0  0  0
   42.8360   84.7920   60.7200 C   0  0  0  0  0  0  0  0  0  0  0  0
   43.4890   85.2730   61.7890 N   0  0  0  0  0  0  0  0  0  0  0  0
   42.6660   82.5410   62.9120 O   0  0  0  0  0  0  0  0  0  0  0  0
   40.4886   80.7398   60.7921 H   0  0  0  0  0  0  0  0  0  0  0  0
   42.7964   78.7306   61.1136 H   0  0  0  0  0  0  0  0  0  0  0  0
   42.9253   78.9867   62.6325 H   0  0  0  0  0  0  0  0  0  0  0  0
   39.8731   78.2501   62.5278 H   0  0  0  0  0  0  0  0  0  0  0  0
   39.4314   79.0065   59.2993 H   0  0  0  0  0  0  0  0  0  0  0  0
   39.2711   76.7644   57.8319 H   0  0  0  0  0  0  0  0  0  0  0  0
   39.6238   73.0978   56.0562 H   0  0  0  0  0  0  0  0  0  0  0  0
   41.0066   70.0708   59.2176 H   0  0  0  0  0  0  0  0  0  0  0  0
   41.6890   70.2375   61.6320 H   0  0  0  0  0  0  0  0  0  0  0  0
   41.6704   72.4649   62.7244 H   0  0  0  0  0  0  0  0  0  0  0  0
   41.0086   74.5069   61.5106 H   0  0  0  0  0  0  0  0  0  0  0  0
   41.1569   84.0692   62.6747 H   0  0  0  0  0  0  0  0  0  0  0  0
   42.9727   82.8160   60.5595 H   0  0  0  0  0  0  0  0  0  0  0  0
   39.9561   81.6045   59.7281 H   0  0  0  0  0  0  0  0  0  0  0  0
   41.6048   81.3679   59.9355 H   0  0  0  0  0  0  0  0  0  0  0  0
   39.5210   82.4907   62.3913 H   0  0  0  0  0  0  0  0  0  0  0  0
   44.6720   86.8511   62.5321 H   0  0  0  0  0  0  0  0  0  0  0  0
   44.6682   88.1264   60.3631 H   0  0  0  0  0  0  0  0  0  0  0  0
   43.4117   87.1547   58.3891 H   0  0  0  0  0  0  0  0  0  0  0  0
   42.5046   82.6349   63.8842 H   0  0  0  0  0  0  0  0  0  0  0  0
  1  3  1  0
  1  2  1  0
  1 19  1  0
  3  2  1  0
  4  3  1  0
  5  4  1  0
  6  7  1  0
  6  5  2  0
  7  8  1  0
  8  4  2  0
  9  7  1  0
  9 18  1  0
 10  9  2  0
 11 10  1  0
 11 12  2  0
 12 13  1  0
 13 18  2  0
 13 14  1  0
 14 15  2  0
 15 16  1  0
 17 16  2  0
 18 17  1  0
 20 31  1  0
 21 20  1  0
 22 23  1  0
 22 21  1  0
 23 24  1  0
 24 20  1  0
 24 19  1  0
 25 30  2  0
 26 25  1  0
 27 28  1  0
 27 26  2  0
 28 29  2  0
 29 21  1  0
 29 30  1  0
  1 32  1  6
  2 33  1  0
  2 34  1  0
  3 35  1  1
  5 36  1  0
  6 37  1  0
 11 38  1  0
 14 39  1  0
 15 40  1  0
 16 41  1  0
 17 42  1  0
 20 43  1  1
 21 44  1  6
 23 45  1  0
 23 46  1  0
 24 47  1  6
 25 48  1  0
 26 49  1  0
 27 50  1  0
 31 51  1  0
M  END
>  <Score>  (1) 
-7.13965

>  <Score_dual>  (1) 
-8.44

>  <Choices>  (1) 
[None, 9, ['14-13', 255], 22, ['16-13', 255], 29, ['22-6', 15], 36, ['47-14', 60]]

$$$$
