
     RDKit          3D

 39 43  0  0  1  0  0  0  0  0999 V2000
   39.9580   76.3830   60.6660 C   0  0  0  0  0  0  0  0  0  0  0  0
   38.9060   75.8550   59.9500 C   0  0  0  0  0  0  0  0  0  0  0  0
   39.1220   74.4810   59.8790 C   0  0  0  0  0  0  0  0  0  0  0  0
   40.2730   74.2330   60.5430 N   0  0  0  0  0  0  0  0  0  0  0  0
   40.7550   75.3730   61.0030 N   0  0  0  0  0  0  0  0  0  0  0  0
   41.8560   72.5600   61.6030 N   0  0  0  0  0  0  0  0  0  0  0  0
   40.9010   72.9670   60.7400 C   0  0  0  0  0  0  0  0  0  0  0  0
   40.5540   71.9110   59.9770 N   0  0  0  0  0  0  0  0  0  0  0  0
   41.2650   70.8220   60.3290 C   0  0  0  0  0  0  0  0  0  0  0  0
   41.2590   69.5310   59.8420 C   0  0  1  0  0  0  0  0  0  0  0  0
   42.1240   68.6590   60.4350 N   0  0  0  0  0  0  0  0  0  0  0  0
   42.9280   69.0900   61.4490 C   0  0  0  0  0  0  0  0  0  0  0  0
   42.9330   70.3630   61.9300 N   0  0  0  0  0  0  0  0  0  0  0  0
   42.0790   71.2560   61.3540 C   0  0  0  0  0  0  0  0  0  0  0  0
   40.5720   80.4170   61.1030 C   0  0  0  0  0  0  0  0  0  0  0  0
   40.7410   79.7050   62.2100 C   0  0  0  0  0  0  0  0  0  0  0  0
   40.5690   78.3530   62.1970 C   0  0  0  0  0  0  0  0  0  0  0  0
   40.2230   77.7740   61.0300 C   0  0  0  0  0  0  0  0  0  0  0  0
   40.1230   79.1950   59.8390 S   0  0  0  0  0  0  0  0  0  0  0  0
   41.8930   83.7710   60.1460 C   0  0  0  0  0  0  0  0  0  0  0  0
   41.9040   82.3560   60.3470 C   0  0  0  0  0  0  0  0  0  0  0  0
   40.6990   81.8220   60.8490 C   0  0  0  0  0  0  0  0  0  0  0  0
   39.6210   82.6340   61.1120 N   0  0  0  0  0  0  0  0  0  0  0  0
   39.6880   83.9560   60.8960 C   0  0  0  0  0  0  0  0  0  0  0  0
   40.8070   84.5050   60.4210 N   0  0  0  0  0  0  0  0  0  0  0  0
   40.3820   69.1800   58.7770 N   0  0  0  0  0  0  0  0  0  0  0  0
   38.0603   76.4104   59.5185 H   0  0  0  0  0  0  0  0  0  0  0  0
   38.4800   73.7407   59.3792 H   0  0  0  0  0  0  0  0  0  0  0  0
   42.3246   73.1371   62.3159 H   0  0  0  0  0  0  0  0  0  0  0  0
   42.0362   69.8026   59.1125 H   0  0  0  0  0  0  0  0  0  0  0  0
   43.6153   68.3632   61.9066 H   0  0  0  0  0  0  0  0  0  0  0  0
   43.5581   70.6412   62.6999 H   0  0  0  0  0  0  0  0  0  0  0  0
   41.0222   80.2101   63.1458 H   0  0  0  0  0  0  0  0  0  0  0  0
   40.7080   77.7540   63.1090 H   0  0  0  0  0  0  0  0  0  0  0  0
   42.7946   84.2672   59.7576 H   0  0  0  0  0  0  0  0  0  0  0  0
   42.7832   81.7324   60.1274 H   0  0  0  0  0  0  0  0  0  0  0  0
   38.8158   84.5907   61.1116 H   0  0  0  0  0  0  0  0  0  0  0  0
   39.4960   68.8254   59.1645 H   0  0  0  0  0  0  0  0  0  0  0  0
   40.1952   70.0111   58.1980 H   0  0  0  0  0  0  0  0  0  0  0  0
  1  5  2  0
  1 18  1  0
  2  1  1  0
  3  2  2  0
  3  4  1  0
  4  7  1  0
  4  5  1  0
  7  6  1  0
  8  9  1  0
  8  7  2  0
  9 14  2  0
 10 26  1  0
 10  9  1  0
 10 11  1  0
 11 12  2  0
 12 13  1  0
 14  6  1  0
 14 13  1  0
 15 16  2  0
 17 16  1  0
 18 17  2  0
 19 18  1  0
 19 15  1  0
 20 21  2  0
 20 25  1  0
 21 22  1  0
 22 15  1  0
 22 23  2  0
 24 23  1  0
 25 24  2  0
  2 27  1  0
  3 28  1  0
  6 29  1  0
 10 30  1  6
 12 31  1  0
 13 32  1  0
 16 33  1  0
 17 34  1  0
 20 35  1  0
 21 36  1  0
 24 37  1  0
 26 38  1  0
 26 39  1  0
M  END
>  <Score>  (1) 
-7.09585

>  <Score_dual>  (1) 
-7.66

>  <Choices>  (1) 
[None, 8, ['25-21', 150], 16, ['22-8', 60], 23, ['28-18', 255]]

$$$$
