
     RDKit          3D

 49 52  0  0  1  0  0  0  0  0999 V2000
   39.0870   75.6550   59.3350 C   0  0  2  0  0  0  0  0  0  0  0  0
   40.2820   76.4980   58.9060 C   0  0  1  0  0  0  0  0  0  0  0  0
   40.0470   77.0790   57.7270 O   0  0  0  0  0  0  0  0  0  0  0  0
   39.1910   76.4260   56.8630 C   0  0  0  0  0  0  0  0  0  0  0  0
   39.2090   74.9390   56.9830 C   0  0  1  0  0  0  0  0  0  0  0  0
   39.1410   74.4210   58.3940 C   0  0  1  0  0  0  0  0  0  0  0  0
   39.5740   79.2300   58.8540 F   0  0  0  0  0  0  0  0  0  0  0  0
   40.3320   78.8020   59.8960 C   0  0  0  0  0  0  0  0  0  0  0  0
   40.6830   79.7110   60.8310 C   0  0  0  0  0  0  0  0  0  0  0  0
   41.4670   79.2300   61.8800 C   0  0  0  0  0  0  0  0  0  0  0  0
   41.8490   77.9120   61.9480 C   0  0  0  0  0  0  0  0  0  0  0  0
   41.4710   76.9970   60.9680 C   0  0  0  0  0  0  0  0  0  0  0  0
   40.7020   77.4620   59.9330 C   0  0  0  0  0  0  0  0  0  0  0  0
   40.1150   83.1640   59.4200 C   0  0  0  0  0  0  0  0  0  0  0  0
   40.5070   81.8280   59.5380 C   0  0  0  0  0  0  0  0  0  0  0  0
   40.2720   81.0900   60.7170 C   0  0  0  0  0  0  0  0  0  0  0  0
   39.6520   81.7400   61.7180 N   0  0  0  0  0  0  0  0  0  0  0  0
   39.2810   83.0310   61.5880 C   0  0  0  0  0  0  0  0  0  0  0  0
   39.5050   83.7360   60.4610 N   0  0  0  0  0  0  0  0  0  0  0  0
   37.9790   76.4020   59.1840 O   0  0  0  0  0  0  0  0  0  0  0  0
   38.0860   74.4510   56.2980 O   0  0  0  0  0  0  0  0  0  0  0  0
   40.3540   73.7960   58.6520 O   0  0  0  0  0  0  0  0  0  0  0  0
   40.6950   71.3060   58.5080 C   0  0  0  0  0  0  0  0  0  0  0  0
   40.6300   72.5470   59.0970 C   0  0  0  0  0  0  0  0  0  0  0  0
   40.9020   72.5970   60.4720 C   0  0  0  0  0  0  0  0  0  0  0  0
   41.2220   71.4440   61.2020 C   0  0  0  0  0  0  0  0  0  0  0  0
   41.2750   70.2210   60.5680 C   0  0  0  0  0  0  0  0  0  0  0  0
   41.0080   70.1720   59.2160 C   0  0  0  0  0  0  0  0  0  0  0  0
   40.4210   71.3220   57.1720 O   0  0  0  0  0  0  0  0  0  0  0  0
   41.0360   68.9860   58.4880 O   0  0  0  0  0  0  0  0  0  0  0  0
   39.0923   75.3255   60.3845 H   0  0  0  0  0  0  0  0  0  0  0  0
   41.1366   75.8164   58.7828 H   0  0  0  0  0  0  0  0  0  0  0  0
   39.4732   76.6913   55.8335 H   0  0  0  0  0  0  0  0  0  0  0  0
   38.1731   76.7495   57.1260 H   0  0  0  0  0  0  0  0  0  0  0  0
   40.1696   74.5979   56.5696 H   0  0  0  0  0  0  0  0  0  0  0  0
   38.2807   73.7504   58.5361 H   0  0  0  0  0  0  0  0  0  0  0  0
   41.7871   79.9229   62.6720 H   0  0  0  0  0  0  0  0  0  0  0  0
   42.4657   77.5725   62.7932 H   0  0  0  0  0  0  0  0  0  0  0  0
   41.7778   75.9421   61.0226 H   0  0  0  0  0  0  0  0  0  0  0  0
   40.3037   83.7289   58.4952 H   0  0  0  0  0  0  0  0  0  0  0  0
   41.0111   81.3399   58.6909 H   0  0  0  0  0  0  0  0  0  0  0  0
   38.7778   83.5257   62.4318 H   0  0  0  0  0  0  0  0  0  0  0  0
   37.6202   76.6439   60.0744 H   0  0  0  0  0  0  0  0  0  0  0  0
   37.4039   74.1546   56.9515 H   0  0  0  0  0  0  0  0  0  0  0  0
   40.8632   73.5661   60.9909 H   0  0  0  0  0  0  0  0  0  0  0  0
   41.4306   71.5149   62.2797 H   0  0  0  0  0  0  0  0  0  0  0  0
   41.5241   69.3068   61.1268 H   0  0  0  0  0  0  0  0  0  0  0  0
   40.4408   70.4795   56.6525 H   0  0  0  0  0  0  0  0  0  0  0  0
   41.2550   68.1328   58.9399 H   0  0  0  0  0  0  0  0  0  0  0  0
  2  1  1  0
  2 13  1  0
  3  2  1  0
  4  5  1  0
  4  3  1  0
  5  6  1  0
  6 22  1  0
  6  1  1  0
  7  8  1  0
  8 13  2  0
  8  9  1  0
  9 10  2  0
 10 11  1  0
 12 11  2  0
 13 12  1  0
 14 15  2  0
 14 19  1  0
 15 16  1  0
 16  9  1  0
 16 17  2  0
 18 17  1  0
 19 18  2  0
 20  1  1  0
 21  5  1  0
 22 24  1  0
 23 24  2  0
 23 28  1  0
 24 25  1  0
 25 26  2  0
 27 26  1  0
 28 27  2  0
 29 23  1  0
 30 28  1  0
  1 31  1  1
  2 32  1  6
  4 33  1  0
  4 34  1  0
  5 35  1  6
  6 36  1  6
 10 37  1  0
 11 38  1  0
 12 39  1  0
 14 40  1  0
 15 41  1  0
 18 42  1  0
 20 43  1  0
 21 44  1  0
 25 45  1  0
 26 46  1  0
 27 47  1  0
 29 48  1  0
 30 49  1  0
M  END
>  <Score>  (1) 
-7.82557

>  <Score_dual>  (1) 
-8.09

>  <Choices>  (1) 
[None, 8, ['9-19', 105], 19, ['21-23', 315], 36, ['35-19', 30]]

$$$$
