
     RDKit          3D

 44 48  0  0  0  0  0  0  0  0999 V2000
   40.4350   80.4590   55.0480 Cl  0  0  0  0  0  0  0  0  0  0  0  0
   40.6360   81.3200   56.5990 C   0  0  0  0  0  0  0  0  0  0  0  0
   39.9850   80.8280   57.7170 C   0  0  0  0  0  0  0  0  0  0  0  0
   40.1170   81.4670   58.9360 C   0  0  0  0  0  0  0  0  0  0  0  0
   40.9150   82.5990   58.9840 C   0  0  0  0  0  0  0  0  0  0  0  0
   41.5650   83.0990   57.8870 C   0  0  0  0  0  0  0  0  0  0  0  0
   41.4160   82.4440   56.6910 C   0  0  0  0  0  0  0  0  0  0  0  0
   41.0300   83.2480   60.2870 C   0  0  0  0  0  0  0  0  0  0  0  0
   42.1460   83.9690   60.7430 C   0  0  0  0  0  0  0  0  0  0  0  0
   41.8010   84.3780   61.9880 N   0  0  0  0  0  0  0  0  0  0  0  0
   40.5550   83.9450   62.2930 C   0  0  0  0  0  0  0  0  0  0  0  0
   40.1000   83.2570   61.2470 N   0  0  0  0  0  0  0  0  0  0  0  0
   40.4880   84.3090   64.7640 C   0  0  0  0  0  0  0  0  0  0  0  0
   41.7490   84.2380   64.8300 O   0  0  0  0  0  0  0  0  0  0  0  0
   39.8380   84.1670   63.5010 N   0  0  0  0  0  0  0  0  0  0  0  0
   37.3690   78.5380   56.5930 C   0  0  0  0  0  0  0  0  0  0  0  0
   37.6370   77.3470   57.3020 C   0  0  0  0  0  0  0  0  0  0  0  0
   38.7210   77.3670   58.1540 C   0  0  0  0  0  0  0  0  0  0  0  0
   39.4510   78.4920   58.2660 N   0  0  0  0  0  0  0  0  0  0  0  0
   39.1630   79.6210   57.5670 C   0  0  0  0  0  0  0  0  0  0  0  0
   38.1080   79.6530   56.7160 N   0  0  0  0  0  0  0  0  0  0  0  0
   38.1510   75.4600   59.5500 C   0  0  0  0  0  0  0  0  0  0  0  0
   39.1280   76.2240   58.9520 C   0  0  0  0  0  0  0  0  0  0  0  0
   40.4370   75.8500   59.1540 C   0  0  0  0  0  0  0  0  0  0  0  0
   40.7400   74.7360   59.9380 C   0  0  0  0  0  0  0  0  0  0  0  0
   41.9120   74.1720   60.2820 N   0  0  0  0  0  0  0  0  0  0  0  0
   41.6750   73.0900   61.0700 C   0  0  0  0  0  0  0  0  0  0  0  0
   40.3440   73.0200   61.1870 N   0  0  0  0  0  0  0  0  0  0  0  0
   39.7340   73.9960   60.5180 C   0  0  0  0  0  0  0  0  0  0  0  0
   38.4240   74.3410   60.3370 C   0  0  0  0  0  0  0  0  0  0  0  0
   39.6071   81.0905   59.8351 H   0  0  0  0  0  0  0  0  0  0  0  0
   42.1896   84.0013   57.9630 H   0  0  0  0  0  0  0  0  0  0  0  0
   41.9283   82.8249   55.7952 H   0  0  0  0  0  0  0  0  0  0  0  0
   43.0888   84.1590   60.2091 H   0  0  0  0  0  0  0  0  0  0  0  0
   42.4000   84.9373   62.6119 H   0  0  0  0  0  0  0  0  0  0  0  0
   39.8953   84.4793   65.6749 H   0  0  0  0  0  0  0  0  0  0  0  0
   38.8105   84.2276   63.4631 H   0  0  0  0  0  0  0  0  0  0  0  0
   36.5112   78.5538   55.9046 H   0  0  0  0  0  0  0  0  0  0  0  0
   37.0131   76.4492   57.1810 H   0  0  0  0  0  0  0  0  0  0  0  0
   37.0999   75.7471   59.3992 H   0  0  0  0  0  0  0  0  0  0  0  0
   41.2492   76.4326   58.6948 H   0  0  0  0  0  0  0  0  0  0  0  0
   42.8423   74.5072   59.9937 H   0  0  0  0  0  0  0  0  0  0  0  0
   42.4198   72.4150   61.5168 H   0  0  0  0  0  0  0  0  0  0  0  0
   37.6130   73.7566   60.7960 H   0  0  0  0  0  0  0  0  0  0  0  0
  1  2  1  0
  2  7  2  0
  2  3  1  0
  3  4  2  0
  4  5  1  0
  5  8  1  0
  6  5  2  0
  7  6  1  0
  8  9  2  0
  8 12  1  0
  9 10  1  0
 10 11  1  0
 11 15  1  0
 12 11  2  0
 13 14  2  0
 15 13  1  0
 16 21  2  0
 16 17  1  0
 17 18  2  0
 18 19  1  0
 18 23  1  0
 20  3  1  0
 20 19  2  0
 21 20  1  0
 22 30  2  0
 23 24  2  0
 23 22  1  0
 24 25  1  0
 25 26  1  0
 25 29  2  0
 26 27  1  0
 27 28  2  0
 29 28  1  0
 30 29  1  0
  4 31  1  0
  6 32  1  0
  7 33  1  0
  9 34  1  0
 10 35  1  0
 13 36  1  0
 15 37  1  0
 16 38  1  0
 17 39  1  0
 22 40  1  0
 24 41  1  0
 26 42  1  0
 27 43  1  0
 30 44  1  0
M  END
>  <Score>  (1) 
-7.9535

>  <Score_dual>  (1) 
-7.71

>  <Choices>  (1) 
[None, 9, ['7-18', 60], 17, ['23-8', 315], 26, ['12-5', 150], 30, ['34-20', 165]]

$$$$
