
     RDKit          3D

 48 50  0  0  1  0  0  0  0  0999 V2000
   44.1280   79.3600   61.3110 Cl  0  0  0  0  0  0  0  0  0  0  0  0
   44.1500   80.9260   62.1480 C   0  0  0  0  0  0  0  0  0  0  0  0
   42.9260   81.5170   62.2380 C   0  0  0  0  0  0  0  0  0  0  0  0
   42.9740   82.7420   62.9040 C   0  0  0  0  0  0  0  0  0  0  0  0
   44.1200   83.3070   63.4190 C   0  0  0  0  0  0  0  0  0  0  0  0
   45.3180   82.6400   63.2810 C   0  0  0  0  0  0  0  0  0  0  0  0
   45.3110   81.4390   62.6360 C   0  0  0  0  0  0  0  0  0  0  0  0
   47.1280   80.1360   63.7330 C   0  0  2  0  0  0  0  0  0  0  0  0
   46.5730   80.6590   62.4500 C   0  0  2  0  0  0  0  0  0  0  0  0
   47.6410   81.4080   61.7160 C   0  0  0  0  0  0  0  0  0  0  0  0
   48.2540   82.2540   62.6020 O   0  0  0  0  0  0  0  0  0  0  0  0
   49.1950   81.5000   63.2990 C   0  0  0  0  0  0  0  0  0  0  0  0
   48.6060   80.2670   63.9170 C   0  0  1  0  0  0  0  0  0  0  0  0
   46.7570   78.7990   63.8780 O   0  0  0  0  0  0  0  0  0  0  0  0
   48.8730   80.2920   65.2860 O   0  0  0  0  0  0  0  0  0  0  0  0
   41.5830   81.1220   61.7710 C   0  0  0  0  0  0  0  0  0  0  0  0
   39.7830   84.0270   60.1930 C   0  0  0  0  0  0  0  0  0  0  0  0
   40.7100   83.0240   60.3590 C   0  0  0  0  0  0  0  0  0  0  0  0
   40.6670   82.2140   61.4750 C   0  0  0  0  0  0  0  0  0  0  0  0
   39.6960   82.4400   62.3820 N   0  0  0  0  0  0  0  0  0  0  0  0
   38.7750   83.4480   62.2010 C   0  0  0  0  0  0  0  0  0  0  0  0
   38.8410   84.2230   61.1020 N   0  0  0  0  0  0  0  0  0  0  0  0
   39.9220   84.8290   58.9710 C   0  0  0  0  0  0  0  0  0  0  0  0
   39.2170   85.8750   58.7970 O   0  0  0  0  0  0  0  0  0  0  0  0
   41.1920   86.6540   57.4030 N   0  0  0  0  0  0  0  0  0  0  0  0
   41.5250   85.4230   57.1210 C   0  0  0  0  0  0  0  0  0  0  0  0
   40.8440   84.4740   57.9440 N   0  0  0  0  0  0  0  0  0  0  0  0
   42.4360   84.9490   56.1430 N   0  0  0  0  0  0  0  0  0  0  0  0
   41.6040   87.4020   56.8170 H   0  0  0  0  0  0  0  0  0  0  0  0
   42.0311   83.2952   63.0264 H   0  0  0  0  0  0  0  0  0  0  0  0
   44.0793   84.2782   63.9338 H   0  0  0  0  0  0  0  0  0  0  0  0
   46.2517   83.0639   63.6793 H   0  0  0  0  0  0  0  0  0  0  0  0
   46.6950   80.7784   64.5140 H   0  0  0  0  0  0  0  0  0  0  0  0
   46.2671   79.8076   61.8243 H   0  0  0  0  0  0  0  0  0  0  0  0
   48.3770   80.7011   61.3055 H   0  0  0  0  0  0  0  0  0  0  0  0
   47.2025   81.9797   60.8848 H   0  0  0  0  0  0  0  0  0  0  0  0
   49.9907   81.1985   62.6018 H   0  0  0  0  0  0  0  0  0  0  0  0
   49.5847   82.1267   64.1147 H   0  0  0  0  0  0  0  0  0  0  0  0
   49.0676   79.4082   63.4077 H   0  0  0  0  0  0  0  0  0  0  0  0
   46.6952   78.5762   64.8406 H   0  0  0  0  0  0  0  0  0  0  0  0
   48.0242   80.2125   65.7893 H   0  0  0  0  0  0  0  0  0  0  0  0
   41.7063   80.5273   60.8539 H   0  0  0  0  0  0  0  0  0  0  0  0
   41.1278   80.5691   62.6059 H   0  0  0  0  0  0  0  0  0  0  0  0
   41.4890   82.8672   59.5984 H   0  0  0  0  0  0  0  0  0  0  0  0
   37.9889   83.6191   62.9511 H   0  0  0  0  0  0  0  0  0  0  0  0
   41.0307   83.4735   57.7855 H   0  0  0  0  0  0  0  0  0  0  0  0
   42.5969   83.9372   56.0365 H   0  0  0  0  0  0  0  0  0  0  0  0
   42.9368   85.6165   55.5392 H   0  0  0  0  0  0  0  0  0  0  0  0
  1  2  1  0
  2  3  2  0
  2  7  1  0
  3  4  1  0
  4  5  2  0
  6  5  1  0
  7  6  2  0
  8 14  1  0
  8 13  1  0
  9  7  1  0
  9  8  1  0
 10  9  1  0
 10 11  1  0
 11 12  1  0
 12 13  1  0
 13 15  1  0
 16  3  1  0
 17 18  2  0
 17 22  1  0
 18 19  1  0
 19 16  1  0
 19 20  2  0
 21 20  1  0
 22 21  2  0
 23 17  1  0
 24 23  2  0
 26 25  2  0
 26 27  1  0
 27 23  1  0
 28 26  1  0
 29 25  1  0
  4 30  1  0
  5 31  1  0
  6 32  1  0
  8 33  1  1
  9 34  1  6
 10 35  1  0
 10 36  1  0
 12 37  1  0
 12 38  1  0
 13 39  1  6
 14 40  1  0
 15 41  1  0
 16 42  1  0
 16 43  1  0
 18 44  1  0
 21 45  1  0
 27 46  1  0
 28 47  1  0
 28 48  1  0
M  END
>  <Score>  (1) 
-7.3432

>  <Score_dual>  (1) 
-7.34

>  <Choices>  (1) 
[None, 8, ['3-10', 0], 7, ['5-10', 165], 14, ['48-21', 30], 21, ['7-12', 210], 31, ['59-18', 15]]

$$$$
