
     RDKit          3D

 49 54  0  0  0  0  0  0  0  0999 V2000
   40.4510   81.1880   56.4890 C   0  0  0  0  0  0  0  0  0  0  0  0
   40.1310   79.9870   57.0870 C   0  0  0  0  0  0  0  0  0  0  0  0
   39.6570   79.1050   56.1840 N   0  0  0  0  0  0  0  0  0  0  0  0
   39.6690   79.7260   55.0070 C   0  0  0  0  0  0  0  0  0  0  0  0
   40.1450   80.9690   55.1990 N   0  0  0  0  0  0  0  0  0  0  0  0
   39.2740   79.2460   53.7370 N   0  0  0  0  0  0  0  0  0  0  0  0
   42.2230   84.3710   57.2550 C   0  0  0  0  0  0  0  0  0  0  0  0
   41.7470   83.2990   56.5190 C   0  0  0  0  0  0  0  0  0  0  0  0
   40.9830   82.3340   57.1890 C   0  0  0  0  0  0  0  0  0  0  0  0
   40.7500   82.4930   58.5100 N   0  0  0  0  0  0  0  0  0  0  0  0
   41.2310   83.5500   59.1910 C   0  0  0  0  0  0  0  0  0  0  0  0
   41.9750   84.5050   58.5770 N   0  0  0  0  0  0  0  0  0  0  0  0
   39.6940   83.3590   61.1120 C   0  0  0  0  0  0  0  0  0  0  0  0
   40.9440   83.6720   60.6380 C   0  0  0  0  0  0  0  0  0  0  0  0
   41.9270   84.0950   61.4850 C   0  0  0  0  0  0  0  0  0  0  0  0
   41.6970   84.2180   62.8190 C   0  0  0  0  0  0  0  0  0  0  0  0
   42.4770   84.6040   63.8360 N   0  0  0  0  0  0  0  0  0  0  0  0
   41.7120   84.5330   64.9560 C   0  0  0  0  0  0  0  0  0  0  0  0
   40.4670   84.1000   64.5980 N   0  0  0  0  0  0  0  0  0  0  0  0
   40.4340   83.8970   63.2670 C   0  0  0  0  0  0  0  0  0  0  0  0
   39.4160   83.4670   62.4490 C   0  0  0  0  0  0  0  0  0  0  0  0
   39.2150   77.7660   56.3820 C   0  0  0  0  0  0  0  0  0  0  0  0
   38.3400   77.0120   55.6490 C   0  0  0  0  0  0  0  0  0  0  0  0
   38.2350   75.7820   56.2370 N   0  0  0  0  0  0  0  0  0  0  0  0
   39.0430   75.7840   57.3220 C   0  0  0  0  0  0  0  0  0  0  0  0
   39.6180   76.9880   57.3860 N   0  0  0  0  0  0  0  0  0  0  0  0
   41.3070   73.9380   56.7070 Cl  0  0  0  0  0  0  0  0  0  0  0  0
   40.3470   73.8010   58.1820 C   0  0  0  0  0  0  0  0  0  0  0  0
   39.3260   74.7380   58.3220 C   0  0  0  0  0  0  0  0  0  0  0  0
   38.5410   74.6830   59.4530 C   0  0  0  0  0  0  0  0  0  0  0  0
   38.7350   73.7430   60.4350 C   0  0  0  0  0  0  0  0  0  0  0  0
   39.7500   72.8180   60.2870 C   0  0  0  0  0  0  0  0  0  0  0  0
   40.5380   72.8590   59.1710 C   0  0  0  0  0  0  0  0  0  0  0  0
   40.2473   79.7763   58.1603 H   0  0  0  0  0  0  0  0  0  0  0  0
   38.9150   78.2857   53.6382 H   0  0  0  0  0  0  0  0  0  0  0  0
   39.3453   79.8567   52.9106 H   0  0  0  0  0  0  0  0  0  0  0  0
   42.8234   85.1397   56.7465 H   0  0  0  0  0  0  0  0  0  0  0  0
   41.9615   83.2079   55.4440 H   0  0  0  0  0  0  0  0  0  0  0  0
   38.9129   83.0202   60.4155 H   0  0  0  0  0  0  0  0  0  0  0  0
   42.9207   84.3402   61.0819 H   0  0  0  0  0  0  0  0  0  0  0  0
   43.4629   84.8971   63.7802 H   0  0  0  0  0  0  0  0  0  0  0  0
   42.0390   84.7816   65.9764 H   0  0  0  0  0  0  0  0  0  0  0  0
   38.4220   83.2205   62.8505 H   0  0  0  0  0  0  0  0  0  0  0  0
   37.8112   77.3393   54.7416 H   0  0  0  0  0  0  0  0  0  0  0  0
   37.6492   74.9989   55.9137 H   0  0  0  0  0  0  0  0  0  0  0  0
   37.7310   75.4174   59.5734 H   0  0  0  0  0  0  0  0  0  0  0  0
   38.0912   73.7269   61.3268 H   0  0  0  0  0  0  0  0  0  0  0  0
   39.9226   72.0551   61.0604 H   0  0  0  0  0  0  0  0  0  0  0  0
   41.3460   72.1211   59.0587 H   0  0  0  0  0  0  0  0  0  0  0  0
  1  2  2  0
  1  9  1  0
  3 22  1  0
  3  2  1  0
  4  5  2  0
  4  3  1  0
  5  1  1  0
  6  4  1  0
  7 12  2  0
  8  9  2  0
  8  7  1  0
  9 10  1  0
 10 11  2  0
 11 14  1  0
 12 11  1  0
 13 21  2  0
 14 13  1  0
 14 15  2  0
 15 16  1  0
 16 20  2  0
 16 17  1  0
 17 18  1  0
 19 18  2  0
 20 19  1  0
 21 20  1  0
 22 26  1  0
 23 24  1  0
 23 22  2  0
 24 25  1  0
 25 26  2  0
 25 29  1  0
 27 28  1  0
 28 29  2  0
 28 33  1  0
 29 30  1  0
 30 31  2  0
 32 31  1  0
 33 32  2  0
  2 34  1  0
  6 35  1  0
  6 36  1  0
  7 37  1  0
  8 38  1  0
 13 39  1  0
 15 40  1  0
 17 41  1  0
 18 42  1  0
 21 43  1  0
 23 44  1  0
 24 45  1  0
 30 46  1  0
 31 47  1  0
 32 48  1  0
 33 49  1  0
M  END
>  <Score>  (1) 
-7.30682

>  <Score_dual>  (1) 
-8.31

>  <Choices>  (1) 
[None, 9, ['34-23', 255], 22, ['23-8', 120], 29, ['0-4', 0], 29, ['23-12', 255], 38, ['7-16', 240]]

$$$$
