
     RDKit          3D

 49 54  0  0  1  0  0  0  0  0999 V2000
   39.0680   77.3580   57.4250 C   0  0  0  0  0  0  0  0  0  0  0  0
   39.8740   77.9770   59.7310 C   0  0  0  0  0  0  0  0  0  0  0  0
   39.5400   78.3010   58.4150 C   0  0  0  0  0  0  0  0  0  0  0  0
   39.6700   79.6460   58.0220 C   0  0  0  0  0  0  0  0  0  0  0  0
   40.1070   80.5440   58.9270 N   0  0  0  0  0  0  0  0  0  0  0  0
   40.4260   80.1990   60.2040 C   0  0  0  0  0  0  0  0  0  0  0  0
   40.3000   78.9110   60.5760 N   0  0  0  0  0  0  0  0  0  0  0  0
   42.2490   81.1710   61.5010 C   0  0  0  0  0  0  0  0  0  0  0  0
   40.8960   81.1930   61.1650 C   0  0  0  0  0  0  0  0  0  0  0  0
   40.0240   82.1130   61.7130 C   0  0  0  0  0  0  0  0  0  0  0  0
   40.5210   83.0270   62.6140 C   0  0  0  0  0  0  0  0  0  0  0  0
   39.9880   84.0210   63.3140 N   0  0  0  0  0  0  0  0  0  0  0  0
   40.9000   84.6560   64.0870 C   0  0  0  0  0  0  0  0  0  0  0  0
   42.0710   84.0000   63.8400 N   0  0  0  0  0  0  0  0  0  0  0  0
   41.8640   83.0150   62.9550 C   0  0  0  0  0  0  0  0  0  0  0  0
   42.7420   82.1090   62.4200 C   0  0  0  0  0  0  0  0  0  0  0  0
   37.9490   77.8040   56.5890 C   0  0  2  0  0  0  0  0  0  0  0  0
   36.5930   77.1290   56.9110 C   0  0  0  0  0  0  0  0  0  0  0  0
   37.3040   76.7800   55.6460 C   0  0  1  0  0  0  0  0  0  0  0  0
   36.5100   77.3390   54.1510 S   0  0  0  0  0  0  0  0  0  0  0  0
   37.5980   78.4600   53.2850 C   0  0  0  0  0  0  0  0  0  0  0  0
   38.9750   78.4950   53.3630 C   0  0  0  0  0  0  0  0  0  0  0  0
   39.6280   79.4480   52.6110 C   0  0  0  0  0  0  0  0  0  0  0  0
   39.0130   80.3630   51.7920 C   0  0  0  0  0  0  0  0  0  0  0  0
   39.6890   81.2690   51.0820 N   0  0  0  0  0  0  0  0  0  0  0  0
   39.0540   82.1690   50.2740 C   0  0  0  0  0  0  0  0  0  0  0  0
   37.6770   82.1150   50.2130 C   0  0  0  0  0  0  0  0  0  0  0  0
   36.9150   81.2020   50.9210 C   0  0  0  0  0  0  0  0  0  0  0  0
   37.6150   80.3090   51.7290 C   0  0  0  0  0  0  0  0  0  0  0  0
   36.8990   79.3610   52.4710 C   0  0  0  0  0  0  0  0  0  0  0  0
   39.9107   77.1203   56.7591 H   0  0  0  0  0  0  0  0  0  0  0  0
   38.6856   76.4986   57.9953 H   0  0  0  0  0  0  0  0  0  0  0  0
   39.7836   76.9356   60.0734 H   0  0  0  0  0  0  0  0  0  0  0  0
   39.4201   79.9580   56.9972 H   0  0  0  0  0  0  0  0  0  0  0  0
   42.9221   80.4266   61.0506 H   0  0  0  0  0  0  0  0  0  0  0  0
   38.9593   82.1153   61.4364 H   0  0  0  0  0  0  0  0  0  0  0  0
   38.9919   84.2801   63.2735 H   0  0  0  0  0  0  0  0  0  0  0  0
   40.7345   85.5086   64.7621 H   0  0  0  0  0  0  0  0  0  0  0  0
   43.8048   82.1171   62.7036 H   0  0  0  0  0  0  0  0  0  0  0  0
   38.3362   78.8267   56.4702 H   0  0  0  0  0  0  0  0  0  0  0  0
   36.5270   76.3915   57.7244 H   0  0  0  0  0  0  0  0  0  0  0  0
   35.5852   77.4944   57.1575 H   0  0  0  0  0  0  0  0  0  0  0  0
   37.6831   75.8614   55.1745 H   0  0  0  0  0  0  0  0  0  0  0  0
   39.5298   77.7904   54.0000 H   0  0  0  0  0  0  0  0  0  0  0  0
   40.7259   79.4779   52.6715 H   0  0  0  0  0  0  0  0  0  0  0  0
   39.6209   82.9108   49.6924 H   0  0  0  0  0  0  0  0  0  0  0  0
   37.1563   82.8368   49.5665 H   0  0  0  0  0  0  0  0  0  0  0  0
   35.8175   81.1826   50.8496 H   0  0  0  0  0  0  0  0  0  0  0  0
   35.8010   79.3243   52.4153 H   0  0  0  0  0  0  0  0  0  0  0  0
  1  3  1  0
  2  7  2  0
  3  2  1  0
  4  3  2  0
  4  5  1  0
  5  6  2  0
  6  7  1  0
  6  9  1  0
  8 16  2  0
  9  8  1  0
  9 10  2  0
 10 11  1  0
 11 15  2  0
 11 12  1  0
 12 13  1  0
 14 13  2  0
 15 14  1  0
 16 15  1  0
 17 18  1  0
 17  1  1  0
 19 17  1  0
 19 18  1  0
 20 19  1  0
 21 22  2  0
 21 20  1  0
 23 22  1  0
 24 23  2  0
 25 24  1  0
 26 25  2  0
 27 26  1  0
 27 28  2  0
 28 29  1  0
 29 24  1  0
 29 30  2  0
 30 21  1  0
  1 31  1  0
  1 32  1  0
  2 33  1  0
  4 34  1  0
  8 35  1  0
 10 36  1  0
 12 37  1  0
 13 38  1  0
 16 39  1  0
 17 40  1  6
 18 41  1  0
 18 42  1  0
 19 43  1  6
 22 44  1  0
 23 45  1  0
 26 46  1  0
 27 47  1  0
 28 48  1  0
 30 49  1  0
M  END
>  <Score>  (1) 
-7.00563

>  <Score_dual>  (1) 
-7.69

>  <Choices>  (1) 
[None, 7, ['3-10', 0], 9, ['34-23', 60], 25, ['16-19', 165], 32, ['17-14', 0], 33, ['36-21', 75]]

$$$$
