
     RDKit          3D

 47 51  0  0  0  0  0  0  0  0999 V2000
   43.4290   83.1280   61.7470 C   0  0  0  0  0  0  0  0  0  0  0  0
   40.9960   83.2080   62.4310 C   0  0  0  0  0  0  0  0  0  0  0  0
   42.3610   83.4280   62.7080 C   0  0  0  0  0  0  0  0  0  0  0  0
   42.6800   83.9380   63.9370 C   0  0  0  0  0  0  0  0  0  0  0  0
   41.7200   84.2120   64.8270 N   0  0  0  0  0  0  0  0  0  0  0  0
   40.3960   83.9890   64.5340 C   0  0  0  0  0  0  0  0  0  0  0  0
   40.0450   83.4860   63.3310 N   0  0  0  0  0  0  0  0  0  0  0  0
   40.6680   82.6770   61.1540 N   0  0  0  0  0  0  0  0  0  0  0  0
   40.5480   83.2990   59.9670 C   0  0  0  0  0  0  0  0  0  0  0  0
   40.2100   82.5700   58.8620 C   0  0  0  0  0  0  0  0  0  0  0  0
   39.9910   81.1960   58.9630 C   0  0  0  0  0  0  0  0  0  0  0  0
   39.6820   80.5210   57.9360 O   0  0  0  0  0  0  0  0  0  0  0  0
   40.1160   80.6350   60.1380 N   0  0  0  0  0  0  0  0  0  0  0  0
   40.4580   81.3470   61.2550 C   0  0  0  0  0  0  0  0  0  0  0  0
   40.5530   80.6290   62.3070 O   0  0  0  0  0  0  0  0  0  0  0  0
   44.4740   82.2910   62.2890 C   0  0  0  0  0  0  0  0  0  0  0  0
   45.5060   82.6500   63.1630 C   0  0  0  0  0  0  0  0  0  0  0  0
   46.4150   81.7210   63.6790 C   0  0  0  0  0  0  0  0  0  0  0  0
   46.2700   80.4160   63.3120 C   0  0  0  0  0  0  0  0  0  0  0  0
   45.2700   80.0500   62.4560 C   0  0  0  0  0  0  0  0  0  0  0  0
   44.3850   80.9740   61.9400 C   0  0  0  0  0  0  0  0  0  0  0  0
   43.6630   79.9780   59.6100 C   0  0  0  0  0  0  0  0  0  0  0  0
   43.8450   80.0060   60.9700 C   0  0  0  0  0  0  0  0  0  0  0  0
   43.3010   78.9630   61.7460 C   0  0  0  0  0  0  0  0  0  0  0  0
   42.5790   77.9000   61.1800 C   0  0  0  0  0  0  0  0  0  0  0  0
   41.9460   76.7920   61.5610 N   0  0  0  0  0  0  0  0  0  0  0  0
   41.4120   76.1310   60.5220 C   0  0  0  0  0  0  0  0  0  0  0  0
   41.6940   76.8270   59.3400 C   0  0  0  0  0  0  0  0  0  0  0  0
   42.4150   77.9080   59.8020 C   0  0  0  0  0  0  0  0  0  0  0  0
   42.9520   78.9310   59.0580 C   0  0  0  0  0  0  0  0  0  0  0  0
   43.8782   84.0768   61.4184 H   0  0  0  0  0  0  0  0  0  0  0  0
   42.9694   82.5737   60.9154 H   0  0  0  0  0  0  0  0  0  0  0  0
   43.7331   84.1239   64.1947 H   0  0  0  0  0  0  0  0  0  0  0  0
   39.6215   84.2204   65.2801 H   0  0  0  0  0  0  0  0  0  0  0  0
   40.7201   84.3825   59.8871 H   0  0  0  0  0  0  0  0  0  0  0  0
   40.1100   83.0694   57.8870 H   0  0  0  0  0  0  0  0  0  0  0  0
   39.9512   79.6220   60.2253 H   0  0  0  0  0  0  0  0  0  0  0  0
   45.6063   83.7055   63.4560 H   0  0  0  0  0  0  0  0  0  0  0  0
   47.2212   82.0332   64.3592 H   0  0  0  0  0  0  0  0  0  0  0  0
   46.9601   79.6555   63.7062 H   0  0  0  0  0  0  0  0  0  0  0  0
   45.1680   78.9924   62.1712 H   0  0  0  0  0  0  0  0  0  0  0  0
   44.0754   80.7739   58.9724 H   0  0  0  0  0  0  0  0  0  0  0  0
   43.4475   78.9824   62.8360 H   0  0  0  0  0  0  0  0  0  0  0  0
   41.8745   76.4786   62.5396 H   0  0  0  0  0  0  0  0  0  0  0  0
   40.8432   75.1918   60.5884 H   0  0  0  0  0  0  0  0  0  0  0  0
   41.4123   76.5756   58.3068 H   0  0  0  0  0  0  0  0  0  0  0  0
   42.8081   78.9149   57.9676 H   0  0  0  0  0  0  0  0  0  0  0  0
  1 16  1  0
  1  3  1  0
  2  3  1  0
  2  7  2  0
  3  4  2  0
  4  5  1  0
  6  5  2  0
  7  6  1  0
  8 14  1  0
  8  2  1  0
  9  8  1  0
 10 11  1  0
 10  9  2  0
 11 13  1  0
 12 11  2  0
 13 14  1  0
 14 15  2  0
 16 17  2  0
 17 18  1  0
 19 18  2  0
 20 19  1  0
 21 16  1  0
 21 20  2  0
 22 23  2  0
 23 24  1  0
 23 21  1  0
 25 26  1  0
 25 24  2  0
 27 26  1  0
 28 29  1  0
 28 27  2  0
 29 25  1  0
 30 22  1  0
 30 29  2  0
  1 31  1  0
  1 32  1  0
  4 33  1  0
  6 34  1  0
  9 35  1  0
 10 36  1  0
 13 37  1  0
 17 38  1  0
 18 39  1  0
 19 40  1  0
 20 41  1  0
 22 42  1  0
 24 43  1  0
 26 44  1  0
 27 45  1  0
 28 46  1  0
 30 47  1  0
M  END
>  <Score>  (1) 
-7.19934

>  <Score_dual>  (1) 
-7.22

>  <Choices>  (1) 
[None, 7, ['3-10', 0], 7, ['37-14', 345], 22, ['1-22', 135], 32, ['24-7', 165]]

$$$$
