
     RDKit          3D

 41 45  0  0  0  0  0  0  0  0999 V2000
   39.2150   78.8130   57.8990 Cl  0  0  0  0  0  0  0  0  0  0  0  0
   40.0860   77.9930   59.1620 C   0  0  0  0  0  0  0  0  0  0  0  0
   40.6780   78.7200   60.1520 C   0  0  0  0  0  0  0  0  0  0  0  0
   41.3500   77.9740   61.1340 C   0  0  0  0  0  0  0  0  0  0  0  0
   41.4110   76.6080   61.1030 C   0  0  0  0  0  0  0  0  0  0  0  0
   40.7990   75.9030   60.0820 C   0  0  0  0  0  0  0  0  0  0  0  0
   40.1320   76.6140   59.1090 C   0  0  0  0  0  0  0  0  0  0  0  0
   40.5390   73.8650   58.7220 C   0  0  0  0  0  0  0  0  0  0  0  0
   40.8030   74.4380   59.9560 C   0  0  0  0  0  0  0  0  0  0  0  0
   41.0520   73.5450   60.9680 C   0  0  0  0  0  0  0  0  0  0  0  0
   41.0400   72.1890   60.7720 C   0  0  0  0  0  0  0  0  0  0  0  0
   41.2410   71.1220   61.5540 N   0  0  0  0  0  0  0  0  0  0  0  0
   41.1180   69.9870   60.8850 N   0  0  0  0  0  0  0  0  0  0  0  0
   40.8220   70.2590   59.5970 C   0  0  0  0  0  0  0  0  0  0  0  0
   40.7740   71.6470   59.5360 C   0  0  0  0  0  0  0  0  0  0  0  0
   40.5190   72.5050   58.4910 C   0  0  0  0  0  0  0  0  0  0  0  0
   40.0920   82.2530   59.0400 C   0  0  0  0  0  0  0  0  0  0  0  0
   40.2010   80.8610   59.0140 C   0  0  0  0  0  0  0  0  0  0  0  0
   40.5720   80.1660   60.1370 C   0  0  0  0  0  0  0  0  0  0  0  0
   40.8400   80.8660   61.3000 N   0  0  0  0  0  0  0  0  0  0  0  0
   40.7310   82.2180   61.3060 C   0  0  0  0  0  0  0  0  0  0  0  0
   40.3610   82.9220   60.1930 N   0  0  0  0  0  0  0  0  0  0  0  0
   41.0120   82.9640   62.5260 C   0  0  0  0  0  0  0  0  0  0  0  0
   42.3010   83.3710   62.8000 C   0  0  0  0  0  0  0  0  0  0  0  0
   42.5800   84.0770   63.9520 C   0  0  0  0  0  0  0  0  0  0  0  0
   41.5830   84.3680   64.8080 N   0  0  0  0  0  0  0  0  0  0  0  0
   40.3130   83.9590   64.5220 C   0  0  0  0  0  0  0  0  0  0  0  0
   40.0390   83.2710   63.4010 N   0  0  0  0  0  0  0  0  0  0  0  0
   41.8454   78.5079   61.9583 H   0  0  0  0  0  0  0  0  0  0  0  0
   41.9499   76.0667   61.8946 H   0  0  0  0  0  0  0  0  0  0  0  0
   39.6337   76.0808   58.2860 H   0  0  0  0  0  0  0  0  0  0  0  0
   40.3328   74.5357   57.8748 H   0  0  0  0  0  0  0  0  0  0  0  0
   41.2694   73.9325   61.9743 H   0  0  0  0  0  0  0  0  0  0  0  0
   41.4649   71.1776   62.5578 H   0  0  0  0  0  0  0  0  0  0  0  0
   40.6559   69.5430   58.7786 H   0  0  0  0  0  0  0  0  0  0  0  0
   40.3024   72.1125   57.4865 H   0  0  0  0  0  0  0  0  0  0  0  0
   39.7913   82.8032   58.1362 H   0  0  0  0  0  0  0  0  0  0  0  0
   39.9870   80.3159   58.0828 H   0  0  0  0  0  0  0  0  0  0  0  0
   43.1114   83.1313   62.0959 H   0  0  0  0  0  0  0  0  0  0  0  0
   43.6090   84.3995   64.1691 H   0  0  0  0  0  0  0  0  0  0  0  0
   39.4986   84.1970   65.2221 H   0  0  0  0  0  0  0  0  0  0  0  0
  1  2  1  0
  2  3  2  0
  3  4  1  0
  5  4  2  0
  6  5  1  0
  7  2  1  0
  7  6  2  0
  8  9  2  0
  9  6  1  0
  9 10  1  0
 11 10  2  0
 11 12  1  0
 13 12  1  0
 14 13  2  0
 15 14  1  0
 15 11  1  0
 16  8  1  0
 16 15  2  0
 17 22  2  0
 18 17  1  0
 18 19  2  0
 19  3  1  0
 19 20  1  0
 20 21  2  0
 21 23  1  0
 22 21  1  0
 23 24  2  0
 23 28  1  0
 24 25  1  0
 25 26  2  0
 27 26  1  0
 28 27  2  0
  4 29  1  0
  5 30  1  0
  7 31  1  0
  8 32  1  0
 10 33  1  0
 12 34  1  0
 14 35  1  0
 16 36  1  0
 17 37  1  0
 18 38  1  0
 24 39  1  0
 25 40  1  0
 27 41  1  0
M  END
>  <Score>  (1) 
-7.12916

>  <Score_dual>  (1) 
-8.62

>  <Choices>  (1) 
[None, 8, ['7-18', 120], 18, ['54-9', 240], 32, ['19-20', 90]]

$$$$
