
     RDKit          3D

 50 54  0  0  1  0  0  0  0  0999 V2000
   43.0280   84.0290   62.6380 C   0  0  0  0  0  0  0  0  0  0  0  0
   43.5430   85.2390   62.1130 C   0  0  0  0  0  0  0  0  0  0  0  0
   44.7060   85.1540   61.3170 C   0  0  0  0  0  0  0  0  0  0  0  0
   45.2600   83.9450   61.1000 N   0  0  0  0  0  0  0  0  0  0  0  0
   44.7350   82.8140   61.6200 C   0  0  0  0  0  0  0  0  0  0  0  0
   43.6340   82.8400   62.3800 N   0  0  0  0  0  0  0  0  0  0  0  0
   41.8360   84.0560   63.4620 C   0  0  0  0  0  0  0  0  0  0  0  0
   40.5930   83.6710   63.1110 C   0  0  0  0  0  0  0  0  0  0  0  0
   39.7480   83.8490   64.1580 N   0  0  0  0  0  0  0  0  0  0  0  0
   40.5070   84.3570   65.1690 C   0  0  0  0  0  0  0  0  0  0  0  0
   41.7870   84.4860   64.7500 N   0  0  0  0  0  0  0  0  0  0  0  0
   40.0950   83.1460   61.8840 C   0  0  0  0  0  0  0  0  0  0  0  0
   39.4140   82.1070   61.7620 O   0  0  0  0  0  0  0  0  0  0  0  0
   40.1520   83.5180   60.5030 N   0  0  0  0  0  0  0  0  0  0  0  0
   39.5740   84.8040   60.3710 C   0  0  0  0  0  0  0  0  0  0  0  0
   39.6630   85.1650   58.9120 C   0  0  0  0  0  0  0  0  0  0  0  0
   40.6230   84.2170   58.3080 C   0  0  0  0  0  0  0  0  0  0  0  0
   40.6110   83.0020   59.1920 C   0  0  2  0  0  0  0  0  0  0  0  0
   39.7350   82.0240   58.7490 O   0  0  0  0  0  0  0  0  0  0  0  0
   45.2940   81.4820   61.4240 C   0  0  0  0  0  0  0  0  0  0  0  0
   46.0420   80.7880   60.5000 C   0  0  0  0  0  0  0  0  0  0  0  0
   46.2110   79.5330   60.9600 N   0  0  0  0  0  0  0  0  0  0  0  0
   45.5870   79.4150   62.1550 C   0  0  0  0  0  0  0  0  0  0  0  0
   45.0220   80.6150   62.4410 N   0  0  0  0  0  0  0  0  0  0  0  0
   44.4110   77.4040   62.9320 C   0  0  0  0  0  0  0  0  0  0  0  0
   45.5300   78.2150   62.9880 C   0  0  0  0  0  0  0  0  0  0  0  0
   46.5960   77.9180   63.8110 C   0  0  0  0  0  0  0  0  0  0  0  0
   46.5090   76.7640   64.5930 C   0  0  0  0  0  0  0  0  0  0  0  0
   45.3860   75.9540   64.5330 C   0  0  0  0  0  0  0  0  0  0  0  0
   44.3120   76.2610   63.6980 C   0  0  0  0  0  0  0  0  0  0  0  0
   42.4770   78.0640   61.3250 N   0  0  0  0  0  0  0  0  0  0  0  0
   43.3370   77.7770   62.0470 C   0  0  0  0  0  0  0  0  0  0  0  0
   43.0574   86.2047   62.3168 H   0  0  0  0  0  0  0  0  0  0  0  0
   45.1525   86.0599   60.8811 H   0  0  0  0  0  0  0  0  0  0  0  0
   38.7393   83.6423   64.1831 H   0  0  0  0  0  0  0  0  0  0  0  0
   40.1366   84.6213   66.1705 H   0  0  0  0  0  0  0  0  0  0  0  0
   38.5226   84.7831   60.6938 H   0  0  0  0  0  0  0  0  0  0  0  0
   40.0983   85.5418   60.9960 H   0  0  0  0  0  0  0  0  0  0  0  0
   38.6773   85.0652   58.4341 H   0  0  0  0  0  0  0  0  0  0  0  0
   39.9907   86.2063   58.7770 H   0  0  0  0  0  0  0  0  0  0  0  0
   40.3086   83.9514   57.2879 H   0  0  0  0  0  0  0  0  0  0  0  0
   41.6300   84.6533   58.2338 H   0  0  0  0  0  0  0  0  0  0  0  0
   41.6013   82.5238   59.2167 H   0  0  0  0  0  0  0  0  0  0  0  0
   39.3273   81.5688   59.5279 H   0  0  0  0  0  0  0  0  0  0  0  0
   46.4330   81.1878   59.5527 H   0  0  0  0  0  0  0  0  0  0  0  0
   46.7309   78.7846   60.4799 H   0  0  0  0  0  0  0  0  0  0  0  0
   47.4833   78.5669   63.8502 H   0  0  0  0  0  0  0  0  0  0  0  0
   47.3394   76.4956   65.2626 H   0  0  0  0  0  0  0  0  0  0  0  0
   45.3408   75.0495   65.1574 H   0  0  0  0  0  0  0  0  0  0  0  0
   43.4212   75.6172   63.6520 H   0  0  0  0  0  0  0  0  0  0  0  0
  1  7  1  0
  2  1  2  0
  3  2  1  0
  4  3  2  0
  4  5  1  0
  5  6  2  0
  6  1  1  0
  7 11  1  0
  8  7  2  0
  8  9  1  0
  9 10  1  0
 11 10  2  0
 12  8  1  0
 13 12  2  0
 14 12  1  0
 15 14  1  0
 16 15  1  0
 17 16  1  0
 17 18  1  0
 18 14  1  0
 19 18  1  0
 20  5  1  0
 20 24  1  0
 21 22  1  0
 21 20  2  0
 22 23  1  0
 23 24  2  0
 23 26  1  0
 25 26  2  0
 25 30  1  0
 26 27  1  0
 27 28  2  0
 29 28  1  0
 30 29  2  0
 31 32  3  0
 32 25  1  0
  2 33  1  0
  3 34  1  0
  9 35  1  0
 10 36  1  0
 15 37  1  0
 15 38  1  0
 16 39  1  0
 16 40  1  0
 17 41  1  0
 17 42  1  0
 18 43  1  1
 19 44  1  0
 21 45  1  0
 22 46  1  0
 27 47  1  0
 28 48  1  0
 29 49  1  0
 30 50  1  0
M  END
>  <Score>  (1) 
-7.10549

>  <Score_dual>  (1) 
-7.43

>  <Choices>  (1) 
[None, 6, ['23-9', 180], 14, ['5-8', 345], 18, ['13-1', 120], 30, ['2-1', 330], 31, ['23-6', 210], 38, ['40-19', 150]]

$$$$
