
     RDKit          3D

 46 50  0  0  0  0  0  0  0  0999 V2000
   40.7690   83.8360   60.7480 C   0  0  0  0  0  0  0  0  0  0  0  0
   40.6330   82.4710   60.5280 C   0  0  0  0  0  0  0  0  0  0  0  0
   40.6200   81.5740   61.5960 C   0  0  0  0  0  0  0  0  0  0  0  0
   40.7430   82.0840   62.8270 N   0  0  0  0  0  0  0  0  0  0  0  0
   40.8760   83.4210   63.0400 C   0  0  0  0  0  0  0  0  0  0  0  0
   40.8920   84.3130   62.0170 N   0  0  0  0  0  0  0  0  0  0  0  0
   40.6800   79.3670   62.5580 C   0  0  0  0  0  0  0  0  0  0  0  0
   40.4820   80.1540   61.4430 C   0  0  0  0  0  0  0  0  0  0  0  0
   40.1660   79.5070   60.2680 C   0  0  0  0  0  0  0  0  0  0  0  0
   40.0340   78.1380   60.1260 C   0  0  0  0  0  0  0  0  0  0  0  0
   39.7370   77.3400   59.0770 N   0  0  0  0  0  0  0  0  0  0  0  0
   39.7520   76.1050   59.5340 N   0  0  0  0  0  0  0  0  0  0  0  0
   40.0470   76.0560   60.8390 C   0  0  0  0  0  0  0  0  0  0  0  0
   40.2350   77.3590   61.2470 C   0  0  0  0  0  0  0  0  0  0  0  0
   40.5530   77.9800   62.4390 C   0  0  0  0  0  0  0  0  0  0  0  0
   40.7880   84.8080   59.6580 C   0  0  0  0  0  0  0  0  0  0  0  0
   39.5680   85.1640   59.1160 C   0  0  0  0  0  0  0  0  0  0  0  0
   39.4710   86.0880   58.0670 C   0  0  0  0  0  0  0  0  0  0  0  0
   40.6220   86.6440   57.5780 C   0  0  0  0  0  0  0  0  0  0  0  0
   41.8390   86.3020   58.1050 C   0  0  0  0  0  0  0  0  0  0  0  0
   41.9110   85.3780   59.1520 C   0  0  0  0  0  0  0  0  0  0  0  0
   43.3370   82.8930   58.1470 Cl  0  0  0  0  0  0  0  0  0  0  0  0
   44.0340   83.9560   59.3360 C   0  0  0  0  0  0  0  0  0  0  0  0
   43.2280   85.0500   59.6750 C   0  0  0  0  0  0  0  0  0  0  0  0
   43.7340   85.9450   60.6270 C   0  0  0  0  0  0  0  0  0  0  0  0
   44.9680   85.7860   61.2250 C   0  0  0  0  0  0  0  0  0  0  0  0
   45.7500   84.6890   60.8710 C   0  0  0  0  0  0  0  0  0  0  0  0
   45.2730   83.7880   59.9310 C   0  0  0  0  0  0  0  0  0  0  0  0
   41.0150   84.0140   64.3990 C   0  0  0  0  0  0  0  0  0  0  0  0
   40.1700   83.3810   65.3030 F   0  0  0  0  0  0  0  0  0  0  0  0
   40.5730   85.3320   64.3760 F   0  0  0  0  0  0  0  0  0  0  0  0
   42.3420   83.9850   64.7810 F   0  0  0  0  0  0  0  0  0  0  0  0
   40.5344   82.0933   59.4996 H   0  0  0  0  0  0  0  0  0  0  0  0
   40.9339   79.8236   63.5260 H   0  0  0  0  0  0  0  0  0  0  0  0
   40.0064   80.1277   59.3740 H   0  0  0  0  0  0  0  0  0  0  0  0
   39.5383   77.6384   58.1114 H   0  0  0  0  0  0  0  0  0  0  0  0
   40.1242   75.1533   61.4629 H   0  0  0  0  0  0  0  0  0  0  0  0
   40.7129   77.3574   63.3316 H   0  0  0  0  0  0  0  0  0  0  0  0
   38.6499   84.7108   59.5180 H   0  0  0  0  0  0  0  0  0  0  0  0
   38.4919   86.3603   57.6461 H   0  0  0  0  0  0  0  0  0  0  0  0
   40.5692   87.3717   56.7548 H   0  0  0  0  0  0  0  0  0  0  0  0
   42.7588   86.7537   57.7051 H   0  0  0  0  0  0  0  0  0  0  0  0
   43.1206   86.8130   60.9105 H   0  0  0  0  0  0  0  0  0  0  0  0
   45.3275   86.5130   61.9681 H   0  0  0  0  0  0  0  0  0  0  0  0
   46.7370   84.5388   61.3329 H   0  0  0  0  0  0  0  0  0  0  0  0
   45.8915   82.9221   59.6523 H   0  0  0  0  0  0  0  0  0  0  0  0
  1  6  1  0
  2  1  2  0
  2  3  1  0
  3  4  2  0
  4  5  1  0
  5 29  1  0
  6  5  2  0
  8  3  1  0
  8  7  2  0
  9  8  1  0
 10  9  2  0
 10 14  1  0
 11 12  1  0
 11 10  1  0
 12 13  2  0
 13 14  1  0
 14 15  2  0
 15  7  1  0
 16  1  1  0
 17 16  2  0
 18 17  1  0
 19 18  2  0
 19 20  1  0
 20 21  2  0
 21 16  1  0
 21 24  1  0
 22 23  1  0
 23 24  2  0
 23 28  1  0
 24 25  1  0
 25 26  2  0
 27 26  1  0
 28 27  2  0
 29 32  1  0
 29 30  1  0
 31 29  1  0
  2 33  1  0
  7 34  1  0
  9 35  1  0
 11 36  1  0
 13 37  1  0
 15 38  1  0
 17 39  1  0
 18 40  1  0
 19 41  1  0
 20 42  1  0
 25 43  1  0
 26 44  1  0
 27 45  1  0
 28 46  1  0
M  END
>  <Score>  (1) 
-7.47397

>  <Score_dual>  (1) 
-7.05

>  <Choices>  (1) 
[None, 6, ['1-28', 270], 14, ['11-14', 45], 22, ['7-16', 0], 32, ['54-9', 330]]

$$$$
