28-9_30_repair
     RDKit          3D

 36 41  0  0  0  0  0  0  0  0999 V2000
   45.7720   76.9130   63.5470 C   0  0  0  0  0  0  0  0  0  0  0  0
   44.7470   77.3690   62.7270 C   0  0  0  0  0  0  0  0  0  0  0  0
   43.8230   76.4330   62.2910 C   0  0  0  0  0  0  0  0  0  0  0  0
   43.9430   75.1160   62.6700 C   0  0  0  0  0  0  0  0  0  0  0  0
   43.1980   74.0350   62.3930 N   0  0  0  0  0  0  0  0  0  0  0  0
   43.7580   72.9710   63.0220 C   0  0  0  0  0  0  0  0  0  0  0  0
   44.8500   73.3340   63.7050 N   0  0  0  0  0  0  0  0  0  0  0  0
   44.9580   74.6660   63.4820 C   0  0  0  0  0  0  0  0  0  0  0  0
   45.8870   75.5870   63.9250 C   0  0  0  0  0  0  0  0  0  0  0  0
   46.9800   75.2330   64.7690 N   0  0  0  0  0  0  0  0  0  0  0  0
   47.3900   73.9940   65.1270 C   0  0  0  0  0  0  0  0  0  0  0  0
   48.4710   74.0700   65.9460 N   0  0  0  0  0  0  0  0  0  0  0  0
   48.7620   75.3710   66.1190 C   0  0  0  0  0  0  0  0  0  0  0  0
   49.7600   75.9820   66.8550 C   0  0  0  0  0  0  0  0  0  0  0  0
   49.7980   77.3340   66.8350 N   0  0  0  0  0  0  0  0  0  0  0  0
   48.8890   78.0330   66.1180 C   0  0  0  0  0  0  0  0  0  0  0  0
   47.9260   77.4180   65.4080 N   0  0  0  0  0  0  0  0  0  0  0  0
   47.8300   76.0780   65.3850 C   0  0  0  0  0  0  0  0  0  0  0  0
   50.7190   75.2530   67.6120 N   0  0  0  0  0  0  0  0  0  0  0  0
   41.9320   78.4880   62.5660 Cl  0  0  0  0  0  0  0  0  0  0  0  0
   43.3770   79.4000   62.1950 C   0  0  0  0  0  0  0  0  0  0  0  0
   43.2660   80.7190   61.8010 C   0  0  0  0  0  0  0  0  0  0  0  0
   44.4430   81.3460   61.5340 C   0  0  0  0  0  0  0  0  0  0  0  0
   45.6780   80.7590   61.6330 C   0  0  0  0  0  0  0  0  0  0  0  0
   45.7760   79.4360   62.0310 C   0  0  0  0  0  0  0  0  0  0  0  0
   44.6020   78.7550   62.3140 C   0  0  0  0  0  0  0  0  0  0  0  0
   39.7330   81.4230   60.8980 C   0  0  0  0  0  0  0  0  0  0  0  0
   40.9580   80.7530   60.9160 C   0  0  0  0  0  0  0  0  0  0  0  0
   41.9480   81.3230   61.7010 C   0  0  0  0  0  0  0  0  0  0  0  0
   41.6620   82.4630   62.3780 N   0  0  0  0  0  0  0  0  0  0  0  0
   40.4620   83.0810   62.3330 C   0  0  0  0  0  0  0  0  0  0  0  0
   39.4800   82.5490   61.5780 N   0  0  0  0  0  0  0  0  0  0  0  0
   40.3130   84.1710   64.5290 C   0  0  0  0  0  0  0  0  0  0  0  0
   40.3070   82.9980   65.0280 O   0  0  0  0  0  0  0  0  0  0  0  0
   40.3940   84.2460   63.1120 N   0  0  0  0  0  0  0  0  0  0  0  0
   40.2470   85.3410   65.2970 N   0  0  0  0  0  0  0  0  0  0  0  0
  1  2  2  0
  1  9  1  0
  2  3  1  0
  2 26  1  0
  3  4  2  0
  4  5  1  0
  4  8  1  0
  5  6  2  0
  6  7  1  0
  7  8  2  0
  8  9  1  0
  9 10  1  0
 10 11  1  0
 10 18  1  0
 11 12  2  0
 12 13  1  0
 13 14  2  0
 13 18  1  0
 14 15  1  0
 14 19  1  0
 15 16  2  0
 16 17  1  0
 17 18  2  0
 20 21  1  0
 21 22  2  0
 21 26  1  0
 22 23  1  0
 22 29  1  0
 23 24  2  0
 24 25  1  0
 25 26  2  0
 27 28  2  0
 27 32  1  0
 28 29  1  0
 29 30  2  0
 30 31  1  0
 31 32  2  0
 31 35  1  0
 33 34  2  0
 33 35  1  0
 33 36  1  0
M  END
>  <Score>  (1) 
-7.96521

>  <Score_dual>  (1) 
-9.47

>  <Choices>  (1) 
[None, 9, ['12-5', 195], 12, ['0-20', 0], 12, ['7-17', 150], 25, ['34-21', 120], 38, ['28-9', 30]]

$$$$
