
     RDKit          3D

 56 61  0  0  1  0  0  0  0  0999 V2000
   45.4910   86.4280   58.6620 N   0  0  0  0  0  0  0  0  0  0  0  0
   46.8580   85.9610   58.5630 C   0  0  0  0  0  0  0  0  0  0  0  0
   47.4420   86.6880   57.3610 C   0  0  0  0  0  0  0  0  0  0  0  0
   46.6770   87.9900   57.3860 C   0  0  0  0  0  0  0  0  0  0  0  0
   45.2810   87.5290   57.7620 C   0  0  2  0  0  0  0  0  0  0  0  0
   44.6500   88.6290   58.5400 C   0  0  0  0  0  0  0  0  0  0  0  0
   44.6660   88.5450   59.9180 C   0  0  0  0  0  0  0  0  0  0  0  0
   44.0800   89.5680   60.6280 C   0  0  0  0  0  0  0  0  0  0  0  0
   43.4720   90.6800   60.0830 C   0  0  0  0  0  0  0  0  0  0  0  0
   43.4950   90.6930   58.7090 C   0  0  0  0  0  0  0  0  0  0  0  0
   44.0570   89.7140   57.9630 C   0  0  0  0  0  0  0  0  0  0  0  0
   42.7430   92.0770   57.8700 S   0  0  0  0  0  0  0  0  0  0  0  0
   42.1160   93.1490   59.1500 C   0  0  0  0  0  0  0  0  0  0  0  0
   41.4840   94.2970   58.7840 C   0  0  0  0  0  0  0  0  0  0  0  0
   40.9730   95.1770   59.7040 C   0  0  0  0  0  0  0  0  0  0  0  0
   41.1200   94.8600   61.0370 C   0  0  0  0  0  0  0  0  0  0  0  0
   41.7710   93.6780   61.3610 C   0  0  0  0  0  0  0  0  0  0  0  0
   42.2900   92.7860   60.4450 C   0  0  0  0  0  0  0  0  0  0  0  0
   42.9180   91.6400   60.9320 N   0  0  0  0  0  0  0  0  0  0  0  0
   44.9310   85.5430   60.8750 C   0  0  0  0  0  0  0  0  0  0  0  0
   44.5310   85.8520   59.5350 C   0  0  0  0  0  0  0  0  0  0  0  0
   43.1970   85.5660   59.1360 C   0  0  0  0  0  0  0  0  0  0  0  0
   42.3830   85.0130   60.0610 N   0  0  0  0  0  0  0  0  0  0  0  0
   42.7900   84.7300   61.3210 C   0  0  0  0  0  0  0  0  0  0  0  0
   44.0600   84.9930   61.7310 N   0  0  0  0  0  0  0  0  0  0  0  0
   41.8170   84.8370   63.6110 C   0  0  1  0  0  0  0  0  0  0  0  0
   41.8470   84.1220   62.2990 C   0  0  1  0  0  0  0  0  0  0  0  0
   40.5220   84.2140   61.8760 O   0  0  0  0  0  0  0  0  0  0  0  0
   39.8480   83.6690   62.9760 C   0  0  0  0  0  0  0  0  0  0  0  0
   40.4090   84.4720   64.1140 C   0  0  1  0  0  0  0  0  0  0  0  0
   42.7640   84.3070   64.4740 O   0  0  0  0  0  0  0  0  0  0  0  0
   40.4520   83.8080   65.3030 O   0  0  0  0  0  0  0  0  0  0  0  0
   47.4185   86.2123   59.4755 H   0  0  0  0  0  0  0  0  0  0  0  0
   46.9118   84.8683   58.4485 H   0  0  0  0  0  0  0  0  0  0  0  0
   47.2581   86.1332   56.4291 H   0  0  0  0  0  0  0  0  0  0  0  0
   48.5342   86.8121   57.4028 H   0  0  0  0  0  0  0  0  0  0  0  0
   47.0864   88.6796   58.1388 H   0  0  0  0  0  0  0  0  0  0  0  0
   46.7197   88.5475   56.4387 H   0  0  0  0  0  0  0  0  0  0  0  0
   44.6620   87.2617   56.8929 H   0  0  0  0  0  0  0  0  0  0  0  0
   45.1310   87.6900   60.4306 H   0  0  0  0  0  0  0  0  0  0  0  0
   44.0980   89.4925   61.7253 H   0  0  0  0  0  0  0  0  0  0  0  0
   44.0353   89.7947   56.8662 H   0  0  0  0  0  0  0  0  0  0  0  0
   41.3792   94.5274   57.7135 H   0  0  0  0  0  0  0  0  0  0  0  0
   40.4651   96.1007   59.3896 H   0  0  0  0  0  0  0  0  0  0  0  0
   40.7321   95.5254   61.8224 H   0  0  0  0  0  0  0  0  0  0  0  0
   41.8816   93.4339   62.4279 H   0  0  0  0  0  0  0  0  0  0  0  0
   42.9749   91.4973   61.9505 H   0  0  0  0  0  0  0  0  0  0  0  0
   45.9587   85.7584   61.2028 H   0  0  0  0  0  0  0  0  0  0  0  0
   42.8430   85.7856   58.1179 H   0  0  0  0  0  0  0  0  0  0  0  0
   42.0249   85.9149   63.5410 H   0  0  0  0  0  0  0  0  0  0  0  0
   42.2126   83.0884   62.3886 H   0  0  0  0  0  0  0  0  0  0  0  0
   38.7604   83.8073   62.8871 H   0  0  0  0  0  0  0  0  0  0  0  0
   39.9865   82.5835   63.0881 H   0  0  0  0  0  0  0  0  0  0  0  0
   39.7755   85.3401   64.3485 H   0  0  0  0  0  0  0  0  0  0  0  0
   42.4824   84.4646   65.4099 H   0  0  0  0  0  0  0  0  0  0  0  0
   40.4098   84.4600   66.0468 H   0  0  0  0  0  0  0  0  0  0  0  0
  1 21  1  0
  2  1  1  0
  3  4  1  0
  3  2  1  0
  4  5  1  0
  5  6  1  0
  5  1  1  0
  6  7  2  0
  7  8  1  0
  9  8  2  0
  9 19  1  0
 10  9  1  0
 11  6  1  0
 11 10  2  0
 12 10  1  0
 12 13  1  0
 13 18  2  0
 14 13  1  0
 14 15  2  0
 15 16  1  0
 16 17  2  0
 18 19  1  0
 18 17  1  0
 20 25  2  0
 21 20  1  0
 22 21  2  0
 22 23  1  0
 23 24  2  0
 24 25  1  0
 24 27  1  0
 26 30  1  0
 26 31  1  0
 27 26  1  0
 28 27  1  0
 28 29  1  0
 29 30  1  0
 30 32  1  0
  2 33  1  0
  2 34  1  0
  3 35  1  0
  3 36  1  0
  4 37  1  0
  4 38  1  0
  5 39  1  6
  7 40  1  0
  8 41  1  0
 11 42  1  0
 14 43  1  0
 15 44  1  0
 16 45  1  0
 17 46  1  0
 19 47  1  0
 20 48  1  0
 22 49  1  0
 26 50  1  6
 27 51  1  1
 29 52  1  0
 29 53  1  0
 30 54  1  1
 31 55  1  0
 32 56  1  0
M  END
>  <Score>  (1) 
-7.08272

>  <Score_dual>  (1) 
-7.43

>  <Choices>  (1) 
[None, 9, ['14-13', 255], 14, ['13-7', 315], 34, ['60-7', 315]]

$$$$
