
     RDKit          3D

 44 49  0  0  0  0  0  0  0  0999 V2000
   42.4490   81.0180   60.5600 C   0  0  0  0  0  0  0  0  0  0  0  0
   42.2820   82.0570   61.4080 C   0  0  0  0  0  0  0  0  0  0  0  0
   43.2370   82.3070   62.3860 C   0  0  0  0  0  0  0  0  0  0  0  0
   44.3740   81.4750   62.4850 C   0  0  0  0  0  0  0  0  0  0  0  0
   45.4300   81.4800   63.3100 N   0  0  0  0  0  0  0  0  0  0  0  0
   46.2410   80.4530   62.9730 C   0  0  0  0  0  0  0  0  0  0  0  0
   45.6740   79.8180   61.9340 N   0  0  0  0  0  0  0  0  0  0  0  0
   44.5140   80.4160   61.5970 C   0  0  0  0  0  0  0  0  0  0  0  0
   43.5560   80.1740   60.6220 C   0  0  0  0  0  0  0  0  0  0  0  0
   39.7510   84.6090   60.2880 C   0  0  0  0  0  0  0  0  0  0  0  0
   40.9650   83.8900   60.3200 C   0  0  0  0  0  0  0  0  0  0  0  0
   41.0790   82.8880   61.2570 C   0  0  0  0  0  0  0  0  0  0  0  0
   40.0440   82.6490   62.0830 N   0  0  0  0  0  0  0  0  0  0  0  0
   38.8870   83.3570   62.0290 C   0  0  0  0  0  0  0  0  0  0  0  0
   38.7340   84.3450   61.1280 N   0  0  0  0  0  0  0  0  0  0  0  0
   41.5460   80.6920   59.5500 O   0  0  0  0  0  0  0  0  0  0  0  0
   40.1040   79.1860   58.3900 C   0  0  0  0  0  0  0  0  0  0  0  0
   40.8100   79.5470   59.5100 C   0  0  0  0  0  0  0  0  0  0  0  0
   40.7320   78.6750   60.6050 C   0  0  0  0  0  0  0  0  0  0  0  0
   39.9810   77.5200   60.5460 C   0  0  0  0  0  0  0  0  0  0  0  0
   39.7340   76.5250   61.4260 N   0  0  0  0  0  0  0  0  0  0  0  0
   38.9340   75.6280   60.8730 N   0  0  0  0  0  0  0  0  0  0  0  0
   38.6460   76.0340   59.6040 C   0  0  0  0  0  0  0  0  0  0  0  0
   39.3030   77.2270   59.3900 C   0  0  0  0  0  0  0  0  0  0  0  0
   39.3450   78.0460   58.2900 C   0  0  0  0  0  0  0  0  0  0  0  0
   38.6100   77.7030   57.0780 C   0  0  0  0  0  0  0  0  0  0  0  0
   37.2770   78.0610   56.8620 C   0  0  0  0  0  0  0  0  0  0  0  0
   36.9930   77.5440   55.6180 C   0  0  0  0  0  0  0  0  0  0  0  0
   38.0840   76.9120   55.1060 N   0  0  0  0  0  0  0  0  0  0  0  0
   39.0390   77.0270   56.0130 N   0  0  0  0  0  0  0  0  0  0  0  0
   43.1079   83.1500   63.0807 H   0  0  0  0  0  0  0  0  0  0  0  0
   45.5955   82.1529   64.0721 H   0  0  0  0  0  0  0  0  0  0  0  0
   47.1906   80.1862   63.4599 H   0  0  0  0  0  0  0  0  0  0  0  0
   43.6679   79.3375   59.9165 H   0  0  0  0  0  0  0  0  0  0  0  0
   39.6320   85.4150   59.5489 H   0  0  0  0  0  0  0  0  0  0  0  0
   41.7859   84.1207   59.6251 H   0  0  0  0  0  0  0  0  0  0  0  0
   38.0693   83.1217   62.7261 H   0  0  0  0  0  0  0  0  0  0  0  0
   40.1490   79.8527   57.5162 H   0  0  0  0  0  0  0  0  0  0  0  0
   41.2797   78.9165   61.5278 H   0  0  0  0  0  0  0  0  0  0  0  0
   40.1115   76.4727   62.3829 H   0  0  0  0  0  0  0  0  0  0  0  0
   38.0058   75.5058   58.8820 H   0  0  0  0  0  0  0  0  0  0  0  0
   36.6096   78.6248   57.5304 H   0  0  0  0  0  0  0  0  0  0  0  0
   36.0213   77.6297   55.1097 H   0  0  0  0  0  0  0  0  0  0  0  0
   38.1522   76.4385   54.1938 H   0  0  0  0  0  0  0  0  0  0  0  0
  1  9  2  0
  1  2  1  0
  2  3  2  0
  3  4  1  0
  4  5  1  0
  6  5  1  0
  7  6  2  0
  8  7  1  0
  8  4  2  0
  9  8  1  0
 10 11  2  0
 10 15  1  0
 11 12  1  0
 12  2  1  0
 12 13  2  0
 14 13  1  0
 15 14  2  0
 16  1  1  0
 17 18  2  0
 18 16  1  0
 18 19  1  0
 20 19  2  0
 20 21  1  0
 22 21  1  0
 23 22  2  0
 24 23  1  0
 24 20  1  0
 25 17  1  0
 25 24  2  0
 26 25  1  0
 27 26  1  0
 28 27  2  0
 29 28  1  0
 29 30  1  0
 30 26  2  0
  3 31  1  0
  5 32  1  0
  6 33  1  0
  9 34  1  0
 10 35  1  0
 11 36  1  0
 14 37  1  0
 17 38  1  0
 19 39  1  0
 21 40  1  0
 23 41  1  0
 27 42  1  0
 28 43  1  0
 29 44  1  0
M  END
>  <Score>  (1) 
-7.33113

>  <Score_dual>  (1) 
-7.42

>  <Choices>  (1) 
[None, 8, ['34-23', 60], 15, ['2-1', 0], 23, ['54-21', 15], 36, ['22-8', 345]]

$$$$
