
     RDKit          3D

 57 61  0  0  1  0  0  0  0  0999 V2000
   41.0910   81.4380   61.9250 C   0  0  0  0  0  0  0  0  0  0  0  0
   41.7320   80.2810   62.0320 C   0  0  0  0  0  0  0  0  0  0  0  0
   41.4350   79.2580   61.1770 C   0  0  0  0  0  0  0  0  0  0  0  0
   40.4820   79.4930   60.2510 C   0  0  0  0  0  0  0  0  0  0  0  0
   39.9760   81.2130   60.5850 S   0  0  0  0  0  0  0  0  0  0  0  0
   41.2240   82.6960   62.7220 C   0  0  0  0  0  0  0  0  0  0  0  0
   42.0210   83.7070   62.3000 C   0  0  0  0  0  0  0  0  0  0  0  0
   42.0890   84.8400   63.0970 C   0  0  0  0  0  0  0  0  0  0  0  0
   41.3640   84.8620   64.2330 N   0  0  0  0  0  0  0  0  0  0  0  0
   40.5750   83.8340   64.6280 C   0  0  0  0  0  0  0  0  0  0  0  0
   40.5110   82.7490   63.8640 N   0  0  0  0  0  0  0  0  0  0  0  0
   42.8370   83.7660   61.0890 C   0  0  0  0  0  0  0  0  0  0  0  0
   43.8860   83.0380   60.6370 C   0  0  0  0  0  0  0  0  0  0  0  0
   44.4880   83.2870   59.4600 C   0  0  0  0  0  0  0  0  0  0  0  0
   44.0080   84.3170   58.7100 C   0  0  0  0  0  0  0  0  0  0  0  0
   42.9520   85.0700   59.1380 C   0  0  0  0  0  0  0  0  0  0  0  0
   42.3470   84.8010   60.3450 N   0  0  0  0  0  0  0  0  0  0  0  0
   42.4800   86.1850   58.2580 C   0  0  0  0  0  0  0  0  0  0  0  0
   41.2020   85.7710   57.6000 C   0  0  0  0  0  0  0  0  0  0  0  0
   39.9220   78.6440   59.1960 C   0  0  0  0  0  0  0  0  0  0  0  0
   39.4400   77.4250   59.3830 N   0  0  0  0  0  0  0  0  0  0  0  0
   39.0380   76.8990   58.2060 C   0  0  0  0  0  0  0  0  0  0  0  0
   39.1900   77.8670   57.3060 N   0  0  0  0  0  0  0  0  0  0  0  0
   39.7840   78.9090   57.8740 N   0  0  0  0  0  0  0  0  0  0  0  0
   38.9880   76.3060   55.4180 C   0  0  1  0  0  0  0  0  0  0  0  0
   39.2970   77.6870   55.9060 C   0  0  1  0  0  0  0  0  0  0  0  0
   38.7470   78.7070   55.1360 O   0  0  0  0  0  0  0  0  0  0  0  0
   37.4070   78.6370   54.9020 C   0  0  0  0  0  0  0  0  0  0  0  0
   36.8830   77.2550   54.6530 C   0  0  2  0  0  0  0  0  0  0  0  0
   38.0490   76.3900   54.2190 C   0  0  2  0  0  0  0  0  0  0  0  0
   40.1000   75.5950   54.9630 O   0  0  0  0  0  0  0  0  0  0  0  0
   35.8890   77.2900   53.6540 O   0  0  0  0  0  0  0  0  0  0  0  0
   37.6160   75.1200   53.8380 O   0  0  0  0  0  0  0  0  0  0  0  0
   42.5006   80.1461   62.8073 H   0  0  0  0  0  0  0  0  0  0  0  0
   41.9489   78.2875   61.2404 H   0  0  0  0  0  0  0  0  0  0  0  0
   42.7169   85.6964   62.8101 H   0  0  0  0  0  0  0  0  0  0  0  0
   39.9987   83.8964   65.5629 H   0  0  0  0  0  0  0  0  0  0  0  0
   44.2606   82.2102   61.2570 H   0  0  0  0  0  0  0  0  0  0  0  0
   45.3381   82.6798   59.1156 H   0  0  0  0  0  0  0  0  0  0  0  0
   44.4788   84.5466   57.7427 H   0  0  0  0  0  0  0  0  0  0  0  0
   42.3087   87.0871   58.8638 H   0  0  0  0  0  0  0  0  0  0  0  0
   43.2398   86.4055   57.4938 H   0  0  0  0  0  0  0  0  0  0  0  0
   40.4548   85.5289   58.3701 H   0  0  0  0  0  0  0  0  0  0  0  0
   40.8289   86.5942   56.9730 H   0  0  0  0  0  0  0  0  0  0  0  0
   41.3825   84.8854   56.9730 H   0  0  0  0  0  0  0  0  0  0  0  0
   39.6590   76.0301   57.9427 H   0  0  0  0  0  0  0  0  0  0  0  0
   37.9959   76.5499   58.2532 H   0  0  0  0  0  0  0  0  0  0  0  0
   40.0871   79.7686   57.3942 H   0  0  0  0  0  0  0  0  0  0  0  0
   38.5592   75.7875   56.2882 H   0  0  0  0  0  0  0  0  0  0  0  0
   40.3784   77.7865   55.7311 H   0  0  0  0  0  0  0  0  0  0  0  0
   36.8848   79.0480   55.7785 H   0  0  0  0  0  0  0  0  0  0  0  0
   37.2238   79.2081   53.9799 H   0  0  0  0  0  0  0  0  0  0  0  0
   36.4276   76.8413   55.5649 H   0  0  0  0  0  0  0  0  0  0  0  0
   38.5571   76.8220   53.3442 H   0  0  0  0  0  0  0  0  0  0  0  0
   40.6191   75.2631   55.7379 H   0  0  0  0  0  0  0  0  0  0  0  0
   34.9953   77.3215   54.0787 H   0  0  0  0  0  0  0  0  0  0  0  0
   37.4313   74.5782   54.6457 H   0  0  0  0  0  0  0  0  0  0  0  0
  1  2  2  0
  1  6  1  0
  3  2  1  0
  4  5  1  0
  4  3  2  0
  5  1  1  0
  6 11  2  0
  7  6  1  0
  7  8  2  0
  8  9  1  0
  9 10  2  0
 11 10  1  0
 12  7  1  0
 13 12  2  0
 14 13  1  0
 15 16  1  0
 15 14  2  0
 16 17  2  0
 17 12  1  0
 18 16  1  0
 19 18  1  0
 20 21  2  0
 20  4  1  0
 22 21  1  0
 23 24  1  0
 23 22  1  0
 24 20  1  0
 25 31  1  0
 25 26  1  0
 26 27  1  0
 26 23  1  0
 28 27  1  0
 29 32  1  0
 29 28  1  0
 30 33  1  0
 30 29  1  0
 30 25  1  0
  2 34  1  0
  3 35  1  0
  8 36  1  0
 10 37  1  0
 13 38  1  0
 14 39  1  0
 15 40  1  0
 18 41  1  0
 18 42  1  0
 19 43  1  0
 19 44  1  0
 19 45  1  0
 22 46  1  0
 22 47  1  0
 24 48  1  0
 25 49  1  1
 26 50  1  1
 28 51  1  0
 28 52  1  0
 29 53  1  1
 30 54  1  6
 31 55  1  0
 32 56  1  0
 33 57  1  0
M  END
>  <Score>  (1) 
-7.38304

>  <Score_dual>  (1) 
-8.94

>  <Choices>  (1) 
[None, 6, ['25-21', 60], 11, ['6-15', 120], 25, ['4-11', 15], 31, ['57-14', 105], 38, ['21-21', 60]]

$$$$
