
     RDKit          3D

 51 56  0  0  0  0  0  0  0  0999 V2000
   42.3170   83.1990   62.7210 C   0  0  0  0  0  0  0  0  0  0  0  0
   41.0350   83.0000   62.2460 C   0  0  0  0  0  0  0  0  0  0  0  0
   40.0080   83.5180   63.0100 C   0  0  0  0  0  0  0  0  0  0  0  0
   40.1540   84.2130   64.1960 C   0  0  0  0  0  0  0  0  0  0  0  0
   41.4370   84.4060   64.6600 C   0  0  0  0  0  0  0  0  0  0  0  0
   42.4940   83.9030   63.9270 C   0  0  0  0  0  0  0  0  0  0  0  0
   40.4460   82.3020   58.7310 C   0  0  0  0  0  0  0  0  0  0  0  0
   40.2410   80.9160   58.7040 C   0  0  0  0  0  0  0  0  0  0  0  0
   40.3120   80.2360   59.9180 C   0  0  0  0  0  0  0  0  0  0  0  0
   40.5710   80.9310   61.0380 N   0  0  0  0  0  0  0  0  0  0  0  0
   40.7640   82.2810   61.0150 C   0  0  0  0  0  0  0  0  0  0  0  0
   40.7040   82.9690   59.8780 N   0  0  0  0  0  0  0  0  0  0  0  0
   40.4000   78.2050   61.2320 C   0  0  0  0  0  0  0  0  0  0  0  0
   40.1000   78.7960   60.0430 C   0  0  0  0  0  0  0  0  0  0  0  0
   39.6070   78.0100   59.0240 C   0  0  0  0  0  0  0  0  0  0  0  0
   39.4130   76.6390   59.1890 C   0  0  0  0  0  0  0  0  0  0  0  0
   38.9580   75.6630   58.3820 N   0  0  0  0  0  0  0  0  0  0  0  0
   38.9790   74.5030   59.0550 C   0  0  0  0  0  0  0  0  0  0  0  0
   39.4490   74.7500   60.2920 N   0  0  0  0  0  0  0  0  0  0  0  0
   39.7300   76.0690   60.4150 C   0  0  0  0  0  0  0  0  0  0  0  0
   40.2270   76.8370   61.4570 C   0  0  0  0  0  0  0  0  0  0  0  0
   43.6770   82.6540   61.8320 S   0  0  0  0  0  0  0  0  0  0  0  0
   43.6850   83.1320   60.4240 O   0  0  0  0  0  0  0  0  0  0  0  0
   44.9280   83.3280   62.4450 O   0  0  0  0  0  0  0  0  0  0  0  0
   44.1780   80.9940   62.0660 C   0  0  0  0  0  0  0  0  0  0  0  0
   43.5690   79.7980   61.7360 C   0  0  0  0  0  0  0  0  0  0  0  0
   44.1100   78.5760   62.0140 C   0  0  0  0  0  0  0  0  0  0  0  0
   45.3250   78.4580   62.6540 C   0  0  0  0  0  0  0  0  0  0  0  0
   45.8050   77.2270   62.8970 N   0  0  0  0  0  0  0  0  0  0  0  0
   47.0030   77.0470   63.5280 C   0  0  0  0  0  0  0  0  0  0  0  0
   47.6570   78.2140   63.8810 C   0  0  0  0  0  0  0  0  0  0  0  0
   47.1890   79.5090   63.6440 C   0  0  0  0  0  0  0  0  0  0  0  0
   45.9720   79.6240   63.0030 C   0  0  0  0  0  0  0  0  0  0  0  0
   45.4040   80.8480   62.7110 C   0  0  0  0  0  0  0  0  0  0  0  0
   38.9828   83.3639   62.6423 H   0  0  0  0  0  0  0  0  0  0  0  0
   39.2821   84.5961   64.7465 H   0  0  0  0  0  0  0  0  0  0  0  0
   41.6163   84.9514   65.5983 H   0  0  0  0  0  0  0  0  0  0  0  0
   43.5166   84.0590   64.3012 H   0  0  0  0  0  0  0  0  0  0  0  0
   40.3953   82.8657   57.7878 H   0  0  0  0  0  0  0  0  0  0  0  0
   40.0325   80.3865   57.7627 H   0  0  0  0  0  0  0  0  0  0  0  0
   40.7941   78.8290   62.0477 H   0  0  0  0  0  0  0  0  0  0  0  0
   39.3608   78.4750   58.0580 H   0  0  0  0  0  0  0  0  0  0  0  0
   38.6453   75.7864   57.4084 H   0  0  0  0  0  0  0  0  0  0  0  0
   38.6672   73.5229   58.6650 H   0  0  0  0  0  0  0  0  0  0  0  0
   40.4766   76.3845   62.4280 H   0  0  0  0  0  0  0  0  0  0  0  0
   42.5970   79.8327   61.2222 H   0  0  0  0  0  0  0  0  0  0  0  0
   43.5650   77.6665   61.7212 H   0  0  0  0  0  0  0  0  0  0  0  0
   47.4164   76.0498   63.7395 H   0  0  0  0  0  0  0  0  0  0  0  0
   48.6265   78.1139   64.3909 H   0  0  0  0  0  0  0  0  0  0  0  0
   47.7631   80.3948   63.9535 H   0  0  0  0  0  0  0  0  0  0  0  0
   45.9493   81.7574   63.0036 H   0  0  0  0  0  0  0  0  0  0  0  0
  1  6  2  0
  2  1  1  0
  2  3  2  0
  3  4  1  0
  4  5  2  0
  6  5  1  0
  7 12  2  0
  8  7  1  0
  8  9  2  0
  9 14  1  0
  9 10  1  0
 11 10  2  0
 11  2  1  0
 12 11  1  0
 13 21  2  0
 14 13  1  0
 15 16  1  0
 15 14  2  0
 16 20  2  0
 17 18  1  0
 17 16  1  0
 18 19  2  0
 19 20  1  0
 20 21  1  0
 22 25  1  0
 22 24  2  0
 22  1  1  0
 23 22  2  0
 25 34  2  0
 26 27  2  0
 26 25  1  0
 27 28  1  0
 28 29  2  0
 28 33  1  0
 29 30  1  0
 30 31  2  0
 32 31  1  0
 33 32  2  0
 34 33  1  0
  3 35  1  0
  4 36  1  0
  5 37  1  0
  6 38  1  0
  7 39  1  0
  8 40  1  0
 13 41  1  0
 15 42  1  0
 17 43  1  0
 18 44  1  0
 21 45  1  0
 26 46  1  0
 27 47  1  0
 30 48  1  0
 31 49  1  0
 32 50  1  0
 34 51  1  0
M  END
>  <Score>  (1) 
-7.28802

>  <Score_dual>  (1) 
-7.64

>  <Choices>  (1) 
[None, 8, ['34-23', 60], 22, ['27-21', 75], 35, ['36-19', 150]]

$$$$
