
     RDKit          3D

 39 43  0  0  0  0  0  0  0  0999 V2000
   40.2980   80.3030   59.4180 C   0  0  0  0  0  0  0  0  0  0  0  0
   40.1070   79.1690   58.6690 C   0  0  0  0  0  0  0  0  0  0  0  0
   40.7290   78.0070   59.0350 C   0  0  0  0  0  0  0  0  0  0  0  0
   41.5550   77.9610   60.1630 C   0  0  0  0  0  0  0  0  0  0  0  0
   42.2640   76.9760   60.7260 N   0  0  0  0  0  0  0  0  0  0  0  0
   42.9000   77.4650   61.8180 C   0  0  0  0  0  0  0  0  0  0  0  0
   42.5690   78.7660   61.9170 N   0  0  0  0  0  0  0  0  0  0  0  0
   41.7360   79.1140   60.9080 C   0  0  0  0  0  0  0  0  0  0  0  0
   41.1140   80.3040   60.5540 C   0  0  0  0  0  0  0  0  0  0  0  0
   42.4060   82.2620   61.0010 C   0  0  0  0  0  0  0  0  0  0  0  0
   41.3590   81.4450   61.3820 C   0  0  0  0  0  0  0  0  0  0  0  0
   40.5970   81.7260   62.5010 C   0  0  0  0  0  0  0  0  0  0  0  0
   40.9470   82.8510   63.1980 C   0  0  0  0  0  0  0  0  0  0  0  0
   40.4370   83.4170   64.3120 N   0  0  0  0  0  0  0  0  0  0  0  0
   41.1110   84.5430   64.6470 C   0  0  0  0  0  0  0  0  0  0  0  0
   42.0740   84.7090   63.7320 N   0  0  0  0  0  0  0  0  0  0  0  0
   41.9950   83.7090   62.8570 C   0  0  0  0  0  0  0  0  0  0  0  0
   42.7250   83.3820   61.7270 C   0  0  0  0  0  0  0  0  0  0  0  0
   38.3660   80.3270   55.5380 C   0  0  0  0  0  0  0  0  0  0  0  0
   39.2600   80.3440   56.6190 C   0  0  0  0  0  0  0  0  0  0  0  0
   39.2350   79.2810   57.5050 C   0  0  0  0  0  0  0  0  0  0  0  0
   38.3480   78.2660   57.2910 N   0  0  0  0  0  0  0  0  0  0  0  0
   37.4950   78.2960   56.2190 C   0  0  0  0  0  0  0  0  0  0  0  0
   37.4980   79.3090   55.3500 N   0  0  0  0  0  0  0  0  0  0  0  0
   36.5880   77.1090   56.1280 C   0  0  0  0  0  0  0  0  0  0  0  0
   35.5590   77.1840   57.0350 F   0  0  0  0  0  0  0  0  0  0  0  0
   36.1030   77.1190   54.8180 F   0  0  0  0  0  0  0  0  0  0  0  0
   37.3830   75.9910   56.3240 F   0  0  0  0  0  0  0  0  0  0  0  0
   39.7966   81.2348   59.1173 H   0  0  0  0  0  0  0  0  0  0  0  0
   40.5778   77.0976   58.4349 H   0  0  0  0  0  0  0  0  0  0  0  0
   42.3176   76.0054   60.3854 H   0  0  0  0  0  0  0  0  0  0  0  0
   43.5615   76.9049   62.4953 H   0  0  0  0  0  0  0  0  0  0  0  0
   42.9915   82.0115   60.1041 H   0  0  0  0  0  0  0  0  0  0  0  0
   39.7598   81.0841   62.8125 H   0  0  0  0  0  0  0  0  0  0  0  0
   39.6369   83.0405   64.8403 H   0  0  0  0  0  0  0  0  0  0  0  0
   40.9061   85.1969   65.5075 H   0  0  0  0  0  0  0  0  0  0  0  0
   43.5624   84.0212   61.4105 H   0  0  0  0  0  0  0  0  0  0  0  0
   38.3719   81.1645   54.8248 H   0  0  0  0  0  0  0  0  0  0  0  0
   39.9618   81.1795   56.7586 H   0  0  0  0  0  0  0  0  0  0  0  0
  1  9  2  0
  2  3  2  0
  2  1  1  0
  3  4  1  0
  4  5  1  0
  4  8  2  0
  5  6  1  0
  6  7  2  0
  8  7  1  0
  9  8  1  0
  9 11  1  0
 10 11  2  0
 10 18  1  0
 11 12  1  0
 12 13  2  0
 13 14  1  0
 14 15  1  0
 16 15  2  0
 17 13  1  0
 17 16  1  0
 18 17  2  0
 19 20  2  0
 20 21  1  0
 21  2  1  0
 22 21  2  0
 23 22  1  0
 24 19  1  0
 24 23  2  0
 25 23  1  0
 25 28  1  0
 25 26  1  0
 27 25  1  0
  1 29  1  0
  3 30  1  0
  5 31  1  0
  6 32  1  0
 10 33  1  0
 12 34  1  0
 14 35  1  0
 15 36  1  0
 18 37  1  0
 19 38  1  0
 20 39  1  0
M  END
>  <Score>  (1) 
-7.05517

>  <Score_dual>  (1) 
-7.26

>  <Choices>  (1) 
[None, 8, ['34-23', 60], 19, ['34-22', 180], 35, ['11-11', 300]]

$$$$
