
     RDKit          3D

 47 52  0  0  0  0  0  0  0  0999 V2000
   41.7360   80.8360   59.6330 O   0  0  0  0  0  0  0  0  0  0  0  0
   42.5950   81.2040   60.6560 C   0  0  0  0  0  0  0  0  0  0  0  0
   42.3500   82.2260   61.5040 C   0  0  0  0  0  0  0  0  0  0  0  0
   43.2910   82.5040   62.4970 C   0  0  0  0  0  0  0  0  0  0  0  0
   44.4590   81.7420   62.6110 C   0  0  0  0  0  0  0  0  0  0  0  0
   45.5040   81.8030   63.4620 N   0  0  0  0  0  0  0  0  0  0  0  0
   46.3690   80.8190   63.1200 C   0  0  0  0  0  0  0  0  0  0  0  0
   45.8600   80.1590   62.0680 N   0  0  0  0  0  0  0  0  0  0  0  0
   44.6680   80.7070   61.7210 C   0  0  0  0  0  0  0  0  0  0  0  0
   43.7450   80.4090   60.7210 C   0  0  0  0  0  0  0  0  0  0  0  0
   39.7240   84.6520   60.3560 C   0  0  0  0  0  0  0  0  0  0  0  0
   40.9730   84.0000   60.4050 C   0  0  0  0  0  0  0  0  0  0  0  0
   41.1210   82.9830   61.3410 C   0  0  0  0  0  0  0  0  0  0  0  0
   40.0810   82.6830   62.1340 N   0  0  0  0  0  0  0  0  0  0  0  0
   38.8860   83.3270   62.0660 C   0  0  0  0  0  0  0  0  0  0  0  0
   38.6990   84.3180   61.1740 N   0  0  0  0  0  0  0  0  0  0  0  0
   40.2030   79.3530   58.5340 C   0  0  0  0  0  0  0  0  0  0  0  0
   41.0060   79.6850   59.5970 C   0  0  0  0  0  0  0  0  0  0  0  0
   41.0310   78.7640   60.6500 C   0  0  0  0  0  0  0  0  0  0  0  0
   40.2900   77.5930   60.6150 C   0  0  0  0  0  0  0  0  0  0  0  0
   40.1350   76.5550   61.4750 N   0  0  0  0  0  0  0  0  0  0  0  0
   39.2960   75.6760   60.9480 N   0  0  0  0  0  0  0  0  0  0  0  0
   38.8900   76.1360   59.7260 C   0  0  0  0  0  0  0  0  0  0  0  0
   39.5190   77.3390   59.5240 C   0  0  0  0  0  0  0  0  0  0  0  0
   39.4470   78.1990   58.4550 C   0  0  0  0  0  0  0  0  0  0  0  0
   38.6600   78.0110   57.2650 C   0  0  0  0  0  0  0  0  0  0  0  0
   37.4020   77.4490   57.4560 C   0  0  0  0  0  0  0  0  0  0  0  0
   36.5610   77.2260   56.3610 C   0  0  0  0  0  0  0  0  0  0  0  0
   36.9640   77.5560   55.0860 C   0  0  0  0  0  0  0  0  0  0  0  0
   38.2090   78.1140   54.8800 C   0  0  0  0  0  0  0  0  0  0  0  0
   39.0020   78.3160   55.9860 C   0  0  0  0  0  0  0  0  0  0  0  0
   43.1121   83.3322   63.1984 H   0  0  0  0  0  0  0  0  0  0  0  0
   45.6224   82.4762   64.2325 H   0  0  0  0  0  0  0  0  0  0  0  0
   47.3244   80.5985   63.6185 H   0  0  0  0  0  0  0  0  0  0  0  0
   43.9129   79.5842   60.0128 H   0  0  0  0  0  0  0  0  0  0  0  0
   39.5773   85.4618   59.6262 H   0  0  0  0  0  0  0  0  0  0  0  0
   41.7951   84.2839   59.7315 H   0  0  0  0  0  0  0  0  0  0  0  0
   38.0684   83.0374   62.7425 H   0  0  0  0  0  0  0  0  0  0  0  0
   40.1584   80.0537   57.6872 H   0  0  0  0  0  0  0  0  0  0  0  0
   41.6561   78.9750   61.5302 H   0  0  0  0  0  0  0  0  0  0  0  0
   40.5963   76.4650   62.3915 H   0  0  0  0  0  0  0  0  0  0  0  0
   38.1927   75.6373   59.0367 H   0  0  0  0  0  0  0  0  0  0  0  0
   37.0684   77.1798   58.4690 H   0  0  0  0  0  0  0  0  0  0  0  0
   35.5671   76.7823   56.5198 H   0  0  0  0  0  0  0  0  0  0  0  0
   36.2939   77.3749   54.2327 H   0  0  0  0  0  0  0  0  0  0  0  0
   38.5538   78.3865   53.8716 H   0  0  0  0  0  0  0  0  0  0  0  0
   39.9944   78.7610   55.8212 H   0  0  0  0  0  0  0  0  0  0  0  0
  1  2  1  0
  2 10  2  0
  2  3  1  0
  3  4  2  0
  4  5  1  0
  5  6  1  0
  7  6  1  0
  8  7  2  0
  9  8  1  0
  9  5  2  0
 10  9  1  0
 11 12  2  0
 11 16  1  0
 12 13  1  0
 13  3  1  0
 13 14  2  0
 15 14  1  0
 16 15  2  0
 17 18  2  0
 18  1  1  0
 18 19  1  0
 20 19  2  0
 20 21  1  0
 22 21  1  0
 23 22  2  0
 24 23  1  0
 24 20  1  0
 25 17  1  0
 25 24  2  0
 26 27  2  0
 26 25  1  0
 28 27  1  0
 29 28  2  0
 30 29  1  0
 30 31  2  0
 31 26  1  0
  4 32  1  0
  6 33  1  0
  7 34  1  0
 10 35  1  0
 11 36  1  0
 12 37  1  0
 15 38  1  0
 17 39  1  0
 19 40  1  0
 21 41  1  0
 23 42  1  0
 27 43  1  0
 28 44  1  0
 29 45  1  0
 30 46  1  0
 31 47  1  0
M  END
>  <Score>  (1) 
-7.77171

>  <Score_dual>  (1) 
-7.16

>  <Choices>  (1) 
[None, 8, ['34-23', 60], 15, ['2-1', 0], 23, ['54-21', 15], 36, ['1-27', 165]]

$$$$
