
     RDKit          3D

 48 52  0  0  0  0  0  0  0  0999 V2000
   40.7720   83.9060   60.5680 C   0  0  0  0  0  0  0  0  0  0  0  0
   40.9740   82.5340   60.7250 C   0  0  0  0  0  0  0  0  0  0  0  0
   40.1010   81.7570   61.4820 C   0  0  0  0  0  0  0  0  0  0  0  0
   39.0470   82.4030   62.0580 N   0  0  0  0  0  0  0  0  0  0  0  0
   38.8360   83.7190   61.9180 C   0  0  0  0  0  0  0  0  0  0  0  0
   39.6820   84.4570   61.1880 N   0  0  0  0  0  0  0  0  0  0  0  0
   41.5230   84.8580   59.8320 C   0  0  0  0  0  0  0  0  0  0  0  0
   40.9710   85.2940   58.6030 C   0  0  0  0  0  0  0  0  0  0  0  0
   41.5550   86.2150   57.7470 C   0  0  0  0  0  0  0  0  0  0  0  0
   42.7580   86.7580   58.0940 C   0  0  0  0  0  0  0  0  0  0  0  0
   43.3340   86.3770   59.2570 C   0  0  0  0  0  0  0  0  0  0  0  0
   44.5610   86.9200   59.6260 C   0  0  0  0  0  0  0  0  0  0  0  0
   45.2210   86.5840   60.8010 C   0  0  0  0  0  0  0  0  0  0  0  0
   44.5560   85.6450   61.6070 C   0  0  0  0  0  0  0  0  0  0  0  0
   43.3540   85.1230   61.2310 C   0  0  0  0  0  0  0  0  0  0  0  0
   42.7260   85.4650   60.0780 C   0  0  0  0  0  0  0  0  0  0  0  0
   40.3600   80.3700   61.5970 C   0  0  0  0  0  0  0  0  0  0  0  0
   40.6720   79.7640   62.6600 O   0  0  0  0  0  0  0  0  0  0  0  0
   40.6940   77.7090   62.1160 F   0  0  0  0  0  0  0  0  0  0  0  0
   40.4750   78.1360   60.8250 C   0  0  0  0  0  0  0  0  0  0  0  0
   40.2840   79.4700   60.4270 C   0  0  0  0  0  0  0  0  0  0  0  0
   40.0650   79.7540   59.1070 C   0  0  0  0  0  0  0  0  0  0  0  0
   40.0410   78.7180   58.2150 C   0  0  0  0  0  0  0  0  0  0  0  0
   40.2250   77.4130   58.5800 C   0  0  0  0  0  0  0  0  0  0  0  0
   40.4480   77.1110   59.9110 C   0  0  0  0  0  0  0  0  0  0  0  0
   40.6360   75.7430   60.2550 N   0  0  0  0  0  0  0  0  0  0  0  0
   41.8410   75.1120   60.3380 C   0  0  0  0  0  0  0  0  0  0  0  0
   41.8820   73.7770   60.6830 C   0  0  0  0  0  0  0  0  0  0  0  0
   40.7450   73.0380   60.9520 C   0  0  0  0  0  0  0  0  0  0  0  0
   40.8150   71.8280   61.2620 O   0  0  0  0  0  0  0  0  0  0  0  0
   39.5650   73.7070   60.8580 N   0  0  0  0  0  0  0  0  0  0  0  0
   39.5070   75.0220   60.5190 C   0  0  0  0  0  0  0  0  0  0  0  0
   38.3460   75.5270   60.4660 O   0  0  0  0  0  0  0  0  0  0  0  0
   41.8394   82.0573   60.2415 H   0  0  0  0  0  0  0  0  0  0  0  0
   37.9690   84.1923   62.4021 H   0  0  0  0  0  0  0  0  0  0  0  0
   40.0019   84.8681   58.3037 H   0  0  0  0  0  0  0  0  0  0  0  0
   41.0592   86.5020   56.8080 H   0  0  0  0  0  0  0  0  0  0  0  0
   43.2504   87.4924   57.4396 H   0  0  0  0  0  0  0  0  0  0  0  0
   45.0318   87.6520   58.9534 H   0  0  0  0  0  0  0  0  0  0  0  0
   46.1916   87.0204   61.0796 H   0  0  0  0  0  0  0  0  0  0  0  0
   45.0120   85.3261   62.5559 H   0  0  0  0  0  0  0  0  0  0  0  0
   42.8706   84.3900   61.8936 H   0  0  0  0  0  0  0  0  0  0  0  0
   39.9120   80.7903   58.7714 H   0  0  0  0  0  0  0  0  0  0  0  0
   39.8653   78.9451   57.1531 H   0  0  0  0  0  0  0  0  0  0  0  0
   40.1960   76.6138   57.8247 H   0  0  0  0  0  0  0  0  0  0  0  0
   42.7714   75.6615   60.1320 H   0  0  0  0  0  0  0  0  0  0  0  0
   42.8609   73.2793   60.7468 H   0  0  0  0  0  0  0  0  0  0  0  0
   38.6881   73.2018   61.0496 H   0  0  0  0  0  0  0  0  0  0  0  0
  1  2  2  0
  1  6  1  0
  2  3  1  0
  3 17  1  0
  3  4  2  0
  5  4  1  0
  6  5  2  0
  7 16  1  0
  7  1  1  0
  8  7  2  0
  9 10  2  0
  9  8  1  0
 10 11  1  0
 11 12  1  0
 11 16  2  0
 12 13  2  0
 13 14  1  0
 15 14  2  0
 16 15  1  0
 17 18  2  0
 20 19  1  0
 21 20  2  0
 21 17  1  0
 22 21  1  0
 23 24  1  0
 23 22  2  0
 24 25  2  0
 25 26  1  0
 25 20  1  0
 26 27  1  0
 26 32  1  0
 27 28  2  0
 28 29  1  0
 29 30  2  0
 31 29  1  0
 32 31  1  0
 33 32  2  0
  2 34  1  0
  5 35  1  0
  8 36  1  0
  9 37  1  0
 10 38  1  0
 12 39  1  0
 13 40  1  0
 14 41  1  0
 15 42  1  0
 22 43  1  0
 23 44  1  0
 24 45  1  0
 27 46  1  0
 28 47  1  0
 31 48  1  0
M  END
>  <Score>  (1) 
-7.95246

>  <Score_dual>  (1) 
-9.04

>  <Choices>  (1) 
[None, 8, ['5-9', 180], 8, ['26-25', 345], 27, ['9-4', 240], 37, ['37-12', 195]]

$$$$
