
     RDKit          3D

 49 53  0  0  0  0  0  0  0  0999 V2000
   40.1750   76.3950   60.6270 C   0  0  0  0  0  0  0  0  0  0  0  0
   40.5380   78.8680   59.9980 C   0  0  0  0  0  0  0  0  0  0  0  0
   40.3530   77.8350   60.9070 C   0  0  0  0  0  0  0  0  0  0  0  0
   40.3230   78.1380   62.2480 C   0  0  0  0  0  0  0  0  0  0  0  0
   40.4770   79.4380   62.6400 N   0  0  0  0  0  0  0  0  0  0  0  0
   40.6580   80.4270   61.7130 C   0  0  0  0  0  0  0  0  0  0  0  0
   40.6860   80.1290   60.4240 N   0  0  0  0  0  0  0  0  0  0  0  0
   40.8240   81.8010   62.0380 N   0  0  0  0  0  0  0  0  0  0  0  0
   39.9000   82.9140   61.9260 C   0  0  0  0  0  0  0  0  0  0  0  0
   40.1910   83.6160   63.2570 C   0  0  0  0  0  0  0  0  0  0  0  0
   41.6970   83.6910   63.1740 C   0  0  0  0  0  0  0  0  0  0  0  0
   42.0440   82.3480   62.5780 C   0  0  0  0  0  0  0  0  0  0  0  0
   39.5850   76.1060   59.3290 C   0  0  0  0  0  0  0  0  0  0  0  0
   38.4640   76.7800   58.8750 C   0  0  0  0  0  0  0  0  0  0  0  0
   37.8950   76.5090   57.6340 C   0  0  0  0  0  0  0  0  0  0  0  0
   38.5210   75.5150   56.8670 C   0  0  0  0  0  0  0  0  0  0  0  0
   39.6280   74.8520   57.3200 C   0  0  0  0  0  0  0  0  0  0  0  0
   40.1710   75.1500   58.5690 C   0  0  0  0  0  0  0  0  0  0  0  0
   41.3050   74.4460   58.9920 O   0  0  0  0  0  0  0  0  0  0  0  0
   41.2160   72.1560   58.3610 C   0  0  0  0  0  0  0  0  0  0  0  0
   41.2860   73.1340   59.3580 C   0  0  0  0  0  0  0  0  0  0  0  0
   41.3300   72.6420   60.6510 C   0  0  0  0  0  0  0  0  0  0  0  0
   41.3070   71.2920   60.9270 C   0  0  0  0  0  0  0  0  0  0  0  0
   41.3390   70.5720   62.0860 N   0  0  0  0  0  0  0  0  0  0  0  0
   41.2910   69.2590   61.7880 C   0  0  0  0  0  0  0  0  0  0  0  0
   41.2290   69.1610   60.4470 N   0  0  0  0  0  0  0  0  0  0  0  0
   41.2380   70.3810   59.9090 C   0  0  0  0  0  0  0  0  0  0  0  0
   41.1900   70.7880   58.5920 C   0  0  0  0  0  0  0  0  0  0  0  0
   41.1616   75.9107   60.6725 H   0  0  0  0  0  0  0  0  0  0  0  0
   39.4750   76.0111   61.3837 H   0  0  0  0  0  0  0  0  0  0  0  0
   40.5632   78.6491   58.9203 H   0  0  0  0  0  0  0  0  0  0  0  0
   40.1769   77.3443   62.9954 H   0  0  0  0  0  0  0  0  0  0  0  0
   40.1328   83.5559   61.0636 H   0  0  0  0  0  0  0  0  0  0  0  0
   38.8484   82.6360   61.7623 H   0  0  0  0  0  0  0  0  0  0  0  0
   39.7322   84.6147   63.3033 H   0  0  0  0  0  0  0  0  0  0  0  0
   39.7955   83.1099   64.1500 H   0  0  0  0  0  0  0  0  0  0  0  0
   42.0211   84.5144   62.5205 H   0  0  0  0  0  0  0  0  0  0  0  0
   42.1858   83.8882   64.1395 H   0  0  0  0  0  0  0  0  0  0  0  0
   42.4456   81.6816   63.3556 H   0  0  0  0  0  0  0  0  0  0  0  0
   42.8096   82.4510   61.7949 H   0  0  0  0  0  0  0  0  0  0  0  0
   38.0099   77.5520   59.5136 H   0  0  0  0  0  0  0  0  0  0  0  0
   37.0039   77.0445   57.2746 H   0  0  0  0  0  0  0  0  0  0  0  0
   38.1116   75.2629   55.8776 H   0  0  0  0  0  0  0  0  0  0  0  0
   40.0939   74.0770   56.6936 H   0  0  0  0  0  0  0  0  0  0  0  0
   41.1788   72.4965   57.3157 H   0  0  0  0  0  0  0  0  0  0  0  0
   41.3853   73.3537   61.4879 H   0  0  0  0  0  0  0  0  0  0  0  0
   41.3914   70.9684   63.0352 H   0  0  0  0  0  0  0  0  0  0  0  0
   41.3007   68.4248   62.5050 H   0  0  0  0  0  0  0  0  0  0  0  0
   41.1339   70.0640   57.7657 H   0  0  0  0  0  0  0  0  0  0  0  0
  1  3  1  0
  2  7  2  0
  2  3  1  0
  3  4  2  0
  4  5  1  0
  6  8  1  0
  6  5  2  0
  7  6  1  0
  8 12  1  0
  9  8  1  0
  9 10  1  0
 11 10  1  0
 12 11  1  0
 13  1  1  0
 14 13  2  0
 15 14  1  0
 16 17  1  0
 16 15  2  0
 17 18  2  0
 18 19  1  0
 18 13  1  0
 19 21  1  0
 20 28  2  0
 20 21  1  0
 21 22  2  0
 22 23  1  0
 23 24  1  0
 25 24  1  0
 26 25  2  0
 27 26  1  0
 27 23  2  0
 28 27  1  0
  1 29  1  0
  1 30  1  0
  2 31  1  0
  4 32  1  0
  9 33  1  0
  9 34  1  0
 10 35  1  0
 10 36  1  0
 11 37  1  0
 11 38  1  0
 12 39  1  0
 12 40  1  0
 14 41  1  0
 15 42  1  0
 16 43  1  0
 17 44  1  0
 20 45  1  0
 22 46  1  0
 24 47  1  0
 25 48  1  0
 28 49  1  0
M  END
>  <Score>  (1) 
-7.07022

>  <Score_dual>  (1) 
-7.06

>  <Choices>  (1) 
[None, 7, ['3-10', 0], 12, ['1-23', 180], 22, ['2-1', 0], 23, ['13-6', 75], 35, ['34-16', 15]]

$$$$
