
     RDKit          3D

 45 48  0  0  0  0  0  0  0  0999 V2000
   40.2930   80.1980   54.8880 Cl  0  0  0  0  0  0  0  0  0  0  0  0
   40.5190   81.1090   56.4070 C   0  0  0  0  0  0  0  0  0  0  0  0
   39.8910   80.6470   57.5540 C   0  0  0  0  0  0  0  0  0  0  0  0
   40.0340   81.3130   58.7460 C   0  0  0  0  0  0  0  0  0  0  0  0
   40.8210   82.4500   58.7590 C   0  0  0  0  0  0  0  0  0  0  0  0
   41.4470   82.9180   57.6390 C   0  0  0  0  0  0  0  0  0  0  0  0
   41.2880   82.2350   56.4530 C   0  0  0  0  0  0  0  0  0  0  0  0
   40.9620   83.1440   60.0350 C   0  0  0  0  0  0  0  0  0  0  0  0
   42.0110   84.0010   60.3940 C   0  0  0  0  0  0  0  0  0  0  0  0
   41.6960   84.3930   61.6610 N   0  0  0  0  0  0  0  0  0  0  0  0
   40.5450   83.8300   62.0650 C   0  0  0  0  0  0  0  0  0  0  0  0
   40.0950   83.0630   61.0640 N   0  0  0  0  0  0  0  0  0  0  0  0
   40.5920   84.2340   64.5180 C   0  0  0  0  0  0  0  0  0  0  0  0
   41.8740   84.3210   64.5000 O   0  0  0  0  0  0  0  0  0  0  0  0
   39.8850   83.9870   63.3140 N   0  0  0  0  0  0  0  0  0  0  0  0
   37.1890   78.3400   56.6460 C   0  0  0  0  0  0  0  0  0  0  0  0
   37.5420   77.1450   57.2700 C   0  0  0  0  0  0  0  0  0  0  0  0
   38.7150   77.1520   58.0000 C   0  0  0  0  0  0  0  0  0  0  0  0
   39.4550   78.2830   58.0810 N   0  0  0  0  0  0  0  0  0  0  0  0
   39.0680   79.4220   57.4530 C   0  0  0  0  0  0  0  0  0  0  0  0
   37.9240   79.4590   56.7270 N   0  0  0  0  0  0  0  0  0  0  0  0
   39.2160   75.9610   58.7150 C   0  0  0  0  0  0  0  0  0  0  0  0
   38.5700   75.7160   60.0390 C   0  0  0  0  0  0  0  0  0  0  0  0
   38.2730   74.2500   60.2200 C   0  0  0  0  0  0  0  0  0  0  0  0
   39.3370   73.4410   59.8210 O   0  0  0  0  0  0  0  0  0  0  0  0
   39.6840   73.5850   58.5040 C   0  0  0  0  0  0  0  0  0  0  0  0
   38.9690   74.7430   57.8350 C   0  0  0  0  0  0  0  0  0  0  0  0
   39.5390   80.9541   59.6604 H   0  0  0  0  0  0  0  0  0  0  0  0
   42.0677   83.8250   57.6831 H   0  0  0  0  0  0  0  0  0  0  0  0
   41.7827   82.5987   55.5403 H   0  0  0  0  0  0  0  0  0  0  0  0
   42.8856   84.2903   59.7929 H   0  0  0  0  0  0  0  0  0  0  0  0
   42.2642   85.0348   62.2321 H   0  0  0  0  0  0  0  0  0  0  0  0
   40.0446   84.3508   65.4649 H   0  0  0  0  0  0  0  0  0  0  0  0
   38.8577   83.9190   63.3456 H   0  0  0  0  0  0  0  0  0  0  0  0
   36.2603   78.3669   56.0571 H   0  0  0  0  0  0  0  0  0  0  0  0
   36.9188   76.2425   57.1857 H   0  0  0  0  0  0  0  0  0  0  0  0
   40.2826   76.1407   58.9154 H   0  0  0  0  0  0  0  0  0  0  0  0
   39.2473   76.0493   60.8391 H   0  0  0  0  0  0  0  0  0  0  0  0
   37.6252   76.2776   60.0824 H   0  0  0  0  0  0  0  0  0  0  0  0
   38.0636   74.0601   61.2831 H   0  0  0  0  0  0  0  0  0  0  0  0
   37.4067   74.0018   59.5892 H   0  0  0  0  0  0  0  0  0  0  0  0
   40.7686   73.7579   58.4425 H   0  0  0  0  0  0  0  0  0  0  0  0
   39.3892   72.6641   57.9795 H   0  0  0  0  0  0  0  0  0  0  0  0
   39.3766   74.9118   56.8273 H   0  0  0  0  0  0  0  0  0  0  0  0
   37.8936   74.5399   57.7247 H   0  0  0  0  0  0  0  0  0  0  0  0
  1  2  1  0
  2  7  2  0
  2  3  1  0
  3  4  2  0
  4  5  1  0
  5  8  1  0
  6  5  2  0
  7  6  1  0
  8  9  2  0
  8 12  1  0
  9 10  1  0
 10 11  1  0
 11 15  1  0
 12 11  2  0
 14 13  2  0
 15 13  1  0
 16 21  2  0
 16 17  1  0
 17 18  2  0
 18 19  1  0
 18 22  1  0
 20  3  1  0
 20 19  2  0
 21 20  1  0
 22 23  1  0
 23 24  1  0
 25 24  1  0
 26 25  1  0
 27 26  1  0
 27 22  1  0
  4 28  1  0
  6 29  1  0
  7 30  1  0
  9 31  1  0
 10 32  1  0
 13 33  1  0
 15 34  1  0
 16 35  1  0
 17 36  1  0
 22 37  1  0
 23 38  1  0
 23 39  1  0
 24 40  1  0
 24 41  1  0
 26 42  1  0
 26 43  1  0
 27 44  1  0
 27 45  1  0
M  END
>  <Score>  (1) 
-7.29381

>  <Score_dual>  (1) 
-7.12

>  <Choices>  (1) 
[None, 9, ['7-18', 60], 17, ['23-8', 315], 26, ['12-5', 150], 30, ['56-24', 165]]

$$$$
