
     RDKit          3D

 47 51  0  0  1  0  0  0  0  0999 V2000
   40.6430   80.5310   61.5520 C   0  0  1  0  0  0  0  0  0  0  0  0
   40.0970   79.4220   60.7330 C   0  0  0  0  0  0  0  0  0  0  0  0
   40.4890   78.1370   61.4550 C   0  0  2  0  0  0  0  0  0  0  0  0
   41.8770   78.1770   61.9400 C   0  0  0  0  0  0  0  0  0  0  0  0
   42.7700   79.2300   61.3510 C   0  0  0  0  0  0  0  0  0  0  0  0
   42.1400   80.5910   61.2060 C   0  0  0  0  0  0  0  0  0  0  0  0
   39.7760   83.7550   59.8360 C   0  0  0  0  0  0  0  0  0  0  0  0
   40.3300   82.4710   60.0350 C   0  0  0  0  0  0  0  0  0  0  0  0
   40.0990   81.8530   61.2870 C   0  0  0  0  0  0  0  0  0  0  0  0
   39.3620   82.5120   62.2250 N   0  0  0  0  0  0  0  0  0  0  0  0
   38.8520   83.7480   61.9780 C   0  0  0  0  0  0  0  0  0  0  0  0
   39.0610   84.3600   60.7870 N   0  0  0  0  0  0  0  0  0  0  0  0
   40.1820   76.9250   60.6320 C   0  0  0  0  0  0  0  0  0  0  0  0
   39.3870   76.8160   59.4920 C   0  0  0  0  0  0  0  0  0  0  0  0
   39.3990   75.4860   59.1020 C   0  0  0  0  0  0  0  0  0  0  0  0
   40.1760   74.8350   59.9840 N   0  0  0  0  0  0  0  0  0  0  0  0
   40.6510   75.6790   60.9040 N   0  0  0  0  0  0  0  0  0  0  0  0
   40.3790   72.7400   58.7630 C   0  0  0  0  0  0  0  0  0  0  0  0
   40.4640   73.4290   59.9570 C   0  0  0  0  0  0  0  0  0  0  0  0
   40.8250   72.7690   61.1130 C   0  0  0  0  0  0  0  0  0  0  0  0
   41.0970   71.4100   61.0520 C   0  0  0  0  0  0  0  0  0  0  0  0
   41.4670   70.4800   61.9690 N   0  0  0  0  0  0  0  0  0  0  0  0
   41.6090   69.2750   61.3960 C   0  0  0  0  0  0  0  0  0  0  0  0
   41.3250   69.3840   60.0370 C   0  0  0  0  0  0  0  0  0  0  0  0
   41.0080   70.7280   59.8500 C   0  0  0  0  0  0  0  0  0  0  0  0
   40.6490   71.3690   58.6780 C   0  0  0  0  0  0  0  0  0  0  0  0
   40.3905   80.3121   62.6000 H   0  0  0  0  0  0  0  0  0  0  0  0
   40.5327   79.4417   59.7232 H   0  0  0  0  0  0  0  0  0  0  0  0
   39.0061   79.5040   60.6180 H   0  0  0  0  0  0  0  0  0  0  0  0
   39.8632   78.0590   62.3562 H   0  0  0  0  0  0  0  0  0  0  0  0
   41.8449   78.3383   63.0276 H   0  0  0  0  0  0  0  0  0  0  0  0
   42.3182   77.2186   61.6288 H   0  0  0  0  0  0  0  0  0  0  0  0
   43.6531   79.3301   61.9992 H   0  0  0  0  0  0  0  0  0  0  0  0
   43.0119   78.8931   60.3322 H   0  0  0  0  0  0  0  0  0  0  0  0
   42.6407   81.2960   61.8859 H   0  0  0  0  0  0  0  0  0  0  0  0
   42.2512   80.9253   60.1640 H   0  0  0  0  0  0  0  0  0  0  0  0
   39.9373   84.2676   58.8762 H   0  0  0  0  0  0  0  0  0  0  0  0
   40.9166   81.9722   59.2495 H   0  0  0  0  0  0  0  0  0  0  0  0
   38.2625   84.2575   62.7545 H   0  0  0  0  0  0  0  0  0  0  0  0
   38.8487   77.6355   58.9933 H   0  0  0  0  0  0  0  0  0  0  0  0
   38.8750   75.0489   58.2392 H   0  0  0  0  0  0  0  0  0  0  0  0
   40.0906   73.2847   57.8519 H   0  0  0  0  0  0  0  0  0  0  0  0
   40.8961   73.3112   62.0675 H   0  0  0  0  0  0  0  0  0  0  0  0
   41.6183   70.6732   62.9693 H   0  0  0  0  0  0  0  0  0  0  0  0
   41.9022   68.3508   61.9155 H   0  0  0  0  0  0  0  0  0  0  0  0
   41.3462   68.5865   59.2796 H   0  0  0  0  0  0  0  0  0  0  0  0
   40.5789   70.8267   57.7236 H   0  0  0  0  0  0  0  0  0  0  0  0
  2  3  1  0
  2  1  1  0
  3  4  1  0
  5  4  1  0
  6  5  1  0
  6  1  1  0
  7  8  2  0
  7 12  1  0
  8  9  1  0
  9  1  1  0
  9 10  2  0
 11 10  1  0
 12 11  2  0
 13 17  2  0
 13  3  1  0
 14 13  1  0
 15 14  2  0
 15 16  1  0
 16 17  1  0
 18 19  2  0
 19 16  1  0
 19 20  1  0
 21 20  2  0
 21 22  1  0
 23 22  1  0
 24 23  2  0
 25 24  1  0
 25 21  1  0
 26 18  1  0
 26 25  2  0
  1 27  1  1
  2 28  1  0
  2 29  1  0
  3 30  1  1
  4 31  1  0
  4 32  1  0
  5 33  1  0
  5 34  1  0
  6 35  1  0
  6 36  1  0
  7 37  1  0
  8 38  1  0
 11 39  1  0
 14 40  1  0
 15 41  1  0
 18 42  1  0
 20 43  1  0
 22 44  1  0
 23 45  1  0
 24 46  1  0
 26 47  1  0
M  END
>  <Score>  (1) 
-7.69515

>  <Score_dual>  (1) 
-7.78

>  <Choices>  (1) 
[None, 8, ['18-26', 15], 18, ['22-8', 330], 32, ['24-12', 75]]

$$$$
