
     RDKit          3D

 45 49  0  0  0  0  0  0  0  0999 V2000
   40.9110   83.7650   60.5320 C   0  0  0  0  0  0  0  0  0  0  0  0
   41.1600   82.3910   60.5660 C   0  0  0  0  0  0  0  0  0  0  0  0
   40.3420   81.5300   61.3070 C   0  0  0  0  0  0  0  0  0  0  0  0
   39.3120   82.0910   61.9790 N   0  0  0  0  0  0  0  0  0  0  0  0
   39.0630   83.4050   61.9550 C   0  0  0  0  0  0  0  0  0  0  0  0
   39.8480   84.2270   61.2450 N   0  0  0  0  0  0  0  0  0  0  0  0
   41.5990   84.7950   59.8350 C   0  0  0  0  0  0  0  0  0  0  0  0
   41.0120   85.2580   58.6320 C   0  0  0  0  0  0  0  0  0  0  0  0
   41.5330   86.2480   57.8180 C   0  0  0  0  0  0  0  0  0  0  0  0
   42.7030   86.8420   58.1770 C   0  0  0  0  0  0  0  0  0  0  0  0
   43.3070   86.4380   59.3190 C   0  0  0  0  0  0  0  0  0  0  0  0
   44.5060   87.0420   59.6960 C   0  0  0  0  0  0  0  0  0  0  0  0
   45.2000   86.6970   60.8480 C   0  0  0  0  0  0  0  0  0  0  0  0
   44.5980   85.6840   61.6130 C   0  0  0  0  0  0  0  0  0  0  0  0
   43.4230   85.1040   61.2280 C   0  0  0  0  0  0  0  0  0  0  0  0
   42.7650   85.4570   60.1000 C   0  0  0  0  0  0  0  0  0  0  0  0
   40.6610   80.1400   61.2820 C   0  0  0  0  0  0  0  0  0  0  0  0
   41.2560   79.5150   62.2200 O   0  0  0  0  0  0  0  0  0  0  0  0
   40.0050   77.5760   61.8960 F   0  0  0  0  0  0  0  0  0  0  0  0
   40.0100   77.9820   60.5890 C   0  0  0  0  0  0  0  0  0  0  0  0
   40.3330   79.2720   60.1590 C   0  0  0  0  0  0  0  0  0  0  0  0
   40.3070   79.5560   58.8190 C   0  0  0  0  0  0  0  0  0  0  0  0
   39.9650   78.5720   57.9320 C   0  0  0  0  0  0  0  0  0  0  0  0
   39.6460   77.3050   58.3430 C   0  0  0  0  0  0  0  0  0  0  0  0
   39.6670   76.9930   59.7140 C   0  0  0  0  0  0  0  0  0  0  0  0
   39.3160   75.6270   60.0740 C   0  0  0  0  0  0  0  0  0  0  0  0
   40.1150   74.5450   60.3740 C   0  0  0  0  0  0  0  0  0  0  0  0
   39.3590   73.4280   60.6630 C   0  0  0  0  0  0  0  0  0  0  0  0
   38.0740   73.9070   60.5170 C   0  0  0  0  0  0  0  0  0  0  0  0
   38.0980   75.1570   60.1840 O   0  0  0  0  0  0  0  0  0  0  0  0
   42.0107   81.9798   60.0027 H   0  0  0  0  0  0  0  0  0  0  0  0
   38.2113   83.8121   62.5197 H   0  0  0  0  0  0  0  0  0  0  0  0
   40.0654   84.7929   58.3197 H   0  0  0  0  0  0  0  0  0  0  0  0
   41.0110   86.5492   56.8978 H   0  0  0  0  0  0  0  0  0  0  0  0
   43.1477   87.6320   57.5540 H   0  0  0  0  0  0  0  0  0  0  0  0
   44.9218   87.8293   59.0500 H   0  0  0  0  0  0  0  0  0  0  0  0
   46.1455   87.1783   61.1385 H   0  0  0  0  0  0  0  0  0  0  0  0
   45.0835   85.3508   62.5421 H   0  0  0  0  0  0  0  0  0  0  0  0
   42.9929   84.3154   61.8629 H   0  0  0  0  0  0  0  0  0  0  0  0
   40.5585   80.5648   58.4599 H   0  0  0  0  0  0  0  0  0  0  0  0
   39.9457   78.8053   56.8572 H   0  0  0  0  0  0  0  0  0  0  0  0
   39.3749   76.5359   57.6048 H   0  0  0  0  0  0  0  0  0  0  0  0
   41.2147   74.5690   60.3820 H   0  0  0  0  0  0  0  0  0  0  0  0
   39.6942   72.4172   60.9385 H   0  0  0  0  0  0  0  0  0  0  0  0
   37.1603   73.3120   60.6627 H   0  0  0  0  0  0  0  0  0  0  0  0
  1  2  2  0
  1  6  1  0
  2  3  1  0
  3  4  2  0
  5  4  1  0
  6  5  2  0
  7 16  1  0
  7  1  1  0
  8  7  2  0
  9 10  2  0
  9  8  1  0
 10 11  1  0
 11 12  1  0
 11 16  2  0
 12 13  2  0
 13 14  1  0
 15 14  2  0
 16 15  1  0
 17  3  1  0
 17 18  2  0
 20 19  1  0
 21 20  2  0
 21 17  1  0
 22 21  1  0
 23 24  1  0
 23 22  2  0
 24 25  2  0
 25 26  1  0
 25 20  1  0
 26 30  1  0
 26 27  2  0
 27 28  1  0
 29 28  2  0
 30 29  1  0
  2 31  1  0
  5 32  1  0
  8 33  1  0
  9 34  1  0
 10 35  1  0
 12 36  1  0
 13 37  1  0
 14 38  1  0
 15 39  1  0
 22 40  1  0
 23 41  1  0
 24 42  1  0
 27 43  1  0
 28 44  1  0
 29 45  1  0
M  END
>  <Score>  (1) 
-7.45042

>  <Score_dual>  (1) 
-8.12

>  <Choices>  (1) 
[None, 8, ['5-9', 180], 8, ['26-25', 345], 27, ['9-4', 240], 37, ['43-20', 345]]

$$$$
