
     RDKit          3D

 47 51  0  0  0  0  0  0  0  0999 V2000
   40.7550   80.5760   60.8340 C   0  0  0  0  0  0  0  0  0  0  0  0
   42.0420   80.2780   61.3030 C   0  0  0  0  0  0  0  0  0  0  0  0
   42.2840   78.9360   61.2650 C   0  0  0  0  0  0  0  0  0  0  0  0
   41.1450   78.4120   60.7730 N   0  0  0  0  0  0  0  0  0  0  0  0
   40.2610   79.3700   60.5240 N   0  0  0  0  0  0  0  0  0  0  0  0
   39.5490   84.0370   59.8050 C   0  0  0  0  0  0  0  0  0  0  0  0
   40.1980   82.7800   59.6660 C   0  0  0  0  0  0  0  0  0  0  0  0
   40.1710   81.9000   60.7380 C   0  0  0  0  0  0  0  0  0  0  0  0
   39.5360   82.2470   61.8840 N   0  0  0  0  0  0  0  0  0  0  0  0
   38.9210   83.4560   61.9960 C   0  0  0  0  0  0  0  0  0  0  0  0
   38.9330   84.3450   60.9490 N   0  0  0  0  0  0  0  0  0  0  0  0
   39.1400   80.9610   57.8860 F   0  0  0  0  0  0  0  0  0  0  0  0
   40.3170   81.5160   57.5600 C   0  0  0  0  0  0  0  0  0  0  0  0
   40.8710   82.4280   58.4280 C   0  0  0  0  0  0  0  0  0  0  0  0
   42.0990   82.9950   58.0690 C   0  0  0  0  0  0  0  0  0  0  0  0
   42.6910   82.6300   56.8930 C   0  0  0  0  0  0  0  0  0  0  0  0
   42.1360   81.7230   56.0350 C   0  0  0  0  0  0  0  0  0  0  0  0
   40.9070   81.1320   56.3550 C   0  0  0  0  0  0  0  0  0  0  0  0
   40.9770   76.9780   60.5710 C   0  0  0  0  0  0  0  0  0  0  0  0
   39.5400   76.7350   60.1750 C   0  0  0  0  0  0  0  0  0  0  0  0
   39.4200   75.7930   59.0320 C   0  0  0  0  0  0  0  0  0  0  0  0
   40.0100   74.5680   58.9950 N   0  0  0  0  0  0  0  0  0  0  0  0
   39.8450   73.7510   57.9170 C   0  0  0  0  0  0  0  0  0  0  0  0
   39.0870   74.1350   56.8480 N   0  0  0  0  0  0  0  0  0  0  0  0
   38.4860   75.3430   56.8450 C   0  0  0  0  0  0  0  0  0  0  0  0
   37.7360   75.6840   55.7370 C   0  0  0  0  0  0  0  0  0  0  0  0
   37.1220   76.9140   55.7220 C   0  0  0  0  0  0  0  0  0  0  0  0
   37.2500   77.7870   56.7820 C   0  0  0  0  0  0  0  0  0  0  0  0
   38.0170   77.3750   57.8530 C   0  0  0  0  0  0  0  0  0  0  0  0
   38.6600   76.1610   57.9410 C   0  0  0  0  0  0  0  0  0  0  0  0
   42.7637   81.0294   61.6561 H   0  0  0  0  0  0  0  0  0  0  0  0
   43.1986   78.4044   61.5666 H   0  0  0  0  0  0  0  0  0  0  0  0
   39.5542   84.7548   58.9715 H   0  0  0  0  0  0  0  0  0  0  0  0
   38.4101   83.7234   62.9328 H   0  0  0  0  0  0  0  0  0  0  0  0
   42.5841   83.7293   58.7289 H   0  0  0  0  0  0  0  0  0  0  0  0
   43.6557   83.0858   56.6255 H   0  0  0  0  0  0  0  0  0  0  0  0
   42.6507   81.4587   55.0995 H   0  0  0  0  0  0  0  0  0  0  0  0
   40.4293   80.3995   55.6877 H   0  0  0  0  0  0  0  0  0  0  0  0
   41.6494   76.6309   59.7726 H   0  0  0  0  0  0  0  0  0  0  0  0
   41.2209   76.4282   61.4920 H   0  0  0  0  0  0  0  0  0  0  0  0
   39.0019   76.3146   61.0374 H   0  0  0  0  0  0  0  0  0  0  0  0
   39.1102   77.6982   59.8629 H   0  0  0  0  0  0  0  0  0  0  0  0
   40.3312   72.7643   57.9077 H   0  0  0  0  0  0  0  0  0  0  0  0
   37.6326   74.9905   54.8894 H   0  0  0  0  0  0  0  0  0  0  0  0
   36.5186   77.2067   54.8501 H   0  0  0  0  0  0  0  0  0  0  0  0
   36.7605   78.7720   56.7742 H   0  0  0  0  0  0  0  0  0  0  0  0
   38.1224   78.0689   58.7000 H   0  0  0  0  0  0  0  0  0  0  0  0
  1  2  1  0
  3  2  2  0
  4  3  1  0
  5  4  1  0
  5  1  2  0
  6 11  2  0
  7  6  1  0
  7  8  2  0
  8  1  1  0
  8  9  1  0
  9 10  2  0
 11 10  1  0
 13 12  1  0
 13 14  2  0
 14  7  1  0
 15 14  1  0
 16 15  2  0
 17 18  2  0
 17 16  1  0
 18 13  1  0
 19  4  1  0
 20 19  1  0
 21 20  1  0
 22 21  2  0
 23 22  1  0
 24 23  2  0
 25 24  1  0
 25 30  2  0
 26 25  1  0
 27 26  2  0
 27 28  1  0
 28 29  2  0
 29 30  1  0
 30 21  1  0
  2 31  1  0
  3 32  1  0
  6 33  1  0
 10 34  1  0
 15 35  1  0
 16 36  1  0
 17 37  1  0
 18 38  1  0
 19 39  1  0
 19 40  1  0
 20 41  1  0
 20 42  1  0
 23 43  1  0
 26 44  1  0
 27 45  1  0
 28 46  1  0
 29 47  1  0
M  END
>  <Score>  (1) 
-7.08245

>  <Score_dual>  (1) 
-7.4

>  <Choices>  (1) 
[None, 7, ['9-20', 150], 14, ['22-7', 120], 26, ['4-2', 120], 32, ['47-17', 150]]

$$$$
