
     RDKit          3D

 52 58  0  0  1  0  0  0  0  0999 V2000
   39.2960   80.0720   54.8120 C   0  0  2  0  0  0  0  0  0  0  0  0
   37.7860   79.8170   54.5770 C   0  0  0  0  0  0  0  0  0  0  0  0
   38.7950   78.6930   54.6490 C   0  0  2  0  0  0  0  0  0  0  0  0
   39.6690   80.4030   58.4540 C   0  0  0  0  0  0  0  0  0  0  0  0
   40.4470   81.5780   58.5770 C   0  0  0  0  0  0  0  0  0  0  0  0
   40.8170   82.2370   57.4200 C   0  0  0  0  0  0  0  0  0  0  0  0
   40.4350   81.7520   56.2190 N   0  0  0  0  0  0  0  0  0  0  0  0
   39.6940   80.6330   56.1040 C   0  0  0  0  0  0  0  0  0  0  0  0
   39.3250   79.9790   57.2200 N   0  0  0  0  0  0  0  0  0  0  0  0
   41.5820   83.4180   57.5610 N   0  0  0  0  0  0  0  0  0  0  0  0
   42.1030   81.7080   60.3490 C   0  0  0  0  0  0  0  0  0  0  0  0
   40.8110   81.9970   59.9320 C   0  0  0  0  0  0  0  0  0  0  0  0
   39.8930   82.6270   60.6880 C   0  0  0  0  0  0  0  0  0  0  0  0
   40.2800   83.0110   61.9780 C   0  0  0  0  0  0  0  0  0  0  0  0
   39.6280   83.6500   63.0020 N   0  0  0  0  0  0  0  0  0  0  0  0
   40.4950   83.7590   64.0370 C   0  0  0  0  0  0  0  0  0  0  0  0
   41.6730   83.1920   63.6560 N   0  0  0  0  0  0  0  0  0  0  0  0
   41.5730   82.7250   62.4010 C   0  0  0  0  0  0  0  0  0  0  0  0
   42.5020   82.0850   61.6280 C   0  0  0  0  0  0  0  0  0  0  0  0
   38.5260   77.7760   55.7870 C   0  0  0  0  0  0  0  0  0  0  0  0
   37.2030   77.7660   56.2470 C   0  0  0  0  0  0  0  0  0  0  0  0
   37.1000   76.8700   57.3260 C   0  0  0  0  0  0  0  0  0  0  0  0
   38.3520   76.3750   57.4800 N   0  0  0  0  0  0  0  0  0  0  0  0
   39.1310   76.9090   56.5940 N   0  0  0  0  0  0  0  0  0  0  0  0
   38.6680   75.7230   59.7610 C   0  0  0  0  0  0  0  0  0  0  0  0
   38.8570   75.4210   58.4230 C   0  0  0  0  0  0  0  0  0  0  0  0
   39.4930   74.2710   58.0110 C   0  0  0  0  0  0  0  0  0  0  0  0
   39.9390   73.4220   58.9980 C   0  0  0  0  0  0  0  0  0  0  0  0
   40.5880   72.2360   58.9110 N   0  0  0  0  0  0  0  0  0  0  0  0
   40.7950   71.8160   60.1720 C   0  0  0  0  0  0  0  0  0  0  0  0
   40.2920   72.7070   61.0730 N   0  0  0  0  0  0  0  0  0  0  0  0
   39.7630   73.6990   60.3500 C   0  0  0  0  0  0  0  0  0  0  0  0
   39.1230   74.8580   60.7330 C   0  0  0  0  0  0  0  0  0  0  0  0
   40.1100   80.6309   54.3272 H   0  0  0  0  0  0  0  0  0  0  0  0
   37.3191   80.0850   53.6177 H   0  0  0  0  0  0  0  0  0  0  0  0
   36.8500   80.0746   55.0942 H   0  0  0  0  0  0  0  0  0  0  0  0
   39.1841   77.8823   54.0155 H   0  0  0  0  0  0  0  0  0  0  0  0
   39.3505   79.8456   59.3472 H   0  0  0  0  0  0  0  0  0  0  0  0
   41.8798   83.9415   56.7255 H   0  0  0  0  0  0  0  0  0  0  0  0
   41.8414   83.7546   58.4992 H   0  0  0  0  0  0  0  0  0  0  0  0
   42.8022   81.1880   59.6776 H   0  0  0  0  0  0  0  0  0  0  0  0
   38.8810   82.8318   60.3086 H   0  0  0  0  0  0  0  0  0  0  0  0
   38.6546   83.9863   62.9866 H   0  0  0  0  0  0  0  0  0  0  0  0
   40.2849   84.2230   65.0119 H   0  0  0  0  0  0  0  0  0  0  0  0
   43.5165   81.8780   61.9994 H   0  0  0  0  0  0  0  0  0  0  0  0
   36.3777   78.3627   55.8313 H   0  0  0  0  0  0  0  0  0  0  0  0
   36.2030   76.6255   57.9139 H   0  0  0  0  0  0  0  0  0  0  0  0
   38.1550   76.6527   60.0481 H   0  0  0  0  0  0  0  0  0  0  0  0
   39.6375   74.0422   56.9448 H   0  0  0  0  0  0  0  0  0  0  0  0
   40.8684   71.7503   58.0471 H   0  0  0  0  0  0  0  0  0  0  0  0
   41.3028   70.8779   60.4406 H   0  0  0  0  0  0  0  0  0  0  0  0
   38.9775   75.0893   61.7985 H   0  0  0  0  0  0  0  0  0  0  0  0
  1  8  1  0
  2  3  1  0
  2  1  1  0
  3  1  1  0
  3 20  1  0
  4  5  2  0
  5 12  1  0
  6 10  1  0
  6  5  1  0
  7  6  2  0
  8  7  1  0
  8  9  2  0
  9  4  1  0
 11 19  2  0
 12 11  1  0
 12 13  2  0
 13 14  1  0
 14 18  2  0
 14 15  1  0
 15 16  1  0
 17 16  2  0
 18 17  1  0
 19 18  1  0
 20 21  1  0
 20 24  2  0
 21 22  2  0
 22 23  1  0
 23 26  1  0
 24 23  1  0
 25 33  2  0
 26 25  1  0
 27 26  2  0
 27 28  1  0
 28 32  2  0
 29 28  1  0
 29 30  1  0
 30 31  2  0
 32 33  1  0
 32 31  1  0
  1 34  1  6
  2 35  1  0
  2 36  1  0
  3 37  1  6
  4 38  1  0
 10 39  1  0
 10 40  1  0
 11 41  1  0
 13 42  1  0
 15 43  1  0
 16 44  1  0
 19 45  1  0
 21 46  1  0
 22 47  1  0
 25 48  1  0
 27 49  1  0
 29 50  1  0
 30 51  1  0
 33 52  1  0
M  END
>  <Score>  (1) 
-7.60352

>  <Score_dual>  (1) 
-7.69

>  <Choices>  (1) 
[None, 7, ['34-23', 225], 21, ['0-2', 0], 22, ['16-24', 330], 31, ['22-6', 150], 38, ['34-14', 15]]

$$$$
