
     RDKit          3D

 53 58  0  0  0  0  0  0  0  0999 V2000
   40.9370   81.8720   61.7680 C   0  0  0  0  0  0  0  0  0  0  0  0
   41.2690   80.5900   61.8540 C   0  0  0  0  0  0  0  0  0  0  0  0
   40.9740   79.7300   60.8310 C   0  0  0  0  0  0  0  0  0  0  0  0
   40.3430   80.2550   59.7620 C   0  0  0  0  0  0  0  0  0  0  0  0
   40.1550   82.0170   60.2040 S   0  0  0  0  0  0  0  0  0  0  0  0
   39.8830   79.6510   58.5220 C   0  0  0  0  0  0  0  0  0  0  0  0
   39.6370   78.3540   58.3490 N   0  0  0  0  0  0  0  0  0  0  0  0
   39.2670   78.1020   57.0890 C   0  0  0  0  0  0  0  0  0  0  0  0
   39.2130   79.3110   56.4680 N   0  0  0  0  0  0  0  0  0  0  0  0
   39.6130   80.2440   57.3270 N   0  0  0  0  0  0  0  0  0  0  0  0
   39.5130   80.0920   54.1050 N   0  0  0  0  0  0  0  0  0  0  0  0
   38.7900   79.5450   55.0990 C   0  0  0  0  0  0  0  0  0  0  0  0
   37.5710   79.2500   54.5690 N   0  0  0  0  0  0  0  0  0  0  0  0
   37.5420   79.6080   53.2750 C   0  0  0  0  0  0  0  0  0  0  0  0
   36.5490   79.5200   52.3070 C   0  0  0  0  0  0  0  0  0  0  0  0
   36.7900   79.9620   51.0590 N   0  0  0  0  0  0  0  0  0  0  0  0
   38.0040   80.4800   50.7990 C   0  0  0  0  0  0  0  0  0  0  0  0
   38.9960   80.5800   51.7250 N   0  0  0  0  0  0  0  0  0  0  0  0
   38.7700   80.1370   52.9910 C   0  0  0  0  0  0  0  0  0  0  0  0
   41.1440   82.9950   62.7310 C   0  0  0  0  0  0  0  0  0  0  0  0
   42.0850   83.9430   62.5000 C   0  0  0  0  0  0  0  0  0  0  0  0
   42.2130   84.9530   63.4450 C   0  0  0  0  0  0  0  0  0  0  0  0
   41.3970   84.9230   64.5250 N   0  0  0  0  0  0  0  0  0  0  0  0
   40.4690   83.9630   64.7220 C   0  0  0  0  0  0  0  0  0  0  0  0
   40.3520   83.0000   63.8140 N   0  0  0  0  0  0  0  0  0  0  0  0
   43.0020   84.0500   61.3690 C   0  0  0  0  0  0  0  0  0  0  0  0
   44.1620   83.4230   61.0610 C   0  0  0  0  0  0  0  0  0  0  0  0
   44.8410   83.7040   59.9250 C   0  0  0  0  0  0  0  0  0  0  0  0
   44.3320   84.6420   59.0840 C   0  0  0  0  0  0  0  0  0  0  0  0
   43.1520   85.2920   59.3810 C   0  0  0  0  0  0  0  0  0  0  0  0
   42.4800   84.9950   60.5320 N   0  0  0  0  0  0  0  0  0  0  0  0
   42.6620   86.3060   58.4070 C   0  0  0  0  0  0  0  0  0  0  0  0
   41.3880   85.8110   57.7960 C   0  0  0  0  0  0  0  0  0  0  0  0
   41.7837   80.2168   62.7517 H   0  0  0  0  0  0  0  0  0  0  0  0
   41.2387   78.6634   60.8789 H   0  0  0  0  0  0  0  0  0  0  0  0
   40.0045   77.4513   56.5964 H   0  0  0  0  0  0  0  0  0  0  0  0
   38.2978   77.5832   57.0485 H   0  0  0  0  0  0  0  0  0  0  0  0
   39.7035   81.2493   57.1219 H   0  0  0  0  0  0  0  0  0  0  0  0
   40.4846   80.4239   54.1874 H   0  0  0  0  0  0  0  0  0  0  0  0
   36.2806   78.4566   52.2219 H   0  0  0  0  0  0  0  0  0  0  0  0
   35.7727   80.2069   52.6751 H   0  0  0  0  0  0  0  0  0  0  0  0
   38.2061   80.8431   49.7805 H   0  0  0  0  0  0  0  0  0  0  0  0
   39.9075   80.9864   51.4702 H   0  0  0  0  0  0  0  0  0  0  0  0
   42.9561   85.7543   63.3195 H   0  0  0  0  0  0  0  0  0  0  0  0
   39.8246   83.9775   65.6134 H   0  0  0  0  0  0  0  0  0  0  0  0
   44.5623   82.6662   61.7517 H   0  0  0  0  0  0  0  0  0  0  0  0
   45.7819   83.1858   59.6881 H   0  0  0  0  0  0  0  0  0  0  0  0
   44.8675   84.8861   58.1547 H   0  0  0  0  0  0  0  0  0  0  0  0
   42.4778   87.2583   58.9258 H   0  0  0  0  0  0  0  0  0  0  0  0
   43.4160   86.4656   57.6221 H   0  0  0  0  0  0  0  0  0  0  0  0
   40.6815   85.5365   58.5932 H   0  0  0  0  0  0  0  0  0  0  0  0
   40.9480   86.6036   57.1730 H   0  0  0  0  0  0  0  0  0  0  0  0
   41.5985   84.9292   57.1730 H   0  0  0  0  0  0  0  0  0  0  0  0
  1  2  2  0
  1 20  1  0
  3  2  1  0
  4  5  1  0
  4  3  2  0
  5  1  1  0
  6  4  1  0
  7  6  2  0
  8  7  1  0
  9  8  1  0
  9 10  1  0
 10  6  1  0
 11 12  1  0
 12  9  1  0
 13 12  2  0
 14 13  1  0
 15 14  1  0
 16 15  1  0
 17 16  2  0
 17 18  1  0
 18 19  1  0
 19 14  2  0
 19 11  1  0
 20 25  2  0
 21 20  1  0
 21 22  2  0
 22 23  1  0
 23 24  2  0
 25 24  1  0
 26 21  1  0
 27 26  2  0
 28 27  1  0
 29 30  1  0
 29 28  2  0
 30 31  2  0
 31 26  1  0
 32 30  1  0
 33 32  1  0
  2 34  1  0
  3 35  1  0
  8 36  1  0
  8 37  1  0
 10 38  1  0
 11 39  1  0
 15 40  1  0
 15 41  1  0
 17 42  1  0
 18 43  1  0
 22 44  1  0
 24 45  1  0
 27 46  1  0
 28 47  1  0
 29 48  1  0
 32 49  1  0
 32 50  1  0
 33 51  1  0
 33 52  1  0
 33 53  1  0
M  END
>  <Score>  (1) 
-7.15181

>  <Score_dual>  (1) 
-8.38

>  <Choices>  (1) 
[None, 6, ['25-21', 60], 11, ['6-15', 120], 25, ['4-11', 15], 31, ['57-14', 105], 38, ['45-18', 240]]

$$$$
