
     RDKit          3D

 52 56  0  0  1  0  0  0  0  0999 V2000
   38.9200   75.4300   58.9290 C   0  0  2  0  0  0  0  0  0  0  0  0
   40.0370   76.3690   58.4970 C   0  0  1  0  0  0  0  0  0  0  0  0
   39.6610   77.0640   57.4140 O   0  0  0  0  0  0  0  0  0  0  0  0
   38.7650   76.4670   56.5560 C   0  0  0  0  0  0  0  0  0  0  0  0
   38.8500   74.9710   56.5110 C   0  0  1  0  0  0  0  0  0  0  0  0
   38.9250   74.3180   57.8490 C   0  0  1  0  0  0  0  0  0  0  0  0
   39.4900   79.1370   58.6080 F   0  0  0  0  0  0  0  0  0  0  0  0
   40.2130   78.6030   59.6260 C   0  0  0  0  0  0  0  0  0  0  0  0
   40.6080   79.4310   60.6200 C   0  0  0  0  0  0  0  0  0  0  0  0
   41.3550   78.8440   61.6380 C   0  0  0  0  0  0  0  0  0  0  0  0
   41.6640   77.5070   61.6210 C   0  0  0  0  0  0  0  0  0  0  0  0
   41.2450   76.6760   60.5860 C   0  0  0  0  0  0  0  0  0  0  0  0
   40.5100   77.2480   59.5800 C   0  0  0  0  0  0  0  0  0  0  0  0
   40.2010   82.9850   59.4220 C   0  0  0  0  0  0  0  0  0  0  0  0
   40.5280   81.6260   59.4480 C   0  0  0  0  0  0  0  0  0  0  0  0
   40.2700   80.8370   60.5890 C   0  0  0  0  0  0  0  0  0  0  0  0
   39.6980   81.4600   61.6380 N   0  0  0  0  0  0  0  0  0  0  0  0
   39.3960   82.7750   61.5790 C   0  0  0  0  0  0  0  0  0  0  0  0
   39.6420   83.5310   60.4890 N   0  0  0  0  0  0  0  0  0  0  0  0
   37.7700   76.1360   58.9440 O   0  0  0  0  0  0  0  0  0  0  0  0
   37.7000   74.5030   55.8710 O   0  0  0  0  0  0  0  0  0  0  0  0
   40.1960   73.7110   57.9590 O   0  0  0  0  0  0  0  0  0  0  0  0
   40.3930   71.2180   58.1890 N   0  0  0  0  0  0  0  0  0  0  0  0
   40.4420   72.4980   58.5320 C   0  0  0  0  0  0  0  0  0  0  0  0
   40.8630   72.5070   59.8310 N   0  0  0  0  0  0  0  0  0  0  0  0
   41.0590   71.2570   60.2440 C   0  0  0  0  0  0  0  0  0  0  0  0
   41.4720   70.6620   61.4270 C   0  0  1  0  0  0  0  0  0  0  0  0
   41.5900   69.3130   61.5830 N   0  0  0  0  0  0  0  0  0  0  0  0
   41.2790   68.5450   60.5130 C   0  0  0  0  0  0  0  0  0  0  0  0
   40.8680   69.0900   59.3300 N   0  0  0  0  0  0  0  0  0  0  0  0
   40.7610   70.4170   59.1990 C   0  0  0  0  0  0  0  0  0  0  0  0
   41.7960   71.5060   62.5500 N   0  0  0  0  0  0  0  0  0  0  0  0
   39.0389   74.9928   59.9314 H   0  0  0  0  0  0  0  0  0  0  0  0
   40.9041   75.7459   58.2327 H   0  0  0  0  0  0  0  0  0  0  0  0
   37.7488   76.7440   56.8731 H   0  0  0  0  0  0  0  0  0  0  0  0
   39.0129   76.8251   55.5459 H   0  0  0  0  0  0  0  0  0  0  0  0
   39.7818   74.7185   55.9838 H   0  0  0  0  0  0  0  0  0  0  0  0
   38.0951   73.6062   57.9696 H   0  0  0  0  0  0  0  0  0  0  0  0
   41.7054   79.4661   62.4748 H   0  0  0  0  0  0  0  0  0  0  0  0
   42.2567   77.0821   62.4446 H   0  0  0  0  0  0  0  0  0  0  0  0
   41.4934   75.6045   60.5757 H   0  0  0  0  0  0  0  0  0  0  0  0
   40.4056   83.5912   58.5272 H   0  0  0  0  0  0  0  0  0  0  0  0
   40.9939   81.1644   58.5649 H   0  0  0  0  0  0  0  0  0  0  0  0
   38.9304   83.2491   62.4556 H   0  0  0  0  0  0  0  0  0  0  0  0
   37.4976   76.3032   59.8810 H   0  0  0  0  0  0  0  0  0  0  0  0
   37.0322   74.2312   56.5494 H   0  0  0  0  0  0  0  0  0  0  0  0
   40.1068   70.8801   57.2590 H   0  0  0  0  0  0  0  0  0  0  0  0
   40.4267   70.6097   61.7656 H   0  0  0  0  0  0  0  0  0  0  0  0
   41.3595   67.4513   60.5984 H   0  0  0  0  0  0  0  0  0  0  0  0
   40.6394   68.4764   58.5350 H   0  0  0  0  0  0  0  0  0  0  0  0
   41.6021   71.0008   63.4264 H   0  0  0  0  0  0  0  0  0  0  0  0
   42.7938   71.7587   62.5130 H   0  0  0  0  0  0  0  0  0  0  0  0
  1 20  1  0
  2  1  1  0
  2 13  1  0
  3  2  1  0
  4  3  1  0
  5  4  1  0
  5  6  1  0
  6 22  1  0
  6  1  1  0
  7  8  1  0
  8  9  2  0
  9 10  1  0
 11 10  2  0
 12 11  1  0
 13  8  1  0
 13 12  2  0
 14 15  2  0
 14 19  1  0
 15 16  1  0
 16  9  1  0
 16 17  2  0
 18 17  1  0
 19 18  2  0
 21  5  1  0
 22 24  1  0
 23 24  1  0
 23 31  1  0
 24 25  2  0
 25 26  1  0
 26 27  1  0
 27 28  1  0
 27 32  1  0
 29 28  2  0
 30 29  1  0
 31 30  1  0
 31 26  2  0
  1 33  1  1
  2 34  1  6
  4 35  1  0
  4 36  1  0
  5 37  1  6
  6 38  1  1
 10 39  1  0
 11 40  1  0
 12 41  1  0
 14 42  1  0
 15 43  1  0
 18 44  1  0
 20 45  1  0
 21 46  1  0
 23 47  1  0
 27 48  1  1
 29 49  1  0
 30 50  1  0
 32 51  1  0
 32 52  1  0
M  END
>  <Score>  (1) 
-8.40835

>  <Score_dual>  (1) 
-8.34

>  <Choices>  (1) 
[None, 8, ['9-19', 105], 19, ['21-23', 315], 36, ['28-18', 60]]

$$$$
