
     RDKit          3D

 51 55  0  0  0  0  0  0  0  0999 V2000
   41.8980   78.9870   59.9670 C   0  0  0  0  0  0  0  0  0  0  0  0
   40.9350   77.9300   60.1490 N   0  0  0  0  0  0  0  0  0  0  0  0
   40.8730   77.0410   61.1640 C   0  0  0  0  0  0  0  0  0  0  0  0
   39.7950   76.2250   60.9220 N   0  0  0  0  0  0  0  0  0  0  0  0
   39.2260   76.6190   59.7860 C   0  0  0  0  0  0  0  0  0  0  0  0
   38.1200   76.1590   59.0710 C   0  0  0  0  0  0  0  0  0  0  0  0
   37.7430   76.7700   57.8980 N   0  0  0  0  0  0  0  0  0  0  0  0
   38.4730   77.8020   57.4770 C   0  0  0  0  0  0  0  0  0  0  0  0
   39.5410   78.2440   58.1650 N   0  0  0  0  0  0  0  0  0  0  0  0
   39.9300   77.6800   59.3010 C   0  0  0  0  0  0  0  0  0  0  0  0
   38.1390   75.9130   55.1000 Cl  0  0  0  0  0  0  0  0  0  0  0  0
   37.7790   77.6390   55.0680 C   0  0  0  0  0  0  0  0  0  0  0  0
   37.9760   78.3720   56.2150 C   0  0  0  0  0  0  0  0  0  0  0  0
   37.6640   79.7040   56.0770 C   0  0  0  0  0  0  0  0  0  0  0  0
   37.1970   80.2940   54.9290 C   0  0  0  0  0  0  0  0  0  0  0  0
   37.0210   79.5010   53.8130 C   0  0  0  0  0  0  0  0  0  0  0  0
   37.3150   78.1560   53.8790 C   0  0  0  0  0  0  0  0  0  0  0  0
   41.4090   80.1990   60.6920 C   0  0  0  0  0  0  0  0  0  0  0  0
   42.3150   82.2270   61.8930 C   0  0  0  0  0  0  0  0  0  0  0  0
   43.3450   82.7730   62.6110 C   0  0  0  0  0  0  0  0  0  0  0  0
   44.4720   82.0370   62.9060 C   0  0  0  0  0  0  0  0  0  0  0  0
   44.6150   80.7310   62.4960 C   0  0  0  0  0  0  0  0  0  0  0  0
   43.6000   80.1750   61.7830 C   0  0  0  0  0  0  0  0  0  0  0  0
   42.4510   80.9010   61.4730 C   0  0  0  0  0  0  0  0  0  0  0  0
   41.0980   82.9800   61.5590 C   0  0  0  0  0  0  0  0  0  0  0  0
   40.9670   83.8160   60.4740 C   0  0  0  0  0  0  0  0  0  0  0  0
   39.7960   84.4960   60.2140 C   0  0  0  0  0  0  0  0  0  0  0  0
   38.7540   84.2970   61.0980 N   0  0  0  0  0  0  0  0  0  0  0  0
   38.9030   83.4790   62.1480 C   0  0  0  0  0  0  0  0  0  0  0  0
   40.0520   82.8100   62.4050 N   0  0  0  0  0  0  0  0  0  0  0  0
   42.0920   83.9590   59.6180 N   0  0  0  0  0  0  0  0  0  0  0  0
   42.8714   78.6773   60.3750 H   0  0  0  0  0  0  0  0  0  0  0  0
   42.0182   79.2092   58.8964 H   0  0  0  0  0  0  0  0  0  0  0  0
   41.5574   76.9817   62.0231 H   0  0  0  0  0  0  0  0  0  0  0  0
   38.3186   75.1049   58.8274 H   0  0  0  0  0  0  0  0  0  0  0  0
   37.2801   76.3804   59.7459 H   0  0  0  0  0  0  0  0  0  0  0  0
   40.0736   79.0457   57.7982 H   0  0  0  0  0  0  0  0  0  0  0  0
   37.7996   80.3489   56.9578 H   0  0  0  0  0  0  0  0  0  0  0  0
   36.9692   81.3697   54.8992 H   0  0  0  0  0  0  0  0  0  0  0  0
   36.6481   79.9401   52.8759 H   0  0  0  0  0  0  0  0  0  0  0  0
   37.1817   77.5087   52.9997 H   0  0  0  0  0  0  0  0  0  0  0  0
   41.0006   80.9024   59.9514 H   0  0  0  0  0  0  0  0  0  0  0  0
   40.6539   79.8524   61.4129 H   0  0  0  0  0  0  0  0  0  0  0  0
   43.2718   83.8145   62.9574 H   0  0  0  0  0  0  0  0  0  0  0  0
   45.2803   82.5067   63.4857 H   0  0  0  0  0  0  0  0  0  0  0  0
   45.5211   80.1559   62.7374 H   0  0  0  0  0  0  0  0  0  0  0  0
   43.6869   79.1321   61.4441 H   0  0  0  0  0  0  0  0  0  0  0  0
   39.6968   85.1638   59.3456 H   0  0  0  0  0  0  0  0  0  0  0  0
   38.0530   83.3444   62.8331 H   0  0  0  0  0  0  0  0  0  0  0  0
   42.0373   84.5749   58.7942 H   0  0  0  0  0  0  0  0  0  0  0  0
   42.9622   83.4468   59.8212 H   0  0  0  0  0  0  0  0  0  0  0  0
  1  2  1  0
  1 18  1  0
  2  3  1  0
  4  3  2  0
  5  4  1  0
  6  5  1  0
  7  6  1  0
  8  7  2  0
  8  9  1  0
  9 10  1  0
 10  5  2  0
 10  2  1  0
 12 11  1  0
 12 13  2  0
 13  8  1  0
 14 13  1  0
 15 14  2  0
 16 17  2  0
 16 15  1  0
 17 12  1  0
 18 24  1  0
 19 20  2  0
 20 21  1  0
 22 21  2  0
 23 22  1  0
 24 23  2  0
 24 19  1  0
 25 19  1  0
 25 30  1  0
 26 25  2  0
 27 26  1  0
 27 28  2  0
 28 29  1  0
 29 30  2  0
 31 26  1  0
  1 32  1  0
  1 33  1  0
  3 34  1  0
  6 35  1  0
  6 36  1  0
  9 37  1  0
 14 38  1  0
 15 39  1  0
 16 40  1  0
 17 41  1  0
 18 42  1  0
 18 43  1  0
 20 44  1  0
 21 45  1  0
 22 46  1  0
 23 47  1  0
 27 48  1  0
 29 49  1  0
 31 50  1  0
 31 51  1  0
M  END
>  <Score>  (1) 
-7.91043

>  <Score_dual>  (1) 
-7.28

>  <Choices>  (1) 
[None, 7, ['0-3', 0], 7, ['1-25', 90], 19, ['4-13', 0], 27, ['45-11', 285], 39, ['7-20', 330]]

$$$$
