
     RDKit          3D

 45 48  0  0  0  0  0  0  0  0999 V2000
   40.4750   79.6430   59.8910 C   0  0  0  0  0  0  0  0  0  0  0  0
   40.1200   78.3470   60.3550 C   0  0  0  0  0  0  0  0  0  0  0  0
   39.9580   77.3150   59.4780 C   0  0  0  0  0  0  0  0  0  0  0  0
   40.1550   77.6010   58.1620 N   0  0  0  0  0  0  0  0  0  0  0  0
   40.4890   78.8260   57.7460 C   0  0  0  0  0  0  0  0  0  0  0  0
   40.6600   79.8820   58.5820 N   0  0  0  0  0  0  0  0  0  0  0  0
   40.6500   78.9250   56.3400 N   0  0  0  0  0  0  0  0  0  0  0  0
   41.9000   75.3540   59.9020 F   0  0  0  0  0  0  0  0  0  0  0  0
   40.5970   75.0430   60.0740 C   0  0  0  0  0  0  0  0  0  0  0  0
   39.5990   75.9770   59.8760 C   0  0  0  0  0  0  0  0  0  0  0  0
   38.3240   75.5220   60.0840 C   0  0  0  0  0  0  0  0  0  0  0  0
   37.9920   74.2360   60.4650 C   0  0  0  0  0  0  0  0  0  0  0  0
   39.0370   73.3390   60.6510 C   0  0  0  0  0  0  0  0  0  0  0  0
   40.3490   73.7160   60.4610 C   0  0  0  0  0  0  0  0  0  0  0  0
   41.9230   71.8930   59.7230 C   0  0  0  0  0  0  0  0  0  0  0  0
   41.4370   72.7640   60.6580 C   0  0  0  0  0  0  0  0  0  0  0  0
   42.0090   72.7730   61.9330 C   0  0  0  0  0  0  0  0  0  0  0  0
   43.0510   71.9360   62.2960 C   0  0  0  0  0  0  0  0  0  0  0  0
   43.5210   71.0610   61.3140 C   0  0  0  0  0  0  0  0  0  0  0  0
   42.9630   71.0380   60.0380 C   0  0  0  0  0  0  0  0  0  0  0  0
   40.7810   71.9400   57.3690 N   0  0  0  0  0  0  0  0  0  0  0  0
   41.2990   71.9180   58.4120 C   0  0  0  0  0  0  0  0  0  0  0  0
   40.6300   80.6990   60.8950 C   0  0  0  0  0  0  0  0  0  0  0  0
   41.6770   80.6100   61.7880 C   0  0  0  0  0  0  0  0  0  0  0  0
   41.7720   81.6400   62.7150 C   0  0  0  0  0  0  0  0  0  0  0  0
   40.8300   82.6410   62.6630 C   0  0  0  0  0  0  0  0  0  0  0  0
   39.8140   82.6950   61.7700 C   0  0  0  0  0  0  0  0  0  0  0  0
   39.7270   81.6990   60.8770 N   0  0  0  0  0  0  0  0  0  0  0  0
   41.0440   83.6900   63.7150 C   0  0  0  0  0  0  0  0  0  0  0  0
   40.6240   84.9370   63.2920 F   0  0  0  0  0  0  0  0  0  0  0  0
   42.3790   83.7380   64.0850 F   0  0  0  0  0  0  0  0  0  0  0  0
   40.3100   83.3320   64.7970 F   0  0  0  0  0  0  0  0  0  0  0  0
   39.9746   78.1748   61.4317 H   0  0  0  0  0  0  0  0  0  0  0  0
   40.9075   79.8264   55.9133 H   0  0  0  0  0  0  0  0  0  0  0  0
   40.5094   78.0955   55.7459 H   0  0  0  0  0  0  0  0  0  0  0  0
   37.5003   76.2359   59.9362 H   0  0  0  0  0  0  0  0  0  0  0  0
   36.9447   73.9349   60.6148 H   0  0  0  0  0  0  0  0  0  0  0  0
   38.8123   72.3064   60.9563 H   0  0  0  0  0  0  0  0  0  0  0  0
   41.6142   73.4759   62.6814 H   0  0  0  0  0  0  0  0  0  0  0  0
   43.4862   71.9591   63.3060 H   0  0  0  0  0  0  0  0  0  0  0  0
   44.3482   70.3765   61.5531 H   0  0  0  0  0  0  0  0  0  0  0  0
   43.3496   70.3398   59.2810 H   0  0  0  0  0  0  0  0  0  0  0  0
   42.3927   79.7749   61.7675 H   0  0  0  0  0  0  0  0  0  0  0  0
   42.5749   81.6547   63.4667 H   0  0  0  0  0  0  0  0  0  0  0  0
   39.0893   83.5225   61.7769 H   0  0  0  0  0  0  0  0  0  0  0  0
  1  2  2  0
  1 23  1  0
  3 10  1  0
  3  2  1  0
  4  3  2  0
  5  4  1  0
  5  6  2  0
  6  1  1  0
  7  5  1  0
  8  9  1  0
  9 14  2  0
 10  9  1  0
 10 11  2  0
 11 12  1  0
 12 13  2  0
 14 13  1  0
 14 16  1  0
 15 20  2  0
 15 16  1  0
 16 17  2  0
 17 18  1  0
 19 18  2  0
 20 19  1  0
 21 22  3  0
 22 15  1  0
 23 24  2  0
 24 25  1  0
 26 25  2  0
 26 29  1  0
 27 26  1  0
 28 23  1  0
 28 27  2  0
 29 31  1  0
 29 32  1  0
 30 29  1  0
  2 33  1  0
  7 34  1  0
  7 35  1  0
 11 36  1  0
 12 37  1  0
 13 38  1  0
 17 39  1  0
 18 40  1  0
 19 41  1  0
 20 42  1  0
 24 43  1  0
 25 44  1  0
 27 45  1  0
M  END
>  <Score>  (1) 
-7.0669

>  <Score_dual>  (1) 
-7.68

>  <Choices>  (1) 
[None, 6, ['6-18', 60], 17, ['11-13', 75], 21, ['0-2', 0], 21, ['9-15', 210], 33, ['40-21', 270]]

$$$$
