
     RDKit          3D

 48 52  0  0  1  0  0  0  0  0999 V2000
   41.8190   84.0620   63.6610 C   0  0  0  0  0  0  0  0  0  0  0  0
   40.5670   83.7790   63.2320 C   0  0  0  0  0  0  0  0  0  0  0  0
   39.6780   84.1200   64.2020 N   0  0  0  0  0  0  0  0  0  0  0  0
   40.4120   84.6180   65.2360 C   0  0  0  0  0  0  0  0  0  0  0  0
   41.7210   84.5840   64.9080 N   0  0  0  0  0  0  0  0  0  0  0  0
   40.1130   83.2230   62.0130 C   0  0  0  0  0  0  0  0  0  0  0  0
   39.5050   82.1390   61.8920 O   0  0  0  0  0  0  0  0  0  0  0  0
   40.1420   83.5910   60.6360 N   0  0  0  0  0  0  0  0  0  0  0  0
   39.4780   84.8370   60.4940 C   0  0  0  0  0  0  0  0  0  0  0  0
   39.5420   85.1980   59.0380 C   0  0  0  0  0  0  0  0  0  0  0  0
   40.5680   84.3140   58.4310 C   0  0  0  0  0  0  0  0  0  0  0  0
   40.6360   83.1010   59.3210 C   0  0  2  0  0  0  0  0  0  0  0  0
   39.8270   82.0690   58.8810 O   0  0  0  0  0  0  0  0  0  0  0  0
   43.0560   83.8530   62.9400 C   0  0  0  0  0  0  0  0  0  0  0  0
   43.4770   84.8070   61.9800 C   0  0  0  0  0  0  0  0  0  0  0  0
   44.6960   84.5470   61.3090 C   0  0  0  0  0  0  0  0  0  0  0  0
   45.3840   83.4270   61.6100 N   0  0  0  0  0  0  0  0  0  0  0  0
   44.9460   82.5440   62.5330 C   0  0  0  0  0  0  0  0  0  0  0  0
   43.8000   82.7490   63.1910 N   0  0  0  0  0  0  0  0  0  0  0  0
   45.6490   81.3190   62.9020 C   0  0  0  0  0  0  0  0  0  0  0  0
   45.5300   79.9580   62.7440 C   0  0  0  0  0  0  0  0  0  0  0  0
   46.5690   79.3710   63.3630 N   0  0  0  0  0  0  0  0  0  0  0  0
   47.3500   80.3310   63.9130 C   0  0  0  0  0  0  0  0  0  0  0  0
   46.7810   81.5460   63.6280 N   0  0  0  0  0  0  0  0  0  0  0  0
   48.5860   80.1290   64.6800 C   0  0  0  0  0  0  0  0  0  0  0  0
   48.5210   79.4540   65.8630 C   0  0  0  0  0  0  0  0  0  0  0  0
   49.6980   79.2610   66.5950 C   0  0  0  0  0  0  0  0  0  0  0  0
   50.8480   79.7850   66.0420 C   0  0  0  0  0  0  0  0  0  0  0  0
   50.9250   80.4700   64.8450 C   0  0  0  0  0  0  0  0  0  0  0  0
   49.7470   80.6150   64.1970 N   0  0  0  0  0  0  0  0  0  0  0  0
   38.6535   84.0215   64.1630 H   0  0  0  0  0  0  0  0  0  0  0  0
   40.0029   84.9890   66.1873 H   0  0  0  0  0  0  0  0  0  0  0  0
   38.4301   84.7468   60.8163 H   0  0  0  0  0  0  0  0  0  0  0  0
   39.9535   85.6111   61.1143 H   0  0  0  0  0  0  0  0  0  0  0  0
   38.5650   85.0299   58.5612 H   0  0  0  0  0  0  0  0  0  0  0  0
   39.7989   86.2588   58.9014 H   0  0  0  0  0  0  0  0  0  0  0  0
   40.2720   84.0260   57.4115 H   0  0  0  0  0  0  0  0  0  0  0  0
   41.5434   84.8166   58.3531 H   0  0  0  0  0  0  0  0  0  0  0  0
   41.6556   82.6891   59.3477 H   0  0  0  0  0  0  0  0  0  0  0  0
   39.4508   81.5891   59.6609 H   0  0  0  0  0  0  0  0  0  0  0  0
   42.8836   85.7082   61.7662 H   0  0  0  0  0  0  0  0  0  0  0  0
   45.0768   85.2489   60.5525 H   0  0  0  0  0  0  0  0  0  0  0  0
   44.7239   79.4393   62.2044 H   0  0  0  0  0  0  0  0  0  0  0  0
   46.7427   78.3569   63.4111 H   0  0  0  0  0  0  0  0  0  0  0  0
   47.5606   79.0681   66.2353 H   0  0  0  0  0  0  0  0  0  0  0  0
   49.7057   78.7233   67.5546 H   0  0  0  0  0  0  0  0  0  0  0  0
   51.7842   79.6453   66.6024 H   0  0  0  0  0  0  0  0  0  0  0  0
   51.8715   80.8669   64.4494 H   0  0  0  0  0  0  0  0  0  0  0  0
  1  5  1  0
  2  1  2  0
  2  3  1  0
  3  4  1  0
  5  4  2  0
  6  2  1  0
  7  6  2  0
  8  6  1  0
  9  8  1  0
 10  9  1  0
 11 10  1  0
 11 12  1  0
 12  8  1  0
 13 12  1  0
 14 19  1  0
 14  1  1  0
 15 14  2  0
 16 17  2  0
 16 15  1  0
 17 18  1  0
 18 20  1  0
 18 19  2  0
 20 24  1  0
 21 20  2  0
 21 22  1  0
 22 23  1  0
 23 25  1  0
 24 23  2  0
 25 26  2  0
 26 27  1  0
 28 27  2  0
 29 28  1  0
 30 25  1  0
 30 29  2  0
  3 31  1  0
  4 32  1  0
  9 33  1  0
  9 34  1  0
 10 35  1  0
 10 36  1  0
 11 37  1  0
 11 38  1  0
 12 39  1  1
 13 40  1  0
 15 41  1  0
 16 42  1  0
 21 43  1  0
 22 44  1  0
 26 45  1  0
 27 46  1  0
 28 47  1  0
 29 48  1  0
M  END
>  <Score>  (1) 
-7.13968

>  <Score_dual>  (1) 
-7.77

>  <Choices>  (1) 
[None, 6, ['23-9', 180], 14, ['5-8', 345], 18, ['13-1', 120], 30, ['2-1', 330], 31, ['23-6', 210], 38, ['6-15', 345]]

$$$$
