
     RDKit          3D

 39 42  0  0  0  0  0  0  0  0999 V2000
   46.0250   82.0820   62.7510 C   0  0  0  0  0  0  0  0  0  0  0  0
   45.4560   80.8000   62.6230 C   0  0  0  0  0  0  0  0  0  0  0  0
   46.1360   79.6810   63.1120 C   0  0  0  0  0  0  0  0  0  0  0  0
   47.3400   79.9070   63.6980 N   0  0  0  0  0  0  0  0  0  0  0  0
   47.8620   81.1410   63.8080 C   0  0  0  0  0  0  0  0  0  0  0  0
   47.2050   82.2200   63.3360 N   0  0  0  0  0  0  0  0  0  0  0  0
   45.2510   83.2010   62.2130 C   0  0  0  0  0  0  0  0  0  0  0  0
   45.9120   84.2770   61.6610 C   0  0  0  0  0  0  0  0  0  0  0  0
   45.1820   85.3320   61.1550 C   0  0  0  0  0  0  0  0  0  0  0  0
   43.8280   85.2030   61.2540 C   0  0  0  0  0  0  0  0  0  0  0  0
   43.1410   84.1540   61.7940 C   0  0  0  0  0  0  0  0  0  0  0  0
   43.9170   83.1400   62.2790 N   0  0  0  0  0  0  0  0  0  0  0  0
   41.7330   84.0550   61.8800 N   0  0  0  0  0  0  0  0  0  0  0  0
   41.0570   83.8230   60.7350 C   0  0  0  0  0  0  0  0  0  0  0  0
   39.6630   83.7210   60.7970 C   0  0  0  0  0  0  0  0  0  0  0  0
   39.0990   83.8720   62.0540 C   0  0  0  0  0  0  0  0  0  0  0  0
   37.8320   83.7760   62.0870 O   0  0  0  0  0  0  0  0  0  0  0  0
   39.7970   84.1030   63.1840 N   0  0  0  0  0  0  0  0  0  0  0  0
   41.1540   84.1970   63.0880 C   0  0  0  0  0  0  0  0  0  0  0  0
   41.8150   84.4130   64.1380 O   0  0  0  0  0  0  0  0  0  0  0  0
   43.4360   79.6530   61.8980 Cl  0  0  0  0  0  0  0  0  0  0  0  0
   44.3130   78.2200   62.4400 C   0  0  0  0  0  0  0  0  0  0  0  0
   45.5810   78.3360   63.0000 C   0  0  0  0  0  0  0  0  0  0  0  0
   46.2160   77.1890   63.4030 C   0  0  0  0  0  0  0  0  0  0  0  0
   45.5900   75.9600   63.2470 C   0  0  0  0  0  0  0  0  0  0  0  0
   44.3230   75.8790   62.6840 C   0  0  0  0  0  0  0  0  0  0  0  0
   43.6330   74.2800   62.5370 Cl  0  0  0  0  0  0  0  0  0  0  0  0
   43.6670   77.0170   62.2710 C   0  0  0  0  0  0  0  0  0  0  0  0
   44.4761   80.6793   62.1380 H   0  0  0  0  0  0  0  0  0  0  0  0
   48.8414   81.2728   64.2911 H   0  0  0  0  0  0  0  0  0  0  0  0
   47.0113   84.2942   61.6244 H   0  0  0  0  0  0  0  0  0  0  0  0
   45.6581   86.2149   60.7036 H   0  0  0  0  0  0  0  0  0  0  0  0
   43.2250   86.0326   60.8564 H   0  0  0  0  0  0  0  0  0  0  0  0
   41.5884   83.7169   59.7777 H   0  0  0  0  0  0  0  0  0  0  0  0
   39.0516   83.5324   59.9022 H   0  0  0  0  0  0  0  0  0  0  0  0
   39.3203   84.2053   64.0913 H   0  0  0  0  0  0  0  0  0  0  0  0
   47.2200   77.2430   63.8492 H   0  0  0  0  0  0  0  0  0  0  0  0
   46.1019   75.0422   63.5721 H   0  0  0  0  0  0  0  0  0  0  0  0
   42.6638   76.9662   61.8226 H   0  0  0  0  0  0  0  0  0  0  0  0
  1  6  1  0
  2  1  2  0
  2  3  1  0
  3  4  2  0
  4  5  1  0
  6  5  2  0
  7 12  1  0
  7  1  1  0
  8  7  2  0
  9 10  2  0
  9  8  1  0
 10 11  1  0
 11 13  1  0
 11 12  2  0
 13 19  1  0
 14 15  2  0
 14 13  1  0
 15 16  1  0
 16 17  2  0
 16 18  1  0
 19 18  1  0
 19 20  2  0
 21 22  1  0
 22 23  2  0
 23  3  1  0
 23 24  1  0
 25 24  2  0
 26 25  1  0
 27 26  1  0
 28 22  1  0
 28 26  2  0
  2 29  1  0
  5 30  1  0
  8 31  1  0
  9 32  1  0
 10 33  1  0
 14 34  1  0
 15 35  1  0
 18 36  1  0
 24 37  1  0
 25 38  1  0
 28 39  1  0
M  END
>  <Score>  (1) 
-7.28947

>  <Score_dual>  (1) 
-7.82

>  <Choices>  (1) 
[None, 8, ['29-22', 210], 17, ['6-13', 225], 28, ['37-15', 165]]

$$$$
