
     RDKit          3D

 52 56  0  0  0  0  0  0  0  0999 V2000
   40.6600   76.6880   60.2440 C   0  0  0  0  0  0  0  0  0  0  0  0
   40.4810   77.2440   57.8030 C   0  0  0  0  0  0  0  0  0  0  0  0
   39.9070   76.8880   59.0280 C   0  0  0  0  0  0  0  0  0  0  0  0
   38.5410   76.7330   59.0120 C   0  0  0  0  0  0  0  0  0  0  0  0
   37.7490   76.9030   57.9010 C   0  0  0  0  0  0  0  0  0  0  0  0
   36.4170   76.7940   57.7060 N   0  0  0  0  0  0  0  0  0  0  0  0
   36.1760   77.0740   56.4050 C   0  0  0  0  0  0  0  0  0  0  0  0
   37.3600   77.3540   55.8050 N   0  0  0  0  0  0  0  0  0  0  0  0
   38.3620   77.2550   56.7160 C   0  0  0  0  0  0  0  0  0  0  0  0
   39.7380   77.4290   56.6600 C   0  0  0  0  0  0  0  0  0  0  0  0
   40.3850   79.0580   54.8290 C   0  0  0  0  0  0  0  0  0  0  0  0
   40.2640   77.7940   55.3730 C   0  0  0  0  0  0  0  0  0  0  0  0
   40.6930   76.7020   54.6150 C   0  0  0  0  0  0  0  0  0  0  0  0
   41.2250   76.9270   53.3410 C   0  0  0  0  0  0  0  0  0  0  0  0
   41.3430   78.1920   52.8030 C   0  0  0  0  0  0  0  0  0  0  0  0
   40.9110   79.2730   53.5720 C   0  0  0  0  0  0  0  0  0  0  0  0
   39.8100   80.3350   55.8840 S   0  0  0  0  0  0  0  0  0  0  0  0
   38.4150   80.6780   55.4400 O   0  0  0  0  0  0  0  0  0  0  0  0
   40.6540   81.5600   55.6660 O   0  0  0  0  0  0  0  0  0  0  0  0
   40.3410   77.4990   61.4550 C   0  0  0  0  0  0  0  0  0  0  0  0
   41.4450   80.9960   61.4550 C   0  0  0  0  0  0  0  0  0  0  0  0
   42.7880   80.9380   61.7300 C   0  0  0  0  0  0  0  0  0  0  0  0
   43.3650   79.6800   61.9270 C   0  0  0  0  0  0  0  0  0  0  0  0
   42.5480   78.5930   61.8300 N   0  0  0  0  0  0  0  0  0  0  0  0
   41.2460   78.6990   61.5620 C   0  0  0  0  0  0  0  0  0  0  0  0
   40.6560   79.9020   61.3650 N   0  0  0  0  0  0  0  0  0  0  0  0
   40.7450   82.2490   61.2330 N   0  0  0  0  0  0  0  0  0  0  0  0
   40.6890   82.5630   59.8840 C   0  0  0  0  0  0  0  0  0  0  0  0
   40.0680   83.7130   59.4500 C   0  0  0  0  0  0  0  0  0  0  0  0
   39.5030   84.5420   60.4010 C   0  0  0  0  0  0  0  0  0  0  0  0
   38.9310   85.5950   60.0330 O   0  0  0  0  0  0  0  0  0  0  0  0
   39.5810   84.1960   61.6890 N   0  0  0  0  0  0  0  0  0  0  0  0
   40.1880   83.0760   62.1030 C   0  0  0  0  0  0  0  0  0  0  0  0
   40.3040   82.6870   63.2610 O   0  0  0  0  0  0  0  0  0  0  0  0
   41.7153   76.8805   60.0006 H   0  0  0  0  0  0  0  0  0  0  0  0
   40.3923   75.6643   60.5446 H   0  0  0  0  0  0  0  0  0  0  0  0
   41.5711   77.3817   57.7515 H   0  0  0  0  0  0  0  0  0  0  0  0
   38.0470   76.4533   59.9542 H   0  0  0  0  0  0  0  0  0  0  0  0
   35.7146   76.5439   58.4167 H   0  0  0  0  0  0  0  0  0  0  0  0
   35.1900   77.0746   55.9174 H   0  0  0  0  0  0  0  0  0  0  0  0
   40.6137   75.6800   55.0141 H   0  0  0  0  0  0  0  0  0  0  0  0
   41.5613   76.0645   52.7468 H   0  0  0  0  0  0  0  0  0  0  0  0
   41.7648   78.3436   51.7985 H   0  0  0  0  0  0  0  0  0  0  0  0
   40.9898   80.2963   53.1761 H   0  0  0  0  0  0  0  0  0  0  0  0
   39.8584   79.9393   57.1947 H   0  0  0  0  0  0  0  0  0  0  0  0
   39.2974   77.8412   61.3928 H   0  0  0  0  0  0  0  0  0  0  0  0
   40.4909   76.8697   62.3447 H   0  0  0  0  0  0  0  0  0  0  0  0
   43.3929   81.8545   61.7936 H   0  0  0  0  0  0  0  0  0  0  0  0
   44.4364   79.5715   62.1515 H   0  0  0  0  0  0  0  0  0  0  0  0
   41.1471   81.8840   59.1498 H   0  0  0  0  0  0  0  0  0  0  0  0
   40.0230   83.9641   58.3800 H   0  0  0  0  0  0  0  0  0  0  0  0
   39.1566   84.8164   62.3932 H   0  0  0  0  0  0  0  0  0  0  0  0
  1 20  1  0
  2  3  2  0
  3  1  1  0
  4  3  1  0
  5  4  2  0
  6  5  1  0
  7  6  1  0
  8  7  2  0
  8  9  1  0
  9  5  1  0
 10  9  2  0
 10  2  1  0
 11 12  2  0
 11 17  1  0
 12 10  1  0
 13 12  1  0
 14 13  2  0
 15 14  1  0
 15 16  2  0
 16 11  1  0
 18 17  2  0
 19 17  2  0
 20 25  1  0
 21 22  2  0
 22 23  1  0
 24 23  2  0
 25 24  1  0
 26 21  1  0
 26 25  2  0
 27 21  1  0
 27 33  1  0
 28 27  1  0
 29 28  2  0
 29 30  1  0
 30 32  1  0
 31 30  2  0
 32 33  1  0
 33 34  2  0
  1 35  1  0
  1 36  1  0
  2 37  1  0
  4 38  1  0
  6 39  1  0
  7 40  1  0
 13 41  1  0
 14 42  1  0
 15 43  1  0
 16 44  1  0
 17 45  1  0
 20 46  1  0
 20 47  1  0
 22 48  1  0
 23 49  1  0
 28 50  1  0
 29 51  1  0
 32 52  1  0
M  END
>  <Score>  (1) 
-7.41463

>  <Score_dual>  (1) 
-7.38

>  <Choices>  (1) 
[None, 6, ['37-16', 135], 19, ['4-9', 270], 25, ['34-15', 255], 38, ['27-16', 165]]

$$$$
