
     RDKit          3D

 43 46  0  0  0  0  0  0  0  0999 V2000
   39.7480   76.7270   60.4250 C   0  0  0  0  0  0  0  0  0  0  0  0
   38.9510   76.1130   61.1530 O   0  0  0  0  0  0  0  0  0  0  0  0
   41.3140   79.6920   61.8500 C   0  0  0  0  0  0  0  0  0  0  0  0
   42.5850   79.2230   62.2180 C   0  0  0  0  0  0  0  0  0  0  0  0
   42.8820   77.8580   61.9600 C   0  0  0  0  0  0  0  0  0  0  0  0
   41.9040   77.1110   61.3740 N   0  0  0  0  0  0  0  0  0  0  0  0
   40.7190   77.6090   61.0470 C   0  0  0  0  0  0  0  0  0  0  0  0
   40.3940   78.9160   61.2770 N   0  0  0  0  0  0  0  0  0  0  0  0
   41.0460   81.0870   62.1270 C   0  0  0  0  0  0  0  0  0  0  0  0
   41.9060   82.0000   62.7150 C   0  0  0  0  0  0  0  0  0  0  0  0
   41.2260   83.1870   62.7740 N   0  0  0  0  0  0  0  0  0  0  0  0
   39.9970   83.0380   62.2530 C   0  0  0  0  0  0  0  0  0  0  0  0
   39.8920   81.7610   61.8610 N   0  0  0  0  0  0  0  0  0  0  0  0
   38.9960   84.0470   62.1370 N   0  0  0  0  0  0  0  0  0  0  0  0
   41.8290   84.3840   63.3380 C   0  0  0  0  0  0  0  0  0  0  0  0
   40.9340   85.1670   64.0120 F   0  0  0  0  0  0  0  0  0  0  0  0
   42.4190   85.1620   62.3530 F   0  0  0  0  0  0  0  0  0  0  0  0
   42.8050   83.9690   64.2510 F   0  0  0  0  0  0  0  0  0  0  0  0
   39.7040   75.1500   58.4800 C   0  0  0  0  0  0  0  0  0  0  0  0
   39.5300   76.4150   59.0030 C   0  0  0  0  0  0  0  0  0  0  0  0
   39.1400   77.3700   58.1130 C   0  0  0  0  0  0  0  0  0  0  0  0
   38.9230   77.1260   56.7740 C   0  0  0  0  0  0  0  0  0  0  0  0
   39.1110   75.8250   56.2850 C   0  0  0  0  0  0  0  0  0  0  0  0
   39.5020   74.8440   57.1530 C   0  0  0  0  0  0  0  0  0  0  0  0
   38.8670   75.6500   54.8620 C   0  0  0  0  0  0  0  0  0  0  0  0
   39.9880   75.6220   53.9040 C   0  0  0  0  0  0  0  0  0  0  0  0
   39.1980   75.3930   52.3100 S   0  0  0  0  0  0  0  0  0  0  0  0
   37.4790   75.3640   53.1250 C   0  0  0  0  0  0  0  0  0  0  0  0
   37.7230   75.5000   54.2190 N   0  0  0  0  0  0  0  0  0  0  0  0
   39.7000   73.5140   56.6930 N   0  0  0  0  0  0  0  0  0  0  0  0
   40.4410   73.2400   60.1120 N   0  0  0  0  0  0  0  0  0  0  0  0
   40.1190   74.0890   59.3780 C   0  0  0  0  0  0  0  0  0  0  0  0
   43.3238   79.8881   62.6889 H   0  0  0  0  0  0  0  0  0  0  0  0
   43.8580   77.4231   62.2215 H   0  0  0  0  0  0  0  0  0  0  0  0
   42.9313   81.8093   63.0649 H   0  0  0  0  0  0  0  0  0  0  0  0
   38.0826   83.8206   61.7182 H   0  0  0  0  0  0  0  0  0  0  0  0
   39.1864   85.0022   62.4720 H   0  0  0  0  0  0  0  0  0  0  0  0
   38.9897   78.3944   58.4844 H   0  0  0  0  0  0  0  0  0  0  0  0
   38.6080   77.9370   56.1009 H   0  0  0  0  0  0  0  0  0  0  0  0
   41.0626   75.7193   54.1180 H   0  0  0  0  0  0  0  0  0  0  0  0
   36.4943   75.2447   52.6495 H   0  0  0  0  0  0  0  0  0  0  0  0
   39.9946   72.7795   57.3523 H   0  0  0  0  0  0  0  0  0  0  0  0
   39.5489   73.2845   55.7003 H   0  0  0  0  0  0  0  0  0  0  0  0
  1  7  1  0
  1  2  2  0
  3  9  1  0
  3  4  2  0
  5  4  1  0
  6  5  2  0
  7  8  2  0
  7  6  1  0
  8  3  1  0
  9 10  2  0
 10 11  1  0
 11 15  1  0
 12 11  1  0
 13  9  1  0
 13 12  2  0
 14 12  1  0
 15 16  1  0
 15 18  1  0
 17 15  1  0
 19 20  2  0
 19 32  1  0
 20  1  1  0
 21 20  1  0
 22 21  2  0
 23 22  1  0
 23 24  2  0
 24 19  1  0
 25 23  1  0
 26 25  2  0
 27 28  1  0
 27 26  1  0
 28 29  2  0
 29 25  1  0
 30 24  1  0
 32 31  3  0
  4 33  1  0
  5 34  1  0
 10 35  1  0
 14 36  1  0
 14 37  1  0
 21 38  1  0
 22 39  1  0
 26 40  1  0
 28 41  1  0
 30 42  1  0
 30 43  1  0
M  END
>  <Score>  (1) 
-7.05346

>  <Score_dual>  (1) 
-8.24

>  <Choices>  (1) 
[None, 6, ['23-9', 180], 15, ['11-3', 300], 16, ['0-2', 0], 21, ['5-9', 345], 23, ['40-8', 135], 34, ['0-2', 0], 34, ['33-20', 270]]

$$$$
