
     RDKit          3D

 51 54  0  0  0  0  0  0  0  0999 V2000
   43.1470   82.4470   62.4540 C   0  0  0  0  0  0  0  0  0  0  0  0
   44.1540   83.1660   63.0890 C   0  0  0  0  0  0  0  0  0  0  0  0
   45.3050   82.4700   63.4280 C   0  0  0  0  0  0  0  0  0  0  0  0
   45.3850   81.1580   63.1300 N   0  0  0  0  0  0  0  0  0  0  0  0
   44.3660   80.5070   62.5070 C   0  0  0  0  0  0  0  0  0  0  0  0
   43.2350   81.1450   62.1620 N   0  0  0  0  0  0  0  0  0  0  0  0
   41.8960   83.0650   62.0500 N   0  0  0  0  0  0  0  0  0  0  0  0
   41.9920   83.6320   60.7920 C   0  0  0  0  0  0  0  0  0  0  0  0
   40.9280   84.2720   60.2110 C   0  0  0  0  0  0  0  0  0  0  0  0
   39.7430   84.3370   60.9230 C   0  0  0  0  0  0  0  0  0  0  0  0
   38.7390   84.9170   60.4240 O   0  0  0  0  0  0  0  0  0  0  0  0
   39.7020   83.7800   62.1220 N   0  0  0  0  0  0  0  0  0  0  0  0
   40.7450   83.1540   62.6870 C   0  0  0  0  0  0  0  0  0  0  0  0
   40.7830   82.6140   63.7940 O   0  0  0  0  0  0  0  0  0  0  0  0
   41.0170   84.8870   58.8580 C   0  0  0  0  0  0  0  0  0  0  0  0
   40.1090   85.9590   58.7580 F   0  0  0  0  0  0  0  0  0  0  0  0
   42.2600   85.3980   58.5900 F   0  0  0  0  0  0  0  0  0  0  0  0
   40.7460   83.9690   57.8710 F   0  0  0  0  0  0  0  0  0  0  0  0
   44.4930   79.0810   62.2000 C   0  0  0  0  0  0  0  0  0  0  0  0
   45.2660   78.3000   62.8010 O   0  0  0  0  0  0  0  0  0  0  0  0
   42.0910   77.7340   62.6090 F   0  0  0  0  0  0  0  0  0  0  0  0
   42.4900   77.8320   61.3290 C   0  0  0  0  0  0  0  0  0  0  0  0
   43.6720   78.4990   61.1180 C   0  0  0  0  0  0  0  0  0  0  0  0
   44.1640   78.6630   59.8380 C   0  0  0  0  0  0  0  0  0  0  0  0
   43.4840   78.1590   58.7130 C   0  0  0  0  0  0  0  0  0  0  0  0
   42.3140   77.5060   59.0050 C   0  0  0  0  0  0  0  0  0  0  0  0
   41.7740   77.3130   60.2670 C   0  0  0  0  0  0  0  0  0  0  0  0
   40.5030   76.5750   60.4570 C   0  0  0  0  0  0  0  0  0  0  0  0
   40.8150   75.1180   60.5320 C   0  0  0  0  0  0  0  0  0  0  0  0
   39.6000   74.2330   60.4090 C   0  0  0  0  0  0  0  0  0  0  0  0
   38.3150   75.0270   60.4810 C   0  0  0  0  0  0  0  0  0  0  0  0
   38.3530   75.9590   59.2800 C   0  0  0  0  0  0  0  0  0  0  0  0
   39.4210   76.9910   59.5320 C   0  0  0  0  0  0  0  0  0  0  0  0
   44.0428   84.2374   63.3122 H   0  0  0  0  0  0  0  0  0  0  0  0
   46.1389   82.9806   63.9319 H   0  0  0  0  0  0  0  0  0  0  0  0
   42.9442   83.5679   60.2451 H   0  0  0  0  0  0  0  0  0  0  0  0
   38.8198   83.8298   62.6514 H   0  0  0  0  0  0  0  0  0  0  0  0
   45.1122   79.2016   59.6937 H   0  0  0  0  0  0  0  0  0  0  0  0
   43.8596   78.2789   57.6861 H   0  0  0  0  0  0  0  0  0  0  0  0
   41.7491   77.0954   58.1551 H   0  0  0  0  0  0  0  0  0  0  0  0
   40.0413   76.8463   61.4178 H   0  0  0  0  0  0  0  0  0  0  0  0
   41.5105   74.8689   59.7170 H   0  0  0  0  0  0  0  0  0  0  0  0
   41.2502   74.9321   61.5250 H   0  0  0  0  0  0  0  0  0  0  0  0
   39.6106   73.4985   61.2277 H   0  0  0  0  0  0  0  0  0  0  0  0
   39.6387   73.7348   59.4291 H   0  0  0  0  0  0  0  0  0  0  0  0
   37.4443   74.3574   60.4220 H   0  0  0  0  0  0  0  0  0  0  0  0
   38.2267   75.5803   61.4276 H   0  0  0  0  0  0  0  0  0  0  0  0
   37.3774   76.4522   59.1580 H   0  0  0  0  0  0  0  0  0  0  0  0
   38.5732   75.3943   58.3621 H   0  0  0  0  0  0  0  0  0  0  0  0
   39.8804   77.2467   58.5658 H   0  0  0  0  0  0  0  0  0  0  0  0
   38.9150   77.8375   60.0192 H   0  0  0  0  0  0  0  0  0  0  0  0
  1  2  2  0
  2  3  1  0
  4  3  2  0
  5  4  1  0
  6  1  1  0
  6  5  2  0
  7  1  1  0
  7 13  1  0
  8  7  1  0
  9  8  2  0
  9 10  1  0
 10 12  1  0
 11 10  2  0
 12 13  1  0
 13 14  2  0
 15  9  1  0
 16 15  1  0
 17 15  1  0
 18 15  1  0
 19  5  1  0
 19 20  2  0
 22 21  1  0
 23 22  2  0
 23 19  1  0
 24 23  1  0
 25 26  1  0
 25 24  2  0
 26 27  2  0
 27 28  1  0
 27 22  1  0
 28 29  1  0
 30 31  1  0
 30 29  1  0
 32 33  1  0
 32 31  1  0
 33 28  1  0
  2 34  1  0
  3 35  1  0
  8 36  1  0
 12 37  1  0
 24 38  1  0
 25 39  1  0
 26 40  1  0
 28 41  1  0
 29 42  1  0
 29 43  1  0
 30 44  1  0
 30 45  1  0
 31 46  1  0
 31 47  1  0
 32 48  1  0
 32 49  1  0
 33 50  1  0
 33 51  1  0
M  END
>  <Score>  (1) 
-7.51264

>  <Score_dual>  (1) 
-7.87

>  <Choices>  (1) 
[None, 6, ['37-16', 135], 15, ['11-10', 135], 22, ['5-7', 30], 24, ['9-4', 330], 34, ['18-21', 195]]

$$$$
