
     RDKit          3D

 48 52  0  0  0  0  0  0  0  0999 V2000
   40.3220   76.6660   60.7200 C   0  0  0  0  0  0  0  0  0  0  0  0
   40.2530   77.9490   58.5760 C   0  0  0  0  0  0  0  0  0  0  0  0
   39.6880   77.0640   59.4940 C   0  0  0  0  0  0  0  0  0  0  0  0
   38.4470   76.5800   59.1370 C   0  0  0  0  0  0  0  0  0  0  0  0
   37.7880   76.9190   57.9830 C   0  0  0  0  0  0  0  0  0  0  0  0
   36.5870   76.5570   57.4690 N   0  0  0  0  0  0  0  0  0  0  0  0
   36.4290   77.1950   56.2900 C   0  0  0  0  0  0  0  0  0  0  0  0
   37.5370   77.9570   56.0720 N   0  0  0  0  0  0  0  0  0  0  0  0
   38.3980   77.7990   57.1170 C   0  0  0  0  0  0  0  0  0  0  0  0
   39.6530   78.3300   57.4070 C   0  0  0  0  0  0  0  0  0  0  0  0
   40.2260   79.2450   56.4500 C   0  0  0  0  0  0  0  0  0  0  0  0
   40.4250   80.5840   56.7170 C   0  0  0  0  0  0  0  0  0  0  0  0
   40.9670   81.4920   55.8330 C   0  0  0  0  0  0  0  0  0  0  0  0
   41.3500   81.0390   54.5680 C   0  0  0  0  0  0  0  0  0  0  0  0
   41.1490   79.7010   54.3080 C   0  0  0  0  0  0  0  0  0  0  0  0
   40.6120   78.8630   55.2160 N   0  0  0  0  0  0  0  0  0  0  0  0
   40.2060   77.5240   61.9280 C   0  0  0  0  0  0  0  0  0  0  0  0
   41.4030   80.9760   61.5480 C   0  0  0  0  0  0  0  0  0  0  0  0
   42.7640   80.8820   61.6890 C   0  0  0  0  0  0  0  0  0  0  0  0
   43.3220   79.6140   61.9220 C   0  0  0  0  0  0  0  0  0  0  0  0
   42.4690   78.5600   61.9920 N   0  0  0  0  0  0  0  0  0  0  0  0
   41.1490   78.7010   61.8490 C   0  0  0  0  0  0  0  0  0  0  0  0
   40.5800   79.9050   61.6230 N   0  0  0  0  0  0  0  0  0  0  0  0
   40.7230   82.2310   61.3070 N   0  0  0  0  0  0  0  0  0  0  0  0
   40.6390   82.5070   59.9510 C   0  0  0  0  0  0  0  0  0  0  0  0
   40.0270   83.6580   59.4970 C   0  0  0  0  0  0  0  0  0  0  0  0
   39.4990   84.5290   60.4400 C   0  0  0  0  0  0  0  0  0  0  0  0
   38.9410   85.5760   60.0500 O   0  0  0  0  0  0  0  0  0  0  0  0
   39.6100   84.2100   61.7330 N   0  0  0  0  0  0  0  0  0  0  0  0
   40.2040   83.0940   62.1630 C   0  0  0  0  0  0  0  0  0  0  0  0
   40.3390   82.7430   63.3300 O   0  0  0  0  0  0  0  0  0  0  0  0
   41.3958   76.5647   60.5041 H   0  0  0  0  0  0  0  0  0  0  0  0
   39.7757   75.7543   61.0034 H   0  0  0  0  0  0  0  0  0  0  0  0
   41.2439   78.3672   58.8065 H   0  0  0  0  0  0  0  0  0  0  0  0
   37.9533   75.8758   59.8228 H   0  0  0  0  0  0  0  0  0  0  0  0
   35.9135   75.9091   57.9020 H   0  0  0  0  0  0  0  0  0  0  0  0
   35.5585   77.1139   55.6225 H   0  0  0  0  0  0  0  0  0  0  0  0
   40.1290   80.9545   57.7095 H   0  0  0  0  0  0  0  0  0  0  0  0
   41.0949   82.5471   56.1164 H   0  0  0  0  0  0  0  0  0  0  0  0
   41.7888   81.7149   53.8192 H   0  0  0  0  0  0  0  0  0  0  0  0
   41.4373   79.3028   53.3240 H   0  0  0  0  0  0  0  0  0  0  0  0
   39.1736   77.8951   62.0078 H   0  0  0  0  0  0  0  0  0  0  0  0
   40.4691   76.9231   62.8110 H   0  0  0  0  0  0  0  0  0  0  0  0
   43.4017   81.7757   61.6214 H   0  0  0  0  0  0  0  0  0  0  0  0
   44.4071   79.4803   62.0430 H   0  0  0  0  0  0  0  0  0  0  0  0
   41.0663   81.7984   59.2262 H   0  0  0  0  0  0  0  0  0  0  0  0
   39.9598   83.8781   58.4213 H   0  0  0  0  0  0  0  0  0  0  0  0
   39.2181   84.8568   62.4323 H   0  0  0  0  0  0  0  0  0  0  0  0
  1 17  1  0
  2  3  2  0
  3  1  1  0
  4  3  1  0
  5  4  2  0
  6  5  1  0
  7  6  1  0
  8  7  2  0
  8  9  1  0
  9 10  2  0
  9  5  1  0
 10  2  1  0
 11 12  2  0
 11 10  1  0
 13 12  1  0
 14 13  2  0
 15 14  1  0
 15 16  2  0
 16 11  1  0
 18 23  1  0
 18 19  2  0
 19 20  1  0
 20 21  2  0
 22 17  1  0
 22 21  1  0
 23 22  2  0
 24 18  1  0
 24 30  1  0
 25 24  1  0
 26 25  2  0
 26 27  1  0
 27 29  1  0
 28 27  2  0
 29 30  1  0
 30 31  2  0
  1 32  1  0
  1 33  1  0
  2 34  1  0
  4 35  1  0
  6 36  1  0
  7 37  1  0
 12 38  1  0
 13 39  1  0
 14 40  1  0
 15 41  1  0
 17 42  1  0
 17 43  1  0
 19 44  1  0
 20 45  1  0
 25 46  1  0
 26 47  1  0
 29 48  1  0
M  END
>  <Score>  (1) 
-7.32836

>  <Score_dual>  (1) 
-7.41

>  <Choices>  (1) 
[None, 6, ['37-16', 135], 19, ['4-9', 270], 25, ['34-15', 255], 38, ['6-13', 315]]

$$$$
