
     RDKit          3D

 52 56  0  0  1  0  0  0  0  0999 V2000
   39.1260   80.1360   56.0600 N   0  0  0  0  0  0  0  0  0  0  0  0
   37.6720   80.1960   56.1690 C   0  0  0  0  0  0  0  0  0  0  0  0
   37.2930   79.9960   54.7000 C   0  0  0  0  0  0  0  0  0  0  0  0
   38.1800   78.7900   54.3660 C   0  0  0  0  0  0  0  0  0  0  0  0
   39.3680   78.9250   55.3320 C   0  0  2  0  0  0  0  0  0  0  0  0
   42.0230   82.4390   56.3150 C   0  0  0  0  0  0  0  0  0  0  0  0
   41.1000   81.5430   55.7490 C   0  0  0  0  0  0  0  0  0  0  0  0
   40.1000   81.0420   56.5430 C   0  0  0  0  0  0  0  0  0  0  0  0
   40.0390   81.4320   57.8510 N   0  0  0  0  0  0  0  0  0  0  0  0
   40.9290   82.2870   58.3690 C   0  0  0  0  0  0  0  0  0  0  0  0
   41.9320   82.8010   57.6090 N   0  0  0  0  0  0  0  0  0  0  0  0
   39.7640   82.3000   60.5070 C   0  0  0  0  0  0  0  0  0  0  0  0
   40.8540   82.7060   59.7560 C   0  0  0  0  0  0  0  0  0  0  0  0
   41.7880   83.4800   60.3490 C   0  0  0  0  0  0  0  0  0  0  0  0
   41.6990   83.8720   61.6490 C   0  0  0  0  0  0  0  0  0  0  0  0
   42.5240   84.6370   62.4010 N   0  0  0  0  0  0  0  0  0  0  0  0
   41.9540   84.7050   63.6050 C   0  0  0  0  0  0  0  0  0  0  0  0
   40.7700   83.9820   63.6030 N   0  0  0  0  0  0  0  0  0  0  0  0
   40.6140   83.4570   62.3640 C   0  0  0  0  0  0  0  0  0  0  0  0
   39.6220   82.6700   61.8350 C   0  0  0  0  0  0  0  0  0  0  0  0
   38.4240   76.6820   56.0490 C   0  0  2  0  0  0  0  0  0  0  0  0
   39.5090   77.6950   56.1710 C   0  0  2  0  0  0  0  0  0  0  0  0
   39.8750   77.9900   57.4560 O   0  0  0  0  0  0  0  0  0  0  0  0
   39.0380   77.5890   58.4440 C   0  0  0  0  0  0  0  0  0  0  0  0
   38.5520   76.1820   58.4160 C   0  0  2  0  0  0  0  0  0  0  0  0
   38.7790   75.5860   57.0700 C   0  0  2  0  0  0  0  0  0  0  0  0
   38.4350   76.0130   54.8260 O   0  0  0  0  0  0  0  0  0  0  0  0
   37.1580   76.1210   58.6440 O   0  0  0  0  0  0  0  0  0  0  0  0
   40.1720   75.4040   56.9240 O   0  0  0  0  0  0  0  0  0  0  0  0
   37.2759   79.3921   56.8069 H   0  0  0  0  0  0  0  0  0  0  0  0
   37.2772   81.1129   56.6310 H   0  0  0  0  0  0  0  0  0  0  0  0
   36.2244   79.7639   54.5808 H   0  0  0  0  0  0  0  0  0  0  0  0
   37.4407   80.8758   54.0565 H   0  0  0  0  0  0  0  0  0  0  0  0
   37.6401   77.8474   54.5392 H   0  0  0  0  0  0  0  0  0  0  0  0
   38.4913   78.7720   53.3111 H   0  0  0  0  0  0  0  0  0  0  0  0
   40.3418   79.0003   54.8260 H   0  0  0  0  0  0  0  0  0  0  0  0
   42.8311   82.8504   55.6924 H   0  0  0  0  0  0  0  0  0  0  0  0
   41.1779   81.2497   54.6917 H   0  0  0  0  0  0  0  0  0  0  0  0
   38.9935   81.6696   60.0391 H   0  0  0  0  0  0  0  0  0  0  0  0
   42.6558   83.8068   59.7574 H   0  0  0  0  0  0  0  0  0  0  0  0
   43.4079   85.0754   62.1053 H   0  0  0  0  0  0  0  0  0  0  0  0
   42.3610   85.2515   64.4685 H   0  0  0  0  0  0  0  0  0  0  0  0
   38.7576   82.3490   62.4349 H   0  0  0  0  0  0  0  0  0  0  0  0
   37.4588   77.1928   56.1809 H   0  0  0  0  0  0  0  0  0  0  0  0
   40.3527   77.1512   55.7209 H   0  0  0  0  0  0  0  0  0  0  0  0
   39.5643   77.7350   59.3988 H   0  0  0  0  0  0  0  0  0  0  0  0
   38.1323   78.1969   58.3024 H   0  0  0  0  0  0  0  0  0  0  0  0
   39.1010   75.6389   59.1993 H   0  0  0  0  0  0  0  0  0  0  0  0
   38.2078   74.6549   56.9402 H   0  0  0  0  0  0  0  0  0  0  0  0
   38.4511   75.0359   54.9845 H   0  0  0  0  0  0  0  0  0  0  0  0
   36.9830   76.1133   59.6184 H   0  0  0  0  0  0  0  0  0  0  0  0
   40.5931   75.3490   57.8183 H   0  0  0  0  0  0  0  0  0  0  0  0
  1  2  1  0
  1  8  1  0
  3  2  1  0
  4  3  1  0
  4  5  1  0
  5  1  1  0
  5 22  1  0
  6 11  2  0
  7  6  1  0
  7  8  2  0
  8  9  1  0
  9 10  2  0
 10 13  1  0
 11 10  1  0
 12 20  2  0
 13 14  2  0
 13 12  1  0
 14 15  1  0
 15 19  2  0
 15 16  1  0
 16 17  1  0
 18 17  2  0
 19 18  1  0
 20 19  1  0
 21 27  1  0
 21 22  1  0
 21 26  1  0
 22 23  1  0
 23 24  1  0
 25 24  1  0
 25 28  1  0
 26 29  1  0
 26 25  1  0
  2 30  1  0
  2 31  1  0
  3 32  1  0
  3 33  1  0
  4 34  1  0
  4 35  1  0
  5 36  1  6
  6 37  1  0
  7 38  1  0
 12 39  1  0
 14 40  1  0
 16 41  1  0
 17 42  1  0
 20 43  1  0
 21 44  1  1
 22 45  1  6
 24 46  1  0
 24 47  1  0
 25 48  1  1
 26 49  1  6
 27 50  1  0
 28 51  1  0
 29 52  1  0
M  END
>  <Score>  (1) 
-7.01161

>  <Score_dual>  (1) 
-7.91

>  <Choices>  (1) 
[None, 9, ['34-23', 255], 22, ['13-5', 0], 34, ['21-24', 105]]

$$$$
