
     RDKit          3D

 54 59  0  0  0  0  0  0  0  0999 V2000
   40.5460   79.0430   58.9240 C   0  0  0  0  0  0  0  0  0  0  0  0
   39.5510   78.0150   58.7050 N   0  0  0  0  0  0  0  0  0  0  0  0
   39.1580   77.0480   59.5680 C   0  0  0  0  0  0  0  0  0  0  0  0
   38.2010   76.3100   58.9280 N   0  0  0  0  0  0  0  0  0  0  0  0
   38.0230   76.8220   57.7110 C   0  0  0  0  0  0  0  0  0  0  0  0
   37.1860   76.4590   56.6520 C   0  0  0  0  0  0  0  0  0  0  0  0
   37.2040   77.1810   55.4810 N   0  0  0  0  0  0  0  0  0  0  0  0
   38.0470   78.2110   55.4050 C   0  0  0  0  0  0  0  0  0  0  0  0
   38.8570   78.5530   56.4230 N   0  0  0  0  0  0  0  0  0  0  0  0
   38.8610   77.8840   57.5640 C   0  0  0  0  0  0  0  0  0  0  0  0
   39.0940   79.4220   53.4650 C   0  0  0  0  0  0  0  0  0  0  0  0
   37.9810   78.9120   54.1010 C   0  0  0  0  0  0  0  0  0  0  0  0
   36.8130   79.1070   53.4270 C   0  0  0  0  0  0  0  0  0  0  0  0
   36.7080   79.7490   52.2220 C   0  0  0  0  0  0  0  0  0  0  0  0
   35.7090   80.0650   51.3720 N   0  0  0  0  0  0  0  0  0  0  0  0
   36.1910   80.7160   50.3100 N   0  0  0  0  0  0  0  0  0  0  0  0
   37.5340   80.8420   50.4390 C   0  0  0  0  0  0  0  0  0  0  0  0
   37.8430   80.2400   51.6270 C   0  0  0  0  0  0  0  0  0  0  0  0
   39.0460   80.0750   52.2550 C   0  0  0  0  0  0  0  0  0  0  0  0
   40.3480   79.5860   60.3050 C   0  0  0  0  0  0  0  0  0  0  0  0
   41.8290   81.3230   61.3930 C   0  0  0  0  0  0  0  0  0  0  0  0
   43.0340   81.5800   62.0020 C   0  0  0  0  0  0  0  0  0  0  0  0
   43.9680   80.5970   62.1930 C   0  0  0  0  0  0  0  0  0  0  0  0
   43.7460   79.3060   61.7850 C   0  0  0  0  0  0  0  0  0  0  0  0
   42.5620   79.0150   61.1770 C   0  0  0  0  0  0  0  0  0  0  0  0
   41.5980   80.0090   60.9760 C   0  0  0  0  0  0  0  0  0  0  0  0
   40.8180   82.3430   61.1750 C   0  0  0  0  0  0  0  0  0  0  0  0
   40.6860   83.1050   60.0330 C   0  0  0  0  0  0  0  0  0  0  0  0
   39.7030   84.0580   59.8850 C   0  0  0  0  0  0  0  0  0  0  0  0
   38.8420   84.2230   60.9450 N   0  0  0  0  0  0  0  0  0  0  0  0
   38.9740   83.4800   62.0520 C   0  0  0  0  0  0  0  0  0  0  0  0
   39.9420   82.5390   62.1980 N   0  0  0  0  0  0  0  0  0  0  0  0
   41.6210   82.8660   58.9910 N   0  0  0  0  0  0  0  0  0  0  0  0
   40.4216   79.8476   58.1843 H   0  0  0  0  0  0  0  0  0  0  0  0
   41.5584   78.6264   58.8169 H   0  0  0  0  0  0  0  0  0  0  0  0
   39.5362   76.8871   60.5883 H   0  0  0  0  0  0  0  0  0  0  0  0
   37.4390   75.4213   56.3889 H   0  0  0  0  0  0  0  0  0  0  0  0
   36.1784   76.6491   57.0502 H   0  0  0  0  0  0  0  0  0  0  0  0
   39.4909   79.3571   56.3110 H   0  0  0  0  0  0  0  0  0  0  0  0
   40.0729   79.2999   53.9517 H   0  0  0  0  0  0  0  0  0  0  0  0
   35.8892   78.7215   53.8830 H   0  0  0  0  0  0  0  0  0  0  0  0
   34.7157   79.8366   51.5209 H   0  0  0  0  0  0  0  0  0  0  0  0
   38.2285   81.3261   49.7366 H   0  0  0  0  0  0  0  0  0  0  0  0
   39.9683   80.4613   51.7965 H   0  0  0  0  0  0  0  0  0  0  0  0
   39.6793   80.4570   60.2405 H   0  0  0  0  0  0  0  0  0  0  0  0
   39.9264   78.7686   60.9085 H   0  0  0  0  0  0  0  0  0  0  0  0
   43.2538   82.6018   62.3449 H   0  0  0  0  0  0  0  0  0  0  0  0
   44.9190   80.8484   62.6853 H   0  0  0  0  0  0  0  0  0  0  0  0
   44.5047   78.5257   61.9447 H   0  0  0  0  0  0  0  0  0  0  0  0
   42.3617   77.9871   60.8404 H   0  0  0  0  0  0  0  0  0  0  0  0
   39.6111   84.6564   58.9666 H   0  0  0  0  0  0  0  0  0  0  0  0
   38.2668   83.6393   62.8794 H   0  0  0  0  0  0  0  0  0  0  0  0
   41.5672   83.4076   58.1166 H   0  0  0  0  0  0  0  0  0  0  0  0
   42.3529   82.1511   59.1098 H   0  0  0  0  0  0  0  0  0  0  0  0
  1 20  1  0
  2  1  1  0
  2  3  1  0
  4  3  2  0
  5  4  1  0
  6  5  1  0
  7  6  1  0
  8  7  2  0
  8  9  1  0
  9 10  1  0
 10  5  2  0
 10  2  1  0
 11 12  2  0
 12  8  1  0
 13 12  1  0
 14 13  2  0
 15 14  1  0
 16 17  2  0
 16 15  1  0
 17 18  1  0
 18 14  1  0
 18 19  2  0
 19 11  1  0
 20 26  1  0
 21 22  2  0
 22 23  1  0
 24 23  2  0
 25 24  1  0
 26 25  2  0
 26 21  1  0
 27 21  1  0
 27 32  1  0
 28 27  2  0
 29 28  1  0
 29 30  2  0
 30 31  1  0
 31 32  2  0
 33 28  1  0
  1 34  1  0
  1 35  1  0
  3 36  1  0
  6 37  1  0
  6 38  1  0
  9 39  1  0
 11 40  1  0
 13 41  1  0
 15 42  1  0
 17 43  1  0
 19 44  1  0
 20 45  1  0
 20 46  1  0
 22 47  1  0
 23 48  1  0
 24 49  1  0
 25 50  1  0
 29 51  1  0
 31 52  1  0
 33 53  1  0
 33 54  1  0
M  END
>  <Score>  (1) 
-7.88443

>  <Score_dual>  (1) 
-8.13

>  <Choices>  (1) 
[None, 7, ['0-3', 0], 7, ['1-25', 90], 19, ['4-13', 0], 27, ['45-11', 285], 39, ['54-11', 165]]

$$$$
