
     RDKit          3D

 41 44  0  0  0  0  0  0  0  0999 V2000
   40.3750   80.3240   54.8140 Cl  0  0  0  0  0  0  0  0  0  0  0  0
   40.5940   81.1800   56.3770 C   0  0  0  0  0  0  0  0  0  0  0  0
   39.8360   80.7540   57.4650 C   0  0  0  0  0  0  0  0  0  0  0  0
   39.9750   81.3840   58.6770 C   0  0  0  0  0  0  0  0  0  0  0  0
   40.8810   82.4310   58.7570 C   0  0  0  0  0  0  0  0  0  0  0  0
   41.6290   82.8550   57.6920 C   0  0  0  0  0  0  0  0  0  0  0  0
   41.4750   82.2120   56.4900 C   0  0  0  0  0  0  0  0  0  0  0  0
   41.0030   83.0800   60.0660 C   0  0  0  0  0  0  0  0  0  0  0  0
   42.1100   83.8020   60.5290 C   0  0  0  0  0  0  0  0  0  0  0  0
   41.7670   84.2060   61.7750 N   0  0  0  0  0  0  0  0  0  0  0  0
   40.5180   83.7660   62.0790 C   0  0  0  0  0  0  0  0  0  0  0  0
   40.0650   83.0810   61.0290 N   0  0  0  0  0  0  0  0  0  0  0  0
   40.4440   84.1160   64.5500 C   0  0  0  0  0  0  0  0  0  0  0  0
   41.7060   84.0500   64.6210 O   0  0  0  0  0  0  0  0  0  0  0  0
   39.7960   83.9770   63.2860 N   0  0  0  0  0  0  0  0  0  0  0  0
   36.9730   78.7790   56.3330 C   0  0  0  0  0  0  0  0  0  0  0  0
   37.1940   77.5190   56.9350 C   0  0  0  0  0  0  0  0  0  0  0  0
   38.3200   77.3800   57.7140 C   0  0  0  0  0  0  0  0  0  0  0  0
   39.1310   78.4460   57.8500 N   0  0  0  0  0  0  0  0  0  0  0  0
   38.9040   79.6320   57.2710 C   0  0  0  0  0  0  0  0  0  0  0  0
   37.8100   79.8210   56.4950 N   0  0  0  0  0  0  0  0  0  0  0  0
   39.5790   75.3390   55.9620 Cl  0  0  0  0  0  0  0  0  0  0  0  0
   39.2440   75.1030   57.6760 C   0  0  0  0  0  0  0  0  0  0  0  0
   38.6530   76.1290   58.3860 C   0  0  0  0  0  0  0  0  0  0  0  0
   38.4190   75.8780   59.7210 C   0  0  0  0  0  0  0  0  0  0  0  0
   38.7580   74.6730   60.2970 C   0  0  0  0  0  0  0  0  0  0  0  0
   39.3470   73.6660   59.5610 C   0  0  0  0  0  0  0  0  0  0  0  0
   39.6010   73.8800   58.2050 C   0  0  0  0  0  0  0  0  0  0  0  0
   39.3888   81.0696   59.5531 H   0  0  0  0  0  0  0  0  0  0  0  0
   42.3363   83.6909   57.7973 H   0  0  0  0  0  0  0  0  0  0  0  0
   42.0636   82.5303   55.6170 H   0  0  0  0  0  0  0  0  0  0  0  0
   43.0524   83.9981   59.9967 H   0  0  0  0  0  0  0  0  0  0  0  0
   42.3650   84.7647   62.4004 H   0  0  0  0  0  0  0  0  0  0  0  0
   39.8483   84.2800   65.4601 H   0  0  0  0  0  0  0  0  0  0  0  0
   38.7682   84.0315   63.2465 H   0  0  0  0  0  0  0  0  0  0  0  0
   36.0794   78.9137   55.7058 H   0  0  0  0  0  0  0  0  0  0  0  0
   36.4941   76.6834   56.7867 H   0  0  0  0  0  0  0  0  0  0  0  0
   37.9511   76.6572   60.3405 H   0  0  0  0  0  0  0  0  0  0  0  0
   38.5547   74.5108   61.3658 H   0  0  0  0  0  0  0  0  0  0  0  0
   39.6124   72.7095   60.0350 H   0  0  0  0  0  0  0  0  0  0  0  0
   40.0681   73.1029   57.5821 H   0  0  0  0  0  0  0  0  0  0  0  0
  1  2  1  0
  2  7  2  0
  2  3  1  0
  3  4  2  0
  4  5  1  0
  5  8  1  0
  6  5  2  0
  7  6  1  0
  8  9  2  0
  8 12  1  0
  9 10  1  0
 10 11  1  0
 11 15  1  0
 12 11  2  0
 13 14  2  0
 15 13  1  0
 16 21  2  0
 16 17  1  0
 17 18  2  0
 18 19  1  0
 18 24  1  0
 20  3  1  0
 20 19  2  0
 21 20  1  0
 22 23  1  0
 23 28  2  0
 23 24  1  0
 24 25  2  0
 25 26  1  0
 27 26  2  0
 28 27  1  0
  4 29  1  0
  6 30  1  0
  7 31  1  0
  9 32  1  0
 10 33  1  0
 13 34  1  0
 15 35  1  0
 16 36  1  0
 17 37  1  0
 25 38  1  0
 26 39  1  0
 27 40  1  0
 28 41  1  0
M  END
>  <Score>  (1) 
-7.5721

>  <Score_dual>  (1) 
-7.45

>  <Choices>  (1) 
[None, 9, ['7-18', 60], 17, ['23-8', 315], 26, ['12-5', 150], 30, ['7-16', 225]]

$$$$
