
     RDKit          3D

 43 47  0  0  0  0  0  0  0  0999 V2000
   40.3110   79.2860   60.7830 C   0  0  0  0  0  0  0  0  0  0  0  0
   40.4610   80.6210   60.5590 C   0  0  0  0  0  0  0  0  0  0  0  0
   40.5000   81.1080   59.2330 C   0  0  0  0  0  0  0  0  0  0  0  0
   40.3890   80.2470   58.1590 C   0  0  0  0  0  0  0  0  0  0  0  0
   40.2400   78.9100   58.4590 C   0  0  0  0  0  0  0  0  0  0  0  0
   40.1980   78.4070   59.7500 C   0  0  0  0  0  0  0  0  0  0  0  0
   39.5590   82.4910   62.0260 C   0  0  0  0  0  0  0  0  0  0  0  0
   40.5960   81.7000   61.5600 C   0  0  0  0  0  0  0  0  0  0  0  0
   41.8830   81.9120   62.0540 C   0  0  0  0  0  0  0  0  0  0  0  0
   42.0490   82.9040   62.9830 N   0  0  0  0  0  0  0  0  0  0  0  0
   41.0350   83.6460   63.4120 C   0  0  0  0  0  0  0  0  0  0  0  0
   39.7970   83.4430   62.9360 N   0  0  0  0  0  0  0  0  0  0  0  0
   42.9620   81.1260   61.6020 N   0  0  0  0  0  0  0  0  0  0  0  0
   40.0390   76.9820   60.0390 C   0  0  0  0  0  0  0  0  0  0  0  0
   38.8490   76.2970   60.0050 C   0  0  0  0  0  0  0  0  0  0  0  0
   39.1490   75.0050   60.3340 N   0  0  0  0  0  0  0  0  0  0  0  0
   40.4720   74.8840   60.5640 C   0  0  0  0  0  0  0  0  0  0  0  0
   40.9870   76.1090   60.3750 N   0  0  0  0  0  0  0  0  0  0  0  0
   42.5350   73.8090   61.3800 C   0  0  0  0  0  0  0  0  0  0  0  0
   41.2220   73.6880   60.9430 C   0  0  0  0  0  0  0  0  0  0  0  0
   40.6610   72.4440   60.8770 C   0  0  0  0  0  0  0  0  0  0  0  0
   41.4380   71.3520   61.2530 C   0  0  0  0  0  0  0  0  0  0  0  0
   42.7410   71.5030   61.6830 C   0  0  0  0  0  0  0  0  0  0  0  0
   43.3240   72.7450   61.7570 C   0  0  0  0  0  0  0  0  0  0  0  0
   43.2810   70.2610   61.9930 O   0  0  0  0  0  0  0  0  0  0  0  0
   42.3660   69.2680   61.5630 C   0  0  0  0  0  0  0  0  0  0  0  0
   41.1720   69.9880   61.2990 O   0  0  0  0  0  0  0  0  0  0  0  0
   40.2540   78.5790   63.2830 N   0  0  0  0  0  0  0  0  0  0  0  0
   40.2840   78.9060   62.1470 C   0  0  0  0  0  0  0  0  0  0  0  0
   40.6203   82.1867   59.0540 H   0  0  0  0  0  0  0  0  0  0  0  0
   40.4179   80.6086   57.1205 H   0  0  0  0  0  0  0  0  0  0  0  0
   40.1490   78.1997   57.6240 H   0  0  0  0  0  0  0  0  0  0  0  0
   38.5378   82.3365   61.6474 H   0  0  0  0  0  0  0  0  0  0  0  0
   41.2108   84.4315   64.1618 H   0  0  0  0  0  0  0  0  0  0  0  0
   43.9091   81.2897   61.9724 H   0  0  0  0  0  0  0  0  0  0  0  0
   42.8035   80.3879   60.9013 H   0  0  0  0  0  0  0  0  0  0  0  0
   37.8568   76.7052   59.7624 H   0  0  0  0  0  0  0  0  0  0  0  0
   38.4654   74.2371   60.3970 H   0  0  0  0  0  0  0  0  0  0  0  0
   42.9718   74.8174   61.4279 H   0  0  0  0  0  0  0  0  0  0  0  0
   39.6239   72.3091   60.5361 H   0  0  0  0  0  0  0  0  0  0  0  0
   44.3610   72.8816   62.0977 H   0  0  0  0  0  0  0  0  0  0  0  0
   42.7304   68.7692   60.6529 H   0  0  0  0  0  0  0  0  0  0  0  0
   42.2233   68.4736   62.3104 H   0  0  0  0  0  0  0  0  0  0  0  0
  1 29  1  0
  2  1  2  0
  2  8  1  0
  3  2  1  0
  4  5  1  0
  4  3  2  0
  5  6  2  0
  6 14  1  0
  6  1  1  0
  7 12  2  0
  8  7  1  0
  8  9  2  0
  9 10  1  0
 10 11  2  0
 12 11  1  0
 13  9  1  0
 14 18  1  0
 15 14  2  0
 15 16  1  0
 16 17  1  0
 17 20  1  0
 18 17  2  0
 19 24  2  0
 20 19  1  0
 21 20  2  0
 21 22  1  0
 22 27  1  0
 22 23  2  0
 23 24  1  0
 23 25  1  0
 26 25  1  0
 27 26  1  0
 29 28  3  0
  3 30  1  0
  4 31  1  0
  5 32  1  0
  7 33  1  0
 11 34  1  0
 13 35  1  0
 13 36  1  0
 15 37  1  0
 16 38  1  0
 19 39  1  0
 21 40  1  0
 24 41  1  0
 26 42  1  0
 26 43  1  0
M  END
>  <Score>  (1) 
-7.02326

>  <Score_dual>  (1) 
-7.76

>  <Choices>  (1) 
[None, 8, ['0-3', 0], 8, ['40-21', 255], 20, ['23-6', 0], 29, ['52-10', 330]]

$$$$
