
     RDKit          3D

 45 49  0  0  0  0  0  0  0  0999 V2000
   43.1580   77.7420   61.9970 C   0  0  0  0  0  0  0  0  0  0  0  0
   44.0920   78.3170   62.5290 O   0  0  0  0  0  0  0  0  0  0  0  0
   43.3500   76.3140   62.1600 C   0  0  0  0  0  0  0  0  0  0  0  0
   44.2150   75.7040   63.0480 C   0  0  0  0  0  0  0  0  0  0  0  0
   44.4380   74.3500   63.1570 C   0  0  0  0  0  0  0  0  0  0  0  0
   43.7510   73.4990   62.3200 C   0  0  0  0  0  0  0  0  0  0  0  0
   42.8690   74.0110   61.4080 C   0  0  0  0  0  0  0  0  0  0  0  0
   42.7130   75.3490   61.3690 C   0  0  0  0  0  0  0  0  0  0  0  0
   41.9650   72.9350   60.3090 S   0  0  0  0  0  0  0  0  0  0  0  0
   42.5180   71.2880   60.7120 C   0  0  0  0  0  0  0  0  0  0  0  0
   41.9900   70.2750   60.0030 C   0  0  0  0  0  0  0  0  0  0  0  0
   42.3250   68.9550   60.2060 C   0  0  0  0  0  0  0  0  0  0  0  0
   43.2500   68.7120   61.1970 C   0  0  0  0  0  0  0  0  0  0  0  0
   43.7740   69.7780   61.9090 C   0  0  0  0  0  0  0  0  0  0  0  0
   43.4320   71.0970   61.6960 C   0  0  0  0  0  0  0  0  0  0  0  0
   44.0120   72.1150   62.4520 N   0  0  0  0  0  0  0  0  0  0  0  0
   40.8060   80.3820   61.0400 C   0  0  0  0  0  0  0  0  0  0  0  0
   40.0160   79.7960   60.0820 C   0  0  0  0  0  0  0  0  0  0  0  0
   40.2470   78.4810   59.7230 C   0  0  0  0  0  0  0  0  0  0  0  0
   41.3020   77.8590   60.3990 C   0  0  0  0  0  0  0  0  0  0  0  0
   42.0780   78.4340   61.3350 C   0  0  0  0  0  0  0  0  0  0  0  0
   41.8170   79.7210   61.6560 N   0  0  0  0  0  0  0  0  0  0  0  0
   40.5440   81.7450   61.4350 C   0  0  0  0  0  0  0  0  0  0  0  0
   39.9010   82.5870   60.5340 C   0  0  0  0  0  0  0  0  0  0  0  0
   39.6210   83.9020   60.8730 C   0  0  0  0  0  0  0  0  0  0  0  0
   40.0060   84.3070   62.1190 N   0  0  0  0  0  0  0  0  0  0  0  0
   40.6370   83.4650   62.9890 C   0  0  0  0  0  0  0  0  0  0  0  0
   40.9090   82.1920   62.6580 N   0  0  0  0  0  0  0  0  0  0  0  0
   40.9950   84.0530   64.2960 C   0  0  0  0  0  0  0  0  0  0  0  0
   40.7950   85.4120   64.1670 F   0  0  0  0  0  0  0  0  0  0  0  0
   42.3300   83.8830   64.5900 F   0  0  0  0  0  0  0  0  0  0  0  0
   40.1700   83.6030   65.3020 F   0  0  0  0  0  0  0  0  0  0  0  0
   44.7764   76.3598   63.7297 H   0  0  0  0  0  0  0  0  0  0  0  0
   45.1500   73.9560   63.8971 H   0  0  0  0  0  0  0  0  0  0  0  0
   41.9980   75.7301   60.6250 H   0  0  0  0  0  0  0  0  0  0  0  0
   41.2533   70.5127   59.2214 H   0  0  0  0  0  0  0  0  0  0  0  0
   41.8803   68.1429   59.6120 H   0  0  0  0  0  0  0  0  0  0  0  0
   43.5689   67.6832   61.4204 H   0  0  0  0  0  0  0  0  0  0  0  0
   44.5109   69.5584   62.6956 H   0  0  0  0  0  0  0  0  0  0  0  0
   44.6925   71.8336   63.1722 H   0  0  0  0  0  0  0  0  0  0  0  0
   39.2066   80.3676   59.6044 H   0  0  0  0  0  0  0  0  0  0  0  0
   39.6456   77.9622   58.9620 H   0  0  0  0  0  0  0  0  0  0  0  0
   41.5150   76.8105   60.1433 H   0  0  0  0  0  0  0  0  0  0  0  0
   39.6119   82.2062   59.5433 H   0  0  0  0  0  0  0  0  0  0  0  0
   39.1147   84.5840   60.1741 H   0  0  0  0  0  0  0  0  0  0  0  0
  1  3  1  0
  1  2  2  0
  3  4  2  0
  4  5  1  0
  6 16  1  0
  6  5  2  0
  7  6  1  0
  8  7  2  0
  8  3  1  0
  9 10  1  0
  9  7  1  0
 10 15  2  0
 11 12  2  0
 11 10  1  0
 12 13  1  0
 13 14  2  0
 15 14  1  0
 15 16  1  0
 17 23  1  0
 17 22  1  0
 18 17  2  0
 19 18  1  0
 19 20  2  0
 20 21  1  0
 21 22  2  0
 21  1  1  0
 23 28  2  0
 24 25  2  0
 24 23  1  0
 25 26  1  0
 26 27  2  0
 27 29  1  0
 28 27  1  0
 29 31  1  0
 29 32  1  0
 30 29  1  0
  4 33  1  0
  5 34  1  0
  8 35  1  0
 11 36  1  0
 12 37  1  0
 13 38  1  0
 14 39  1  0
 16 40  1  0
 18 41  1  0
 19 42  1  0
 20 43  1  0
 24 44  1  0
 25 45  1  0
M  END
>  <Score>  (1) 
-7.40282

>  <Score_dual>  (1) 
-8.83

>  <Choices>  (1) 
[None, 6, ['6-18', 60], 14, ['11-13', 180], 21, ['5-8', 0], 23, ['60-16', 180]]

$$$$
