
     RDKit          3D

 52 56  0  0  0  0  0  0  0  0999 V2000
   40.4310   77.7380   61.7120 C   0  0  0  0  0  0  0  0  0  0  0  0
   41.4600   81.2570   61.5140 C   0  0  0  0  0  0  0  0  0  0  0  0
   42.8040   81.2450   61.7920 C   0  0  0  0  0  0  0  0  0  0  0  0
   43.4020   80.0050   62.0610 C   0  0  0  0  0  0  0  0  0  0  0  0
   42.6100   78.8990   62.0260 N   0  0  0  0  0  0  0  0  0  0  0  0
   41.3020   78.9650   61.7490 C   0  0  0  0  0  0  0  0  0  0  0  0
   40.6900   80.1440   61.4850 N   0  0  0  0  0  0  0  0  0  0  0  0
   40.7320   82.4780   61.2210 N   0  0  0  0  0  0  0  0  0  0  0  0
   40.7870   82.7900   59.8730 C   0  0  0  0  0  0  0  0  0  0  0  0
   40.1630   83.9120   59.3760 C   0  0  0  0  0  0  0  0  0  0  0  0
   39.4750   84.7210   60.2710 C   0  0  0  0  0  0  0  0  0  0  0  0
   38.9010   85.7450   59.8390 O   0  0  0  0  0  0  0  0  0  0  0  0
   39.4520   84.3780   61.5570 N   0  0  0  0  0  0  0  0  0  0  0  0
   40.0630   83.2840   62.0310 C   0  0  0  0  0  0  0  0  0  0  0  0
   40.0870   82.9030   63.1980 O   0  0  0  0  0  0  0  0  0  0  0  0
   40.5890   76.9910   60.4470 C   0  0  0  0  0  0  0  0  0  0  0  0
   40.1900   78.3240   58.3490 C   0  0  0  0  0  0  0  0  0  0  0  0
   39.8030   77.3550   59.2880 C   0  0  0  0  0  0  0  0  0  0  0  0
   38.5930   76.7430   59.0490 C   0  0  0  0  0  0  0  0  0  0  0  0
   37.7840   77.0260   57.9790 C   0  0  0  0  0  0  0  0  0  0  0  0
   36.5910   76.5490   57.5740 N   0  0  0  0  0  0  0  0  0  0  0  0
   36.2420   77.1820   56.4400 C   0  0  0  0  0  0  0  0  0  0  0  0
   37.2310   78.0630   56.1330 N   0  0  0  0  0  0  0  0  0  0  0  0
   38.2040   77.9860   57.0750 C   0  0  0  0  0  0  0  0  0  0  0  0
   39.4190   78.6450   57.2580 C   0  0  0  0  0  0  0  0  0  0  0  0
   39.7700   79.6440   56.2460 C   0  0  0  0  0  0  0  0  0  0  0  0
   39.9290   81.0220   56.8240 C   0  0  0  0  0  0  0  0  0  0  0  0
   41.0330   81.7020   56.0810 C   0  0  0  0  0  0  0  0  0  0  0  0
   41.3020   80.7790   54.9150 C   0  0  0  0  0  0  0  0  0  0  0  0
   41.1140   79.4100   55.5830 C   0  0  0  0  0  0  0  0  0  0  0  0
   40.7058   77.0809   62.5503 H   0  0  0  0  0  0  0  0  0  0  0  0
   39.3823   78.0606   61.7899 H   0  0  0  0  0  0  0  0  0  0  0  0
   43.3914   82.1749   61.8034 H   0  0  0  0  0  0  0  0  0  0  0  0
   44.4747   79.9292   62.2924 H   0  0  0  0  0  0  0  0  0  0  0  0
   41.3388   82.1300   59.1875 H   0  0  0  0  0  0  0  0  0  0  0  0
   40.2079   84.1596   58.3052 H   0  0  0  0  0  0  0  0  0  0  0  0
   38.9413   84.9810   62.2176 H   0  0  0  0  0  0  0  0  0  0  0  0
   41.6457   77.0813   60.1550 H   0  0  0  0  0  0  0  0  0  0  0  0
   40.2175   75.9867   60.6987 H   0  0  0  0  0  0  0  0  0  0  0  0
   41.1474   78.8464   58.4921 H   0  0  0  0  0  0  0  0  0  0  0  0
   38.2536   75.9777   59.7625 H   0  0  0  0  0  0  0  0  0  0  0  0
   36.0394   75.8223   58.0521 H   0  0  0  0  0  0  0  0  0  0  0  0
   35.3201   77.0164   55.8632 H   0  0  0  0  0  0  0  0  0  0  0  0
   38.9341   79.5544   55.5366 H   0  0  0  0  0  0  0  0  0  0  0  0
   38.9934   81.5882   56.7054 H   0  0  0  0  0  0  0  0  0  0  0  0
   40.1649   80.9648   57.8969 H   0  0  0  0  0  0  0  0  0  0  0  0
   40.7160   82.6951   55.7300 H   0  0  0  0  0  0  0  0  0  0  0  0
   41.9236   81.8729   56.7036 H   0  0  0  0  0  0  0  0  0  0  0  0
   42.3239   80.9035   54.5275 H   0  0  0  0  0  0  0  0  0  0  0  0
   40.6582   80.9511   54.0398 H   0  0  0  0  0  0  0  0  0  0  0  0
   41.0725   78.5948   54.8456 H   0  0  0  0  0  0  0  0  0  0  0  0
   41.9247   79.1013   56.2593 H   0  0  0  0  0  0  0  0  0  0  0  0
  1  6  1  0
  2  3  2  0
  3  4  1  0
  5  4  2  0
  6  5  1  0
  7  2  1  0
  7  6  2  0
  8  2  1  0
  8 14  1  0
  9  8  1  0
 10  9  2  0
 10 11  1  0
 11 13  1  0
 12 11  2  0
 13 14  1  0
 14 15  2  0
 16  1  1  0
 17 18  2  0
 18 16  1  0
 19 18  1  0
 20 19  2  0
 21 20  1  0
 22 21  1  0
 23 22  2  0
 23 24  1  0
 24 25  2  0
 24 20  1  0
 25 17  1  0
 26 27  1  0
 26 25  1  0
 28 27  1  0
 29 30  1  0
 29 28  1  0
 30 26  1  0
  1 31  1  0
  1 32  1  0
  3 33  1  0
  4 34  1  0
  9 35  1  0
 10 36  1  0
 13 37  1  0
 16 38  1  0
 16 39  1  0
 17 40  1  0
 19 41  1  0
 21 42  1  0
 22 43  1  0
 26 44  1  0
 27 45  1  0
 27 46  1  0
 28 47  1  0
 28 48  1  0
 29 49  1  0
 29 50  1  0
 30 51  1  0
 30 52  1  0
M  END
>  <Score>  (1) 
-7.4209

>  <Score_dual>  (1) 
-7.16

>  <Choices>  (1) 
[None, 6, ['37-16', 135], 19, ['4-9', 270], 25, ['34-15', 255], 38, ['31-21', 90]]

$$$$
