
     RDKit          3D

 51 55  0  0  1  0  0  0  0  0999 V2000
   40.5870   79.4900   61.5760 C   0  0  0  0  0  0  0  0  0  0  0  0
   40.3950   79.9410   62.7510 O   0  0  0  0  0  0  0  0  0  0  0  0
   40.4010   80.4380   60.5160 N   0  0  0  0  0  0  0  0  0  0  0  0
   39.6490   83.9990   59.8570 C   0  0  0  0  0  0  0  0  0  0  0  0
   40.0990   82.6980   59.6840 C   0  0  0  0  0  0  0  0  0  0  0  0
   39.9330   81.7560   60.7220 C   0  0  0  0  0  0  0  0  0  0  0  0
   39.3410   82.1790   61.8390 N   0  0  0  0  0  0  0  0  0  0  0  0
   38.9120   83.4530   61.9810 C   0  0  0  0  0  0  0  0  0  0  0  0
   39.0660   84.3660   60.9910 N   0  0  0  0  0  0  0  0  0  0  0  0
   42.9540   83.6270   59.4670 Cl  0  0  0  0  0  0  0  0  0  0  0  0
   42.0550   82.7490   58.2280 C   0  0  0  0  0  0  0  0  0  0  0  0
   40.7360   82.3530   58.4070 C   0  0  0  0  0  0  0  0  0  0  0  0
   40.0970   81.6680   57.3940 C   0  0  0  0  0  0  0  0  0  0  0  0
   40.7440   81.3660   56.2050 C   0  0  0  0  0  0  0  0  0  0  0  0
   42.0510   81.7690   56.0540 C   0  0  0  0  0  0  0  0  0  0  0  0
   42.7350   82.4600   57.0410 C   0  0  0  0  0  0  0  0  0  0  0  0
   40.9740   78.1070   61.2440 C   0  0  0  0  0  0  0  0  0  0  0  0
   40.1090   77.0620   60.9290 C   0  0  0  0  0  0  0  0  0  0  0  0
   40.9250   75.9830   60.6980 C   0  0  0  0  0  0  0  0  0  0  0  0
   42.2440   76.3960   60.8750 C   0  0  0  0  0  0  0  0  0  0  0  0
   42.2080   77.6840   61.2020 O   0  0  0  0  0  0  0  0  0  0  0  0
   43.4390   75.5100   60.7130 C   0  0  0  0  0  0  0  0  0  0  0  0
   44.3450   75.5710   61.8710 C   0  0  0  0  0  0  0  0  0  0  0  0
   44.3870   74.6360   62.8030 C   0  0  0  0  0  0  0  0  0  0  0  0
   45.2540   74.7080   63.8940 N   0  0  0  0  0  0  0  0  0  0  0  0
   46.1040   74.0250   64.8000 C   0  0  0  0  0  0  0  0  0  0  0  0
   46.3360   72.8270   65.1050 O   0  0  0  0  0  0  0  0  0  0  0  0
   46.6970   75.2930   65.3310 C   0  0  0  0  0  0  0  0  0  0  0  0
   45.5710   75.9430   64.5570 C   0  0  1  0  0  0  0  0  0  0  0  0
   46.2000   77.0620   63.2650 S   0  0  0  0  0  0  0  0  0  0  0  0
   45.1750   76.7990   61.8240 C   0  0  0  0  0  0  0  0  0  0  0  0
   43.4760   73.5280   62.6200 C   0  0  0  0  0  0  0  0  0  0  0  0
   43.3500   72.6320   63.5090 O   0  0  0  0  0  0  0  0  0  0  0  0
   42.5750   72.5170   62.3350 O   0  0  0  0  0  0  0  0  0  0  0  0
   40.6200   80.1430   59.5538 H   0  0  0  0  0  0  0  0  0  0  0  0
   39.7766   84.7324   59.0472 H   0  0  0  0  0  0  0  0  0  0  0  0
   38.4271   83.7555   62.9209 H   0  0  0  0  0  0  0  0  0  0  0  0
   39.0517   81.3546   57.5324 H   0  0  0  0  0  0  0  0  0  0  0  0
   40.2259   80.8187   55.4037 H   0  0  0  0  0  0  0  0  0  0  0  0
   42.5723   81.5337   55.1144 H   0  0  0  0  0  0  0  0  0  0  0  0
   43.7799   82.7714   56.8954 H   0  0  0  0  0  0  0  0  0  0  0  0
   39.0107   77.0944   60.8767 H   0  0  0  0  0  0  0  0  0  0  0  0
   40.5958   74.9704   60.4218 H   0  0  0  0  0  0  0  0  0  0  0  0
   43.0951   74.4726   60.5881 H   0  0  0  0  0  0  0  0  0  0  0  0
   43.9976   75.8589   59.8320 H   0  0  0  0  0  0  0  0  0  0  0  0
   46.6532   75.4153   66.4233 H   0  0  0  0  0  0  0  0  0  0  0  0
   47.7560   75.5678   65.2172 H   0  0  0  0  0  0  0  0  0  0  0  0
   44.8257   76.5216   65.1224 H   0  0  0  0  0  0  0  0  0  0  0  0
   45.8312   76.7358   60.9434 H   0  0  0  0  0  0  0  0  0  0  0  0
   44.4749   77.6463   61.7813 H   0  0  0  0  0  0  0  0  0  0  0  0
   42.4297   71.7854   62.9860 H   0  0  0  0  0  0  0  0  0  0  0  0
  1  2  2  0
  3  6  1  0
  3  1  1  0
  4  9  2  0
  5  4  1  0
  5  6  2  0
  6  7  1  0
  7  8  2  0
  9  8  1  0
 11 12  2  0
 11 10  1  0
 12  5  1  0
 13 12  1  0
 14 13  2  0
 15 14  1  0
 15 16  2  0
 16 11  1  0
 17  1  1  0
 18 17  2  0
 19 20  2  0
 19 18  1  0
 20 21  1  0
 21 17  1  0
 22 20  1  0
 22 23  1  0
 23 24  2  0
 24 25  1  0
 25 29  1  0
 25 26  1  0
 26 27  2  0
 26 28  1  0
 29 30  1  0
 29 28  1  0
 31 23  1  0
 31 30  1  0
 32 24  1  0
 32 33  2  0
 34 32  1  0
  3 35  1  0
  4 36  1  0
  8 37  1  0
 13 38  1  0
 14 39  1  0
 15 40  1  0
 16 41  1  0
 18 42  1  0
 19 43  1  0
 22 44  1  0
 22 45  1  0
 28 46  1  0
 28 47  1  0
 29 48  1  1
 31 49  1  0
 31 50  1  0
 34 51  1  0
M  END
>  <Score>  (1) 
-7.33363

>  <Score_dual>  (1) 
-7.84

>  <Choices>  (1) 
[None, 8, ['12-5', 75], 10, ['7-17', 330], 22, ['43-9', 315], 30, ['55-14', 315]]

$$$$
