
     RDKit          3D

 42 45  0  0  0  0  0  0  0  0999 V2000
   42.1160   78.3960   62.6940 Cl  0  0  0  0  0  0  0  0  0  0  0  0
   43.5400   79.3360   62.2850 C   0  0  0  0  0  0  0  0  0  0  0  0
   43.3910   80.6310   61.8430 C   0  0  0  0  0  0  0  0  0  0  0  0
   44.5540   81.2820   61.5500 C   0  0  0  0  0  0  0  0  0  0  0  0
   45.8030   80.7310   61.6690 C   0  0  0  0  0  0  0  0  0  0  0  0
   45.9400   79.4190   62.1160 C   0  0  0  0  0  0  0  0  0  0  0  0
   44.7780   78.7230   62.4260 C   0  0  0  0  0  0  0  0  0  0  0  0
   39.8490   81.2130   60.8950 C   0  0  0  0  0  0  0  0  0  0  0  0
   41.0990   80.5800   60.9440 C   0  0  0  0  0  0  0  0  0  0  0  0
   42.0700   81.1980   61.7230 C   0  0  0  0  0  0  0  0  0  0  0  0
   41.7460   82.3470   62.3660 N   0  0  0  0  0  0  0  0  0  0  0  0
   40.5340   82.9270   62.2940 C   0  0  0  0  0  0  0  0  0  0  0  0
   39.5710   82.3470   61.5460 N   0  0  0  0  0  0  0  0  0  0  0  0
   40.3430   84.0660   64.4590 C   0  0  0  0  0  0  0  0  0  0  0  0
   40.3610   82.9200   64.9870 O   0  0  0  0  0  0  0  0  0  0  0  0
   40.4320   84.1080   63.0440 N   0  0  0  0  0  0  0  0  0  0  0  0
   40.2430   85.2580   65.1800 N   0  0  0  0  0  0  0  0  0  0  0  0
   46.0030   76.9360   63.6830 C   0  0  0  0  0  0  0  0  0  0  0  0
   44.9650   77.3540   62.8900 C   0  0  0  0  0  0  0  0  0  0  0  0
   44.0510   76.3970   62.5190 C   0  0  0  0  0  0  0  0  0  0  0  0
   44.1770   75.0780   62.9300 C   0  0  0  0  0  0  0  0  0  0  0  0
   43.4520   73.9830   62.7200 N   0  0  0  0  0  0  0  0  0  0  0  0
   44.0520   72.9490   63.3750 C   0  0  0  0  0  0  0  0  0  0  0  0
   45.1440   73.3610   63.9980 N   0  0  0  0  0  0  0  0  0  0  0  0
   45.2310   74.6900   63.7270 C   0  0  0  0  0  0  0  0  0  0  0  0
   46.1730   75.6420   64.1170 C   0  0  0  0  0  0  0  0  0  0  0  0
   47.3090   75.2200   64.9760 C   0  0  0  0  0  0  0  0  0  0  0  0
   46.8850   74.5380   66.1080 F   0  0  0  0  0  0  0  0  0  0  0  0
   47.9520   76.3890   65.3870 F   0  0  0  0  0  0  0  0  0  0  0  0
   48.1840   74.4160   64.2570 F   0  0  0  0  0  0  0  0  0  0  0  0
   44.4840   82.3204   61.1938 H   0  0  0  0  0  0  0  0  0  0  0  0
   46.6941   81.3227   61.4124 H   0  0  0  0  0  0  0  0  0  0  0  0
   46.9304   78.9516   62.2197 H   0  0  0  0  0  0  0  0  0  0  0  0
   39.0551   80.7522   60.2889 H   0  0  0  0  0  0  0  0  0  0  0  0
   41.2998   79.6471   60.3969 H   0  0  0  0  0  0  0  0  0  0  0  0
   40.4216   85.0176   62.5609 H   0  0  0  0  0  0  0  0  0  0  0  0
   40.2339   86.1607   64.6840 H   0  0  0  0  0  0  0  0  0  0  0  0
   40.1783   85.2344   66.2077 H   0  0  0  0  0  0  0  0  0  0  0  0
   46.7479   77.6842   63.9919 H   0  0  0  0  0  0  0  0  0  0  0  0
   43.2009   76.6832   61.8822 H   0  0  0  0  0  0  0  0  0  0  0  0
   42.5889   73.9262   62.1608 H   0  0  0  0  0  0  0  0  0  0  0  0
   43.6794   71.9141   63.3843 H   0  0  0  0  0  0  0  0  0  0  0  0
  2  7  2  0
  2  1  1  0
  3  2  1  0
  4  5  1  0
  4  3  2  0
  5  6  2  0
  6  7  1  0
  7 19  1  0
  8  9  2  0
  8 13  1  0
  9 10  1  0
 10  3  1  0
 10 11  2  0
 12 11  1  0
 12 16  1  0
 13 12  2  0
 14 15  2  0
 14 17  1  0
 16 14  1  0
 18 26  2  0
 19 18  1  0
 20 19  2  0
 20 21  1  0
 21 25  2  0
 22 21  1  0
 22 23  1  0
 23 24  2  0
 25 24  1  0
 25 26  1  0
 26 27  1  0
 27 29  1  0
 27 28  1  0
 30 27  1  0
  4 31  1  0
  5 32  1  0
  6 33  1  0
  8 34  1  0
  9 35  1  0
 16 36  1  0
 17 37  1  0
 17 38  1  0
 18 39  1  0
 20 40  1  0
 22 41  1  0
 23 42  1  0
M  END
>  <Score>  (1) 
-7.37859

>  <Score_dual>  (1) 
-7.75

>  <Choices>  (1) 
[None, 9, ['12-5', 195], 12, ['0-20', 0], 12, ['7-17', 150], 25, ['34-21', 120], 38, ['11-14', 0]]

$$$$
