
     RDKit          3D

 45 48  0  0  1  0  0  0  0  0999 V2000
   39.9160   77.1710   60.3920 C   0  0  0  0  0  0  0  0  0  0  0  0
   39.1390   77.2770   59.2450 C   0  0  0  0  0  0  0  0  0  0  0  0
   38.5200   76.0480   59.1050 C   0  0  0  0  0  0  0  0  0  0  0  0
   38.8920   75.2430   60.0980 N   0  0  0  0  0  0  0  0  0  0  0  0
   39.7250   75.9370   60.8530 N   0  0  0  0  0  0  0  0  0  0  0  0
   40.7900   80.6030   61.1400 C   0  0  0  0  0  0  0  0  0  0  0  0
   42.0370   80.4060   61.7160 C   0  0  0  0  0  0  0  0  0  0  0  0
   42.6040   79.1440   61.8650 C   0  0  0  0  0  0  0  0  0  0  0  0
   41.9290   78.0610   61.4380 N   0  0  0  0  0  0  0  0  0  0  0  0
   40.7350   78.2700   60.8880 C   0  0  0  0  0  0  0  0  0  0  0  0
   40.1450   79.4760   60.7240 N   0  0  0  0  0  0  0  0  0  0  0  0
   39.6650   83.9450   59.8580 C   0  0  0  0  0  0  0  0  0  0  0  0
   40.3040   82.7110   59.8390 C   0  0  0  0  0  0  0  0  0  0  0  0
   40.1890   81.9210   60.9820 C   0  0  0  0  0  0  0  0  0  0  0  0
   39.4690   82.3960   62.0300 N   0  0  0  0  0  0  0  0  0  0  0  0
   38.8620   83.5840   62.0280 C   0  0  0  0  0  0  0  0  0  0  0  0
   38.9530   84.3780   60.9330 N   0  0  0  0  0  0  0  0  0  0  0  0
   38.4860   73.8950   60.3250 C   0  0  0  0  0  0  0  0  0  0  0  0
   40.1500   72.9650   58.7000 C   0  0  2  0  0  0  0  0  0  0  0  0
   39.5290   72.8510   60.0820 C   0  0  1  0  0  0  0  0  0  0  0  0
   40.4580   72.6920   61.0690 O   0  0  0  0  0  0  0  0  0  0  0  0
   41.7050   72.2830   60.6960 C   0  0  0  0  0  0  0  0  0  0  0  0
   41.8120   71.4070   59.4890 C   0  0  1  0  0  0  0  0  0  0  0  0
   40.7470   71.5720   58.4640 C   0  0  2  0  0  0  0  0  0  0  0  0
   41.2500   73.8220   58.6760 O   0  0  0  0  0  0  0  0  0  0  0  0
   43.0420   71.7030   58.8750 O   0  0  0  0  0  0  0  0  0  0  0  0
   41.1720   71.5190   57.1560 O   0  0  0  0  0  0  0  0  0  0  0  0
   39.0376   78.1530   58.5874 H   0  0  0  0  0  0  0  0  0  0  0  0
   37.8257   75.7769   58.2960 H   0  0  0  0  0  0  0  0  0  0  0  0
   42.5999   81.2827   62.0690 H   0  0  0  0  0  0  0  0  0  0  0  0
   43.5956   79.0326   62.3279 H   0  0  0  0  0  0  0  0  0  0  0  0
   39.7376   84.5941   58.9729 H   0  0  0  0  0  0  0  0  0  0  0  0
   40.8748   82.3728   58.9616 H   0  0  0  0  0  0  0  0  0  0  0  0
   38.2921   83.9167   62.9081 H   0  0  0  0  0  0  0  0  0  0  0  0
   38.1631   73.8118   61.3733 H   0  0  0  0  0  0  0  0  0  0  0  0
   37.6885   73.6962   59.5939 H   0  0  0  0  0  0  0  0  0  0  0  0
   39.4001   73.3245   57.9800 H   0  0  0  0  0  0  0  0  0  0  0  0
   38.9653   71.9070   60.1163 H   0  0  0  0  0  0  0  0  0  0  0  0
   42.3035   73.1854   60.5023 H   0  0  0  0  0  0  0  0  0  0  0  0
   42.0551   71.6560   61.5292 H   0  0  0  0  0  0  0  0  0  0  0  0
   41.7128   70.3733   59.8519 H   0  0  0  0  0  0  0  0  0  0  0  0
   40.0447   70.7337   58.5826 H   0  0  0  0  0  0  0  0  0  0  0  0
   41.5229   74.0347   59.6036 H   0  0  0  0  0  0  0  0  0  0  0  0
   43.7269   71.8678   59.5706 H   0  0  0  0  0  0  0  0  0  0  0  0
   42.1541   71.3965   57.1328 H   0  0  0  0  0  0  0  0  0  0  0  0
  1  5  2  0
  1 10  1  0
  2  1  1  0
  3  2  2  0
  3  4  1  0
  4 18  1  0
  4  5  1  0
  6  7  2  0
  7  8  1  0
  9  8  2  0
 10  9  1  0
 11 10  2  0
 11  6  1  0
 12 17  2  0
 13 12  1  0
 13 14  2  0
 14  6  1  0
 14 15  1  0
 16 15  2  0
 17 16  1  0
 19 25  1  0
 19 20  1  0
 20 18  1  0
 20 21  1  0
 22 21  1  0
 23 26  1  0
 23 22  1  0
 24 27  1  0
 24 19  1  0
 24 23  1  0
  2 28  1  0
  3 29  1  0
  7 30  1  0
  8 31  1  0
 12 32  1  0
 13 33  1  0
 16 34  1  0
 18 35  1  0
 18 36  1  0
 19 37  1  6
 20 38  1  6
 22 39  1  0
 22 40  1  0
 23 41  1  1
 24 42  1  6
 25 43  1  0
 26 44  1  0
 27 45  1  0
M  END
>  <Score>  (1) 
-7.09493

>  <Score_dual>  (1) 
-7.29

>  <Choices>  (1) 
[None, 8, ['19-20', 0], 17, ['22-6', 270], 24, ['3-1', 0], 27, ['21-16', 30]]

$$$$
