
     RDKit          3D

 39 41  0  0  0  0  0  0  0  0999 V2000
   41.1500   79.7240   61.3690 C   0  0  0  0  0  0  0  0  0  0  0  0
   42.5260   79.4280   61.2420 C   0  0  0  0  0  0  0  0  0  0  0  0
   42.8750   78.1420   60.7490 C   0  0  0  0  0  0  0  0  0  0  0  0
   41.8460   77.2980   60.4380 N   0  0  0  0  0  0  0  0  0  0  0  0
   40.5660   77.6300   60.5760 C   0  0  0  0  0  0  0  0  0  0  0  0
   40.1900   78.8480   61.0440 N   0  0  0  0  0  0  0  0  0  0  0  0
   40.8360   81.0380   61.8710 C   0  0  0  0  0  0  0  0  0  0  0  0
   41.6000   81.8160   62.7130 C   0  0  0  0  0  0  0  0  0  0  0  0
   40.9150   82.9680   62.9200 N   0  0  0  0  0  0  0  0  0  0  0  0
   39.7540   82.9380   62.2410 C   0  0  0  0  0  0  0  0  0  0  0  0
   39.7060   81.7530   61.5970 N   0  0  0  0  0  0  0  0  0  0  0  0
   38.7650   83.9540   62.2030 N   0  0  0  0  0  0  0  0  0  0  0  0
   41.4250   84.0320   63.7660 C   0  0  0  0  0  0  0  0  0  0  0  0
   40.6560   84.2530   64.8840 F   0  0  0  0  0  0  0  0  0  0  0  0
   41.5180   85.2330   63.0820 F   0  0  0  0  0  0  0  0  0  0  0  0
   42.7010   83.6490   64.2020 F   0  0  0  0  0  0  0  0  0  0  0  0
   39.5620   76.6580   60.2160 C   0  0  0  0  0  0  0  0  0  0  0  0
   38.9120   76.0830   61.1320 O   0  0  0  0  0  0  0  0  0  0  0  0
   39.5080   74.9970   58.3510 C   0  0  0  0  0  0  0  0  0  0  0  0
   39.1310   76.1870   58.9050 C   0  0  0  0  0  0  0  0  0  0  0  0
   38.2880   76.9450   58.1230 C   0  0  0  0  0  0  0  0  0  0  0  0
   37.8410   76.5530   56.8660 C   0  0  0  0  0  0  0  0  0  0  0  0
   38.2590   75.3350   56.3590 C   0  0  0  0  0  0  0  0  0  0  0  0
   39.1040   74.5510   57.1150 C   0  0  0  0  0  0  0  0  0  0  0  0
   39.5600   73.2800   56.6250 N   0  0  0  0  0  0  0  0  0  0  0  0
   37.8810   74.8110   55.0910 N   0  0  0  0  0  0  0  0  0  0  0  0
   41.1090   73.4680   59.7710 N   0  0  0  0  0  0  0  0  0  0  0  0
   40.4070   74.1430   59.1350 C   0  0  0  0  0  0  0  0  0  0  0  0
   43.2966   80.1643   61.5141 H   0  0  0  0  0  0  0  0  0  0  0  0
   43.9251   77.8396   60.6234 H   0  0  0  0  0  0  0  0  0  0  0  0
   42.5802   81.5526   63.1371 H   0  0  0  0  0  0  0  0  0  0  0  0
   37.9099   83.8197   61.6447 H   0  0  0  0  0  0  0  0  0  0  0  0
   38.9019   84.8261   62.7337 H   0  0  0  0  0  0  0  0  0  0  0  0
   37.9492   77.9153   58.5149 H   0  0  0  0  0  0  0  0  0  0  0  0
   37.1671   77.1996   56.2849 H   0  0  0  0  0  0  0  0  0  0  0  0
   40.1913   72.7031   57.1991 H   0  0  0  0  0  0  0  0  0  0  0  0
   39.2557   72.9456   55.6996 H   0  0  0  0  0  0  0  0  0  0  0  0
   38.2366   73.8937   54.7860 H   0  0  0  0  0  0  0  0  0  0  0  0
   37.2518   75.3490   54.4782 H   0  0  0  0  0  0  0  0  0  0  0  0
  1  7  1  0
  2  1  2  0
  3  2  1  0
  4  5  1  0
  4  3  2  0
  5  6  2  0
  6  1  1  0
  7  8  2  0
  8  9  1  0
  9 13  1  0
 10  9  1  0
 11  7  1  0
 11 10  2  0
 12 10  1  0
 13 16  1  0
 13 14  1  0
 15 13  1  0
 17  5  1  0
 17 18  2  0
 19 20  2  0
 19 28  1  0
 20 17  1  0
 21 20  1  0
 22 21  2  0
 23 22  1  0
 23 24  2  0
 24 19  1  0
 25 24  1  0
 26 23  1  0
 28 27  3  0
  2 29  1  0
  3 30  1  0
  8 31  1  0
 12 32  1  0
 12 33  1  0
 21 34  1  0
 22 35  1  0
 25 36  1  0
 25 37  1  0
 26 38  1  0
 26 39  1  0
M  END
>  <Score>  (1) 
-7.20531

>  <Score_dual>  (1) 
-7.25

>  <Choices>  (1) 
[None, 6, ['23-9', 180], 15, ['11-3', 300], 16, ['0-2', 0], 21, ['5-9', 345], 23, ['40-8', 135], 34, ['0-2', 0], 34, ['0-2', 0]]

$$$$
