
     RDKit          3D

 43 47  0  0  0  0  0  0  0  0999 V2000
   44.6200   82.9160   61.4640 Cl  0  0  0  0  0  0  0  0  0  0  0  0
   44.6270   81.2020   61.9070 C   0  0  0  0  0  0  0  0  0  0  0  0
   43.4960   80.4480   61.7320 C   0  0  0  0  0  0  0  0  0  0  0  0
   43.5550   79.1260   62.0910 C   0  0  0  0  0  0  0  0  0  0  0  0
   44.6970   78.5430   62.6120 C   0  0  0  0  0  0  0  0  0  0  0  0
   45.8020   79.3510   62.7660 C   0  0  0  0  0  0  0  0  0  0  0  0
   45.8150   80.6820   62.4270 C   0  0  0  0  0  0  0  0  0  0  0  0
   45.8010   76.7870   63.8760 C   0  0  0  0  0  0  0  0  0  0  0  0
   44.7900   77.1500   63.0010 C   0  0  0  0  0  0  0  0  0  0  0  0
   43.9340   76.1340   62.5590 C   0  0  0  0  0  0  0  0  0  0  0  0
   44.1270   74.8330   63.0040 C   0  0  0  0  0  0  0  0  0  0  0  0
   43.4780   73.6860   62.7550 N   0  0  0  0  0  0  0  0  0  0  0  0
   44.0310   72.6730   63.4180 C   0  0  0  0  0  0  0  0  0  0  0  0
   45.0630   73.1710   64.1150 N   0  0  0  0  0  0  0  0  0  0  0  0
   45.1380   74.4820   63.8780 C   0  0  0  0  0  0  0  0  0  0  0  0
   45.9770   75.5060   64.3050 C   0  0  0  0  0  0  0  0  0  0  0  0
   42.3140   81.0850   61.1830 C   0  0  0  0  0  0  0  0  0  0  0  0
   41.9130   80.8530   59.8680 C   0  0  0  0  0  0  0  0  0  0  0  0
   40.7840   81.4510   59.3140 C   0  0  0  0  0  0  0  0  0  0  0  0
   40.0870   82.2760   60.1210 N   0  0  0  0  0  0  0  0  0  0  0  0
   40.4640   82.5120   61.4010 C   0  0  0  0  0  0  0  0  0  0  0  0
   41.5550   81.9170   61.8910 N   0  0  0  0  0  0  0  0  0  0  0  0
   40.3920   81.1880   57.9360 C   0  0  0  0  0  0  0  0  0  0  0  0
   39.4500   80.2820   57.5520 C   0  0  0  0  0  0  0  0  0  0  0  0
   39.3910   80.3570   56.1720 C   0  0  0  0  0  0  0  0  0  0  0  0
   40.2970   81.3010   55.7870 N   0  0  0  0  0  0  0  0  0  0  0  0
   40.8800   81.7840   56.8540 N   0  0  0  0  0  0  0  0  0  0  0  0
   39.7010   83.4230   62.2990 C   0  0  0  0  0  0  0  0  0  0  0  0
   38.3600   83.0810   62.1240 F   0  0  0  0  0  0  0  0  0  0  0  0
   39.8710   84.7190   61.8680 F   0  0  0  0  0  0  0  0  0  0  0  0
   40.0770   83.2690   63.6230 F   0  0  0  0  0  0  0  0  0  0  0  0
   42.6579   78.5032   61.9595 H   0  0  0  0  0  0  0  0  0  0  0  0
   46.7195   78.9083   63.1811 H   0  0  0  0  0  0  0  0  0  0  0  0
   46.7122   81.3048   62.5578 H   0  0  0  0  0  0  0  0  0  0  0  0
   46.4893   77.5645   64.2390 H   0  0  0  0  0  0  0  0  0  0  0  0
   43.1137   76.3650   61.8635 H   0  0  0  0  0  0  0  0  0  0  0  0
   42.6609   73.6005   62.1338 H   0  0  0  0  0  0  0  0  0  0  0  0
   43.7029   71.6233   63.3980 H   0  0  0  0  0  0  0  0  0  0  0  0
   46.7972   75.2774   65.0014 H   0  0  0  0  0  0  0  0  0  0  0  0
   42.5110   80.1719   59.2446 H   0  0  0  0  0  0  0  0  0  0  0  0
   38.8574   79.6251   58.2057 H   0  0  0  0  0  0  0  0  0  0  0  0
   38.7381   79.7678   55.5113 H   0  0  0  0  0  0  0  0  0  0  0  0
   40.4903   81.5865   54.8164 H   0  0  0  0  0  0  0  0  0  0  0  0
  1  2  1  0
  2  7  2  0
  3  2  1  0
  3  4  2  0
  4  5  1  0
  5  6  2  0
  5  9  1  0
  7  6  1  0
  8 16  2  0
  9  8  1  0
 10  9  2  0
 10 11  1  0
 11 15  2  0
 12 11  1  0
 12 13  1  0
 13 14  2  0
 15 14  1  0
 15 16  1  0
 17  3  1  0
 17 22  1  0
 18 17  2  0
 19 18  1  0
 19 20  2  0
 20 21  1  0
 21 22  2  0
 21 28  1  0
 23 19  1  0
 24 23  1  0
 25 24  2  0
 26 25  1  0
 26 27  1  0
 27 23  2  0
 28 31  1  0
 29 28  1  0
 30 28  1  0
  4 32  1  0
  6 33  1  0
  7 34  1  0
  8 35  1  0
 10 36  1  0
 12 37  1  0
 13 38  1  0
 16 39  1  0
 18 40  1  0
 24 41  1  0
 25 42  1  0
 26 43  1  0
M  END
>  <Score>  (1) 
-7.14222

>  <Score_dual>  (1) 
-7.35

>  <Choices>  (1) 
[None, 6, ['7-19', 90], 17, ['34-24', 330], 32, ['11-14', 60], 35, ['22-6', 0]]

$$$$
