
     RDKit          3D

 43 47  0  0  1  0  0  0  0  0999 V2000
   40.7500   81.9000   61.1810 N   0  0  0  0  0  0  0  0  0  0  0  0
   40.2270   80.6850   61.2920 C   0  0  0  0  0  0  0  0  0  0  0  0
   39.9450   80.2170   60.0320 N   0  0  0  0  0  0  0  0  0  0  0  0
   40.3040   81.1650   59.1750 C   0  0  0  0  0  0  0  0  0  0  0  0
   40.2060   81.3380   57.8270 C   0  0  1  0  0  0  0  0  0  0  0  0
   40.8820   82.3570   57.2010 N   0  0  0  0  0  0  0  0  0  0  0  0
   41.3920   83.3750   57.9060 C   0  0  0  0  0  0  0  0  0  0  0  0
   41.3400   83.2900   59.2630 N   0  0  0  0  0  0  0  0  0  0  0  0
   40.8090   82.2110   59.8790 C   0  0  0  0  0  0  0  0  0  0  0  0
   41.1640   82.7820   62.2230 C   0  0  0  0  0  0  0  0  0  0  0  0
   40.2280   83.5950   62.9410 C   0  0  0  0  0  0  0  0  0  0  0  0
   40.7130   84.4270   63.9370 C   0  0  0  0  0  0  0  0  0  0  0  0
   42.0590   84.4190   64.1710 N   0  0  0  0  0  0  0  0  0  0  0  0
   42.9100   83.6330   63.4670 C   0  0  0  0  0  0  0  0  0  0  0  0
   42.4420   82.8170   62.4910 N   0  0  0  0  0  0  0  0  0  0  0  0
   38.9050   83.4830   62.5750 O   0  0  0  0  0  0  0  0  0  0  0  0
   40.1670   80.1660   57.0220 N   0  0  0  0  0  0  0  0  0  0  0  0
   39.0910   80.0720   56.0870 C   0  0  2  0  0  0  0  0  0  0  0  0
   37.6790   79.9980   56.3650 C   0  0  0  0  0  0  0  0  0  0  0  0
   38.3860   78.7170   56.0600 C   0  0  2  0  0  0  0  0  0  0  0  0
   38.4940   77.8220   57.1720 N   0  0  0  0  0  0  0  0  0  0  0  0
   39.5330   77.5480   57.9790 C   0  0  0  0  0  0  0  0  0  0  0  0
   39.4040   76.6330   59.0080 C   0  0  0  0  0  0  0  0  0  0  0  0
   38.2120   75.9740   59.2400 C   0  0  0  0  0  0  0  0  0  0  0  0
   38.1270   75.1520   60.1800 O   0  0  0  0  0  0  0  0  0  0  0  0
   37.1930   76.2720   58.4160 N   0  0  0  0  0  0  0  0  0  0  0  0
   37.3180   77.1680   57.4080 C   0  0  0  0  0  0  0  0  0  0  0  0
   36.2440   77.3200   56.7310 O   0  0  0  0  0  0  0  0  0  0  0  0
   40.0496   80.1446   62.2335 H   0  0  0  0  0  0  0  0  0  0  0  0
   39.1827   81.7369   57.8887 H   0  0  0  0  0  0  0  0  0  0  0  0
   41.8368   84.2481   57.4062 H   0  0  0  0  0  0  0  0  0  0  0  0
   41.7128   84.0635   59.8319 H   0  0  0  0  0  0  0  0  0  0  0  0
   40.0379   85.0715   64.5191 H   0  0  0  0  0  0  0  0  0  0  0  0
   43.9871   83.6575   63.6891 H   0  0  0  0  0  0  0  0  0  0  0  0
   38.2159   84.0220   63.0384 H   0  0  0  0  0  0  0  0  0  0  0  0
   41.0483   80.1215   56.4908 H   0  0  0  0  0  0  0  0  0  0  0  0
   39.6368   80.7641   55.4289 H   0  0  0  0  0  0  0  0  0  0  0  0
   37.3165   80.1877   57.3861 H   0  0  0  0  0  0  0  0  0  0  0  0
   36.7930   80.4975   55.9460 H   0  0  0  0  0  0  0  0  0  0  0  0
   38.3392   77.8971   55.3282 H   0  0  0  0  0  0  0  0  0  0  0  0
   40.4954   78.0564   57.8196 H   0  0  0  0  0  0  0  0  0  0  0  0
   40.2687   76.4255   59.6554 H   0  0  0  0  0  0  0  0  0  0  0  0
   36.2865   75.8033   58.5557 H   0  0  0  0  0  0  0  0  0  0  0  0
  1  2  1  0
  1 10  1  0
  3  2  2  0
  4  9  2  0
  4  3  1  0
  5  4  1  0
  6  5  1  0
  6  7  2  0
  7  8  1  0
  8  9  1  0
  9  1  1  0
 10 15  1  0
 10 11  2  0
 11 12  1  0
 12 13  2  0
 14 13  1  0
 15 14  2  0
 16 11  1  0
 17  5  1  0
 18 19  1  0
 18 17  1  0
 20 18  1  0
 20 19  1  0
 20 21  1  0
 21 27  1  0
 21 22  1  0
 22 23  2  0
 23 24  1  0
 24 25  2  0
 26 24  1  0
 27 26  1  0
 28 27  2  0
  2 29  1  0
  5 30  1  1
  7 31  1  0
  8 32  1  0
 12 33  1  0
 14 34  1  0
 16 35  1  0
 17 36  1  0
 18 37  1  6
 19 38  1  0
 19 39  1  0
 20 40  1  6
 22 41  1  0
 23 42  1  0
 26 43  1  0
M  END
>  <Score>  (1) 
-7.5199

>  <Score_dual>  (1) 
-7.03

>  <Choices>  (1) 
[None, 7, ['2-1', 0], 7, ['28-7', 165], 25, ['16-17', 150], 32, ['37-14', 15]]

$$$$
