
     RDKit          3D

 42 45  0  0  0  0  0  0  0  0999 V2000
   40.8700   77.7440   61.4530 C   0  0  0  0  0  0  0  0  0  0  0  0
   41.6690   81.3220   61.5240 C   0  0  0  0  0  0  0  0  0  0  0  0
   42.9920   81.3780   61.8940 C   0  0  0  0  0  0  0  0  0  0  0  0
   43.6520   80.1630   62.1340 C   0  0  0  0  0  0  0  0  0  0  0  0
   42.9410   79.0200   61.9820 N   0  0  0  0  0  0  0  0  0  0  0  0
   41.6590   79.0150   61.6210 C   0  0  0  0  0  0  0  0  0  0  0  0
   40.9690   80.1660   61.3760 N   0  0  0  0  0  0  0  0  0  0  0  0
   40.8860   82.5120   61.2500 N   0  0  0  0  0  0  0  0  0  0  0  0
   40.9440   82.8610   59.9120 C   0  0  0  0  0  0  0  0  0  0  0  0
   40.2710   83.9640   59.4320 C   0  0  0  0  0  0  0  0  0  0  0  0
   39.5330   84.7120   60.3350 C   0  0  0  0  0  0  0  0  0  0  0  0
   38.9140   85.7180   59.9230 O   0  0  0  0  0  0  0  0  0  0  0  0
   39.5090   84.3390   61.5990 N   0  0  0  0  0  0  0  0  0  0  0  0
   40.1620   83.2660   62.0710 C   0  0  0  0  0  0  0  0  0  0  0  0
   40.1900   82.8530   63.2270 O   0  0  0  0  0  0  0  0  0  0  0  0
   40.9780   77.2110   60.0730 C   0  0  0  0  0  0  0  0  0  0  0  0
   40.1280   78.6800   58.2240 C   0  0  0  0  0  0  0  0  0  0  0  0
   39.9990   77.5710   59.0810 C   0  0  0  0  0  0  0  0  0  0  0  0
   38.8560   76.8380   58.9070 C   0  0  0  0  0  0  0  0  0  0  0  0
   37.8750   77.1140   57.9860 C   0  0  0  0  0  0  0  0  0  0  0  0
   36.7090   76.5100   57.6850 N   0  0  0  0  0  0  0  0  0  0  0  0
   36.1350   77.2080   56.6880 C   0  0  0  0  0  0  0  0  0  0  0  0
   36.9530   78.2550   56.3670 N   0  0  0  0  0  0  0  0  0  0  0  0
   38.0490   78.2160   57.1660 C   0  0  0  0  0  0  0  0  0  0  0  0
   39.1880   79.0220   57.2750 C   0  0  0  0  0  0  0  0  0  0  0  0
   39.3450   80.1860   56.3910 C   0  0  0  0  0  0  0  0  0  0  0  0
   39.8920   79.7790   55.1670 F   0  0  0  0  0  0  0  0  0  0  0  0
   40.2700   81.0370   56.9630 F   0  0  0  0  0  0  0  0  0  0  0  0
   38.1600   80.8690   56.1670 F   0  0  0  0  0  0  0  0  0  0  0  0
   41.2529   76.9908   62.1573 H   0  0  0  0  0  0  0  0  0  0  0  0
   39.8117   77.9678   61.6529 H   0  0  0  0  0  0  0  0  0  0  0  0
   43.5143   82.3405   61.9981 H   0  0  0  0  0  0  0  0  0  0  0  0
   44.7097   80.1396   62.4350 H   0  0  0  0  0  0  0  0  0  0  0  0
   41.5380   82.2470   59.2190 H   0  0  0  0  0  0  0  0  0  0  0  0
   40.3182   84.2409   58.3685 H   0  0  0  0  0  0  0  0  0  0  0  0
   38.9580   84.9029   62.2617 H   0  0  0  0  0  0  0  0  0  0  0  0
   41.9557   77.5324   59.6847 H   0  0  0  0  0  0  0  0  0  0  0  0
   40.8152   76.1314   60.2069 H   0  0  0  0  0  0  0  0  0  0  0  0
   41.0268   79.3074   58.3162 H   0  0  0  0  0  0  0  0  0  0  0  0
   38.7121   75.9605   59.5545 H   0  0  0  0  0  0  0  0  0  0  0  0
   36.3263   75.6669   58.1362 H   0  0  0  0  0  0  0  0  0  0  0  0
   35.1710   76.9755   56.2120 H   0  0  0  0  0  0  0  0  0  0  0  0
  1  6  1  0
  2  3  2  0
  3  4  1  0
  5  4  2  0
  6  5  1  0
  7  2  1  0
  7  6  2  0
  8  2  1  0
  8 14  1  0
  9  8  1  0
 10  9  2  0
 10 11  1  0
 11 13  1  0
 12 11  2  0
 13 14  1  0
 14 15  2  0
 16  1  1  0
 17 18  2  0
 18 16  1  0
 19 18  1  0
 20 19  2  0
 21 20  1  0
 22 21  1  0
 23 22  2  0
 23 24  1  0
 24 25  2  0
 24 20  1  0
 25 17  1  0
 26 28  1  0
 26 25  1  0
 27 26  1  0
 29 26  1  0
  1 30  1  0
  1 31  1  0
  3 32  1  0
  4 33  1  0
  9 34  1  0
 10 35  1  0
 13 36  1  0
 16 37  1  0
 16 38  1  0
 17 39  1  0
 19 40  1  0
 21 41  1  0
 22 42  1  0
M  END
>  <Score>  (1) 
-7.2659

>  <Score_dual>  (1) 
-7.17

>  <Choices>  (1) 
[None, 6, ['37-16', 135], 19, ['4-9', 270], 25, ['34-15', 255], 38, ['11-9', 300]]

$$$$
