
     RDKit          3D

 53 56  0  0  0  0  0  0  0  0999 V2000
   40.8430   79.1950   61.1080 C   0  0  0  0  0  0  0  0  0  0  0  0
   41.9450   78.4210   61.5220 C   0  0  0  0  0  0  0  0  0  0  0  0
   42.0120   77.0840   61.0570 C   0  0  0  0  0  0  0  0  0  0  0  0
   41.0020   76.6550   60.2440 N   0  0  0  0  0  0  0  0  0  0  0  0
   39.9860   77.4310   59.8850 C   0  0  0  0  0  0  0  0  0  0  0  0
   39.8750   78.7310   60.3070 N   0  0  0  0  0  0  0  0  0  0  0  0
   40.8040   80.5500   61.5980 C   0  0  0  0  0  0  0  0  0  0  0  0
   41.8420   81.2550   62.1870 C   0  0  0  0  0  0  0  0  0  0  0  0
   41.3570   82.4860   62.4900 N   0  0  0  0  0  0  0  0  0  0  0  0
   40.0570   82.5740   62.1140 C   0  0  0  0  0  0  0  0  0  0  0  0
   39.7290   81.3940   61.5730 N   0  0  0  0  0  0  0  0  0  0  0  0
   39.2020   83.7030   62.2650 N   0  0  0  0  0  0  0  0  0  0  0  0
   42.1780   83.5050   63.1270 C   0  0  0  0  0  0  0  0  0  0  0  0
   41.6720   83.9030   64.3480 F   0  0  0  0  0  0  0  0  0  0  0  0
   42.2880   84.6290   62.3370 F   0  0  0  0  0  0  0  0  0  0  0  0
   43.4200   82.9400   63.3730 F   0  0  0  0  0  0  0  0  0  0  0  0
   38.9600   76.8780   59.0140 C   0  0  0  0  0  0  0  0  0  0  0  0
   38.1710   76.0320   59.4680 O   0  0  0  0  0  0  0  0  0  0  0  0
   38.7630   76.2180   56.6000 C   0  0  0  0  0  0  0  0  0  0  0  0
   38.6780   77.1620   57.6030 C   0  0  0  0  0  0  0  0  0  0  0  0
   38.3030   78.4160   57.1870 C   0  0  0  0  0  0  0  0  0  0  0  0
   38.0250   78.7380   55.8690 C   0  0  0  0  0  0  0  0  0  0  0  0
   38.1240   77.7610   54.9010 C   0  0  0  0  0  0  0  0  0  0  0  0
   38.5030   76.4790   55.2910 C   0  0  0  0  0  0  0  0  0  0  0  0
   37.8500   78.0080   53.4650 C   0  0  0  0  0  0  0  0  0  0  0  0
   36.8290   79.1210   53.3100 C   0  0  0  0  0  0  0  0  0  0  0  0
   36.7330   79.5850   51.8750 C   0  0  0  0  0  0  0  0  0  0  0  0
   38.0170   80.1260   51.3340 C   0  0  0  0  0  0  0  0  0  0  0  0
   39.0990   79.7940   52.3600 C   0  0  0  0  0  0  0  0  0  0  0  0
   39.0370   78.3280   52.6370 C   0  0  0  0  0  0  0  0  0  0  0  0
   38.6160   75.4340   54.3070 N   0  0  0  0  0  0  0  0  0  0  0  0
   39.4700   73.7850   57.2700 N   0  0  0  0  0  0  0  0  0  0  0  0
   39.1570   74.8700   56.9800 C   0  0  0  0  0  0  0  0  0  0  0  0
   42.7221   78.8377   62.1797 H   0  0  0  0  0  0  0  0  0  0  0  0
   42.8423   76.4199   61.3389 H   0  0  0  0  0  0  0  0  0  0  0  0
   42.8620   80.8877   62.3730 H   0  0  0  0  0  0  0  0  0  0  0  0
   38.2255   83.6565   61.9407 H   0  0  0  0  0  0  0  0  0  0  0  0
   39.5602   84.5660   62.6985 H   0  0  0  0  0  0  0  0  0  0  0  0
   38.2186   79.2099   57.9438 H   0  0  0  0  0  0  0  0  0  0  0  0
   37.7285   79.7619   55.5974 H   0  0  0  0  0  0  0  0  0  0  0  0
   37.4660   77.0488   53.0876 H   0  0  0  0  0  0  0  0  0  0  0  0
   35.8447   78.7513   53.6333 H   0  0  0  0  0  0  0  0  0  0  0  0
   37.1485   79.9726   53.9287 H   0  0  0  0  0  0  0  0  0  0  0  0
   36.4259   78.7311   51.2532 H   0  0  0  0  0  0  0  0  0  0  0  0
   36.0010   80.4057   51.8496 H   0  0  0  0  0  0  0  0  0  0  0  0
   38.2513   79.6528   50.3690 H   0  0  0  0  0  0  0  0  0  0  0  0
   37.9501   81.2110   51.1659 H   0  0  0  0  0  0  0  0  0  0  0  0
   40.0885   80.0564   51.9574 H   0  0  0  0  0  0  0  0  0  0  0  0
   38.9363   80.3653   53.2858 H   0  0  0  0  0  0  0  0  0  0  0  0
   38.9724   77.7816   51.6845 H   0  0  0  0  0  0  0  0  0  0  0  0
   39.9439   78.0296   53.1833 H   0  0  0  0  0  0  0  0  0  0  0  0
   38.8962   74.4851   54.5933 H   0  0  0  0  0  0  0  0  0  0  0  0
   38.4167   75.6353   53.3167 H   0  0  0  0  0  0  0  0  0  0  0  0
  1  2  2  0
  1  7  1  0
  3  2  1  0
  4  3  2  0
  5  4  1  0
  5  6  2  0
  6  1  1  0
  7  8  2  0
  8  9  1  0
  9 13  1  0
 10 12  1  0
 10  9  1  0
 11  7  1  0
 11 10  2  0
 13 16  1  0
 13 14  1  0
 15 13  1  0
 17 18  2  0
 17  5  1  0
 19 33  1  0
 19 20  2  0
 20 17  1  0
 21 20  1  0
 22 21  2  0
 23 24  2  0
 23 22  1  0
 24 19  1  0
 25 23  1  0
 26 25  1  0
 27 26  1  0
 28 27  1  0
 28 29  1  0
 29 30  1  0
 30 25  1  0
 31 24  1  0
 33 32  3  0
  2 34  1  0
  3 35  1  0
  8 36  1  0
 12 37  1  0
 12 38  1  0
 21 39  1  0
 22 40  1  0
 25 41  1  0
 26 42  1  0
 26 43  1  0
 27 44  1  0
 27 45  1  0
 28 46  1  0
 28 47  1  0
 29 48  1  0
 29 49  1  0
 30 50  1  0
 30 51  1  0
 31 52  1  0
 31 53  1  0
M  END
>  <Score>  (1) 
-7.2932

>  <Score_dual>  (1) 
-8.53

>  <Choices>  (1) 
[None, 6, ['23-9', 180], 15, ['11-3', 300], 16, ['0-2', 0], 21, ['5-9', 345], 23, ['40-8', 135], 34, ['0-2', 0], 34, ['18-24', 135]]

$$$$
