
     RDKit          3D

 42 46  0  0  0  0  0  0  0  0999 V2000
   39.4470   83.2070   60.7530 C   0  0  0  0  0  0  0  0  0  0  0  0
   40.6130   82.8030   60.1530 C   0  0  0  0  0  0  0  0  0  0  0  0
   41.7870   82.9430   60.8580 C   0  0  0  0  0  0  0  0  0  0  0  0
   41.8090   83.4660   62.1130 C   0  0  0  0  0  0  0  0  0  0  0  0
   42.8520   83.6810   62.9560 N   0  0  0  0  0  0  0  0  0  0  0  0
   42.2770   84.2240   64.0690 C   0  0  0  0  0  0  0  0  0  0  0  0
   40.9220   84.3290   63.8960 N   0  0  0  0  0  0  0  0  0  0  0  0
   40.6160   83.8510   62.6570 C   0  0  0  0  0  0  0  0  0  0  0  0
   39.4110   83.7460   62.0270 C   0  0  0  0  0  0  0  0  0  0  0  0
   44.2310   83.4320   62.7950 C   0  0  0  0  0  0  0  0  0  0  0  0
   45.1700   84.0250   62.0320 C   0  0  0  0  0  0  0  0  0  0  0  0
   46.3770   83.4560   62.1930 N   0  0  0  0  0  0  0  0  0  0  0  0
   46.1980   82.4650   63.0920 C   0  0  0  0  0  0  0  0  0  0  0  0
   44.9110   82.4420   63.4620 N   0  0  0  0  0  0  0  0  0  0  0  0
   47.0700   81.5010   63.6830 N   0  0  0  0  0  0  0  0  0  0  0  0
   41.3500   82.2640   56.6230 C   0  0  0  0  0  0  0  0  0  0  0  0
   40.5550   81.1920   56.2980 C   0  0  0  0  0  0  0  0  0  0  0  0
   39.7530   80.6420   57.2980 C   0  0  0  0  0  0  0  0  0  0  0  0
   39.8260   81.2140   58.5150 N   0  0  0  0  0  0  0  0  0  0  0  0
   40.5960   82.2500   58.8260 C   0  0  0  0  0  0  0  0  0  0  0  0
   41.3770   82.7910   57.8620 N   0  0  0  0  0  0  0  0  0  0  0  0
   38.8900   79.5240   57.0610 C   0  0  0  0  0  0  0  0  0  0  0  0
   37.8370   79.5050   56.1720 C   0  0  0  0  0  0  0  0  0  0  0  0
   37.0160   78.3930   55.9680 C   0  0  0  0  0  0  0  0  0  0  0  0
   37.2850   77.2570   56.7030 C   0  0  0  0  0  0  0  0  0  0  0  0
   38.3220   77.2030   57.6120 C   0  0  0  0  0  0  0  0  0  0  0  0
   39.0820   78.3450   57.7500 C   0  0  0  0  0  0  0  0  0  0  0  0
   38.5029   83.0980   60.1990 H   0  0  0  0  0  0  0  0  0  0  0  0
   42.7318   82.6235   60.3941 H   0  0  0  0  0  0  0  0  0  0  0  0
   42.8224   84.5323   64.9731 H   0  0  0  0  0  0  0  0  0  0  0  0
   38.4720   84.0686   62.5005 H   0  0  0  0  0  0  0  0  0  0  0  0
   44.9726   84.8723   61.3588 H   0  0  0  0  0  0  0  0  0  0  0  0
   47.2564   83.7212   61.7270 H   0  0  0  0  0  0  0  0  0  0  0  0
   46.7014   80.8228   64.3649 H   0  0  0  0  0  0  0  0  0  0  0  0
   48.0676   81.4838   63.4274 H   0  0  0  0  0  0  0  0  0  0  0  0
   41.9871   82.7077   55.8437 H   0  0  0  0  0  0  0  0  0  0  0  0
   40.5509   80.7791   55.2784 H   0  0  0  0  0  0  0  0  0  0  0  0
   37.6315   80.4160   55.5907 H   0  0  0  0  0  0  0  0  0  0  0  0
   36.1853   78.4223   55.2475 H   0  0  0  0  0  0  0  0  0  0  0  0
   36.6539   76.3674   56.5602 H   0  0  0  0  0  0  0  0  0  0  0  0
   38.5315   76.2951   58.1966 H   0  0  0  0  0  0  0  0  0  0  0  0
   39.9121   78.3130   58.4710 H   0  0  0  0  0  0  0  0  0  0  0  0
  1  9  2  0
  2  1  1  0
  2  3  2  0
  3  4  1  0
  4  8  2  0
  4  5  1  0
  5  6  1  0
  7  6  2  0
  8  7  1  0
  9  8  1  0
 10  5  1  0
 10 14  1  0
 11 12  1  0
 11 10  2  0
 12 13  1  0
 13 14  2  0
 13 15  1  0
 16 21  2  0
 17 16  1  0
 17 18  2  0
 18 19  1  0
 19 20  2  0
 20  2  1  0
 21 20  1  0
 22 18  1  0
 22 27  1  0
 23 22  2  0
 24 23  1  0
 24 25  2  0
 25 26  1  0
 26 27  2  0
  1 28  1  0
  3 29  1  0
  6 30  1  0
  9 31  1  0
 11 32  1  0
 12 33  1  0
 15 34  1  0
 15 35  1  0
 16 36  1  0
 17 37  1  0
 23 38  1  0
 24 39  1  0
 25 40  1  0
 26 41  1  0
 27 42  1  0
M  END
>  <Score>  (1) 
-7.22671

>  <Score_dual>  (1) 
-7.1

>  <Choices>  (1) 
[None, 9, ['34-23', 255], 17, ['23-10', 60], 29, ['0-3', 225], 31, ['1-26', 255]]

$$$$
