
     RDKit          3D

 45 49  0  0  0  0  0  0  0  0999 V2000
   42.1540   83.9500   61.8530 C   0  0  0  0  0  0  0  0  0  0  0  0
   42.5010   82.6590   61.4670 C   0  0  0  0  0  0  0  0  0  0  0  0
   41.8090   81.5940   62.0200 C   0  0  0  0  0  0  0  0  0  0  0  0
   40.8300   81.8670   62.9090 N   0  0  0  0  0  0  0  0  0  0  0  0
   40.5090   83.1140   63.2700 C   0  0  0  0  0  0  0  0  0  0  0  0
   41.1650   84.1520   62.7480 N   0  0  0  0  0  0  0  0  0  0  0  0
   43.7850   85.8740   61.9620 C   0  0  0  0  0  0  0  0  0  0  0  0
   42.8650   85.0900   61.2880 C   0  0  0  0  0  0  0  0  0  0  0  0
   42.6440   85.4660   59.9820 C   0  0  0  0  0  0  0  0  0  0  0  0
   43.2710   86.5300   59.3630 C   0  0  0  0  0  0  0  0  0  0  0  0
   43.2230   87.0760   58.1370 N   0  0  0  0  0  0  0  0  0  0  0  0
   44.0390   88.1110   58.0450 C   0  0  0  0  0  0  0  0  0  0  0  0
   44.6910   88.2960   59.2740 C   0  0  0  0  0  0  0  0  0  0  0  0
   44.1710   87.2810   60.0570 C   0  0  0  0  0  0  0  0  0  0  0  0
   44.4250   86.9440   61.3660 C   0  0  0  0  0  0  0  0  0  0  0  0
   42.0700   80.1840   61.7030 C   0  0  0  0  0  0  0  0  0  0  0  0
   43.2730   79.5570   61.9350 C   0  0  0  0  0  0  0  0  0  0  0  0
   43.4890   78.2310   61.6260 C   0  0  0  0  0  0  0  0  0  0  0  0
   42.5210   77.5120   61.0860 N   0  0  0  0  0  0  0  0  0  0  0  0
   41.3370   78.1100   60.8520 C   0  0  0  0  0  0  0  0  0  0  0  0
   41.1300   79.3990   61.1530 N   0  0  0  0  0  0  0  0  0  0  0  0
   39.6810   77.7500   59.0500 C   0  0  0  0  0  0  0  0  0  0  0  0
   40.2300   77.3640   60.2560 C   0  0  0  0  0  0  0  0  0  0  0  0
   39.6860   76.2370   60.8840 C   0  0  0  0  0  0  0  0  0  0  0  0
   38.6440   75.4920   60.3770 C   0  0  0  0  0  0  0  0  0  0  0  0
   38.0910   75.8710   59.1730 C   0  0  0  0  0  0  0  0  0  0  0  0
   38.6310   76.9820   58.5600 C   0  0  0  0  0  0  0  0  0  0  0  0
   40.2760   79.1410   58.1730 S   0  0  0  0  0  0  0  0  0  0  0  0
   41.3800   78.8000   57.2190 O   0  0  0  0  0  0  0  0  0  0  0  0
   39.1330   79.6650   57.3140 O   0  0  0  0  0  0  0  0  0  0  0  0
   43.3073   82.4878   60.7386 H   0  0  0  0  0  0  0  0  0  0  0  0
   39.7027   83.2843   63.9986 H   0  0  0  0  0  0  0  0  0  0  0  0
   44.0154   85.6366   63.0111 H   0  0  0  0  0  0  0  0  0  0  0  0
   41.9215   84.8814   59.3935 H   0  0  0  0  0  0  0  0  0  0  0  0
   42.6282   86.7329   57.3693 H   0  0  0  0  0  0  0  0  0  0  0  0
   44.1844   88.7298   57.1472 H   0  0  0  0  0  0  0  0  0  0  0  0
   45.4332   89.0604   59.5475 H   0  0  0  0  0  0  0  0  0  0  0  0
   45.1483   87.5349   61.9471 H   0  0  0  0  0  0  0  0  0  0  0  0
   44.0934   80.1360   62.3841 H   0  0  0  0  0  0  0  0  0  0  0  0
   44.4675   77.7714   61.8291 H   0  0  0  0  0  0  0  0  0  0  0  0
   40.1194   75.9258   61.8460 H   0  0  0  0  0  0  0  0  0  0  0  0
   38.2623   74.6151   60.9205 H   0  0  0  0  0  0  0  0  0  0  0  0
   37.2573   75.3131   58.7217 H   0  0  0  0  0  0  0  0  0  0  0  0
   38.1922   77.2874   57.5986 H   0  0  0  0  0  0  0  0  0  0  0  0
   40.7438   80.0380   59.0969 H   0  0  0  0  0  0  0  0  0  0  0  0
  1  6  1  0
  2  1  2  0
  2  3  1  0
  3  4  2  0
  4  5  1  0
  6  5  2  0
  8  1  1  0
  8  7  2  0
  9  8  1  0
 10  9  2  0
 10 14  1  0
 11 10  1  0
 12 11  1  0
 12 13  2  0
 13 14  1  0
 14 15  2  0
 15  7  1  0
 16 17  2  0
 16  3  1  0
 18 17  1  0
 19 18  2  0
 20 19  1  0
 20 21  2  0
 21 16  1  0
 22 23  2  0
 23 20  1  0
 23 24  1  0
 25 24  2  0
 26 25  1  0
 27 22  1  0
 27 26  2  0
 28 22  1  0
 29 28  2  0
 30 28  2  0
  2 31  1  0
  5 32  1  0
  7 33  1  0
  9 34  1  0
 11 35  1  0
 12 36  1  0
 13 37  1  0
 15 38  1  0
 17 39  1  0
 18 40  1  0
 24 41  1  0
 25 42  1  0
 26 43  1  0
 27 44  1  0
 28 45  1  0
M  END
>  <Score>  (1) 
-7.04125

>  <Score_dual>  (1) 
-7.7

>  <Choices>  (1) 
[None, 8, ['19-20', 0], 12, ['24-9', 315], 31, ['27-17', 255]]

$$$$
