
     RDKit          3D

 46 51  0  0  0  0  0  0  0  0999 V2000
   39.4340   84.0110   59.8820 C   0  0  0  0  0  0  0  0  0  0  0  0
   40.1470   82.8280   59.6470 C   0  0  0  0  0  0  0  0  0  0  0  0
   40.3480   81.9700   60.7420 C   0  0  0  0  0  0  0  0  0  0  0  0
   39.8590   82.3080   61.9530 N   0  0  0  0  0  0  0  0  0  0  0  0
   39.1790   83.4480   62.1520 C   0  0  0  0  0  0  0  0  0  0  0  0
   38.9740   84.2870   61.1160 N   0  0  0  0  0  0  0  0  0  0  0  0
   41.7180   83.3890   57.9640 C   0  0  0  0  0  0  0  0  0  0  0  0
   40.6350   82.5610   58.3030 C   0  0  0  0  0  0  0  0  0  0  0  0
   40.1450   81.6310   57.4220 C   0  0  0  0  0  0  0  0  0  0  0  0
   40.7410   81.5170   56.1770 C   0  0  0  0  0  0  0  0  0  0  0  0
   40.3980   80.6640   55.1820 N   0  0  0  0  0  0  0  0  0  0  0  0
   41.2580   80.9370   54.1980 C   0  0  0  0  0  0  0  0  0  0  0  0
   42.1220   81.9170   54.5250 N   0  0  0  0  0  0  0  0  0  0  0  0
   41.8200   82.3180   55.7970 C   0  0  0  0  0  0  0  0  0  0  0  0
   42.2860   83.2430   56.7110 C   0  0  0  0  0  0  0  0  0  0  0  0
   41.0610   80.7540   60.6130 C   0  0  0  0  0  0  0  0  0  0  0  0
   42.2890   80.4400   60.1730 C   0  0  0  0  0  0  0  0  0  0  0  0
   42.7240   79.1620   60.1580 C   0  0  0  0  0  0  0  0  0  0  0  0
   41.9200   78.2010   60.5900 C   0  0  0  0  0  0  0  0  0  0  0  0
   40.4100   79.1320   61.0630 S   0  0  0  0  0  0  0  0  0  0  0  0
   41.8180   76.7600   60.7500 C   0  0  0  0  0  0  0  0  0  0  0  0
   42.9150   76.0130   61.1760 C   0  0  0  0  0  0  0  0  0  0  0  0
   42.9140   74.6640   61.3380 C   0  0  0  0  0  0  0  0  0  0  0  0
   41.7690   73.9570   61.0730 C   0  0  0  0  0  0  0  0  0  0  0  0
   40.6440   74.6200   60.6460 C   0  0  0  0  0  0  0  0  0  0  0  0
   39.5360   73.8740   60.3650 C   0  0  0  0  0  0  0  0  0  0  0  0
   38.3960   74.4770   59.9030 C   0  0  0  0  0  0  0  0  0  0  0  0
   38.4510   75.8670   59.7460 C   0  0  0  0  0  0  0  0  0  0  0  0
   39.5910   76.5620   60.0470 C   0  0  0  0  0  0  0  0  0  0  0  0
   40.7410   75.9830   60.5110 C   0  0  0  0  0  0  0  0  0  0  0  0
   39.2501   84.7148   59.0569 H   0  0  0  0  0  0  0  0  0  0  0  0
   38.7922   83.6959   63.1515 H   0  0  0  0  0  0  0  0  0  0  0  0
   42.1041   84.1335   58.6758 H   0  0  0  0  0  0  0  0  0  0  0  0
   39.2959   80.9887   57.6986 H   0  0  0  0  0  0  0  0  0  0  0  0
   39.6436   79.9627   55.1842 H   0  0  0  0  0  0  0  0  0  0  0  0
   41.2606   80.4189   53.2277 H   0  0  0  0  0  0  0  0  0  0  0  0
   43.1359   83.8840   56.4337 H   0  0  0  0  0  0  0  0  0  0  0  0
   42.9549   81.2401   59.8173 H   0  0  0  0  0  0  0  0  0  0  0  0
   43.7330   78.9214   59.7919 H   0  0  0  0  0  0  0  0  0  0  0  0
   43.8472   76.5537   61.3966 H   0  0  0  0  0  0  0  0  0  0  0  0
   43.8219   74.1444   61.6781 H   0  0  0  0  0  0  0  0  0  0  0  0
   41.7515   72.8647   61.2017 H   0  0  0  0  0  0  0  0  0  0  0  0
   39.5586   72.7839   60.5102 H   0  0  0  0  0  0  0  0  0  0  0  0
   37.4884   73.9014   59.6686 H   0  0  0  0  0  0  0  0  0  0  0  0
   37.5671   76.4073   59.3762 H   0  0  0  0  0  0  0  0  0  0  0  0
   39.5824   77.6531   59.9074 H   0  0  0  0  0  0  0  0  0  0  0  0
  1  6  2  0
  2  1  1  0
  2  3  2  0
  3  4  1  0
  4  5  2  0
  6  5  1  0
  7  8  2  0
  8  2  1  0
  9  8  1  0
 10  9  2  0
 11 10  1  0
 12 13  2  0
 12 11  1  0
 13 14  1  0
 14 10  1  0
 14 15  2  0
 15  7  1  0
 16  3  1  0
 16 20  1  0
 17 16  2  0
 18 17  1  0
 18 19  2  0
 19 21  1  0
 19 20  1  0
 21 22  2  0
 22 23  1  0
 24 23  2  0
 25 24  1  0
 26 25  2  0
 27 26  1  0
 28 27  2  0
 28 29  1  0
 29 30  2  0
 30 25  1  0
 30 21  1  0
  1 31  1  0
  5 32  1  0
  7 33  1  0
  9 34  1  0
 11 35  1  0
 12 36  1  0
 15 37  1  0
 17 38  1  0
 18 39  1  0
 22 40  1  0
 23 41  1  0
 24 42  1  0
 26 43  1  0
 27 44  1  0
 28 45  1  0
 29 46  1  0
M  END
>  <Score>  (1) 
-7.39114

>  <Score_dual>  (1) 
-7.65

>  <Choices>  (1) 
[None, 8, ['25-21', 150], 12, ['34-21', 330], 29, ['26-24', 195]]

$$$$
