
     RDKit          3D

 40 44  0  0  0  0  0  0  0  0999 V2000
   42.4750   83.8540   57.3220 C   0  0  0  0  0  0  0  0  0  0  0  0
   41.8030   82.9050   56.5870 C   0  0  0  0  0  0  0  0  0  0  0  0
   40.8330   82.1310   57.2290 C   0  0  0  0  0  0  0  0  0  0  0  0
   40.5890   82.3390   58.5450 N   0  0  0  0  0  0  0  0  0  0  0  0
   41.2760   83.2890   59.2360 C   0  0  0  0  0  0  0  0  0  0  0  0
   42.2130   84.0460   58.6410 N   0  0  0  0  0  0  0  0  0  0  0  0
   39.7170   83.2080   61.1460 C   0  0  0  0  0  0  0  0  0  0  0  0
   40.9730   83.4750   60.6610 C   0  0  0  0  0  0  0  0  0  0  0  0
   41.9530   83.9180   61.5050 C   0  0  0  0  0  0  0  0  0  0  0  0
   41.7200   84.1070   62.8350 C   0  0  0  0  0  0  0  0  0  0  0  0
   42.5030   84.5230   63.8350 N   0  0  0  0  0  0  0  0  0  0  0  0
   41.7230   84.5130   64.9500 C   0  0  0  0  0  0  0  0  0  0  0  0
   40.4690   84.0860   64.6040 N   0  0  0  0  0  0  0  0  0  0  0  0
   40.4320   83.8230   63.2850 C   0  0  0  0  0  0  0  0  0  0  0  0
   39.4180   83.3770   62.4800 C   0  0  0  0  0  0  0  0  0  0  0  0
   40.0860   81.1120   56.5210 C   0  0  0  0  0  0  0  0  0  0  0  0
   39.3150   80.1330   57.1170 C   0  0  0  0  0  0  0  0  0  0  0  0
   38.7460   79.3390   56.2130 N   0  0  0  0  0  0  0  0  0  0  0  0
   39.1330   79.7830   55.0210 C   0  0  0  0  0  0  0  0  0  0  0  0
   39.9370   80.8490   55.2110 N   0  0  0  0  0  0  0  0  0  0  0  0
   38.8150   79.2980   53.7110 N   0  0  0  0  0  0  0  0  0  0  0  0
   37.8850   78.2190   56.3970 C   0  0  0  0  0  0  0  0  0  0  0  0
   38.0120   76.9260   55.9730 C   0  0  0  0  0  0  0  0  0  0  0  0
   36.9270   76.2210   56.3960 N   0  0  0  0  0  0  0  0  0  0  0  0
   36.1320   77.0770   57.0780 C   0  0  0  0  0  0  0  0  0  0  0  0
   36.7220   78.2820   57.0720 N   0  0  0  0  0  0  0  0  0  0  0  0
   34.9120   76.7940   57.6930 O   0  0  0  0  0  0  0  0  0  0  0  0
   43.2416   84.4711   56.8307 H   0  0  0  0  0  0  0  0  0  0  0  0
   42.0240   82.7590   55.5194 H   0  0  0  0  0  0  0  0  0  0  0  0
   38.9359   82.8530   60.4577 H   0  0  0  0  0  0  0  0  0  0  0  0
   42.9545   84.1272   61.1010 H   0  0  0  0  0  0  0  0  0  0  0  0
   43.4944   84.7955   63.7741 H   0  0  0  0  0  0  0  0  0  0  0  0
   42.0463   84.8003   65.9614 H   0  0  0  0  0  0  0  0  0  0  0  0
   38.4151   83.1644   62.8786 H   0  0  0  0  0  0  0  0  0  0  0  0
   39.1871   80.0232   58.2040 H   0  0  0  0  0  0  0  0  0  0  0  0
   38.1975   78.4811   53.6001 H   0  0  0  0  0  0  0  0  0  0  0  0
   39.2039   79.7662   52.8801 H   0  0  0  0  0  0  0  0  0  0  0  0
   38.8511   76.5222   55.3875 H   0  0  0  0  0  0  0  0  0  0  0  0
   36.7451   75.2212   56.2279 H   0  0  0  0  0  0  0  0  0  0  0  0
   34.4184   77.5099   58.1663 H   0  0  0  0  0  0  0  0  0  0  0  0
  1  6  2  0
  2  3  2  0
  2  1  1  0
  3  4  1  0
  4  5  2  0
  5  8  1  0
  6  5  1  0
  7 15  2  0
  8  7  1  0
  8  9  2  0
  9 10  1  0
 10 14  2  0
 10 11  1  0
 11 12  1  0
 13 12  2  0
 14 13  1  0
 15 14  1  0
 16 17  2  0
 16  3  1  0
 18 22  1  0
 18 17  1  0
 19 20  2  0
 19 18  1  0
 20 16  1  0
 21 19  1  0
 22 26  1  0
 23 24  1  0
 23 22  2  0
 24 25  1  0
 25 27  1  0
 26 25  2  0
  1 28  1  0
  2 29  1  0
  7 30  1  0
  9 31  1  0
 11 32  1  0
 12 33  1  0
 15 34  1  0
 17 35  1  0
 21 36  1  0
 21 37  1  0
 23 38  1  0
 24 39  1  0
 27 40  1  0
M  END
>  <Score>  (1) 
-7.64741

>  <Score_dual>  (1) 
-7.32

>  <Choices>  (1) 
[None, 9, ['34-23', 255], 22, ['23-8', 120], 29, ['0-4', 0], 29, ['23-12', 255], 38, ['2-1', 45]]

$$$$
