
     RDKit          3D

 45 48  0  0  1  0  0  0  0  0999 V2000
   40.6060   80.5420   54.8510 Cl  0  0  0  0  0  0  0  0  0  0  0  0
   40.7790   81.3700   56.4240 C   0  0  0  0  0  0  0  0  0  0  0  0
   39.9830   80.9490   57.4770 C   0  0  0  0  0  0  0  0  0  0  0  0
   40.0710   81.5500   58.7110 C   0  0  0  0  0  0  0  0  0  0  0  0
   40.9910   82.5860   58.8400 C   0  0  0  0  0  0  0  0  0  0  0  0
   41.7850   83.0150   57.8150 C   0  0  0  0  0  0  0  0  0  0  0  0
   41.6650   82.3890   56.5990 C   0  0  0  0  0  0  0  0  0  0  0  0
   41.0700   83.2110   60.1640 C   0  0  0  0  0  0  0  0  0  0  0  0
   42.1670   83.9600   60.6460 C   0  0  0  0  0  0  0  0  0  0  0  0
   41.7950   84.3310   61.8920 N   0  0  0  0  0  0  0  0  0  0  0  0
   40.5590   83.8540   62.1740 C   0  0  0  0  0  0  0  0  0  0  0  0
   40.1240   83.1680   61.1060 N   0  0  0  0  0  0  0  0  0  0  0  0
   40.4330   84.1710   64.6380 C   0  0  0  0  0  0  0  0  0  0  0  0
   41.7140   84.1560   64.7280 O   0  0  0  0  0  0  0  0  0  0  0  0
   39.8130   84.0220   63.3730 N   0  0  0  0  0  0  0  0  0  0  0  0
   37.1990   79.0010   56.1110 C   0  0  0  0  0  0  0  0  0  0  0  0
   37.2810   77.7860   56.7980 C   0  0  0  0  0  0  0  0  0  0  0  0
   38.2960   77.6440   57.7290 C   0  0  0  0  0  0  0  0  0  0  0  0
   39.1470   78.6790   57.9240 N   0  0  0  0  0  0  0  0  0  0  0  0
   39.0400   79.8450   57.2400 C   0  0  0  0  0  0  0  0  0  0  0  0
   38.0570   80.0150   56.3220 N   0  0  0  0  0  0  0  0  0  0  0  0
   38.5660   76.4490   58.5660 C   0  0  1  0  0  0  0  0  0  0  0  0
   39.3400   75.3710   57.8730 C   0  0  0  0  0  0  0  0  0  0  0  0
   39.1400   74.1250   58.6750 C   0  0  0  0  0  0  0  0  0  0  0  0
   39.0300   74.3030   60.1320 C   0  0  0  0  0  0  0  0  0  0  0  0
   39.3500   75.6320   60.7120 C   0  0  0  0  0  0  0  0  0  0  0  0
   39.3880   76.7930   59.7880 C   0  0  0  0  0  0  0  0  0  0  0  0
   39.4442   81.2272   59.5554 H   0  0  0  0  0  0  0  0  0  0  0  0
   42.5000   83.8383   57.9595 H   0  0  0  0  0  0  0  0  0  0  0  0
   42.2922   82.7146   55.7560 H   0  0  0  0  0  0  0  0  0  0  0  0
   43.1089   84.1891   60.1261 H   0  0  0  0  0  0  0  0  0  0  0  0
   42.3691   84.8953   62.5345 H   0  0  0  0  0  0  0  0  0  0  0  0
   39.8185   84.2993   65.5413 H   0  0  0  0  0  0  0  0  0  0  0  0
   38.7845   84.0358   63.3197 H   0  0  0  0  0  0  0  0  0  0  0  0
   36.3996   79.1330   55.3671 H   0  0  0  0  0  0  0  0  0  0  0  0
   36.5655   76.9729   56.6059 H   0  0  0  0  0  0  0  0  0  0  0  0
   37.5572   76.0898   58.8175 H   0  0  0  0  0  0  0  0  0  0  0  0
   38.9622   75.2294   56.8496 H   0  0  0  0  0  0  0  0  0  0  0  0
   40.4064   75.6306   57.7991 H   0  0  0  0  0  0  0  0  0  0  0  0
   39.0786   73.1330   58.2036 H   0  0  0  0  0  0  0  0  0  0  0  0
   38.7173   73.4691   60.7776 H   0  0  0  0  0  0  0  0  0  0  0  0
   38.5925   75.8471   61.4800 H   0  0  0  0  0  0  0  0  0  0  0  0
   40.3815   75.5348   61.0817 H   0  0  0  0  0  0  0  0  0  0  0  0
   40.4270   77.0000   59.4921 H   0  0  0  0  0  0  0  0  0  0  0  0
   38.9795   77.6867   60.2824 H   0  0  0  0  0  0  0  0  0  0  0  0
  1  2  1  0
  2  7  2  0
  2  3  1  0
  3  4  2  0
  4  5  1  0
  5  8  1  0
  6  5  2  0
  7  6  1  0
  8  9  2  0
  8 12  1  0
  9 10  1  0
 10 11  1  0
 11 15  1  0
 12 11  2  0
 13 14  2  0
 15 13  1  0
 16 21  2  0
 16 17  1  0
 17 18  2  0
 18 19  1  0
 20  3  1  0
 20 19  2  0
 21 20  1  0
 22 18  1  0
 22 27  1  0
 23 22  1  0
 23 24  1  0
 24 25  2  0
 25 26  1  0
 27 26  1  0
  4 28  1  0
  6 29  1  0
  7 30  1  0
  9 31  1  0
 10 32  1  0
 13 33  1  0
 15 34  1  0
 16 35  1  0
 17 36  1  0
 22 37  1  1
 23 38  1  0
 23 39  1  0
 24 40  1  0
 25 41  1  0
 26 42  1  0
 26 43  1  0
 27 44  1  0
 27 45  1  0
M  END
>  <Score>  (1) 
-7.42444

>  <Score_dual>  (1) 
-7.01

>  <Choices>  (1) 
[None, 9, ['7-18', 60], 17, ['23-8', 315], 26, ['12-5', 150], 30, ['18-22', 315]]

$$$$
