
     RDKit          3D

 52 56  0  0  0  0  0  0  0  0999 V2000
   44.4570   82.6960   61.4380 Cl  0  0  0  0  0  0  0  0  0  0  0  0
   44.5100   80.9920   61.9140 C   0  0  0  0  0  0  0  0  0  0  0  0
   43.3810   80.2220   61.8270 C   0  0  0  0  0  0  0  0  0  0  0  0
   43.4760   78.9140   62.2060 C   0  0  0  0  0  0  0  0  0  0  0  0
   44.6470   78.3540   62.6660 C   0  0  0  0  0  0  0  0  0  0  0  0
   45.7500   79.1780   62.7310 C   0  0  0  0  0  0  0  0  0  0  0  0
   45.7300   80.4980   62.3680 C   0  0  0  0  0  0  0  0  0  0  0  0
   45.7570   76.6600   64.0010 C   0  0  0  0  0  0  0  0  0  0  0  0
   44.7830   76.9720   63.0750 C   0  0  0  0  0  0  0  0  0  0  0  0
   44.0120   75.9060   62.6090 C   0  0  0  0  0  0  0  0  0  0  0  0
   44.2350   74.6230   63.0690 C   0  0  0  0  0  0  0  0  0  0  0  0
   43.6570   73.4520   62.7980 N   0  0  0  0  0  0  0  0  0  0  0  0
   44.2140   72.4640   63.4940 C   0  0  0  0  0  0  0  0  0  0  0  0
   45.1930   73.0270   64.2460 N   0  0  0  0  0  0  0  0  0  0  0  0
   45.2120   74.3310   63.9960 C   0  0  0  0  0  0  0  0  0  0  0  0
   45.9870   75.3890   64.4660 C   0  0  0  0  0  0  0  0  0  0  0  0
   42.1630   80.8430   61.3390 C   0  0  0  0  0  0  0  0  0  0  0  0
   41.6110   80.4510   60.1030 C   0  0  0  0  0  0  0  0  0  0  0  0
   40.4330   81.0210   59.5870 C   0  0  0  0  0  0  0  0  0  0  0  0
   39.8710   81.9750   60.3670 N   0  0  0  0  0  0  0  0  0  0  0  0
   40.3880   82.3540   61.5430 C   0  0  0  0  0  0  0  0  0  0  0  0
   41.5080   81.7840   61.9930 N   0  0  0  0  0  0  0  0  0  0  0  0
   39.8910   80.5870   58.2980 C   0  0  0  0  0  0  0  0  0  0  0  0
   39.7560   79.0950   58.1510 C   0  0  0  0  0  0  0  0  0  0  0  0
   39.0980   78.7820   56.8450 C   0  0  0  0  0  0  0  0  0  0  0  0
   39.6670   79.4870   55.6570 C   0  0  0  0  0  0  0  0  0  0  0  0
   40.0670   80.9170   55.9100 C   0  0  0  0  0  0  0  0  0  0  0  0
   40.8570   81.0430   57.1970 C   0  0  0  0  0  0  0  0  0  0  0  0
   39.7620   83.4030   62.3900 C   0  0  0  0  0  0  0  0  0  0  0  0
   38.3800   83.2570   62.2160 F   0  0  0  0  0  0  0  0  0  0  0  0
   40.1200   84.6330   61.9280 F   0  0  0  0  0  0  0  0  0  0  0  0
   40.0940   83.2530   63.7310 F   0  0  0  0  0  0  0  0  0  0  0  0
   42.5791   78.2804   62.1412 H   0  0  0  0  0  0  0  0  0  0  0  0
   46.6971   78.7523   63.0940 H   0  0  0  0  0  0  0  0  0  0  0  0
   46.6266   81.1321   62.4314 H   0  0  0  0  0  0  0  0  0  0  0  0
   46.3848   77.4759   64.3886 H   0  0  0  0  0  0  0  0  0  0  0  0
   43.2195   76.0894   61.8686 H   0  0  0  0  0  0  0  0  0  0  0  0
   42.8788   73.3282   62.1347 H   0  0  0  0  0  0  0  0  0  0  0  0
   43.9355   71.4002   63.4653 H   0  0  0  0  0  0  0  0  0  0  0  0
   46.7798   75.2067   65.2065 H   0  0  0  0  0  0  0  0  0  0  0  0
   42.1205   79.6698   59.5197 H   0  0  0  0  0  0  0  0  0  0  0  0
   38.8851   81.0263   58.2261 H   0  0  0  0  0  0  0  0  0  0  0  0
   40.7532   78.6317   58.1798 H   0  0  0  0  0  0  0  0  0  0  0  0
   39.1444   78.6985   58.9749 H   0  0  0  0  0  0  0  0  0  0  0  0
   39.1855   77.6993   56.6715 H   0  0  0  0  0  0  0  0  0  0  0  0
   38.0591   79.1317   56.9369 H   0  0  0  0  0  0  0  0  0  0  0  0
   38.9111   79.4782   54.8580 H   0  0  0  0  0  0  0  0  0  0  0  0
   40.5871   78.9487   55.3856 H   0  0  0  0  0  0  0  0  0  0  0  0
   40.6862   81.2704   55.0723 H   0  0  0  0  0  0  0  0  0  0  0  0
   39.1543   81.5245   55.9994 H   0  0  0  0  0  0  0  0  0  0  0  0
   41.7465   80.3965   57.1702 H   0  0  0  0  0  0  0  0  0  0  0  0
   41.2196   82.0683   57.3622 H   0  0  0  0  0  0  0  0  0  0  0  0
  1  2  1  0
  2  7  2  0
  3  2  1  0
  3  4  2  0
  4  5  1  0
  5  6  2  0
  5  9  1  0
  7  6  1  0
  8 16  2  0
  9  8  1  0
 10 11  1  0
 10  9  2  0
 11 15  2  0
 12 11  1  0
 12 13  1  0
 13 14  2  0
 15 14  1  0
 15 16  1  0
 17  3  1  0
 17 22  1  0
 18 17  2  0
 19 18  1  0
 19 20  2  0
 20 21  1  0
 21 22  2  0
 21 29  1  0
 23 19  1  0
 24 23  1  0
 25 24  1  0
 26 27  1  0
 26 25  1  0
 27 28  1  0
 28 23  1  0
 29 32  1  0
 30 29  1  0
 31 29  1  0
  4 33  1  0
  6 34  1  0
  7 35  1  0
  8 36  1  0
 10 37  1  0
 12 38  1  0
 13 39  1  0
 16 40  1  0
 18 41  1  0
 23 42  1  0
 24 43  1  0
 24 44  1  0
 25 45  1  0
 25 46  1  0
 26 47  1  0
 26 48  1  0
 27 49  1  0
 27 50  1  0
 28 51  1  0
 28 52  1  0
M  END
>  <Score>  (1) 
-7.32543

>  <Score_dual>  (1) 
-7.43

>  <Choices>  (1) 
[None, 6, ['7-19', 90], 17, ['34-24', 330], 32, ['11-14', 60], 35, ['18-21', 0]]

$$$$
