
     RDKit          3D

 47 52  0  0  1  0  0  0  0  0999 V2000
   41.9880   83.8150   61.8460 C   0  0  0  0  0  0  0  0  0  0  0  0
   41.7920   82.6510   61.1140 C   0  0  0  0  0  0  0  0  0  0  0  0
   41.0570   81.6240   61.6670 C   0  0  0  0  0  0  0  0  0  0  0  0
   40.5540   81.8060   62.9180 N   0  0  0  0  0  0  0  0  0  0  0  0
   40.7530   82.9330   63.6080 C   0  0  0  0  0  0  0  0  0  0  0  0
   41.4630   83.9290   63.0760 N   0  0  0  0  0  0  0  0  0  0  0  0
   40.7730   80.3550   61.0190 C   0  0  0  0  0  0  0  0  0  0  0  0
   40.9380   79.1250   61.6530 C   0  0  0  0  0  0  0  0  0  0  0  0
   40.6680   77.9130   61.0300 C   0  0  0  0  0  0  0  0  0  0  0  0
   40.2270   77.8990   59.7650 N   0  0  0  0  0  0  0  0  0  0  0  0
   40.0690   79.0950   59.1530 C   0  0  0  0  0  0  0  0  0  0  0  0
   40.3230   80.2900   59.7320 N   0  0  0  0  0  0  0  0  0  0  0  0
   39.6020   79.0980   57.8090 N   0  0  0  0  0  0  0  0  0  0  0  0
   40.2410   79.8700   56.8860 C   0  0  0  0  0  0  0  0  0  0  0  0
   39.6560   79.7340   55.6990 N   0  0  0  0  0  0  0  0  0  0  0  0
   38.6210   78.8700   55.8150 C   0  0  0  0  0  0  0  0  0  0  0  0
   37.6420   78.3040   55.0330 C   0  0  2  0  0  0  0  0  0  0  0  0
   36.7460   77.4400   55.5490 N   0  0  0  0  0  0  0  0  0  0  0  0
   36.7790   77.1000   56.8540 C   0  0  0  0  0  0  0  0  0  0  0  0
   37.7220   77.6290   57.6650 N   0  0  0  0  0  0  0  0  0  0  0  0
   38.6170   78.4930   57.1480 C   0  0  0  0  0  0  0  0  0  0  0  0
   37.6610   78.7080   53.6520 N   0  0  0  0  0  0  0  0  0  0  0  0
   43.7590   85.6220   61.9150 C   0  0  0  0  0  0  0  0  0  0  0  0
   42.7650   84.9150   61.2770 C   0  0  0  0  0  0  0  0  0  0  0  0
   42.5130   85.3180   59.9750 C   0  0  0  0  0  0  0  0  0  0  0  0
   43.1900   86.3480   59.3390 C   0  0  0  0  0  0  0  0  0  0  0  0
   43.1450   86.9200   58.1300 N   0  0  0  0  0  0  0  0  0  0  0  0
   44.0320   87.8910   58.0370 C   0  0  0  0  0  0  0  0  0  0  0  0
   44.7310   88.0080   59.2290 C   0  0  0  0  0  0  0  0  0  0  0  0
   44.1730   87.0210   60.0220 C   0  0  0  0  0  0  0  0  0  0  0  0
   44.4470   86.6450   61.3200 C   0  0  0  0  0  0  0  0  0  0  0  0
   42.2182   82.5497   60.1050 H   0  0  0  0  0  0  0  0  0  0  0  0
   40.3300   83.0396   64.6178 H   0  0  0  0  0  0  0  0  0  0  0  0
   41.2978   79.1133   62.6924 H   0  0  0  0  0  0  0  0  0  0  0  0
   40.8158   76.9681   61.5735 H   0  0  0  0  0  0  0  0  0  0  0  0
   41.1113   80.5105   57.0917 H   0  0  0  0  0  0  0  0  0  0  0  0
   36.9697   79.1421   55.2689 H   0  0  0  0  0  0  0  0  0  0  0  0
   36.0393   76.3930   57.2577 H   0  0  0  0  0  0  0  0  0  0  0  0
   37.7558   77.3755   58.6627 H   0  0  0  0  0  0  0  0  0  0  0  0
   37.7093   79.7353   53.5954 H   0  0  0  0  0  0  0  0  0  0  0  0
   38.4837   78.2994   53.1860 H   0  0  0  0  0  0  0  0  0  0  0  0
   44.0122   85.3524   62.9510 H   0  0  0  0  0  0  0  0  0  0  0  0
   41.7293   84.7894   59.4125 H   0  0  0  0  0  0  0  0  0  0  0  0
   42.5039   86.6395   57.3742 H   0  0  0  0  0  0  0  0  0  0  0  0
   44.1936   88.5156   57.1461 H   0  0  0  0  0  0  0  0  0  0  0  0
   45.5348   88.7147   59.4827 H   0  0  0  0  0  0  0  0  0  0  0  0
   45.2287   87.1741   61.8848 H   0  0  0  0  0  0  0  0  0  0  0  0
  1  6  2  0
  2  3  2  0
  2  1  1  0
  3  4  1  0
  4  5  2  0
  6  5  1  0
  7  8  2  0
  7  3  1  0
  9  8  1  0
 10  9  2  0
 11 12  2  0
 11 10  1  0
 12  7  1  0
 13 11  1  0
 14 13  1  0
 15 16  1  0
 15 14  2  0
 16 21  2  0
 17 22  1  0
 17 18  1  0
 17 16  1  0
 18 19  2  0
 19 20  1  0
 21 20  1  0
 21 13  1  0
 24  1  1  0
 24 23  2  0
 25 24  1  0
 26 25  2  0
 26 30  1  0
 27 26  1  0
 28 27  1  0
 28 29  2  0
 29 30  1  0
 30 31  2  0
 31 23  1  0
  2 32  1  0
  5 33  1  0
  8 34  1  0
  9 35  1  0
 14 36  1  0
 17 37  1  1
 19 38  1  0
 20 39  1  0
 22 40  1  0
 22 41  1  0
 23 42  1  0
 25 43  1  0
 27 44  1  0
 28 45  1  0
 29 46  1  0
 31 47  1  0
M  END
>  <Score>  (1) 
-7.71171

>  <Score_dual>  (1) 
-9.23

>  <Choices>  (1) 
[None, 8, ['19-20', 0], 12, ['24-9', 315], 31, ['28-8', 345]]

$$$$
