
     RDKit          3D

 49 54  0  0  0  0  0  0  0  0999 V2000
   43.8610   85.3010   57.4630 C   0  0  0  0  0  0  0  0  0  0  0  0
   43.4370   84.4080   56.4570 C   0  0  0  0  0  0  0  0  0  0  0  0
   42.4380   83.4750   56.7370 C   0  0  0  0  0  0  0  0  0  0  0  0
   41.9360   83.4970   57.9880 N   0  0  0  0  0  0  0  0  0  0  0  0
   42.3370   84.3460   58.9500 C   0  0  0  0  0  0  0  0  0  0  0  0
   43.2930   85.2380   58.6800 N   0  0  0  0  0  0  0  0  0  0  0  0
   40.3720   84.2670   60.4200 C   0  0  0  0  0  0  0  0  0  0  0  0
   41.7350   84.2960   60.2780 C   0  0  0  0  0  0  0  0  0  0  0  0
   42.5470   84.2770   61.3840 C   0  0  0  0  0  0  0  0  0  0  0  0
   41.9840   84.2300   62.6380 C   0  0  0  0  0  0  0  0  0  0  0  0
   42.5630   84.2040   63.8620 N   0  0  0  0  0  0  0  0  0  0  0  0
   41.5430   84.1600   64.7360 C   0  0  0  0  0  0  0  0  0  0  0  0
   40.3500   84.1590   64.0650 N   0  0  0  0  0  0  0  0  0  0  0  0
   40.6030   84.2030   62.7240 C   0  0  0  0  0  0  0  0  0  0  0  0
   39.7500   84.2190   61.6560 C   0  0  0  0  0  0  0  0  0  0  0  0
   39.5170   84.2870   59.2610 N   0  0  0  0  0  0  0  0  0  0  0  0
   41.0050   81.6000   56.1220 C   0  0  0  0  0  0  0  0  0  0  0  0
   41.9570   82.5340   55.7580 C   0  0  0  0  0  0  0  0  0  0  0  0
   42.3750   82.4810   54.4450 C   0  0  0  0  0  0  0  0  0  0  0  0
   41.8990   81.5710   53.5250 C   0  0  0  0  0  0  0  0  0  0  0  0
   40.9650   80.6630   53.9060 C   0  0  0  0  0  0  0  0  0  0  0  0
   40.4980   80.6650   55.2290 C   0  0  0  0  0  0  0  0  0  0  0  0
   38.1580   79.8530   55.8850 C   0  0  0  0  0  0  0  0  0  0  0  0
   39.4910   79.6680   55.5800 C   0  0  0  0  0  0  0  0  0  0  0  0
   39.9730   78.3740   55.6030 C   0  0  0  0  0  0  0  0  0  0  0  0
   39.1690   77.2850   55.9170 C   0  0  0  0  0  0  0  0  0  0  0  0
   39.3540   75.9540   56.0160 N   0  0  0  0  0  0  0  0  0  0  0  0
   38.2180   75.3690   56.3560 N   0  0  0  0  0  0  0  0  0  0  0  0
   37.2250   76.2780   56.5000 C   0  0  0  0  0  0  0  0  0  0  0  0
   37.8380   77.4820   56.2200 C   0  0  0  0  0  0  0  0  0  0  0  0
   37.3710   78.7670   56.1950 C   0  0  0  0  0  0  0  0  0  0  0  0
   40.0360   81.4460   58.5380 N   0  0  0  0  0  0  0  0  0  0  0  0
   40.4740   81.5260   57.4550 C   0  0  0  0  0  0  0  0  0  0  0  0
   44.6478   86.0409   57.2542 H   0  0  0  0  0  0  0  0  0  0  0  0
   43.8918   84.4469   55.4562 H   0  0  0  0  0  0  0  0  0  0  0  0
   43.6407   84.2992   61.2685 H   0  0  0  0  0  0  0  0  0  0  0  0
   43.5702   84.2155   64.0772 H   0  0  0  0  0  0  0  0  0  0  0  0
   41.6511   84.1293   65.8302 H   0  0  0  0  0  0  0  0  0  0  0  0
   38.6561   84.1956   61.7696 H   0  0  0  0  0  0  0  0  0  0  0  0
   39.9290   84.3225   58.3177 H   0  0  0  0  0  0  0  0  0  0  0  0
   38.4936   84.2658   59.3756 H   0  0  0  0  0  0  0  0  0  0  0  0
   43.1319   83.2066   54.1124 H   0  0  0  0  0  0  0  0  0  0  0  0
   42.2732   81.5809   52.4907 H   0  0  0  0  0  0  0  0  0  0  0  0
   40.5769   79.9307   53.1827 H   0  0  0  0  0  0  0  0  0  0  0  0
   37.7259   80.8646   55.8804 H   0  0  0  0  0  0  0  0  0  0  0  0
   41.0323   78.1989   55.3640 H   0  0  0  0  0  0  0  0  0  0  0  0
   40.2459   75.4658   55.8516 H   0  0  0  0  0  0  0  0  0  0  0  0
   36.1753   76.0987   56.7757 H   0  0  0  0  0  0  0  0  0  0  0  0
   36.3118   78.9419   56.4350 H   0  0  0  0  0  0  0  0  0  0  0  0
  1  6  2  0
  2  3  2  0
  2  1  1  0
  3  4  1  0
  4  5  2  0
  5  8  1  0
  6  5  1  0
  7 15  2  0
  8  7  1  0
  8  9  2  0
  9 10  1  0
 10 14  2  0
 10 11  1  0
 11 12  1  0
 13 12  2  0
 14 13  1  0
 15 14  1  0
 16  7  1  0
 17 33  1  0
 18 17  2  0
 18  3  1  0
 19 18  1  0
 20 21  1  0
 20 19  2  0
 21 22  2  0
 22 24  1  0
 22 17  1  0
 23 31  2  0
 24 25  2  0
 24 23  1  0
 25 26  1  0
 26 27  1  0
 26 30  2  0
 27 28  1  0
 28 29  2  0
 30 29  1  0
 31 30  1  0
 33 32  3  0
  1 34  1  0
  2 35  1  0
  9 36  1  0
 11 37  1  0
 12 38  1  0
 15 39  1  0
 16 40  1  0
 16 41  1  0
 19 42  1  0
 20 43  1  0
 21 44  1  0
 23 45  1  0
 25 46  1  0
 27 47  1  0
 29 48  1  0
 31 49  1  0
M  END
>  <Score>  (1) 
-7.08249

>  <Score_dual>  (1) 
-8.39

>  <Choices>  (1) 
[None, 9, ['34-23', 255], 15, ['0-3', 0], 22, ['40-20', 0], 35, ['54-8', 315]]

$$$$
