
     RDKit          3D

 58 64  0  0  1  0  0  0  0  0999 V2000
   44.7350   88.1150   58.3960 C   0  0  0  0  0  0  0  0  0  0  0  0
   44.4600   87.7020   59.6690 C   0  0  0  0  0  0  0  0  0  0  0  0
   44.0870   88.6820   60.5820 C   0  0  0  0  0  0  0  0  0  0  0  0
   43.9810   90.0230   60.2770 C   0  0  0  0  0  0  0  0  0  0  0  0
   44.2710   90.4020   58.9680 C   0  0  0  0  0  0  0  0  0  0  0  0
   44.6470   89.4490   58.0310 C   0  0  0  0  0  0  0  0  0  0  0  0
   44.0850   91.7980   58.9430 O   0  0  0  0  0  0  0  0  0  0  0  0
   44.1170   92.2500   60.2890 C   0  0  2  0  0  0  0  0  0  0  0  0
   43.6300   91.1480   61.0320 O   0  0  0  0  0  0  0  0  0  0  0  0
   40.2770   83.5700   63.1830 C   0  0  0  0  0  0  0  0  0  0  0  0
   39.3060   83.3080   62.1900 C   0  0  0  0  0  0  0  0  0  0  0  0
   39.6710   83.5000   60.8510 C   0  0  0  0  0  0  0  0  0  0  0  0
   40.9390   83.9280   60.5760 N   0  0  0  0  0  0  0  0  0  0  0  0
   41.8380   84.1690   61.5500 C   0  0  0  0  0  0  0  0  0  0  0  0
   41.5110   83.9910   62.8450 N   0  0  0  0  0  0  0  0  0  0  0  0
   43.1370   84.6130   61.1710 N   0  0  0  0  0  0  0  0  0  0  0  0
   43.1940   85.6830   60.1900 C   0  0  0  0  0  0  0  0  0  0  0  0
   44.5650   86.2940   60.0870 C   0  0  2  0  0  0  0  0  0  0  0  0
   45.3700   86.0520   61.2440 N   0  0  0  0  0  0  0  0  0  0  0  0
   45.5670   84.6020   61.2810 C   0  0  0  0  0  0  0  0  0  0  0  0
   44.2990   83.9780   61.7780 C   0  0  0  0  0  0  0  0  0  0  0  0
   43.1260   93.3470   60.4380 C   0  0  0  0  0  0  0  0  0  0  0  0
   43.4470   94.3310   61.3770 C   0  0  0  0  0  0  0  0  0  0  0  0
   42.5390   95.3740   61.5400 C   0  0  0  0  0  0  0  0  0  0  0  0
   41.3530   95.5150   60.8540 C   0  0  0  0  0  0  0  0  0  0  0  0
   41.0990   94.5170   59.9500 C   0  0  0  0  0  0  0  0  0  0  0  0
   41.9390   93.4810   59.7460 C   0  0  0  0  0  0  0  0  0  0  0  0
   39.5910   94.5960   59.0050 S   0  0  0  0  0  0  0  0  0  0  0  0
   38.7450   96.0710   59.5290 C   0  0  0  0  0  0  0  0  0  0  0  0
   37.5530   96.3920   58.9710 C   0  0  0  0  0  0  0  0  0  0  0  0
   36.8500   97.5200   59.3350 C   0  0  0  0  0  0  0  0  0  0  0  0
   37.3840   98.3450   60.2960 C   0  0  0  0  0  0  0  0  0  0  0  0
   38.6030   97.9740   60.8350 C   0  0  0  0  0  0  0  0  0  0  0  0
   39.3280   96.8540   60.4920 C   0  0  0  0  0  0  0  0  0  0  0  0
   40.5420   96.6390   61.1430 N   0  0  0  0  0  0  0  0  0  0  0  0
   45.0334   87.3709   57.6428 H   0  0  0  0  0  0  0  0  0  0  0  0
   43.8624   88.3682   61.6121 H   0  0  0  0  0  0  0  0  0  0  0  0
   44.8751   89.7529   56.9987 H   0  0  0  0  0  0  0  0  0  0  0  0
   45.1138   92.5957   60.6001 H   0  0  0  0  0  0  0  0  0  0  0  0
   40.0221   83.4285   64.2437 H   0  0  0  0  0  0  0  0  0  0  0  0
   38.2964   82.9645   62.4597 H   0  0  0  0  0  0  0  0  0  0  0  0
   38.9529   83.3104   60.0395 H   0  0  0  0  0  0  0  0  0  0  0  0
   42.9136   85.2764   59.2071 H   0  0  0  0  0  0  0  0  0  0  0  0
   42.4986   86.4717   60.5131 H   0  0  0  0  0  0  0  0  0  0  0  0
   45.1275   85.7835   59.2914 H   0  0  0  0  0  0  0  0  0  0  0  0
   46.2749   86.5371   61.1618 H   0  0  0  0  0  0  0  0  0  0  0  0
   45.7960   84.2300   60.2715 H   0  0  0  0  0  0  0  0  0  0  0  0
   46.4060   84.3459   61.9447 H   0  0  0  0  0  0  0  0  0  0  0  0
   44.2439   84.0944   62.8704 H   0  0  0  0  0  0  0  0  0  0  0  0
   44.3005   82.9122   61.5059 H   0  0  0  0  0  0  0  0  0  0  0  0
   44.3772   94.2836   61.9623 H   0  0  0  0  0  0  0  0  0  0  0  0
   42.7898   96.1500   62.2782 H   0  0  0  0  0  0  0  0  0  0  0  0
   41.6686   92.7167   59.0025 H   0  0  0  0  0  0  0  0  0  0  0  0
   37.1317   95.7293   58.2007 H   0  0  0  0  0  0  0  0  0  0  0  0
   35.8828   97.7550   58.8668 H   0  0  0  0  0  0  0  0  0  0  0  0
   36.8656   99.2589   60.6218 H   0  0  0  0  0  0  0  0  0  0  0  0
   39.0312   98.6317   61.6058 H   0  0  0  0  0  0  0  0  0  0  0  0
   40.8571   97.3156   61.8528 H   0  0  0  0  0  0  0  0  0  0  0  0
  1  2  2  0
  2 18  1  0
  2  3  1  0
  4  3  2  0
  4  9  1  0
  5  4  1  0
  6  1  1  0
  6  5  2  0
  7  5  1  0
  7  8  1  0
  8 22  1  0
  8  9  1  0
 11 10  2  0
 12 11  1  0
 13 12  2  0
 13 14  1  0
 14 15  2  0
 15 10  1  0
 16 14  1  0
 16 21  1  0
 17 16  1  0
 18 17  1  0
 18 19  1  0
 19 20  1  0
 20 21  1  0
 22 23  2  0
 23 24  1  0
 25 35  1  0
 25 24  2  0
 26 25  1  0
 27 26  2  0
 27 22  1  0
 28 29  1  0
 28 26  1  0
 29 34  2  0
 30 31  2  0
 30 29  1  0
 31 32  1  0
 32 33  2  0
 34 33  1  0
 34 35  1  0
  1 36  1  0
  3 37  1  0
  6 38  1  0
  8 39  1  1
 10 40  1  0
 11 41  1  0
 12 42  1  0
 17 43  1  0
 17 44  1  0
 18 45  1  6
 19 46  1  0
 20 47  1  0
 20 48  1  0
 21 49  1  0
 21 50  1  0
 23 51  1  0
 24 52  1  0
 27 53  1  0
 30 54  1  0
 31 55  1  0
 32 56  1  0
 33 57  1  0
 35 58  1  0
M  END
>  <Score>  (1) 
-7.22993

>  <Score_dual>  (1) 
-9.13

>  <Choices>  (1) 
[None, 9, ['15-7', 45], 18, ['52-14', 120], 36, ['60-9', 285]]

$$$$
