
     RDKit          3D

 53 59  0  0  0  0  0  0  0  0999 V2000
   41.7620   79.2780   58.5630 C   0  0  0  0  0  0  0  0  0  0  0  0
   41.7080   80.0550   59.7050 C   0  0  0  0  0  0  0  0  0  0  0  0
   41.1180   79.4640   60.8290 C   0  0  0  0  0  0  0  0  0  0  0  0
   40.6190   78.1620   60.7720 C   0  0  0  0  0  0  0  0  0  0  0  0
   40.0160   77.3680   61.6790 N   0  0  0  0  0  0  0  0  0  0  0  0
   39.7350   76.2160   61.1270 N   0  0  0  0  0  0  0  0  0  0  0  0
   40.1520   76.2250   59.8220 C   0  0  0  0  0  0  0  0  0  0  0  0
   40.7010   77.4540   59.6280 C   0  0  0  0  0  0  0  0  0  0  0  0
   41.2760   77.9880   58.4790 C   0  0  0  0  0  0  0  0  0  0  0  0
   40.0040   75.0940   58.8810 C   0  0  0  0  0  0  0  0  0  0  0  0
   39.2010   75.0010   57.8350 N   0  0  0  0  0  0  0  0  0  0  0  0
   39.0440   74.0140   56.9770 C   0  0  0  0  0  0  0  0  0  0  0  0
   39.7880   72.9070   57.1460 N   0  0  0  0  0  0  0  0  0  0  0  0
   40.6570   72.8600   58.1780 C   0  0  0  0  0  0  0  0  0  0  0  0
   41.3800   71.7080   58.2910 C   0  0  0  0  0  0  0  0  0  0  0  0
   42.2920   71.5620   59.3100 C   0  0  0  0  0  0  0  0  0  0  0  0
   42.4240   72.6330   60.1930 C   0  0  0  0  0  0  0  0  0  0  0  0
   41.6550   73.7600   60.0080 C   0  0  0  0  0  0  0  0  0  0  0  0
   40.7430   73.9540   59.0220 C   0  0  0  0  0  0  0  0  0  0  0  0
   41.4000   77.3240   57.2330 N   0  0  0  0  0  0  0  0  0  0  0  0
   42.1960   81.3200   59.7450 O   0  0  0  0  0  0  0  0  0  0  0  0
   42.9790   81.8390   60.7620 C   0  0  0  0  0  0  0  0  0  0  0  0
   42.5770   82.8510   61.5670 C   0  0  0  0  0  0  0  0  0  0  0  0
   43.4260   83.3130   62.5640 C   0  0  0  0  0  0  0  0  0  0  0  0
   44.6860   82.7360   62.7340 C   0  0  0  0  0  0  0  0  0  0  0  0
   45.6990   82.9650   63.5900 N   0  0  0  0  0  0  0  0  0  0  0  0
   46.7120   82.1110   63.3230 C   0  0  0  0  0  0  0  0  0  0  0  0
   46.3280   81.3410   62.2880 N   0  0  0  0  0  0  0  0  0  0  0  0
   45.0730   81.6980   61.8920 C   0  0  0  0  0  0  0  0  0  0  0  0
   44.2200   81.2410   60.8990 C   0  0  0  0  0  0  0  0  0  0  0  0
   39.6510   84.8240   60.2850 C   0  0  0  0  0  0  0  0  0  0  0  0
   40.9780   84.3690   60.3850 C   0  0  0  0  0  0  0  0  0  0  0  0
   41.2460   83.4200   61.3440 C   0  0  0  0  0  0  0  0  0  0  0  0
   40.2290   82.9860   62.1220 N   0  0  0  0  0  0  0  0  0  0  0  0
   38.9660   83.4420   62.0010 C   0  0  0  0  0  0  0  0  0  0  0  0
   38.6620   84.3690   61.0770 N   0  0  0  0  0  0  0  0  0  0  0  0
   42.2212   79.7149   57.6640 H   0  0  0  0  0  0  0  0  0  0  0  0
   41.0470   80.0327   61.7679 H   0  0  0  0  0  0  0  0  0  0  0  0
   39.8089   77.6277   62.6540 H   0  0  0  0  0  0  0  0  0  0  0  0
   38.3260   74.0931   56.1474 H   0  0  0  0  0  0  0  0  0  0  0  0
   41.2330   70.8944   57.5654 H   0  0  0  0  0  0  0  0  0  0  0  0
   42.8885   70.6447   59.4230 H   0  0  0  0  0  0  0  0  0  0  0  0
   43.1360   72.5780   61.0297 H   0  0  0  0  0  0  0  0  0  0  0  0
   41.7929   74.5807   60.7274 H   0  0  0  0  0  0  0  0  0  0  0  0
   41.0510   76.3609   57.1257 H   0  0  0  0  0  0  0  0  0  0  0  0
   41.8391   77.8046   56.4348 H   0  0  0  0  0  0  0  0  0  0  0  0
   43.1053   84.1349   63.2209 H   0  0  0  0  0  0  0  0  0  0  0  0
   45.7018   83.6791   64.3322 H   0  0  0  0  0  0  0  0  0  0  0  0
   47.6737   82.0555   63.8541 H   0  0  0  0  0  0  0  0  0  0  0  0
   44.5234   80.4196   60.2333 H   0  0  0  0  0  0  0  0  0  0  0  0
   39.4109   85.5843   59.5271 H   0  0  0  0  0  0  0  0  0  0  0  0
   41.7680   84.7556   59.7244 H   0  0  0  0  0  0  0  0  0  0  0  0
   38.1789   83.0524   62.6633 H   0  0  0  0  0  0  0  0  0  0  0  0
  1  2  2  0
  2 21  1  0
  2  3  1  0
  4  3  2  0
  4  5  1  0
  6  5  1  0
  7  6  2  0
  8  7  1  0
  8  4  1  0
  9  1  1  0
  9  8  2  0
 10 19  1  0
 10  7  1  0
 11 10  2  0
 12 13  2  0
 12 11  1  0
 13 14  1  0
 14 15  1  0
 14 19  2  0
 15 16  2  0
 16 17  1  0
 18 17  2  0
 19 18  1  0
 20  9  1  0
 21 22  1  0
 22 30  2  0
 22 23  1  0
 23 24  2  0
 24 25  1  0
 25 26  1  0
 27 26  1  0
 28 27  2  0
 29 28  1  0
 29 25  2  0
 30 29  1  0
 31 32  2  0
 31 36  1  0
 32 33  1  0
 33 23  1  0
 33 34  2  0
 35 34  1  0
 36 35  2  0
  1 37  1  0
  3 38  1  0
  5 39  1  0
 12 40  1  0
 15 41  1  0
 16 42  1  0
 17 43  1  0
 18 44  1  0
 20 45  1  0
 20 46  1  0
 24 47  1  0
 26 48  1  0
 27 49  1  0
 30 50  1  0
 31 51  1  0
 32 52  1  0
 35 53  1  0
M  END
>  <Score>  (1) 
-7.49692

>  <Score_dual>  (1) 
-8.53

>  <Choices>  (1) 
[None, 8, ['34-23', 60], 15, ['2-1', 0], 23, ['54-21', 15], 36, ['0-4', 0], 36, ['47-20', 300]]

$$$$
