
     RDKit          3D

 49 53  0  0  1  0  0  0  0  0999 V2000
   43.0550   83.8470   62.9370 C   0  0  0  0  0  0  0  0  0  0  0  0
   43.4700   84.7990   61.9730 C   0  0  0  0  0  0  0  0  0  0  0  0
   44.6840   84.5380   61.2970 C   0  0  0  0  0  0  0  0  0  0  0  0
   45.3730   83.4190   61.5980 N   0  0  0  0  0  0  0  0  0  0  0  0
   44.9390   82.5390   62.5260 C   0  0  0  0  0  0  0  0  0  0  0  0
   43.7970   82.7490   63.1850 N   0  0  0  0  0  0  0  0  0  0  0  0
   41.8160   84.0600   63.6630 C   0  0  0  0  0  0  0  0  0  0  0  0
   40.5700   83.7750   63.2380 C   0  0  0  0  0  0  0  0  0  0  0  0
   39.6780   84.1220   64.2100 N   0  0  0  0  0  0  0  0  0  0  0  0
   40.4150   84.6250   65.2400 C   0  0  0  0  0  0  0  0  0  0  0  0
   41.7210   84.5880   64.9060 N   0  0  0  0  0  0  0  0  0  0  0  0
   40.1080   83.2130   62.0240 C   0  0  0  0  0  0  0  0  0  0  0  0
   39.4880   82.1280   61.9050 O   0  0  0  0  0  0  0  0  0  0  0  0
   40.1360   83.5700   60.6410 N   0  0  0  0  0  0  0  0  0  0  0  0
   39.4820   84.8180   60.4940 C   0  0  0  0  0  0  0  0  0  0  0  0
   39.5460   85.1650   59.0350 C   0  0  0  0  0  0  0  0  0  0  0  0
   40.5660   84.2700   58.4370 C   0  0  0  0  0  0  0  0  0  0  0  0
   40.6240   83.0620   59.3370 C   0  0  2  0  0  0  0  0  0  0  0  0
   39.8060   82.0340   58.9060 O   0  0  0  0  0  0  0  0  0  0  0  0
   45.6440   81.3150   62.8960 C   0  0  0  0  0  0  0  0  0  0  0  0
   45.5240   79.9540   62.7380 C   0  0  0  0  0  0  0  0  0  0  0  0
   46.5640   79.3690   63.3580 N   0  0  0  0  0  0  0  0  0  0  0  0
   47.3450   80.3300   63.9070 C   0  0  0  0  0  0  0  0  0  0  0  0
   46.7750   81.5380   63.6210 N   0  0  0  0  0  0  0  0  0  0  0  0
   48.5800   80.1290   64.6730 C   0  0  0  0  0  0  0  0  0  0  0  0
   49.7890   80.5950   64.1950 C   0  0  0  0  0  0  0  0  0  0  0  0
   50.9360   80.3800   64.9600 C   0  0  0  0  0  0  0  0  0  0  0  0
   50.8730   79.7070   66.1860 C   0  0  0  0  0  0  0  0  0  0  0  0
   49.6460   79.2570   66.6290 C   0  0  0  0  0  0  0  0  0  0  0  0
   48.5060   79.4690   65.8740 C   0  0  0  0  0  0  0  0  0  0  0  0
   42.8751   85.6995   61.7604 H   0  0  0  0  0  0  0  0  0  0  0  0
   45.0609   85.2378   60.5365 H   0  0  0  0  0  0  0  0  0  0  0  0
   38.6534   84.0236   64.1729 H   0  0  0  0  0  0  0  0  0  0  0  0
   40.0097   85.0008   66.1911 H   0  0  0  0  0  0  0  0  0  0  0  0
   38.4344   84.7385   60.8199 H   0  0  0  0  0  0  0  0  0  0  0  0
   39.9632   85.5934   61.1082 H   0  0  0  0  0  0  0  0  0  0  0  0
   38.5677   84.9976   58.5607 H   0  0  0  0  0  0  0  0  0  0  0  0
   39.8078   86.2232   58.8875 H   0  0  0  0  0  0  0  0  0  0  0  0
   40.2698   83.9765   57.4191 H   0  0  0  0  0  0  0  0  0  0  0  0
   41.5450   84.7651   58.3572 H   0  0  0  0  0  0  0  0  0  0  0  0
   41.6387   82.6383   59.3676 H   0  0  0  0  0  0  0  0  0  0  0  0
   39.4296   81.5610   59.6900 H   0  0  0  0  0  0  0  0  0  0  0  0
   44.7181   79.4348   62.1987 H   0  0  0  0  0  0  0  0  0  0  0  0
   46.7384   78.3551   63.4074 H   0  0  0  0  0  0  0  0  0  0  0  0
   49.8465   81.1241   63.2323 H   0  0  0  0  0  0  0  0  0  0  0  0
   51.9065   80.7456   64.5934 H   0  0  0  0  0  0  0  0  0  0  0  0
   51.7817   79.5406   66.7831 H   0  0  0  0  0  0  0  0  0  0  0  0
   49.5737   78.7258   67.5895 H   0  0  0  0  0  0  0  0  0  0  0  0
   47.5338   79.1061   66.2389 H   0  0  0  0  0  0  0  0  0  0  0  0
  1  6  1  0
  1  7  1  0
  2  1  2  0
  3  4  2  0
  3  2  1  0
  4  5  1  0
  5 20  1  0
  5  6  2  0
  7 11  1  0
  8  7  2  0
  8  9  1  0
  9 10  1  0
 11 10  2  0
 12  8  1  0
 13 12  2  0
 14 12  1  0
 15 14  1  0
 16 15  1  0
 17 16  1  0
 17 18  1  0
 18 14  1  0
 19 18  1  0
 20 24  1  0
 21 20  2  0
 21 22  1  0
 22 23  1  0
 23 25  1  0
 24 23  2  0
 25 30  1  0
 26 25  2  0
 26 27  1  0
 27 28  2  0
 28 29  1  0
 30 29  2  0
  2 31  1  0
  3 32  1  0
  9 33  1  0
 10 34  1  0
 15 35  1  0
 15 36  1  0
 16 37  1  0
 16 38  1  0
 17 39  1  0
 17 40  1  0
 18 41  1  1
 19 42  1  0
 21 43  1  0
 22 44  1  0
 26 45  1  0
 27 46  1  0
 28 47  1  0
 29 48  1  0
 30 49  1  0
M  END
>  <Score>  (1) 
-7.14997

>  <Score_dual>  (1) 
-7.93

>  <Choices>  (1) 
[None, 6, ['23-9', 180], 14, ['5-8', 345], 18, ['13-1', 120], 30, ['2-1', 330], 31, ['23-6', 210], 38, ['1-26', 330]]

$$$$
