
     RDKit          3D

 49 53  0  0  0  0  0  0  0  0999 V2000
   40.3390   76.6670   60.6990 C   0  0  0  0  0  0  0  0  0  0  0  0
   40.2880   77.9300   58.5260 C   0  0  0  0  0  0  0  0  0  0  0  0
   39.7120   77.0680   59.4590 C   0  0  0  0  0  0  0  0  0  0  0  0
   38.4590   76.5980   59.1230 C   0  0  0  0  0  0  0  0  0  0  0  0
   37.7920   76.9260   57.9700 C   0  0  0  0  0  0  0  0  0  0  0  0
   36.5830   76.5620   57.4930 N   0  0  0  0  0  0  0  0  0  0  0  0
   36.4130   77.1820   56.2950 C   0  0  0  0  0  0  0  0  0  0  0  0
   37.5250   77.9220   56.0500 N   0  0  0  0  0  0  0  0  0  0  0  0
   38.4010   77.7800   57.0780 C   0  0  0  0  0  0  0  0  0  0  0  0
   39.6620   78.2880   57.3600 C   0  0  0  0  0  0  0  0  0  0  0  0
   40.2480   79.1880   56.3730 C   0  0  0  0  0  0  0  0  0  0  0  0
   40.3470   80.4930   56.8410 C   0  0  0  0  0  0  0  0  0  0  0  0
   40.8730   81.5020   56.0650 C   0  0  0  0  0  0  0  0  0  0  0  0
   41.3120   81.1970   54.7870 C   0  0  0  0  0  0  0  0  0  0  0  0
   41.2170   79.9010   54.3160 C   0  0  0  0  0  0  0  0  0  0  0  0
   40.6880   78.8910   55.0960 C   0  0  0  0  0  0  0  0  0  0  0  0
   40.2170   77.5320   61.8970 C   0  0  0  0  0  0  0  0  0  0  0  0
   41.4150   80.9920   61.5560 C   0  0  0  0  0  0  0  0  0  0  0  0
   42.7770   80.9070   61.7170 C   0  0  0  0  0  0  0  0  0  0  0  0
   43.3210   79.6290   61.9510 C   0  0  0  0  0  0  0  0  0  0  0  0
   42.4740   78.5770   62.0010 N   0  0  0  0  0  0  0  0  0  0  0  0
   41.1610   78.7020   61.8410 C   0  0  0  0  0  0  0  0  0  0  0  0
   40.5900   79.9090   61.6130 N   0  0  0  0  0  0  0  0  0  0  0  0
   40.7310   82.2430   61.3110 N   0  0  0  0  0  0  0  0  0  0  0  0
   40.6560   82.5190   59.9590 C   0  0  0  0  0  0  0  0  0  0  0  0
   40.0420   83.6680   59.5000 C   0  0  0  0  0  0  0  0  0  0  0  0
   39.5010   84.5400   60.4460 C   0  0  0  0  0  0  0  0  0  0  0  0
   38.9410   85.5860   60.0540 O   0  0  0  0  0  0  0  0  0  0  0  0
   39.6040   84.2220   61.7380 N   0  0  0  0  0  0  0  0  0  0  0  0
   40.2020   83.1040   62.1660 C   0  0  0  0  0  0  0  0  0  0  0  0
   40.3340   82.7480   63.3330 O   0  0  0  0  0  0  0  0  0  0  0  0
   41.4139   76.5580   60.4923 H   0  0  0  0  0  0  0  0  0  0  0  0
   39.7883   75.7579   60.9823 H   0  0  0  0  0  0  0  0  0  0  0  0
   41.2872   78.3401   58.7346 H   0  0  0  0  0  0  0  0  0  0  0  0
   37.9616   75.9145   59.8268 H   0  0  0  0  0  0  0  0  0  0  0  0
   35.9119   75.9301   57.9525 H   0  0  0  0  0  0  0  0  0  0  0  0
   35.5323   77.0991   55.6412 H   0  0  0  0  0  0  0  0  0  0  0  0
   39.9962   80.7259   57.8572 H   0  0  0  0  0  0  0  0  0  0  0  0
   40.9431   82.5292   56.4522 H   0  0  0  0  0  0  0  0  0  0  0  0
   41.7358   81.9854   54.1477 H   0  0  0  0  0  0  0  0  0  0  0  0
   41.5696   79.6693   53.3001 H   0  0  0  0  0  0  0  0  0  0  0  0
   40.6177   77.8646   54.7067 H   0  0  0  0  0  0  0  0  0  0  0  0
   39.1857   77.9095   61.9598 H   0  0  0  0  0  0  0  0  0  0  0  0
   40.4724   76.9291   62.7809 H   0  0  0  0  0  0  0  0  0  0  0  0
   43.4164   81.8006   61.6652 H   0  0  0  0  0  0  0  0  0  0  0  0
   44.4036   79.4912   62.0890 H   0  0  0  0  0  0  0  0  0  0  0  0
   41.0920   81.8127   59.2372 H   0  0  0  0  0  0  0  0  0  0  0  0
   39.9814   83.8886   58.4240 H   0  0  0  0  0  0  0  0  0  0  0  0
   39.2056   84.8655   62.4366 H   0  0  0  0  0  0  0  0  0  0  0  0
  1 17  1  0
  2  3  2  0
  3  1  1  0
  4  3  1  0
  5  4  2  0
  6  5  1  0
  7  6  1  0
  8  7  2  0
  8  9  1  0
  9 10  2  0
  9  5  1  0
 10  2  1  0
 11 12  2  0
 11 10  1  0
 13 12  1  0
 14 13  2  0
 15 14  1  0
 15 16  2  0
 16 11  1  0
 18 23  1  0
 18 19  2  0
 19 20  1  0
 20 21  2  0
 22 17  1  0
 22 21  1  0
 23 22  2  0
 24 18  1  0
 24 30  1  0
 25 24  1  0
 26 25  2  0
 26 27  1  0
 27 29  1  0
 28 27  2  0
 29 30  1  0
 30 31  2  0
  1 32  1  0
  1 33  1  0
  2 34  1  0
  4 35  1  0
  6 36  1  0
  7 37  1  0
 12 38  1  0
 13 39  1  0
 14 40  1  0
 15 41  1  0
 16 42  1  0
 17 43  1  0
 17 44  1  0
 19 45  1  0
 20 46  1  0
 25 47  1  0
 26 48  1  0
 29 49  1  0
M  END
>  <Score>  (1) 
-7.34669

>  <Score_dual>  (1) 
-7.5

>  <Choices>  (1) 
[None, 6, ['37-16', 135], 19, ['4-9', 270], 25, ['34-15', 255], 38, ['1-24', 210]]

$$$$
