
     RDKit          3D

 48 52  0  0  0  0  0  0  0  0999 V2000
   43.6270   83.6160   62.8590 C   0  0  0  0  0  0  0  0  0  0  0  0
   42.7650   80.9940   62.0810 F   0  0  0  0  0  0  0  0  0  0  0  0
   44.0470   81.1430   62.5010 C   0  0  0  0  0  0  0  0  0  0  0  0
   44.3810   82.3960   62.8610 C   0  0  0  0  0  0  0  0  0  0  0  0
   45.6790   82.5640   63.3100 C   0  0  0  0  0  0  0  0  0  0  0  0
   46.5870   81.5160   63.3910 C   0  0  0  0  0  0  0  0  0  0  0  0
   46.1980   80.2320   63.0050 C   0  0  0  0  0  0  0  0  0  0  0  0
   44.8890   80.0590   62.5510 C   0  0  0  0  0  0  0  0  0  0  0  0
   44.3900   78.7510   62.1250 C   0  0  0  0  0  0  0  0  0  0  0  0
   43.6960   78.6710   60.9330 C   0  0  0  0  0  0  0  0  0  0  0  0
   43.2020   77.4740   60.4750 C   0  0  0  0  0  0  0  0  0  0  0  0
   43.4250   76.3420   61.2580 C   0  0  0  0  0  0  0  0  0  0  0  0
   42.9490   75.1810   60.8190 N   0  0  0  0  0  0  0  0  0  0  0  0
   43.1550   74.0610   61.5670 C   0  0  0  0  0  0  0  0  0  0  0  0
   43.8380   74.1140   62.7500 C   0  0  0  0  0  0  0  0  0  0  0  0
   44.3530   75.3040   63.2450 C   0  0  0  0  0  0  0  0  0  0  0  0
   44.1160   76.4210   62.4430 C   0  0  0  0  0  0  0  0  0  0  0  0
   44.6170   77.6190   62.9130 C   0  0  0  0  0  0  0  0  0  0  0  0
   42.2700   83.6310   63.4600 C   0  0  0  0  0  0  0  0  0  0  0  0
   38.8780   83.7840   61.9330 C   0  0  0  0  0  0  0  0  0  0  0  0
   39.8990   83.5880   62.8910 C   0  0  0  0  0  0  0  0  0  0  0  0
   41.1760   83.8370   62.4690 C   0  0  0  0  0  0  0  0  0  0  0  0
   41.4200   84.2460   61.1990 N   0  0  0  0  0  0  0  0  0  0  0  0
   40.4480   84.4240   60.3110 C   0  0  0  0  0  0  0  0  0  0  0  0
   39.1480   84.1900   60.6770 N   0  0  0  0  0  0  0  0  0  0  0  0
   40.8080   84.8590   58.9810 C   0  0  0  0  0  0  0  0  0  0  0  0
   41.6520   84.0640   58.1770 C   0  0  0  0  0  0  0  0  0  0  0  0
   41.8260   84.7250   56.9540 C   0  0  0  0  0  0  0  0  0  0  0  0
   41.1190   85.8480   57.0410 N   0  0  0  0  0  0  0  0  0  0  0  0
   40.5120   85.9450   58.2290 N   0  0  0  0  0  0  0  0  0  0  0  0
   44.2256   84.3644   63.3990 H   0  0  0  0  0  0  0  0  0  0  0  0
   43.4418   83.8066   61.7916 H   0  0  0  0  0  0  0  0  0  0  0  0
   46.0053   83.5691   63.6154 H   0  0  0  0  0  0  0  0  0  0  0  0
   47.6082   81.6970   63.7577 H   0  0  0  0  0  0  0  0  0  0  0  0
   46.8987   79.3856   63.0568 H   0  0  0  0  0  0  0  0  0  0  0  0
   43.5360   79.5832   60.3395 H   0  0  0  0  0  0  0  0  0  0  0  0
   42.6506   77.4107   59.5253 H   0  0  0  0  0  0  0  0  0  0  0  0
   42.7643   73.0958   61.2123 H   0  0  0  0  0  0  0  0  0  0  0  0
   43.9834   73.1879   63.3255 H   0  0  0  0  0  0  0  0  0  0  0  0
   44.9046   75.3620   64.1949 H   0  0  0  0  0  0  0  0  0  0  0  0
   45.1687   77.6796   63.8627 H   0  0  0  0  0  0  0  0  0  0  0  0
   42.1037   82.6681   63.9652 H   0  0  0  0  0  0  0  0  0  0  0  0
   42.2369   84.4824   64.1557 H   0  0  0  0  0  0  0  0  0  0  0  0
   37.8326   83.5997   62.2215 H   0  0  0  0  0  0  0  0  0  0  0  0
   39.6793   83.2547   63.9160 H   0  0  0  0  0  0  0  0  0  0  0  0
   42.0945   83.0975   58.4600 H   0  0  0  0  0  0  0  0  0  0  0  0
   42.4252   84.3845   56.0967 H   0  0  0  0  0  0  0  0  0  0  0  0
   41.0481   86.5511   56.2916 H   0  0  0  0  0  0  0  0  0  0  0  0
  1  4  1  0
  1 19  1  0
  2  3  1  0
  3  8  2  0
  3  4  1  0
  4  5  2  0
  5  6  1  0
  7  6  2  0
  8  7  1  0
  9  8  1  0
  9 18  1  0
 10  9  2  0
 11 10  1  0
 11 12  2  0
 12 17  1  0
 13 12  1  0
 13 14  2  0
 14 15  1  0
 15 16  2  0
 17 18  2  0
 17 16  1  0
 20 21  2  0
 22 21  1  0
 22 19  1  0
 23 22  2  0
 24 25  2  0
 24 23  1  0
 25 20  1  0
 26 24  1  0
 27 26  1  0
 28 29  1  0
 28 27  2  0
 29 30  1  0
 30 26  2  0
  1 31  1  0
  1 32  1  0
  5 33  1  0
  6 34  1  0
  7 35  1  0
 10 36  1  0
 11 37  1  0
 14 38  1  0
 15 39  1  0
 16 40  1  0
 18 41  1  0
 19 42  1  0
 19 43  1  0
 20 44  1  0
 21 45  1  0
 27 46  1  0
 28 47  1  0
 29 48  1  0
M  END
>  <Score>  (1) 
-7.04638

>  <Score_dual>  (1) 
-7.77

>  <Choices>  (1) 
[None, 9, ['22-8', 330], 13, ['4-8', 210], 22, ['9-14', 150], 32, ['36-26', 60]]

$$$$
