
     RDKit          3D

 43 47  0  0  0  0  0  0  0  0999 V2000
   38.8650   78.0760   58.2020 Cl  0  0  0  0  0  0  0  0  0  0  0  0
   40.0650   77.3860   59.2480 C   0  0  0  0  0  0  0  0  0  0  0  0
   40.8930   78.2020   59.9560 C   0  0  0  0  0  0  0  0  0  0  0  0
   41.8310   77.5620   60.7820 C   0  0  0  0  0  0  0  0  0  0  0  0
   41.9130   76.2000   60.8760 C   0  0  0  0  0  0  0  0  0  0  0  0
   41.0590   75.3990   60.1440 C   0  0  0  0  0  0  0  0  0  0  0  0
   40.1180   76.0010   59.3160 C   0  0  0  0  0  0  0  0  0  0  0  0
   40.7400   73.2330   59.0100 C   0  0  0  0  0  0  0  0  0  0  0  0
   41.0550   73.9190   60.1730 C   0  0  0  0  0  0  0  0  0  0  0  0
   41.3490   73.1410   61.2890 C   0  0  0  0  0  0  0  0  0  0  0  0
   41.3080   71.7700   61.1730 C   0  0  0  0  0  0  0  0  0  0  0  0
   41.5450   70.7970   62.0860 N   0  0  0  0  0  0  0  0  0  0  0  0
   41.3940   69.5960   61.5550 N   0  0  0  0  0  0  0  0  0  0  0  0
   41.0530   69.7270   60.2730 C   0  0  0  0  0  0  0  0  0  0  0  0
   40.9970   71.1040   60.0260 C   0  0  0  0  0  0  0  0  0  0  0  0
   40.7040   71.8560   58.9120 C   0  0  0  0  0  0  0  0  0  0  0  0
   40.2030   81.6280   58.5840 C   0  0  0  0  0  0  0  0  0  0  0  0
   40.3470   80.2430   58.6770 C   0  0  0  0  0  0  0  0  0  0  0  0
   40.7710   79.6370   59.8550 C   0  0  0  0  0  0  0  0  0  0  0  0
   41.0420   80.4460   60.9120 N   0  0  0  0  0  0  0  0  0  0  0  0
   40.9060   81.7780   60.8260 C   0  0  0  0  0  0  0  0  0  0  0  0
   40.4900   82.3860   59.6780 N   0  0  0  0  0  0  0  0  0  0  0  0
   43.5640   82.5100   61.5450 F   0  0  0  0  0  0  0  0  0  0  0  0
   42.5370   82.9250   62.3200 C   0  0  0  0  0  0  0  0  0  0  0  0
   41.2070   82.5840   62.0010 C   0  0  0  0  0  0  0  0  0  0  0  0
   40.2100   83.0380   62.8320 C   0  0  0  0  0  0  0  0  0  0  0  0
   40.4320   83.8150   63.9750 C   0  0  0  0  0  0  0  0  0  0  0  0
   41.7380   84.1560   64.2990 C   0  0  0  0  0  0  0  0  0  0  0  0
   42.6820   83.6760   63.4350 C   0  0  0  0  0  0  0  0  0  0  0  0
   42.5241   78.1776   61.3742 H   0  0  0  0  0  0  0  0  0  0  0  0
   42.6624   75.7408   61.5375 H   0  0  0  0  0  0  0  0  0  0  0  0
   39.4245   75.3872   58.7225 H   0  0  0  0  0  0  0  0  0  0  0  0
   40.5045   73.8213   58.1109 H   0  0  0  0  0  0  0  0  0  0  0  0
   41.6097   73.6137   62.2474 H   0  0  0  0  0  0  0  0  0  0  0  0
   41.8086   70.9708   63.0664 H   0  0  0  0  0  0  0  0  0  0  0  0
   40.8556   68.9175   59.5549 H   0  0  0  0  0  0  0  0  0  0  0  0
   40.4456   71.3691   57.9601 H   0  0  0  0  0  0  0  0  0  0  0  0
   39.8652   82.0967   57.6479 H   0  0  0  0  0  0  0  0  0  0  0  0
   40.1205   79.6178   57.8008 H   0  0  0  0  0  0  0  0  0  0  0  0
   39.1717   82.7738   62.5827 H   0  0  0  0  0  0  0  0  0  0  0  0
   39.5913   84.1475   64.6017 H   0  0  0  0  0  0  0  0  0  0  0  0
   41.9926   84.7635   65.1800 H   0  0  0  0  0  0  0  0  0  0  0  0
   43.7197   83.9416   63.6853 H   0  0  0  0  0  0  0  0  0  0  0  0
  1  2  1  0
  2  7  2  0
  2  3  1  0
  3  4  2  0
  4  5  1  0
  6  9  1  0
  6  5  2  0
  7  6  1  0
  8  9  2  0
  9 10  1  0
 11 10  2  0
 11 12  1  0
 13 12  1  0
 14 13  2  0
 15 14  1  0
 15 11  1  0
 16  8  1  0
 16 15  2  0
 17 18  2  0
 17 22  1  0
 18 19  1  0
 19  3  1  0
 19 20  2  0
 21 20  1  0
 21 25  1  0
 22 21  2  0
 23 24  1  0
 24 29  2  0
 25 24  1  0
 25 26  2  0
 26 27  1  0
 27 28  2  0
 29 28  1  0
  4 30  1  0
  5 31  1  0
  7 32  1  0
  8 33  1  0
 10 34  1  0
 12 35  1  0
 14 36  1  0
 16 37  1  0
 17 38  1  0
 18 39  1  0
 26 40  1  0
 27 41  1  0
 28 42  1  0
 29 43  1  0
M  END
>  <Score>  (1) 
-7.25784

>  <Score_dual>  (1) 
-8.77

>  <Choices>  (1) 
[None, 8, ['7-18', 120], 18, ['54-9', 240], 32, ['9-19', 270]]

$$$$
