
     RDKit          3D

 36 39  0  0  0  0  0  0  0  0999 V2000
   40.5190   79.9980   60.8860 C   0  0  0  0  0  0  0  0  0  0  0  0
   40.5520   78.7640   61.5250 C   0  0  0  0  0  0  0  0  0  0  0  0
   40.2520   77.6240   60.7960 C   0  0  0  0  0  0  0  0  0  0  0  0
   39.9410   77.7590   59.5020 N   0  0  0  0  0  0  0  0  0  0  0  0
   39.9070   78.9480   58.8840 C   0  0  0  0  0  0  0  0  0  0  0  0
   40.1980   80.0370   59.5930 N   0  0  0  0  0  0  0  0  0  0  0  0
   39.5890   79.3170   57.4900 C   0  0  0  0  0  0  0  0  0  0  0  0
   40.2220   80.2880   56.7800 N   0  0  0  0  0  0  0  0  0  0  0  0
   39.9590   80.6380   55.5430 C   0  0  0  0  0  0  0  0  0  0  0  0
   38.9790   80.0170   54.8520 N   0  0  0  0  0  0  0  0  0  0  0  0
   38.2590   79.0220   55.4440 C   0  0  0  0  0  0  0  0  0  0  0  0
   37.2630   78.3940   54.7400 C   0  0  0  0  0  0  0  0  0  0  0  0
   36.5270   77.3950   55.3140 C   0  0  0  0  0  0  0  0  0  0  0  0
   36.8410   77.0580   56.6280 C   0  0  0  0  0  0  0  0  0  0  0  0
   37.8480   77.7170   57.2880 C   0  0  0  0  0  0  0  0  0  0  0  0
   38.6050   78.7240   56.7390 C   0  0  0  0  0  0  0  0  0  0  0  0
   40.8380   81.2040   61.6410 C   0  0  0  0  0  0  0  0  0  0  0  0
   42.1670   81.3920   62.0070 C   0  0  0  0  0  0  0  0  0  0  0  0
   42.4270   82.5560   62.7250 C   0  0  0  0  0  0  0  0  0  0  0  0
   41.3560   83.3970   62.9980 C   0  0  0  0  0  0  0  0  0  0  0  0
   40.0770   83.1720   62.6210 C   0  0  0  0  0  0  0  0  0  0  0  0
   39.8350   82.0520   61.9320 N   0  0  0  0  0  0  0  0  0  0  0  0
   41.7690   84.6130   63.7730 C   0  0  0  0  0  0  0  0  0  0  0  0
   40.6780   85.3450   64.2060 F   0  0  0  0  0  0  0  0  0  0  0  0
   42.6130   85.4140   63.0150 F   0  0  0  0  0  0  0  0  0  0  0  0
   42.4500   84.1750   64.8740 F   0  0  0  0  0  0  0  0  0  0  0  0
   40.8119   78.6934   62.5915 H   0  0  0  0  0  0  0  0  0  0  0  0
   40.2692   76.6317   61.2703 H   0  0  0  0  0  0  0  0  0  0  0  0
   40.5398   81.4414   55.0664 H   0  0  0  0  0  0  0  0  0  0  0  0
   37.0545   78.6972   53.7034 H   0  0  0  0  0  0  0  0  0  0  0  0
   35.7247   76.8817   54.7637 H   0  0  0  0  0  0  0  0  0  0  0  0
   36.2803   76.2612   57.1387 H   0  0  0  0  0  0  0  0  0  0  0  0
   38.0633   77.4194   58.3249 H   0  0  0  0  0  0  0  0  0  0  0  0
   42.9567   80.6716   61.7473 H   0  0  0  0  0  0  0  0  0  0  0  0
   43.4444   82.8009   63.0640 H   0  0  0  0  0  0  0  0  0  0  0  0
   39.2717   83.8788   62.8700 H   0  0  0  0  0  0  0  0  0  0  0  0
  1  2  2  0
  1 17  1  0
  3  2  1  0
  4  3  2  0
  5  4  1  0
  5  6  2  0
  6  1  1  0
  7  5  1  0
  8  7  2  0
  9  8  1  0
 10 11  1  0
 10  9  2  0
 11 16  2  0
 12 13  2  0
 12 11  1  0
 13 14  1  0
 14 15  2  0
 16 15  1  0
 16  7  1  0
 17 22  1  0
 17 18  2  0
 18 19  1  0
 19 20  2  0
 20 23  1  0
 21 20  1  0
 22 21  2  0
 23 24  1  0
 23 26  1  0
 25 23  1  0
  2 27  1  0
  3 28  1  0
  9 29  1  0
 12 30  1  0
 13 31  1  0
 14 32  1  0
 15 33  1  0
 18 34  1  0
 19 35  1  0
 21 36  1  0
M  END
>  <Score>  (1) 
-7.15833

>  <Score_dual>  (1) 
-7.07

>  <Choices>  (1) 
[None, 6, ['6-18', 60], 17, ['11-13', 75], 21, ['47-19', 0]]

$$$$
