
     RDKit          3D

 56 60  0  0  1  0  0  0  0  0999 V2000
   39.6220   78.6420   60.9840 F   0  0  0  0  0  0  0  0  0  0  0  0
   40.9590   78.5320   61.2580 C   0  0  0  0  0  0  0  0  0  0  0  0
   41.5370   77.3310   61.0670 C   0  0  0  0  0  0  0  0  0  0  0  0
   42.8970   77.2600   61.3670 C   0  0  0  0  0  0  0  0  0  0  0  0
   43.5790   78.3500   61.8250 C   0  0  0  0  0  0  0  0  0  0  0  0
   42.9550   79.5800   62.0170 C   0  0  0  0  0  0  0  0  0  0  0  0
   41.6340   79.6600   61.7270 C   0  0  0  0  0  0  0  0  0  0  0  0
   41.9560   82.1550   61.9250 C   0  0  2  0  0  0  0  0  0  0  0  0
   40.9420   80.9620   61.8660 C   0  0  1  0  0  0  0  0  0  0  0  0
   40.0320   81.1750   60.9620 O   0  0  0  0  0  0  0  0  0  0  0  0
   39.7300   82.5010   60.6490 C   0  0  0  0  0  0  0  0  0  0  0  0
   39.8350   83.4180   61.8140 C   0  0  1  0  0  0  0  0  0  0  0  0
   41.1620   83.2680   62.5970 C   0  0  1  0  0  0  0  0  0  0  0  0
   42.3330   82.4250   60.6840 O   0  0  0  0  0  0  0  0  0  0  0  0
   39.8140   84.7290   61.3330 O   0  0  0  0  0  0  0  0  0  0  0  0
   40.6910   82.7830   63.8650 O   0  0  0  0  0  0  0  0  0  0  0  0
   40.4570   83.8280   64.7070 C   0  0  0  0  0  0  0  0  0  0  0  0
   38.6080   75.0520   60.3590 C   0  0  0  0  0  0  0  0  0  0  0  0
   39.3560   76.1530   60.7770 C   0  0  0  0  0  0  0  0  0  0  0  0
   40.7550   76.1950   60.6290 C   0  0  0  0  0  0  0  0  0  0  0  0
   41.2960   75.1200   60.0680 N   0  0  0  0  0  0  0  0  0  0  0  0
   40.5990   74.0550   59.6580 C   0  0  0  0  0  0  0  0  0  0  0  0
   39.2670   74.0240   59.8040 N   0  0  0  0  0  0  0  0  0  0  0  0
   41.4820   73.0390   59.0770 C   0  0  0  0  0  0  0  0  0  0  0  0
   42.0130   73.1550   57.8150 C   0  0  0  0  0  0  0  0  0  0  0  0
   42.8440   72.2390   57.2210 C   0  0  0  0  0  0  0  0  0  0  0  0
   43.2030   71.0990   57.9010 C   0  0  0  0  0  0  0  0  0  0  0  0
   42.7060   70.9190   59.1710 C   0  0  0  0  0  0  0  0  0  0  0  0
   43.0690   69.7770   59.8510 C   0  0  0  0  0  0  0  0  0  0  0  0
   42.6120   69.5320   61.1280 C   0  0  0  0  0  0  0  0  0  0  0  0
   41.7700   70.4980   61.6830 C   0  0  0  0  0  0  0  0  0  0  0  0
   41.4380   71.6210   60.9640 C   0  0  0  0  0  0  0  0  0  0  0  0
   41.8830   71.8790   59.6930 C   0  0  0  0  0  0  0  0  0  0  0  0
   43.4303   76.3074   61.2320 H   0  0  0  0  0  0  0  0  0  0  0  0
   44.6517   78.2541   62.0487 H   0  0  0  0  0  0  0  0  0  0  0  0
   43.5125   80.4521   62.3894 H   0  0  0  0  0  0  0  0  0  0  0  0
   42.8849   81.9732   62.4855 H   0  0  0  0  0  0  0  0  0  0  0  0
   40.4114   80.9030   62.8278 H   0  0  0  0  0  0  0  0  0  0  0  0
   40.4277   82.8438   59.8707 H   0  0  0  0  0  0  0  0  0  0  0  0
   38.6845   82.5255   60.3079 H   0  0  0  0  0  0  0  0  0  0  0  0
   39.0001   83.1747   62.4876 H   0  0  0  0  0  0  0  0  0  0  0  0
   41.7817   84.1748   62.6572 H   0  0  0  0  0  0  0  0  0  0  0  0
   43.1377   83.0013   60.7016 H   0  0  0  0  0  0  0  0  0  0  0  0
   39.8039   85.3602   62.0956 H   0  0  0  0  0  0  0  0  0  0  0  0
   40.5341   83.4837   65.7489 H   0  0  0  0  0  0  0  0  0  0  0  0
   41.2004   84.6183   64.5260 H   0  0  0  0  0  0  0  0  0  0  0  0
   39.4475   84.2258   64.5260 H   0  0  0  0  0  0  0  0  0  0  0  0
   37.5150   75.0278   60.4805 H   0  0  0  0  0  0  0  0  0  0  0  0
   38.8393   77.0099   61.2338 H   0  0  0  0  0  0  0  0  0  0  0  0
   41.7513   74.0526   57.2355 H   0  0  0  0  0  0  0  0  0  0  0  0
   43.2221   72.4161   56.2033 H   0  0  0  0  0  0  0  0  0  0  0  0
   43.8684   70.3526   57.4427 H   0  0  0  0  0  0  0  0  0  0  0  0
   43.7351   69.0481   59.3663 H   0  0  0  0  0  0  0  0  0  0  0  0
   42.8954   68.6240   61.6805 H   0  0  0  0  0  0  0  0  0  0  0  0
   41.3713   70.3595   62.6988 H   0  0  0  0  0  0  0  0  0  0  0  0
   40.7738   72.3590   61.4376 H   0  0  0  0  0  0  0  0  0  0  0  0
  1  2  1  0
  2  7  2  0
  3  2  1  0
  3  4  2  0
  4  5  1  0
  5  6  2  0
  7  9  1  0
  7  6  1  0
  8 13  1  0
  9  8  1  0
 10  9  1  0
 11 10  1  0
 11 12  1  0
 12 13  1  0
 13 16  1  0
 14  8  1  0
 15 12  1  0
 16 17  1  0
 18 19  2  0
 20 19  1  0
 20  3  1  0
 21 20  2  0
 22 23  2  0
 22 21  1  0
 23 18  1  0
 24 22  1  0
 24 33  1  0
 25 24  2  0
 26 25  1  0
 26 27  2  0
 27 28  1  0
 28 33  2  0
 28 29  1  0
 29 30  2  0
 30 31  1  0
 32 31  2  0
 33 32  1  0
  4 34  1  0
  5 35  1  0
  6 36  1  0
  8 37  1  1
  9 38  1  1
 11 39  1  0
 11 40  1  0
 12 41  1  1
 13 42  1  1
 14 43  1  0
 15 44  1  0
 17 45  1  0
 17 46  1  0
 17 47  1  0
 18 48  1  0
 19 49  1  0
 25 50  1  0
 26 51  1  0
 27 52  1  0
 29 53  1  0
 30 54  1  0
 31 55  1  0
 32 56  1  0
M  END
>  <Score>  (1) 
-7.42082

>  <Score_dual>  (1) 
-8.28

>  <Choices>  (1) 
[None, 8, ['9-19', 105], 19, ['21-23', 315], 36, ['3-3', 0], 39, ['26-26', 270]]

$$$$
