
 OpenBabel03272514383D

 34 39  0  0  0  0  0  0  0  0999 V2000
   24.9410   33.9430   45.5430 C   0  0  0  0  0  3  0  0  0  0  0  0
   24.8970   34.2850   44.1780 C   0  0  0  0  0  3  0  0  0  0  0  0
   25.7030   33.5210   43.3180 C   0  0  0  0  0  3  0  0  0  0  0  0
   26.4720   32.5150   43.8110 N   0  0  0  0  0  0  0  0  0  0  0  0
   26.4790   32.2270   45.1280 C   0  0  0  0  0  0  0  0  0  0  0  0
   25.7160   32.9390   45.9830 N   0  0  0  0  0  0  0  0  0  0  0  0
   27.2620   31.1880   45.7010 N   0  0  0  0  0  0  0  0  0  0  0  0
   26.7190   30.2820   46.5310 C   0  0  0  0  0  3  0  0  0  0  0  0
   27.7160   29.4280   46.9040 N   0  0  0  0  0  0  0  0  0  0  0  0
   28.8600   29.7910   46.3170 C   0  0  0  0  0  0  0  0  0  0  0  0
   30.1920   29.3710   46.2740 C   0  0  0  0  0  0  0  0  0  0  0  0
   30.4540   28.3510   46.9710 O   0  0  0  0  0  0  0  0  0  0  0  0
   31.1060   30.0430   45.5170 N   0  0  0  0  0  0  0  0  0  0  0  0
   30.7690   31.1050   44.8070 C   0  0  0  0  0  0  0  0  0  0  0  0
   31.8590   31.6750   44.0800 N   0  0  0  0  0  0  0  0  0  0  0  0
   29.4910   31.5430   44.8240 N   0  0  0  0  0  0  0  0  0  0  0  0
   28.5800   30.9130   45.5480 C   0  0  0  0  0  0  0  0  0  0  0  0
   31.7080   32.5070   43.4930 H   0  0  0  0  0  0  0  0  0  0  0  0
   32.7970   31.2520   44.1430 H   0  0  0  0  0  0  0  0  0  0  0  0
   32.4890   29.5680   45.5010 C   0  0  0  0  0  0  0  0  0  0  0  0
   32.9020   28.4870   44.7200 C   0  0  0  0  0  3  0  0  0  0  0  0
   34.6990   28.3820   45.1200 S   0  0  0  0  0  0  0  0  0  0  0  0
   34.5850   29.8450   46.2970 C   0  0  0  0  0  0  0  0  0  0  0  0
   33.4920   30.0620   46.1800 N   0  0  0  0  0  0  0  0  0  0  0  0
   35.8560   30.1980   46.9320 C   0  0  0  0  0  0  0  0  0  0  0  0
   36.9200   30.7680   46.2730 C   0  0  0  0  0  3  0  0  0  0  0  0
   38.1170   31.0960   46.8910 C   0  0  0  0  0  3  0  0  0  0  0  0
   38.2300   30.8310   48.2390 C   0  0  0  0  0  3  0  0  0  0  0  0
   37.2130   30.2690   48.9430 C   0  0  0  0  0  0  0  0  0  0  0  0
   37.3840   30.0280   50.2870 C   0  0  0  0  0  3  0  0  0  0  0  0
   36.3370   29.4520   51.0050 C   0  0  0  0  0  3  0  0  0  0  0  0
   35.1650   29.1510   50.3120 C   0  0  0  0  0  3  0  0  0  0  0  0
   35.0240   29.4050   48.9650 C   0  0  0  0  0  3  0  0  0  0  0  0
   36.0510   29.9680   48.2710 C   0  0  0  0  0  0  0  0  0  0  0  0
  1  6  1  0  0  0  0
  2  1  2  0  0  0  0
  3  4  2  0  0  0  0
  3  2  1  0  0  0  0
  4  5  1  0  0  0  0
  5  7  1  0  0  0  0
  5  6  2  0  0  0  0
  7  8  1  0  0  0  0
  8  9  2  0  0  0  0
 10  9  1  0  0  0  0
 11 10  1  0  0  0  0
 11 12  2  0  0  0  0
 13 11  1  0  0  0  0
 14 16  2  0  0  0  0
 14 13  1  0  0  0  0
 15 19  1  0  0  0  0
 15 14  1  0  0  0  0
 16 17  1  0  0  0  0
 17  7  1  0  0  0  0
 17 10  2  0  0  0  0
 18 15  1  0  0  0  0
 20 13  1  0  0  0  0
 20 24  1  0  0  0  0
 21 22  1  0  0  0  0
 21 20  2  0  0  0  0
 22 23  1  0  0  0  0
 23 25  1  0  0  0  0
 24 23  2  0  0  0  0
 25 34  1  0  0  0  0
 26 27  1  0  0  0  0
 26 25  2  0  0  0  0
 27 28  2  0  0  0  0
 28 29  1  0  0  0  0
 29 30  1  0  0  0  0
 30 31  2  0  0  0  0
 32 31  1  0  0  0  0
 33 32  2  0  0  0  0
 34 29  2  0  0  0  0
 34 33  1  0  0  0  0
M  END
>  <minimizedAffinity>
-7.94061279

$$$$

 OpenBabel03272514383D

 34 39  0  0  0  0  0  0  0  0999 V2000
   25.6630   33.1920   44.0790 C   0  0  0  0  0  3  0  0  0  0  0  0
   26.0230   33.1470   42.7180 C   0  0  0  0  0  3  0  0  0  0  0  0
   26.9020   32.1190   42.3400 C   0  0  0  0  0  3  0  0  0  0  0  0
   27.3600   31.2330   43.2630 N   0  0  0  0  0  0  0  0  0  0  0  0
   26.9840   31.3190   44.5550 C   0  0  0  0  0  0  0  0  0  0  0  0
   26.1410   32.2930   44.9530 N   0  0  0  0  0  0  0  0  0  0  0  0
   27.4300   30.4220   45.5640 N   0  0  0  0  0  0  0  0  0  0  0  0
   26.5640   29.8230   46.3970 C   0  0  0  0  0  3  0  0  0  0  0  0
   27.2940   29.0330   47.2370 N   0  0  0  0  0  0  0  0  0  0  0  0
   28.5910   29.1350   46.9350 C   0  0  0  0  0  0  0  0  0  0  0  0
   29.8120   28.6210   47.3800 C   0  0  0  0  0  0  0  0  0  0  0  0
   29.7310   27.8160   48.3500 O   0  0  0  0  0  0  0  0  0  0  0  0
   30.9790   28.9890   46.7800 N   0  0  0  0  0  0  0  0  0  0  0  0
   30.9970   29.8370   45.7660 C   0  0  0  0  0  0  0  0  0  0  0  0
   32.3100   30.1020   45.2680 N   0  0  0  0  0  0  0  0  0  0  0  0
   29.8370   30.3560   45.3070 N   0  0  0  0  0  0  0  0  0  0  0  0
   28.6880   30.0190   45.8690 C   0  0  0  0  0  0  0  0  0  0  0  0
   32.4400   30.7500   44.4780 H   0  0  0  0  0  0  0  0  0  0  0  0
   33.1270   29.6450   45.6990 H   0  0  0  0  0  0  0  0  0  0  0  0
   32.2340   28.4270   47.2780 C   0  0  0  0  0  0  0  0  0  0  0  0
   32.6110   27.1050   47.0370 C   0  0  0  0  0  3  0  0  0  0  0  0
   34.2390   27.0030   47.8960 S   0  0  0  0  0  0  0  0  0  0  0  0
   34.1310   28.7990   48.4440 C   0  0  0  0  0  0  0  0  0  0  0  0
   33.1410   29.0490   47.9860 N   0  0  0  0  0  0  0  0  0  0  0  0
   35.2820   29.2520   49.2280 C   0  0  0  0  0  0  0  0  0  0  0  0
   35.4410   29.0250   50.5750 C   0  0  0  0  0  3  0  0  0  0  0  0
   36.5380   29.4610   51.3020 C   0  0  0  0  0  3  0  0  0  0  0  0
   37.5140   30.1580   50.6220 C   0  0  0  0  0  3  0  0  0  0  0  0
   37.4130   30.4130   49.2910 C   0  0  0  0  0  0  0  0  0  0  0  0
   38.4190   31.1120   48.6670 C   0  0  0  0  0  3  0  0  0  0  0  0
   38.3120   31.3710   47.3010 C   0  0  0  0  0  3  0  0  0  0  0  0
   37.1780   30.8990   46.6410 C   0  0  0  0  0  3  0  0  0  0  0  0
   36.1860   30.2000   47.2950 C   0  0  0  0  0  3  0  0  0  0  0  0
   36.2990   29.9520   48.6290 C   0  0  0  0  0  0  0  0  0  0  0  0
  1  6  1  0  0  0  0
  2  1  2  0  0  0  0
  3  2  1  0  0  0  0
  3  4  2  0  0  0  0
  4  5  1  0  0  0  0
  5  6  2  0  0  0  0
  5  7  1  0  0  0  0
  7 17  1  0  0  0  0
  7  8  1  0  0  0  0
  8  9  2  0  0  0  0
 10  9  1  0  0  0  0
 10 11  1  0  0  0  0
 11 12  2  0  0  0  0
 13 20  1  0  0  0  0
 13 11  1  0  0  0  0
 14 13  1  0  0  0  0
 15 19  1  0  0  0  0
 15 14  1  0  0  0  0
 16 14  2  0  0  0  0
 16 17  1  0  0  0  0
 17 10  2  0  0  0  0
 18 15  1  0  0  0  0
 20 24  1  0  0  0  0
 21 20  2  0  0  0  0
 21 22  1  0  0  0  0
 22 23  1  0  0  0  0
 23 25  1  0  0  0  0
 24 23  2  0  0  0  0
 25 26  1  0  0  0  0
 26 27  2  0  0  0  0
 28 27  1  0  0  0  0
 29 28  2  0  0  0  0
 30 29  1  0  0  0  0
 31 30  2  0  0  0  0
 32 33  2  0  0  0  0
 32 31  1  0  0  0  0
 33 34  1  0  0  0  0
 34 25  2  0  0  0  0
 34 29  1  0  0  0  0
M  END
>  <minimizedAffinity>
-7.83454561

$$$$

 OpenBabel03272514383D

 34 39  0  0  0  0  0  0  0  0999 V2000
   25.4070   31.6580   42.5770 C   0  0  0  0  0  3  0  0  0  0  0  0
   25.6230   30.9960   41.3520 C   0  0  0  0  0  3  0  0  0  0  0  0
   26.4480   29.8610   41.3960 C   0  0  0  0  0  3  0  0  0  0  0  0
   26.9910   29.4510   42.5720 N   0  0  0  0  0  0  0  0  0  0  0  0
   26.7520   30.1190   43.7190 C   0  0  0  0  0  0  0  0  0  0  0  0
   25.9640   31.2140   43.7140 N   0  0  0  0  0  0  0  0  0  0  0  0
   27.2920   29.7390   44.9770 N   0  0  0  0  0  0  0  0  0  0  0  0
   26.5110   29.6180   46.0630 C   0  0  0  0  0  3  0  0  0  0  0  0
   27.3170   29.2430   47.0990 N   0  0  0  0  0  0  0  0  0  0  0  0
   28.5760   29.1290   46.6690 C   0  0  0  0  0  0  0  0  0  0  0  0
   29.8320   28.8000   47.1860 C   0  0  0  0  0  0  0  0  0  0  0  0
   29.8450   28.5120   48.4160 O   0  0  0  0  0  0  0  0  0  0  0  0
   30.9340   28.7990   46.3840 N   0  0  0  0  0  0  0  0  0  0  0  0
   30.8550   29.1090   45.1010 C   0  0  0  0  0  0  0  0  0  0  0  0
   32.1110   29.0540   44.4230 N   0  0  0  0  0  0  0  0  0  0  0  0
   29.6580   29.4340   44.5640 N   0  0  0  0  0  0  0  0  0  0  0  0
   28.5710   29.4440   45.3170 C   0  0  0  0  0  0  0  0  0  0  0  0
   32.1650   29.2770   43.4190 H   0  0  0  0  0  0  0  0  0  0  0  0
   32.9640   28.7910   44.9390 H   0  0  0  0  0  0  0  0  0  0  0  0
   32.2280   28.4480   46.9670 C   0  0  0  0  0  0  0  0  0  0  0  0
   32.4990   27.1790   47.4810 C   0  0  0  0  0  3  0  0  0  0  0  0
   34.2430   27.3560   48.0530 S   0  0  0  0  0  0  0  0  0  0  0  0
   34.3100   29.1490   47.4890 C   0  0  0  0  0  0  0  0  0  0  0  0
   33.2690   29.2310   47.0870 N   0  0  0  0  0  0  0  0  0  0  0  0
   35.5960   29.8030   47.7390 C   0  0  0  0  0  0  0  0  0  0  0  0
   36.3730   30.3850   46.7650 C   0  0  0  0  0  3  0  0  0  0  0  0
   37.5890   31.0010   47.0190 C   0  0  0  0  0  3  0  0  0  0  0  0
   38.0290   31.0230   48.3260 C   0  0  0  0  0  3  0  0  0  0  0  0
   37.3050   30.4650   49.3320 C   0  0  0  0  0  0  0  0  0  0  0  0
   37.7940   30.5190   50.6160 C   0  0  0  0  0  3  0  0  0  0  0  0
   37.0480   29.9450   51.6450 C   0  0  0  0  0  3  0  0  0  0  0  0
   35.8350   29.3450   51.3070 C   0  0  0  0  0  3  0  0  0  0  0  0
   35.3710   29.3080   50.0100 C   0  0  0  0  0  3  0  0  0  0  0  0
   36.1070   29.8690   49.0120 C   0  0  0  0  0  0  0  0  0  0  0  0
  1  6  1  0  0  0  0
  2  3  1  0  0  0  0
  2  1  2  0  0  0  0
  3  4  2  0  0  0  0
  4  5  1  0  0  0  0
  5  7  1  0  0  0  0
  6  5  2  0  0  0  0
  7 17  1  0  0  0  0
  7  8  1  0  0  0  0
  8  9  2  0  0  0  0
 10  9  1  0  0  0  0
 10 11  1  0  0  0  0
 11 12  2  0  0  0  0
 13 20  1  0  0  0  0
 13 11  1  0  0  0  0
 14 13  1  0  0  0  0
 15 19  1  0  0  0  0
 15 14  1  0  0  0  0
 16 14  2  0  0  0  0
 16 17  1  0  0  0  0
 17 10  2  0  0  0  0
 18 15  1  0  0  0  0
 20 24  1  0  0  0  0
 20 21  2  0  0  0  0
 21 22  1  0  0  0  0
 23 25  1  0  0  0  0
 23 22  1  0  0  0  0
 24 23  2  0  0  0  0
 25 34  1  0  0  0  0
 26 27  1  0  0  0  0
 26 25  2  0  0  0  0
 27 28  2  0  0  0  0
 28 29  1  0  0  0  0
 29 30  1  0  0  0  0
 30 31  2  0  0  0  0
 32 31  1  0  0  0  0
 33 32  2  0  0  0  0
 34 29  2  0  0  0  0
 34 33  1  0  0  0  0
M  END
>  <minimizedAffinity>
-7.71305323

$$$$

 OpenBabel03272514383D

 34 39  0  0  0  0  0  0  0  0999 V2000
   38.7070   33.4720   48.7310 C   0  0  0  0  0  3  0  0  0  0  0  0
   39.1680   32.8710   49.9180 C   0  0  0  0  0  3  0  0  0  0  0  0
   38.7940   31.5340   50.1250 C   0  0  0  0  0  3  0  0  0  0  0  0
   38.0270   30.8850   49.2090 N   0  0  0  0  0  0  0  0  0  0  0  0
   37.6110   31.5060   48.0860 C   0  0  0  0  0  0  0  0  0  0  0  0
   37.9520   32.7900   47.8550 N   0  0  0  0  0  0  0  0  0  0  0  0
   36.8090   30.8800   47.0940 N   0  0  0  0  0  0  0  0  0  0  0  0
   37.1430   30.9300   45.7950 C   0  0  0  0  0  3  0  0  0  0  0  0
   36.1850   30.2420   45.1060 N   0  0  0  0  0  0  0  0  0  0  0  0
   35.2720   29.7710   45.9580 C   0  0  0  0  0  0  0  0  0  0  0  0
   34.0910   29.0240   45.9180 C   0  0  0  0  0  0  0  0  0  0  0  0
   33.7310   28.6540   44.7650 O   0  0  0  0  0  0  0  0  0  0  0  0
   33.4130   28.7370   47.0660 N   0  0  0  0  0  0  0  0  0  0  0  0
   33.8430   29.1530   48.2450 C   0  0  0  0  0  0  0  0  0  0  0  0
   33.0020   28.7560   49.3300 N   0  0  0  0  0  0  0  0  0  0  0  0
   34.9800   29.8780   48.3250 N   0  0  0  0  0  0  0  0  0  0  0  0
   35.6610   30.1720   47.2290 C   0  0  0  0  0  0  0  0  0  0  0  0
   33.2440   29.0270   50.2940 H   0  0  0  0  0  0  0  0  0  0  0  0
   32.1550   28.1990   49.1480 H   0  0  0  0  0  0  0  0  0  0  0  0
   32.1820   27.9530   46.9770 C   0  0  0  0  0  0  0  0  0  0  0  0
   32.1570   26.6510   46.4750 C   0  0  0  0  0  3  0  0  0  0  0  0
   30.3720   26.2130   46.6200 S   0  0  0  0  0  0  0  0  0  0  0  0
   29.9550   27.8950   47.3490 C   0  0  0  0  0  0  0  0  0  0  0  0
   30.9850   28.3360   47.3380 N   0  0  0  0  0  0  0  0  0  0  0  0
   28.5370   28.0710   47.6680 C   0  0  0  0  0  0  0  0  0  0  0  0
   27.5810   28.4630   46.7610 C   0  0  0  0  0  3  0  0  0  0  0  0
   26.2410   28.6240   47.0810 C   0  0  0  0  0  3  0  0  0  0  0  0
   25.8640   28.3720   48.3830 C   0  0  0  0  0  3  0  0  0  0  0  0
   26.7640   27.9810   49.3240 C   0  0  0  0  0  0  0  0  0  0  0  0
   26.3290   27.7440   50.6070 C   0  0  0  0  0  3  0  0  0  0  0  0
   27.2560   27.3430   51.5690 C   0  0  0  0  0  3  0  0  0  0  0  0
   28.5840   27.2040   51.1680 C   0  0  0  0  0  3  0  0  0  0  0  0
   28.9900   27.4490   49.8730 C   0  0  0  0  0  3  0  0  0  0  0  0
   28.0780   27.8410   48.9410 C   0  0  0  0  0  0  0  0  0  0  0  0
  1  2  1  0  0  0  0
  2  3  2  0  0  0  0
  4  3  1  0  0  0  0
  5  4  2  0  0  0  0
  6  5  1  0  0  0  0
  6  1  2  0  0  0  0
  7 17  1  0  0  0  0
  7  5  1  0  0  0  0
  8  7  1  0  0  0  0
  9  8  2  0  0  0  0
  9 10  1  0  0  0  0
 10 17  2  0  0  0  0
 11 10  1  0  0  0  0
 11 13  1  0  0  0  0
 12 11  2  0  0  0  0
 13 14  1  0  0  0  0
 14 16  2  0  0  0  0
 14 15  1  0  0  0  0
 15 18  1  0  0  0  0
 17 16  1  0  0  0  0
 19 15  1  0  0  0  0
 20 13  1  0  0  0  0
 20 24  1  0  0  0  0
 21 22  1  0  0  0  0
 21 20  2  0  0  0  0
 22 23  1  0  0  0  0
 23 25  1  0  0  0  0
 24 23  2  0  0  0  0
 25 34  1  0  0  0  0
 26 27  1  0  0  0  0
 26 25  2  0  0  0  0
 27 28  2  0  0  0  0
 28 29  1  0  0  0  0
 29 30  1  0  0  0  0
 30 31  2  0  0  0  0
 32 31  1  0  0  0  0
 33 32  2  0  0  0  0
 34 29  2  0  0  0  0
 34 33  1  0  0  0  0
M  END
>  <minimizedAffinity>
-7.70405817

$$$$

 OpenBabel03272514383D

 34 39  0  0  0  0  0  0  0  0999 V2000
   25.6560   32.2990   41.7070 C   0  0  0  0  0  3  0  0  0  0  0  0
   24.9360   32.8460   42.7870 C   0  0  0  0  0  3  0  0  0  0  0  0
   25.6640   33.0790   43.9660 C   0  0  0  0  0  3  0  0  0  0  0  0
   26.9890   32.7810   44.0250 N   0  0  0  0  0  0  0  0  0  0  0  0
   27.6320   32.2580   42.9610 C   0  0  0  0  0  0  0  0  0  0  0  0
   26.9640   32.0220   41.8140 N   0  0  0  0  0  0  0  0  0  0  0  0
   29.0140   31.9270   42.9640 N   0  0  0  0  0  0  0  0  0  0  0  0
   29.8330   32.3450   41.9850 C   0  0  0  0  0  3  0  0  0  0  0  0
   31.0800   31.8690   42.2730 N   0  0  0  0  0  0  0  0  0  0  0  0
   31.0420   31.1700   43.4100 C   0  0  0  0  0  0  0  0  0  0  0  0
   31.9200   30.4510   44.2260 C   0  0  0  0  0  0  0  0  0  0  0  0
   33.1170   30.4190   43.8250 O   0  0  0  0  0  0  0  0  0  0  0  0
   31.4730   29.8480   45.3640 N   0  0  0  0  0  0  0  0  0  0  0  0
   30.2050   29.9200   45.7320 C   0  0  0  0  0  0  0  0  0  0  0  0
   29.9250   29.2270   46.9500 N   0  0  0  0  0  0  0  0  0  0  0  0
   29.3250   30.6050   44.9690 N   0  0  0  0  0  0  0  0  0  0  0  0
   29.7290   31.2010   43.8590 C   0  0  0  0  0  0  0  0  0  0  0  0
   28.9670   29.2190   47.3280 H   0  0  0  0  0  0  0  0  0  0  0  0
   30.6810   28.7370   47.4490 H   0  0  0  0  0  0  0  0  0  0  0  0
   32.4270   29.1060   46.1880 C   0  0  0  0  0  0  0  0  0  0  0  0
   32.6440   27.7370   46.0330 C   0  0  0  0  0  3  0  0  0  0  0  0
   33.9200   27.3990   47.3210 S   0  0  0  0  0  0  0  0  0  0  0  0
   33.9430   29.2010   47.8590 C   0  0  0  0  0  0  0  0  0  0  0  0
   33.1780   29.5930   47.1410 N   0  0  0  0  0  0  0  0  0  0  0  0
   34.8760   29.4840   48.9510 C   0  0  0  0  0  0  0  0  0  0  0  0
   34.6680   29.1240   50.2610 C   0  0  0  0  0  3  0  0  0  0  0  0
   35.5640   29.4000   51.2840 C   0  0  0  0  0  3  0  0  0  0  0  0
   36.7210   30.0720   50.9500 C   0  0  0  0  0  3  0  0  0  0  0  0
   36.9810   30.4530   49.6720 C   0  0  0  0  0  0  0  0  0  0  0  0
   38.1530   31.1210   49.4000 C   0  0  0  0  0  3  0  0  0  0  0  0
   38.4170   31.5100   48.0870 C   0  0  0  0  0  3  0  0  0  0  0  0
   37.4660   31.1950   47.1170 C   0  0  0  0  0  3  0  0  0  0  0  0
   36.3010   30.5240   47.4210 C   0  0  0  0  0  3  0  0  0  0  0  0
   36.0520   30.1490   48.7050 C   0  0  0  0  0  0  0  0  0  0  0  0
  1  6  2  0  0  0  0
  1  2  1  0  0  0  0
  2  3  2  0  0  0  0
  3  4  1  0  0  0  0
  5  7  1  0  0  0  0
  5  4  2  0  0  0  0
  6  5  1  0  0  0  0
  7 17  1  0  0  0  0
  8  9  2  0  0  0  0
  8  7  1  0  0  0  0
  9 10  1  0  0  0  0
 10 17  2  0  0  0  0
 10 11  1  0  0  0  0
 11 13  1  0  0  0  0
 12 11  2  0  0  0  0
 13 14  1  0  0  0  0
 13 20  1  0  0  0  0
 14 15  1  0  0  0  0
 15 18  1  0  0  0  0
 15 19  1  0  0  0  0
 16 14  2  0  0  0  0
 17 16  1  0  0  0  0
 20 24  1  0  0  0  0
 21 20  2  0  0  0  0
 21 22  1  0  0  0  0
 22 23  1  0  0  0  0
 23 25  1  0  0  0  0
 24 23  2  0  0  0  0
 25 26  1  0  0  0  0
 26 27  2  0  0  0  0
 28 27  1  0  0  0  0
 29 28  2  0  0  0  0
 30 29  1  0  0  0  0
 31 30  2  0  0  0  0
 32 33  2  0  0  0  0
 32 31  1  0  0  0  0
 33 34  1  0  0  0  0
 34 25  2  0  0  0  0
 34 29  1  0  0  0  0
M  END
>  <minimizedAffinity>
-7.672966

$$$$

 OpenBabel03272514383D

 34 39  0  0  0  0  0  0  0  0999 V2000
   26.0830   28.2190   49.8500 C   0  0  0  0  0  3  0  0  0  0  0  0
   25.3920   29.3140   49.2950 C   0  0  0  0  0  3  0  0  0  0  0  0
   25.8530   29.7760   48.0520 C   0  0  0  0  0  3  0  0  0  0  0  0
   26.9120   29.1760   47.4460 N   0  0  0  0  0  0  0  0  0  0  0  0
   27.5400   28.1300   48.0200 C   0  0  0  0  0  0  0  0  0  0  0  0
   27.1230   27.6600   49.2130 N   0  0  0  0  0  0  0  0  0  0  0  0
   28.6500   27.4630   47.4340 N   0  0  0  0  0  0  0  0  0  0  0  0
   28.6790   26.1260   47.3180 C   0  0  0  0  0  3  0  0  0  0  0  0
   29.8620   25.7980   46.7220 N   0  0  0  0  0  0  0  0  0  0  0  0
   30.5600   26.9090   46.4690 C   0  0  0  0  0  0  0  0  0  0  0  0
   31.7870   27.2670   45.9060 C   0  0  0  0  0  0  0  0  0  0  0  0
   32.4880   26.3010   45.4930 O   0  0  0  0  0  0  0  0  0  0  0  0
   32.1580   28.5770   45.8270 N   0  0  0  0  0  0  0  0  0  0  0  0
   31.3770   29.5440   46.2770 C   0  0  0  0  0  0  0  0  0  0  0  0
   31.9330   30.8500   46.1080 N   0  0  0  0  0  0  0  0  0  0  0  0
   30.1830   29.2380   46.8290 N   0  0  0  0  0  0  0  0  0  0  0  0
   29.7950   27.9760   46.9200 C   0  0  0  0  0  0  0  0  0  0  0  0
   31.4080   31.6780   46.4240 H   0  0  0  0  0  0  0  0  0  0  0  0
   32.8580   30.9630   45.6700 H   0  0  0  0  0  0  0  0  0  0  0  0
   33.4510   28.9070   45.2290 C   0  0  0  0  0  0  0  0  0  0  0  0
   33.7390   28.6690   43.8850 C   0  0  0  0  0  3  0  0  0  0  0  0
   35.4720   29.2810   43.7440 S   0  0  0  0  0  0  0  0  0  0  0  0
   35.5140   29.7640   45.5610 C   0  0  0  0  0  0  0  0  0  0  0  0
   34.4760   29.4460   45.8360 N   0  0  0  0  0  0  0  0  0  0  0  0
   36.7850   30.3510   45.9910 C   0  0  0  0  0  0  0  0  0  0  0  0
   37.8800   30.5130   45.1750 C   0  0  0  0  0  3  0  0  0  0  0  0
   39.0760   31.0710   45.6000 C   0  0  0  0  0  3  0  0  0  0  0  0
   39.1550   31.4810   46.9140 C   0  0  0  0  0  3  0  0  0  0  0  0
   38.1060   31.3470   47.7670 C   0  0  0  0  0  0  0  0  0  0  0  0
   38.2440   31.7750   49.0670 C   0  0  0  0  0  3  0  0  0  0  0  0
   37.1650   31.6360   49.9390 C   0  0  0  0  0  3  0  0  0  0  0  0
   35.9960   31.0650   49.4360 C   0  0  0  0  0  3  0  0  0  0  0  0
   35.8890   30.6460   48.1280 C   0  0  0  0  0  3  0  0  0  0  0  0
   36.9480   30.7850   47.2830 C   0  0  0  0  0  0  0  0  0  0  0  0
  2  1  1  0  0  0  0
  3  2  2  0  0  0  0
  4  5  2  0  0  0  0
  4  3  1  0  0  0  0
  5  6  1  0  0  0  0
  6  1  2  0  0  0  0
  7  5  1  0  0  0  0
  8  7  1  0  0  0  0
  9  8  2  0  0  0  0
 10  9  1  0  0  0  0
 10 17  2  0  0  0  0
 11 10  1  0  0  0  0
 12 11  2  0  0  0  0
 13 11  1  0  0  0  0
 13 14  1  0  0  0  0
 14 16  2  0  0  0  0
 15 14  1  0  0  0  0
 15 18  1  0  0  0  0
 16 17  1  0  0  0  0
 17  7  1  0  0  0  0
 19 15  1  0  0  0  0
 20 13  1  0  0  0  0
 20 24  1  0  0  0  0
 21 20  2  0  0  0  0
 22 21  1  0  0  0  0
 22 23  1  0  0  0  0
 23 24  2  0  0  0  0
 23 25  1  0  0  0  0
 25 34  1  0  0  0  0
 26 27  1  0  0  0  0
 26 25  2  0  0  0  0
 27 28  2  0  0  0  0
 28 29  1  0  0  0  0
 29 30  1  0  0  0  0
 30 31  2  0  0  0  0
 32 31  1  0  0  0  0
 33 32  2  0  0  0  0
 34 29  2  0  0  0  0
 34 33  1  0  0  0  0
M  END
>  <minimizedAffinity>
-7.53784895

$$$$

 OpenBabel03272514383D

 34 39  0  0  0  0  0  0  0  0999 V2000
   26.3020   27.7660   44.7400 C   0  0  0  0  0  3  0  0  0  0  0  0
   25.9050   28.7230   43.7850 C   0  0  0  0  0  3  0  0  0  0  0  0
   26.9200   29.2410   42.9650 C   0  0  0  0  0  3  0  0  0  0  0  0
   28.2040   28.8210   43.1110 N   0  0  0  0  0  0  0  0  0  0  0  0
   28.5320   27.9010   44.0410 C   0  0  0  0  0  0  0  0  0  0  0  0
   27.5830   27.3810   44.8460 N   0  0  0  0  0  0  0  0  0  0  0  0
   29.8560   27.4230   44.2400 N   0  0  0  0  0  0  0  0  0  0  0  0
   30.1210   26.1080   44.2980 C   0  0  0  0  0  3  0  0  0  0  0  0
   31.4660   25.9760   44.4940 N   0  0  0  0  0  0  0  0  0  0  0  0
   32.0310   27.1850   44.5550 C   0  0  0  0  0  0  0  0  0  0  0  0
   33.3020   27.7380   44.7310 C   0  0  0  0  0  0  0  0  0  0  0  0
   34.2340   26.8980   44.8770 O   0  0  0  0  0  0  0  0  0  0  0  0
   33.4760   29.0900   44.7340 N   0  0  0  0  0  0  0  0  0  0  0  0
   32.4580   29.9180   44.5740 C   0  0  0  0  0  0  0  0  0  0  0  0
   32.8340   31.2960   44.6060 N   0  0  0  0  0  0  0  0  0  0  0  0
   31.2130   29.4220   44.4020 N   0  0  0  0  0  0  0  0  0  0  0  0
   31.0120   28.1150   44.3950 C   0  0  0  0  0  0  0  0  0  0  0  0
   32.1180   32.0280   44.4920 H   0  0  0  0  0  0  0  0  0  0  0  0
   33.8210   31.5580   44.7440 H   0  0  0  0  0  0  0  0  0  0  0  0
   34.8240   29.6250   44.9210 C   0  0  0  0  0  0  0  0  0  0  0  0
   35.7390   29.7360   43.8730 C   0  0  0  0  0  3  0  0  0  0  0  0
   37.2110   30.4580   44.7170 S   0  0  0  0  0  0  0  0  0  0  0  0
   36.3220   30.4880   46.3740 C   0  0  0  0  0  0  0  0  0  0  0  0
   35.3440   30.0560   46.0410 N   0  0  0  0  0  0  0  0  0  0  0  0
   37.1310   31.0210   47.4730 C   0  0  0  0  0  0  0  0  0  0  0  0
   38.0810   32.0040   47.3300 C   0  0  0  0  0  3  0  0  0  0  0  0
   38.8380   32.4980   48.3820 C   0  0  0  0  0  3  0  0  0  0  0  0
   38.6120   31.9630   49.6320 C   0  0  0  0  0  3  0  0  0  0  0  0
   37.6850   30.9900   49.8360 C   0  0  0  0  0  0  0  0  0  0  0  0
   37.5040   30.4960   51.1060 C   0  0  0  0  0  3  0  0  0  0  0  0
   36.5520   29.4970   51.3100 C   0  0  0  0  0  3  0  0  0  0  0  0
   35.8320   29.0540   50.2010 C   0  0  0  0  0  3  0  0  0  0  0  0
   36.0370   29.5700   48.9400 C   0  0  0  0  0  3  0  0  0  0  0  0
   36.9690   30.5440   48.7500 C   0  0  0  0  0  0  0  0  0  0  0  0
  1  6  1  0  0  0  0
  2  1  2  0  0  0  0
  3  4  2  0  0  0  0
  3  2  1  0  0  0  0
  4  5  1  0  0  0  0
  5  7  1  0  0  0  0
  5  6  2  0  0  0  0
  7  8  1  0  0  0  0
  7 17  1  0  0  0  0
  8  9  2  0  0  0  0
  9 10  1  0  0  0  0
 10 11  1  0  0  0  0
 11 13  1  0  0  0  0
 11 12  2  0  0  0  0
 13 20  1  0  0  0  0
 14 15  1  0  0  0  0
 14 13  1  0  0  0  0
 15 19  1  0  0  0  0
 16 14  2  0  0  0  0
 17 16  1  0  0  0  0
 17 10  2  0  0  0  0
 18 15  1  0  0  0  0
 20 24  1  0  0  0  0
 21 22  1  0  0  0  0
 21 20  2  0  0  0  0
 22 23  1  0  0  0  0
 23 25  1  0  0  0  0
 24 23  2  0  0  0  0
 25 34  1  0  0  0  0
 26 25  2  0  0  0  0
 26 27  1  0  0  0  0
 27 28  2  0  0  0  0
 28 29  1  0  0  0  0
 29 30  1  0  0  0  0
 30 31  2  0  0  0  0
 32 31  1  0  0  0  0
 33 32  2  0  0  0  0
 34 33  1  0  0  0  0
 34 29  2  0  0  0  0
M  END
>  <minimizedAffinity>
-7.4130497

$$$$

 OpenBabel03272514383D

 34 39  0  0  0  0  0  0  0  0999 V2000
   28.6150   26.9100   50.5750 C   0  0  0  0  0  3  0  0  0  0  0  0
   27.6900   27.4310   51.5010 C   0  0  0  0  0  3  0  0  0  0  0  0
   26.6220   28.1690   50.9660 C   0  0  0  0  0  3  0  0  0  0  0  0
   26.5180   28.3520   49.6230 N   0  0  0  0  0  0  0  0  0  0  0  0
   27.4310   27.8320   48.7780 C   0  0  0  0  0  0  0  0  0  0  0  0
   28.4690   27.1160   49.2570 N   0  0  0  0  0  0  0  0  0  0  0  0
   27.3740   27.9890   47.3660 N   0  0  0  0  0  0  0  0  0  0  0  0
   27.4890   26.9360   46.5420 C   0  0  0  0  0  3  0  0  0  0  0  0
   27.3930   27.4110   45.2650 N   0  0  0  0  0  0  0  0  0  0  0  0
   27.2200   28.7340   45.2910 C   0  0  0  0  0  0  0  0  0  0  0  0
   27.0600   29.7860   44.3850 C   0  0  0  0  0  0  0  0  0  0  0  0
   27.0710   29.4490   43.1680 O   0  0  0  0  0  0  0  0  0  0  0  0
   26.9040   31.0660   44.8290 N   0  0  0  0  0  0  0  0  0  0  0  0
   26.9000   31.3540   46.1190 C   0  0  0  0  0  0  0  0  0  0  0  0
   26.7240   32.7460   46.3910 N   0  0  0  0  0  0  0  0  0  0  0  0
   27.0530   30.3650   47.0260 N   0  0  0  0  0  0  0  0  0  0  0  0
   27.2060   29.1130   46.6270 C   0  0  0  0  0  0  0  0  0  0  0  0
   26.7060   33.0820   47.3640 H   0  0  0  0  0  0  0  0  0  0  0  0
   26.6170   33.4140   45.6130 H   0  0  0  0  0  0  0  0  0  0  0  0
   26.7390   32.1360   43.8450 C   0  0  0  0  0  0  0  0  0  0  0  0
   25.4860   32.5770   43.4200 C   0  0  0  0  0  3  0  0  0  0  0  0
   25.9280   33.9000   42.2150 S   0  0  0  0  0  0  0  0  0  0  0  0
   27.7670   33.6270   42.4960 C   0  0  0  0  0  0  0  0  0  0  0  0
   27.6940   32.8020   43.2500 N   0  0  0  0  0  0  0  0  0  0  0  0
   28.6270   34.5080   41.7030 C   0  0  0  0  0  0  0  0  0  0  0  0
   28.1860   35.2910   40.6630 C   0  0  0  0  0  3  0  0  0  0  0  0
   29.0150   36.1210   39.9230 C   0  0  0  0  0  3  0  0  0  0  0  0
   30.3520   36.1490   40.2620 C   0  0  0  0  0  3  0  0  0  0  0  0
   30.8460   35.3970   41.2800 C   0  0  0  0  0  0  0  0  0  0  0  0
   32.1880   35.4680   41.5720 C   0  0  0  0  0  3  0  0  0  0  0  0
   32.6910   34.6940   42.6180 C   0  0  0  0  0  3  0  0  0  0  0  0
   31.7920   33.8860   43.3150 C   0  0  0  0  0  3  0  0  0  0  0  0
   30.4520   33.8370   42.9980 C   0  0  0  0  0  3  0  0  0  0  0  0
   29.9700   34.5950   41.9750 C   0  0  0  0  0  0  0  0  0  0  0  0
  1  2  1  0  0  0  0
  3  2  2  0  0  0  0
  4  3  1  0  0  0  0
  5  6  1  0  0  0  0
  5  4  2  0  0  0  0
  6  1  2  0  0  0  0
  7  5  1  0  0  0  0
  8  7  1  0  0  0  0
  9 10  1  0  0  0  0
  9  8  2  0  0  0  0
 10 17  2  0  0  0  0
 11 13  1  0  0  0  0
 11 10  1  0  0  0  0
 12 11  2  0  0  0  0
 13 14  1  0  0  0  0
 14 15  1  0  0  0  0
 14 16  2  0  0  0  0
 15 18  1  0  0  0  0
 17 16  1  0  0  0  0
 17  7  1  0  0  0  0
 19 15  1  0  0  0  0
 20 13  1  0  0  0  0
 21 20  2  0  0  0  0
 22 23  1  0  0  0  0
 22 21  1  0  0  0  0
 23 24  2  0  0  0  0
 24 20  1  0  0  0  0
 25 34  1  0  0  0  0
 25 23  1  0  0  0  0
 26 25  2  0  0  0  0
 27 28  2  0  0  0  0
 27 26  1  0  0  0  0
 28 29  1  0  0  0  0
 29 30  2  0  0  0  0
 29 34  1  0  0  0  0
 30 31  1  0  0  0  0
 31 32  2  0  0  0  0
 33 32  1  0  0  0  0
 34 33  2  0  0  0  0
M  END
>  <minimizedAffinity>
-7.17717791

$$$$

 OpenBabel03272514383D

 34 39  0  0  0  0  0  0  0  0999 V2000
   37.6540   29.5780   49.7100 C   0  0  0  0  0  3  0  0  0  0  0  0
   37.7080   30.9240   50.1220 C   0  0  0  0  0  3  0  0  0  0  0  0
   36.5210   31.6620   49.9940 C   0  0  0  0  0  3  0  0  0  0  0  0
   35.3990   31.0780   49.4970 N   0  0  0  0  0  0  0  0  0  0  0  0
   35.3990   29.7840   49.1180 C   0  0  0  0  0  0  0  0  0  0  0  0
   36.5220   29.0450   49.2270 N   0  0  0  0  0  0  0  0  0  0  0  0
   34.2570   29.1200   48.5920 N   0  0  0  0  0  0  0  0  0  0  0  0
   33.8560   27.9340   49.0770 C   0  0  0  0  0  3  0  0  0  0  0  0
   32.7460   27.5650   48.3730 N   0  0  0  0  0  0  0  0  0  0  0  0
   32.4590   28.5020   47.4660 C   0  0  0  0  0  0  0  0  0  0  0  0
   31.5060   28.7380   46.4720 C   0  0  0  0  0  0  0  0  0  0  0  0
   30.6300   27.8360   46.3460 O   0  0  0  0  0  0  0  0  0  0  0  0
   31.5550   29.8730   45.7180 N   0  0  0  0  0  0  0  0  0  0  0  0
   32.4990   30.7820   45.9000 C   0  0  0  0  0  0  0  0  0  0  0  0
   32.3880   31.9020   45.0190 N   0  0  0  0  0  0  0  0  0  0  0  0
   33.4380   30.5900   46.8510 N   0  0  0  0  0  0  0  0  0  0  0  0
   33.4170   29.4980   47.5980 C   0  0  0  0  0  0  0  0  0  0  0  0
   33.0720   32.6690   45.0740 H   0  0  0  0  0  0  0  0  0  0  0  0
   31.6240   31.9400   44.3290 H   0  0  0  0  0  0  0  0  0  0  0  0
   30.5380   30.0790   44.6890 C   0  0  0  0  0  0  0  0  0  0  0  0
   30.5030   29.3340   43.5090 C   0  0  0  0  0  3  0  0  0  0  0  0
   29.0340   30.0400   42.6470 S   0  0  0  0  0  0  0  0  0  0  0  0
   28.7100   31.2440   44.0550 C   0  0  0  0  0  0  0  0  0  0  0  0
   29.5600   30.9460   44.7210 N   0  0  0  0  0  0  0  0  0  0  0  0
   27.5480   32.1090   43.8410 C   0  0  0  0  0  0  0  0  0  0  0  0
   27.1740   32.6180   42.6200 C   0  0  0  0  0  3  0  0  0  0  0  0
   26.0690   33.4360   42.4360 C   0  0  0  0  0  3  0  0  0  0  0  0
   25.3160   33.7460   43.5490 C   0  0  0  0  0  3  0  0  0  0  0  0
   25.6370   33.2730   44.7820 C   0  0  0  0  0  0  0  0  0  0  0  0
   24.8470   33.6160   45.8550 C   0  0  0  0  0  3  0  0  0  0  0  0
   25.1790   33.1280   47.1180 C   0  0  0  0  0  3  0  0  0  0  0  0
   26.3050   32.3110   47.2200 C   0  0  0  0  0  3  0  0  0  0  0  0
   27.0760   31.9850   46.1250 C   0  0  0  0  0  3  0  0  0  0  0  0
   26.7450   32.4660   44.8960 C   0  0  0  0  0  0  0  0  0  0  0  0
  1  2  1  0  0  0  0
  3  2  2  0  0  0  0
  4  3  1  0  0  0  0
  5  6  1  0  0  0  0
  5  4  2  0  0  0  0
  6  1  2  0  0  0  0
  7  8  1  0  0  0  0
  7  5  1  0  0  0  0
  9  8  2  0  0  0  0
 10 17  2  0  0  0  0
 10  9  1  0  0  0  0
 11 10  1  0  0  0  0
 12 11  2  0  0  0  0
 13 14  1  0  0  0  0
 13 11  1  0  0  0  0
 14 16  2  0  0  0  0
 15 18  1  0  0  0  0
 15 14  1  0  0  0  0
 16 17  1  0  0  0  0
 17  7  1  0  0  0  0
 19 15  1  0  0  0  0
 20 24  1  0  0  0  0
 20 13  1  0  0  0  0
 21 20  2  0  0  0  0
 22 21  1  0  0  0  0
 22 23  1  0  0  0  0
 23 24  2  0  0  0  0
 25 23  1  0  0  0  0
 25 34  1  0  0  0  0
 26 25  2  0  0  0  0
 27 26  1  0  0  0  0
 27 28  2  0  0  0  0
 28 29  1  0  0  0  0
 29 34  2  0  0  0  0
 29 30  1  0  0  0  0
 30 31  2  0  0  0  0
 31 32  1  0  0  0  0
 33 32  2  0  0  0  0
 34 33  1  0  0  0  0
M  END
>  <minimizedAffinity>
-7.09691572

$$$$
