
 OpenBabel03272514493D

 38 43  0  0  0  0  0  0  0  0999 V2000
   31.3000   31.1610   42.7490 C   0  0  0  0  0  0  0  0  0  0  0  0
   29.9840   31.5450   43.1270 C   0  0  0  0  0  3  0  0  0  0  0  0
   29.6170   31.3190   44.4280 C   0  0  0  0  0  3  0  0  0  0  0  0
   30.5470   30.7520   45.2130 N   0  0  0  0  0  0  0  0  0  0  0  0
   31.7540   30.3940   44.8910 C   0  0  0  0  0  0  0  0  0  0  0  0
   32.1350   30.6070   43.6210 N   0  0  0  0  0  0  0  0  0  0  0  0
   32.5230   29.8270   45.9190 N   0  0  0  0  0  0  0  0  0  0  0  0
   33.6070   30.5170   46.3690 C   0  0  0  0  0  3  0  0  0  0  0  0
   34.2130   29.7890   47.3690 C   0  0  0  0  0  0  0  0  0  0  0  0
   33.5010   28.6820   47.5130 N   0  0  0  0  0  0  0  0  0  0  0  0
   32.4460   28.6910   46.6160 C   0  0  0  0  0  0  0  0  0  0  0  0
   31.4970   27.6380   46.4810 C   0  0  0  0  0  0  0  0  0  0  0  0
   31.6080   26.6530   45.4780 C   0  0  0  0  0  3  0  0  0  0  0  0
   30.5440   25.7880   45.5760 N   0  0  0  0  0  0  0  0  0  0  0  0
   29.7760   26.2510   46.6490 C   0  0  0  0  0  3  0  0  0  0  0  0
   30.3960   27.3190   47.1200 N   0  0  0  0  0  0  0  0  0  0  0  0
   29.6130   27.6760   48.2220 C   0  0  0  0  0  0  0  0  0  0  0  0
   29.9660   27.0100   49.3260 N   0  0  0  0  0  0  0  0  0  0  0  0
   29.2650   27.1930   50.4740 C   0  0  0  0  0  3  0  0  0  0  0  0
   28.2190   28.0130   50.5820 N   0  0  0  0  0  0  0  0  0  0  0  0
   27.8290   28.7070   49.4940 C   0  0  0  0  0  0  0  0  0  0  0  0
   26.7740   29.5780   49.4660 C   0  0  0  0  0  3  0  0  0  0  0  0
   26.4220   30.2510   48.3330 C   0  0  0  0  0  3  0  0  0  0  0  0
   27.1530   30.0500   47.1650 C   0  0  0  0  0  3  0  0  0  0  0  0
   28.2210   29.1880   47.1330 C   0  0  0  0  0  3  0  0  0  0  0  0
   28.5330   28.5380   48.2970 C   0  0  0  0  0  0  0  0  0  0  0  0
   35.3880   30.1570   48.1100 N   0  0  0  0  0  0  0  0  0  0  0  0
   36.5630   30.3650   47.4870 C   0  0  0  0  0  3  0  0  0  0  0  0
   37.6600   30.7170   48.2570 C   0  0  0  0  0  3  0  0  0  0  0  0
   37.5600   30.8570   49.6390 C   0  0  0  0  0  0  0  0  0  0  0  0
   38.5620   31.1820   50.3570 O   0  0  0  0  0  0  0  0  0  0  0  0
   36.3700   30.6430   50.2190 N   0  0  0  0  0  0  0  0  0  0  0  0
   35.2980   30.2940   49.4460 C   0  0  0  0  0  0  0  0  0  0  0  0
   34.2310   30.1180   50.0990 O   0  0  0  0  0  0  0  0  0  0  0  0
   36.2640   30.7400   51.2380 H   0  0  0  0  0  0  0  0  0  0  0  0
   31.7280   31.3990   41.3910 N   0  0  0  0  0  0  0  0  0  0  0  0
   32.6760   31.1290   41.0960 H   0  0  0  0  0  0  0  0  0  0  0  0
   31.0840   31.8400   40.7180 H   0  0  0  0  0  0  0  0  0  0  0  0
  1  2  2  0  0  0  0
  1  6  1  0  0  0  0
  2  3  1  0  0  0  0
  3  4  2  0  0  0  0
  5  4  1  0  0  0  0
  5  7  1  0  0  0  0
  6  5  2  0  0  0  0
  7  8  1  0  0  0  0
  7 11  1  0  0  0  0
  8  9  2  0  0  0  0
  9 10  1  0  0  0  0
  9 27  1  0  0  0  0
 11 10  2  0  0  0  0
 12 11  1  0  0  0  0
 12 16  1  0  0  0  0
 13 14  1  0  0  0  0
 13 12  2  0  0  0  0
 14 15  2  0  0  0  0
 15 16  1  0  0  0  0
 16 17  1  0  0  0  0
 17 26  2  0  0  0  0
 17 18  1  0  0  0  0
 18 19  2  0  0  0  0
 19 20  1  0  0  0  0
 21 20  2  0  0  0  0
 22 21  1  0  0  0  0
 23 22  2  0  0  0  0
 24 23  1  0  0  0  0
 25 24  2  0  0  0  0
 25 26  1  0  0  0  0
 26 21  1  0  0  0  0
 27 33  1  0  0  0  0
 28 27  1  0  0  0  0
 28 29  2  0  0  0  0
 29 30  1  0  0  0  0
 30 32  1  0  0  0  0
 30 31  2  0  0  0  0
 32 35  1  0  0  0  0
 33 34  2  0  0  0  0
 33 32  1  0  0  0  0
 36  1  1  0  0  0  0
 37 36  1  0  0  0  0
 38 36  1  0  0  0  0
M  END
>  <minimizedAffinity>
-7.73316813

$$$$

 OpenBabel03272514493D

 38 43  0  0  0  0  0  0  0  0999 V2000
   31.3570   32.1050   42.0250 C   0  0  0  0  0  0  0  0  0  0  0  0
   30.2230   32.9180   42.2950 C   0  0  0  0  0  3  0  0  0  0  0  0
   29.6290   32.7740   43.5210 C   0  0  0  0  0  3  0  0  0  0  0  0
   30.1860   31.8720   44.3440 N   0  0  0  0  0  0  0  0  0  0  0  0
   31.2210   31.1190   44.1210 C   0  0  0  0  0  0  0  0  0  0  0  0
   31.8190   31.2440   42.9250 N   0  0  0  0  0  0  0  0  0  0  0  0
   31.5970   30.2620   45.1670 N   0  0  0  0  0  0  0  0  0  0  0  0
   32.7840   30.4910   45.7940 C   0  0  0  0  0  3  0  0  0  0  0  0
   32.9550   29.5440   46.7790 C   0  0  0  0  0  0  0  0  0  0  0  0
   31.8870   28.7630   46.7410 N   0  0  0  0  0  0  0  0  0  0  0  0
   31.0330   29.1970   45.7410 C   0  0  0  0  0  0  0  0  0  0  0  0
   29.8020   28.5650   45.4050 C   0  0  0  0  0  0  0  0  0  0  0  0
   29.6670   27.7400   44.2700 C   0  0  0  0  0  3  0  0  0  0  0  0
   28.3690   27.2940   44.1880 N   0  0  0  0  0  0  0  0  0  0  0  0
   27.7060   27.8520   45.2850 C   0  0  0  0  0  3  0  0  0  0  0  0
   28.6030   28.5690   45.9400 N   0  0  0  0  0  0  0  0  0  0  0  0
   27.8870   29.0310   47.0480 C   0  0  0  0  0  0  0  0  0  0  0  0
   27.8900   28.1480   48.0520 N   0  0  0  0  0  0  0  0  0  0  0  0
   27.1880   28.4150   49.1830 C   0  0  0  0  0  3  0  0  0  0  0  0
   26.4740   29.5260   49.3690 N   0  0  0  0  0  0  0  0  0  0  0  0
   26.4440   30.4450   48.3840 C   0  0  0  0  0  0  0  0  0  0  0  0
   25.7530   31.6240   48.4430 C   0  0  0  0  0  3  0  0  0  0  0  0
   25.7550   32.5170   47.4120 C   0  0  0  0  0  3  0  0  0  0  0  0
   26.4820   32.2260   46.2600 C   0  0  0  0  0  3  0  0  0  0  0  0
   27.1940   31.0590   46.1440 C   0  0  0  0  0  3  0  0  0  0  0  0
   27.1590   30.1970   47.2070 C   0  0  0  0  0  0  0  0  0  0  0  0
   34.0740   29.4260   47.6730 N   0  0  0  0  0  0  0  0  0  0  0  0
   35.2140   30.1050   47.4510 C   0  0  0  0  0  3  0  0  0  0  0  0
   36.2570   29.9490   48.3490 C   0  0  0  0  0  3  0  0  0  0  0  0
   36.1390   29.1130   49.4570 C   0  0  0  0  0  0  0  0  0  0  0  0
   37.0920   28.9620   50.2910 O   0  0  0  0  0  0  0  0  0  0  0  0
   34.9850   28.4560   49.6420 N   0  0  0  0  0  0  0  0  0  0  0  0
   33.9670   28.6200   48.7460 C   0  0  0  0  0  0  0  0  0  0  0  0
   32.9300   27.9530   49.0210 O   0  0  0  0  0  0  0  0  0  0  0  0
   34.8680   27.8330   50.4530 H   0  0  0  0  0  0  0  0  0  0  0  0
   32.0190   32.2400   40.7500 N   0  0  0  0  0  0  0  0  0  0  0  0
   32.8430   31.6610   40.5330 H   0  0  0  0  0  0  0  0  0  0  0  0
   31.6680   32.9170   40.0570 H   0  0  0  0  0  0  0  0  0  0  0  0
  1  2  2  0  0  0  0
  1  6  1  0  0  0  0
  2  3  1  0  0  0  0
  3  4  2  0  0  0  0
  5  4  1  0  0  0  0
  5  7  1  0  0  0  0
  6  5  2  0  0  0  0
  7 11  1  0  0  0  0
  7  8  1  0  0  0  0
  8  9  2  0  0  0  0
  9 27  1  0  0  0  0
 10  9  1  0  0  0  0
 11 10  2  0  0  0  0
 12 11  1  0  0  0  0
 12 16  1  0  0  0  0
 13 12  2  0  0  0  0
 14 13  1  0  0  0  0
 14 15  2  0  0  0  0
 15 16  1  0  0  0  0
 16 17  1  0  0  0  0
 17 26  2  0  0  0  0
 17 18  1  0  0  0  0
 18 19  2  0  0  0  0
 19 20  1  0  0  0  0
 21 22  1  0  0  0  0
 21 20  2  0  0  0  0
 23 22  2  0  0  0  0
 24 23  1  0  0  0  0
 25 24  2  0  0  0  0
 25 26  1  0  0  0  0
 26 21  1  0  0  0  0
 27 33  1  0  0  0  0
 28 27  1  0  0  0  0
 28 29  2  0  0  0  0
 29 30  1  0  0  0  0
 30 32  1  0  0  0  0
 30 31  2  0  0  0  0
 32 35  1  0  0  0  0
 33 34  2  0  0  0  0
 33 32  1  0  0  0  0
 36  1  1  0  0  0  0
 37 36  1  0  0  0  0
 38 36  1  0  0  0  0
M  END
>  <minimizedAffinity>
-7.627038

$$$$

 OpenBabel03272514493D

 38 43  0  0  0  0  0  0  0  0999 V2000
   32.3420   32.0810   43.6450 C   0  0  0  0  0  0  0  0  0  0  0  0
   32.4020   31.4910   42.3520 C   0  0  0  0  0  3  0  0  0  0  0  0
   31.8870   30.2280   42.2170 C   0  0  0  0  0  3  0  0  0  0  0  0
   31.3780   29.6770   43.3310 N   0  0  0  0  0  0  0  0  0  0  0  0
   31.3110   30.1950   44.5210 C   0  0  0  0  0  0  0  0  0  0  0  0
   31.8090   31.4320   44.6750 N   0  0  0  0  0  0  0  0  0  0  0  0
   30.7160   29.3950   45.5080 N   0  0  0  0  0  0  0  0  0  0  0  0
   29.5270   29.7990   46.0360 C   0  0  0  0  0  3  0  0  0  0  0  0
   29.1240   28.8780   46.9770 C   0  0  0  0  0  0  0  0  0  0  0  0
   30.0580   27.9400   47.0110 N   0  0  0  0  0  0  0  0  0  0  0  0
   31.0560   28.2490   46.1020 C   0  0  0  0  0  0  0  0  0  0  0  0
   32.2290   27.4680   45.9000 C   0  0  0  0  0  0  0  0  0  0  0  0
   32.1740   26.1370   45.4350 C   0  0  0  0  0  3  0  0  0  0  0  0
   33.4490   25.6310   45.3620 N   0  0  0  0  0  0  0  0  0  0  0  0
   34.2920   26.6630   45.7880 C   0  0  0  0  0  3  0  0  0  0  0  0
   33.5110   27.6890   46.0760 N   0  0  0  0  0  0  0  0  0  0  0  0
   34.4230   28.6910   46.4210 C   0  0  0  0  0  0  0  0  0  0  0  0
   34.8680   29.3570   45.3510 N   0  0  0  0  0  0  0  0  0  0  0  0
   35.8090   30.3230   45.5030 C   0  0  0  0  0  3  0  0  0  0  0  0
   36.3370   30.6660   46.6790 N   0  0  0  0  0  0  0  0  0  0  0  0
   35.9170   30.0220   47.7860 C   0  0  0  0  0  0  0  0  0  0  0  0
   36.3750   30.2730   49.0510 C   0  0  0  0  0  3  0  0  0  0  0  0
   35.9160   29.5870   50.1360 C   0  0  0  0  0  3  0  0  0  0  0  0
   34.9500   28.5980   49.9590 C   0  0  0  0  0  3  0  0  0  0  0  0
   34.4540   28.3030   48.7140 C   0  0  0  0  0  3  0  0  0  0  0  0
   34.9470   29.0210   47.6590 C   0  0  0  0  0  0  0  0  0  0  0  0
   27.9270   28.9260   47.7700 N   0  0  0  0  0  0  0  0  0  0  0  0
   27.5390   30.0660   48.3730 C   0  0  0  0  0  3  0  0  0  0  0  0
   26.3750   30.0480   49.1230 C   0  0  0  0  0  3  0  0  0  0  0  0
   25.6170   28.8870   49.2570 C   0  0  0  0  0  0  0  0  0  0  0  0
   24.5440   28.8590   49.9440 O   0  0  0  0  0  0  0  0  0  0  0  0
   26.0380   27.7740   48.6380 N   0  0  0  0  0  0  0  0  0  0  0  0
   27.1900   27.8080   47.9030 C   0  0  0  0  0  0  0  0  0  0  0  0
   27.4880   26.7030   47.3670 O   0  0  0  0  0  0  0  0  0  0  0  0
   25.4980   26.9010   48.7170 H   0  0  0  0  0  0  0  0  0  0  0  0
   32.8590   33.4160   43.8220 N   0  0  0  0  0  0  0  0  0  0  0  0
   32.8260   33.8620   44.7490 H   0  0  0  0  0  0  0  0  0  0  0  0
   33.2610   33.9230   43.0200 H   0  0  0  0  0  0  0  0  0  0  0  0
  1 36  1  0  0  0  0
  1  6  1  0  0  0  0
  2  1  2  0  0  0  0
  3  2  1  0  0  0  0
  3  4  2  0  0  0  0
  4  5  1  0  0  0  0
  5  6  2  0  0  0  0
  5  7  1  0  0  0  0
  7  8  1  0  0  0  0
  7 11  1  0  0  0  0
  8  9  2  0  0  0  0
  9 10  1  0  0  0  0
  9 27  1  0  0  0  0
 11 10  2  0  0  0  0
 12 16  1  0  0  0  0
 12 11  1  0  0  0  0
 13 12  2  0  0  0  0
 14 13  1  0  0  0  0
 14 15  2  0  0  0  0
 15 16  1  0  0  0  0
 16 17  1  0  0  0  0
 17 26  1  0  0  0  0
 18 19  1  0  0  0  0
 18 17  2  0  0  0  0
 19 20  2  0  0  0  0
 20 21  1  0  0  0  0
 21 22  1  0  0  0  0
 22 23  2  0  0  0  0
 24 23  1  0  0  0  0
 25 24  2  0  0  0  0
 26 21  2  0  0  0  0
 26 25  1  0  0  0  0
 27 33  1  0  0  0  0
 27 28  1  0  0  0  0
 28 29  2  0  0  0  0
 29 30  1  0  0  0  0
 30 31  2  0  0  0  0
 32 35  1  0  0  0  0
 32 30  1  0  0  0  0
 33 32  1  0  0  0  0
 34 33  2  0  0  0  0
 36 37  1  0  0  0  0
 38 36  1  0  0  0  0
M  END
>  <minimizedAffinity>
-7.57019949

$$$$

 OpenBabel03272514493D

 38 43  0  0  0  0  0  0  0  0999 V2000
   33.8530   31.2550   42.5270 C   0  0  0  0  0  0  0  0  0  0  0  0
   32.6240   31.9540   42.3780 C   0  0  0  0  0  3  0  0  0  0  0  0
   31.7280   31.8700   43.4120 C   0  0  0  0  0  3  0  0  0  0  0  0
   32.1100   31.1290   44.4640 N   0  0  0  0  0  0  0  0  0  0  0  0
   33.2250   30.4820   44.6240 C   0  0  0  0  0  0  0  0  0  0  0  0
   34.1180   30.5510   43.6230 N   0  0  0  0  0  0  0  0  0  0  0  0
   33.3670   29.7880   45.8350 N   0  0  0  0  0  0  0  0  0  0  0  0
   34.3110   30.2170   46.7170 C   0  0  0  0  0  3  0  0  0  0  0  0
   34.2810   29.4040   47.8290 C   0  0  0  0  0  0  0  0  0  0  0  0
   33.3350   28.5040   47.6120 N   0  0  0  0  0  0  0  0  0  0  0  0
   32.7580   28.7290   46.3740 C   0  0  0  0  0  0  0  0  0  0  0  0
   31.7250   27.9270   45.8110 C   0  0  0  0  0  0  0  0  0  0  0  0
   31.9840   26.9560   44.8220 C   0  0  0  0  0  3  0  0  0  0  0  0
   30.8010   26.3610   44.4520 N   0  0  0  0  0  0  0  0  0  0  0  0
   29.8100   26.9770   45.2240 C   0  0  0  0  0  3  0  0  0  0  0  0
   30.4250   27.8650   45.9840 N   0  0  0  0  0  0  0  0  0  0  0  0
   29.3880   28.3810   46.7670 C   0  0  0  0  0  0  0  0  0  0  0  0
   29.1620   27.6370   47.8540 N   0  0  0  0  0  0  0  0  0  0  0  0
   28.1440   27.9640   48.6920 C   0  0  0  0  0  3  0  0  0  0  0  0
   27.3310   29.0040   48.5010 N   0  0  0  0  0  0  0  0  0  0  0  0
   27.5230   29.7820   47.4180 C   0  0  0  0  0  0  0  0  0  0  0  0
   26.7630   30.8750   47.1030 C   0  0  0  0  0  3  0  0  0  0  0  0
   27.0010   31.6260   45.9890 C   0  0  0  0  0  3  0  0  0  0  0  0
   28.0500   31.2740   45.1420 C   0  0  0  0  0  3  0  0  0  0  0  0
   28.8450   30.1880   45.4070 C   0  0  0  0  0  3  0  0  0  0  0  0
   28.5640   29.4690   46.5370 C   0  0  0  0  0  0  0  0  0  0  0  0
   35.1150   29.5100   48.9940 N   0  0  0  0  0  0  0  0  0  0  0  0
   34.6230   29.2690   50.2240 C   0  0  0  0  0  3  0  0  0  0  0  0
   35.4780   29.3870   51.3080 C   0  0  0  0  0  3  0  0  0  0  0  0
   36.8130   29.7440   51.1410 C   0  0  0  0  0  0  0  0  0  0  0  0
   37.6090   29.8550   52.1310 O   0  0  0  0  0  0  0  0  0  0  0  0
   37.2640   29.9730   49.8990 N   0  0  0  0  0  0  0  0  0  0  0  0
   36.4070   29.8540   48.8400 C   0  0  0  0  0  0  0  0  0  0  0  0
   36.9410   30.0930   47.7200 O   0  0  0  0  0  0  0  0  0  0  0  0
   38.2470   30.2360   49.7440 H   0  0  0  0  0  0  0  0  0  0  0  0
   34.8280   31.3340   41.4670 N   0  0  0  0  0  0  0  0  0  0  0  0
   35.7250   30.8350   41.5540 H   0  0  0  0  0  0  0  0  0  0  0  0
   34.6270   31.8890   40.6230 H   0  0  0  0  0  0  0  0  0  0  0  0
  1  6  1  0  0  0  0
  2  1  2  0  0  0  0
  2  3  1  0  0  0  0
  3  4  2  0  0  0  0
  4  5  1  0  0  0  0
  5  7  1  0  0  0  0
  6  5  2  0  0  0  0
  7 11  1  0  0  0  0
  7  8  1  0  0  0  0
  8  9  2  0  0  0  0
  9 27  1  0  0  0  0
 10  9  1  0  0  0  0
 11 10  2  0  0  0  0
 12 16  1  0  0  0  0
 12 11  1  0  0  0  0
 13 12  2  0  0  0  0
 14 13  1  0  0  0  0
 14 15  2  0  0  0  0
 15 16  1  0  0  0  0
 16 17  1  0  0  0  0
 17 18  1  0  0  0  0
 18 19  2  0  0  0  0
 20 19  1  0  0  0  0
 21 20  2  0  0  0  0
 22 21  1  0  0  0  0
 23 22  2  0  0  0  0
 24 25  2  0  0  0  0
 24 23  1  0  0  0  0
 25 26  1  0  0  0  0
 26 17  2  0  0  0  0
 26 21  1  0  0  0  0
 27 28  1  0  0  0  0
 28 29  2  0  0  0  0
 30 29  1  0  0  0  0
 30 31  2  0  0  0  0
 32 30  1  0  0  0  0
 33 27  1  0  0  0  0
 33 32  1  0  0  0  0
 34 33  2  0  0  0  0
 35 32  1  0  0  0  0
 36 37  1  0  0  0  0
 36  1  1  0  0  0  0
 38 36  1  0  0  0  0
M  END
>  <minimizedAffinity>
-6.90589905

$$$$

 OpenBabel03272514493D

 38 43  0  0  0  0  0  0  0  0999 V2000
   31.6520   25.0390   45.6050 C   0  0  0  0  0  0  0  0  0  0  0  0
   31.6030   24.9850   44.1850 C   0  0  0  0  0  3  0  0  0  0  0  0
   31.9720   26.1150   43.5040 C   0  0  0  0  0  3  0  0  0  0  0  0
   32.3450   27.1620   44.2570 N   0  0  0  0  0  0  0  0  0  0  0  0
   32.4000   27.2350   45.5530 C   0  0  0  0  0  0  0  0  0  0  0  0
   32.0420   26.1390   46.2410 N   0  0  0  0  0  0  0  0  0  0  0  0
   32.8360   28.4590   46.0840 N   0  0  0  0  0  0  0  0  0  0  0  0
   34.0290   28.4900   46.7380 C   0  0  0  0  0  3  0  0  0  0  0  0
   34.2640   29.7760   47.1730 C   0  0  0  0  0  0  0  0  0  0  0  0
   33.2260   30.5000   46.7840 N   0  0  0  0  0  0  0  0  0  0  0  0
   32.3280   29.6930   46.1050 C   0  0  0  0  0  0  0  0  0  0  0  0
   31.0860   30.1440   45.5740 C   0  0  0  0  0  0  0  0  0  0  0  0
   30.9720   31.3500   44.8520 C   0  0  0  0  0  3  0  0  0  0  0  0
   29.6590   31.5350   44.4890 N   0  0  0  0  0  0  0  0  0  0  0  0
   28.9660   30.4310   44.9950 C   0  0  0  0  0  3  0  0  0  0  0  0
   29.8610   29.6740   45.6040 N   0  0  0  0  0  0  0  0  0  0  0  0
   29.1090   28.5690   46.0160 C   0  0  0  0  0  0  0  0  0  0  0  0
   29.0090   27.6440   45.0570 N   0  0  0  0  0  0  0  0  0  0  0  0
   28.2590   26.5330   45.2710 C   0  0  0  0  0  3  0  0  0  0  0  0
   27.5960   26.2910   46.4030 N   0  0  0  0  0  0  0  0  0  0  0  0
   27.6700   27.1970   47.3980 C   0  0  0  0  0  0  0  0  0  0  0  0
   27.0400   27.0750   48.6070 C   0  0  0  0  0  3  0  0  0  0  0  0
   27.1480   28.0260   49.5780 C   0  0  0  0  0  3  0  0  0  0  0  0
   27.9210   29.1600   49.3390 C   0  0  0  0  0  3  0  0  0  0  0  0
   28.5760   29.3360   48.1460 C   0  0  0  0  0  3  0  0  0  0  0  0
   28.4360   28.3520   47.2060 C   0  0  0  0  0  0  0  0  0  0  0  0
   35.4080   30.2400   47.9070 N   0  0  0  0  0  0  0  0  0  0  0  0
   36.5530   30.5630   47.2760 C   0  0  0  0  0  3  0  0  0  0  0  0
   37.6210   31.0060   48.0400 C   0  0  0  0  0  3  0  0  0  0  0  0
   37.5230   31.1170   49.4250 C   0  0  0  0  0  0  0  0  0  0  0  0
   38.4990   31.5240   50.1380 O   0  0  0  0  0  0  0  0  0  0  0  0
   36.3650   30.7870   50.0130 N   0  0  0  0  0  0  0  0  0  0  0  0
   35.3210   30.3500   49.2460 C   0  0  0  0  0  0  0  0  0  0  0  0
   34.2820   30.0680   49.9070 O   0  0  0  0  0  0  0  0  0  0  0  0
   36.2620   30.8610   51.0350 H   0  0  0  0  0  0  0  0  0  0  0  0
   31.2860   23.8630   46.3560 N   0  0  0  0  0  0  0  0  0  0  0  0
   31.3150   23.8790   47.3850 H   0  0  0  0  0  0  0  0  0  0  0  0
   30.9950   23.0060   45.8630 H   0  0  0  0  0  0  0  0  0  0  0  0
  1  6  1  0  0  0  0
  1 36  1  0  0  0  0
  2  1  2  0  0  0  0
  3  2  1  0  0  0  0
  3  4  2  0  0  0  0
  4  5  1  0  0  0  0
  5  7  1  0  0  0  0
  5  6  2  0  0  0  0
  7 11  1  0  0  0  0
  7  8  1  0  0  0  0
  8  9  2  0  0  0  0
  9 27  1  0  0  0  0
 10  9  1  0  0  0  0
 11 10  2  0  0  0  0
 12 16  1  0  0  0  0
 12 11  1  0  0  0  0
 13 12  2  0  0  0  0
 14 13  1  0  0  0  0
 14 15  2  0  0  0  0
 15 16  1  0  0  0  0
 16 17  1  0  0  0  0
 17 26  1  0  0  0  0
 18 19  1  0  0  0  0
 18 17  2  0  0  0  0
 19 20  2  0  0  0  0
 20 21  1  0  0  0  0
 21 22  1  0  0  0  0
 22 23  2  0  0  0  0
 24 23  1  0  0  0  0
 25 24  2  0  0  0  0
 26 21  2  0  0  0  0
 26 25  1  0  0  0  0
 27 33  1  0  0  0  0
 28 27  1  0  0  0  0
 28 29  2  0  0  0  0
 29 30  1  0  0  0  0
 30 32  1  0  0  0  0
 30 31  2  0  0  0  0
 32 35  1  0  0  0  0
 33 34  2  0  0  0  0
 33 32  1  0  0  0  0
 36 37  1  0  0  0  0
 38 36  1  0  0  0  0
M  END
>  <minimizedAffinity>
-6.8473258

$$$$

 OpenBabel03272514493D

 38 43  0  0  0  0  0  0  0  0999 V2000
   29.5360   23.6760   44.9980 C   0  0  0  0  0  0  0  0  0  0  0  0
   28.7160   24.0600   43.9010 C   0  0  0  0  0  3  0  0  0  0  0  0
   28.4840   25.4000   43.7330 C   0  0  0  0  0  3  0  0  0  0  0  0
   29.0610   26.2150   44.6310 N   0  0  0  0  0  0  0  0  0  0  0  0
   29.8140   25.8900   45.6390 C   0  0  0  0  0  0  0  0  0  0  0  0
   30.0540   24.5810   45.8220 N   0  0  0  0  0  0  0  0  0  0  0  0
   30.2950   26.9530   46.4180 N   0  0  0  0  0  0  0  0  0  0  0  0
   31.6330   27.2060   46.4090 C   0  0  0  0  0  3  0  0  0  0  0  0
   31.8860   28.2810   47.2320 C   0  0  0  0  0  0  0  0  0  0  0  0
   30.7170   28.6620   47.7240 N   0  0  0  0  0  0  0  0  0  0  0  0
   29.7170   27.8440   47.2270 C   0  0  0  0  0  0  0  0  0  0  0  0
   28.3410   27.9570   47.5730 C   0  0  0  0  0  0  0  0  0  0  0  0
   27.7530   27.1640   48.5810 C   0  0  0  0  0  3  0  0  0  0  0  0
   26.4170   27.4720   48.6750 N   0  0  0  0  0  0  0  0  0  0  0  0
   26.1870   28.4620   47.7150 C   0  0  0  0  0  3  0  0  0  0  0  0
   27.3470   28.6890   47.1250 N   0  0  0  0  0  0  0  0  0  0  0  0
   27.0520   29.7280   46.2380 C   0  0  0  0  0  0  0  0  0  0  0  0
   27.1390   30.9270   46.8230 N   0  0  0  0  0  0  0  0  0  0  0  0
   26.8220   32.0430   46.1170 C   0  0  0  0  0  3  0  0  0  0  0  0
   26.4180   32.0280   44.8460 N   0  0  0  0  0  0  0  0  0  0  0  0
   26.3170   30.8410   44.2160 C   0  0  0  0  0  0  0  0  0  0  0  0
   25.9150   30.6830   42.9180 C   0  0  0  0  0  3  0  0  0  0  0  0
   25.8280   29.4550   42.3320 C   0  0  0  0  0  3  0  0  0  0  0  0
   26.1570   28.3210   43.0720 C   0  0  0  0  0  3  0  0  0  0  0  0
   26.5670   28.4180   44.3780 C   0  0  0  0  0  3  0  0  0  0  0  0
   26.6380   29.6740   44.9190 C   0  0  0  0  0  0  0  0  0  0  0  0
   33.1670   28.8710   47.5060 N   0  0  0  0  0  0  0  0  0  0  0  0
   33.9520   28.3980   48.4930 C   0  0  0  0  0  3  0  0  0  0  0  0
   35.1760   29.0100   48.7070 C   0  0  0  0  0  3  0  0  0  0  0  0
   35.5940   30.0860   47.9280 C   0  0  0  0  0  0  0  0  0  0  0  0
   36.7190   30.6560   48.1150 O   0  0  0  0  0  0  0  0  0  0  0  0
   34.7830   30.5240   46.9550 N   0  0  0  0  0  0  0  0  0  0  0  0
   33.5770   29.9110   46.7570 C   0  0  0  0  0  0  0  0  0  0  0  0
   32.8980   30.4080   45.8140 O   0  0  0  0  0  0  0  0  0  0  0  0
   35.0650   31.3160   46.3610 H   0  0  0  0  0  0  0  0  0  0  0  0
   29.8150   22.2750   45.1970 N   0  0  0  0  0  0  0  0  0  0  0  0
   30.4060   21.9750   45.9850 H   0  0  0  0  0  0  0  0  0  0  0  0
   29.4230   21.5750   44.5510 H   0  0  0  0  0  0  0  0  0  0  0  0
  1 36  1  0  0  0  0
  1  6  1  0  0  0  0
  2  1  2  0  0  0  0
  3  2  1  0  0  0  0
  3  4  2  0  0  0  0
  4  5  1  0  0  0  0
  5  6  2  0  0  0  0
  5  7  1  0  0  0  0
  7 11  1  0  0  0  0
  8  7  1  0  0  0  0
  8  9  2  0  0  0  0
  9 27  1  0  0  0  0
  9 10  1  0  0  0  0
 11 12  1  0  0  0  0
 11 10  2  0  0  0  0
 12 13  2  0  0  0  0
 13 14  1  0  0  0  0
 15 14  2  0  0  0  0
 16 12  1  0  0  0  0
 16 15  1  0  0  0  0
 17 18  1  0  0  0  0
 17 16  1  0  0  0  0
 19 18  2  0  0  0  0
 20 19  1  0  0  0  0
 21 20  2  0  0  0  0
 21 26  1  0  0  0  0
 22 21  1  0  0  0  0
 23 22  2  0  0  0  0
 23 24  1  0  0  0  0
 24 25  2  0  0  0  0
 25 26  1  0  0  0  0
 26 17  2  0  0  0  0
 27 28  1  0  0  0  0
 28 29  2  0  0  0  0
 30 31  2  0  0  0  0
 30 29  1  0  0  0  0
 32 30  1  0  0  0  0
 33 32  1  0  0  0  0
 33 27  1  0  0  0  0
 34 33  2  0  0  0  0
 35 32  1  0  0  0  0
 36 37  1  0  0  0  0
 38 36  1  0  0  0  0
M  END
>  <minimizedAffinity>
-6.72495985

$$$$

 OpenBabel03272514493D

 38 43  0  0  0  0  0  0  0  0999 V2000
   28.0090   28.8200   49.2940 C   0  0  0  0  0  0  0  0  0  0  0  0
   27.5110   27.6700   49.9650 C   0  0  0  0  0  3  0  0  0  0  0  0
   28.3980   26.6550   50.2100 C   0  0  0  0  0  3  0  0  0  0  0  0
   29.6560   26.8570   49.7850 N   0  0  0  0  0  0  0  0  0  0  0  0
   30.1350   27.8970   49.1720 C   0  0  0  0  0  0  0  0  0  0  0  0
   29.2830   28.9030   48.9220 N   0  0  0  0  0  0  0  0  0  0  0  0
   31.5000   27.8460   48.8460 N   0  0  0  0  0  0  0  0  0  0  0  0
   32.3450   28.7080   49.4750 C   0  0  0  0  0  3  0  0  0  0  0  0
   33.6250   28.4900   49.0130 C   0  0  0  0  0  0  0  0  0  0  0  0
   33.5420   27.5140   48.1220 N   0  0  0  0  0  0  0  0  0  0  0  0
   32.2250   27.1030   48.0070 C   0  0  0  0  0  0  0  0  0  0  0  0
   31.7750   26.0890   47.1150 C   0  0  0  0  0  0  0  0  0  0  0  0
   30.4120   25.7440   46.9970 C   0  0  0  0  0  3  0  0  0  0  0  0
   30.2830   24.7240   46.0850 N   0  0  0  0  0  0  0  0  0  0  0  0
   31.5790   24.4430   45.6430 C   0  0  0  0  0  3  0  0  0  0  0  0
   32.3820   25.2760   46.2820 N   0  0  0  0  0  0  0  0  0  0  0  0
   33.6360   24.9830   45.7380 C   0  0  0  0  0  0  0  0  0  0  0  0
   33.8650   25.6610   44.6090 N   0  0  0  0  0  0  0  0  0  0  0  0
   35.0130   25.4460   43.9180 C   0  0  0  0  0  3  0  0  0  0  0  0
   35.9570   24.5820   44.2960 N   0  0  0  0  0  0  0  0  0  0  0  0
   35.7690   23.8780   45.4300 C   0  0  0  0  0  0  0  0  0  0  0  0
   36.6530   22.9610   45.9290 C   0  0  0  0  0  3  0  0  0  0  0  0
   36.4080   22.2750   47.0820 C   0  0  0  0  0  3  0  0  0  0  0  0
   35.2240   22.5080   47.7770 C   0  0  0  0  0  3  0  0  0  0  0  0
   34.3000   23.4160   47.3230 C   0  0  0  0  0  3  0  0  0  0  0  0
   34.5940   24.0790   46.1630 C   0  0  0  0  0  0  0  0  0  0  0  0
   34.8150   29.1870   49.4160 N   0  0  0  0  0  0  0  0  0  0  0  0
   35.4430   28.8790   50.5670 C   0  0  0  0  0  3  0  0  0  0  0  0
   36.5860   29.5870   50.8990 C   0  0  0  0  0  3  0  0  0  0  0  0
   37.0820   30.5920   50.0720 C   0  0  0  0  0  0  0  0  0  0  0  0
   38.1340   31.2490   50.3680 O   0  0  0  0  0  0  0  0  0  0  0  0
   36.4270   30.8650   48.9350 N   0  0  0  0  0  0  0  0  0  0  0  0
   35.3000   30.1590   48.6220 C   0  0  0  0  0  0  0  0  0  0  0  0
   34.7680   30.5010   47.5280 O   0  0  0  0  0  0  0  0  0  0  0  0
   36.7710   31.6010   48.3020 H   0  0  0  0  0  0  0  0  0  0  0  0
   27.1080   29.9160   49.0340 N   0  0  0  0  0  0  0  0  0  0  0  0
   27.4480   30.7580   48.5490 H   0  0  0  0  0  0  0  0  0  0  0  0
   26.1240   29.8550   49.3330 H   0  0  0  0  0  0  0  0  0  0  0  0
  1  2  1  0  0  0  0
  2  3  2  0  0  0  0
  4  3  1  0  0  0  0
  5  4  2  0  0  0  0
  6  5  1  0  0  0  0
  6  1  2  0  0  0  0
  7  5  1  0  0  0  0
  7  8  1  0  0  0  0
  9 27  1  0  0  0  0
  9  8  2  0  0  0  0
 10  9  1  0  0  0  0
 11 10  2  0  0  0  0
 11  7  1  0  0  0  0
 12 11  1  0  0  0  0
 13 12  2  0  0  0  0
 14 13  1  0  0  0  0
 15 14  2  0  0  0  0
 15 16  1  0  0  0  0
 16 12  1  0  0  0  0
 17 26  1  0  0  0  0
 17 16  1  0  0  0  0
 18 17  2  0  0  0  0
 19 20  2  0  0  0  0
 19 18  1  0  0  0  0
 20 21  1  0  0  0  0
 21 22  2  0  0  0  0
 21 26  1  0  0  0  0
 22 23  1  0  0  0  0
 23 24  2  0  0  0  0
 25 24  1  0  0  0  0
 26 25  2  0  0  0  0
 27 28  1  0  0  0  0
 28 29  2  0  0  0  0
 30 31  2  0  0  0  0
 30 29  1  0  0  0  0
 32 30  1  0  0  0  0
 33 32  1  0  0  0  0
 33 27  1  0  0  0  0
 34 33  2  0  0  0  0
 35 32  1  0  0  0  0
 36  1  1  0  0  0  0
 36 38  1  0  0  0  0
 37 36  1  0  0  0  0
M  END
>  <minimizedAffinity>
-6.71327496

$$$$

 OpenBabel03272514493D

 38 43  0  0  0  0  0  0  0  0999 V2000
   28.1060   28.9720   49.7460 C   0  0  0  0  0  0  0  0  0  0  0  0
   27.6130   27.8770   50.5070 C   0  0  0  0  0  3  0  0  0  0  0  0
   28.4640   26.8230   50.7090 C   0  0  0  0  0  3  0  0  0  0  0  0
   29.6850   26.9370   50.1610 N   0  0  0  0  0  0  0  0  0  0  0  0
   30.1580   27.9260   49.4640 C   0  0  0  0  0  0  0  0  0  0  0  0
   29.3410   28.9700   49.2540 N   0  0  0  0  0  0  0  0  0  0  0  0
   31.4810   27.7850   49.0150 N   0  0  0  0  0  0  0  0  0  0  0  0
   32.4280   28.6190   49.5270 C   0  0  0  0  0  3  0  0  0  0  0  0
   33.6440   28.3120   48.9580 C   0  0  0  0  0  0  0  0  0  0  0  0
   33.4250   27.3110   48.1190 N   0  0  0  0  0  0  0  0  0  0  0  0
   32.0820   26.9730   48.1430 C   0  0  0  0  0  0  0  0  0  0  0  0
   31.4950   25.9550   47.3390 C   0  0  0  0  0  0  0  0  0  0  0  0
   32.0390   24.6570   47.2570 C   0  0  0  0  0  3  0  0  0  0  0  0
   31.2820   23.9040   46.3920 N   0  0  0  0  0  0  0  0  0  0  0  0
   30.2650   24.7520   45.9410 C   0  0  0  0  0  3  0  0  0  0  0  0
   30.4570   25.9160   46.5370 N   0  0  0  0  0  0  0  0  0  0  0  0
   29.3720   26.6780   46.0940 C   0  0  0  0  0  0  0  0  0  0  0  0
   28.2860   26.4930   46.8510 N   0  0  0  0  0  0  0  0  0  0  0  0
   27.1230   27.1120   46.5200 C   0  0  0  0  0  3  0  0  0  0  0  0
   26.9840   27.9150   45.4650 N   0  0  0  0  0  0  0  0  0  0  0  0
   28.0540   28.1310   44.6750 C   0  0  0  0  0  0  0  0  0  0  0  0
   28.0480   28.9290   43.5630 C   0  0  0  0  0  3  0  0  0  0  0  0
   29.1620   29.1090   42.7970 C   0  0  0  0  0  3  0  0  0  0  0  0
   30.3460   28.4650   43.1510 C   0  0  0  0  0  3  0  0  0  0  0  0
   30.4100   27.6540   44.2560 C   0  0  0  0  0  3  0  0  0  0  0  0
   29.2650   27.5070   44.9910 C   0  0  0  0  0  0  0  0  0  0  0  0
   34.9020   28.9540   49.2190 N   0  0  0  0  0  0  0  0  0  0  0  0
   35.5620   28.7420   50.3730 C   0  0  0  0  0  3  0  0  0  0  0  0
   36.7720   29.3900   50.5660 C   0  0  0  0  0  3  0  0  0  0  0  0
   37.3010   30.2390   49.5970 C   0  0  0  0  0  0  0  0  0  0  0  0
   38.4130   30.8390   49.7630 O   0  0  0  0  0  0  0  0  0  0  0  0
   36.6120   30.4200   48.4610 N   0  0  0  0  0  0  0  0  0  0  0  0
   35.4190   29.7760   48.2880 C   0  0  0  0  0  0  0  0  0  0  0  0
   34.8610   30.0220   47.1810 O   0  0  0  0  0  0  0  0  0  0  0  0
   36.9790   31.0400   47.7260 H   0  0  0  0  0  0  0  0  0  0  0  0
   27.2440   30.1080   49.5260 N   0  0  0  0  0  0  0  0  0  0  0  0
   27.5810   30.9120   48.9770 H   0  0  0  0  0  0  0  0  0  0  0  0
   26.2910   30.1150   49.9170 H   0  0  0  0  0  0  0  0  0  0  0  0
  1  2  1  0  0  0  0
  2  3  2  0  0  0  0
  4  3  1  0  0  0  0
  5  4  2  0  0  0  0
  6  5  1  0  0  0  0
  6  1  2  0  0  0  0
  7  5  1  0  0  0  0
  7  8  1  0  0  0  0
  9 27  1  0  0  0  0
  9  8  2  0  0  0  0
 10 11  2  0  0  0  0
 10  9  1  0  0  0  0
 11  7  1  0  0  0  0
 12 11  1  0  0  0  0
 13 12  2  0  0  0  0
 14 13  1  0  0  0  0
 15 14  2  0  0  0  0
 15 16  1  0  0  0  0
 16 12  1  0  0  0  0
 17 16  1  0  0  0  0
 17 18  1  0  0  0  0
 19 18  2  0  0  0  0
 20 19  1  0  0  0  0
 21 26  1  0  0  0  0
 21 20  2  0  0  0  0
 22 21  1  0  0  0  0
 23 24  1  0  0  0  0
 23 22  2  0  0  0  0
 24 25  2  0  0  0  0
 25 26  1  0  0  0  0
 26 17  2  0  0  0  0
 27 28  1  0  0  0  0
 28 29  2  0  0  0  0
 30 31  2  0  0  0  0
 30 29  1  0  0  0  0
 32 30  1  0  0  0  0
 33 32  1  0  0  0  0
 33 27  1  0  0  0  0
 34 33  2  0  0  0  0
 35 32  1  0  0  0  0
 36  1  1  0  0  0  0
 36 38  1  0  0  0  0
 37 36  1  0  0  0  0
M  END
>  <minimizedAffinity>
-6.70394754

$$$$

 OpenBabel03272514493D

 38 43  0  0  0  0  0  0  0  0999 V2000
   33.2600   29.7880   46.4470 C   0  0  0  0  0  0  0  0  0  0  0  0
   34.0540   28.8060   45.7940 C   0  0  0  0  0  3  0  0  0  0  0  0
   33.4820   28.1360   44.7450 C   0  0  0  0  0  3  0  0  0  0  0  0
   32.2210   28.4820   44.4420 N   0  0  0  0  0  0  0  0  0  0  0  0
   31.4760   29.3750   45.0220 C   0  0  0  0  0  0  0  0  0  0  0  0
   32.0170   30.0430   46.0530 N   0  0  0  0  0  0  0  0  0  0  0  0
   30.1860   29.5390   44.4930 N   0  0  0  0  0  0  0  0  0  0  0  0
   29.8870   30.7160   43.8770 C   0  0  0  0  0  3  0  0  0  0  0  0
   28.5840   30.6660   43.4340 C   0  0  0  0  0  0  0  0  0  0  0  0
   28.1130   29.4780   43.7820 N   0  0  0  0  0  0  0  0  0  0  0  0
   29.0990   28.7660   44.4430 C   0  0  0  0  0  0  0  0  0  0  0  0
   28.9230   27.4590   44.9810 C   0  0  0  0  0  0  0  0  0  0  0  0
   28.7360   26.3290   44.1590 C   0  0  0  0  0  3  0  0  0  0  0  0
   28.5690   25.2180   44.9510 N   0  0  0  0  0  0  0  0  0  0  0  0
   28.6540   25.6760   46.2690 C   0  0  0  0  0  3  0  0  0  0  0  0
   28.8620   26.9790   46.2010 N   0  0  0  0  0  0  0  0  0  0  0  0
   29.0050   27.3460   47.5420 C   0  0  0  0  0  0  0  0  0  0  0  0
   30.2590   27.1880   47.9760 N   0  0  0  0  0  0  0  0  0  0  0  0
   30.5570   27.4400   49.2760 C   0  0  0  0  0  3  0  0  0  0  0  0
   29.6620   27.8450   50.1780 N   0  0  0  0  0  0  0  0  0  0  0  0
   28.3850   28.0190   49.7840 C   0  0  0  0  0  0  0  0  0  0  0  0
   27.3690   28.4280   50.6050 C   0  0  0  0  0  3  0  0  0  0  0  0
   26.0920   28.5830   50.1520 C   0  0  0  0  0  3  0  0  0  0  0  0
   25.8050   28.3190   48.8140 C   0  0  0  0  0  3  0  0  0  0  0  0
   26.7840   27.9060   47.9460 C   0  0  0  0  0  3  0  0  0  0  0  0
   28.0480   27.7670   48.4500 C   0  0  0  0  0  0  0  0  0  0  0  0
   27.8730   31.7010   42.7350 N   0  0  0  0  0  0  0  0  0  0  0  0
   28.0630   31.9050   41.4180 C   0  0  0  0  0  3  0  0  0  0  0  0
   27.3470   32.9180   40.8010 C   0  0  0  0  0  3  0  0  0  0  0  0
   26.4510   33.7100   41.5160 C   0  0  0  0  0  0  0  0  0  0  0  0
   25.7860   34.6440   40.9580 O   0  0  0  0  0  0  0  0  0  0  0  0
   26.2900   33.4720   42.8250 N   0  0  0  0  0  0  0  0  0  0  0  0
   27.0060   32.4700   43.4190 C   0  0  0  0  0  0  0  0  0  0  0  0
   26.7730   32.3370   44.6540 O   0  0  0  0  0  0  0  0  0  0  0  0
   25.6340   34.0390   43.3790 H   0  0  0  0  0  0  0  0  0  0  0  0
   33.8340   30.5250   47.5470 N   0  0  0  0  0  0  0  0  0  0  0  0
   33.2770   31.2400   48.0340 H   0  0  0  0  0  0  0  0  0  0  0  0
   34.8020   30.3350   47.8440 H   0  0  0  0  0  0  0  0  0  0  0  0
  1 36  1  0  0  0  0
  2  1  2  0  0  0  0
  3  2  1  0  0  0  0
  4  3  2  0  0  0  0
  4  5  1  0  0  0  0
  5  6  2  0  0  0  0
  6  1  1  0  0  0  0
  7  5  1  0  0  0  0
  8  7  1  0  0  0  0
  9 10  1  0  0  0  0
  9  8  2  0  0  0  0
 10 11  2  0  0  0  0
 11  7  1  0  0  0  0
 11 12  1  0  0  0  0
 12 16  1  0  0  0  0
 13 14  1  0  0  0  0
 13 12  2  0  0  0  0
 14 15  2  0  0  0  0
 16 15  1  0  0  0  0
 16 17  1  0  0  0  0
 17 18  2  0  0  0  0
 17 26  1  0  0  0  0
 18 19  1  0  0  0  0
 19 20  2  0  0  0  0
 21 20  1  0  0  0  0
 21 22  1  0  0  0  0
 23 22  2  0  0  0  0
 24 23  1  0  0  0  0
 25 26  1  0  0  0  0
 25 24  2  0  0  0  0
 26 21  2  0  0  0  0
 27 33  1  0  0  0  0
 27  9  1  0  0  0  0
 28 27  1  0  0  0  0
 29 28  2  0  0  0  0
 29 30  1  0  0  0  0
 30 32  1  0  0  0  0
 31 30  2  0  0  0  0
 32 35  1  0  0  0  0
 32 33  1  0  0  0  0
 33 34  2  0  0  0  0
 36 38  1  0  0  0  0
 36 37  1  0  0  0  0
M  END
>  <minimizedAffinity>
-6.67714262

$$$$
