
 OpenBabel03272514423D

 30 34  0  0  1  0  0  0  0  0999 V2000
   33.1210   27.4460   47.4490 C   0  0  1  0  0  3  0  0  0  0  0  0
   33.9200   26.1670   47.2310 C   0  0  0  0  0  2  0  0  0  0  0  0
   32.8970   25.0780   47.0390 C   0  0  0  0  0  2  0  0  0  0  0  0
   31.5990   25.5580   47.5780 C   0  0  0  0  0  2  0  0  0  0  0  0
   31.9200   26.9080   48.1500 C   0  0  2  0  0  3  0  0  0  0  0  0
   30.7620   27.7780   47.8930 C   0  0  0  0  0  0  0  0  0  0  0  0
   30.5230   28.5760   46.8030 C   0  0  0  0  0  3  0  0  0  0  0  0
   29.4270   29.3810   46.5930 C   0  0  0  0  0  3  0  0  0  0  0  0
   28.4460   29.4130   47.5600 C   0  0  0  0  0  3  0  0  0  0  0  0
   28.6120   28.6390   48.6870 C   0  0  0  0  0  0  0  0  0  0  0  0
   27.5910   28.7210   49.6010 C   0  0  0  0  0  3  0  0  0  0  0  0
   27.6600   27.9850   50.7550 C   0  0  0  0  0  3  0  0  0  0  0  0
   28.7520   27.1840   50.9600 C   0  0  0  0  0  3  0  0  0  0  0  0
   29.7490   27.1400   50.0070 C   0  0  0  0  0  3  0  0  0  0  0  0
   29.7350   27.8500   48.8420 C   0  0  0  0  0  0  0  0  0  0  0  0
   35.5100   30.0770   48.4220 C   0  0  0  0  0  0  0  0  0  0  0  0
   35.2580   30.3380   49.7660 C   0  0  0  0  0  3  0  0  0  0  0  0
   34.2470   29.5840   50.3280 C   0  0  0  0  0  3  0  0  0  0  0  0
   33.5340   28.6460   49.6360 C   0  0  0  0  0  3  0  0  0  0  0  0
   33.8190   28.4230   48.3070 C   0  0  0  0  0  0  0  0  0  0  0  0
   34.8050   29.1610   47.7680 N   0  0  0  0  0  0  0  0  0  0  0  0
   37.8130   31.2990   45.7780 C   0  0  0  0  0  3  0  0  0  0  0  0
   36.7920   30.5610   46.4030 C   0  0  0  0  0  3  0  0  0  0  0  0
   36.5440   30.8090   47.7380 C   0  0  0  0  0  0  0  0  0  0  0  0
   37.2830   31.7410   48.3890 N   0  0  0  0  0  0  0  0  0  0  0  0
   38.2680   32.4510   47.7800 C   0  0  0  0  0  0  0  0  0  0  0  0
   38.5120   32.2110   46.4750 N   0  0  0  0  0  0  0  0  0  0  0  0
   39.0320   33.4170   48.4520 N   0  0  0  0  0  0  0  0  0  0  0  0
   39.7690   33.9320   47.9500 H   0  0  0  0  0  0  0  0  0  0  0  0
   38.8560   33.6120   49.4480 H   0  0  0  0  0  0  0  0  0  0  0  0
  1  5  1  0  0  0  0
  1 20  1  1  0  0  0
  2  1  1  0  0  0  0
  3  2  1  0  0  0  0
  3  4  1  0  0  0  0
  4  5  1  0  0  0  0
  5  6  1  6  0  0  0
  6 15  1  0  0  0  0
  7  6  2  0  0  0  0
  8  7  1  0  0  0  0
  8  9  2  0  0  0  0
  9 10  1  0  0  0  0
 10 15  2  0  0  0  0
 10 11  1  0  0  0  0
 11 12  2  0  0  0  0
 12 13  1  0  0  0  0
 14 13  2  0  0  0  0
 15 14  1  0  0  0  0
 16 17  1  0  0  0  0
 17 18  2  0  0  0  0
 19 18  1  0  0  0  0
 20 19  2  0  0  0  0
 21 20  1  0  0  0  0
 21 16  2  0  0  0  0
 22 23  2  0  0  0  0
 22 27  1  0  0  0  0
 23 24  1  0  0  0  0
 24 25  2  0  0  0  0
 24 16  1  0  0  0  0
 26 25  1  0  0  0  0
 26 28  1  0  0  0  0
 27 26  2  0  0  0  0
 28 30  1  0  0  0  0
 29 28  1  0  0  0  0
M  END
>  <minimizedAffinity>
-8.02609444

$$$$

 OpenBabel03272514423D

 30 34  0  0  1  0  0  0  0  0999 V2000
   34.4360   29.3390   45.2530 C   0  0  1  0  0  3  0  0  0  0  0  0
   35.0310   29.4910   43.8580 C   0  0  0  0  0  2  0  0  0  0  0  0
   36.5060   29.7180   44.0690 C   0  0  0  0  0  2  0  0  0  0  0  0
   36.7130   30.1540   45.4730 C   0  0  0  0  0  2  0  0  0  0  0  0
   35.3250   30.2470   46.0360 C   0  0  2  0  0  3  0  0  0  0  0  0
   35.3890   29.7970   47.4340 C   0  0  0  0  0  0  0  0  0  0  0  0
   34.6050   28.8640   48.0640 C   0  0  0  0  0  3  0  0  0  0  0  0
   34.6910   28.4660   49.3790 C   0  0  0  0  0  3  0  0  0  0  0  0
   35.6540   29.0460   50.1750 C   0  0  0  0  0  3  0  0  0  0  0  0
   36.4820   29.9940   49.6160 C   0  0  0  0  0  0  0  0  0  0  0  0
   37.4180   30.5210   50.4700 C   0  0  0  0  0  3  0  0  0  0  0  0
   38.2920   31.4690   50.0080 C   0  0  0  0  0  3  0  0  0  0  0  0
   38.2050   31.8630   48.7000 C   0  0  0  0  0  3  0  0  0  0  0  0
   37.2440   31.2990   47.8850 C   0  0  0  0  0  3  0  0  0  0  0  0
   36.3480   30.3530   48.2890 C   0  0  0  0  0  0  0  0  0  0  0  0
   30.8950   29.4010   46.2650 C   0  0  0  0  0  0  0  0  0  0  0  0
   30.3400   30.5110   45.6340 C   0  0  0  0  0  3  0  0  0  0  0  0
   31.2170   31.2350   44.8500 C   0  0  0  0  0  3  0  0  0  0  0  0
   32.5330   30.9050   44.6920 C   0  0  0  0  0  3  0  0  0  0  0  0
   33.0360   29.7980   45.3370 C   0  0  0  0  0  0  0  0  0  0  0  0
   32.1770   29.0980   46.0970 N   0  0  0  0  0  0  0  0  0  0  0  0
   29.8010   26.9900   48.8700 C   0  0  0  0  0  3  0  0  0  0  0  0
   30.6490   27.7800   48.0720 C   0  0  0  0  0  3  0  0  0  0  0  0
   30.0680   28.5760   47.1070 C   0  0  0  0  0  0  0  0  0  0  0  0
   28.7190   28.5690   46.9640 N   0  0  0  0  0  0  0  0  0  0  0  0
   27.9050   27.8040   47.7370 C   0  0  0  0  0  0  0  0  0  0  0  0
   28.4720   27.0250   48.6820 N   0  0  0  0  0  0  0  0  0  0  0  0
   26.5090   27.7960   47.5910 N   0  0  0  0  0  0  0  0  0  0  0  0
   25.9310   27.2010   48.2010 H   0  0  0  0  0  0  0  0  0  0  0  0
   26.0630   28.3870   46.8750 H   0  0  0  0  0  0  0  0  0  0  0  0
  1 20  1  6  0  0  0
  1  5  1  0  0  0  0
  2  3  1  0  0  0  0
  2  1  1  0  0  0  0
  3  4  1  0  0  0  0
  4  5  1  0  0  0  0
  5  6  1  1  0  0  0
  6  7  2  0  0  0  0
  6 15  1  0  0  0  0
  7  8  1  0  0  0  0
  8  9  2  0  0  0  0
 10  9  1  0  0  0  0
 10 11  1  0  0  0  0
 12 11  2  0  0  0  0
 13 12  1  0  0  0  0
 14 15  1  0  0  0  0
 14 13  2  0  0  0  0
 15 10  2  0  0  0  0
 16 24  1  0  0  0  0
 17 16  2  0  0  0  0
 18 17  1  0  0  0  0
 19 18  2  0  0  0  0
 19 20  1  0  0  0  0
 20 21  2  0  0  0  0
 21 16  1  0  0  0  0
 23 22  2  0  0  0  0
 24 23  1  0  0  0  0
 25 24  2  0  0  0  0
 25 26  1  0  0  0  0
 26 27  2  0  0  0  0
 27 22  1  0  0  0  0
 28 26  1  0  0  0  0
 28 29  1  0  0  0  0
 30 28  1  0  0  0  0
M  END
>  <minimizedAffinity>
-7.3733182

$$$$

 OpenBabel03272514423D

 30 34  0  0  1  0  0  0  0  0999 V2000
   33.0700   27.7620   47.3210 C   0  0  1  0  0  3  0  0  0  0  0  0
   33.8810   26.7290   46.5490 C   0  0  0  0  0  2  0  0  0  0  0  0
   32.9400   25.5790   46.3000 C   0  0  0  0  0  2  0  0  0  0  0  0
   31.8090   25.6880   47.2550 C   0  0  0  0  0  2  0  0  0  0  0  0
   32.1610   26.8750   48.1040 C   0  0  2  0  0  3  0  0  0  0  0  0
   30.9090   27.5850   48.4040 C   0  0  0  0  0  0  0  0  0  0  0  0
   30.2620   27.6950   49.6090 C   0  0  0  0  0  3  0  0  0  0  0  0
   29.0870   28.3680   49.8570 C   0  0  0  0  0  3  0  0  0  0  0  0
   28.4680   29.0100   48.8070 C   0  0  0  0  0  3  0  0  0  0  0  0
   29.0570   28.9450   47.5630 C   0  0  0  0  0  0  0  0  0  0  0  0
   28.3830   29.6120   46.5690 C   0  0  0  0  0  3  0  0  0  0  0  0
   28.8890   29.6120   45.2960 C   0  0  0  0  0  3  0  0  0  0  0  0
   30.0580   28.9420   45.0530 C   0  0  0  0  0  3  0  0  0  0  0  0
   30.6930   28.2880   46.0890 C   0  0  0  0  0  3  0  0  0  0  0  0
   30.2360   28.2540   47.3750 C   0  0  0  0  0  0  0  0  0  0  0  0
   35.6870   30.1160   48.4070 C   0  0  0  0  0  0  0  0  0  0  0  0
   35.5640   30.2080   49.7900 C   0  0  0  0  0  3  0  0  0  0  0  0
   34.5580   29.4370   50.3390 C   0  0  0  0  0  3  0  0  0  0  0  0
   33.7340   28.6370   49.5980 C   0  0  0  0  0  3  0  0  0  0  0  0
   33.8950   28.5790   48.2320 C   0  0  0  0  0  0  0  0  0  0  0  0
   34.8760   29.3320   47.7060 N   0  0  0  0  0  0  0  0  0  0  0  0
   37.9640   31.4240   45.7800 C   0  0  0  0  0  3  0  0  0  0  0  0
   36.9600   30.6550   46.3950 C   0  0  0  0  0  3  0  0  0  0  0  0
   36.7050   30.8800   47.7320 C   0  0  0  0  0  0  0  0  0  0  0  0
   37.4210   31.8220   48.3960 N   0  0  0  0  0  0  0  0  0  0  0  0
   38.3900   32.5620   47.7970 C   0  0  0  0  0  0  0  0  0  0  0  0
   38.6400   32.3430   46.4890 N   0  0  0  0  0  0  0  0  0  0  0  0
   39.1310   33.5370   48.4810 N   0  0  0  0  0  0  0  0  0  0  0  0
   39.8560   34.0740   47.9850 H   0  0  0  0  0  0  0  0  0  0  0  0
   38.9500   33.7150   49.4790 H   0  0  0  0  0  0  0  0  0  0  0  0
  1  5  1  0  0  0  0
  1 20  1  1  0  0  0
  2  1  1  0  0  0  0
  3  2  1  0  0  0  0
  3  4  1  0  0  0  0
  4  5  1  0  0  0  0
  5  6  1  6  0  0  0
  6  7  1  0  0  0  0
  7  8  2  0  0  0  0
  9  8  1  0  0  0  0
 10  9  2  0  0  0  0
 11 10  1  0  0  0  0
 12 11  2  0  0  0  0
 13 12  1  0  0  0  0
 13 14  2  0  0  0  0
 14 15  1  0  0  0  0
 15 10  1  0  0  0  0
 15  6  2  0  0  0  0
 16 17  1  0  0  0  0
 17 18  2  0  0  0  0
 19 18  1  0  0  0  0
 20 19  2  0  0  0  0
 21 20  1  0  0  0  0
 21 16  2  0  0  0  0
 22 23  2  0  0  0  0
 22 27  1  0  0  0  0
 23 24  1  0  0  0  0
 24 25  2  0  0  0  0
 24 16  1  0  0  0  0
 26 25  1  0  0  0  0
 26 28  1  0  0  0  0
 27 26  2  0  0  0  0
 28 30  1  0  0  0  0
 29 28  1  0  0  0  0
M  END
>  <minimizedAffinity>
-7.24326658

$$$$

 OpenBabel03272514423D

 30 34  0  0  1  0  0  0  0  0999 V2000
   34.1890   29.7000   48.3060 C   0  0  1  0  0  3  0  0  0  0  0  0
   34.5070   29.9980   49.7670 C   0  0  0  0  0  2  0  0  0  0  0  0
   35.7110   30.9040   49.7420 C   0  0  0  0  0  2  0  0  0  0  0  0
   36.3640   30.7740   48.4160 C   0  0  0  0  0  2  0  0  0  0  0  0
   35.5580   29.7210   47.7130 C   0  0  2  0  0  3  0  0  0  0  0  0
   35.4800   30.1030   46.2960 C   0  0  0  0  0  0  0  0  0  0  0  0
   34.3640   30.2190   45.5060 C   0  0  0  0  0  3  0  0  0  0  0  0
   34.3260   30.5790   44.1780 C   0  0  0  0  0  3  0  0  0  0  0  0
   35.5170   30.8580   43.5430 C   0  0  0  0  0  3  0  0  0  0  0  0
   36.6830   30.7620   44.2690 C   0  0  0  0  0  0  0  0  0  0  0  0
   37.8260   31.0590   43.5680 C   0  0  0  0  0  3  0  0  0  0  0  0
   39.0390   30.9980   44.2020 C   0  0  0  0  0  3  0  0  0  0  0  0
   39.0740   30.6410   45.5230 C   0  0  0  0  0  3  0  0  0  0  0  0
   37.8940   30.3530   46.1780 C   0  0  0  0  0  3  0  0  0  0  0  0
   36.6590   30.3960   45.6000 C   0  0  0  0  0  0  0  0  0  0  0  0
   31.5990   27.0800   48.3420 C   0  0  0  0  0  0  0  0  0  0  0  0
   32.2020   25.9450   47.8090 C   0  0  0  0  0  3  0  0  0  0  0  0
   33.5240   26.1040   47.4400 C   0  0  0  0  0  3  0  0  0  0  0  0
   34.2070   27.2790   47.5780 C   0  0  0  0  0  3  0  0  0  0  0  0
   33.5670   28.3760   48.1110 C   0  0  0  0  0  0  0  0  0  0  0  0
   32.2820   28.2130   48.4680 N   0  0  0  0  0  0  0  0  0  0  0  0
   27.8950   26.8280   48.2700 C   0  0  0  0  0  3  0  0  0  0  0  0
   29.2250   26.8760   47.8160 C   0  0  0  0  0  3  0  0  0  0  0  0
   30.2220   27.0240   48.7580 C   0  0  0  0  0  0  0  0  0  0  0  0
   29.8880   27.1160   50.0700 N   0  0  0  0  0  0  0  0  0  0  0  0
   28.6010   27.0690   50.5030 C   0  0  0  0  0  0  0  0  0  0  0  0
   27.6260   26.9240   49.5820 N   0  0  0  0  0  0  0  0  0  0  0  0
   28.2550   27.1640   51.8590 N   0  0  0  0  0  0  0  0  0  0  0  0
   27.2650   27.1230   52.1410 H   0  0  0  0  0  0  0  0  0  0  0  0
   28.9890   27.2740   52.5720 H   0  0  0  0  0  0  0  0  0  0  0  0
  1 20  1  1  0  0  0
  1  2  1  0  0  0  0
  3  2  1  0  0  0  0
  4  3  1  0  0  0  0
  5  6  1  6  0  0  0
  5  1  1  0  0  0  0
  5  4  1  0  0  0  0
  7  6  2  0  0  0  0
  8  7  1  0  0  0  0
  9  8  2  0  0  0  0
  9 10  1  0  0  0  0
 10 15  1  0  0  0  0
 11 12  1  0  0  0  0
 11 10  2  0  0  0  0
 12 13  2  0  0  0  0
 13 14  1  0  0  0  0
 15 14  2  0  0  0  0
 15  6  1  0  0  0  0
 16 21  1  0  0  0  0
 16 24  1  0  0  0  0
 17 16  2  0  0  0  0
 18 19  2  0  0  0  0
 18 17  1  0  0  0  0
 19 20  1  0  0  0  0
 20 21  2  0  0  0  0
 22 27  1  0  0  0  0
 23 22  2  0  0  0  0
 23 24  1  0  0  0  0
 24 25  2  0  0  0  0
 25 26  1  0  0  0  0
 26 28  1  0  0  0  0
 27 26  2  0  0  0  0
 28 29  1  0  0  0  0
 28 30  1  0  0  0  0
M  END
>  <minimizedAffinity>
-7.11473417

$$$$

 OpenBabel03272514423D

 30 34  0  0  1  0  0  0  0  0999 V2000
   34.9520   29.4250   45.1310 C   0  0  1  0  0  3  0  0  0  0  0  0
   35.5830   29.5460   43.7490 C   0  0  0  0  0  2  0  0  0  0  0  0
   37.0500   29.7860   43.9930 C   0  0  0  0  0  2  0  0  0  0  0  0
   37.2180   30.2580   45.3900 C   0  0  0  0  0  2  0  0  0  0  0  0
   35.8150   30.3570   45.9140 C   0  0  2  0  0  3  0  0  0  0  0  0
   35.8440   29.9430   47.3240 C   0  0  0  0  0  0  0  0  0  0  0  0
   35.1010   28.9670   47.9400 C   0  0  0  0  0  3  0  0  0  0  0  0
   35.1520   28.6040   49.2670 C   0  0  0  0  0  3  0  0  0  0  0  0
   36.0310   29.2710   50.0920 C   0  0  0  0  0  3  0  0  0  0  0  0
   36.8130   30.2660   49.5490 C   0  0  0  0  0  0  0  0  0  0  0  0
   37.6660   30.8790   50.4330 C   0  0  0  0  0  3  0  0  0  0  0  0
   38.4890   31.8800   49.9890 C   0  0  0  0  0  3  0  0  0  0  0  0
   38.4370   32.2380   48.6690 C   0  0  0  0  0  3  0  0  0  0  0  0
   37.5610   31.5880   47.8240 C   0  0  0  0  0  3  0  0  0  0  0  0
   36.7170   30.5860   48.2090 C   0  0  0  0  0  0  0  0  0  0  0  0
   31.9960   31.5100   44.4380 C   0  0  0  0  0  0  0  0  0  0  0  0
   30.9360   30.8960   45.0980 C   0  0  0  0  0  3  0  0  0  0  0  0
   31.2660   29.7470   45.7910 C   0  0  0  0  0  3  0  0  0  0  0  0
   32.5320   29.2340   45.8360 C   0  0  0  0  0  3  0  0  0  0  0  0
   33.5480   29.8780   45.1660 C   0  0  0  0  0  0  0  0  0  0  0  0
   33.2180   30.9950   44.4950 N   0  0  0  0  0  0  0  0  0  0  0  0
   32.5490   34.6430   42.5230 C   0  0  0  0  0  3  0  0  0  0  0  0
   32.8280   33.4740   43.2530 C   0  0  0  0  0  3  0  0  0  0  0  0
   31.7600   32.7140   43.6840 C   0  0  0  0  0  0  0  0  0  0  0  0
   30.4980   33.1160   43.3920 N   0  0  0  0  0  0  0  0  0  0  0  0
   30.2340   34.2470   42.6860 C   0  0  0  0  0  0  0  0  0  0  0  0
   31.2780   34.9910   42.2640 N   0  0  0  0  0  0  0  0  0  0  0  0
   28.9300   34.6630   42.3830 N   0  0  0  0  0  0  0  0  0  0  0  0
   28.7770   35.5270   41.8440 H   0  0  0  0  0  0  0  0  0  0  0  0
   28.1240   34.1040   42.6980 H   0  0  0  0  0  0  0  0  0  0  0  0
  1 20  1  6  0  0  0
  1  5  1  0  0  0  0
  2  3  1  0  0  0  0
  2  1  1  0  0  0  0
  3  4  1  0  0  0  0
  4  5  1  0  0  0  0
  5  6  1  1  0  0  0
  6  7  2  0  0  0  0
  6 15  1  0  0  0  0
  7  8  1  0  0  0  0
  8  9  2  0  0  0  0
 10  9  1  0  0  0  0
 10 11  1  0  0  0  0
 12 11  2  0  0  0  0
 13 12  1  0  0  0  0
 14 15  1  0  0  0  0
 14 13  2  0  0  0  0
 15 10  2  0  0  0  0
 16 21  2  0  0  0  0
 16 17  1  0  0  0  0
 17 18  2  0  0  0  0
 18 19  1  0  0  0  0
 20 19  2  0  0  0  0
 21 20  1  0  0  0  0
 22 23  1  0  0  0  0
 23 24  2  0  0  0  0
 24 16  1  0  0  0  0
 25 24  1  0  0  0  0
 26 25  2  0  0  0  0
 27 22  2  0  0  0  0
 27 26  1  0  0  0  0
 28 26  1  0  0  0  0
 28 30  1  0  0  0  0
 29 28  1  0  0  0  0
M  END
>  <minimizedAffinity>
-7.09669447

$$$$

 OpenBabel03272514423D

 30 34  0  0  1  0  0  0  0  0999 V2000
   33.2550   28.7690   45.4310 C   0  0  1  0  0  3  0  0  0  0  0  0
   32.1010   29.1740   44.5220 C   0  0  0  0  0  2  0  0  0  0  0  0
   32.2660   30.6530   44.2910 C   0  0  0  0  0  2  0  0  0  0  0  0
   33.1500   31.1940   45.3540 C   0  0  0  0  0  2  0  0  0  0  0  0
   33.4220   30.0120   46.2390 C   0  0  2  0  0  3  0  0  0  0  0  0
   34.8140   30.1230   46.7010 C   0  0  0  0  0  0  0  0  0  0  0  0
   35.9300   30.4380   45.9680 C   0  0  0  0  0  3  0  0  0  0  0  0
   37.2230   30.5320   46.4320 C   0  0  0  0  0  3  0  0  0  0  0  0
   37.4560   30.2910   47.7680 C   0  0  0  0  0  3  0  0  0  0  0  0
   36.3840   29.9680   48.5710 C   0  0  0  0  0  0  0  0  0  0  0  0
   36.6960   29.7460   49.8900 C   0  0  0  0  0  3  0  0  0  0  0  0
   35.6990   29.4230   50.7720 C   0  0  0  0  0  3  0  0  0  0  0  0
   34.4140   29.3310   50.3080 C   0  0  0  0  0  3  0  0  0  0  0  0
   34.1580   29.5630   48.9720 C   0  0  0  0  0  3  0  0  0  0  0  0
   35.1090   29.8870   48.0490 C   0  0  0  0  0  0  0  0  0  0  0  0
   31.3120   26.6690   47.7520 C   0  0  0  0  0  0  0  0  0  0  0  0
   32.1060   25.5550   48.0100 C   0  0  0  0  0  3  0  0  0  0  0  0
   33.3290   25.5480   47.3660 C   0  0  0  0  0  3  0  0  0  0  0  0
   33.7460   26.5480   46.5340 C   0  0  0  0  0  3  0  0  0  0  0  0
   32.9250   27.6300   46.3100 C   0  0  0  0  0  0  0  0  0  0  0  0
   31.7380   27.6300   46.9400 N   0  0  0  0  0  0  0  0  0  0  0  0
   27.6350   26.8260   48.2480 C   0  0  0  0  0  3  0  0  0  0  0  0
   28.8770   26.7140   47.5980 C   0  0  0  0  0  3  0  0  0  0  0  0
   30.0170   26.7770   48.3730 C   0  0  0  0  0  0  0  0  0  0  0  0
   29.9010   26.9430   49.7140 N   0  0  0  0  0  0  0  0  0  0  0  0
   28.6980   27.0500   50.3370 C   0  0  0  0  0  0  0  0  0  0  0  0
   27.5820   26.9880   49.5800 N   0  0  0  0  0  0  0  0  0  0  0  0
   28.5760   27.2200   51.7240 N   0  0  0  0  0  0  0  0  0  0  0  0
   27.6430   27.2970   52.1530 H   0  0  0  0  0  0  0  0  0  0  0  0
   29.4190   27.2690   52.3130 H   0  0  0  0  0  0  0  0  0  0  0  0
  1  5  1  0  0  0  0
  1 20  1  1  0  0  0
  2  1  1  0  0  0  0
  3  2  1  0  0  0  0
  3  4  1  0  0  0  0
  4  5  1  0  0  0  0
  5  6  1  6  0  0  0
  6 15  1  0  0  0  0
  7  8  1  0  0  0  0
  7  6  2  0  0  0  0
  8  9  2  0  0  0  0
  9 10  1  0  0  0  0
 10 11  1  0  0  0  0
 11 12  2  0  0  0  0
 13 12  1  0  0  0  0
 14 13  2  0  0  0  0
 15 10  2  0  0  0  0
 15 14  1  0  0  0  0
 16 17  1  0  0  0  0
 16 24  1  0  0  0  0
 18 17  2  0  0  0  0
 19 18  1  0  0  0  0
 20 19  2  0  0  0  0
 20 21  1  0  0  0  0
 21 16  2  0  0  0  0
 22 27  1  0  0  0  0
 23 22  2  0  0  0  0
 23 24  1  0  0  0  0
 24 25  2  0  0  0  0
 25 26  1  0  0  0  0
 26 28  1  0  0  0  0
 27 26  2  0  0  0  0
 28 29  1  0  0  0  0
 28 30  1  0  0  0  0
M  END
>  <minimizedAffinity>
-6.9241066

$$$$

 OpenBabel03272514423D

 30 34  0  0  1  0  0  0  0  0999 V2000
   33.0250   26.1800   46.3220 C   0  0  1  0  0  3  0  0  0  0  0  0
   34.2300   25.2550   46.4450 C   0  0  0  0  0  2  0  0  0  0  0  0
   33.6840   23.9410   46.9380 C   0  0  0  0  0  2  0  0  0  0  0  0
   32.3450   24.1860   47.5310 C   0  0  0  0  0  2  0  0  0  0  0  0
   32.1710   25.6750   47.4370 C   0  0  2  0  0  3  0  0  0  0  0  0
   30.7550   25.9310   47.1360 C   0  0  0  0  0  0  0  0  0  0  0  0
   30.0120   25.4670   46.0800 C   0  0  0  0  0  3  0  0  0  0  0  0
   28.6850   25.7280   45.8260 C   0  0  0  0  0  3  0  0  0  0  0  0
   27.9990   26.5370   46.7050 C   0  0  0  0  0  3  0  0  0  0  0  0
   28.6760   27.0440   47.7920 C   0  0  0  0  0  0  0  0  0  0  0  0
   27.9250   27.8380   48.6230 C   0  0  0  0  0  3  0  0  0  0  0  0
   28.5060   28.3870   49.7350 C   0  0  0  0  0  3  0  0  0  0  0  0
   29.8260   28.1250   49.9860 C   0  0  0  0  0  3  0  0  0  0  0  0
   30.5340   27.3210   49.1170 C   0  0  0  0  0  3  0  0  0  0  0  0
   30.0100   26.7480   47.9940 C   0  0  0  0  0  0  0  0  0  0  0  0
   34.5120   29.1540   47.9080 C   0  0  0  0  0  0  0  0  0  0  0  0
   34.1240   30.2360   47.1230 C   0  0  0  0  0  3  0  0  0  0  0  0
   33.3350   29.9150   46.0350 C   0  0  0  0  0  3  0  0  0  0  0  0
   32.9530   28.6380   45.7340 C   0  0  0  0  0  3  0  0  0  0  0  0
   33.3620   27.6000   46.5410 C   0  0  0  0  0  0  0  0  0  0  0  0
   34.1290   27.9210   47.5980 N   0  0  0  0  0  0  0  0  0  0  0  0
   35.6920   29.3170   51.4260 C   0  0  0  0  0  3  0  0  0  0  0  0
   34.8500   29.0800   50.3240 C   0  0  0  0  0  3  0  0  0  0  0  0
   35.3360   29.3770   49.0670 C   0  0  0  0  0  0  0  0  0  0  0  0
   36.5900   29.8810   48.9420 N   0  0  0  0  0  0  0  0  0  0  0  0
   37.3980   30.1080   50.0100 C   0  0  0  0  0  0  0  0  0  0  0  0
   36.9240   29.8170   51.2390 N   0  0  0  0  0  0  0  0  0  0  0  0
   38.6950   30.6280   49.8820 N   0  0  0  0  0  0  0  0  0  0  0  0
   39.2720   30.7830   50.7200 H   0  0  0  0  0  0  0  0  0  0  0  0
   39.0690   30.8540   48.9490 H   0  0  0  0  0  0  0  0  0  0  0  0
  1  2  1  0  0  0  0
  1 20  1  1  0  0  0
  1  5  1  0  0  0  0
  2  3  1  0  0  0  0
  3  4  1  0  0  0  0
  5  6  1  6  0  0  0
  5  4  1  0  0  0  0
  6 15  1  0  0  0  0
  7  6  2  0  0  0  0
  8  7  1  0  0  0  0
  8  9  2  0  0  0  0
  9 10  1  0  0  0  0
 10 15  2  0  0  0  0
 10 11  1  0  0  0  0
 11 12  2  0  0  0  0
 12 13  1  0  0  0  0
 14 13  2  0  0  0  0
 15 14  1  0  0  0  0
 16 24  1  0  0  0  0
 17 16  2  0  0  0  0
 18 17  1  0  0  0  0
 19 18  2  0  0  0  0
 19 20  1  0  0  0  0
 20 21  2  0  0  0  0
 21 16  1  0  0  0  0
 23 22  2  0  0  0  0
 24 23  1  0  0  0  0
 25 24  2  0  0  0  0
 25 26  1  0  0  0  0
 26 27  2  0  0  0  0
 27 22  1  0  0  0  0
 28 26  1  0  0  0  0
 28 29  1  0  0  0  0
 30 28  1  0  0  0  0
M  END
>  <minimizedAffinity>
-6.90366554

$$$$

 OpenBabel03272514423D

 30 34  0  0  1  0  0  0  0  0999 V2000
   29.0280   26.6370   47.5790 C   0  0  1  0  0  3  0  0  0  0  0  0
   27.9400   25.8200   46.8920 C   0  0  0  0  0  2  0  0  0  0  0  0
   28.6050   25.1830   45.6990 C   0  0  0  0  0  2  0  0  0  0  0  0
   29.8520   25.9320   45.4060 C   0  0  0  0  0  2  0  0  0  0  0  0
   29.8470   27.0530   46.4040 C   0  0  2  0  0  3  0  0  0  0  0  0
   31.2400   27.2740   46.8210 C   0  0  0  0  0  0  0  0  0  0  0  0
   32.0890   26.3970   47.4480 C   0  0  0  0  0  3  0  0  0  0  0  0
   33.3910   26.6360   47.8260 C   0  0  0  0  0  3  0  0  0  0  0  0
   33.9300   27.8760   47.5640 C   0  0  0  0  0  3  0  0  0  0  0  0
   33.1400   28.8130   46.9360 C   0  0  0  0  0  0  0  0  0  0  0  0
   33.7490   30.0220   46.7050 C   0  0  0  0  0  3  0  0  0  0  0  0
   33.0480   31.0200   46.0810 C   0  0  0  0  0  3  0  0  0  0  0  0
   31.7540   30.7790   45.7050 C   0  0  0  0  0  3  0  0  0  0  0  0
   31.1910   29.5460   45.9620 C   0  0  0  0  0  3  0  0  0  0  0  0
   31.8390   28.5160   46.5800 C   0  0  0  0  0  0  0  0  0  0  0  0
   27.4570   29.9350   48.0500 C   0  0  0  0  0  0  0  0  0  0  0  0
   27.4380   30.1530   49.4250 C   0  0  0  0  0  3  0  0  0  0  0  0
   27.9830   29.1360   50.1850 C   0  0  0  0  0  3  0  0  0  0  0  0
   28.5060   27.9930   49.6470 C   0  0  0  0  0  3  0  0  0  0  0  0
   28.5010   27.8230   48.2810 C   0  0  0  0  0  0  0  0  0  0  0  0
   27.9700   28.8170   47.5490 N   0  0  0  0  0  0  0  0  0  0  0  0
   26.5140   31.7960   44.9780 C   0  0  0  0  0  3  0  0  0  0  0  0
   27.0610   30.7950   45.8010 C   0  0  0  0  0  3  0  0  0  0  0  0
   26.9130   30.9330   47.1660 C   0  0  0  0  0  0  0  0  0  0  0  0
   26.2550   32.0130   47.6570 N   0  0  0  0  0  0  0  0  0  0  0  0
   25.7290   32.9760   46.8570 C   0  0  0  0  0  0  0  0  0  0  0  0
   25.8720   32.8430   45.5220 N   0  0  0  0  0  0  0  0  0  0  0  0
   25.0470   34.0930   47.3630 N   0  0  0  0  0  0  0  0  0  0  0  0
   24.6640   34.7980   46.7190 H   0  0  0  0  0  0  0  0  0  0  0  0
   24.9290   34.2070   48.3800 H   0  0  0  0  0  0  0  0  0  0  0  0
  1 20  1  6  0  0  0
  2  1  1  0  0  0  0
  3  2  1  0  0  0  0
  4  3  1  0  0  0  0
  4  5  1  0  0  0  0
  5  6  1  1  0  0  0
  5  1  1  0  0  0  0
  6  7  1  0  0  0  0
  7  8  2  0  0  0  0
  9  8  1  0  0  0  0
 10  9  2  0  0  0  0
 11 10  1  0  0  0  0
 12 11  2  0  0  0  0
 13 14  2  0  0  0  0
 13 12  1  0  0  0  0
 14 15  1  0  0  0  0
 15  6  2  0  0  0  0
 15 10  1  0  0  0  0
 16 17  1  0  0  0  0
 17 18  2  0  0  0  0
 19 18  1  0  0  0  0
 20 19  2  0  0  0  0
 21 16  2  0  0  0  0
 21 20  1  0  0  0  0
 22 27  2  0  0  0  0
 22 23  1  0  0  0  0
 23 24  2  0  0  0  0
 24 25  1  0  0  0  0
 24 16  1  0  0  0  0
 26 28  1  0  0  0  0
 26 25  2  0  0  0  0
 27 26  1  0  0  0  0
 28 30  1  0  0  0  0
 29 28  1  0  0  0  0
M  END
>  <minimizedAffinity>
-6.42254591

$$$$

 OpenBabel03272514423D

 30 34  0  0  1  0  0  0  0  0999 V2000
   31.8750   26.7010   48.1990 C   0  0  1  0  0  3  0  0  0  0  0  0
   31.5490   25.4550   47.3850 C   0  0  0  0  0  2  0  0  0  0  0  0
   32.8090   25.1260   46.6270 C   0  0  0  0  0  2  0  0  0  0  0  0
   33.6670   26.3370   46.6010 C   0  0  0  0  0  2  0  0  0  0  0  0
   32.8410   27.3840   47.2900 C   0  0  2  0  0  3  0  0  0  0  0  0
   33.7600   28.2190   48.0770 C   0  0  0  0  0  0  0  0  0  0  0  0
   33.8820   28.2970   49.4410 C   0  0  0  0  0  3  0  0  0  0  0  0
   34.7550   29.0930   50.1480 C   0  0  0  0  0  3  0  0  0  0  0  0
   35.6110   29.9100   49.4420 C   0  0  0  0  0  3  0  0  0  0  0  0
   35.5490   29.8900   48.0660 C   0  0  0  0  0  0  0  0  0  0  0  0
   36.4360   30.7270   47.4350 C   0  0  0  0  0  3  0  0  0  0  0  0
   36.4560   30.7770   46.0660 C   0  0  0  0  0  3  0  0  0  0  0  0
   35.5880   29.9840   45.3660 C   0  0  0  0  0  3  0  0  0  0  0  0
   34.7180   29.1610   46.0520 C   0  0  0  0  0  3  0  0  0  0  0  0
   34.6510   29.0700   47.4120 C   0  0  0  0  0  0  0  0  0  0  0  0
   29.1170   29.0280   47.4590 C   0  0  0  0  0  0  0  0  0  0  0  0
   28.4600   29.2330   48.6690 C   0  0  0  0  0  3  0  0  0  0  0  0
   28.9920   28.5510   49.7460 C   0  0  0  0  0  3  0  0  0  0  0  0
   30.0810   27.7320   49.6530 C   0  0  0  0  0  3  0  0  0  0  0  0
   30.6990   27.5600   48.4340 C   0  0  0  0  0  0  0  0  0  0  0  0
   30.1750   28.2280   47.3910 N   0  0  0  0  0  0  0  0  0  0  0  0
   26.9070   30.7300   45.0080 C   0  0  0  0  0  3  0  0  0  0  0  0
   27.3240   30.0880   46.1870 C   0  0  0  0  0  3  0  0  0  0  0  0
   28.6430   29.6920   46.2720 C   0  0  0  0  0  0  0  0  0  0  0  0
   29.4770   29.9320   45.2300 N   0  0  0  0  0  0  0  0  0  0  0  0
   29.0690   30.5520   44.0930 C   0  0  0  0  0  0  0  0  0  0  0  0
   27.7790   30.9410   44.0080 N   0  0  0  0  0  0  0  0  0  0  0  0
   29.9300   30.8020   43.0140 N   0  0  0  0  0  0  0  0  0  0  0  0
   29.5760   31.2760   42.1720 H   0  0  0  0  0  0  0  0  0  0  0  0
   30.9170   30.5110   43.0650 H   0  0  0  0  0  0  0  0  0  0  0  0
  1 20  1  6  0  0  0
  2  1  1  0  0  0  0
  3  2  1  0  0  0  0
  4  3  1  0  0  0  0
  4  5  1  0  0  0  0
  5  6  1  1  0  0  0
  5  1  1  0  0  0  0
  6  7  1  0  0  0  0
  7  8  2  0  0  0  0
  9  8  1  0  0  0  0
 10  9  2  0  0  0  0
 11 10  1  0  0  0  0
 12 11  2  0  0  0  0
 13 14  2  0  0  0  0
 13 12  1  0  0  0  0
 14 15  1  0  0  0  0
 15 10  1  0  0  0  0
 15  6  2  0  0  0  0
 16 17  1  0  0  0  0
 17 18  2  0  0  0  0
 19 18  1  0  0  0  0
 20 19  2  0  0  0  0
 21 16  2  0  0  0  0
 21 20  1  0  0  0  0
 22 23  1  0  0  0  0
 23 24  2  0  0  0  0
 24 16  1  0  0  0  0
 25 24  1  0  0  0  0
 26 25  2  0  0  0  0
 27 26  1  0  0  0  0
 27 22  2  0  0  0  0
 28 30  1  0  0  0  0
 28 26  1  0  0  0  0
 29 28  1  0  0  0  0
M  END
>  <minimizedAffinity>
-6.40766335

$$$$
