
 OpenBabel03272514363D

 36 40  0  0  1  0  0  0  0  0999 V2000
   32.9650   25.4100   47.2460 C   0  0  0  0  0  3  0  0  0  0  0  0
   31.7620   25.7920   47.9200 C   0  0  0  0  0  3  0  0  0  0  0  0
   31.4410   27.1280   48.0410 C   0  0  0  0  0  0  0  0  0  0  0  0
   32.3150   28.0440   47.4940 N   0  0  0  0  0  0  0  0  0  0  0  0
   33.4240   27.6430   46.8740 C   0  0  0  0  0  0  0  0  0  0  0  0
   33.7580   26.3620   46.7430 N   0  0  0  0  0  0  0  0  0  0  0  0
   34.2870   28.7470   46.3270 C   0  0  1  0  0  3  0  0  0  0  0  0
   33.7390   29.0880   44.9450 C   0  0  0  0  0  1  0  0  0  0  0  0
   34.2920   29.9470   47.1820 C   0  0  0  0  0  2  0  0  0  0  0  0
   35.6900   30.2660   47.5730 C   0  0  0  0  0  0  0  0  0  0  0  0
   36.6160   30.7470   46.6410 C   0  0  0  0  0  3  0  0  0  0  0  0
   37.9240   31.0230   46.9760 C   0  0  0  0  0  3  0  0  0  0  0  0
   38.3740   30.8250   48.2870 C   0  0  0  0  0  3  0  0  0  0  0  0
   37.4740   30.3520   49.2180 C   0  0  0  0  0  0  0  0  0  0  0  0
   37.9220   30.1640   50.5250 C   0  0  0  0  0  3  0  0  0  0  0  0
   37.0460   29.6970   51.5020 C   0  0  0  0  0  3  0  0  0  0  0  0
   35.7310   29.4220   51.1660 C   0  0  0  0  0  3  0  0  0  0  0  0
   35.3350   29.6260   49.8450 C   0  0  0  0  0  3  0  0  0  0  0  0
   36.1700   30.0830   48.8630 C   0  0  0  0  0  0  0  0  0  0  0  0
   30.1890   27.5330   48.7530 C   0  0  0  0  0  2  0  0  0  0  0  0
   29.0260   27.6800   47.8710 C   0  0  0  0  0  0  0  0  0  0  0  0
   28.4690   26.6910   47.1280 C   0  0  0  0  0  3  0  0  0  0  0  0
   27.3730   26.8580   46.3060 C   0  0  0  0  0  3  0  0  0  0  0  0
   26.8290   28.0840   46.2440 N   0  0  0  0  0  0  0  0  0  0  0  0
   27.3430   29.0940   46.9590 C   0  0  0  0  0  0  0  0  0  0  0  0
   28.4120   28.9030   47.7530 N   0  0  0  0  0  0  0  0  0  0  0  0
   26.8580   30.4460   46.9840 N   0  0  0  0  0  0  0  0  0  0  0  0
   26.2530   30.7730   48.1860 C   0  0  0  0  0  3  0  0  0  0  0  0
   25.7320   32.0400   48.3750 C   0  0  0  0  0  3  0  0  0  0  0  0
   25.8330   32.9360   47.3500 C   0  0  0  0  0  0  0  0  0  0  0  0
   25.3000   34.2260   47.5410 N   0  0  0  0  0  0  0  0  0  0  0  0
   26.4240   32.5920   46.1990 N   0  0  0  0  0  0  0  0  0  0  0  0
   26.9240   31.3750   46.0240 C   0  0  0  0  0  0  0  0  0  0  0  0
   27.4980   30.9280   44.9990 O   0  0  0  0  0  0  0  0  0  0  0  0
   25.3610   34.9250   46.7870 H   0  0  0  0  0  0  0  0  0  0  0  0
   24.8500   34.4700   48.4350 H   0  0  0  0  0  0  0  0  0  0  0  0
  1  2  1  0  0  0  0
  2  3  2  0  0  0  0
  3 20  1  0  0  0  0
  4  3  1  0  0  0  0
  5  4  2  0  0  0  0
  6  5  1  0  0  0  0
  6  1  2  0  0  0  0
  7  8  1  6  0  0  0
  7  5  1  0  0  0  0
  7  9  1  0  0  0  0
  9 10  1  0  0  0  0
 10 19  1  0  0  0  0
 11 12  1  0  0  0  0
 11 10  2  0  0  0  0
 12 13  2  0  0  0  0
 13 14  1  0  0  0  0
 14 15  1  0  0  0  0
 15 16  2  0  0  0  0
 17 16  1  0  0  0  0
 18 17  2  0  0  0  0
 19 14  2  0  0  0  0
 19 18  1  0  0  0  0
 21 20  1  0  0  0  0
 22 21  2  0  0  0  0
 23 22  1  0  0  0  0
 24 23  2  0  0  0  0
 24 25  1  0  0  0  0
 25 27  1  0  0  0  0
 25 26  2  0  0  0  0
 26 21  1  0  0  0  0
 27 28  1  0  0  0  0
 28 29  2  0  0  0  0
 30 31  1  0  0  0  0
 30 29  1  0  0  0  0
 31 36  1  0  0  0  0
 32 30  2  0  0  0  0
 33 32  1  0  0  0  0
 33 27  1  0  0  0  0
 34 33  2  0  0  0  0
 35 31  1  0  0  0  0
M  END
>  <minimizedAffinity>
-8.75208569

$$$$

 OpenBabel03272514363D

 36 40  0  0  1  0  0  0  0  0999 V2000
   32.3110   25.9700   46.5480 C   0  0  0  0  0  3  0  0  0  0  0  0
   31.3000   26.2230   47.5280 C   0  0  0  0  0  3  0  0  0  0  0  0
   31.3950   27.3360   48.3370 C   0  0  0  0  0  0  0  0  0  0  0  0
   32.4830   28.1630   48.1540 N   0  0  0  0  0  0  0  0  0  0  0  0
   33.4010   27.8900   47.2280 C   0  0  0  0  0  0  0  0  0  0  0  0
   33.3350   26.8240   46.4350 N   0  0  0  0  0  0  0  0  0  0  0  0
   34.5350   28.8750   47.1390 C   0  0  1  0  0  3  0  0  0  0  0  0
   34.6520   29.2750   45.6720 C   0  0  0  0  0  1  0  0  0  0  0  0
   34.3240   30.0680   47.9760 C   0  0  0  0  0  2  0  0  0  0  0  0
   35.2670   30.0360   49.1240 C   0  0  0  0  0  0  0  0  0  0  0  0
   34.9680   29.3240   50.2920 C   0  0  0  0  0  3  0  0  0  0  0  0
   35.8160   29.3020   51.3790 C   0  0  0  0  0  3  0  0  0  0  0  0
   37.0250   30.0060   51.3460 C   0  0  0  0  0  3  0  0  0  0  0  0
   37.3350   30.7120   50.2020 C   0  0  0  0  0  0  0  0  0  0  0  0
   38.5430   31.4060   50.1680 C   0  0  0  0  0  3  0  0  0  0  0  0
   38.9030   32.1250   49.0310 C   0  0  0  0  0  3  0  0  0  0  0  0
   38.0530   32.1450   47.9380 C   0  0  0  0  0  3  0  0  0  0  0  0
   36.8560   31.4360   48.0250 C   0  0  0  0  0  3  0  0  0  0  0  0
   36.4740   30.7210   49.1270 C   0  0  0  0  0  0  0  0  0  0  0  0
   30.3450   27.6000   49.3690 C   0  0  0  0  0  2  0  0  0  0  0  0
   28.9840   27.6690   48.8260 C   0  0  0  0  0  0  0  0  0  0  0  0
   28.1640   26.6100   48.6140 C   0  0  0  0  0  3  0  0  0  0  0  0
   26.8850   26.7060   48.1020 C   0  0  0  0  0  3  0  0  0  0  0  0
   26.4330   27.9330   47.7960 N   0  0  0  0  0  0  0  0  0  0  0  0
   27.2060   29.0110   47.9870 C   0  0  0  0  0  0  0  0  0  0  0  0
   28.4480   28.8880   48.4890 N   0  0  0  0  0  0  0  0  0  0  0  0
   26.8440   30.3720   47.7040 N   0  0  0  0  0  0  0  0  0  0  0  0
   26.6520   31.1210   48.8530 C   0  0  0  0  0  3  0  0  0  0  0  0
   26.2990   32.4550   48.7560 C   0  0  0  0  0  3  0  0  0  0  0  0
   26.1490   32.9920   47.5100 C   0  0  0  0  0  0  0  0  0  0  0  0
   25.7870   34.3500   47.4110 N   0  0  0  0  0  0  0  0  0  0  0  0
   26.3430   32.2430   46.4160 N   0  0  0  0  0  0  0  0  0  0  0  0
   26.6830   30.9630   46.5160 C   0  0  0  0  0  0  0  0  0  0  0  0
   26.8900   30.1560   45.5750 O   0  0  0  0  0  0  0  0  0  0  0  0
   25.6660   34.7850   46.4840 H   0  0  0  0  0  0  0  0  0  0  0  0
   25.6430   34.9080   48.2650 H   0  0  0  0  0  0  0  0  0  0  0  0
  1  2  1  0  0  0  0
  2  3  2  0  0  0  0
  3 20  1  0  0  0  0
  4  3  1  0  0  0  0
  5  4  2  0  0  0  0
  6  1  2  0  0  0  0
  6  5  1  0  0  0  0
  7  8  1  6  0  0  0
  7  5  1  0  0  0  0
  7  9  1  0  0  0  0
  9 10  1  0  0  0  0
 10 19  2  0  0  0  0
 10 11  1  0  0  0  0
 11 12  2  0  0  0  0
 13 12  1  0  0  0  0
 14 13  2  0  0  0  0
 15 14  1  0  0  0  0
 16 15  2  0  0  0  0
 17 18  2  0  0  0  0
 17 16  1  0  0  0  0
 18 19  1  0  0  0  0
 19 14  1  0  0  0  0
 21 20  1  0  0  0  0
 22 21  1  0  0  0  0
 23 22  2  0  0  0  0
 24 25  2  0  0  0  0
 24 23  1  0  0  0  0
 25 26  1  0  0  0  0
 26 21  2  0  0  0  0
 27 25  1  0  0  0  0
 27 28  1  0  0  0  0
 29 28  2  0  0  0  0
 30 29  1  0  0  0  0
 31 30  1  0  0  0  0
 31 36  1  0  0  0  0
 32 33  1  0  0  0  0
 32 30  2  0  0  0  0
 33 27  1  0  0  0  0
 34 33  2  0  0  0  0
 35 31  1  0  0  0  0
M  END
>  <minimizedAffinity>
-8.66731358

$$$$

 OpenBabel03272514363D

 36 40  0  0  1  0  0  0  0  0999 V2000
   32.3990   25.6130   47.2570 C   0  0  0  0  0  3  0  0  0  0  0  0
   31.4010   26.1440   48.1340 C   0  0  0  0  0  3  0  0  0  0  0  0
   31.3890   27.4940   48.4190 C   0  0  0  0  0  0  0  0  0  0  0  0
   32.3610   28.2760   47.8320 N   0  0  0  0  0  0  0  0  0  0  0  0
   33.2720   27.7390   47.0210 C   0  0  0  0  0  0  0  0  0  0  0  0
   33.3060   26.4420   46.7280 N   0  0  0  0  0  0  0  0  0  0  0  0
   34.2740   28.7070   46.4520 C   0  0  1  0  0  3  0  0  0  0  0  0
   33.8800   28.9390   44.9970 C   0  0  0  0  0  1  0  0  0  0  0  0
   34.3100   29.9870   47.1790 C   0  0  0  0  0  2  0  0  0  0  0  0
   35.7070   30.2750   47.5960 C   0  0  0  0  0  0  0  0  0  0  0  0
   36.6660   30.7120   46.6760 C   0  0  0  0  0  3  0  0  0  0  0  0
   37.9740   30.9590   47.0360 C   0  0  0  0  0  3  0  0  0  0  0  0
   38.3890   30.7760   48.3590 C   0  0  0  0  0  3  0  0  0  0  0  0
   37.4560   30.3470   49.2790 C   0  0  0  0  0  0  0  0  0  0  0  0
   37.8690   30.1740   50.5990 C   0  0  0  0  0  3  0  0  0  0  0  0
   36.9590   29.7510   51.5650 C   0  0  0  0  0  3  0  0  0  0  0  0
   35.6450   29.5050   51.2050 C   0  0  0  0  0  3  0  0  0  0  0  0
   35.2850   29.6920   49.8710 C   0  0  0  0  0  3  0  0  0  0  0  0
   36.1540   30.1060   48.9000 C   0  0  0  0  0  0  0  0  0  0  0  0
   30.3530   28.0520   49.3430 C   0  0  0  0  0  2  0  0  0  0  0  0
   28.9820   27.9340   48.8360 C   0  0  0  0  0  0  0  0  0  0  0  0
   28.0980   26.9620   49.1710 C   0  0  0  0  0  3  0  0  0  0  0  0
   26.8110   26.8760   48.6780 C   0  0  0  0  0  3  0  0  0  0  0  0
   26.4180   27.8230   47.8110 N   0  0  0  0  0  0  0  0  0  0  0  0
   27.2550   28.8050   47.4490 C   0  0  0  0  0  0  0  0  0  0  0  0
   28.5040   28.8640   47.9450 N   0  0  0  0  0  0  0  0  0  0  0  0
   26.9600   29.8740   46.5350 N   0  0  0  0  0  0  0  0  0  0  0  0
   26.8470   31.1000   47.1700 C   0  0  0  0  0  3  0  0  0  0  0  0
   26.5660   32.2360   46.4320 C   0  0  0  0  0  3  0  0  0  0  0  0
   26.4070   32.1030   45.0830 C   0  0  0  0  0  0  0  0  0  0  0  0
   26.1170   33.2590   44.3310 N   0  0  0  0  0  0  0  0  0  0  0  0
   26.5230   30.9050   44.4960 N   0  0  0  0  0  0  0  0  0  0  0  0
   26.7950   29.8180   45.2100 C   0  0  0  0  0  0  0  0  0  0  0  0
   26.9270   28.6430   44.7850 O   0  0  0  0  0  0  0  0  0  0  0  0
   25.9920   33.1920   43.3110 H   0  0  0  0  0  0  0  0  0  0  0  0
   26.0320   34.1720   44.8030 H   0  0  0  0  0  0  0  0  0  0  0  0
  1  2  1  0  0  0  0
  2  3  2  0  0  0  0
  3 20  1  0  0  0  0
  4  3  1  0  0  0  0
  5  4  2  0  0  0  0
  6  5  1  0  0  0  0
  6  1  2  0  0  0  0
  7  8  1  6  0  0  0
  7  5  1  0  0  0  0
  7  9  1  0  0  0  0
  9 10  1  0  0  0  0
 10 19  1  0  0  0  0
 11 12  1  0  0  0  0
 11 10  2  0  0  0  0
 12 13  2  0  0  0  0
 13 14  1  0  0  0  0
 14 15  1  0  0  0  0
 15 16  2  0  0  0  0
 17 16  1  0  0  0  0
 18 17  2  0  0  0  0
 19 14  2  0  0  0  0
 19 18  1  0  0  0  0
 21 22  1  0  0  0  0
 21 20  1  0  0  0  0
 23 22  2  0  0  0  0
 24 23  1  0  0  0  0
 25 24  2  0  0  0  0
 25 26  1  0  0  0  0
 26 21  2  0  0  0  0
 27 28  1  0  0  0  0
 27 25  1  0  0  0  0
 29 28  2  0  0  0  0
 30 29  1  0  0  0  0
 31 36  1  0  0  0  0
 31 30  1  0  0  0  0
 32 30  2  0  0  0  0
 32 33  1  0  0  0  0
 33 27  1  0  0  0  0
 34 33  2  0  0  0  0
 35 31  1  0  0  0  0
M  END
>  <minimizedAffinity>
-8.55676746

$$$$

 OpenBabel03272514363D

 36 40  0  0  1  0  0  0  0  0999 V2000
   32.4890   26.4320   47.0040 C   0  0  0  0  0  3  0  0  0  0  0  0
   31.6540   27.2010   46.1310 C   0  0  0  0  0  3  0  0  0  0  0  0
   31.7140   28.5780   46.1650 C   0  0  0  0  0  0  0  0  0  0  0  0
   32.5940   29.1540   47.0570 N   0  0  0  0  0  0  0  0  0  0  0  0
   33.3530   28.4000   47.8520 C   0  0  0  0  0  0  0  0  0  0  0  0
   33.3150   27.0700   47.8400 N   0  0  0  0  0  0  0  0  0  0  0  0
   34.2640   29.1590   48.7770 C   0  0  1  0  0  3  0  0  0  0  0  0
   33.5300   29.2850   50.1080 C   0  0  0  0  0  1  0  0  0  0  0  0
   35.5640   28.4940   48.9740 C   0  0  0  0  0  2  0  0  0  0  0  0
   36.5830   29.5090   49.3490 C   0  0  0  0  0  0  0  0  0  0  0  0
   37.0040   29.6620   50.6740 C   0  0  0  0  0  3  0  0  0  0  0  0
   37.9280   30.6150   51.0480 C   0  0  0  0  0  3  0  0  0  0  0  0
   38.4830   31.4740   50.0930 C   0  0  0  0  0  3  0  0  0  0  0  0
   38.0790   31.3350   48.7820 C   0  0  0  0  0  0  0  0  0  0  0  0
   38.6390   32.1870   47.8310 C   0  0  0  0  0  3  0  0  0  0  0  0
   38.2680   32.0770   46.4920 C   0  0  0  0  0  3  0  0  0  0  0  0
   37.3420   31.1190   46.1160 C   0  0  0  0  0  3  0  0  0  0  0  0
   36.8120   30.2950   47.1070 C   0  0  0  0  0  3  0  0  0  0  0  0
   37.1540   30.3770   48.4280 C   0  0  0  0  0  0  0  0  0  0  0  0
   30.8370   29.3860   45.2610 C   0  0  0  0  0  2  0  0  0  0  0  0
   29.4970   29.6340   45.8030 C   0  0  0  0  0  0  0  0  0  0  0  0
   28.5200   30.3500   45.1930 C   0  0  0  0  0  3  0  0  0  0  0  0
   27.2650   30.5670   45.7270 C   0  0  0  0  0  3  0  0  0  0  0  0
   27.0050   30.0300   46.9300 N   0  0  0  0  0  0  0  0  0  0  0  0
   27.9380   29.3150   47.5730 C   0  0  0  0  0  0  0  0  0  0  0  0
   29.1520   29.1190   47.0290 N   0  0  0  0  0  0  0  0  0  0  0  0
   27.7880   28.6890   48.8580 N   0  0  0  0  0  0  0  0  0  0  0  0
   27.7300   27.3080   48.7730 C   0  0  0  0  0  3  0  0  0  0  0  0
   27.5870   26.5510   49.9220 C   0  0  0  0  0  3  0  0  0  0  0  0
   27.5070   27.2060   51.1170 C   0  0  0  0  0  0  0  0  0  0  0  0
   27.3590   26.4360   52.2880 N   0  0  0  0  0  0  0  0  0  0  0  0
   27.5680   28.5430   51.1680 N   0  0  0  0  0  0  0  0  0  0  0  0
   27.7060   29.2640   50.0620 C   0  0  0  0  0  0  0  0  0  0  0  0
   27.7740   30.5160   49.9730 O   0  0  0  0  0  0  0  0  0  0  0  0
   27.2950   26.9000   53.2050 H   0  0  0  0  0  0  0  0  0  0  0  0
   27.3140   25.4080   52.2260 H   0  0  0  0  0  0  0  0  0  0  0  0
  1  6  1  0  0  0  0
  2  3  1  0  0  0  0
  2  1  2  0  0  0  0
  3  4  2  0  0  0  0
  4  5  1  0  0  0  0
  5  7  1  0  0  0  0
  6  5  2  0  0  0  0
  7  9  1  0  0  0  0
  7  8  1  1  0  0  0
  9 10  1  0  0  0  0
 10 11  1  0  0  0  0
 11 12  2  0  0  0  0
 13 12  1  0  0  0  0
 14 13  2  0  0  0  0
 15 14  1  0  0  0  0
 16 15  2  0  0  0  0
 17 16  1  0  0  0  0
 17 18  2  0  0  0  0
 18 19  1  0  0  0  0
 19 14  1  0  0  0  0
 19 10  2  0  0  0  0
 20 21  1  0  0  0  0
 20  3  1  0  0  0  0
 21 26  1  0  0  0  0
 22 23  1  0  0  0  0
 22 21  2  0  0  0  0
 23 24  2  0  0  0  0
 24 25  1  0  0  0  0
 25 27  1  0  0  0  0
 26 25  2  0  0  0  0
 27 33  1  0  0  0  0
 28 27  1  0  0  0  0
 28 29  2  0  0  0  0
 29 30  1  0  0  0  0
 30 32  2  0  0  0  0
 30 31  1  0  0  0  0
 31 35  1  0  0  0  0
 33 32  1  0  0  0  0
 34 33  2  0  0  0  0
 36 31  1  0  0  0  0
M  END
>  <minimizedAffinity>
-8.54814816

$$$$

 OpenBabel03272514363D

 36 40  0  0  1  0  0  0  0  0999 V2000
   33.5440   29.8210   44.0320 C   0  0  0  0  0  3  0  0  0  0  0  0
   32.2040   30.3070   43.9060 C   0  0  0  0  0  3  0  0  0  0  0  0
   31.4030   30.4010   45.0250 C   0  0  0  0  0  0  0  0  0  0  0  0
   31.9470   30.0130   46.2310 N   0  0  0  0  0  0  0  0  0  0  0  0
   33.2000   29.5660   46.3020 C   0  0  0  0  0  0  0  0  0  0  0  0
   33.9950   29.4650   45.2400 N   0  0  0  0  0  0  0  0  0  0  0  0
   33.6640   29.1750   47.6790 C   0  0  1  0  0  3  0  0  0  0  0  0
   32.7070   28.0940   48.1730 C   0  0  0  0  0  1  0  0  0  0  0  0
   35.0490   28.6730   47.6960 C   0  0  0  0  0  2  0  0  0  0  0  0
   35.7870   29.3050   48.8210 C   0  0  0  0  0  0  0  0  0  0  0  0
   35.5460   28.9350   50.1490 C   0  0  0  0  0  3  0  0  0  0  0  0
   36.1990   29.5270   51.2090 C   0  0  0  0  0  3  0  0  0  0  0  0
   37.1400   30.5370   50.9830 C   0  0  0  0  0  3  0  0  0  0  0  0
   37.3900   30.9130   49.6800 C   0  0  0  0  0  0  0  0  0  0  0  0
   38.3360   31.9130   49.4570 C   0  0  0  0  0  3  0  0  0  0  0  0
   38.6280   32.3190   48.1570 C   0  0  0  0  0  3  0  0  0  0  0  0
   37.9740   31.7230   47.0920 C   0  0  0  0  0  3  0  0  0  0  0  0
   37.0370   30.7290   47.3710 C   0  0  0  0  0  3  0  0  0  0  0  0
   36.7280   30.3090   48.6350 C   0  0  0  0  0  0  0  0  0  0  0  0
   29.9980   30.9000   44.8970 C   0  0  0  0  0  2  0  0  0  0  0  0
   28.9800   29.8840   45.1840 C   0  0  0  0  0  0  0  0  0  0  0  0
   28.1630   29.3050   44.2700 C   0  0  0  0  0  3  0  0  0  0  0  0
   27.2120   28.3500   44.5690 C   0  0  0  0  0  3  0  0  0  0  0  0
   27.0970   27.9750   45.8530 N   0  0  0  0  0  0  0  0  0  0  0  0
   27.8810   28.5180   46.7940 C   0  0  0  0  0  0  0  0  0  0  0  0
   28.8000   29.4470   46.4740 N   0  0  0  0  0  0  0  0  0  0  0  0
   27.8600   28.2060   48.1970 N   0  0  0  0  0  0  0  0  0  0  0  0
   28.9820   27.5020   48.6020 C   0  0  0  0  0  3  0  0  0  0  0  0
   29.1190   27.1230   49.9250 C   0  0  0  0  0  3  0  0  0  0  0  0
   28.1240   27.4630   50.7970 C   0  0  0  0  0  0  0  0  0  0  0  0
   28.2620   27.0750   52.1450 N   0  0  0  0  0  0  0  0  0  0  0  0
   27.0520   28.1450   50.3760 N   0  0  0  0  0  0  0  0  0  0  0  0
   26.9270   28.5070   49.1050 C   0  0  0  0  0  0  0  0  0  0  0  0
   25.9760   29.1440   48.5850 O   0  0  0  0  0  0  0  0  0  0  0  0
   27.5290   27.3160   52.8270 H   0  0  0  0  0  0  0  0  0  0  0  0
   29.0950   26.5500   52.4470 H   0  0  0  0  0  0  0  0  0  0  0  0
  1  6  1  0  0  0  0
  2  1  2  0  0  0  0
  2  3  1  0  0  0  0
  3  4  2  0  0  0  0
  4  5  1  0  0  0  0
  5  7  1  0  0  0  0
  6  5  2  0  0  0  0
  7  9  1  0  0  0  0
  7  8  1  6  0  0  0
  9 10  1  0  0  0  0
 10 11  1  0  0  0  0
 11 12  2  0  0  0  0
 13 12  1  0  0  0  0
 14 13  2  0  0  0  0
 15 14  1  0  0  0  0
 16 15  2  0  0  0  0
 17 18  2  0  0  0  0
 17 16  1  0  0  0  0
 18 19  1  0  0  0  0
 19 10  2  0  0  0  0
 19 14  1  0  0  0  0
 20  3  1  0  0  0  0
 20 21  1  0  0  0  0
 21 26  1  0  0  0  0
 22 23  1  0  0  0  0
 22 21  2  0  0  0  0
 23 24  2  0  0  0  0
 24 25  1  0  0  0  0
 25 27  1  0  0  0  0
 26 25  2  0  0  0  0
 27 28  1  0  0  0  0
 27 33  1  0  0  0  0
 28 29  2  0  0  0  0
 29 30  1  0  0  0  0
 30 31  1  0  0  0  0
 31 36  1  0  0  0  0
 31 35  1  0  0  0  0
 32 30  2  0  0  0  0
 33 32  1  0  0  0  0
 34 33  2  0  0  0  0
M  END
>  <minimizedAffinity>
-8.47094631

$$$$

 OpenBabel03272514363D

 36 40  0  0  1  0  0  0  0  0999 V2000
   31.5080   25.8020   47.2050 C   0  0  0  0  0  3  0  0  0  0  0  0
   30.5960   26.3390   48.1690 C   0  0  0  0  0  3  0  0  0  0  0  0
   30.8930   27.5280   48.8020 C   0  0  0  0  0  0  0  0  0  0  0  0
   32.0780   28.1480   48.4660 N   0  0  0  0  0  0  0  0  0  0  0  0
   32.8970   27.6120   47.5630 C   0  0  0  0  0  0  0  0  0  0  0  0
   32.6360   26.4680   46.9370 N   0  0  0  0  0  0  0  0  0  0  0  0
   34.1550   28.3930   47.2950 C   0  0  1  0  0  3  0  0  0  0  0  0
   34.2960   28.4890   45.7790 C   0  0  0  0  0  1  0  0  0  0  0  0
   34.1300   29.7410   47.8890 C   0  0  0  0  0  2  0  0  0  0  0  0
   35.1080   29.8030   49.0070 C   0  0  0  0  0  0  0  0  0  0  0  0
   34.8440   29.1980   50.2400 C   0  0  0  0  0  3  0  0  0  0  0  0
   35.7240   29.2660   51.2980 C   0  0  0  0  0  3  0  0  0  0  0  0
   36.9330   29.9580   51.1670 C   0  0  0  0  0  3  0  0  0  0  0  0
   37.2100   30.5600   49.9580 C   0  0  0  0  0  0  0  0  0  0  0  0
   38.4190   31.2410   49.8260 C   0  0  0  0  0  3  0  0  0  0  0  0
   38.7450   31.8560   48.6200 C   0  0  0  0  0  3  0  0  0  0  0  0
   37.8620   31.7860   47.5560 C   0  0  0  0  0  3  0  0  0  0  0  0
   36.6660   31.0930   47.7410 C   0  0  0  0  0  3  0  0  0  0  0  0
   36.3170   30.4790   48.9120 C   0  0  0  0  0  0  0  0  0  0  0  0
   29.9480   28.0890   49.8170 C   0  0  0  0  0  2  0  0  0  0  0  0
   28.5660   28.2090   49.3380 C   0  0  0  0  0  0  0  0  0  0  0  0
   27.4610   27.7970   50.0060 C   0  0  0  0  0  3  0  0  0  0  0  0
   26.1710   27.9240   49.5300 C   0  0  0  0  0  3  0  0  0  0  0  0
   26.0110   28.4940   48.3250 N   0  0  0  0  0  0  0  0  0  0  0  0
   27.0730   28.9180   47.6250 C   0  0  0  0  0  0  0  0  0  0  0  0
   28.3190   28.7820   48.1140 N   0  0  0  0  0  0  0  0  0  0  0  0
   27.0390   29.5420   46.3320 N   0  0  0  0  0  0  0  0  0  0  0  0
   27.3640   30.8880   46.3830 C   0  0  0  0  0  3  0  0  0  0  0  0
   27.3790   31.6390   45.2210 C   0  0  0  0  0  3  0  0  0  0  0  0
   27.0670   31.0140   44.0480 C   0  0  0  0  0  0  0  0  0  0  0  0
   27.0800   31.7790   42.8640 N   0  0  0  0  0  0  0  0  0  0  0  0
   26.7590   29.7110   44.0290 N   0  0  0  0  0  0  0  0  0  0  0  0
   26.7470   28.9950   45.1480 C   0  0  0  0  0  0  0  0  0  0  0  0
   26.4750   27.7740   45.2670 O   0  0  0  0  0  0  0  0  0  0  0  0
   26.8500   31.3360   41.9630 H   0  0  0  0  0  0  0  0  0  0  0  0
   27.3210   32.7800   42.9010 H   0  0  0  0  0  0  0  0  0  0  0  0
  1  2  1  0  0  0  0
  2  3  2  0  0  0  0
  3 20  1  0  0  0  0
  4  3  1  0  0  0  0
  5  4  2  0  0  0  0
  6  1  2  0  0  0  0
  6  5  1  0  0  0  0
  7  8  1  6  0  0  0
  7  5  1  0  0  0  0
  7  9  1  0  0  0  0
  9 10  1  0  0  0  0
 10 11  1  0  0  0  0
 11 12  2  0  0  0  0
 13 12  1  0  0  0  0
 14 13  2  0  0  0  0
 15 14  1  0  0  0  0
 16 15  2  0  0  0  0
 17 18  2  0  0  0  0
 17 16  1  0  0  0  0
 18 19  1  0  0  0  0
 19 10  2  0  0  0  0
 19 14  1  0  0  0  0
 21 20  1  0  0  0  0
 21 22  1  0  0  0  0
 23 22  2  0  0  0  0
 24 23  1  0  0  0  0
 25 26  1  0  0  0  0
 25 24  2  0  0  0  0
 26 21  2  0  0  0  0
 27 28  1  0  0  0  0
 27 25  1  0  0  0  0
 29 28  2  0  0  0  0
 30 29  1  0  0  0  0
 31 36  1  0  0  0  0
 31 30  1  0  0  0  0
 32 30  2  0  0  0  0
 32 33  1  0  0  0  0
 33 34  2  0  0  0  0
 33 27  1  0  0  0  0
 35 31  1  0  0  0  0
M  END
>  <minimizedAffinity>
-8.27784729

$$$$

 OpenBabel03272514363D

 36 40  0  0  1  0  0  0  0  0999 V2000
   32.6590   27.4930   48.0220 C   0  0  0  0  0  3  0  0  0  0  0  0
   32.2340   28.2510   46.8850 C   0  0  0  0  0  3  0  0  0  0  0  0
   32.8120   29.4760   46.6240 C   0  0  0  0  0  0  0  0  0  0  0  0
   33.7880   29.9150   47.4930 N   0  0  0  0  0  0  0  0  0  0  0  0
   34.1530   29.1770   48.5400 C   0  0  0  0  0  0  0  0  0  0  0  0
   33.6130   27.9930   48.8150 N   0  0  0  0  0  0  0  0  0  0  0  0
   35.2270   29.7790   49.4050 C   0  0  1  0  0  3  0  0  0  0  0  0
   34.9700   29.2890   50.8270 C   0  0  0  0  0  1  0  0  0  0  0  0
   36.5850   29.4030   48.9760 C   0  0  0  0  0  2  0  0  0  0  0  0
   37.3940   30.6330   48.7730 C   0  0  0  0  0  0  0  0  0  0  0  0
   37.7940   31.4280   49.8530 C   0  0  0  0  0  3  0  0  0  0  0  0
   38.5210   32.5870   49.6850 C   0  0  0  0  0  3  0  0  0  0  0  0
   38.8880   33.0110   48.4030 C   0  0  0  0  0  3  0  0  0  0  0  0
   38.5020   32.2390   47.3280 C   0  0  0  0  0  0  0  0  0  0  0  0
   38.8760   32.6580   46.0520 C   0  0  0  0  0  3  0  0  0  0  0  0
   38.5170   31.9050   44.9370 C   0  0  0  0  0  3  0  0  0  0  0  0
   37.7890   30.7390   45.1050 C   0  0  0  0  0  3  0  0  0  0  0  0
   37.4400   30.3660   46.4020 C   0  0  0  0  0  3  0  0  0  0  0  0
   37.7760   31.0830   47.5170 C   0  0  0  0  0  0  0  0  0  0  0  0
   32.3650   30.2750   45.4410 C   0  0  0  0  0  2  0  0  0  0  0  0
   30.9600   30.0590   45.0770 C   0  0  0  0  0  0  0  0  0  0  0  0
   30.4570   30.0980   43.8180 C   0  0  0  0  0  3  0  0  0  0  0  0
   29.1290   29.8900   43.5030 C   0  0  0  0  0  3  0  0  0  0  0  0
   28.2870   29.6350   44.5180 N   0  0  0  0  0  0  0  0  0  0  0  0
   28.7360   29.5860   45.7800 C   0  0  0  0  0  0  0  0  0  0  0  0
   30.0360   29.7920   46.0570 N   0  0  0  0  0  0  0  0  0  0  0  0
   27.9450   29.3220   46.9500 N   0  0  0  0  0  0  0  0  0  0  0  0
   28.2130   28.0810   47.5040 C   0  0  0  0  0  3  0  0  0  0  0  0
   27.5360   27.6710   48.6390 C   0  0  0  0  0  3  0  0  0  0  0  0
   26.6120   28.5200   49.1780 C   0  0  0  0  0  0  0  0  0  0  0  0
   25.9200   28.1020   50.3320 N   0  0  0  0  0  0  0  0  0  0  0  0
   26.3750   29.7150   48.6210 N   0  0  0  0  0  0  0  0  0  0  0  0
   27.0290   30.1030   47.5320 C   0  0  0  0  0  0  0  0  0  0  0  0
   26.9010   31.1900   46.9150 O   0  0  0  0  0  0  0  0  0  0  0  0
   25.2170   28.7190   50.7630 H   0  0  0  0  0  0  0  0  0  0  0  0
   26.1180   27.1790   50.7440 H   0  0  0  0  0  0  0  0  0  0  0  0
  1  6  1  0  0  0  0
  2  1  2  0  0  0  0
  3  2  1  0  0  0  0
  3  4  2  0  0  0  0
  4  5  1  0  0  0  0
  5  6  2  0  0  0  0
  5  7  1  0  0  0  0
  7  8  1  1  0  0  0
  9  7  1  0  0  0  0
 10  9  1  0  0  0  0
 10 11  1  0  0  0  0
 12 11  2  0  0  0  0
 13 12  1  0  0  0  0
 14 19  1  0  0  0  0
 14 13  2  0  0  0  0
 15 14  1  0  0  0  0
 16 17  1  0  0  0  0
 16 15  2  0  0  0  0
 17 18  2  0  0  0  0
 18 19  1  0  0  0  0
 19 10  2  0  0  0  0
 20  3  1  0  0  0  0
 21 20  1  0  0  0  0
 21 26  1  0  0  0  0
 22 21  2  0  0  0  0
 23 22  1  0  0  0  0
 23 24  2  0  0  0  0
 24 25  1  0  0  0  0
 25 26  2  0  0  0  0
 25 27  1  0  0  0  0
 27 28  1  0  0  0  0
 27 33  1  0  0  0  0
 28 29  2  0  0  0  0
 29 30  1  0  0  0  0
 30 31  1  0  0  0  0
 31 36  1  0  0  0  0
 31 35  1  0  0  0  0
 32 30  2  0  0  0  0
 33 32  1  0  0  0  0
 34 33  2  0  0  0  0
M  END
>  <minimizedAffinity>
-8.22215939

$$$$

 OpenBabel03272514363D

 36 40  0  0  1  0  0  0  0  0999 V2000
   28.5730   27.5460   50.7270 C   0  0  0  0  0  3  0  0  0  0  0  0
   29.6970   27.2670   49.8860 C   0  0  0  0  0  3  0  0  0  0  0  0
   29.7000   27.7080   48.5790 C   0  0  0  0  0  0  0  0  0  0  0  0
   28.5960   28.4090   48.1430 N   0  0  0  0  0  0  0  0  0  0  0  0
   27.5710   28.6470   48.9600 C   0  0  0  0  0  0  0  0  0  0  0  0
   27.5420   28.2340   50.2240 N   0  0  0  0  0  0  0  0  0  0  0  0
   26.4320   29.4200   48.3520 C   0  0  1  0  0  3  0  0  0  0  0  0
   25.2330   29.2320   49.2760 C   0  0  0  0  0  1  0  0  0  0  0  0
   26.7330   30.8530   48.1940 C   0  0  0  0  0  2  0  0  0  0  0  0
   26.5510   31.2390   46.7710 C   0  0  0  0  0  0  0  0  0  0  0  0
   26.9700   30.4030   45.7300 C   0  0  0  0  0  3  0  0  0  0  0  0
   26.8350   30.7530   44.4030 C   0  0  0  0  0  3  0  0  0  0  0  0
   26.2640   31.9810   44.0520 C   0  0  0  0  0  3  0  0  0  0  0  0
   25.8460   32.8170   45.0650 C   0  0  0  0  0  0  0  0  0  0  0  0
   25.2700   34.0360   44.7120 C   0  0  0  0  0  3  0  0  0  0  0  0
   24.8230   34.9090   45.7020 C   0  0  0  0  0  3  0  0  0  0  0  0
   24.9560   34.5570   47.0340 C   0  0  0  0  0  3  0  0  0  0  0  0
   25.5410   33.3270   47.3320 C   0  0  0  0  0  3  0  0  0  0  0  0
   25.9890   32.4480   46.3850 C   0  0  0  0  0  0  0  0  0  0  0  0
   30.8690   27.4100   47.6940 C   0  0  0  0  0  2  0  0  0  0  0  0
   31.4680   28.6020   47.0830 C   0  0  0  0  0  0  0  0  0  0  0  0
   30.8490   29.4370   46.2110 C   0  0  0  0  0  3  0  0  0  0  0  0
   31.4390   30.5530   45.6510 C   0  0  0  0  0  3  0  0  0  0  0  0
   32.7080   30.8200   45.9980 N   0  0  0  0  0  0  0  0  0  0  0  0
   33.3620   30.0240   46.8550 C   0  0  0  0  0  0  0  0  0  0  0  0
   32.7630   28.9430   47.3860 N   0  0  0  0  0  0  0  0  0  0  0  0
   34.7150   30.1980   47.3060 N   0  0  0  0  0  0  0  0  0  0  0  0
   34.7870   30.5840   48.6340 C   0  0  0  0  0  3  0  0  0  0  0  0
   36.0200   30.7930   49.2270 C   0  0  0  0  0  3  0  0  0  0  0  0
   37.1380   30.6100   48.4650 C   0  0  0  0  0  0  0  0  0  0  0  0
   38.3940   30.8260   49.0670 N   0  0  0  0  0  0  0  0  0  0  0  0
   37.0370   30.2360   47.1840 N   0  0  0  0  0  0  0  0  0  0  0  0
   35.8520   30.0350   46.6210 C   0  0  0  0  0  0  0  0  0  0  0  0
   35.6210   29.6860   45.4360 O   0  0  0  0  0  0  0  0  0  0  0  0
   39.2560   30.6960   48.5200 H   0  0  0  0  0  0  0  0  0  0  0  0
   38.4480   31.1130   50.0550 H   0  0  0  0  0  0  0  0  0  0  0  0
  2  1  2  0  0  0  0
  3  2  1  0  0  0  0
  4  3  2  0  0  0  0
  4  5  1  0  0  0  0
  5  6  2  0  0  0  0
  6  1  1  0  0  0  0
  7  5  1  0  0  0  0
  7  8  1  1  0  0  0
  9  7  1  0  0  0  0
 10  9  1  0  0  0  0
 11 10  2  0  0  0  0
 12 11  1  0  0  0  0
 13 12  2  0  0  0  0
 13 14  1  0  0  0  0
 14 19  1  0  0  0  0
 15 14  2  0  0  0  0
 15 16  1  0  0  0  0
 16 17  2  0  0  0  0
 17 18  1  0  0  0  0
 19 10  1  0  0  0  0
 19 18  2  0  0  0  0
 20  3  1  0  0  0  0
 21 26  1  0  0  0  0
 21 20  1  0  0  0  0
 22 21  2  0  0  0  0
 23 24  2  0  0  0  0
 23 22  1  0  0  0  0
 24 25  1  0  0  0  0
 25 27  1  0  0  0  0
 25 26  2  0  0  0  0
 27 28  1  0  0  0  0
 28 29  2  0  0  0  0
 30 31  1  0  0  0  0
 30 29  1  0  0  0  0
 31 36  1  0  0  0  0
 32 30  2  0  0  0  0
 33 32  1  0  0  0  0
 33 27  1  0  0  0  0
 34 33  2  0  0  0  0
 35 31  1  0  0  0  0
M  END
>  <minimizedAffinity>
-8.21256065

$$$$

 OpenBabel03272514363D

 36 40  0  0  1  0  0  0  0  0999 V2000
   33.2660   28.8130   44.0580 C   0  0  0  0  0  3  0  0  0  0  0  0
   32.3720   29.9040   43.8190 C   0  0  0  0  0  3  0  0  0  0  0  0
   31.9460   30.6830   44.8750 C   0  0  0  0  0  0  0  0  0  0  0  0
   32.4120   30.3590   46.1320 N   0  0  0  0  0  0  0  0  0  0  0  0
   33.2440   29.3340   46.3090 C   0  0  0  0  0  0  0  0  0  0  0  0
   33.6720   28.5670   45.3090 N   0  0  0  0  0  0  0  0  0  0  0  0
   33.6720   29.0930   47.7310 C   0  0  1  0  0  3  0  0  0  0  0  0
   32.6490   28.1400   48.3400 C   0  0  0  0  0  1  0  0  0  0  0  0
   35.0250   28.5190   47.8320 C   0  0  0  0  0  2  0  0  0  0  0  0
   35.7730   29.2130   48.9130 C   0  0  0  0  0  0  0  0  0  0  0  0
   35.5610   28.9020   50.2610 C   0  0  0  0  0  3  0  0  0  0  0  0
   36.2240   29.5520   51.2800 C   0  0  0  0  0  3  0  0  0  0  0  0
   37.1470   30.5630   50.9890 C   0  0  0  0  0  3  0  0  0  0  0  0
   37.3680   30.8820   49.6660 C   0  0  0  0  0  0  0  0  0  0  0  0
   38.2940   31.8830   49.3790 C   0  0  0  0  0  3  0  0  0  0  0  0
   38.5560   32.2320   48.0560 C   0  0  0  0  0  3  0  0  0  0  0  0
   37.8930   31.5780   47.0320 C   0  0  0  0  0  3  0  0  0  0  0  0
   36.9750   30.5850   47.3750 C   0  0  0  0  0  3  0  0  0  0  0  0
   36.6950   30.2200   48.6620 C   0  0  0  0  0  0  0  0  0  0  0  0
   31.0040   31.8190   44.6320 C   0  0  0  0  0  2  0  0  0  0  0  0
   29.5930   31.4200   44.5820 C   0  0  0  0  0  0  0  0  0  0  0  0
   28.7690   31.5660   43.5140 C   0  0  0  0  0  3  0  0  0  0  0  0
   27.4440   31.1800   43.4950 C   0  0  0  0  0  3  0  0  0  0  0  0
   26.9470   30.6250   44.6120 N   0  0  0  0  0  0  0  0  0  0  0  0
   27.7210   30.4590   45.6930 C   0  0  0  0  0  0  0  0  0  0  0  0
   29.0100   30.8440   45.6840 N   0  0  0  0  0  0  0  0  0  0  0  0
   27.3150   29.8800   46.9440 N   0  0  0  0  0  0  0  0  0  0  0  0
   27.8790   28.6340   47.1610 C   0  0  0  0  0  3  0  0  0  0  0  0
   27.5920   27.9390   48.3220 C   0  0  0  0  0  3  0  0  0  0  0  0
   26.7450   28.5170   49.2240 C   0  0  0  0  0  0  0  0  0  0  0  0
   26.4490   27.8080   50.4060 N   0  0  0  0  0  0  0  0  0  0  0  0
   26.2150   29.7240   48.9880 N   0  0  0  0  0  0  0  0  0  0  0  0
   26.4970   30.3870   47.8720 C   0  0  0  0  0  0  0  0  0  0  0  0
   26.0670   31.5170   47.5310 O   0  0  0  0  0  0  0  0  0  0  0  0
   25.8150   28.2170   51.1070 H   0  0  0  0  0  0  0  0  0  0  0  0
   26.8680   26.8810   50.5680 H   0  0  0  0  0  0  0  0  0  0  0  0
  1  6  1  0  0  0  0
  2  1  2  0  0  0  0
  2  3  1  0  0  0  0
  3  4  2  0  0  0  0
  4  5  1  0  0  0  0
  5  7  1  0  0  0  0
  6  5  2  0  0  0  0
  7  9  1  0  0  0  0
  7  8  1  6  0  0  0
  9 10  1  0  0  0  0
 10 11  1  0  0  0  0
 11 12  2  0  0  0  0
 13 12  1  0  0  0  0
 14 13  2  0  0  0  0
 15 14  1  0  0  0  0
 16 15  2  0  0  0  0
 17 18  2  0  0  0  0
 17 16  1  0  0  0  0
 18 19  1  0  0  0  0
 19 10  2  0  0  0  0
 19 14  1  0  0  0  0
 20  3  1  0  0  0  0
 21 20  1  0  0  0  0
 21 26  1  0  0  0  0
 22 21  2  0  0  0  0
 23 22  1  0  0  0  0
 23 24  2  0  0  0  0
 24 25  1  0  0  0  0
 25 27  1  0  0  0  0
 26 25  2  0  0  0  0
 27 28  1  0  0  0  0
 27 33  1  0  0  0  0
 28 29  2  0  0  0  0
 29 30  1  0  0  0  0
 30 31  1  0  0  0  0
 31 36  1  0  0  0  0
 31 35  1  0  0  0  0
 32 30  2  0  0  0  0
 33 32  1  0  0  0  0
 34 33  2  0  0  0  0
M  END
>  <minimizedAffinity>
-8.04017448

$$$$
