
 OpenBabel03272514313D

 27 31  0  0  0  0  0  0  0  0999 V2000
   33.0930   26.7060   47.2250 C   0  0  0  0  0  3  0  0  0  0  0  0
   31.7700   26.7180   47.6540 C   0  0  0  0  0  3  0  0  0  0  0  0
   31.5220   27.5360   48.7200 C   0  0  0  0  0  0  0  0  0  0  0  0
   32.5210   28.2260   49.2420 N   0  0  0  0  0  0  0  0  0  0  0  0
   33.7780   28.2350   48.8620 C   0  0  0  0  0  0  0  0  0  0  0  0
   34.0190   27.4480   47.8350 N   0  0  0  0  0  0  0  0  0  0  0  0
   34.9520   28.9340   49.3400 C   0  0  0  0  0  0  0  0  0  0  0  0
   35.3260   28.8940   50.6710 C   0  0  0  0  0  3  0  0  0  0  0  0
   36.4340   29.5400   51.1780 C   0  0  0  0  0  3  0  0  0  0  0  0
   37.2430   30.2800   50.3410 C   0  0  0  0  0  3  0  0  0  0  0  0
   36.9120   30.3440   49.0300 C   0  0  0  0  0  0  0  0  0  0  0  0
   37.7270   31.0870   48.1920 C   0  0  0  0  0  3  0  0  0  0  0  0
   37.4760   31.2090   46.8640 C   0  0  0  0  0  3  0  0  0  0  0  0
   36.3530   30.5530   46.3630 C   0  0  0  0  0  3  0  0  0  0  0  0
   35.5680   29.8230   47.2290 C   0  0  0  0  0  3  0  0  0  0  0  0
   35.8020   29.6890   48.5550 C   0  0  0  0  0  0  0  0  0  0  0  0
   30.2120   27.6590   49.2760 N   0  0  0  0  0  0  0  0  0  0  0  0
   29.6740   26.9030   50.2380 C   0  0  0  0  0  3  0  0  0  0  0  0
   28.4430   27.2900   50.5170 N   0  0  0  0  0  0  0  0  0  0  0  0
   28.1670   28.3350   49.7110 C   0  0  0  0  0  0  0  0  0  0  0  0
   29.2620   28.5380   48.9670 N   0  0  0  0  0  0  0  0  0  0  0  0
   27.0850   29.2840   49.4050 C   0  0  0  0  0  0  0  0  0  0  0  0
   25.8220   28.7170   49.5200 C   0  0  0  0  0  3  0  0  0  0  0  0
   24.6950   29.4720   49.2640 C   0  0  0  0  0  3  0  0  0  0  0  0
   24.9180   30.7870   48.9020 C   0  0  0  0  0  3  0  0  0  0  0  0
   26.1550   31.3560   48.7850 C   0  0  0  0  0  3  0  0  0  0  0  0
   27.2780   30.6000   49.0390 C   0  0  0  0  0  3  0  0  0  0  0  0
  1  2  2  0  0  0  0
  1  6  1  0  0  0  0
  2  3  1  0  0  0  0
  3  4  2  0  0  0  0
  3 17  1  0  0  0  0
  5  4  1  0  0  0  0
  5  7  1  0  0  0  0
  6  5  2  0  0  0  0
  7  8  1  0  0  0  0
  8  9  2  0  0  0  0
 10  9  1  0  0  0  0
 11 10  2  0  0  0  0
 12 11  1  0  0  0  0
 13 12  2  0  0  0  0
 14 13  1  0  0  0  0
 14 15  2  0  0  0  0
 15 16  1  0  0  0  0
 16 11  1  0  0  0  0
 16  7  2  0  0  0  0
 17 18  1  0  0  0  0
 18 19  2  0  0  0  0
 20 19  1  0  0  0  0
 21 17  1  0  0  0  0
 21 20  2  0  0  0  0
 22 23  1  0  0  0  0
 22 20  1  0  0  0  0
 24 23  2  0  0  0  0
 25 24  1  0  0  0  0
 26 25  2  0  0  0  0
 26 27  1  0  0  0  0
 27 22  2  0  0  0  0
M  END
>  <minimizedAffinity>
-8.79457378

$$$$

 OpenBabel03272514313D

 27 31  0  0  0  0  0  0  0  0999 V2000
   34.3240   29.3000   45.7290 C   0  0  0  0  0  3  0  0  0  0  0  0
   33.0720   28.6970   45.8020 C   0  0  0  0  0  3  0  0  0  0  0  0
   32.6520   28.4030   47.0680 C   0  0  0  0  0  0  0  0  0  0  0  0
   33.4380   28.7010   48.0880 N   0  0  0  0  0  0  0  0  0  0  0  0
   34.6230   29.2670   48.0520 C   0  0  0  0  0  0  0  0  0  0  0  0
   35.0280   29.5520   46.8330 N   0  0  0  0  0  0  0  0  0  0  0  0
   35.5730   29.6440   49.0770 C   0  0  0  0  0  0  0  0  0  0  0  0
   35.4810   29.1490   50.3650 C   0  0  0  0  0  3  0  0  0  0  0  0
   36.3580   29.4740   51.3780 C   0  0  0  0  0  3  0  0  0  0  0  0
   37.4030   30.3420   51.1340 C   0  0  0  0  0  3  0  0  0  0  0  0
   37.5290   30.8490   49.8850 C   0  0  0  0  0  0  0  0  0  0  0  0
   38.5780   31.7180   49.6420 C   0  0  0  0  0  3  0  0  0  0  0  0
   38.7850   32.2770   48.4230 C   0  0  0  0  0  3  0  0  0  0  0  0
   37.8920   31.9410   47.4060 C   0  0  0  0  0  3  0  0  0  0  0  0
   36.8610   31.0720   47.6890 C   0  0  0  0  0  3  0  0  0  0  0  0
   36.6380   30.5050   48.8960 C   0  0  0  0  0  0  0  0  0  0  0  0
   31.3880   27.7840   47.3110 N   0  0  0  0  0  0  0  0  0  0  0  0
   30.8180   26.8140   46.5890 C   0  0  0  0  0  3  0  0  0  0  0  0
   29.6470   26.4700   47.0930 N   0  0  0  0  0  0  0  0  0  0  0  0
   29.4440   27.2400   48.1800 C   0  0  0  0  0  0  0  0  0  0  0  0
   30.5200   28.0300   48.2900 N   0  0  0  0  0  0  0  0  0  0  0  0
   28.4530   27.4770   49.2420 C   0  0  0  0  0  0  0  0  0  0  0  0
   28.8380   26.9470   50.4670 C   0  0  0  0  0  3  0  0  0  0  0  0
   28.0190   27.0800   51.5700 C   0  0  0  0  0  3  0  0  0  0  0  0
   26.8330   27.7590   51.3640 C   0  0  0  0  0  3  0  0  0  0  0  0
   26.4430   28.2850   50.1640 C   0  0  0  0  0  3  0  0  0  0  0  0
   27.2620   28.1490   49.0650 C   0  0  0  0  0  3  0  0  0  0  0  0
  1  2  2  0  0  0  0
  1  6  1  0  0  0  0
  2  3  1  0  0  0  0
  3 17  1  0  0  0  0
  3  4  2  0  0  0  0
  5  4  1  0  0  0  0
  5  7  1  0  0  0  0
  6  5  2  0  0  0  0
  7  8  1  0  0  0  0
  8  9  2  0  0  0  0
 10  9  1  0  0  0  0
 11 10  2  0  0  0  0
 12 11  1  0  0  0  0
 13 12  2  0  0  0  0
 14 15  2  0  0  0  0
 14 13  1  0  0  0  0
 15 16  1  0  0  0  0
 16  7  2  0  0  0  0
 16 11  1  0  0  0  0
 17 21  1  0  0  0  0
 18 19  2  0  0  0  0
 18 17  1  0  0  0  0
 19 20  1  0  0  0  0
 20 21  2  0  0  0  0
 20 22  1  0  0  0  0
 22 23  1  0  0  0  0
 23 24  2  0  0  0  0
 25 24  1  0  0  0  0
 26 25  2  0  0  0  0
 27 22  2  0  0  0  0
 27 26  1  0  0  0  0
M  END
>  <minimizedAffinity>
-8.72218418

$$$$

 OpenBabel03272514313D

 27 31  0  0  0  0  0  0  0  0999 V2000
   32.5130   25.8060   47.5310 C   0  0  0  0  0  3  0  0  0  0  0  0
   31.2790   25.9520   48.1560 C   0  0  0  0  0  3  0  0  0  0  0  0
   31.0650   27.1780   48.7190 C   0  0  0  0  0  0  0  0  0  0  0  0
   32.0120   28.0960   48.6320 N   0  0  0  0  0  0  0  0  0  0  0  0
   33.1860   27.9880   48.0530 C   0  0  0  0  0  0  0  0  0  0  0  0
   33.3930   26.8080   47.5090 N   0  0  0  0  0  0  0  0  0  0  0  0
   34.2970   28.9010   47.8890 C   0  0  0  0  0  0  0  0  0  0  0  0
   34.6170   29.4370   46.6540 C   0  0  0  0  0  3  0  0  0  0  0  0
   35.6620   30.3100   46.4430 C   0  0  0  0  0  3  0  0  0  0  0  0
   36.4620   30.6970   47.4990 C   0  0  0  0  0  3  0  0  0  0  0  0
   36.1820   30.1960   48.7250 C   0  0  0  0  0  0  0  0  0  0  0  0
   36.9840   30.5870   49.7830 C   0  0  0  0  0  3  0  0  0  0  0  0
   36.7810   30.1380   51.0470 C   0  0  0  0  0  3  0  0  0  0  0  0
   35.7210   29.2550   51.2490 C   0  0  0  0  0  3  0  0  0  0  0  0
   34.9460   28.8910   50.1700 C   0  0  0  0  0  3  0  0  0  0  0  0
   35.1320   29.3280   48.9040 C   0  0  0  0  0  0  0  0  0  0  0  0
   29.8450   27.4850   49.3960 N   0  0  0  0  0  0  0  0  0  0  0  0
   29.4340   26.9990   50.5710 C   0  0  0  0  0  3  0  0  0  0  0  0
   28.2580   27.4950   50.9070 N   0  0  0  0  0  0  0  0  0  0  0  0
   27.8870   28.3330   49.9200 C   0  0  0  0  0  0  0  0  0  0  0  0
   28.8720   28.3090   49.0130 N   0  0  0  0  0  0  0  0  0  0  0  0
   26.7840   29.2310   49.5400 C   0  0  0  0  0  0  0  0  0  0  0  0
   27.2190   30.5080   49.2080 C   0  0  0  0  0  3  0  0  0  0  0  0
   26.3090   31.4750   48.8290 C   0  0  0  0  0  3  0  0  0  0  0  0
   24.9840   31.0830   48.8050 C   0  0  0  0  0  3  0  0  0  0  0  0
   24.5440   29.8300   49.1290 C   0  0  0  0  0  3  0  0  0  0  0  0
   25.4540   28.8670   49.5080 C   0  0  0  0  0  3  0  0  0  0  0  0
  1  2  1  0  0  0  0
  2  3  2  0  0  0  0
  3 17  1  0  0  0  0
  4  3  1  0  0  0  0
  5  4  2  0  0  0  0
  6  1  2  0  0  0  0
  6  5  1  0  0  0  0
  7  5  1  0  0  0  0
  7 16  1  0  0  0  0
  8  7  2  0  0  0  0
  9  8  1  0  0  0  0
  9 10  2  0  0  0  0
 10 11  1  0  0  0  0
 11 16  2  0  0  0  0
 11 12  1  0  0  0  0
 12 13  2  0  0  0  0
 13 14  1  0  0  0  0
 15 14  2  0  0  0  0
 16 15  1  0  0  0  0
 17 18  1  0  0  0  0
 18 19  2  0  0  0  0
 20 19  1  0  0  0  0
 21 17  1  0  0  0  0
 21 20  2  0  0  0  0
 22 20  1  0  0  0  0
 23 22  2  0  0  0  0
 24 23  1  0  0  0  0
 25 24  2  0  0  0  0
 25 26  1  0  0  0  0
 26 27  2  0  0  0  0
 27 22  1  0  0  0  0
M  END
>  <minimizedAffinity>
-8.64541531

$$$$

 OpenBabel03272514313D

 27 31  0  0  0  0  0  0  0  0999 V2000
   33.5720   29.7830   45.0950 C   0  0  0  0  0  3  0  0  0  0  0  0
   32.5880   28.9740   45.6540 C   0  0  0  0  0  3  0  0  0  0  0  0
   32.8240   28.5970   46.9460 C   0  0  0  0  0  0  0  0  0  0  0  0
   33.9270   29.0130   47.5430 N   0  0  0  0  0  0  0  0  0  0  0  0
   34.8740   29.7740   47.0420 C   0  0  0  0  0  0  0  0  0  0  0  0
   34.6480   30.1390   45.7990 N   0  0  0  0  0  0  0  0  0  0  0  0
   36.1130   30.2950   47.5790 C   0  0  0  0  0  0  0  0  0  0  0  0
   37.0290   30.9520   46.7780 C   0  0  0  0  0  3  0  0  0  0  0  0
   38.2220   31.4670   47.2380 C   0  0  0  0  0  3  0  0  0  0  0  0
   38.5600   31.3410   48.5700 C   0  0  0  0  0  3  0  0  0  0  0  0
   37.6900   30.7050   49.3890 C   0  0  0  0  0  0  0  0  0  0  0  0
   38.0310   30.5810   50.7250 C   0  0  0  0  0  3  0  0  0  0  0  0
   37.2230   29.9600   51.6210 C   0  0  0  0  0  3  0  0  0  0  0  0
   36.0190   29.4420   51.1440 C   0  0  0  0  0  3  0  0  0  0  0  0
   35.7170   29.5870   49.8080 C   0  0  0  0  0  3  0  0  0  0  0  0
   36.5080   30.2030   48.9000 C   0  0  0  0  0  0  0  0  0  0  0  0
   31.9060   27.7670   47.6600 N   0  0  0  0  0  0  0  0  0  0  0  0
   31.9910   26.4450   47.8390 C   0  0  0  0  0  3  0  0  0  0  0  0
   30.9750   25.9930   48.5500 N   0  0  0  0  0  0  0  0  0  0  0  0
   30.2000   27.0550   48.8470 C   0  0  0  0  0  0  0  0  0  0  0  0
   30.7910   28.1210   48.2940 N   0  0  0  0  0  0  0  0  0  0  0  0
   28.9580   27.3970   49.5600 C   0  0  0  0  0  0  0  0  0  0  0  0
   28.9170   26.8820   50.8500 C   0  0  0  0  0  3  0  0  0  0  0  0
   27.8190   27.1100   51.6540 C   0  0  0  0  0  3  0  0  0  0  0  0
   26.8060   27.8650   51.0940 C   0  0  0  0  0  3  0  0  0  0  0  0
   26.8340   28.3770   49.8280 C   0  0  0  0  0  3  0  0  0  0  0  0
   27.9310   28.1460   49.0260 C   0  0  0  0  0  3  0  0  0  0  0  0
  1  2  2  0  0  0  0
  1  6  1  0  0  0  0
  2  3  1  0  0  0  0
  3  4  2  0  0  0  0
  3 17  1  0  0  0  0
  5  4  1  0  0  0  0
  5  7  1  0  0  0  0
  6  5  2  0  0  0  0
  7 16  1  0  0  0  0
  8  9  1  0  0  0  0
  8  7  2  0  0  0  0
  9 10  2  0  0  0  0
 10 11  1  0  0  0  0
 11 12  1  0  0  0  0
 12 13  2  0  0  0  0
 14 13  1  0  0  0  0
 15 14  2  0  0  0  0
 16 11  2  0  0  0  0
 16 15  1  0  0  0  0
 17 18  1  0  0  0  0
 17 21  1  0  0  0  0
 18 19  2  0  0  0  0
 19 20  1  0  0  0  0
 20 22  1  0  0  0  0
 21 20  2  0  0  0  0
 22 23  1  0  0  0  0
 23 24  2  0  0  0  0
 25 24  1  0  0  0  0
 26 25  2  0  0  0  0
 27 22  2  0  0  0  0
 27 26  1  0  0  0  0
M  END
>  <minimizedAffinity>
-8.46410275

$$$$

 OpenBabel03272514313D

 27 31  0  0  0  0  0  0  0  0999 V2000
   30.7910   26.0120   46.6250 C   0  0  0  0  0  3  0  0  0  0  0  0
   31.9790   26.7200   46.4780 C   0  0  0  0  0  3  0  0  0  0  0  0
   32.1630   27.7220   47.3880 C   0  0  0  0  0  0  0  0  0  0  0  0
   31.2320   27.9340   48.3030 N   0  0  0  0  0  0  0  0  0  0  0  0
   30.1020   27.2850   48.4660 C   0  0  0  0  0  0  0  0  0  0  0  0
   29.9240   26.3190   47.5910 N   0  0  0  0  0  0  0  0  0  0  0  0
   29.0140   27.4140   49.4120 C   0  0  0  0  0  0  0  0  0  0  0  0
   29.1170   26.9310   50.7040 C   0  0  0  0  0  3  0  0  0  0  0  0
   28.1130   27.0280   51.6430 C   0  0  0  0  0  3  0  0  0  0  0  0
   26.9180   27.6340   51.3150 C   0  0  0  0  0  3  0  0  0  0  0  0
   26.7760   28.1210   50.0600 C   0  0  0  0  0  0  0  0  0  0  0  0
   25.5760   28.7300   49.7340 C   0  0  0  0  0  3  0  0  0  0  0  0
   25.3410   29.2480   48.5010 C   0  0  0  0  0  3  0  0  0  0  0  0
   26.3640   29.1440   47.5590 C   0  0  0  0  0  3  0  0  0  0  0  0
   27.5430   28.5310   47.9240 C   0  0  0  0  0  3  0  0  0  0  0  0
   27.7960   28.0100   49.1460 C   0  0  0  0  0  0  0  0  0  0  0  0
   33.3340   28.5400   47.3710 N   0  0  0  0  0  0  0  0  0  0  0  0
   33.8080   29.2410   46.3370 C   0  0  0  0  0  3  0  0  0  0  0  0
   34.9110   29.8890   46.6650 N   0  0  0  0  0  0  0  0  0  0  0  0
   35.1650   29.6030   47.9570 C   0  0  0  0  0  0  0  0  0  0  0  0
   34.1890   28.7810   48.3620 N   0  0  0  0  0  0  0  0  0  0  0  0
   36.1400   29.8990   49.0200 C   0  0  0  0  0  0  0  0  0  0  0  0
   35.7670   29.3770   50.2530 C   0  0  0  0  0  3  0  0  0  0  0  0
   36.5710   29.5650   51.3580 C   0  0  0  0  0  3  0  0  0  0  0  0
   37.7320   30.2850   51.1470 C   0  0  0  0  0  3  0  0  0  0  0  0
   38.1090   30.8030   49.9400 C   0  0  0  0  0  3  0  0  0  0  0  0
   37.3040   30.6150   48.8380 C   0  0  0  0  0  3  0  0  0  0  0  0
  1  6  1  0  0  0  0
  2  1  2  0  0  0  0
  2  3  1  0  0  0  0
  3  4  2  0  0  0  0
  4  5  1  0  0  0  0
  5  7  1  0  0  0  0
  6  5  2  0  0  0  0
  7  8  1  0  0  0  0
  8  9  2  0  0  0  0
 10  9  1  0  0  0  0
 11 10  2  0  0  0  0
 12 11  1  0  0  0  0
 13 12  2  0  0  0  0
 14 15  2  0  0  0  0
 14 13  1  0  0  0  0
 15 16  1  0  0  0  0
 16  7  2  0  0  0  0
 16 11  1  0  0  0  0
 17  3  1  0  0  0  0
 17 21  1  0  0  0  0
 18 19  2  0  0  0  0
 18 17  1  0  0  0  0
 19 20  1  0  0  0  0
 20 21  2  0  0  0  0
 20 22  1  0  0  0  0
 22 23  1  0  0  0  0
 23 24  2  0  0  0  0
 25 24  1  0  0  0  0
 26 25  2  0  0  0  0
 27 22  2  0  0  0  0
 27 26  1  0  0  0  0
M  END
>  <minimizedAffinity>
-8.43529606

$$$$

 OpenBabel03272514313D

 27 31  0  0  0  0  0  0  0  0999 V2000
   33.1770   26.5700   47.7200 C   0  0  0  0  0  3  0  0  0  0  0  0
   31.8730   26.9640   47.4350 C   0  0  0  0  0  3  0  0  0  0  0  0
   31.7140   28.3050   47.2300 C   0  0  0  0  0  0  0  0  0  0  0  0
   32.7690   29.0960   47.3160 N   0  0  0  0  0  0  0  0  0  0  0  0
   34.0090   28.7550   47.5850 C   0  0  0  0  0  0  0  0  0  0  0  0
   34.1650   27.4630   47.7810 N   0  0  0  0  0  0  0  0  0  0  0  0
   35.2390   29.5090   47.7060 C   0  0  0  0  0  0  0  0  0  0  0  0
   35.8460   30.0860   46.6060 C   0  0  0  0  0  3  0  0  0  0  0  0
   37.0150   30.8130   46.6660 C   0  0  0  0  0  3  0  0  0  0  0  0
   37.6500   30.9990   47.8770 C   0  0  0  0  0  3  0  0  0  0  0  0
   37.0880   30.4510   48.9800 C   0  0  0  0  0  0  0  0  0  0  0  0
   37.7270   30.6390   50.1940 C   0  0  0  0  0  3  0  0  0  0  0  0
   37.2390   30.1280   51.3530 C   0  0  0  0  0  3  0  0  0  0  0  0
   36.0560   29.3930   51.2790 C   0  0  0  0  0  3  0  0  0  0  0  0
   35.4520   29.2290   50.0520 C   0  0  0  0  0  3  0  0  0  0  0  0
   35.9210   29.7310   48.8870 C   0  0  0  0  0  0  0  0  0  0  0  0
   30.4360   28.8660   46.9260 N   0  0  0  0  0  0  0  0  0  0  0  0
   30.0910   29.5240   45.8150 C   0  0  0  0  0  3  0  0  0  0  0  0
   28.8290   29.9080   45.8600 N   0  0  0  0  0  0  0  0  0  0  0  0
   28.3300   29.4860   47.0390 C   0  0  0  0  0  0  0  0  0  0  0  0
   29.3300   28.8550   47.6680 N   0  0  0  0  0  0  0  0  0  0  0  0
   27.0840   29.5020   47.8220 C   0  0  0  0  0  0  0  0  0  0  0  0
   26.6150   30.7870   48.0630 C   0  0  0  0  0  3  0  0  0  0  0  0
   25.4550   30.9780   48.7860 C   0  0  0  0  0  3  0  0  0  0  0  0
   24.8230   29.8320   49.2300 C   0  0  0  0  0  3  0  0  0  0  0  0
   25.2740   28.5630   48.9980 C   0  0  0  0  0  3  0  0  0  0  0  0
   26.4330   28.3750   48.2780 C   0  0  0  0  0  3  0  0  0  0  0  0
  1  6  1  0  0  0  0
  2  1  2  0  0  0  0
  3  4  2  0  0  0  0
  3  2  1  0  0  0  0
  4  5  1  0  0  0  0
  5  7  1  0  0  0  0
  5  6  2  0  0  0  0
  7 16  1  0  0  0  0
  8  9  1  0  0  0  0
  8  7  2  0  0  0  0
  9 10  2  0  0  0  0
 10 11  1  0  0  0  0
 11 12  1  0  0  0  0
 12 13  2  0  0  0  0
 14 13  1  0  0  0  0
 15 14  2  0  0  0  0
 16 11  2  0  0  0  0
 16 15  1  0  0  0  0
 17  3  1  0  0  0  0
 17 21  1  0  0  0  0
 18 19  2  0  0  0  0
 18 17  1  0  0  0  0
 19 20  1  0  0  0  0
 20 21  2  0  0  0  0
 20 22  1  0  0  0  0
 22 23  2  0  0  0  0
 22 27  1  0  0  0  0
 23 24  1  0  0  0  0
 24 25  2  0  0  0  0
 26 25  1  0  0  0  0
 27 26  2  0  0  0  0
M  END
>  <minimizedAffinity>
-8.39766502

$$$$

 OpenBabel03272514313D

 27 31  0  0  0  0  0  0  0  0999 V2000
   32.0790   26.4010   47.5800 C   0  0  0  0  0  3  0  0  0  0  0  0
   33.2610   27.0670   47.8890 C   0  0  0  0  0  3  0  0  0  0  0  0
   33.1470   28.0080   48.8730 C   0  0  0  0  0  0  0  0  0  0  0  0
   31.9670   28.2070   49.4340 N   0  0  0  0  0  0  0  0  0  0  0  0
   30.8360   27.5970   49.1650 C   0  0  0  0  0  0  0  0  0  0  0  0
   30.9430   26.6900   48.2180 N   0  0  0  0  0  0  0  0  0  0  0  0
   29.4940   27.7170   49.6970 C   0  0  0  0  0  0  0  0  0  0  0  0
   29.1200   27.0800   50.8660 C   0  0  0  0  0  3  0  0  0  0  0  0
   27.8590   27.1610   51.4170 C   0  0  0  0  0  3  0  0  0  0  0  0
   26.8830   27.9120   50.7950 C   0  0  0  0  0  3  0  0  0  0  0  0
   27.2080   28.5530   49.6470 C   0  0  0  0  0  0  0  0  0  0  0  0
   26.2270   29.3060   49.0260 C   0  0  0  0  0  3  0  0  0  0  0  0
   26.4590   29.9840   47.8730 C   0  0  0  0  0  3  0  0  0  0  0  0
   27.7380   29.8930   47.3250 C   0  0  0  0  0  3  0  0  0  0  0  0
   28.6860   29.1330   47.9750 C   0  0  0  0  0  3  0  0  0  0  0  0
   28.4750   28.4530   49.1240 C   0  0  0  0  0  0  0  0  0  0  0  0
   34.2710   28.7760   49.3040 N   0  0  0  0  0  0  0  0  0  0  0  0
   34.6760   28.9700   50.5620 C   0  0  0  0  0  3  0  0  0  0  0  0
   35.7530   29.7330   50.6050 N   0  0  0  0  0  0  0  0  0  0  0  0
   36.0640   30.0470   49.3330 C   0  0  0  0  0  0  0  0  0  0  0  0
   35.1460   29.4510   48.5610 N   0  0  0  0  0  0  0  0  0  0  0  0
   37.0550   30.8090   48.5550 C   0  0  0  0  0  0  0  0  0  0  0  0
   37.5640   31.8990   49.2500 C   0  0  0  0  0  3  0  0  0  0  0  0
   38.5040   32.7200   48.6620 C   0  0  0  0  0  3  0  0  0  0  0  0
   38.8840   32.3820   47.3780 C   0  0  0  0  0  3  0  0  0  0  0  0
   38.3910   31.3130   46.6830 C   0  0  0  0  0  3  0  0  0  0  0  0
   37.4510   30.4950   47.2720 C   0  0  0  0  0  3  0  0  0  0  0  0
  1  2  2  0  0  0  0
  1  6  1  0  0  0  0
  2  3  1  0  0  0  0
  3 17  1  0  0  0  0
  3  4  2  0  0  0  0
  5  4  1  0  0  0  0
  5  7  1  0  0  0  0
  6  5  2  0  0  0  0
  7  8  1  0  0  0  0
  8  9  2  0  0  0  0
 10  9  1  0  0  0  0
 11 10  2  0  0  0  0
 12 11  1  0  0  0  0
 13 12  2  0  0  0  0
 14 13  1  0  0  0  0
 14 15  2  0  0  0  0
 15 16  1  0  0  0  0
 16 11  1  0  0  0  0
 16  7  2  0  0  0  0
 17 18  1  0  0  0  0
 18 19  2  0  0  0  0
 20 19  1  0  0  0  0
 21 17  1  0  0  0  0
 21 20  2  0  0  0  0
 22 23  1  0  0  0  0
 22 20  1  0  0  0  0
 24 23  2  0  0  0  0
 25 24  1  0  0  0  0
 26 27  1  0  0  0  0
 26 25  2  0  0  0  0
 27 22  2  0  0  0  0
M  END
>  <minimizedAffinity>
-8.33454323

$$$$

 OpenBabel03272514313D

 27 31  0  0  0  0  0  0  0  0999 V2000
   31.3510   25.6990   46.5260 C   0  0  0  0  0  3  0  0  0  0  0  0
   32.5350   26.4280   46.5630 C   0  0  0  0  0  3  0  0  0  0  0  0
   32.4040   27.7100   47.0160 C   0  0  0  0  0  0  0  0  0  0  0  0
   31.2060   28.1440   47.3690 N   0  0  0  0  0  0  0  0  0  0  0  0
   30.0720   27.4830   47.3430 C   0  0  0  0  0  0  0  0  0  0  0  0
   30.1970   26.2470   46.9090 N   0  0  0  0  0  0  0  0  0  0  0  0
   28.7130   27.8340   47.6970 C   0  0  0  0  0  0  0  0  0  0  0  0
   27.8210   28.3160   46.7560 C   0  0  0  0  0  3  0  0  0  0  0  0
   26.5180   28.6640   47.0390 C   0  0  0  0  0  3  0  0  0  0  0  0
   26.0350   28.5410   48.3260 C   0  0  0  0  0  3  0  0  0  0  0  0
   26.8760   28.0720   49.2780 C   0  0  0  0  0  0  0  0  0  0  0  0
   26.3880   27.9480   50.5680 C   0  0  0  0  0  3  0  0  0  0  0  0
   27.1560   27.4880   51.5880 C   0  0  0  0  0  3  0  0  0  0  0  0
   28.4730   27.1400   51.2900 C   0  0  0  0  0  3  0  0  0  0  0  0
   28.9190   27.2770   49.9940 C   0  0  0  0  0  3  0  0  0  0  0  0
   28.1700   27.7330   48.9640 C   0  0  0  0  0  0  0  0  0  0  0  0
   33.5280   28.5850   47.1140 N   0  0  0  0  0  0  0  0  0  0  0  0
   34.0020   29.3940   46.1620 C   0  0  0  0  0  3  0  0  0  0  0  0
   35.0550   30.0670   46.5880 N   0  0  0  0  0  0  0  0  0  0  0  0
   35.2760   29.6880   47.8610 C   0  0  0  0  0  0  0  0  0  0  0  0
   34.3320   28.7850   48.1560 N   0  0  0  0  0  0  0  0  0  0  0  0
   36.1930   29.9420   48.9850 C   0  0  0  0  0  0  0  0  0  0  0  0
   35.7410   29.4020   50.1820 C   0  0  0  0  0  3  0  0  0  0  0  0
   36.4830   29.5530   51.3360 C   0  0  0  0  0  3  0  0  0  0  0  0
   37.6660   30.2540   51.2070 C   0  0  0  0  0  3  0  0  0  0  0  0
   38.1220   30.7900   50.0350 C   0  0  0  0  0  3  0  0  0  0  0  0
   37.3790   30.6390   48.8850 C   0  0  0  0  0  3  0  0  0  0  0  0
  1  2  2  0  0  0  0
  1  6  1  0  0  0  0
  2  3  1  0  0  0  0
  3 17  1  0  0  0  0
  3  4  2  0  0  0  0
  5  4  1  0  0  0  0
  5  7  1  0  0  0  0
  6  5  2  0  0  0  0
  7 16  1  0  0  0  0
  8  9  1  0  0  0  0
  8  7  2  0  0  0  0
  9 10  2  0  0  0  0
 10 11  1  0  0  0  0
 11 12  1  0  0  0  0
 12 13  2  0  0  0  0
 14 13  1  0  0  0  0
 15 14  2  0  0  0  0
 16 11  2  0  0  0  0
 16 15  1  0  0  0  0
 17 21  1  0  0  0  0
 18 19  2  0  0  0  0
 18 17  1  0  0  0  0
 19 20  1  0  0  0  0
 20 21  2  0  0  0  0
 20 22  1  0  0  0  0
 22 23  1  0  0  0  0
 23 24  2  0  0  0  0
 25 24  1  0  0  0  0
 26 25  2  0  0  0  0
 27 22  2  0  0  0  0
 27 26  1  0  0  0  0
M  END
>  <minimizedAffinity>
-8.11316109

$$$$

 OpenBabel03272514313D

 27 31  0  0  0  0  0  0  0  0999 V2000
   32.7100   26.0890   47.3520 C   0  0  0  0  0  3  0  0  0  0  0  0
   33.8290   26.7210   47.8830 C   0  0  0  0  0  3  0  0  0  0  0  0
   33.5720   27.9040   48.5150 C   0  0  0  0  0  0  0  0  0  0  0  0
   32.3260   28.3420   48.5700 N   0  0  0  0  0  0  0  0  0  0  0  0
   31.2500   27.7700   48.0780 C   0  0  0  0  0  0  0  0  0  0  0  0
   31.4960   26.6300   47.4700 N   0  0  0  0  0  0  0  0  0  0  0  0
   29.8490   28.1370   48.0700 C   0  0  0  0  0  0  0  0  0  0  0  0
   29.2730   28.7680   46.9820 C   0  0  0  0  0  3  0  0  0  0  0  0
   27.9470   29.1380   46.9220 C   0  0  0  0  0  3  0  0  0  0  0  0
   27.1100   28.8820   47.9890 C   0  0  0  0  0  3  0  0  0  0  0  0
   27.6350   28.2640   49.0740 C   0  0  0  0  0  0  0  0  0  0  0  0
   26.7930   28.0070   50.1430 C   0  0  0  0  0  3  0  0  0  0  0  0
   27.2280   27.3930   51.2720 C   0  0  0  0  0  3  0  0  0  0  0  0
   28.5720   27.0250   51.3220 C   0  0  0  0  0  3  0  0  0  0  0  0
   29.3760   27.2980   50.2370 C   0  0  0  0  0  3  0  0  0  0  0  0
   28.9620   27.9070   49.1030 C   0  0  0  0  0  0  0  0  0  0  0  0
   34.6160   28.6730   49.1130 N   0  0  0  0  0  0  0  0  0  0  0  0
   34.9360   28.7210   50.4100 C   0  0  0  0  0  3  0  0  0  0  0  0
   35.9560   29.5330   50.6200 N   0  0  0  0  0  0  0  0  0  0  0  0
   36.3150   30.0330   49.4210 C   0  0  0  0  0  0  0  0  0  0  0  0
   35.4830   29.4930   48.5220 N   0  0  0  0  0  0  0  0  0  0  0  0
   37.2930   30.9500   48.8140 C   0  0  0  0  0  0  0  0  0  0  0  0
   37.7580   30.5040   47.5830 C   0  0  0  0  0  3  0  0  0  0  0  0
   38.6840   31.2470   46.8800 C   0  0  0  0  0  3  0  0  0  0  0  0
   39.0920   32.4250   47.4760 C   0  0  0  0  0  3  0  0  0  0  0  0
   38.6420   32.8750   48.6850 C   0  0  0  0  0  3  0  0  0  0  0  0
   37.7190   32.1300   49.3860 C   0  0  0  0  0  3  0  0  0  0  0  0
  1  6  2  0  0  0  0
  1  2  1  0  0  0  0
  2  3  2  0  0  0  0
  3  4  1  0  0  0  0
  3 17  1  0  0  0  0
  5  4  2  0  0  0  0
  6  5  1  0  0  0  0
  7  5  1  0  0  0  0
  7 16  1  0  0  0  0
  8  7  2  0  0  0  0
  9  8  1  0  0  0  0
  9 10  2  0  0  0  0
 10 11  1  0  0  0  0
 11 16  2  0  0  0  0
 11 12  1  0  0  0  0
 12 13  2  0  0  0  0
 13 14  1  0  0  0  0
 15 14  2  0  0  0  0
 16 15  1  0  0  0  0
 17 18  1  0  0  0  0
 18 19  2  0  0  0  0
 20 19  1  0  0  0  0
 21 17  1  0  0  0  0
 21 20  2  0  0  0  0
 22 27  1  0  0  0  0
 22 20  1  0  0  0  0
 23 22  2  0  0  0  0
 24 25  2  0  0  0  0
 24 23  1  0  0  0  0
 25 26  1  0  0  0  0
 26 27  2  0  0  0  0
M  END
>  <minimizedAffinity>
-8.08994675

$$$$
