
 OpenBabel03272514303D

 31 35  0  0  0  0  0  0  0  0999 V2000
   34.0370   28.6920   44.8180 C   0  0  0  0  0  3  0  0  0  0  0  0
   32.8450   28.2940   45.4100 C   0  0  0  0  0  3  0  0  0  0  0  0
   32.7560   28.5660   46.7510 C   0  0  0  0  0  0  0  0  0  0  0  0
   33.7740   29.1630   47.3580 N   0  0  0  0  0  0  0  0  0  0  0  0
   34.9010   29.5450   46.8170 C   0  0  0  0  0  0  0  0  0  0  0  0
   34.9890   29.2880   45.5380 N   0  0  0  0  0  0  0  0  0  0  0  0
   31.5990   28.2210   47.5110 N   0  0  0  0  0  0  0  0  0  0  0  0
   31.5060   27.1740   48.3640 C   0  0  0  0  0  3  0  0  0  0  0  0
   30.2920   27.1430   48.9040 N   0  0  0  0  0  0  0  0  0  0  0  0
   29.6020   28.1820   48.3910 C   0  0  0  0  0  0  0  0  0  0  0  0
   30.4190   28.8260   47.5430 N   0  0  0  0  0  0  0  0  0  0  0  0
   28.2420   28.4620   48.7520 N   0  0  0  0  0  0  0  0  0  0  0  0
   27.7150   29.6690   48.4900 C   0  0  0  0  0  3  0  0  0  0  0  0
   26.4000   29.8550   48.8690 C   0  0  0  0  0  0  0  0  0  0  0  0
   25.7210   31.1550   48.6260 C   0  0  0  0  0  1  0  0  0  0  0  0
   25.7640   28.7920   49.4760 C   0  0  0  0  0  0  0  0  0  0  0  0
   24.5520   29.0240   49.8040 O   0  0  0  0  0  0  0  0  0  0  0  0
   26.3010   27.5900   49.7330 N   0  0  0  0  0  0  0  0  0  0  0  0
   27.5950   27.4430   49.3460 C   0  0  0  0  0  0  0  0  0  0  0  0
   28.1360   26.3290   49.5680 O   0  0  0  0  0  0  0  0  0  0  0  0
   25.7710   26.8340   50.1900 H   0  0  0  0  0  0  0  0  0  0  0  0
   36.0850   30.2020   47.3560 C   0  0  0  0  0  0  0  0  0  0  0  0
   36.9400   30.9480   46.5570 C   0  0  0  0  0  3  0  0  0  0  0  0
   38.0600   31.5830   47.0130 C   0  0  0  0  0  3  0  0  0  0  0  0
   38.3990   31.5060   48.3390 C   0  0  0  0  0  3  0  0  0  0  0  0
   37.5990   30.7900   49.1680 C   0  0  0  0  0  0  0  0  0  0  0  0
   37.9440   30.7140   50.5110 C   0  0  0  0  0  3  0  0  0  0  0  0
   37.1950   30.0140   51.4100 C   0  0  0  0  0  3  0  0  0  0  0  0
   36.0550   29.3750   50.9260 C   0  0  0  0  0  3  0  0  0  0  0  0
   35.7500   29.4750   49.5890 C   0  0  0  0  0  3  0  0  0  0  0  0
   36.4850   30.1680   48.6730 C   0  0  0  0  0  0  0  0  0  0  0  0
  1  2  2  0  0  0  0
  1  6  1  0  0  0  0
  2  3  1  0  0  0  0
  3  4  2  0  0  0  0
  3  7  1  0  0  0  0
  5 22  1  0  0  0  0
  5  4  1  0  0  0  0
  6  5  2  0  0  0  0
  7 11  1  0  0  0  0
  7  8  1  0  0  0  0
  8  9  2  0  0  0  0
 10 12  1  0  0  0  0
 10  9  1  0  0  0  0
 11 10  2  0  0  0  0
 12 19  1  0  0  0  0
 13 12  1  0  0  0  0
 13 14  2  0  0  0  0
 14 16  1  0  0  0  0
 15 14  1  0  0  0  0
 16 18  1  0  0  0  0
 16 17  2  0  0  0  0
 18 21  1  0  0  0  0
 19 20  2  0  0  0  0
 19 18  1  0  0  0  0
 22 31  1  0  0  0  0
 23 24  1  0  0  0  0
 23 22  2  0  0  0  0
 24 25  2  0  0  0  0
 25 26  1  0  0  0  0
 26 27  1  0  0  0  0
 27 28  2  0  0  0  0
 29 28  1  0  0  0  0
 30 29  2  0  0  0  0
 31 26  2  0  0  0  0
 31 30  1  0  0  0  0
M  END
>  <minimizedAffinity>
-9.33549786

$$$$

 OpenBabel03272514303D

 31 35  0  0  0  0  0  0  0  0999 V2000
   34.8390   29.4380   45.2670 C   0  0  0  0  0  3  0  0  0  0  0  0
   33.4720   29.2580   45.1010 C   0  0  0  0  0  3  0  0  0  0  0  0
   32.7520   29.2540   46.2680 C   0  0  0  0  0  0  0  0  0  0  0  0
   33.3890   29.4160   47.4200 N   0  0  0  0  0  0  0  0  0  0  0  0
   34.6740   29.5880   47.5950 C   0  0  0  0  0  0  0  0  0  0  0  0
   35.3640   29.5920   46.4840 N   0  0  0  0  0  0  0  0  0  0  0  0
   31.3360   29.0790   46.2750 N   0  0  0  0  0  0  0  0  0  0  0  0
   30.5580   28.9510   45.1740 C   0  0  0  0  0  3  0  0  0  0  0  0
   29.2890   28.8050   45.5400 N   0  0  0  0  0  0  0  0  0  0  0  0
   29.2550   28.8390   46.8880 C   0  0  0  0  0  0  0  0  0  0  0  0
   30.5160   29.0080   47.3150 N   0  0  0  0  0  0  0  0  0  0  0  0
   28.0380   28.7100   47.6350 N   0  0  0  0  0  0  0  0  0  0  0  0
   28.0850   28.4130   48.9440 C   0  0  0  0  0  3  0  0  0  0  0  0
   26.8680   28.3080   49.5890 C   0  0  0  0  0  0  0  0  0  0  0  0
   26.8080   27.9820   51.0380 C   0  0  0  0  0  1  0  0  0  0  0  0
   25.7340   28.5150   48.8310 C   0  0  0  0  0  0  0  0  0  0  0  0
   24.6410   28.4040   49.4810 O   0  0  0  0  0  0  0  0  0  0  0  0
   25.6990   28.8110   47.5230 N   0  0  0  0  0  0  0  0  0  0  0  0
   26.9140   28.9070   46.9220 C   0  0  0  0  0  0  0  0  0  0  0  0
   26.9250   29.1840   45.6950 O   0  0  0  0  0  0  0  0  0  0  0  0
   24.8170   28.9550   47.0120 H   0  0  0  0  0  0  0  0  0  0  0  0
   35.4940   29.7760   48.7840 C   0  0  0  0  0  0  0  0  0  0  0  0
   35.2160   29.1270   49.9790 C   0  0  0  0  0  3  0  0  0  0  0  0
   35.9540   29.2690   51.1200 C   0  0  0  0  0  3  0  0  0  0  0  0
   37.0470   30.0950   51.1300 C   0  0  0  0  0  3  0  0  0  0  0  0
   37.3670   30.7560   49.9900 C   0  0  0  0  0  0  0  0  0  0  0  0
   38.4750   31.5920   50.0030 C   0  0  0  0  0  3  0  0  0  0  0  0
   38.8640   32.2920   48.8990 C   0  0  0  0  0  3  0  0  0  0  0  0
   38.1000   32.1340   47.7450 C   0  0  0  0  0  3  0  0  0  0  0  0
   37.0100   31.2960   47.7740 C   0  0  0  0  0  3  0  0  0  0  0  0
   36.6030   30.5870   48.8670 C   0  0  0  0  0  0  0  0  0  0  0  0
  1  6  1  0  0  0  0
  2  1  2  0  0  0  0
  2  3  1  0  0  0  0
  3  7  1  0  0  0  0
  3  4  2  0  0  0  0
  4  5  1  0  0  0  0
  5 22  1  0  0  0  0
  6  5  2  0  0  0  0
  7 11  1  0  0  0  0
  8  9  2  0  0  0  0
  8  7  1  0  0  0  0
  9 10  1  0  0  0  0
 10 11  2  0  0  0  0
 10 12  1  0  0  0  0
 12 13  1  0  0  0  0
 13 14  2  0  0  0  0
 14 15  1  0  0  0  0
 16 17  2  0  0  0  0
 16 14  1  0  0  0  0
 18 16  1  0  0  0  0
 19 18  1  0  0  0  0
 19 12  1  0  0  0  0
 20 19  2  0  0  0  0
 21 18  1  0  0  0  0
 22 31  2  0  0  0  0
 22 23  1  0  0  0  0
 23 24  2  0  0  0  0
 24 25  1  0  0  0  0
 26 27  1  0  0  0  0
 26 25  2  0  0  0  0
 28 27  2  0  0  0  0
 29 30  2  0  0  0  0
 29 28  1  0  0  0  0
 30 31  1  0  0  0  0
 31 26  1  0  0  0  0
M  END
>  <minimizedAffinity>
-8.70940113

$$$$

 OpenBabel03272514303D

 31 35  0  0  0  0  0  0  0  0999 V2000
   34.9990   29.3620   44.0760 C   0  0  0  0  0  3  0  0  0  0  0  0
   33.6270   29.2320   44.2490 C   0  0  0  0  0  3  0  0  0  0  0  0
   33.1760   29.5640   45.5010 C   0  0  0  0  0  0  0  0  0  0  0  0
   34.0490   29.9680   46.4150 N   0  0  0  0  0  0  0  0  0  0  0  0
   35.3420   30.0970   46.2700 C   0  0  0  0  0  0  0  0  0  0  0  0
   35.7750   29.7810   45.0770 N   0  0  0  0  0  0  0  0  0  0  0  0
   31.7940   29.4850   45.8460 N   0  0  0  0  0  0  0  0  0  0  0  0
   30.7630   29.7800   45.0200 C   0  0  0  0  0  3  0  0  0  0  0  0
   29.6120   29.5990   45.6600 N   0  0  0  0  0  0  0  0  0  0  0  0
   29.9110   29.1840   46.9070 C   0  0  0  0  0  0  0  0  0  0  0  0
   31.2480   29.1220   46.9990 N   0  0  0  0  0  0  0  0  0  0  0  0
   28.9050   28.8880   47.8860 N   0  0  0  0  0  0  0  0  0  0  0  0
   29.2220   28.1690   48.9750 C   0  0  0  0  0  3  0  0  0  0  0  0
   28.1950   27.9300   49.8680 C   0  0  0  0  0  0  0  0  0  0  0  0
   28.4390   27.1440   51.1060 C   0  0  0  0  0  1  0  0  0  0  0  0
   26.9560   28.4490   49.5540 C   0  0  0  0  0  0  0  0  0  0  0  0
   26.0480   28.1950   50.4150 O   0  0  0  0  0  0  0  0  0  0  0  0
   26.6510   29.1650   48.4630 N   0  0  0  0  0  0  0  0  0  0  0  0
   27.6840   29.3810   47.6080 C   0  0  0  0  0  0  0  0  0  0  0  0
   27.4400   30.0500   46.5720 O   0  0  0  0  0  0  0  0  0  0  0  0
   25.7020   29.5260   48.2860 H   0  0  0  0  0  0  0  0  0  0  0  0
   36.4020   30.5240   47.1740 C   0  0  0  0  0  0  0  0  0  0  0  0
   37.4690   31.2990   46.7420 C   0  0  0  0  0  3  0  0  0  0  0  0
   38.4860   31.7250   47.5490 C   0  0  0  0  0  3  0  0  0  0  0  0
   38.4920   31.3880   48.8770 C   0  0  0  0  0  3  0  0  0  0  0  0
   37.4730   30.6320   49.3560 C   0  0  0  0  0  0  0  0  0  0  0  0
   37.4820   30.2920   50.7020 C   0  0  0  0  0  3  0  0  0  0  0  0
   36.4970   29.5340   51.2620 C   0  0  0  0  0  3  0  0  0  0  0  0
   35.4680   29.1100   50.4240 C   0  0  0  0  0  3  0  0  0  0  0  0
   35.4970   29.4680   49.0960 C   0  0  0  0  0  3  0  0  0  0  0  0
   36.4730   30.2240   48.5160 C   0  0  0  0  0  0  0  0  0  0  0  0
  1  2  2  0  0  0  0
  1  6  1  0  0  0  0
  2  3  1  0  0  0  0
  3  7  1  0  0  0  0
  3  4  2  0  0  0  0
  5  4  1  0  0  0  0
  5 22  1  0  0  0  0
  6  5  2  0  0  0  0
  7 11  1  0  0  0  0
  8  9  2  0  0  0  0
  8  7  1  0  0  0  0
  9 10  1  0  0  0  0
 10 11  2  0  0  0  0
 10 12  1  0  0  0  0
 12 13  1  0  0  0  0
 13 14  2  0  0  0  0
 14 15  1  0  0  0  0
 16 14  1  0  0  0  0
 16 17  2  0  0  0  0
 18 16  1  0  0  0  0
 19 12  1  0  0  0  0
 19 18  1  0  0  0  0
 20 19  2  0  0  0  0
 21 18  1  0  0  0  0
 22 31  1  0  0  0  0
 23 22  2  0  0  0  0
 23 24  1  0  0  0  0
 24 25  2  0  0  0  0
 25 26  1  0  0  0  0
 26 27  1  0  0  0  0
 27 28  2  0  0  0  0
 29 28  1  0  0  0  0
 30 29  2  0  0  0  0
 31 30  1  0  0  0  0
 31 26  2  0  0  0  0
M  END
>  <minimizedAffinity>
-8.6065731

$$$$

 OpenBabel03272514303D

 31 35  0  0  0  0  0  0  0  0999 V2000
   31.6330   25.7290   47.5690 C   0  0  0  0  0  3  0  0  0  0  0  0
   32.8270   26.4400   47.5390 C   0  0  0  0  0  3  0  0  0  0  0  0
   32.8230   27.5910   48.2830 C   0  0  0  0  0  0  0  0  0  0  0  0
   31.7250   27.9280   48.9470 N   0  0  0  0  0  0  0  0  0  0  0  0
   30.5940   27.2720   48.9870 C   0  0  0  0  0  0  0  0  0  0  0  0
   30.5940   26.1720   48.2780 N   0  0  0  0  0  0  0  0  0  0  0  0
   33.9680   28.4380   48.3600 N   0  0  0  0  0  0  0  0  0  0  0  0
   34.6590   28.7200   49.4890 C   0  0  0  0  0  3  0  0  0  0  0  0
   35.6660   29.5390   49.2050 N   0  0  0  0  0  0  0  0  0  0  0  0
   35.6190   29.7830   47.8790 C   0  0  0  0  0  0  0  0  0  0  0  0
   34.5750   29.1010   47.3840 N   0  0  0  0  0  0  0  0  0  0  0  0
   36.5630   30.6340   47.2150 N   0  0  0  0  0  0  0  0  0  0  0  0
   36.6870   30.5810   45.8780 C   0  0  0  0  0  3  0  0  0  0  0  0
   37.6180   31.4350   45.3190 C   0  0  0  0  0  0  0  0  0  0  0  0
   37.8340   31.4550   43.8480 C   0  0  0  0  0  1  0  0  0  0  0  0
   38.3230   32.2490   46.1810 C   0  0  0  0  0  0  0  0  0  0  0  0
   39.1680   33.0140   45.6060 O   0  0  0  0  0  0  0  0  0  0  0  0
   38.1910   32.2930   47.5140 N   0  0  0  0  0  0  0  0  0  0  0  0
   37.2660   31.4410   48.0300 C   0  0  0  0  0  0  0  0  0  0  0  0
   37.1110   31.4530   49.2780 O   0  0  0  0  0  0  0  0  0  0  0  0
   38.7490   32.9270   48.1040 H   0  0  0  0  0  0  0  0  0  0  0  0
   29.3290   27.5210   49.6650 C   0  0  0  0  0  0  0  0  0  0  0  0
   29.0250   26.9440   50.8900 C   0  0  0  0  0  3  0  0  0  0  0  0
   27.8550   27.1460   51.5650 C   0  0  0  0  0  3  0  0  0  0  0  0
   26.8910   27.9640   51.0360 C   0  0  0  0  0  3  0  0  0  0  0  0
   27.1330   28.5560   49.8390 C   0  0  0  0  0  0  0  0  0  0  0  0
   26.1560   29.3840   49.3050 C   0  0  0  0  0  3  0  0  0  0  0  0
   26.3200   30.0150   48.1080 C   0  0  0  0  0  3  0  0  0  0  0  0
   27.5200   29.7990   47.4340 C   0  0  0  0  0  3  0  0  0  0  0  0
   28.4620   28.9700   47.9980 C   0  0  0  0  0  3  0  0  0  0  0  0
   28.3180   28.3280   49.1930 C   0  0  0  0  0  0  0  0  0  0  0  0
  1  6  1  0  0  0  0
  2  1  2  0  0  0  0
  2  3  1  0  0  0  0
  3  7  1  0  0  0  0
  3  4  2  0  0  0  0
  4  5  1  0  0  0  0
  5 22  1  0  0  0  0
  6  5  2  0  0  0  0
  7  8  1  0  0  0  0
  9  8  2  0  0  0  0
 10  9  1  0  0  0  0
 11 10  2  0  0  0  0
 11  7  1  0  0  0  0
 12 10  1  0  0  0  0
 12 19  1  0  0  0  0
 13 12  1  0  0  0  0
 14 13  2  0  0  0  0
 14 16  1  0  0  0  0
 15 14  1  0  0  0  0
 16 18  1  0  0  0  0
 17 16  2  0  0  0  0
 18 19  1  0  0  0  0
 18 21  1  0  0  0  0
 19 20  2  0  0  0  0
 22 23  1  0  0  0  0
 23 24  2  0  0  0  0
 25 24  1  0  0  0  0
 26 25  2  0  0  0  0
 27 26  1  0  0  0  0
 28 27  2  0  0  0  0
 29 30  2  0  0  0  0
 29 28  1  0  0  0  0
 30 31  1  0  0  0  0
 31 22  2  0  0  0  0
 31 26  1  0  0  0  0
M  END
>  <minimizedAffinity>
-8.58523464

$$$$

 OpenBabel03272514303D

 31 35  0  0  0  0  0  0  0  0999 V2000
   34.2640   29.1960   44.4590 C   0  0  0  0  0  3  0  0  0  0  0  0
   33.0150   28.7280   44.8480 C   0  0  0  0  0  3  0  0  0  0  0  0
   32.8030   28.7290   46.2030 C   0  0  0  0  0  0  0  0  0  0  0  0
   33.7660   29.1590   47.0070 N   0  0  0  0  0  0  0  0  0  0  0  0
   34.9460   29.6040   46.6590 C   0  0  0  0  0  0  0  0  0  0  0  0
   35.1520   29.6040   45.3670 N   0  0  0  0  0  0  0  0  0  0  0  0
   31.5740   28.2780   46.7690 N   0  0  0  0  0  0  0  0  0  0  0  0
   31.3150   27.0120   47.1730 C   0  0  0  0  0  3  0  0  0  0  0  0
   30.0780   26.9390   47.6500 N   0  0  0  0  0  0  0  0  0  0  0  0
   29.5390   28.1710   47.5520 C   0  0  0  0  0  0  0  0  0  0  0  0
   30.4690   28.9730   47.0110 N   0  0  0  0  0  0  0  0  0  0  0  0
   28.2020   28.4680   47.9780 N   0  0  0  0  0  0  0  0  0  0  0  0
   27.8300   29.7430   48.1760 C   0  0  0  0  0  3  0  0  0  0  0  0
   26.5250   29.9400   48.5850 C   0  0  0  0  0  0  0  0  0  0  0  0
   26.0120   31.3140   48.8330 C   0  0  0  0  0  1  0  0  0  0  0  0
   25.7400   28.8180   48.7480 C   0  0  0  0  0  0  0  0  0  0  0  0
   24.5460   29.0630   49.1270 O   0  0  0  0  0  0  0  0  0  0  0  0
   26.1230   27.5480   48.5470 N   0  0  0  0  0  0  0  0  0  0  0  0
   27.4110   27.3910   48.1460 C   0  0  0  0  0  0  0  0  0  0  0  0
   27.8090   26.2160   47.9450 O   0  0  0  0  0  0  0  0  0  0  0  0
   25.4860   26.7500   48.6860 H   0  0  0  0  0  0  0  0  0  0  0  0
   36.0820   30.1010   47.4250 C   0  0  0  0  0  0  0  0  0  0  0  0
   36.2360   29.8210   48.7750 C   0  0  0  0  0  3  0  0  0  0  0  0
   37.2820   30.2620   49.5360 C   0  0  0  0  0  3  0  0  0  0  0  0
   38.2630   31.0320   48.9700 C   0  0  0  0  0  3  0  0  0  0  0  0
   38.1650   31.3370   47.6520 C   0  0  0  0  0  0  0  0  0  0  0  0
   39.1610   32.1170   47.0810 C   0  0  0  0  0  3  0  0  0  0  0  0
   39.1360   32.4700   45.7640 C   0  0  0  0  0  3  0  0  0  0  0  0
   38.0630   32.0100   45.0040 C   0  0  0  0  0  3  0  0  0  0  0  0
   37.0970   31.2400   45.6080 C   0  0  0  0  0  3  0  0  0  0  0  0
   37.1020   30.8770   46.9230 C   0  0  0  0  0  0  0  0  0  0  0  0
  1  2  2  0  0  0  0
  1  6  1  0  0  0  0
  2  3  1  0  0  0  0
  3  7  1  0  0  0  0
  3  4  2  0  0  0  0
  5  4  1  0  0  0  0
  5 22  1  0  0  0  0
  6  5  2  0  0  0  0
  7 11  1  0  0  0  0
  7  8  1  0  0  0  0
  8  9  2  0  0  0  0
 10  9  1  0  0  0  0
 10 12  1  0  0  0  0
 11 10  2  0  0  0  0
 12 19  1  0  0  0  0
 12 13  1  0  0  0  0
 13 14  2  0  0  0  0
 14 16  1  0  0  0  0
 14 15  1  0  0  0  0
 16 17  2  0  0  0  0
 18 21  1  0  0  0  0
 18 16  1  0  0  0  0
 19 18  1  0  0  0  0
 20 19  2  0  0  0  0
 22 23  1  0  0  0  0
 23 24  2  0  0  0  0
 25 24  1  0  0  0  0
 26 25  2  0  0  0  0
 27 26  1  0  0  0  0
 28 27  2  0  0  0  0
 29 30  2  0  0  0  0
 29 28  1  0  0  0  0
 30 31  1  0  0  0  0
 31 22  2  0  0  0  0
 31 26  1  0  0  0  0
M  END
>  <minimizedAffinity>
-8.49599075

$$$$

 OpenBabel03272514303D

 31 35  0  0  0  0  0  0  0  0999 V2000
   31.1130   25.7680   46.5560 C   0  0  0  0  0  3  0  0  0  0  0  0
   32.3400   26.3230   46.9000 C   0  0  0  0  0  3  0  0  0  0  0  0
   32.2570   27.4740   47.6400 C   0  0  0  0  0  0  0  0  0  0  0  0
   31.0620   27.9530   47.9590 N   0  0  0  0  0  0  0  0  0  0  0  0
   29.8990   27.4440   47.6450 C   0  0  0  0  0  0  0  0  0  0  0  0
   29.9740   26.3460   46.9390 N   0  0  0  0  0  0  0  0  0  0  0  0
   33.4240   28.1710   48.0740 N   0  0  0  0  0  0  0  0  0  0  0  0
   33.9730   28.0860   49.3090 C   0  0  0  0  0  3  0  0  0  0  0  0
   35.0480   28.8640   49.3750 N   0  0  0  0  0  0  0  0  0  0  0  0
   35.1890   29.4520   48.1690 C   0  0  0  0  0  0  0  0  0  0  0  0
   34.1860   29.0150   47.3910 N   0  0  0  0  0  0  0  0  0  0  0  0
   36.2540   30.3660   47.8730 N   0  0  0  0  0  0  0  0  0  0  0  0
   36.5510   30.6570   46.5960 C   0  0  0  0  0  3  0  0  0  0  0  0
   37.5890   31.5460   46.4000 C   0  0  0  0  0  0  0  0  0  0  0  0
   37.9990   31.9360   45.0250 C   0  0  0  0  0  1  0  0  0  0  0  0
   38.2140   32.0430   47.5250 C   0  0  0  0  0  0  0  0  0  0  0  0
   39.1650   32.8580   47.2800 O   0  0  0  0  0  0  0  0  0  0  0  0
   37.9090   31.7440   48.7970 N   0  0  0  0  0  0  0  0  0  0  0  0
   36.8830   30.8670   48.9520 C   0  0  0  0  0  0  0  0  0  0  0  0
   36.5650   30.5620   50.1300 O   0  0  0  0  0  0  0  0  0  0  0  0
   38.4150   32.1510   49.5960 H   0  0  0  0  0  0  0  0  0  0  0  0
   28.5300   27.8580   47.9250 C   0  0  0  0  0  0  0  0  0  0  0  0
   27.6960   28.3590   46.9350 C   0  0  0  0  0  3  0  0  0  0  0  0
   26.4070   28.7600   47.1450 C   0  0  0  0  0  3  0  0  0  0  0  0
   25.8620   28.6780   48.4000 C   0  0  0  0  0  3  0  0  0  0  0  0
   26.6300   28.1950   49.4080 C   0  0  0  0  0  0  0  0  0  0  0  0
   26.0750   28.1130   50.6770 C   0  0  0  0  0  3  0  0  0  0  0  0
   26.7800   27.6410   51.7440 C   0  0  0  0  0  3  0  0  0  0  0  0
   28.0920   27.2360   51.5100 C   0  0  0  0  0  3  0  0  0  0  0  0
   28.6040   27.3340   50.2370 C   0  0  0  0  0  3  0  0  0  0  0  0
   27.9180   27.8040   49.1570 C   0  0  0  0  0  0  0  0  0  0  0  0
  1  2  2  0  0  0  0
  1  6  1  0  0  0  0
  2  3  1  0  0  0  0
  3  4  2  0  0  0  0
  3  7  1  0  0  0  0
  5 22  1  0  0  0  0
  5  4  1  0  0  0  0
  6  5  2  0  0  0  0
  7  8  1  0  0  0  0
  8  9  2  0  0  0  0
 10  9  1  0  0  0  0
 11  7  1  0  0  0  0
 11 10  2  0  0  0  0
 12 10  1  0  0  0  0
 12 19  1  0  0  0  0
 13 12  1  0  0  0  0
 14 13  2  0  0  0  0
 14 16  1  0  0  0  0
 15 14  1  0  0  0  0
 16 18  1  0  0  0  0
 17 16  2  0  0  0  0
 18 19  1  0  0  0  0
 18 21  1  0  0  0  0
 19 20  2  0  0  0  0
 22 31  1  0  0  0  0
 23 24  1  0  0  0  0
 23 22  2  0  0  0  0
 24 25  2  0  0  0  0
 25 26  1  0  0  0  0
 26 27  1  0  0  0  0
 27 28  2  0  0  0  0
 29 28  1  0  0  0  0
 30 29  2  0  0  0  0
 31 26  2  0  0  0  0
 31 30  1  0  0  0  0
M  END
>  <minimizedAffinity>
-8.18091869

$$$$

 OpenBabel03272514303D

 31 35  0  0  0  0  0  0  0  0999 V2000
   30.0000   26.4590   45.5560 C   0  0  0  0  0  3  0  0  0  0  0  0
   31.2510   27.0640   45.5550 C   0  0  0  0  0  3  0  0  0  0  0  0
   31.3790   28.1080   46.4340 C   0  0  0  0  0  0  0  0  0  0  0  0
   30.3420   28.4490   47.1880 N   0  0  0  0  0  0  0  0  0  0  0  0
   29.1590   27.8910   47.2030 C   0  0  0  0  0  0  0  0  0  0  0  0
   29.0330   26.8940   46.3650 N   0  0  0  0  0  0  0  0  0  0  0  0
   32.5980   28.8390   46.5580 N   0  0  0  0  0  0  0  0  0  0  0  0
   33.1220   29.6540   45.6120 C   0  0  0  0  0  3  0  0  0  0  0  0
   34.2620   30.1740   46.0520 N   0  0  0  0  0  0  0  0  0  0  0  0
   34.4700   29.6880   47.2930 C   0  0  0  0  0  0  0  0  0  0  0  0
   33.4420   28.8740   47.5810 N   0  0  0  0  0  0  0  0  0  0  0  0
   35.6160   30.0390   48.0800 N   0  0  0  0  0  0  0  0  0  0  0  0
   35.6140   29.8110   49.4040 C   0  0  0  0  0  3  0  0  0  0  0  0
   36.7570   30.1780   50.0860 C   0  0  0  0  0  0  0  0  0  0  0  0
   36.8590   29.9690   51.5550 C   0  0  0  0  0  1  0  0  0  0  0  0
   37.7790   30.7380   49.3480 C   0  0  0  0  0  0  0  0  0  0  0  0
   38.8080   31.0560   50.0330 O   0  0  0  0  0  0  0  0  0  0  0  0
   37.7700   30.9610   48.0260 N   0  0  0  0  0  0  0  0  0  0  0  0
   36.6300   30.5880   47.3860 C   0  0  0  0  0  0  0  0  0  0  0  0
   36.5820   30.7790   46.1450 O   0  0  0  0  0  0  0  0  0  0  0  0
   38.5680   31.3840   47.5310 H   0  0  0  0  0  0  0  0  0  0  0  0
   27.9480   28.1580   47.9680 C   0  0  0  0  0  0  0  0  0  0  0  0
   26.8460   28.7860   47.4040 C   0  0  0  0  0  3  0  0  0  0  0  0
   25.6890   29.0590   48.0770 C   0  0  0  0  0  3  0  0  0  0  0  0
   25.5650   28.7060   49.3960 C   0  0  0  0  0  3  0  0  0  0  0  0
   26.6110   28.0880   50.0000 C   0  0  0  0  0  0  0  0  0  0  0  0
   26.4830   27.7330   51.3350 C   0  0  0  0  0  3  0  0  0  0  0  0
   27.4870   27.1100   52.0160 C   0  0  0  0  0  3  0  0  0  0  0  0
   28.6590   26.8390   51.3120 C   0  0  0  0  0  3  0  0  0  0  0  0
   28.7450   27.2090   49.9910 C   0  0  0  0  0  3  0  0  0  0  0  0
   27.7540   27.8330   49.2910 C   0  0  0  0  0  0  0  0  0  0  0  0
  1  6  1  0  0  0  0
  2  1  2  0  0  0  0
  2  3  1  0  0  0  0
  3  7  1  0  0  0  0
  3  4  2  0  0  0  0
  4  5  1  0  0  0  0
  5 22  1  0  0  0  0
  6  5  2  0  0  0  0
  7 11  1  0  0  0  0
  8  9  2  0  0  0  0
  8  7  1  0  0  0  0
  9 10  1  0  0  0  0
 10 11  2  0  0  0  0
 10 12  1  0  0  0  0
 12 13  1  0  0  0  0
 13 14  2  0  0  0  0
 14 15  1  0  0  0  0
 16 17  2  0  0  0  0
 16 14  1  0  0  0  0
 18 16  1  0  0  0  0
 19 18  1  0  0  0  0
 19 12  1  0  0  0  0
 20 19  2  0  0  0  0
 21 18  1  0  0  0  0
 22 31  1  0  0  0  0
 23 22  2  0  0  0  0
 23 24  1  0  0  0  0
 24 25  2  0  0  0  0
 25 26  1  0  0  0  0
 26 27  1  0  0  0  0
 27 28  2  0  0  0  0
 29 28  1  0  0  0  0
 30 29  2  0  0  0  0
 31 30  1  0  0  0  0
 31 26  2  0  0  0  0
M  END
>  <minimizedAffinity>
-8.11300087

$$$$

 OpenBabel03272514303D

 31 35  0  0  0  0  0  0  0  0999 V2000
   36.3380   30.2600   43.9000 C   0  0  0  0  0  3  0  0  0  0  0  0
   35.1100   29.6150   43.8390 C   0  0  0  0  0  3  0  0  0  0  0  0
   34.5160   29.4040   45.0560 C   0  0  0  0  0  0  0  0  0  0  0  0
   35.1330   29.8150   46.1560 N   0  0  0  0  0  0  0  0  0  0  0  0
   36.2880   30.4240   46.2330 C   0  0  0  0  0  0  0  0  0  0  0  0
   36.8570   30.6270   45.0730 N   0  0  0  0  0  0  0  0  0  0  0  0
   33.2510   28.7530   45.1710 N   0  0  0  0  0  0  0  0  0  0  0  0
   32.8000   27.7700   44.3560 C   0  0  0  0  0  3  0  0  0  0  0  0
   31.5880   27.3900   44.7440 N   0  0  0  0  0  0  0  0  0  0  0  0
   31.2600   28.1360   45.8190 C   0  0  0  0  0  0  0  0  0  0  0  0
   32.2900   28.9610   46.0620 N   0  0  0  0  0  0  0  0  0  0  0  0
   30.0100   27.9950   46.5080 N   0  0  0  0  0  0  0  0  0  0  0  0
   29.8660   28.5000   47.7440 C   0  0  0  0  0  3  0  0  0  0  0  0
   28.6310   28.3210   48.3340 C   0  0  0  0  0  0  0  0  0  0  0  0
   28.3660   28.8420   49.7020 C   0  0  0  0  0  1  0  0  0  0  0  0
   27.6750   27.6470   47.6030 C   0  0  0  0  0  0  0  0  0  0  0  0
   26.5550   27.5120   48.2020 O   0  0  0  0  0  0  0  0  0  0  0  0
   27.8300   27.1460   46.3690 N   0  0  0  0  0  0  0  0  0  0  0  0
   29.0570   27.3400   45.8190 C   0  0  0  0  0  0  0  0  0  0  0  0
   29.2440   26.8870   44.6610 O   0  0  0  0  0  0  0  0  0  0  0  0
   27.0750   26.6510   45.8740 H   0  0  0  0  0  0  0  0  0  0  0  0
   37.0710   30.9240   47.3550 C   0  0  0  0  0  0  0  0  0  0  0  0
   38.0410   31.9040   47.1960 C   0  0  0  0  0  3  0  0  0  0  0  0
   38.8010   32.4050   48.2150 C   0  0  0  0  0  3  0  0  0  0  0  0
   38.6260   31.9400   49.4920 C   0  0  0  0  0  3  0  0  0  0  0  0
   37.6900   30.9820   49.7080 C   0  0  0  0  0  0  0  0  0  0  0  0
   37.5150   30.5130   51.0020 C   0  0  0  0  0  3  0  0  0  0  0  0
   36.5970   29.5500   51.3030 C   0  0  0  0  0  3  0  0  0  0  0  0
   35.8310   29.0510   50.2520 C   0  0  0  0  0  3  0  0  0  0  0  0
   36.0370   29.5430   48.9840 C   0  0  0  0  0  3  0  0  0  0  0  0
   36.9490   30.5040   48.6610 C   0  0  0  0  0  0  0  0  0  0  0  0
  1  6  1  0  0  0  0
  2  1  2  0  0  0  0
  2  3  1  0  0  0  0
  3  7  1  0  0  0  0
  3  4  2  0  0  0  0
  4  5  1  0  0  0  0
  5 22  1  0  0  0  0
  6  5  2  0  0  0  0
  7 11  1  0  0  0  0
  8  9  2  0  0  0  0
  8  7  1  0  0  0  0
  9 10  1  0  0  0  0
 10 11  2  0  0  0  0
 10 12  1  0  0  0  0
 12 13  1  0  0  0  0
 13 14  2  0  0  0  0
 14 15  1  0  0  0  0
 16 17  2  0  0  0  0
 16 14  1  0  0  0  0
 18 16  1  0  0  0  0
 19 18  1  0  0  0  0
 19 12  1  0  0  0  0
 20 19  2  0  0  0  0
 21 18  1  0  0  0  0
 22 31  1  0  0  0  0
 23 22  2  0  0  0  0
 23 24  1  0  0  0  0
 24 25  2  0  0  0  0
 25 26  1  0  0  0  0
 26 27  1  0  0  0  0
 27 28  2  0  0  0  0
 29 28  1  0  0  0  0
 30 29  2  0  0  0  0
 31 30  1  0  0  0  0
 31 26  2  0  0  0  0
M  END
>  <minimizedAffinity>
-8.06854343

$$$$

 OpenBabel03272514303D

 31 35  0  0  0  0  0  0  0  0999 V2000
   33.4170   27.3920   46.8650 C   0  0  0  0  0  3  0  0  0  0  0  0
   32.7340   28.1790   45.9470 C   0  0  0  0  0  3  0  0  0  0  0  0
   32.9490   29.5270   46.0810 C   0  0  0  0  0  0  0  0  0  0  0  0
   33.7610   29.9590   47.0370 N   0  0  0  0  0  0  0  0  0  0  0  0
   34.4120   29.2330   47.9080 C   0  0  0  0  0  0  0  0  0  0  0  0
   34.2090   27.9470   47.7830 N   0  0  0  0  0  0  0  0  0  0  0  0
   32.3230   30.4760   45.2190 N   0  0  0  0  0  0  0  0  0  0  0  0
   32.9660   31.2800   44.3400 C   0  0  0  0  0  3  0  0  0  0  0  0
   32.0830   32.0390   43.7000 N   0  0  0  0  0  0  0  0  0  0  0  0
   30.8620   31.7160   44.1740 C   0  0  0  0  0  0  0  0  0  0  0  0
   31.0320   30.7610   45.1010 N   0  0  0  0  0  0  0  0  0  0  0  0
   29.6600   32.3420   43.7060 N   0  0  0  0  0  0  0  0  0  0  0  0
   28.4690   31.7690   43.9470 C   0  0  0  0  0  3  0  0  0  0  0  0
   27.3620   32.4380   43.4620 C   0  0  0  0  0  0  0  0  0  0  0  0
   25.9970   31.8890   43.6750 C   0  0  0  0  0  1  0  0  0  0  0  0
   27.5870   33.6170   42.7830 C   0  0  0  0  0  0  0  0  0  0  0  0
   26.5270   34.1880   42.3580 O   0  0  0  0  0  0  0  0  0  0  0  0
   28.7810   34.1800   42.5470 N   0  0  0  0  0  0  0  0  0  0  0  0
   29.8470   33.4960   43.0380 C   0  0  0  0  0  0  0  0  0  0  0  0
   30.9860   33.9910   42.8390 O   0  0  0  0  0  0  0  0  0  0  0  0
   28.8830   35.0660   42.0320 H   0  0  0  0  0  0  0  0  0  0  0  0
   35.3230   29.5700   48.9940 C   0  0  0  0  0  0  0  0  0  0  0  0
   35.1340   29.0970   50.2850 C   0  0  0  0  0  3  0  0  0  0  0  0
   35.9580   29.3830   51.3370 C   0  0  0  0  0  3  0  0  0  0  0  0
   37.0530   30.1860   51.1500 C   0  0  0  0  0  3  0  0  0  0  0  0
   37.2880   30.6770   49.9070 C   0  0  0  0  0  0  0  0  0  0  0  0
   38.3980   31.4890   49.7210 C   0  0  0  0  0  3  0  0  0  0  0  0
   38.7040   32.0250   48.5040 C   0  0  0  0  0  3  0  0  0  0  0  0
   37.8530   31.7210   47.4440 C   0  0  0  0  0  3  0  0  0  0  0  0
   36.7640   30.9120   47.6720 C   0  0  0  0  0  3  0  0  0  0  0  0
   36.4390   30.3680   48.8790 C   0  0  0  0  0  0  0  0  0  0  0  0
  1  6  1  0  0  0  0
  2  3  1  0  0  0  0
  2  1  2  0  0  0  0
  3  4  2  0  0  0  0
  4  5  1  0  0  0  0
  5 22  1  0  0  0  0
  6  5  2  0  0  0  0
  7  3  1  0  0  0  0
  8  7  1  0  0  0  0
  9 10  1  0  0  0  0
  9  8  2  0  0  0  0
 10 11  2  0  0  0  0
 11  7  1  0  0  0  0
 12 13  1  0  0  0  0
 12 10  1  0  0  0  0
 14 15  1  0  0  0  0
 14 13  2  0  0  0  0
 16 14  1  0  0  0  0
 17 16  2  0  0  0  0
 18 16  1  0  0  0  0
 18 19  1  0  0  0  0
 19 12  1  0  0  0  0
 20 19  2  0  0  0  0
 21 18  1  0  0  0  0
 22 23  1  0  0  0  0
 23 24  2  0  0  0  0
 25 24  1  0  0  0  0
 26 25  2  0  0  0  0
 27 26  1  0  0  0  0
 28 27  2  0  0  0  0
 29 30  2  0  0  0  0
 29 28  1  0  0  0  0
 30 31  1  0  0  0  0
 31 22  2  0  0  0  0
 31 26  1  0  0  0  0
M  END
>  <minimizedAffinity>
-8.0667038

$$$$
