
 OpenBabel03272514473D

 39 45  0  0  0  0  0  0  0  0999 V2000
   32.7330   30.7700   43.4640 C   0  0  0  0  0  0  0  0  0  0  0  0
   31.4190   31.2980   43.5660 C   0  0  0  0  0  3  0  0  0  0  0  0
   30.7760   31.1440   44.7670 C   0  0  0  0  0  3  0  0  0  0  0  0
   31.4580   30.5050   45.7270 N   0  0  0  0  0  0  0  0  0  0  0  0
   32.6650   30.0100   45.6570 C   0  0  0  0  0  0  0  0  0  0  0  0
   33.3120   30.1520   44.4900 N   0  0  0  0  0  0  0  0  0  0  0  0
   33.1470   29.3920   46.8270 N   0  0  0  0  0  0  0  0  0  0  0  0
   34.1740   29.9800   47.4850 C   0  0  0  0  0  3  0  0  0  0  0  0
   34.4790   29.2110   48.6080 C   0  0  0  0  0  0  0  0  0  0  0  0
   33.6320   28.2010   48.5820 N   0  0  0  0  0  0  0  0  0  0  0  0
   32.8010   28.2920   47.4910 C   0  0  0  0  0  0  0  0  0  0  0  0
   31.7890   27.3400   47.1690 C   0  0  0  0  0  0  0  0  0  0  0  0
   31.9810   26.3410   46.1920 C   0  0  0  0  0  3  0  0  0  0  0  0
   30.8370   25.5930   46.0810 N   0  0  0  0  0  0  0  0  0  0  0  0
   29.9320   26.1390   46.9990 C   0  0  0  0  0  3  0  0  0  0  0  0
   30.5650   27.1440   47.5880 N   0  0  0  0  0  0  0  0  0  0  0  0
   29.6340   27.5850   48.5310 C   0  0  0  0  0  0  0  0  0  0  0  0
   29.7050   26.8900   49.6740 N   0  0  0  0  0  0  0  0  0  0  0  0
   28.8250   27.1540   50.6760 C   0  0  0  0  0  3  0  0  0  0  0  0
   27.8690   28.0790   50.6010 N   0  0  0  0  0  0  0  0  0  0  0  0
   27.7610   28.8000   49.4730 C   0  0  0  0  0  0  0  0  0  0  0  0
   26.8250   29.7780   49.2580 C   0  0  0  0  0  3  0  0  0  0  0  0
   26.7570   30.4770   48.0880 C   0  0  0  0  0  3  0  0  0  0  0  0
   27.6660   30.1920   47.0720 C   0  0  0  0  0  3  0  0  0  0  0  0
   28.6280   29.2250   47.2260 C   0  0  0  0  0  3  0  0  0  0  0  0
   28.6520   28.5550   48.4200 C   0  0  0  0  0  0  0  0  0  0  0  0
   35.5630   29.6330   49.4980 C   0  0  0  0  0  0  0  0  0  0  0  0
   35.6480   29.2710   50.7920 N   0  0  0  0  0  0  0  0  0  0  0  0
   36.6230   29.6370   51.6330 C   0  0  0  0  0  3  0  0  0  0  0  0
   37.6310   30.4250   51.2260 N   0  0  0  0  0  0  0  0  0  0  0  0
   37.6380   30.8410   49.9480 C   0  0  0  0  0  0  0  0  0  0  0  0
   38.6670   31.6500   49.5200 C   0  0  0  0  0  3  0  0  0  0  0  0
   38.7240   32.1060   48.2170 C   0  0  0  0  0  3  0  0  0  0  0  0
   37.7020   31.7100   47.3790 C   0  0  0  0  0  3  0  0  0  0  0  0
   36.6880   30.9000   47.8380 C   0  0  0  0  0  3  0  0  0  0  0  0
   36.6110   30.4370   49.1240 C   0  0  0  0  0  0  0  0  0  0  0  0
   33.4530   30.9250   42.2240 N   0  0  0  0  0  0  0  0  0  0  0  0
   34.4070   30.5490   42.1310 H   0  0  0  0  0  0  0  0  0  0  0  0
   33.0140   31.4140   41.4310 H   0  0  0  0  0  0  0  0  0  0  0  0
  1  2  2  0  0  0  0
  1  6  1  0  0  0  0
  2  3  1  0  0  0  0
  3  4  2  0  0  0  0
  5  4  1  0  0  0  0
  5  7  1  0  0  0  0
  6  5  2  0  0  0  0
  7  8  1  0  0  0  0
  7 11  1  0  0  0  0
  8  9  2  0  0  0  0
  9 27  1  0  0  0  0
 10  9  1  0  0  0  0
 11 10  2  0  0  0  0
 12 11  1  0  0  0  0
 12 16  1  0  0  0  0
 13 12  2  0  0  0  0
 14 13  1  0  0  0  0
 14 15  2  0  0  0  0
 15 16  1  0  0  0  0
 16 17  1  0  0  0  0
 17 18  1  0  0  0  0
 18 19  2  0  0  0  0
 20 19  1  0  0  0  0
 21 20  2  0  0  0  0
 22 21  1  0  0  0  0
 23 22  2  0  0  0  0
 24 25  2  0  0  0  0
 24 23  1  0  0  0  0
 25 26  1  0  0  0  0
 26 17  2  0  0  0  0
 26 21  1  0  0  0  0
 27 28  1  0  0  0  0
 28 29  2  0  0  0  0
 30 29  1  0  0  0  0
 31 30  2  0  0  0  0
 32 31  1  0  0  0  0
 33 32  2  0  0  0  0
 34 35  2  0  0  0  0
 34 33  1  0  0  0  0
 35 36  1  0  0  0  0
 36 27  2  0  0  0  0
 36 31  1  0  0  0  0
 37  1  1  0  0  0  0
 38 37  1  0  0  0  0
 39 37  1  0  0  0  0
M  END
>  <minimizedAffinity>
-9.28648663

$$$$

 OpenBabel03272514473D

 39 45  0  0  0  0  0  0  0  0999 V2000
   30.8990   31.3630   42.4770 C   0  0  0  0  0  0  0  0  0  0  0  0
   29.6710   31.8100   43.0320 C   0  0  0  0  0  3  0  0  0  0  0  0
   29.4500   31.5380   44.3580 C   0  0  0  0  0  3  0  0  0  0  0  0
   30.4230   30.8730   44.9960 N   0  0  0  0  0  0  0  0  0  0  0  0
   31.5590   30.4520   44.5080 C   0  0  0  0  0  0  0  0  0  0  0  0
   31.7940   30.7090   43.2120 N   0  0  0  0  0  0  0  0  0  0  0  0
   32.4070   29.7810   45.4100 N   0  0  0  0  0  0  0  0  0  0  0  0
   33.5720   30.3780   45.7560 C   0  0  0  0  0  3  0  0  0  0  0  0
   34.2430   29.5520   46.6570 C   0  0  0  0  0  0  0  0  0  0  0  0
   33.4630   28.5010   46.8160 N   0  0  0  0  0  0  0  0  0  0  0  0
   32.3250   28.6210   46.0560 C   0  0  0  0  0  0  0  0  0  0  0  0
   31.2930   27.6390   45.9920 C   0  0  0  0  0  0  0  0  0  0  0  0
   31.2270   26.6850   44.9560 C   0  0  0  0  0  3  0  0  0  0  0  0
   30.1220   25.8940   45.1420 N   0  0  0  0  0  0  0  0  0  0  0  0
   29.5020   26.3680   46.3040 C   0  0  0  0  0  3  0  0  0  0  0  0
   30.2470   27.3760   46.7340 N   0  0  0  0  0  0  0  0  0  0  0  0
   29.6130   27.7440   47.9230 C   0  0  0  0  0  0  0  0  0  0  0  0
   30.0300   27.0130   48.9650 N   0  0  0  0  0  0  0  0  0  0  0  0
   29.4670   27.2030   50.1870 C   0  0  0  0  0  3  0  0  0  0  0  0
   28.5020   28.0890   50.4310 N   0  0  0  0  0  0  0  0  0  0  0  0
   28.0530   28.8450   49.4150 C   0  0  0  0  0  0  0  0  0  0  0  0
   27.0650   29.7890   49.5210 C   0  0  0  0  0  3  0  0  0  0  0  0
   26.6430   30.5260   48.4530 C   0  0  0  0  0  3  0  0  0  0  0  0
   27.2310   30.3160   47.2080 C   0  0  0  0  0  3  0  0  0  0  0  0
   28.2250   29.3860   47.0370 C   0  0  0  0  0  3  0  0  0  0  0  0
   28.6110   28.6760   48.1410 C   0  0  0  0  0  0  0  0  0  0  0  0
   35.5420   29.9710   47.1910 C   0  0  0  0  0  0  0  0  0  0  0  0
   36.5150   30.5140   46.4360 N   0  0  0  0  0  0  0  0  0  0  0  0
   37.7120   30.9090   46.8880 C   0  0  0  0  0  3  0  0  0  0  0  0
   38.0380   30.7880   48.1860 N   0  0  0  0  0  0  0  0  0  0  0  0
   37.1310   30.2580   49.0220 C   0  0  0  0  0  0  0  0  0  0  0  0
   37.4550   30.1290   50.3550 C   0  0  0  0  0  3  0  0  0  0  0  0
   36.5600   29.5900   51.2600 C   0  0  0  0  0  3  0  0  0  0  0  0
   35.3380   29.1920   50.7580 C   0  0  0  0  0  3  0  0  0  0  0  0
   35.0450   29.3360   49.4210 C   0  0  0  0  0  3  0  0  0  0  0  0
   35.9160   29.8660   48.5070 C   0  0  0  0  0  0  0  0  0  0  0  0
   31.1800   31.6430   41.0890 N   0  0  0  0  0  0  0  0  0  0  0  0
   32.0660   31.3270   40.6690 H   0  0  0  0  0  0  0  0  0  0  0  0
   30.4960   32.1590   40.5190 H   0  0  0  0  0  0  0  0  0  0  0  0
  1  2  2  0  0  0  0
  1  6  1  0  0  0  0
  2  3  1  0  0  0  0
  3  4  2  0  0  0  0
  5  4  1  0  0  0  0
  5  7  1  0  0  0  0
  6  5  2  0  0  0  0
  7  8  1  0  0  0  0
  7 11  1  0  0  0  0
  8  9  2  0  0  0  0
  9 10  1  0  0  0  0
  9 27  1  0  0  0  0
 11 10  2  0  0  0  0
 12 11  1  0  0  0  0
 12 16  1  0  0  0  0
 13 14  1  0  0  0  0
 13 12  2  0  0  0  0
 14 15  2  0  0  0  0
 15 16  1  0  0  0  0
 16 17  1  0  0  0  0
 17 26  2  0  0  0  0
 17 18  1  0  0  0  0
 18 19  2  0  0  0  0
 19 20  1  0  0  0  0
 21 22  1  0  0  0  0
 21 20  2  0  0  0  0
 23 22  2  0  0  0  0
 24 23  1  0  0  0  0
 25 24  2  0  0  0  0
 25 26  1  0  0  0  0
 26 21  1  0  0  0  0
 27 36  1  0  0  0  0
 28 29  1  0  0  0  0
 28 27  2  0  0  0  0
 29 30  2  0  0  0  0
 30 31  1  0  0  0  0
 31 32  1  0  0  0  0
 32 33  2  0  0  0  0
 34 33  1  0  0  0  0
 35 34  2  0  0  0  0
 36 31  2  0  0  0  0
 36 35  1  0  0  0  0
 37  1  1  0  0  0  0
 38 37  1  0  0  0  0
 39 37  1  0  0  0  0
M  END
>  <minimizedAffinity>
-8.53517914

$$$$

 OpenBabel03272514473D

 39 45  0  0  0  0  0  0  0  0999 V2000
   31.9780   31.3070   44.1570 C   0  0  0  0  0  0  0  0  0  0  0  0
   32.0790   30.5240   42.9770 C   0  0  0  0  0  3  0  0  0  0  0  0
   31.5010   29.2810   43.0010 C   0  0  0  0  0  3  0  0  0  0  0  0
   30.8970   28.9310   44.1450 N   0  0  0  0  0  0  0  0  0  0  0  0
   30.7920   29.6320   45.2420 C   0  0  0  0  0  0  0  0  0  0  0  0
   31.3500   30.8520   45.2380 N   0  0  0  0  0  0  0  0  0  0  0  0
   30.0920   29.0200   46.3010 N   0  0  0  0  0  0  0  0  0  0  0  0
   28.9030   29.5500   46.6710 C   0  0  0  0  0  3  0  0  0  0  0  0
   28.3860   28.7880   47.7190 C   0  0  0  0  0  0  0  0  0  0  0  0
   29.2760   27.8400   47.9360 N   0  0  0  0  0  0  0  0  0  0  0  0
   30.3370   27.9640   47.0720 C   0  0  0  0  0  0  0  0  0  0  0  0
   31.4750   27.1050   47.0670 C   0  0  0  0  0  0  0  0  0  0  0  0
   31.3570   25.7020   47.1390 C   0  0  0  0  0  3  0  0  0  0  0  0
   32.6100   25.1430   47.1410 N   0  0  0  0  0  0  0  0  0  0  0  0
   33.5080   26.2150   47.0710 C   0  0  0  0  0  3  0  0  0  0  0  0
   32.7670   27.3140   47.0280 N   0  0  0  0  0  0  0  0  0  0  0  0
   33.7210   28.3240   46.8850 C   0  0  0  0  0  0  0  0  0  0  0  0
   34.0590   28.5210   45.6040 N   0  0  0  0  0  0  0  0  0  0  0  0
   35.0220   29.4290   45.2960 C   0  0  0  0  0  3  0  0  0  0  0  0
   35.6730   30.1580   46.2020 N   0  0  0  0  0  0  0  0  0  0  0  0
   35.3660   29.9930   47.4990 C   0  0  0  0  0  0  0  0  0  0  0  0
   35.9570   30.6700   48.5340 C   0  0  0  0  0  3  0  0  0  0  0  0
   35.6100   30.4590   49.8360 C   0  0  0  0  0  3  0  0  0  0  0  0
   34.6220   29.5230   50.1330 C   0  0  0  0  0  3  0  0  0  0  0  0
   33.9920   28.8130   49.1420 C   0  0  0  0  0  3  0  0  0  0  0  0
   34.3780   29.0650   47.8530 C   0  0  0  0  0  0  0  0  0  0  0  0
   27.0950   29.1540   48.3070 C   0  0  0  0  0  0  0  0  0  0  0  0
   26.4220   28.3700   49.1710 N   0  0  0  0  0  0  0  0  0  0  0  0
   25.2430   28.6720   49.7280 C   0  0  0  0  0  3  0  0  0  0  0  0
   24.6210   29.8300   49.4520 N   0  0  0  0  0  0  0  0  0  0  0  0
   25.2130   30.6820   48.6000 C   0  0  0  0  0  0  0  0  0  0  0  0
   24.5840   31.8730   48.3100 C   0  0  0  0  0  3  0  0  0  0  0  0
   25.1480   32.7870   47.4400 C   0  0  0  0  0  3  0  0  0  0  0  0
   26.3620   32.4420   46.8840 C   0  0  0  0  0  3  0  0  0  0  0  0
   26.9650   31.2440   47.1950 C   0  0  0  0  0  3  0  0  0  0  0  0
   26.4250   30.3240   48.0530 C   0  0  0  0  0  0  0  0  0  0  0  0
   32.5570   32.6290   44.1690 N   0  0  0  0  0  0  0  0  0  0  0  0
   32.4930   33.2110   45.0160 H   0  0  0  0  0  0  0  0  0  0  0  0
   33.0330   32.9900   43.3310 H   0  0  0  0  0  0  0  0  0  0  0  0
  1 37  1  0  0  0  0
  1  6  1  0  0  0  0
  2  3  1  0  0  0  0
  2  1  2  0  0  0  0
  3  4  2  0  0  0  0
  4  5  1  0  0  0  0
  5  7  1  0  0  0  0
  6  5  2  0  0  0  0
  7  8  1  0  0  0  0
  7 11  1  0  0  0  0
  8  9  2  0  0  0  0
  9 10  1  0  0  0  0
  9 27  1  0  0  0  0
 11 10  2  0  0  0  0
 12 11  1  0  0  0  0
 12 13  2  0  0  0  0
 13 14  1  0  0  0  0
 15 14  2  0  0  0  0
 16 12  1  0  0  0  0
 16 15  1  0  0  0  0
 17 16  1  0  0  0  0
 17 26  1  0  0  0  0
 18 17  2  0  0  0  0
 19 18  1  0  0  0  0
 19 20  2  0  0  0  0
 20 21  1  0  0  0  0
 21 26  2  0  0  0  0
 21 22  1  0  0  0  0
 22 23  2  0  0  0  0
 23 24  1  0  0  0  0
 25 24  2  0  0  0  0
 26 25  1  0  0  0  0
 27 28  1  0  0  0  0
 28 29  2  0  0  0  0
 30 29  1  0  0  0  0
 31 30  2  0  0  0  0
 32 31  1  0  0  0  0
 33 32  2  0  0  0  0
 34 35  2  0  0  0  0
 34 33  1  0  0  0  0
 35 36  1  0  0  0  0
 36 27  2  0  0  0  0
 36 31  1  0  0  0  0
 37 38  1  0  0  0  0
 39 37  1  0  0  0  0
M  END
>  <minimizedAffinity>
-8.26508141

$$$$

 OpenBabel03272514473D

 39 45  0  0  0  0  0  0  0  0999 V2000
   32.0680   31.8730   44.0380 C   0  0  0  0  0  0  0  0  0  0  0  0
   32.0850   31.3180   42.7310 C   0  0  0  0  0  3  0  0  0  0  0  0
   31.5800   30.0520   42.5840 C   0  0  0  0  0  3  0  0  0  0  0  0
   31.1200   29.4650   43.6980 N   0  0  0  0  0  0  0  0  0  0  0  0
   31.0940   29.9530   44.9090 C   0  0  0  0  0  0  0  0  0  0  0  0
   31.5840   31.1920   45.0740 N   0  0  0  0  0  0  0  0  0  0  0  0
   30.5440   29.1170   45.9000 N   0  0  0  0  0  0  0  0  0  0  0  0
   29.3740   29.4880   46.4720 C   0  0  0  0  0  3  0  0  0  0  0  0
   29.0130   28.5190   47.4080 C   0  0  0  0  0  0  0  0  0  0  0  0
   29.9700   27.6140   47.3630 N   0  0  0  0  0  0  0  0  0  0  0  0
   30.9260   27.9630   46.4400 C   0  0  0  0  0  0  0  0  0  0  0  0
   32.1010   27.2000   46.1720 C   0  0  0  0  0  0  0  0  0  0  0  0
   32.0450   25.8490   45.7740 C   0  0  0  0  0  3  0  0  0  0  0  0
   33.3210   25.3730   45.6130 N   0  0  0  0  0  0  0  0  0  0  0  0
   34.1700   26.4430   45.9160 C   0  0  0  0  0  3  0  0  0  0  0  0
   33.3820   27.4630   46.2250 N   0  0  0  0  0  0  0  0  0  0  0  0
   34.2900   28.5020   46.4400 C   0  0  0  0  0  0  0  0  0  0  0  0
   34.6220   29.1260   45.3020 N   0  0  0  0  0  0  0  0  0  0  0  0
   35.5450   30.1230   45.3280 C   0  0  0  0  0  3  0  0  0  0  0  0
   36.1610   30.5370   46.4350 N   0  0  0  0  0  0  0  0  0  0  0  0
   35.8580   29.9400   47.5990 C   0  0  0  0  0  0  0  0  0  0  0  0
   36.4160   30.2610   48.8100 C   0  0  0  0  0  3  0  0  0  0  0  0
   36.0750   29.6170   49.9630 C   0  0  0  0  0  3  0  0  0  0  0  0
   35.1290   28.5960   49.9170 C   0  0  0  0  0  3  0  0  0  0  0  0
   34.5330   28.2280   48.7370 C   0  0  0  0  0  3  0  0  0  0  0  0
   34.9110   28.9080   47.6100 C   0  0  0  0  0  0  0  0  0  0  0  0
   27.7740   28.6830   48.1720 C   0  0  0  0  0  0  0  0  0  0  0  0
   26.6950   29.3400   47.7080 N   0  0  0  0  0  0  0  0  0  0  0  0
   25.5470   29.5090   48.3770 C   0  0  0  0  0  3  0  0  0  0  0  0
   25.3850   29.0100   49.6130 N   0  0  0  0  0  0  0  0  0  0  0  0
   26.4070   28.3360   50.1660 C   0  0  0  0  0  0  0  0  0  0  0  0
   26.2510   27.8200   51.4340 C   0  0  0  0  0  3  0  0  0  0  0  0
   27.2690   27.1180   52.0510 C   0  0  0  0  0  3  0  0  0  0  0  0
   28.4370   26.9650   51.3320 C   0  0  0  0  0  3  0  0  0  0  0  0
   28.5600   27.4920   50.0660 C   0  0  0  0  0  3  0  0  0  0  0  0
   27.5650   28.1910   49.4370 C   0  0  0  0  0  0  0  0  0  0  0  0
   32.5750   33.2090   44.2360 N   0  0  0  0  0  0  0  0  0  0  0  0
   32.5700   33.6280   45.1760 H   0  0  0  0  0  0  0  0  0  0  0  0
   32.9390   33.7450   43.4350 H   0  0  0  0  0  0  0  0  0  0  0  0
  1 37  1  0  0  0  0
  1  6  1  0  0  0  0
  2  1  2  0  0  0  0
  3  2  1  0  0  0  0
  3  4  2  0  0  0  0
  4  5  1  0  0  0  0
  5  6  2  0  0  0  0
  5  7  1  0  0  0  0
  7 11  1  0  0  0  0
  7  8  1  0  0  0  0
  8  9  2  0  0  0  0
  9 27  1  0  0  0  0
 10  9  1  0  0  0  0
 11 10  2  0  0  0  0
 12 16  1  0  0  0  0
 12 11  1  0  0  0  0
 13 12  2  0  0  0  0
 14 13  1  0  0  0  0
 14 15  2  0  0  0  0
 15 16  1  0  0  0  0
 16 17  1  0  0  0  0
 17 26  1  0  0  0  0
 18 19  1  0  0  0  0
 18 17  2  0  0  0  0
 19 20  2  0  0  0  0
 20 21  1  0  0  0  0
 21 26  2  0  0  0  0
 21 22  1  0  0  0  0
 22 23  2  0  0  0  0
 24 23  1  0  0  0  0
 25 24  2  0  0  0  0
 26 25  1  0  0  0  0
 27 36  1  0  0  0  0
 28 27  2  0  0  0  0
 28 29  1  0  0  0  0
 29 30  2  0  0  0  0
 30 31  1  0  0  0  0
 31 32  1  0  0  0  0
 32 33  2  0  0  0  0
 34 33  1  0  0  0  0
 35 34  2  0  0  0  0
 36 35  1  0  0  0  0
 36 31  2  0  0  0  0
 37 38  1  0  0  0  0
 39 37  1  0  0  0  0
M  END
>  <minimizedAffinity>
-8.21566391

$$$$

 OpenBabel03272514473D

 39 45  0  0  0  0  0  0  0  0999 V2000
   31.7720   24.8150   45.8030 C   0  0  0  0  0  0  0  0  0  0  0  0
   31.5260   24.7000   44.4090 C   0  0  0  0  0  3  0  0  0  0  0  0
   31.7420   25.8170   43.6440 C   0  0  0  0  0  3  0  0  0  0  0  0
   32.1650   26.9090   44.2950 N   0  0  0  0  0  0  0  0  0  0  0  0
   32.3970   27.0390   45.5740 C   0  0  0  0  0  0  0  0  0  0  0  0
   32.1930   25.9570   46.3400 N   0  0  0  0  0  0  0  0  0  0  0  0
   32.8450   28.3070   45.9940 N   0  0  0  0  0  0  0  0  0  0  0  0
   34.1120   28.4150   46.4580 C   0  0  0  0  0  3  0  0  0  0  0  0
   34.3450   29.7460   46.8040 C   0  0  0  0  0  0  0  0  0  0  0  0
   33.2200   30.3790   46.5380 N   0  0  0  0  0  0  0  0  0  0  0  0
   32.2810   29.5100   46.0370 C   0  0  0  0  0  0  0  0  0  0  0  0
   30.9540   29.8840   45.6710 C   0  0  0  0  0  0  0  0  0  0  0  0
   30.6790   31.0510   44.9280 C   0  0  0  0  0  3  0  0  0  0  0  0
   29.3240   31.1630   44.7500 N   0  0  0  0  0  0  0  0  0  0  0  0
   28.7600   30.0540   45.3900 C   0  0  0  0  0  3  0  0  0  0  0  0
   29.7740   29.3630   45.8940 N   0  0  0  0  0  0  0  0  0  0  0  0
   29.1430   28.2460   46.4460 C   0  0  0  0  0  0  0  0  0  0  0  0
   28.9530   27.2760   45.5420 N   0  0  0  0  0  0  0  0  0  0  0  0
   28.2950   26.1430   45.9030 C   0  0  0  0  0  3  0  0  0  0  0  0
   27.8130   25.9200   47.1250 N   0  0  0  0  0  0  0  0  0  0  0  0
   27.9810   26.8660   48.0640 C   0  0  0  0  0  0  0  0  0  0  0  0
   27.5340   26.7730   49.3560 C   0  0  0  0  0  3  0  0  0  0  0  0
   27.7290   27.7690   50.2680 C   0  0  0  0  0  3  0  0  0  0  0  0
   28.4030   28.9240   49.8800 C   0  0  0  0  0  3  0  0  0  0  0  0
   28.8760   29.0780   48.6010 C   0  0  0  0  0  3  0  0  0  0  0  0
   28.6540   28.0480   47.7270 C   0  0  0  0  0  0  0  0  0  0  0  0
   35.6530   30.1330   47.3390 C   0  0  0  0  0  0  0  0  0  0  0  0
   36.6320   30.6740   46.5890 N   0  0  0  0  0  0  0  0  0  0  0  0
   37.8370   31.0400   47.0420 C   0  0  0  0  0  3  0  0  0  0  0  0
   38.1680   30.8890   48.3360 N   0  0  0  0  0  0  0  0  0  0  0  0
   37.2560   30.3580   49.1670 C   0  0  0  0  0  0  0  0  0  0  0  0
   37.5850   30.1970   50.4950 C   0  0  0  0  0  3  0  0  0  0  0  0
   36.6860   29.6560   51.3950 C   0  0  0  0  0  3  0  0  0  0  0  0
   35.4550   29.2890   50.8910 C   0  0  0  0  0  3  0  0  0  0  0  0
   35.1580   29.4630   49.5590 C   0  0  0  0  0  3  0  0  0  0  0  0
   36.0330   29.9960   48.6510 C   0  0  0  0  0  0  0  0  0  0  0  0
   31.5750   23.6590   46.6440 N   0  0  0  0  0  0  0  0  0  0  0  0
   31.7490   23.7230   47.6570 H   0  0  0  0  0  0  0  0  0  0  0  0
   31.2610   22.7690   46.2310 H   0  0  0  0  0  0  0  0  0  0  0  0
  1  6  1  0  0  0  0
  1 37  1  0  0  0  0
  2  1  2  0  0  0  0
  3  4  2  0  0  0  0
  3  2  1  0  0  0  0
  4  5  1  0  0  0  0
  5  7  1  0  0  0  0
  5  6  2  0  0  0  0
  7 11  1  0  0  0  0
  7  8  1  0  0  0  0
  8  9  2  0  0  0  0
  9 27  1  0  0  0  0
 10  9  1  0  0  0  0
 11 10  2  0  0  0  0
 12 16  1  0  0  0  0
 12 11  1  0  0  0  0
 13 12  2  0  0  0  0
 14 13  1  0  0  0  0
 14 15  2  0  0  0  0
 15 16  1  0  0  0  0
 16 17  1  0  0  0  0
 17 26  1  0  0  0  0
 18 19  1  0  0  0  0
 18 17  2  0  0  0  0
 19 20  2  0  0  0  0
 20 21  1  0  0  0  0
 21 22  1  0  0  0  0
 22 23  2  0  0  0  0
 24 23  1  0  0  0  0
 25 24  2  0  0  0  0
 26 21  2  0  0  0  0
 26 25  1  0  0  0  0
 27 36  1  0  0  0  0
 28 29  1  0  0  0  0
 28 27  2  0  0  0  0
 29 30  2  0  0  0  0
 30 31  1  0  0  0  0
 31 32  1  0  0  0  0
 32 33  2  0  0  0  0
 34 33  1  0  0  0  0
 35 34  2  0  0  0  0
 36 31  2  0  0  0  0
 36 35  1  0  0  0  0
 37 38  1  0  0  0  0
 39 37  1  0  0  0  0
M  END
>  <minimizedAffinity>
-8.10940838

$$$$

 OpenBabel03272514473D

 39 45  0  0  0  0  0  0  0  0999 V2000
   32.5190   24.3290   46.4780 C   0  0  0  0  0  0  0  0  0  0  0  0
   32.8160   24.2130   45.0950 C   0  0  0  0  0  3  0  0  0  0  0  0
   33.3060   25.3280   44.4660 C   0  0  0  0  0  3  0  0  0  0  0  0
   33.4550   26.4210   45.2290 N   0  0  0  0  0  0  0  0  0  0  0  0
   33.1890   26.5510   46.5010 C   0  0  0  0  0  0  0  0  0  0  0  0
   32.7090   25.4710   47.1340 N   0  0  0  0  0  0  0  0  0  0  0  0
   33.4490   27.8190   47.0580 N   0  0  0  0  0  0  0  0  0  0  0  0
   34.4470   27.9250   47.9660 C   0  0  0  0  0  3  0  0  0  0  0  0
   34.5350   29.2560   48.3740 C   0  0  0  0  0  0  0  0  0  0  0  0
   33.5950   29.8910   47.7030 N   0  0  0  0  0  0  0  0  0  0  0  0
   32.9120   29.0240   46.8850 C   0  0  0  0  0  0  0  0  0  0  0  0
   31.8210   29.3990   46.0460 C   0  0  0  0  0  0  0  0  0  0  0  0
   31.9000   30.4870   45.1530 C   0  0  0  0  0  3  0  0  0  0  0  0
   30.7000   30.6240   44.5020 N   0  0  0  0  0  0  0  0  0  0  0  0
   29.8760   29.6090   45.0010 C   0  0  0  0  0  3  0  0  0  0  0  0
   30.6040   28.9450   45.8870 N   0  0  0  0  0  0  0  0  0  0  0  0
   29.7470   27.9150   46.2820 C   0  0  0  0  0  0  0  0  0  0  0  0
   29.8140   26.8600   45.4590 N   0  0  0  0  0  0  0  0  0  0  0  0
   28.9960   25.7940   45.6670 C   0  0  0  0  0  3  0  0  0  0  0  0
   28.1080   25.7200   46.6570 N   0  0  0  0  0  0  0  0  0  0  0  0
   28.0070   26.7560   47.5070 C   0  0  0  0  0  0  0  0  0  0  0  0
   27.1360   26.8170   48.5630 C   0  0  0  0  0  3  0  0  0  0  0  0
   27.0720   27.8980   49.3930 C   0  0  0  0  0  3  0  0  0  0  0  0
   27.9160   28.9820   49.1640 C   0  0  0  0  0  3  0  0  0  0  0  0
   28.8100   28.9820   48.1230 C   0  0  0  0  0  3  0  0  0  0  0  0
   28.8340   27.8720   47.3230 C   0  0  0  0  0  0  0  0  0  0  0  0
   35.5460   29.6420   49.3610 C   0  0  0  0  0  0  0  0  0  0  0  0
   35.5370   29.2200   50.6390 N   0  0  0  0  0  0  0  0  0  0  0  0
   36.4430   29.5510   51.5680 C   0  0  0  0  0  3  0  0  0  0  0  0
   37.4730   30.3620   51.2740 N   0  0  0  0  0  0  0  0  0  0  0  0
   37.5710   30.8370   50.0210 C   0  0  0  0  0  0  0  0  0  0  0  0
   38.6230   31.6700   49.7100 C   0  0  0  0  0  3  0  0  0  0  0  0
   38.7730   32.1880   48.4370 C   0  0  0  0  0  3  0  0  0  0  0  0
   37.8190   31.8260   47.5080 C   0  0  0  0  0  3  0  0  0  0  0  0
   36.7810   30.9910   47.8510 C   0  0  0  0  0  3  0  0  0  0  0  0
   36.6120   30.4680   49.1050 C   0  0  0  0  0  0  0  0  0  0  0  0
   32.0170   23.1740   47.1830 N   0  0  0  0  0  0  0  0  0  0  0  0
   31.7970   23.2390   48.1870 H   0  0  0  0  0  0  0  0  0  0  0  0
   31.8800   22.2840   46.6830 H   0  0  0  0  0  0  0  0  0  0  0  0
  1  6  1  0  0  0  0
  1 37  1  0  0  0  0
  2  1  2  0  0  0  0
  3  2  1  0  0  0  0
  3  4  2  0  0  0  0
  4  5  1  0  0  0  0
  5  7  1  0  0  0  0
  5  6  2  0  0  0  0
  7  8  1  0  0  0  0
  8  9  2  0  0  0  0
  9 27  1  0  0  0  0
 10  9  1  0  0  0  0
 11  7  1  0  0  0  0
 11 10  2  0  0  0  0
 12 11  1  0  0  0  0
 13 12  2  0  0  0  0
 14 15  2  0  0  0  0
 14 13  1  0  0  0  0
 15 16  1  0  0  0  0
 16 12  1  0  0  0  0
 16 17  1  0  0  0  0
 17 26  1  0  0  0  0
 18 19  1  0  0  0  0
 18 17  2  0  0  0  0
 19 20  2  0  0  0  0
 20 21  1  0  0  0  0
 21 22  1  0  0  0  0
 22 23  2  0  0  0  0
 24 23  1  0  0  0  0
 25 24  2  0  0  0  0
 26 21  2  0  0  0  0
 26 25  1  0  0  0  0
 27 28  1  0  0  0  0
 28 29  2  0  0  0  0
 30 29  1  0  0  0  0
 31 30  2  0  0  0  0
 32 31  1  0  0  0  0
 33 32  2  0  0  0  0
 34 35  2  0  0  0  0
 34 33  1  0  0  0  0
 35 36  1  0  0  0  0
 36 27  2  0  0  0  0
 36 31  1  0  0  0  0
 37 38  1  0  0  0  0
 39 37  1  0  0  0  0
M  END
>  <minimizedAffinity>
-8.02686501

$$$$

 OpenBabel03272514473D

 39 45  0  0  0  0  0  0  0  0999 V2000
   32.6810   29.9850   45.9790 C   0  0  0  0  0  0  0  0  0  0  0  0
   33.3860   29.2160   45.0150 C   0  0  0  0  0  3  0  0  0  0  0  0
   32.6560   28.6880   43.9820 C   0  0  0  0  0  3  0  0  0  0  0  0
   31.3420   28.9530   43.9900 N   0  0  0  0  0  0  0  0  0  0  0  0
   30.6720   29.6550   44.8640 C   0  0  0  0  0  0  0  0  0  0  0  0
   31.3690   30.1820   45.8820 N   0  0  0  0  0  0  0  0  0  0  0  0
   29.2890   29.7810   44.6240 N   0  0  0  0  0  0  0  0  0  0  0  0
   28.8060   31.0040   44.3030 C   0  0  0  0  0  3  0  0  0  0  0  0
   27.4300   30.8970   44.1000 C   0  0  0  0  0  0  0  0  0  0  0  0
   27.1430   29.6270   44.3060 N   0  0  0  0  0  0  0  0  0  0  0  0
   28.2760   28.9200   44.6300 C   0  0  0  0  0  0  0  0  0  0  0  0
   28.2950   27.5260   44.9320 C   0  0  0  0  0  0  0  0  0  0  0  0
   27.8260   26.5540   44.0240 C   0  0  0  0  0  3  0  0  0  0  0  0
   27.9450   25.3120   44.5930 N   0  0  0  0  0  0  0  0  0  0  0  0
   28.4910   25.5230   45.8640 C   0  0  0  0  0  3  0  0  0  0  0  0
   28.6660   26.8320   45.9780 N   0  0  0  0  0  0  0  0  0  0  0  0
   29.2770   26.9550   47.2280 C   0  0  0  0  0  0  0  0  0  0  0  0
   30.6050   26.8000   47.1580 N   0  0  0  0  0  0  0  0  0  0  0  0
   31.3450   26.8290   48.2980 C   0  0  0  0  0  3  0  0  0  0  0  0
   30.8300   27.0070   49.5140 N   0  0  0  0  0  0  0  0  0  0  0  0
   29.5020   27.1670   49.6310 C   0  0  0  0  0  0  0  0  0  0  0  0
   28.8390   27.3530   50.8160 C   0  0  0  0  0  3  0  0  0  0  0  0
   27.4840   27.5050   50.8780 C   0  0  0  0  0  3  0  0  0  0  0  0
   26.7430   27.4700   49.7000 C   0  0  0  0  0  3  0  0  0  0  0  0
   27.3470   27.2880   48.4820 C   0  0  0  0  0  3  0  0  0  0  0  0
   28.7080   27.1420   48.4770 C   0  0  0  0  0  0  0  0  0  0  0  0
   26.6600   32.0900   43.7380 C   0  0  0  0  0  0  0  0  0  0  0  0
   26.5040   32.5190   42.4720 N   0  0  0  0  0  0  0  0  0  0  0  0
   25.8080   33.6020   42.1040 C   0  0  0  0  0  3  0  0  0  0  0  0
   25.1870   34.3690   43.0150 N   0  0  0  0  0  0  0  0  0  0  0  0
   25.2820   34.0230   44.3100 C   0  0  0  0  0  0  0  0  0  0  0  0
   24.6490   34.8040   45.2520 C   0  0  0  0  0  3  0  0  0  0  0  0
   24.7130   34.4940   46.5970 C   0  0  0  0  0  3  0  0  0  0  0  0
   25.4400   33.3730   46.9380 C   0  0  0  0  0  3  0  0  0  0  0  0
   26.0600   32.6140   45.9720 C   0  0  0  0  0  3  0  0  0  0  0  0
   26.0110   32.9020   44.6350 C   0  0  0  0  0  0  0  0  0  0  0  0
   33.4140   30.5750   47.0730 N   0  0  0  0  0  0  0  0  0  0  0  0
   32.9200   31.1350   47.7810 H   0  0  0  0  0  0  0  0  0  0  0  0
   34.4320   30.4350   47.1450 H   0  0  0  0  0  0  0  0  0  0  0  0
  1 37  1  0  0  0  0
  2  1  2  0  0  0  0
  3  4  2  0  0  0  0
  3  2  1  0  0  0  0
  4  5  1  0  0  0  0
  5  6  2  0  0  0  0
  6  1  1  0  0  0  0
  7 11  1  0  0  0  0
  7  5  1  0  0  0  0
  8  7  1  0  0  0  0
  9  8  2  0  0  0  0
  9 10  1  0  0  0  0
 10 11  2  0  0  0  0
 11 12  1  0  0  0  0
 12 16  1  0  0  0  0
 13 14  1  0  0  0  0
 13 12  2  0  0  0  0
 14 15  2  0  0  0  0
 15 16  1  0  0  0  0
 16 17  1  0  0  0  0
 17 26  1  0  0  0  0
 18 17  2  0  0  0  0
 18 19  1  0  0  0  0
 19 20  2  0  0  0  0
 20 21  1  0  0  0  0
 21 22  1  0  0  0  0
 22 23  2  0  0  0  0
 24 23  1  0  0  0  0
 25 24  2  0  0  0  0
 26 25  1  0  0  0  0
 26 21  2  0  0  0  0
 27  9  1  0  0  0  0
 27 36  1  0  0  0  0
 28 27  2  0  0  0  0
 29 28  1  0  0  0  0
 29 30  2  0  0  0  0
 30 31  1  0  0  0  0
 31 36  2  0  0  0  0
 31 32  1  0  0  0  0
 32 33  2  0  0  0  0
 33 34  1  0  0  0  0
 35 34  2  0  0  0  0
 36 35  1  0  0  0  0
 37 39  1  0  0  0  0
 37 38  1  0  0  0  0
M  END
>  <minimizedAffinity>
-8.02166557

$$$$

 OpenBabel03272514473D

 39 45  0  0  0  0  0  0  0  0999 V2000
   28.1630   29.0290   49.7580 C   0  0  0  0  0  0  0  0  0  0  0  0
   27.6270   27.9340   50.4860 C   0  0  0  0  0  3  0  0  0  0  0  0
   28.4400   26.8450   50.6640 C   0  0  0  0  0  3  0  0  0  0  0  0
   29.6650   26.9260   50.1280 N   0  0  0  0  0  0  0  0  0  0  0  0
   30.1800   27.9200   49.4540 C   0  0  0  0  0  0  0  0  0  0  0  0
   29.4000   28.9960   49.2700 N   0  0  0  0  0  0  0  0  0  0  0  0
   31.5040   27.7430   49.0080 N   0  0  0  0  0  0  0  0  0  0  0  0
   32.4710   28.5180   49.5510 C   0  0  0  0  0  3  0  0  0  0  0  0
   33.6940   28.1700   48.9760 C   0  0  0  0  0  0  0  0  0  0  0  0
   33.4160   27.2090   48.1180 N   0  0  0  0  0  0  0  0  0  0  0  0
   32.0710   26.9290   48.1200 C   0  0  0  0  0  0  0  0  0  0  0  0
   31.4500   25.9530   47.2860 C   0  0  0  0  0  0  0  0  0  0  0  0
   31.9610   24.6460   47.1510 C   0  0  0  0  0  3  0  0  0  0  0  0
   31.1780   23.9440   46.2710 N   0  0  0  0  0  0  0  0  0  0  0  0
   30.1760   24.8300   45.8590 C   0  0  0  0  0  3  0  0  0  0  0  0
   30.4060   25.9690   46.4980 N   0  0  0  0  0  0  0  0  0  0  0  0
   29.3340   26.7700   46.0960 C   0  0  0  0  0  0  0  0  0  0  0  0
   28.2490   26.5800   46.8590 N   0  0  0  0  0  0  0  0  0  0  0  0
   27.0980   27.2390   46.5640 C   0  0  0  0  0  3  0  0  0  0  0  0
   26.9660   28.0840   45.5430 N   0  0  0  0  0  0  0  0  0  0  0  0
   28.0280   28.3050   44.7510 C   0  0  0  0  0  0  0  0  0  0  0  0
   28.0330   29.1420   43.6660 C   0  0  0  0  0  3  0  0  0  0  0  0
   29.1420   29.3240   42.8910 C   0  0  0  0  0  3  0  0  0  0  0  0
   30.3120   28.6390   43.2080 C   0  0  0  0  0  3  0  0  0  0  0  0
   30.3720   27.7880   44.2820 C   0  0  0  0  0  3  0  0  0  0  0  0
   29.2320   27.6420   45.0250 C   0  0  0  0  0  0  0  0  0  0  0  0
   34.9120   28.8670   49.3960 C   0  0  0  0  0  0  0  0  0  0  0  0
   35.3700   28.8670   50.6620 N   0  0  0  0  0  0  0  0  0  0  0  0
   36.4780   29.4910   51.0810 C   0  0  0  0  0  3  0  0  0  0  0  0
   37.2450   30.1900   50.2280 N   0  0  0  0  0  0  0  0  0  0  0  0
   36.8720   30.2500   48.9390 C   0  0  0  0  0  0  0  0  0  0  0  0
   37.6520   30.9650   48.0570 C   0  0  0  0  0  3  0  0  0  0  0  0
   37.3150   31.0590   46.7190 C   0  0  0  0  0  3  0  0  0  0  0  0
   36.1660   30.4050   46.3250 C   0  0  0  0  0  3  0  0  0  0  0  0
   35.4100   29.6980   47.2320 C   0  0  0  0  0  3  0  0  0  0  0  0
   35.7240   29.5920   48.5600 C   0  0  0  0  0  0  0  0  0  0  0  0
   27.3470   30.2030   49.5630 N   0  0  0  0  0  0  0  0  0  0  0  0
   27.7190   31.0070   49.0380 H   0  0  0  0  0  0  0  0  0  0  0  0
   26.3940   30.2380   49.9490 H   0  0  0  0  0  0  0  0  0  0  0  0
  1  2  1  0  0  0  0
  2  3  2  0  0  0  0
  4  3  1  0  0  0  0
  5  4  2  0  0  0  0
  6  5  1  0  0  0  0
  6  1  2  0  0  0  0
  7  5  1  0  0  0  0
  7  8  1  0  0  0  0
  9 27  1  0  0  0  0
  9  8  2  0  0  0  0
 10 11  2  0  0  0  0
 10  9  1  0  0  0  0
 11  7  1  0  0  0  0
 12 11  1  0  0  0  0
 13 12  2  0  0  0  0
 14 13  1  0  0  0  0
 15 14  2  0  0  0  0
 15 16  1  0  0  0  0
 16 12  1  0  0  0  0
 17 16  1  0  0  0  0
 17 18  1  0  0  0  0
 19 18  2  0  0  0  0
 20 19  1  0  0  0  0
 21 26  1  0  0  0  0
 21 20  2  0  0  0  0
 22 21  1  0  0  0  0
 23 24  1  0  0  0  0
 23 22  2  0  0  0  0
 24 25  2  0  0  0  0
 25 26  1  0  0  0  0
 26 17  2  0  0  0  0
 27 28  1  0  0  0  0
 28 29  2  0  0  0  0
 30 29  1  0  0  0  0
 31 30  2  0  0  0  0
 32 31  1  0  0  0  0
 33 32  2  0  0  0  0
 34 33  1  0  0  0  0
 34 35  2  0  0  0  0
 35 36  1  0  0  0  0
 36 31  1  0  0  0  0
 36 27  2  0  0  0  0
 37  1  1  0  0  0  0
 37 39  1  0  0  0  0
 38 37  1  0  0  0  0
M  END
>  <minimizedAffinity>
-7.60639191

$$$$

 OpenBabel03272514473D

 39 45  0  0  0  0  0  0  0  0999 V2000
   32.1600   24.9280   46.0810 C   0  0  0  0  0  0  0  0  0  0  0  0
   31.9560   24.7830   44.6830 C   0  0  0  0  0  3  0  0  0  0  0  0
   32.1820   25.8850   43.9010 C   0  0  0  0  0  3  0  0  0  0  0  0
   32.5760   26.9950   44.5410 N   0  0  0  0  0  0  0  0  0  0  0  0
   32.7700   27.1530   45.8230 C   0  0  0  0  0  0  0  0  0  0  0  0
   32.5540   26.0850   46.6060 N   0  0  0  0  0  0  0  0  0  0  0  0
   33.1930   28.4340   46.2290 N   0  0  0  0  0  0  0  0  0  0  0  0
   34.4450   28.5650   46.7270 C   0  0  0  0  0  3  0  0  0  0  0  0
   34.6540   29.9050   47.0520 C   0  0  0  0  0  0  0  0  0  0  0  0
   33.5320   30.5210   46.7400 N   0  0  0  0  0  0  0  0  0  0  0  0
   32.6160   29.6330   46.2310 C   0  0  0  0  0  0  0  0  0  0  0  0
   31.2960   29.9840   45.8200 C   0  0  0  0  0  0  0  0  0  0  0  0
   30.1550   29.3070   46.2970 C   0  0  0  0  0  3  0  0  0  0  0  0
   29.0360   29.8430   45.7130 N   0  0  0  0  0  0  0  0  0  0  0  0
   29.4940   30.8600   44.8670 C   0  0  0  0  0  3  0  0  0  0  0  0
   30.8140   30.8760   44.9930 N   0  0  0  0  0  0  0  0  0  0  0  0
   31.1870   31.9530   44.1850 C   0  0  0  0  0  0  0  0  0  0  0  0
   31.1270   33.1200   44.8390 N   0  0  0  0  0  0  0  0  0  0  0  0
   31.4000   34.2750   44.1780 C   0  0  0  0  0  3  0  0  0  0  0  0
   31.7340   34.3330   42.8900 N   0  0  0  0  0  0  0  0  0  0  0  0
   31.8070   33.1870   42.1930 C   0  0  0  0  0  0  0  0  0  0  0  0
   32.1320   33.0990   40.8650 C   0  0  0  0  0  3  0  0  0  0  0  0
   32.1870   31.9060   40.2050 C   0  0  0  0  0  3  0  0  0  0  0  0
   31.9010   30.7320   40.8990 C   0  0  0  0  0  3  0  0  0  0  0  0
   31.5700   30.7530   42.2300 C   0  0  0  0  0  3  0  0  0  0  0  0
   31.5310   31.9760   42.8430 C   0  0  0  0  0  0  0  0  0  0  0  0
   35.9430   30.3180   47.6150 C   0  0  0  0  0  0  0  0  0  0  0  0
   36.9180   30.8990   46.8930 N   0  0  0  0  0  0  0  0  0  0  0  0
   38.1060   31.2890   47.3730 C   0  0  0  0  0  3  0  0  0  0  0  0
   38.4200   31.1210   48.6680 N   0  0  0  0  0  0  0  0  0  0  0  0
   37.5100   30.5490   49.4740 C   0  0  0  0  0  0  0  0  0  0  0  0
   37.8220   30.3720   50.8040 C   0  0  0  0  0  3  0  0  0  0  0  0
   36.9230   29.7890   51.6780 C   0  0  0  0  0  3  0  0  0  0  0  0
   35.7110   29.3990   51.1470 C   0  0  0  0  0  3  0  0  0  0  0  0
   35.4300   29.5910   49.8140 C   0  0  0  0  0  3  0  0  0  0  0  0
   36.3050   30.1650   48.9300 C   0  0  0  0  0  0  0  0  0  0  0  0
   31.9510   23.7880   46.9390 N   0  0  0  0  0  0  0  0  0  0  0  0
   32.0950   23.8740   47.9550 H   0  0  0  0  0  0  0  0  0  0  0  0
   31.6570   22.8870   46.5360 H   0  0  0  0  0  0  0  0  0  0  0  0
  1  6  1  0  0  0  0
  1 37  1  0  0  0  0
  2  1  2  0  0  0  0
  3  4  2  0  0  0  0
  3  2  1  0  0  0  0
  4  5  1  0  0  0  0
  5  7  1  0  0  0  0
  5  6  2  0  0  0  0
  7 11  1  0  0  0  0
  7  8  1  0  0  0  0
  8  9  2  0  0  0  0
  9 27  1  0  0  0  0
 10  9  1  0  0  0  0
 11 10  2  0  0  0  0
 12 11  1  0  0  0  0
 12 13  2  0  0  0  0
 14 13  1  0  0  0  0
 15 16  1  0  0  0  0
 15 14  2  0  0  0  0
 16 12  1  0  0  0  0
 17 18  1  0  0  0  0
 17 16  1  0  0  0  0
 19 18  2  0  0  0  0
 20 19  1  0  0  0  0
 21 26  1  0  0  0  0
 21 20  2  0  0  0  0
 22 21  1  0  0  0  0
 23 22  2  0  0  0  0
 23 24  1  0  0  0  0
 24 25  2  0  0  0  0
 25 26  1  0  0  0  0
 26 17  2  0  0  0  0
 27 36  1  0  0  0  0
 28 29  1  0  0  0  0
 28 27  2  0  0  0  0
 29 30  2  0  0  0  0
 30 31  1  0  0  0  0
 31 32  1  0  0  0  0
 32 33  2  0  0  0  0
 34 33  1  0  0  0  0
 35 34  2  0  0  0  0
 36 31  2  0  0  0  0
 36 35  1  0  0  0  0
 37 38  1  0  0  0  0
 39 37  1  0  0  0  0
M  END
>  <minimizedAffinity>
-7.4427104

$$$$
