
 OpenBabel03272514403D

 37 42  0  0  0  0  0  0  0  0999 V2000
   30.6290   27.9360   50.0230 O   0  0  0  0  0  0  0  0  0  0  0  0
   31.4220   27.5820   48.9790 C   0  0  0  0  0  0  0  0  0  0  0  0
   31.3300   26.6270   47.9830 C   0  0  0  0  0  3  0  0  0  0  0  0
   32.2880   26.4660   47.0210 C   0  0  0  0  0  3  0  0  0  0  0  0
   33.4050   27.2890   47.0350 C   0  0  0  0  0  3  0  0  0  0  0  0
   33.4820   28.2320   48.0280 C   0  0  0  0  0  0  0  0  0  0  0  0
   32.5180   28.3860   48.9880 N   0  0  0  0  0  0  0  0  0  0  0  0
   34.6710   29.0340   47.9600 N   0  0  0  0  0  0  0  0  0  0  0  0
   35.0360   29.6470   46.8150 C   0  0  0  0  0  3  0  0  0  0  0  0
   36.1860   30.3280   47.0380 N   0  0  0  0  0  0  0  0  0  0  0  0
   36.5030   30.1110   48.3420 C   0  0  0  0  0  0  0  0  0  0  0  0
   37.5390   30.5280   49.1510 C   0  0  0  0  0  0  0  0  0  0  0  0
   37.6150   30.1510   50.4560 N   0  0  0  0  0  0  0  0  0  0  0  0
   36.6510   29.3450   50.9900 C   0  0  0  0  0  3  0  0  0  0  0  0
   35.6400   28.9380   50.2010 N   0  0  0  0  0  0  0  0  0  0  0  0
   35.5480   29.2990   48.9110 C   0  0  0  0  0  0  0  0  0  0  0  0
   38.5240   31.3720   48.5400 N   0  0  0  0  0  0  0  0  0  0  0  0
   39.3230   31.7160   49.0930 H   0  0  0  0  0  0  0  0  0  0  0  0
   38.4330   31.6350   47.5480 H   0  0  0  0  0  0  0  0  0  0  0  0
   27.4170   29.2530   49.1800 C   0  0  0  0  0  0  0  0  0  0  0  0
   26.5210   28.3760   49.7750 C   0  0  0  0  0  3  0  0  0  0  0  0
   27.0570   27.3100   50.4800 C   0  0  0  0  0  3  0  0  0  0  0  0
   28.3950   27.1690   50.5590 N   0  0  0  0  0  0  0  0  0  0  0  0
   29.2710   28.0350   49.9720 C   0  0  0  0  0  0  0  0  0  0  0  0
   28.7450   29.0810   49.2820 N   0  0  0  0  0  0  0  0  0  0  0  0
   26.9620   30.3910   48.4280 N   0  0  0  0  0  0  0  0  0  0  0  0
   26.4300   31.5350   48.9460 C   0  0  0  0  0  3  0  0  0  0  0  0
   26.1410   32.3390   47.9020 N   0  0  0  0  0  0  0  0  0  0  0  0
   26.4890   31.7090   46.7770 C   0  0  0  0  0  0  0  0  0  0  0  0
   26.4390   32.0130   45.4280 C   0  0  0  0  0  0  0  0  0  0  0  0
   26.8850   31.1290   44.4790 N   0  0  0  0  0  0  0  0  0  0  0  0
   27.3910   29.9190   44.8580 C   0  0  0  0  0  3  0  0  0  0  0  0
   27.4520   29.5970   46.1660 N   0  0  0  0  0  0  0  0  0  0  0  0
   27.0070   30.4790   47.0890 C   0  0  0  0  0  0  0  0  0  0  0  0
   25.9260   33.2490   45.0080 N   0  0  0  0  0  0  0  0  0  0  0  0
   25.8880   33.4760   44.0040 H   0  0  0  0  0  0  0  0  0  0  0  0
   25.5880   33.9290   45.7040 H   0  0  0  0  0  0  0  0  0  0  0  0
  2  7  1  0  0  0  0
  2  1  1  0  0  0  0
  3  2  2  0  0  0  0
  4  5  2  0  0  0  0
  4  3  1  0  0  0  0
  5  6  1  0  0  0  0
  6  7  2  0  0  0  0
  8  6  1  0  0  0  0
  8 16  1  0  0  0  0
  9 10  2  0  0  0  0
  9  8  1  0  0  0  0
 10 11  1  0  0  0  0
 11 16  2  0  0  0  0
 11 12  1  0  0  0  0
 12 13  2  0  0  0  0
 13 14  1  0  0  0  0
 15 14  2  0  0  0  0
 16 15  1  0  0  0  0
 17 18  1  0  0  0  0
 17 12  1  0  0  0  0
 19 17  1  0  0  0  0
 20 25  2  0  0  0  0
 20 21  1  0  0  0  0
 21 22  2  0  0  0  0
 22 23  1  0  0  0  0
 24  1  1  0  0  0  0
 24 23  2  0  0  0  0
 25 24  1  0  0  0  0
 26 27  1  0  0  0  0
 26 20  1  0  0  0  0
 28 27  2  0  0  0  0
 29 34  1  0  0  0  0
 29 28  1  0  0  0  0
 30 29  2  0  0  0  0
 31 32  2  0  0  0  0
 31 30  1  0  0  0  0
 32 33  1  0  0  0  0
 33 34  2  0  0  0  0
 34 26  1  0  0  0  0
 35 30  1  0  0  0  0
 35 37  1  0  0  0  0
 36 35  1  0  0  0  0
M  END
>  <minimizedAffinity>
-8.65373325

$$$$

 OpenBabel03272514403D

 37 42  0  0  0  0  0  0  0  0999 V2000
   30.1570   27.8240   50.1630 O   0  0  0  0  0  0  0  0  0  0  0  0
   28.8180   28.0460   50.1560 C   0  0  0  0  0  0  0  0  0  0  0  0
   27.7510   27.5060   50.8510 C   0  0  0  0  0  3  0  0  0  0  0  0
   26.4590   27.9110   50.6560 C   0  0  0  0  0  3  0  0  0  0  0  0
   26.1950   28.9050   49.7250 C   0  0  0  0  0  3  0  0  0  0  0  0
   27.2640   29.4320   49.0440 C   0  0  0  0  0  0  0  0  0  0  0  0
   28.5550   29.0200   49.2450 N   0  0  0  0  0  0  0  0  0  0  0  0
   26.8930   30.4520   48.1040 N   0  0  0  0  0  0  0  0  0  0  0  0
   26.1170   31.4920   48.4710 C   0  0  0  0  0  3  0  0  0  0  0  0
   25.9280   32.2920   47.3940 N   0  0  0  0  0  0  0  0  0  0  0  0
   26.6080   31.7090   46.3720 C   0  0  0  0  0  0  0  0  0  0  0  0
   26.7970   32.0360   45.0450 C   0  0  0  0  0  0  0  0  0  0  0  0
   27.5450   31.2540   44.2210 N   0  0  0  0  0  0  0  0  0  0  0  0
   28.1270   30.1170   44.7040 C   0  0  0  0  0  3  0  0  0  0  0  0
   27.9440   29.7970   45.9970 N   0  0  0  0  0  0  0  0  0  0  0  0
   27.2090   30.5560   46.8260 C   0  0  0  0  0  0  0  0  0  0  0  0
   26.1620   33.2390   44.5900 N   0  0  0  0  0  0  0  0  0  0  0  0
   26.2660   33.5370   43.6100 H   0  0  0  0  0  0  0  0  0  0  0  0
   25.6030   33.8050   45.2450 H   0  0  0  0  0  0  0  0  0  0  0  0
   32.7970   27.9830   47.7600 C   0  0  0  0  0  0  0  0  0  0  0  0
   32.5150   26.9520   46.8750 C   0  0  0  0  0  3  0  0  0  0  0  0
   31.3830   26.1940   47.1290 C   0  0  0  0  0  3  0  0  0  0  0  0
   30.6170   26.4800   48.2010 N   0  0  0  0  0  0  0  0  0  0  0  0
   30.8980   27.4960   49.0680 C   0  0  0  0  0  0  0  0  0  0  0  0
   32.0080   28.2390   48.8170 N   0  0  0  0  0  0  0  0  0  0  0  0
   33.9470   28.8280   47.5840 N   0  0  0  0  0  0  0  0  0  0  0  0
   34.3530   29.3950   46.4120 C   0  0  0  0  0  3  0  0  0  0  0  0
   35.4660   30.1080   46.6890 N   0  0  0  0  0  0  0  0  0  0  0  0
   35.7320   29.9820   47.9910 C   0  0  0  0  0  0  0  0  0  0  0  0
   36.7120   30.4630   48.8420 C   0  0  0  0  0  0  0  0  0  0  0  0
   36.7190   30.1470   50.1760 N   0  0  0  0  0  0  0  0  0  0  0  0
   35.7450   29.3400   50.6910 C   0  0  0  0  0  3  0  0  0  0  0  0
   34.7780   28.8570   49.8850 N   0  0  0  0  0  0  0  0  0  0  0  0
   34.7850   29.1780   48.5720 C   0  0  0  0  0  0  0  0  0  0  0  0
   37.7240   31.2950   48.3420 N   0  0  0  0  0  0  0  0  0  0  0  0
   38.4550   31.6540   48.9740 H   0  0  0  0  0  0  0  0  0  0  0  0
   37.7370   31.5480   47.3440 H   0  0  0  0  0  0  0  0  0  0  0  0
  2  1  1  0  0  0  0
  2  3  1  0  0  0  0
  4  3  2  0  0  0  0
  5  4  1  0  0  0  0
  6  7  1  0  0  0  0
  6  5  2  0  0  0  0
  7  2  2  0  0  0  0
  8  9  1  0  0  0  0
  8  6  1  0  0  0  0
 10  9  2  0  0  0  0
 11 16  1  0  0  0  0
 11 10  1  0  0  0  0
 12 11  2  0  0  0  0
 13 14  2  0  0  0  0
 13 12  1  0  0  0  0
 14 15  1  0  0  0  0
 15 16  2  0  0  0  0
 16  8  1  0  0  0  0
 17 12  1  0  0  0  0
 17 19  1  0  0  0  0
 18 17  1  0  0  0  0
 20 25  1  0  0  0  0
 21 22  1  0  0  0  0
 21 20  2  0  0  0  0
 22 23  2  0  0  0  0
 23 24  1  0  0  0  0
 24  1  1  0  0  0  0
 25 24  2  0  0  0  0
 26 20  1  0  0  0  0
 26 34  1  0  0  0  0
 27 28  2  0  0  0  0
 27 26  1  0  0  0  0
 28 29  1  0  0  0  0
 29 34  2  0  0  0  0
 29 30  1  0  0  0  0
 30 31  2  0  0  0  0
 31 32  1  0  0  0  0
 33 32  2  0  0  0  0
 34 33  1  0  0  0  0
 35 30  1  0  0  0  0
 35 36  1  0  0  0  0
 37 35  1  0  0  0  0
M  END
>  <minimizedAffinity>
-8.24176884

$$$$

 OpenBabel03272514403D

 37 42  0  0  0  0  0  0  0  0999 V2000
   29.4980   28.0120   50.3190 O   0  0  0  0  0  0  0  0  0  0  0  0
   28.2030   28.3280   50.0600 C   0  0  0  0  0  0  0  0  0  0  0  0
   26.9920   27.9330   50.5980 C   0  0  0  0  0  3  0  0  0  0  0  0
   25.7910   28.4110   50.1480 C   0  0  0  0  0  3  0  0  0  0  0  0
   25.7760   29.3290   49.1090 C   0  0  0  0  0  3  0  0  0  0  0  0
   26.9850   29.7110   48.5860 C   0  0  0  0  0  0  0  0  0  0  0  0
   28.1830   29.2280   49.0420 N   0  0  0  0  0  0  0  0  0  0  0  0
   26.8680   30.6630   47.5160 N   0  0  0  0  0  0  0  0  0  0  0  0
   26.1340   31.7860   47.6580 C   0  0  0  0  0  3  0  0  0  0  0  0
   26.1990   32.4920   46.5040 N   0  0  0  0  0  0  0  0  0  0  0  0
   26.9880   31.7680   45.6660 C   0  0  0  0  0  0  0  0  0  0  0  0
   27.4250   31.9560   44.3710 C   0  0  0  0  0  0  0  0  0  0  0  0
   28.2300   31.0470   43.7560 N   0  0  0  0  0  0  0  0  0  0  0  0
   28.6220   29.9220   44.4230 C   0  0  0  0  0  3  0  0  0  0  0  0
   28.1970   29.7390   45.6850 N   0  0  0  0  0  0  0  0  0  0  0  0
   27.4020   30.6240   46.3090 C   0  0  0  0  0  0  0  0  0  0  0  0
   26.9840   33.1530   43.7170 N   0  0  0  0  0  0  0  0  0  0  0  0
   27.2760   33.3500   42.7490 H   0  0  0  0  0  0  0  0  0  0  0  0
   26.3730   33.8170   44.2160 H   0  0  0  0  0  0  0  0  0  0  0  0
   32.6080   27.8670   48.5660 C   0  0  0  0  0  0  0  0  0  0  0  0
   32.3810   26.9570   47.5430 C   0  0  0  0  0  3  0  0  0  0  0  0
   31.1180   26.3900   47.4720 C   0  0  0  0  0  3  0  0  0  0  0  0
   30.1820   26.7350   48.3780 N   0  0  0  0  0  0  0  0  0  0  0  0
   30.4100   27.6310   49.3820 C   0  0  0  0  0  0  0  0  0  0  0  0
   31.6480   28.1870   49.4490 N   0  0  0  0  0  0  0  0  0  0  0  0
   33.8830   28.5120   48.7250 N   0  0  0  0  0  0  0  0  0  0  0  0
   34.6030   28.5920   49.8800 C   0  0  0  0  0  3  0  0  0  0  0  0
   35.7310   29.2740   49.5910 N   0  0  0  0  0  0  0  0  0  0  0  0
   35.7040   29.6000   48.2960 C   0  0  0  0  0  0  0  0  0  0  0  0
   36.5500   30.2820   47.4390 C   0  0  0  0  0  0  0  0  0  0  0  0
   36.2360   30.4630   46.1170 N   0  0  0  0  0  0  0  0  0  0  0  0
   35.0650   29.9660   45.6200 C   0  0  0  0  0  3  0  0  0  0  0  0
   34.2210   29.2980   46.4330 N   0  0  0  0  0  0  0  0  0  0  0  0
   34.5460   29.1290   47.7340 C   0  0  0  0  0  0  0  0  0  0  0  0
   37.7610   30.8010   47.9200 N   0  0  0  0  0  0  0  0  0  0  0  0
   38.3930   31.3090   47.2830 H   0  0  0  0  0  0  0  0  0  0  0  0
   38.0190   30.6750   48.9090 H   0  0  0  0  0  0  0  0  0  0  0  0
  2  1  1  0  0  0  0
  2  3  1  0  0  0  0
  4  3  2  0  0  0  0
  5  4  1  0  0  0  0
  6  7  1  0  0  0  0
  6  5  2  0  0  0  0
  7  2  2  0  0  0  0
  8  9  1  0  0  0  0
  8  6  1  0  0  0  0
 10  9  2  0  0  0  0
 11 16  1  0  0  0  0
 11 10  1  0  0  0  0
 12 11  2  0  0  0  0
 13 12  1  0  0  0  0
 13 14  2  0  0  0  0
 14 15  1  0  0  0  0
 15 16  2  0  0  0  0
 16  8  1  0  0  0  0
 17 19  1  0  0  0  0
 17 12  1  0  0  0  0
 18 17  1  0  0  0  0
 20 26  1  0  0  0  0
 20 25  1  0  0  0  0
 21 20  2  0  0  0  0
 22 21  1  0  0  0  0
 22 23  2  0  0  0  0
 23 24  1  0  0  0  0
 24 25  2  0  0  0  0
 24  1  1  0  0  0  0
 26 27  1  0  0  0  0
 28 27  2  0  0  0  0
 29 28  1  0  0  0  0
 30 35  1  0  0  0  0
 30 29  2  0  0  0  0
 31 30  1  0  0  0  0
 32 31  2  0  0  0  0
 32 33  1  0  0  0  0
 33 34  2  0  0  0  0
 34 29  1  0  0  0  0
 34 26  1  0  0  0  0
 35 37  1  0  0  0  0
 36 35  1  0  0  0  0
M  END
>  <minimizedAffinity>
-7.87307882

$$$$

 OpenBabel03272514403D

 37 42  0  0  0  0  0  0  0  0999 V2000
   30.8300   27.8070   49.7620 O   0  0  0  0  0  0  0  0  0  0  0  0
   31.6500   27.5280   48.7170 C   0  0  0  0  0  0  0  0  0  0  0  0
   31.6040   26.6200   47.6750 C   0  0  0  0  0  3  0  0  0  0  0  0
   32.5840   26.5340   46.7240 C   0  0  0  0  0  3  0  0  0  0  0  0
   33.6750   27.3870   46.7980 C   0  0  0  0  0  3  0  0  0  0  0  0
   33.7060   28.2830   47.8370 C   0  0  0  0  0  0  0  0  0  0  0  0
   32.7210   28.3620   48.7850 N   0  0  0  0  0  0  0  0  0  0  0  0
   34.8720   29.1220   47.8300 N   0  0  0  0  0  0  0  0  0  0  0  0
   35.2380   29.8000   46.7230 C   0  0  0  0  0  3  0  0  0  0  0  0
   36.3620   30.5030   46.9990 N   0  0  0  0  0  0  0  0  0  0  0  0
   36.6640   30.2320   48.2970 C   0  0  0  0  0  0  0  0  0  0  0  0
   37.6730   30.6390   49.1450 C   0  0  0  0  0  0  0  0  0  0  0  0
   37.7380   30.2020   50.4320 N   0  0  0  0  0  0  0  0  0  0  0  0
   36.7890   29.3430   50.9080 C   0  0  0  0  0  3  0  0  0  0  0  0
   35.8050   28.9460   50.0820 N   0  0  0  0  0  0  0  0  0  0  0  0
   35.7240   29.3660   48.8090 C   0  0  0  0  0  0  0  0  0  0  0  0
   38.6420   31.5400   48.5940 N   0  0  0  0  0  0  0  0  0  0  0  0
   39.4200   31.8800   49.1770 H   0  0  0  0  0  0  0  0  0  0  0  0
   38.5600   31.8480   47.6140 H   0  0  0  0  0  0  0  0  0  0  0  0
   27.6970   28.8360   48.3850 C   0  0  0  0  0  0  0  0  0  0  0  0
   26.7610   28.4330   49.3280 C   0  0  0  0  0  3  0  0  0  0  0  0
   27.2410   27.7920   50.4590 C   0  0  0  0  0  3  0  0  0  0  0  0
   28.5670   27.5890   50.5970 N   0  0  0  0  0  0  0  0  0  0  0  0
   29.4820   27.9880   49.6680 C   0  0  0  0  0  0  0  0  0  0  0  0
   29.0110   28.6180   48.5600 N   0  0  0  0  0  0  0  0  0  0  0  0
   27.3010   29.5100   47.1780 N   0  0  0  0  0  0  0  0  0  0  0  0
   27.0400   30.8420   47.0520 C   0  0  0  0  0  3  0  0  0  0  0  0
   26.7080   31.0540   45.7620 N   0  0  0  0  0  0  0  0  0  0  0  0
   26.7670   29.8870   45.1150 C   0  0  0  0  0  0  0  0  0  0  0  0
   26.5410   29.4750   43.8140 C   0  0  0  0  0  0  0  0  0  0  0  0
   26.6860   28.1630   43.4430 N   0  0  0  0  0  0  0  0  0  0  0  0
   27.0600   27.2310   44.3680 C   0  0  0  0  0  3  0  0  0  0  0  0
   27.2860   27.6040   45.6440 N   0  0  0  0  0  0  0  0  0  0  0  0
   27.1380   28.9020   45.9930 C   0  0  0  0  0  0  0  0  0  0  0  0
   26.1580   30.4110   42.8410 N   0  0  0  0  0  0  0  0  0  0  0  0
   25.9900   30.1060   41.8720 H   0  0  0  0  0  0  0  0  0  0  0  0
   26.0460   31.4020   43.0970 H   0  0  0  0  0  0  0  0  0  0  0  0
  2  7  1  0  0  0  0
  2  1  1  0  0  0  0
  3  2  2  0  0  0  0
  4  5  2  0  0  0  0
  4  3  1  0  0  0  0
  5  6  1  0  0  0  0
  6  7  2  0  0  0  0
  8  6  1  0  0  0  0
  8 16  1  0  0  0  0
  9 10  2  0  0  0  0
  9  8  1  0  0  0  0
 10 11  1  0  0  0  0
 11 16  2  0  0  0  0
 11 12  1  0  0  0  0
 12 13  2  0  0  0  0
 13 14  1  0  0  0  0
 15 14  2  0  0  0  0
 16 15  1  0  0  0  0
 17 12  1  0  0  0  0
 17 18  1  0  0  0  0
 19 17  1  0  0  0  0
 20 25  2  0  0  0  0
 20 21  1  0  0  0  0
 21 22  2  0  0  0  0
 22 23  1  0  0  0  0
 24  1  1  0  0  0  0
 24 23  2  0  0  0  0
 25 24  1  0  0  0  0
 26 20  1  0  0  0  0
 27 26  1  0  0  0  0
 28 27  2  0  0  0  0
 29 28  1  0  0  0  0
 29 34  1  0  0  0  0
 30 29  2  0  0  0  0
 31 30  1  0  0  0  0
 31 32  2  0  0  0  0
 32 33  1  0  0  0  0
 33 34  2  0  0  0  0
 34 26  1  0  0  0  0
 35 37  1  0  0  0  0
 35 30  1  0  0  0  0
 36 35  1  0  0  0  0
M  END
>  <minimizedAffinity>
-7.80254364

$$$$

 OpenBabel03272514403D

 37 42  0  0  0  0  0  0  0  0999 V2000
   33.6730   29.0440   49.6100 O   0  0  0  0  0  0  0  0  0  0  0  0
   33.4350   28.0490   48.7180 C   0  0  0  0  0  0  0  0  0  0  0  0
   34.2150   27.0530   48.1590 C   0  0  0  0  0  3  0  0  0  0  0  0
   33.7260   26.1480   47.2580 C   0  0  0  0  0  3  0  0  0  0  0  0
   32.3930   26.2210   46.8810 C   0  0  0  0  0  3  0  0  0  0  0  0
   31.6310   27.2140   47.4450 C   0  0  0  0  0  0  0  0  0  0  0  0
   32.1290   28.1170   48.3460 N   0  0  0  0  0  0  0  0  0  0  0  0
   30.2670   27.2100   46.9940 N   0  0  0  0  0  0  0  0  0  0  0  0
   29.5240   26.0850   47.0270 C   0  0  0  0  0  3  0  0  0  0  0  0
   28.2890   26.3700   46.5480 N   0  0  0  0  0  0  0  0  0  0  0  0
   28.3080   27.6910   46.2260 C   0  0  0  0  0  0  0  0  0  0  0  0
   27.3700   28.5560   45.7020 C   0  0  0  0  0  0  0  0  0  0  0  0
   27.6620   29.8650   45.4740 N   0  0  0  0  0  0  0  0  0  0  0  0
   28.9060   30.3460   45.7670 C   0  0  0  0  0  3  0  0  0  0  0  0
   29.8210   29.5030   46.2780 N   0  0  0  0  0  0  0  0  0  0  0  0
   29.5520   28.2090   46.5100 C   0  0  0  0  0  0  0  0  0  0  0  0
   26.0810   27.9980   45.4130 N   0  0  0  0  0  0  0  0  0  0  0  0
   25.3380   28.5940   45.0200 H   0  0  0  0  0  0  0  0  0  0  0  0
   25.8980   27.0010   45.5980 H   0  0  0  0  0  0  0  0  0  0  0  0
   36.8740   30.6290   49.5330 C   0  0  0  0  0  0  0  0  0  0  0  0
   37.4460   30.3040   50.7540 C   0  0  0  0  0  3  0  0  0  0  0  0
   36.6940   29.5180   51.6130 C   0  0  0  0  0  3  0  0  0  0  0  0
   35.4650   29.1100   51.2380 N   0  0  0  0  0  0  0  0  0  0  0  0
   34.9080   29.4320   50.0350 C   0  0  0  0  0  0  0  0  0  0  0  0
   35.6460   30.2010   49.1930 N   0  0  0  0  0  0  0  0  0  0  0  0
   37.5730   31.4390   48.5710 N   0  0  0  0  0  0  0  0  0  0  0  0
   38.4790   32.4180   48.8530 C   0  0  0  0  0  3  0  0  0  0  0  0
   38.8920   32.9210   47.6720 N   0  0  0  0  0  0  0  0  0  0  0  0
   38.2590   32.2680   46.6930 C   0  0  0  0  0  0  0  0  0  0  0  0
   38.2630   32.3310   45.3110 C   0  0  0  0  0  0  0  0  0  0  0  0
   37.4750   31.5010   44.5540 N   0  0  0  0  0  0  0  0  0  0  0  0
   36.6640   30.5880   45.1650 C   0  0  0  0  0  3  0  0  0  0  0  0
   36.6410   30.5050   46.5110 N   0  0  0  0  0  0  0  0  0  0  0  0
   37.4230   31.3300   47.2410 C   0  0  0  0  0  0  0  0  0  0  0  0
   39.0870   33.2570   44.6560 N   0  0  0  0  0  0  0  0  0  0  0  0
   39.0910   33.3060   43.6270 H   0  0  0  0  0  0  0  0  0  0  0  0
   39.6890   33.8890   45.2040 H   0  0  0  0  0  0  0  0  0  0  0  0
  1 24  1  0  0  0  0
  2  1  1  0  0  0  0
  3  2  2  0  0  0  0
  4  3  1  0  0  0  0
  5  4  2  0  0  0  0
  5  6  1  0  0  0  0
  6  7  2  0  0  0  0
  7  2  1  0  0  0  0
  8  9  1  0  0  0  0
  8  6  1  0  0  0  0
 10  9  2  0  0  0  0
 11 16  1  0  0  0  0
 11 10  1  0  0  0  0
 12 11  2  0  0  0  0
 13 12  1  0  0  0  0
 13 14  2  0  0  0  0
 14 15  1  0  0  0  0
 15 16  2  0  0  0  0
 16  8  1  0  0  0  0
 17 19  1  0  0  0  0
 17 12  1  0  0  0  0
 18 17  1  0  0  0  0
 20 21  1  0  0  0  0
 21 22  2  0  0  0  0
 23 22  1  0  0  0  0
 24 23  2  0  0  0  0
 25 20  2  0  0  0  0
 25 24  1  0  0  0  0
 26 27  1  0  0  0  0
 26 20  1  0  0  0  0
 28 27  2  0  0  0  0
 29 34  1  0  0  0  0
 29 28  1  0  0  0  0
 30 29  2  0  0  0  0
 31 32  2  0  0  0  0
 31 30  1  0  0  0  0
 32 33  1  0  0  0  0
 33 34  2  0  0  0  0
 34 26  1  0  0  0  0
 35 37  1  0  0  0  0
 35 30  1  0  0  0  0
 36 35  1  0  0  0  0
M  END
>  <minimizedAffinity>
-7.7118783

$$$$

 OpenBabel03272514403D

 37 42  0  0  0  0  0  0  0  0999 V2000
   26.1730   32.4730   48.2870 O   0  0  0  0  0  0  0  0  0  0  0  0
   25.7840   33.0110   47.1020 C   0  0  0  0  0  0  0  0  0  0  0  0
   24.9750   34.0760   46.7500 C   0  0  0  0  0  3  0  0  0  0  0  0
   24.7330   34.4230   45.4490 C   0  0  0  0  0  3  0  0  0  0  0  0
   25.3180   33.6830   44.4320 C   0  0  0  0  0  3  0  0  0  0  0  0
   26.1180   32.6300   44.7970 C   0  0  0  0  0  0  0  0  0  0  0  0
   26.3550   32.2890   46.1020 N   0  0  0  0  0  0  0  0  0  0  0  0
   26.6770   31.9260   43.6770 N   0  0  0  0  0  0  0  0  0  0  0  0
   27.3240   32.5810   42.6920 C   0  0  0  0  0  3  0  0  0  0  0  0
   27.7420   31.6760   41.7740 N   0  0  0  0  0  0  0  0  0  0  0  0
   27.3320   30.4630   42.2300 C   0  0  0  0  0  0  0  0  0  0  0  0
   27.4520   29.1750   41.7500 C   0  0  0  0  0  0  0  0  0  0  0  0
   26.9330   28.1150   42.4270 N   0  0  0  0  0  0  0  0  0  0  0  0
   26.2770   28.3160   43.6080 C   0  0  0  0  0  3  0  0  0  0  0  0
   26.1600   29.5710   44.0760 N   0  0  0  0  0  0  0  0  0  0  0  0
   26.6650   30.6290   43.4230 C   0  0  0  0  0  0  0  0  0  0  0  0
   28.1490   29.0220   40.5070 N   0  0  0  0  0  0  0  0  0  0  0  0
   28.2710   28.0850   40.0970 H   0  0  0  0  0  0  0  0  0  0  0  0
   28.5270   29.8500   40.0230 H   0  0  0  0  0  0  0  0  0  0  0  0
   27.0430   29.0840   49.0080 C   0  0  0  0  0  0  0  0  0  0  0  0
   25.8370   28.4860   49.3460 C   0  0  0  0  0  3  0  0  0  0  0  0
   24.7070   29.2870   49.3190 C   0  0  0  0  0  3  0  0  0  0  0  0
   24.8200   30.5860   48.9740 N   0  0  0  0  0  0  0  0  0  0  0  0
   26.0080   31.1680   48.6420 C   0  0  0  0  0  0  0  0  0  0  0  0
   27.1150   30.3810   48.6680 N   0  0  0  0  0  0  0  0  0  0  0  0
   28.2730   28.3380   49.0040 N   0  0  0  0  0  0  0  0  0  0  0  0
   29.1340   28.2050   50.0530 C   0  0  0  0  0  3  0  0  0  0  0  0
   30.1520   27.4290   49.6270 N   0  0  0  0  0  0  0  0  0  0  0  0
   29.9210   27.0940   48.3550 C   0  0  0  0  0  0  0  0  0  0  0  0
   30.5840   26.3380   47.4050 C   0  0  0  0  0  0  0  0  0  0  0  0
   30.0790   26.1740   46.1400 N   0  0  0  0  0  0  0  0  0  0  0  0
   28.8970   26.7650   45.7970 C   0  0  0  0  0  3  0  0  0  0  0  0
   28.2290   27.5070   46.7040 N   0  0  0  0  0  0  0  0  0  0  0  0
   28.7410   27.6590   47.9450 C   0  0  0  0  0  0  0  0  0  0  0  0
   31.7990   25.7170   47.7290 N   0  0  0  0  0  0  0  0  0  0  0  0
   32.2950   25.1540   47.0220 H   0  0  0  0  0  0  0  0  0  0  0  0
   32.1960   25.8240   48.6730 H   0  0  0  0  0  0  0  0  0  0  0  0
  1 24  1  0  0  0  0
  2  1  1  0  0  0  0
  3  2  1  0  0  0  0
  4  3  2  0  0  0  0
  5  6  2  0  0  0  0
  5  4  1  0  0  0  0
  6  7  1  0  0  0  0
  7  2  2  0  0  0  0
  8  6  1  0  0  0  0
  9  8  1  0  0  0  0
 10 11  1  0  0  0  0
 10  9  2  0  0  0  0
 11 16  1  0  0  0  0
 12 11  2  0  0  0  0
 12 13  1  0  0  0  0
 13 14  2  0  0  0  0
 14 15  1  0  0  0  0
 16  8  1  0  0  0  0
 16 15  2  0  0  0  0
 17 12  1  0  0  0  0
 18 17  1  0  0  0  0
 19 17  1  0  0  0  0
 20 21  1  0  0  0  0
 22 21  2  0  0  0  0
 23 22  1  0  0  0  0
 24 25  1  0  0  0  0
 24 23  2  0  0  0  0
 25 20  2  0  0  0  0
 26 20  1  0  0  0  0
 26 27  1  0  0  0  0
 28 27  2  0  0  0  0
 29 28  1  0  0  0  0
 30 35  1  0  0  0  0
 30 29  2  0  0  0  0
 31 30  1  0  0  0  0
 32 31  2  0  0  0  0
 32 33  1  0  0  0  0
 33 34  2  0  0  0  0
 34 29  1  0  0  0  0
 34 26  1  0  0  0  0
 35 37  1  0  0  0  0
 36 35  1  0  0  0  0
M  END
>  <minimizedAffinity>
-7.6218133

$$$$

 OpenBabel03272514403D

 37 42  0  0  0  0  0  0  0  0999 V2000
   26.2980   32.5470   47.9080 O   0  0  0  0  0  0  0  0  0  0  0  0
   25.7790   33.2500   46.8690 C   0  0  0  0  0  0  0  0  0  0  0  0
   24.9980   34.3870   46.7730 C   0  0  0  0  0  3  0  0  0  0  0  0
   24.5950   34.9110   45.5750 C   0  0  0  0  0  3  0  0  0  0  0  0
   24.9810   34.2830   44.4000 C   0  0  0  0  0  3  0  0  0  0  0  0
   25.7570   33.1570   44.5110 C   0  0  0  0  0  0  0  0  0  0  0  0
   26.1550   32.6390   45.7140 N   0  0  0  0  0  0  0  0  0  0  0  0
   26.1050   32.5790   43.2420 N   0  0  0  0  0  0  0  0  0  0  0  0
   26.6450   33.3260   42.2590 C   0  0  0  0  0  3  0  0  0  0  0  0
   26.8700   32.5300   41.1860 N   0  0  0  0  0  0  0  0  0  0  0  0
   26.4530   31.2880   41.5470 C   0  0  0  0  0  0  0  0  0  0  0  0
   26.4210   30.0690   40.9020 C   0  0  0  0  0  0  0  0  0  0  0  0
   25.9370   28.9550   41.5150 N   0  0  0  0  0  0  0  0  0  0  0  0
   25.4710   29.0300   42.7960 C   0  0  0  0  0  3  0  0  0  0  0  0
   25.5010   30.2180   43.4250 N   0  0  0  0  0  0  0  0  0  0  0  0
   25.9740   31.3280   42.8380 C   0  0  0  0  0  0  0  0  0  0  0  0
   26.9230   30.0470   39.5590 N   0  0  0  0  0  0  0  0  0  0  0  0
   26.9260   29.1660   39.0250 H   0  0  0  0  0  0  0  0  0  0  0  0
   27.2800   30.9130   39.1280 H   0  0  0  0  0  0  0  0  0  0  0  0
   26.5950   28.9860   47.9110 C   0  0  0  0  0  0  0  0  0  0  0  0
   25.5300   28.5550   48.6890 C   0  0  0  0  0  3  0  0  0  0  0  0
   24.7000   29.5310   49.2180 C   0  0  0  0  0  3  0  0  0  0  0  0
   24.9530   30.8300   48.9620 N   0  0  0  0  0  0  0  0  0  0  0  0
   26.0010   31.2480   48.1950 C   0  0  0  0  0  0  0  0  0  0  0  0
   26.8140   30.2910   47.6760 N   0  0  0  0  0  0  0  0  0  0  0  0
   27.5130   28.0530   47.3150 N   0  0  0  0  0  0  0  0  0  0  0  0
   27.3480   27.4160   46.1210 C   0  0  0  0  0  3  0  0  0  0  0  0
   28.4350   26.6380   45.9400 N   0  0  0  0  0  0  0  0  0  0  0  0
   29.2440   26.7950   46.9900 C   0  0  0  0  0  0  0  0  0  0  0  0
   30.4710   26.2780   47.3690 C   0  0  0  0  0  0  0  0  0  0  0  0
   31.0680   26.6430   48.5480 N   0  0  0  0  0  0  0  0  0  0  0  0
   30.4510   27.5340   49.3780 C   0  0  0  0  0  3  0  0  0  0  0  0
   29.2540   28.0540   49.0340 N   0  0  0  0  0  0  0  0  0  0  0  0
   28.6790   27.6830   47.8680 C   0  0  0  0  0  0  0  0  0  0  0  0
   31.1310   25.3630   46.5360 N   0  0  0  0  0  0  0  0  0  0  0  0
   32.0440   24.9760   46.8160 H   0  0  0  0  0  0  0  0  0  0  0  0
   30.7020   25.0760   45.6440 H   0  0  0  0  0  0  0  0  0  0  0  0
  1 24  1  0  0  0  0
  2  1  1  0  0  0  0
  3  2  1  0  0  0  0
  4  3  2  0  0  0  0
  5  6  2  0  0  0  0
  5  4  1  0  0  0  0
  6  7  1  0  0  0  0
  7  2  2  0  0  0  0
  8  6  1  0  0  0  0
  9  8  1  0  0  0  0
 10 11  1  0  0  0  0
 10  9  2  0  0  0  0
 11 16  1  0  0  0  0
 12 13  1  0  0  0  0
 12 11  2  0  0  0  0
 13 14  2  0  0  0  0
 14 15  1  0  0  0  0
 16  8  1  0  0  0  0
 16 15  2  0  0  0  0
 17 12  1  0  0  0  0
 18 17  1  0  0  0  0
 19 17  1  0  0  0  0
 20 21  1  0  0  0  0
 21 22  2  0  0  0  0
 23 22  1  0  0  0  0
 24 23  2  0  0  0  0
 25 20  2  0  0  0  0
 25 24  1  0  0  0  0
 26 34  1  0  0  0  0
 26 20  1  0  0  0  0
 27 26  1  0  0  0  0
 28 27  2  0  0  0  0
 28 29  1  0  0  0  0
 29 30  2  0  0  0  0
 29 34  1  0  0  0  0
 30 31  1  0  0  0  0
 31 32  2  0  0  0  0
 33 32  1  0  0  0  0
 34 33  2  0  0  0  0
 35 36  1  0  0  0  0
 35 30  1  0  0  0  0
 37 35  1  0  0  0  0
M  END
>  <minimizedAffinity>
-7.58118248

$$$$

 OpenBabel03272514403D

 37 42  0  0  0  0  0  0  0  0999 V2000
   34.6020   27.9880   49.4890 O   0  0  0  0  0  0  0  0  0  0  0  0
   35.3220   29.1360   49.4120 C   0  0  0  0  0  0  0  0  0  0  0  0
   35.6320   30.1380   50.3140 C   0  0  0  0  0  3  0  0  0  0  0  0
   36.3970   31.2230   49.9810 C   0  0  0  0  0  3  0  0  0  0  0  0
   36.8870   31.3330   48.6890 C   0  0  0  0  0  3  0  0  0  0  0  0
   36.5720   30.3310   47.8060 C   0  0  0  0  0  0  0  0  0  0  0  0
   35.8060   29.2490   48.1470 N   0  0  0  0  0  0  0  0  0  0  0  0
   37.1240   30.5330   46.4950 N   0  0  0  0  0  0  0  0  0  0  0  0
   38.4340   30.8040   46.3230 C   0  0  0  0  0  3  0  0  0  0  0  0
   38.6750   30.9460   44.9970 N   0  0  0  0  0  0  0  0  0  0  0  0
   37.4800   30.7540   44.3780 C   0  0  0  0  0  0  0  0  0  0  0  0
   37.0790   30.7680   43.0580 C   0  0  0  0  0  0  0  0  0  0  0  0
   35.7850   30.5380   42.7070 N   0  0  0  0  0  0  0  0  0  0  0  0
   34.8520   30.2860   43.6720 C   0  0  0  0  0  3  0  0  0  0  0  0
   35.2420   30.2710   44.9590 N   0  0  0  0  0  0  0  0  0  0  0  0
   36.5140   30.4960   45.3240 C   0  0  0  0  0  0  0  0  0  0  0  0
   38.0990   31.0390   42.0860 N   0  0  0  0  0  0  0  0  0  0  0  0
   37.8620   31.0630   41.0840 H   0  0  0  0  0  0  0  0  0  0  0  0
   39.0680   31.2100   42.3910 H   0  0  0  0  0  0  0  0  0  0  0  0
   31.5320   27.6510   47.6930 C   0  0  0  0  0  0  0  0  0  0  0  0
   31.8280   26.7570   46.6740 C   0  0  0  0  0  3  0  0  0  0  0  0
   33.1250   26.2690   46.6210 C   0  0  0  0  0  3  0  0  0  0  0  0
   34.0260   26.6720   47.5390 N   0  0  0  0  0  0  0  0  0  0  0  0
   33.7280   27.5510   48.5390 C   0  0  0  0  0  0  0  0  0  0  0  0
   32.4570   28.0280   48.5910 N   0  0  0  0  0  0  0  0  0  0  0  0
   30.2160   28.2130   47.8360 N   0  0  0  0  0  0  0  0  0  0  0  0
   29.6060   29.0600   46.9590 C   0  0  0  0  0  3  0  0  0  0  0  0
   28.3890   29.3420   47.4690 N   0  0  0  0  0  0  0  0  0  0  0  0
   28.2560   28.6850   48.6240 C   0  0  0  0  0  0  0  0  0  0  0  0
   27.2630   28.5780   49.5830 C   0  0  0  0  0  0  0  0  0  0  0  0
   27.4280   27.8010   50.7000 N   0  0  0  0  0  0  0  0  0  0  0  0
   28.5920   27.1120   50.8860 C   0  0  0  0  0  3  0  0  0  0  0  0
   29.5770   27.1980   49.9680 N   0  0  0  0  0  0  0  0  0  0  0  0
   29.3990   27.9690   48.8730 C   0  0  0  0  0  0  0  0  0  0  0  0
   26.0560   29.2720   49.4180 N   0  0  0  0  0  0  0  0  0  0  0  0
   25.3160   29.1940   50.1300 H   0  0  0  0  0  0  0  0  0  0  0  0
   25.9090   29.8600   48.5850 H   0  0  0  0  0  0  0  0  0  0  0  0
  2  1  1  0  0  0  0
  2  3  1  0  0  0  0
  4  3  2  0  0  0  0
  5  4  1  0  0  0  0
  6  7  1  0  0  0  0
  6  5  2  0  0  0  0
  7  2  2  0  0  0  0
  8  6  1  0  0  0  0
  9  8  1  0  0  0  0
 10  9  2  0  0  0  0
 11 10  1  0  0  0  0
 11 16  1  0  0  0  0
 12 11  2  0  0  0  0
 13 12  1  0  0  0  0
 13 14  2  0  0  0  0
 14 15  1  0  0  0  0
 15 16  2  0  0  0  0
 16  8  1  0  0  0  0
 17 19  1  0  0  0  0
 17 12  1  0  0  0  0
 18 17  1  0  0  0  0
 20 26  1  0  0  0  0
 20 25  1  0  0  0  0
 21 20  2  0  0  0  0
 22 21  1  0  0  0  0
 22 23  2  0  0  0  0
 23 24  1  0  0  0  0
 24 25  2  0  0  0  0
 24  1  1  0  0  0  0
 26 34  1  0  0  0  0
 27 28  2  0  0  0  0
 27 26  1  0  0  0  0
 28 29  1  0  0  0  0
 29 34  2  0  0  0  0
 29 30  1  0  0  0  0
 30 31  2  0  0  0  0
 31 32  1  0  0  0  0
 33 32  2  0  0  0  0
 34 33  1  0  0  0  0
 35 30  1  0  0  0  0
 35 36  1  0  0  0  0
 37 35  1  0  0  0  0
M  END
>  <minimizedAffinity>
-7.5747323

$$$$

 OpenBabel03272514403D

 37 42  0  0  0  0  0  0  0  0999 V2000
   32.4070   29.8790   44.3890 O   0  0  0  0  0  0  0  0  0  0  0  0
   31.6070   28.9430   44.9620 C   0  0  0  0  0  0  0  0  0  0  0  0
   31.5810   27.5600   44.9440 C   0  0  0  0  0  3  0  0  0  0  0  0
   30.6450   26.8280   45.6230 C   0  0  0  0  0  3  0  0  0  0  0  0
   29.6760   27.4900   46.3620 C   0  0  0  0  0  3  0  0  0  0  0  0
   29.7150   28.8620   46.3710 C   0  0  0  0  0  0  0  0  0  0  0  0
   30.6550   29.5870   45.6880 N   0  0  0  0  0  0  0  0  0  0  0  0
   28.6740   29.4560   47.1620 N   0  0  0  0  0  0  0  0  0  0  0  0
   28.4550   29.0670   48.4350 C   0  0  0  0  0  3  0  0  0  0  0  0
   27.4230   29.7870   48.9350 N   0  0  0  0  0  0  0  0  0  0  0  0
   27.0270   30.6180   47.9350 C   0  0  0  0  0  0  0  0  0  0  0  0
   26.0420   31.5770   47.8280 C   0  0  0  0  0  0  0  0  0  0  0  0
   25.8580   32.2810   46.6780 N   0  0  0  0  0  0  0  0  0  0  0  0
   26.6590   32.0420   45.5980 C   0  0  0  0  0  3  0  0  0  0  0  0
   27.6190   31.1070   45.7010 N   0  0  0  0  0  0  0  0  0  0  0  0
   27.8160   30.4030   46.8270 C   0  0  0  0  0  0  0  0  0  0  0  0
   25.2290   31.7870   48.9910 N   0  0  0  0  0  0  0  0  0  0  0  0
   24.4760   32.4900   48.9740 H   0  0  0  0  0  0  0  0  0  0  0  0
   25.3980   31.2330   49.8440 H   0  0  0  0  0  0  0  0  0  0  0  0
   35.3940   30.0140   46.3450 C   0  0  0  0  0  0  0  0  0  0  0  0
   36.3760   30.3970   45.4420 C   0  0  0  0  0  3  0  0  0  0  0  0
   35.9790   30.6090   44.1310 C   0  0  0  0  0  3  0  0  0  0  0  0
   34.6860   30.4390   43.7910 N   0  0  0  0  0  0  0  0  0  0  0  0
   33.7240   30.0630   44.6830 C   0  0  0  0  0  0  0  0  0  0  0  0
   34.1140   29.8570   45.9680 N   0  0  0  0  0  0  0  0  0  0  0  0
   35.7030   29.7710   47.7280 N   0  0  0  0  0  0  0  0  0  0  0  0
   35.0730   28.8810   48.5460 C   0  0  0  0  0  3  0  0  0  0  0  0
   35.6700   28.9680   49.7530 N   0  0  0  0  0  0  0  0  0  0  0  0
   36.6400   29.8840   49.6760 C   0  0  0  0  0  0  0  0  0  0  0  0
   37.5710   30.4010   50.5580 C   0  0  0  0  0  0  0  0  0  0  0  0
   38.4640   31.3680   50.1720 N   0  0  0  0  0  0  0  0  0  0  0  0
   38.4450   31.8400   48.8910 C   0  0  0  0  0  3  0  0  0  0  0  0
   37.5470   31.3540   48.0090 N   0  0  0  0  0  0  0  0  0  0  0  0
   36.6740   30.4020   48.4070 C   0  0  0  0  0  0  0  0  0  0  0  0
   37.6170   29.9340   51.8800 N   0  0  0  0  0  0  0  0  0  0  0  0
   38.3090   30.3180   52.5390 H   0  0  0  0  0  0  0  0  0  0  0  0
   36.9570   29.2070   52.1920 H   0  0  0  0  0  0  0  0  0  0  0  0
  1 24  1  0  0  0  0
  1  2  1  0  0  0  0
  2  7  1  0  0  0  0
  3  2  2  0  0  0  0
  3  4  1  0  0  0  0
  4  5  2  0  0  0  0
  5  6  1  0  0  0  0
  6  8  1  0  0  0  0
  7  6  2  0  0  0  0
  8  9  1  0  0  0  0
  9 10  2  0  0  0  0
 11 10  1  0  0  0  0
 12 11  1  0  0  0  0
 12 17  1  0  0  0  0
 13 12  2  0  0  0  0
 14 15  2  0  0  0  0
 14 13  1  0  0  0  0
 15 16  1  0  0  0  0
 16  8  1  0  0  0  0
 16 11  2  0  0  0  0
 17 19  1  0  0  0  0
 18 17  1  0  0  0  0
 20 26  1  0  0  0  0
 21 20  2  0  0  0  0
 22 21  1  0  0  0  0
 23 22  2  0  0  0  0
 23 24  1  0  0  0  0
 24 25  2  0  0  0  0
 25 20  1  0  0  0  0
 26 34  1  0  0  0  0
 26 27  1  0  0  0  0
 27 28  2  0  0  0  0
 29 28  1  0  0  0  0
 29 30  1  0  0  0  0
 30 35  1  0  0  0  0
 31 30  2  0  0  0  0
 32 31  1  0  0  0  0
 33 34  1  0  0  0  0
 33 32  2  0  0  0  0
 34 29  2  0  0  0  0
 35 37  1  0  0  0  0
 35 36  1  0  0  0  0
M  END
>  <minimizedAffinity>
-7.54979134

$$$$
