
 OpenBabel03272514443D

 35 39  0  0  0  0  0  0  0  0999 V2000
   32.2530   26.7100   45.4050 C   0  0  0  0  0  3  0  0  0  0  0  0
   31.0410   27.3930   45.2910 C   0  0  0  0  0  3  0  0  0  0  0  0
   30.8690   28.5200   46.0970 C   0  0  0  0  0  0  0  0  0  0  0  0
   31.8870   28.8300   46.9000 N   0  0  0  0  0  0  0  0  0  0  0  0
   33.0530   28.1860   47.0210 C   0  0  0  0  0  0  0  0  0  0  0  0
   33.2070   27.1040   46.2410 N   0  0  0  0  0  0  0  0  0  0  0  0
   29.6680   29.2920   46.0600 N   0  0  0  0  0  0  0  0  0  0  0  0
   29.3560   30.0480   45.0250 C   0  0  0  0  0  3  0  0  0  0  0  0
   28.1630   30.6290   45.3310 C   0  0  0  0  0  0  0  0  0  0  0  0
   27.7700   30.2200   46.5430 N   0  0  0  0  0  0  0  0  0  0  0  0
   28.7220   29.3750   47.0040 C   0  0  0  0  0  0  0  0  0  0  0  0
   28.6940   28.7110   48.2630 N   0  0  0  0  0  0  0  0  0  0  0  0
   29.3450   27.5450   48.5460 C   0  0  0  0  0  3  0  0  0  0  0  0
   29.2250   27.0090   49.8310 C   0  0  0  0  0  3  0  0  0  0  0  0
   28.4640   27.6460   50.7910 C   0  0  0  0  0  0  0  0  0  0  0  0
   28.3610   27.0770   52.0900 N   0  0  0  0  0  0  0  0  0  0  0  0
   27.8350   28.8060   50.4560 N   0  0  0  0  0  0  0  0  0  0  0  0
   27.9490   29.3290   49.2130 C   0  0  0  0  0  0  0  0  0  0  0  0
   27.3250   30.4110   49.0010 O   0  0  0  0  0  0  0  0  0  0  0  0
   27.7960   27.5430   52.8130 H   0  0  0  0  0  0  0  0  0  0  0  0
   28.8520   26.1980   52.3080 H   0  0  0  0  0  0  0  0  0  0  0  0
   33.9400   28.7960   47.9920 C   0  0  0  0  0  0  0  0  0  0  0  0
   33.7420   28.6480   49.3450 C   0  0  0  0  0  3  0  0  0  0  0  0
   34.5520   29.2050   50.3110 C   0  0  0  0  0  3  0  0  0  0  0  0
   35.6430   29.9660   49.9440 C   0  0  0  0  0  3  0  0  0  0  0  0
   35.8750   30.1390   48.6110 C   0  0  0  0  0  0  0  0  0  0  0  0
   36.9710   30.9050   48.2380 C   0  0  0  0  0  3  0  0  0  0  0  0
   37.2800   31.1300   46.9310 C   0  0  0  0  0  3  0  0  0  0  0  0
   36.4380   30.5500   45.9780 C   0  0  0  0  0  3  0  0  0  0  0  0
   35.3550   29.7930   46.3880 C   0  0  0  0  0  3  0  0  0  0  0  0
   35.0410   29.5640   47.6830 C   0  0  0  0  0  0  0  0  0  0  0  0
   27.3480   31.5800   44.5190 C   0  0  0  0  0  0  0  0  0  0  0  0
   28.1250   32.4410   43.7640 F   0  0  0  0  0  0  0  0  0  0  0  0
   26.5470   32.3720   45.3380 F   0  0  0  0  0  0  0  0  0  0  0  0
   26.4360   30.8670   43.7220 F   0  0  0  0  0  0  0  0  0  0  0  0
  1  6  1  0  0  0  0
  2  1  2  0  0  0  0
  2  3  1  0  0  0  0
  3  4  2  0  0  0  0
  4  5  1  0  0  0  0
  5 22  1  0  0  0  0
  6  5  2  0  0  0  0
  7  3  1  0  0  0  0
  7 11  1  0  0  0  0
  8  9  2  0  0  0  0
  8  7  1  0  0  0  0
  9 10  1  0  0  0  0
 10 11  2  0  0  0  0
 11 12  1  0  0  0  0
 12 13  1  0  0  0  0
 12 18  1  0  0  0  0
 13 14  2  0  0  0  0
 14 15  1  0  0  0  0
 15 16  1  0  0  0  0
 16 21  1  0  0  0  0
 16 20  1  0  0  0  0
 17 15  2  0  0  0  0
 18 17  1  0  0  0  0
 19 18  2  0  0  0  0
 22 23  1  0  0  0  0
 23 24  2  0  0  0  0
 25 24  1  0  0  0  0
 26 25  2  0  0  0  0
 27 26  1  0  0  0  0
 28 27  2  0  0  0  0
 29 30  2  0  0  0  0
 29 28  1  0  0  0  0
 30 31  1  0  0  0  0
 31 22  2  0  0  0  0
 31 26  1  0  0  0  0
 32  9  1  0  0  0  0
 32 34  1  0  0  0  0
 33 32  1  0  0  0  0
 35 32  1  0  0  0  0
M  END
>  <minimizedAffinity>
-8.6090889

$$$$

 OpenBabel03272514443D

 35 39  0  0  0  0  0  0  0  0999 V2000
   39.1680   32.7080   46.1300 C   0  0  0  0  0  3  0  0  0  0  0  0
   38.8000   32.7430   44.7830 C   0  0  0  0  0  3  0  0  0  0  0  0
   37.6740   32.0050   44.4130 C   0  0  0  0  0  0  0  0  0  0  0  0
   37.0600   31.3380   45.3900 N   0  0  0  0  0  0  0  0  0  0  0  0
   37.4000   31.2940   46.6830 C   0  0  0  0  0  0  0  0  0  0  0  0
   38.4840   32.0060   47.0270 N   0  0  0  0  0  0  0  0  0  0  0  0
   37.2100   31.9710   43.0630 N   0  0  0  0  0  0  0  0  0  0  0  0
   36.6490   33.0190   42.4910 C   0  0  0  0  0  3  0  0  0  0  0  0
   36.3360   32.6320   41.2230 C   0  0  0  0  0  0  0  0  0  0  0  0
   36.7100   31.3600   41.0450 N   0  0  0  0  0  0  0  0  0  0  0  0
   37.2630   30.9420   42.2080 C   0  0  0  0  0  0  0  0  0  0  0  0
   37.7930   29.6430   42.4480 N   0  0  0  0  0  0  0  0  0  0  0  0
   38.7420   29.3480   43.3830 C   0  0  0  0  0  3  0  0  0  0  0  0
   39.1680   28.0210   43.5050 C   0  0  0  0  0  3  0  0  0  0  0  0
   38.6390   27.0350   42.6970 C   0  0  0  0  0  0  0  0  0  0  0  0
   39.0920   25.6950   42.8450 N   0  0  0  0  0  0  0  0  0  0  0  0
   37.6950   27.3840   41.7800 N   0  0  0  0  0  0  0  0  0  0  0  0
   37.2800   28.6660   41.6590 C   0  0  0  0  0  0  0  0  0  0  0  0
   36.3970   28.8880   40.7770 O   0  0  0  0  0  0  0  0  0  0  0  0
   38.7040   24.9520   42.2470 H   0  0  0  0  0  0  0  0  0  0  0  0
   39.8070   25.4680   43.5500 H   0  0  0  0  0  0  0  0  0  0  0  0
   36.5120   30.4670   47.4760 C   0  0  0  0  0  0  0  0  0  0  0  0
   35.4220   29.8380   46.9210 C   0  0  0  0  0  3  0  0  0  0  0  0
   34.5450   29.0430   47.6260 C   0  0  0  0  0  3  0  0  0  0  0  0
   34.7340   28.8340   48.9770 C   0  0  0  0  0  3  0  0  0  0  0  0
   35.8040   29.4400   49.5680 C   0  0  0  0  0  0  0  0  0  0  0  0
   35.9960   29.2330   50.9280 C   0  0  0  0  0  3  0  0  0  0  0  0
   37.0370   29.7970   51.5990 C   0  0  0  0  0  3  0  0  0  0  0  0
   37.9070   30.5980   50.8540 C   0  0  0  0  0  3  0  0  0  0  0  0
   37.6820   30.7800   49.5010 C   0  0  0  0  0  3  0  0  0  0  0  0
   36.6520   30.2250   48.8250 C   0  0  0  0  0  0  0  0  0  0  0  0
   35.6830   33.4200   40.1370 C   0  0  0  0  0  0  0  0  0  0  0  0
   36.4130   34.5390   39.7750 F   0  0  0  0  0  0  0  0  0  0  0  0
   34.4270   33.8700   40.5360 F   0  0  0  0  0  0  0  0  0  0  0  0
   35.4230   32.5890   39.0340 F   0  0  0  0  0  0  0  0  0  0  0  0
  1  6  1  0  0  0  0
  2  1  2  0  0  0  0
  3  2  1  0  0  0  0
  3  4  2  0  0  0  0
  4  5  1  0  0  0  0
  5  6  2  0  0  0  0
  5 22  1  0  0  0  0
  7  3  1  0  0  0  0
  8  7  1  0  0  0  0
  9  8  2  0  0  0  0
 10  9  1  0  0  0  0
 10 11  2  0  0  0  0
 11 12  1  0  0  0  0
 11  7  1  0  0  0  0
 12 13  1  0  0  0  0
 13 14  2  0  0  0  0
 15 16  1  0  0  0  0
 15 14  1  0  0  0  0
 16 21  1  0  0  0  0
 17 15  2  0  0  0  0
 18 17  1  0  0  0  0
 18 12  1  0  0  0  0
 19 18  2  0  0  0  0
 20 16  1  0  0  0  0
 22 31  1  0  0  0  0
 23 22  2  0  0  0  0
 23 24  1  0  0  0  0
 24 25  2  0  0  0  0
 25 26  1  0  0  0  0
 26 27  1  0  0  0  0
 27 28  2  0  0  0  0
 29 28  1  0  0  0  0
 30 29  2  0  0  0  0
 31 30  1  0  0  0  0
 31 26  2  0  0  0  0
 32 34  1  0  0  0  0
 32  9  1  0  0  0  0
 33 32  1  0  0  0  0
 35 32  1  0  0  0  0
M  END
>  <minimizedAffinity>
-8.19621181

$$$$

 OpenBabel03272514443D

 35 39  0  0  0  0  0  0  0  0999 V2000
   30.2180   26.4370   44.9880 C   0  0  0  0  0  3  0  0  0  0  0  0
   29.8780   26.9080   46.2570 C   0  0  0  0  0  3  0  0  0  0  0  0
   28.5210   27.1140   46.5160 C   0  0  0  0  0  0  0  0  0  0  0  0
   27.6840   26.8390   45.5160 N   0  0  0  0  0  0  0  0  0  0  0  0
   27.9940   26.3890   44.2950 C   0  0  0  0  0  0  0  0  0  0  0  0
   29.3010   26.1950   44.0590 N   0  0  0  0  0  0  0  0  0  0  0  0
   28.0630   27.5930   47.7810 N   0  0  0  0  0  0  0  0  0  0  0  0
   28.1040   26.8450   48.8660 C   0  0  0  0  0  3  0  0  0  0  0  0
   27.5960   27.6120   49.8700 C   0  0  0  0  0  0  0  0  0  0  0  0
   27.2550   28.8100   49.3810 N   0  0  0  0  0  0  0  0  0  0  0  0
   27.5500   28.7980   48.0600 C   0  0  0  0  0  0  0  0  0  0  0  0
   27.3430   29.8810   47.1600 N   0  0  0  0  0  0  0  0  0  0  0  0
   28.0350   30.0740   45.9990 C   0  0  0  0  0  3  0  0  0  0  0  0
   27.7200   31.1870   45.2130 C   0  0  0  0  0  3  0  0  0  0  0  0
   26.7330   32.0690   45.6050 C   0  0  0  0  0  0  0  0  0  0  0  0
   26.4350   33.1910   44.7850 N   0  0  0  0  0  0  0  0  0  0  0  0
   26.0740   31.8290   46.7720 N   0  0  0  0  0  0  0  0  0  0  0  0
   26.3750   30.7530   47.5350 C   0  0  0  0  0  0  0  0  0  0  0  0
   25.7050   30.6180   48.6030 O   0  0  0  0  0  0  0  0  0  0  0  0
   25.7010   33.8550   45.0670 H   0  0  0  0  0  0  0  0  0  0  0  0
   26.9540   33.3400   43.9070 H   0  0  0  0  0  0  0  0  0  0  0  0
   26.8320   26.1970   43.4490 C   0  0  0  0  0  0  0  0  0  0  0  0
   26.0970   27.2590   42.9770 C   0  0  0  0  0  3  0  0  0  0  0  0
   24.9860   27.1330   42.1720 C   0  0  0  0  0  3  0  0  0  0  0  0
   24.5460   25.8830   41.7890 C   0  0  0  0  0  3  0  0  0  0  0  0
   25.2470   24.8010   42.2360 C   0  0  0  0  0  0  0  0  0  0  0  0
   24.8080   23.5410   41.8540 C   0  0  0  0  0  3  0  0  0  0  0  0
   25.4450   22.4060   42.2520 C   0  0  0  0  0  3  0  0  0  0  0  0
   26.5680   22.5690   43.0670 C   0  0  0  0  0  3  0  0  0  0  0  0
   26.9760   23.8410   43.4270 C   0  0  0  0  0  3  0  0  0  0  0  0
   26.3500   24.9730   43.0370 C   0  0  0  0  0  0  0  0  0  0  0  0
   27.4070   27.2670   51.3100 C   0  0  0  0  0  0  0  0  0  0  0  0
   28.5160   27.5680   52.0820 F   0  0  0  0  0  0  0  0  0  0  0  0
   27.1650   25.9050   51.4670 F   0  0  0  0  0  0  0  0  0  0  0  0
   26.2460   27.8880   51.8020 F   0  0  0  0  0  0  0  0  0  0  0  0
  1  2  1  0  0  0  0
  2  3  2  0  0  0  0
  3  7  1  0  0  0  0
  4  3  1  0  0  0  0
  5  4  2  0  0  0  0
  6  5  1  0  0  0  0
  6  1  2  0  0  0  0
  7 11  1  0  0  0  0
  7  8  1  0  0  0  0
  8  9  2  0  0  0  0
  9 32  1  0  0  0  0
 10  9  1  0  0  0  0
 11 10  2  0  0  0  0
 12 18  1  0  0  0  0
 12 11  1  0  0  0  0
 13 12  1  0  0  0  0
 14 15  1  0  0  0  0
 14 13  2  0  0  0  0
 15 17  2  0  0  0  0
 16 20  1  0  0  0  0
 16 15  1  0  0  0  0
 17 18  1  0  0  0  0
 18 19  2  0  0  0  0
 21 16  1  0  0  0  0
 22  5  1  0  0  0  0
 23 22  2  0  0  0  0
 24 23  1  0  0  0  0
 25 24  2  0  0  0  0
 25 26  1  0  0  0  0
 26 31  1  0  0  0  0
 27 26  2  0  0  0  0
 27 28  1  0  0  0  0
 28 29  2  0  0  0  0
 29 30  1  0  0  0  0
 31 30  2  0  0  0  0
 31 22  1  0  0  0  0
 32 34  1  0  0  0  0
 32 35  1  0  0  0  0
 32 33  1  0  0  0  0
M  END
>  <minimizedAffinity>
-7.69184542

$$$$

 OpenBabel03272514443D

 35 39  0  0  0  0  0  0  0  0999 V2000
   34.2790   30.1230   43.6250 C   0  0  0  0  0  3  0  0  0  0  0  0
   33.0210   29.7070   44.0650 C   0  0  0  0  0  3  0  0  0  0  0  0
   32.8580   29.5200   45.4380 C   0  0  0  0  0  0  0  0  0  0  0  0
   33.9290   29.7580   46.1960 N   0  0  0  0  0  0  0  0  0  0  0  0
   35.1400   30.1560   45.7900 C   0  0  0  0  0  0  0  0  0  0  0  0
   35.2840   30.3330   44.4680 N   0  0  0  0  0  0  0  0  0  0  0  0
   31.6130   29.0950   45.9950 N   0  0  0  0  0  0  0  0  0  0  0  0
   30.5580   29.8870   46.0290 C   0  0  0  0  0  3  0  0  0  0  0  0
   29.5660   29.1640   46.6190 C   0  0  0  0  0  0  0  0  0  0  0  0
   30.0310   27.9490   46.9330 N   0  0  0  0  0  0  0  0  0  0  0  0
   31.3250   27.9060   46.5380 C   0  0  0  0  0  0  0  0  0  0  0  0
   32.1950   26.7890   46.6870 N   0  0  0  0  0  0  0  0  0  0  0  0
   33.2910   26.5440   45.9120 C   0  0  0  0  0  3  0  0  0  0  0  0
   34.0540   25.4020   46.1760 C   0  0  0  0  0  3  0  0  0  0  0  0
   33.7020   24.5420   47.1980 C   0  0  0  0  0  0  0  0  0  0  0  0
   34.4970   23.3890   47.4430 N   0  0  0  0  0  0  0  0  0  0  0  0
   32.5990   24.8340   47.9410 N   0  0  0  0  0  0  0  0  0  0  0  0
   31.8590   25.9380   47.6890 C   0  0  0  0  0  0  0  0  0  0  0  0
   30.8520   26.1200   48.4360 O   0  0  0  0  0  0  0  0  0  0  0  0
   34.2450   22.7420   48.2030 H   0  0  0  0  0  0  0  0  0  0  0  0
   35.3270   23.2020   46.8610 H   0  0  0  0  0  0  0  0  0  0  0  0
   36.0780   30.3220   46.8830 C   0  0  0  0  0  0  0  0  0  0  0  0
   37.3170   30.8870   46.6920 C   0  0  0  0  0  3  0  0  0  0  0  0
   38.2470   31.0680   47.6930 C   0  0  0  0  0  3  0  0  0  0  0  0
   37.9610   30.6720   48.9840 C   0  0  0  0  0  3  0  0  0  0  0  0
   36.7420   30.1050   49.2160 C   0  0  0  0  0  0  0  0  0  0  0  0
   36.4500   29.7040   50.5130 C   0  0  0  0  0  3  0  0  0  0  0  0
   35.2590   29.1310   50.8370 C   0  0  0  0  0  3  0  0  0  0  0  0
   34.3390   28.9630   49.7990 C   0  0  0  0  0  3  0  0  0  0  0  0
   34.6660   29.3750   48.5190 C   0  0  0  0  0  3  0  0  0  0  0  0
   35.8450   29.9450   48.1880 C   0  0  0  0  0  0  0  0  0  0  0  0
   28.1600   29.5680   46.9130 C   0  0  0  0  0  0  0  0  0  0  0  0
   27.2400   28.5940   46.5640 F   0  0  0  0  0  0  0  0  0  0  0  0
   27.8160   30.7180   46.2080 F   0  0  0  0  0  0  0  0  0  0  0  0
   28.0410   29.9360   48.2640 F   0  0  0  0  0  0  0  0  0  0  0  0
  1  2  2  0  0  0  0
  1  6  1  0  0  0  0
  2  3  1  0  0  0  0
  3  7  1  0  0  0  0
  3  4  2  0  0  0  0
  5  4  1  0  0  0  0
  5 22  1  0  0  0  0
  6  5  2  0  0  0  0
  7  8  1  0  0  0  0
  7 11  1  0  0  0  0
  8  9  2  0  0  0  0
  9 32  1  0  0  0  0
  9 10  1  0  0  0  0
 11 12  1  0  0  0  0
 11 10  2  0  0  0  0
 12 18  1  0  0  0  0
 13 14  2  0  0  0  0
 13 12  1  0  0  0  0
 14 15  1  0  0  0  0
 15 16  1  0  0  0  0
 15 17  2  0  0  0  0
 16 20  1  0  0  0  0
 18 17  1  0  0  0  0
 18 19  2  0  0  0  0
 21 16  1  0  0  0  0
 22 31  1  0  0  0  0
 23 22  2  0  0  0  0
 23 24  1  0  0  0  0
 24 25  2  0  0  0  0
 25 26  1  0  0  0  0
 26 27  1  0  0  0  0
 27 28  2  0  0  0  0
 29 28  1  0  0  0  0
 30 29  2  0  0  0  0
 31 30  1  0  0  0  0
 31 26  2  0  0  0  0
 32 35  1  0  0  0  0
 33 32  1  0  0  0  0
 34 32  1  0  0  0  0
M  END
>  <minimizedAffinity>
-7.62424517

$$$$

 OpenBabel03272514443D

 35 39  0  0  0  0  0  0  0  0999 V2000
   34.9510   30.2970   44.3340 C   0  0  0  0  0  3  0  0  0  0  0  0
   33.5690   30.2820   44.1390 C   0  0  0  0  0  3  0  0  0  0  0  0
   32.7700   30.1030   45.2700 C   0  0  0  0  0  0  0  0  0  0  0  0
   33.4140   29.9630   46.4290 N   0  0  0  0  0  0  0  0  0  0  0  0
   34.7360   29.9740   46.6310 C   0  0  0  0  0  0  0  0  0  0  0  0
   35.4930   30.1470   45.5370 N   0  0  0  0  0  0  0  0  0  0  0  0
   31.3450   30.0710   45.1840 N   0  0  0  0  0  0  0  0  0  0  0  0
   30.6380   31.1530   44.9180 C   0  0  0  0  0  3  0  0  0  0  0  0
   29.3350   30.7570   44.9140 C   0  0  0  0  0  0  0  0  0  0  0  0
   29.2690   29.4470   45.1760 N   0  0  0  0  0  0  0  0  0  0  0  0
   30.5410   29.0130   45.3470 C   0  0  0  0  0  0  0  0  0  0  0  0
   30.9210   27.6740   45.6440 N   0  0  0  0  0  0  0  0  0  0  0  0
   32.1380   27.1260   45.3580 C   0  0  0  0  0  3  0  0  0  0  0  0
   32.3690   25.7930   45.7100 C   0  0  0  0  0  3  0  0  0  0  0  0
   31.3860   25.0490   46.3320 C   0  0  0  0  0  0  0  0  0  0  0  0
   31.6500   23.6960   46.6790 N   0  0  0  0  0  0  0  0  0  0  0  0
   30.1900   25.6450   46.5950 N   0  0  0  0  0  0  0  0  0  0  0  0
   29.9630   26.9350   46.2560 C   0  0  0  0  0  0  0  0  0  0  0  0
   28.8180   27.3960   46.5420 O   0  0  0  0  0  0  0  0  0  0  0  0
   30.9250   23.1320   47.1440 H   0  0  0  0  0  0  0  0  0  0  0  0
   32.5680   23.2800   46.4660 H   0  0  0  0  0  0  0  0  0  0  0  0
   35.0980   29.7930   48.0240 C   0  0  0  0  0  0  0  0  0  0  0  0
   34.3660   28.9860   48.8620 C   0  0  0  0  0  3  0  0  0  0  0  0
   34.6640   28.7790   50.1920 C   0  0  0  0  0  3  0  0  0  0  0  0
   35.7570   29.3990   50.7610 C   0  0  0  0  0  3  0  0  0  0  0  0
   36.5110   30.2100   49.9630 C   0  0  0  0  0  0  0  0  0  0  0  0
   37.6120   30.8370   50.5320 C   0  0  0  0  0  3  0  0  0  0  0  0
   38.4200   31.6620   49.8120 C   0  0  0  0  0  3  0  0  0  0  0  0
   38.0890   31.8500   48.4670 C   0  0  0  0  0  3  0  0  0  0  0  0
   36.9850   31.2080   47.9360 C   0  0  0  0  0  3  0  0  0  0  0  0
   36.1770   30.3870   48.6420 C   0  0  0  0  0  0  0  0  0  0  0  0
   28.1080   31.5720   44.6690 C   0  0  0  0  0  0  0  0  0  0  0  0
   27.6980   32.2710   45.7910 F   0  0  0  0  0  0  0  0  0  0  0  0
   27.0420   30.7630   44.2870 F   0  0  0  0  0  0  0  0  0  0  0  0
   28.3130   32.4250   43.5710 F   0  0  0  0  0  0  0  0  0  0  0  0
  1  6  1  0  0  0  0
  2  1  2  0  0  0  0
  2  3  1  0  0  0  0
  3  4  2  0  0  0  0
  4  5  1  0  0  0  0
  5 22  1  0  0  0  0
  6  5  2  0  0  0  0
  7  3  1  0  0  0  0
  7 11  1  0  0  0  0
  8  7  1  0  0  0  0
  9  8  2  0  0  0  0
  9 10  1  0  0  0  0
 10 11  2  0  0  0  0
 11 12  1  0  0  0  0
 12 18  1  0  0  0  0
 13 12  1  0  0  0  0
 13 14  2  0  0  0  0
 14 15  1  0  0  0  0
 15 17  2  0  0  0  0
 15 16  1  0  0  0  0
 16 20  1  0  0  0  0
 18 19  2  0  0  0  0
 18 17  1  0  0  0  0
 21 16  1  0  0  0  0
 22 31  2  0  0  0  0
 22 23  1  0  0  0  0
 23 24  2  0  0  0  0
 24 25  1  0  0  0  0
 26 27  1  0  0  0  0
 26 25  2  0  0  0  0
 28 27  2  0  0  0  0
 29 28  1  0  0  0  0
 30 29  2  0  0  0  0
 30 31  1  0  0  0  0
 31 26  1  0  0  0  0
 32  9  1  0  0  0  0
 32 33  1  0  0  0  0
 34 32  1  0  0  0  0
 35 32  1  0  0  0  0
M  END
>  <minimizedAffinity>
-7.53775311

$$$$

 OpenBabel03272514443D

 35 39  0  0  0  0  0  0  0  0999 V2000
   32.4540   24.5060   47.4580 C   0  0  0  0  0  3  0  0  0  0  0  0
   31.1750   24.6230   46.9120 C   0  0  0  0  0  3  0  0  0  0  0  0
   30.8520   25.8390   46.3070 C   0  0  0  0  0  0  0  0  0  0  0  0
   31.8040   26.7710   46.3140 N   0  0  0  0  0  0  0  0  0  0  0  0
   33.0330   26.6750   46.8330 C   0  0  0  0  0  0  0  0  0  0  0  0
   33.3320   25.5010   47.4120 N   0  0  0  0  0  0  0  0  0  0  0  0
   29.5710   26.0670   45.7170 N   0  0  0  0  0  0  0  0  0  0  0  0
   29.2020   25.4710   44.6000 C   0  0  0  0  0  3  0  0  0  0  0  0
   27.9420   25.9150   44.3360 C   0  0  0  0  0  0  0  0  0  0  0  0
   27.5660   26.7710   45.2930 N   0  0  0  0  0  0  0  0  0  0  0  0
   28.5960   26.8670   46.1660 C   0  0  0  0  0  0  0  0  0  0  0  0
   28.6100   27.6760   47.3370 N   0  0  0  0  0  0  0  0  0  0  0  0
   29.3840   27.4440   48.4380 C   0  0  0  0  0  3  0  0  0  0  0  0
   29.2920   28.3290   49.5170 C   0  0  0  0  0  3  0  0  0  0  0  0
   28.4360   29.4110   49.4680 C   0  0  0  0  0  0  0  0  0  0  0  0
   28.3640   30.2930   50.5810 N   0  0  0  0  0  0  0  0  0  0  0  0
   27.6870   29.5960   48.3460 N   0  0  0  0  0  0  0  0  0  0  0  0
   27.7730   28.7430   47.3000 C   0  0  0  0  0  0  0  0  0  0  0  0
   27.0350   29.0020   46.3030 O   0  0  0  0  0  0  0  0  0  0  0  0
   27.7290   31.1040   50.5550 H   0  0  0  0  0  0  0  0  0  0  0  0
   28.9480   30.1220   51.4120 H   0  0  0  0  0  0  0  0  0  0  0  0
   33.8170   27.8830   46.6660 C   0  0  0  0  0  0  0  0  0  0  0  0
   34.0370   28.4360   45.4260 C   0  0  0  0  0  3  0  0  0  0  0  0
   34.7730   29.5800   45.2090 C   0  0  0  0  0  3  0  0  0  0  0  0
   35.3440   30.2480   46.2730 C   0  0  0  0  0  3  0  0  0  0  0  0
   35.1510   29.7320   47.5220 C   0  0  0  0  0  0  0  0  0  0  0  0
   35.7250   30.4000   48.5950 C   0  0  0  0  0  3  0  0  0  0  0  0
   35.5840   29.9590   49.8750 C   0  0  0  0  0  3  0  0  0  0  0  0
   34.8310   28.7950   50.0590 C   0  0  0  0  0  3  0  0  0  0  0  0
   34.2750   28.1570   48.9650 C   0  0  0  0  0  3  0  0  0  0  0  0
   34.4090   28.5880   47.6910 C   0  0  0  0  0  0  0  0  0  0  0  0
   27.0450   25.5670   43.1950 C   0  0  0  0  0  0  0  0  0  0  0  0
   27.6370   25.7860   41.9630 F   0  0  0  0  0  0  0  0  0  0  0  0
   25.8830   26.3340   43.2250 F   0  0  0  0  0  0  0  0  0  0  0  0
   26.5940   24.2430   43.3280 F   0  0  0  0  0  0  0  0  0  0  0  0
  2  1  2  0  0  0  0
  3  4  2  0  0  0  0
  3  2  1  0  0  0  0
  4  5  1  0  0  0  0
  5  6  2  0  0  0  0
  6  1  1  0  0  0  0
  7 11  1  0  0  0  0
  7  3  1  0  0  0  0
  8  7  1  0  0  0  0
  9  8  2  0  0  0  0
  9 10  1  0  0  0  0
 10 11  2  0  0  0  0
 11 12  1  0  0  0  0
 12 13  1  0  0  0  0
 13 14  2  0  0  0  0
 15 14  1  0  0  0  0
 15 16  1  0  0  0  0
 16 21  1  0  0  0  0
 17 15  2  0  0  0  0
 18 12  1  0  0  0  0
 18 17  1  0  0  0  0
 19 18  2  0  0  0  0
 20 16  1  0  0  0  0
 22  5  1  0  0  0  0
 22 31  1  0  0  0  0
 23 22  2  0  0  0  0
 24 23  1  0  0  0  0
 24 25  2  0  0  0  0
 25 26  1  0  0  0  0
 26 31  2  0  0  0  0
 26 27  1  0  0  0  0
 27 28  2  0  0  0  0
 28 29  1  0  0  0  0
 30 29  2  0  0  0  0
 31 30  1  0  0  0  0
 32 34  1  0  0  0  0
 32 35  1  0  0  0  0
 32  9  1  0  0  0  0
 33 32  1  0  0  0  0
M  END
>  <minimizedAffinity>
-7.37475824

$$$$

 OpenBabel03272514443D

 35 39  0  0  0  0  0  0  0  0999 V2000
   33.3430   28.1280   44.5890 C   0  0  0  0  0  3  0  0  0  0  0  0
   34.2640   28.2660   45.6290 C   0  0  0  0  0  3  0  0  0  0  0  0
   34.4670   29.5520   46.1320 C   0  0  0  0  0  0  0  0  0  0  0  0
   33.7560   30.5250   45.5630 N   0  0  0  0  0  0  0  0  0  0  0  0
   32.8720   30.4100   44.5660 C   0  0  0  0  0  0  0  0  0  0  0  0
   32.6850   29.1690   44.0910 N   0  0  0  0  0  0  0  0  0  0  0  0
   35.3870   29.8060   47.1950 N   0  0  0  0  0  0  0  0  0  0  0  0
   35.1480   29.4150   48.4320 C   0  0  0  0  0  3  0  0  0  0  0  0
   36.2210   29.8190   49.1670 C   0  0  0  0  0  0  0  0  0  0  0  0
   37.0920   30.4470   48.3690 N   0  0  0  0  0  0  0  0  0  0  0  0
   36.5650   30.4380   47.1220 C   0  0  0  0  0  0  0  0  0  0  0  0
   37.1730   31.0040   45.9660 N   0  0  0  0  0  0  0  0  0  0  0  0
   36.9250   30.6150   44.6820 C   0  0  0  0  0  3  0  0  0  0  0  0
   37.6000   31.2650   43.6440 C   0  0  0  0  0  3  0  0  0  0  0  0
   38.4970   32.2780   43.9160 C   0  0  0  0  0  0  0  0  0  0  0  0
   39.1680   32.9220   42.8400 N   0  0  0  0  0  0  0  0  0  0  0  0
   38.7080   32.6280   45.2150 N   0  0  0  0  0  0  0  0  0  0  0  0
   38.0570   32.0010   46.2210 C   0  0  0  0  0  0  0  0  0  0  0  0
   38.3230   32.4000   47.3950 O   0  0  0  0  0  0  0  0  0  0  0  0
   39.8400   33.6790   43.0310 H   0  0  0  0  0  0  0  0  0  0  0  0
   38.9820   32.6310   41.8690 H   0  0  0  0  0  0  0  0  0  0  0  0
   32.2760   31.6760   44.1860 C   0  0  0  0  0  0  0  0  0  0  0  0
   31.0680   32.0890   44.6980 C   0  0  0  0  0  3  0  0  0  0  0  0
   30.4570   33.2800   44.3720 C   0  0  0  0  0  3  0  0  0  0  0  0
   31.0580   34.1460   43.4810 C   0  0  0  0  0  3  0  0  0  0  0  0
   32.2580   33.7740   42.9490 C   0  0  0  0  0  0  0  0  0  0  0  0
   32.8660   34.6420   42.0510 C   0  0  0  0  0  3  0  0  0  0  0  0
   34.0630   34.3540   41.4730 C   0  0  0  0  0  3  0  0  0  0  0  0
   34.6550   33.1380   41.8260 C   0  0  0  0  0  3  0  0  0  0  0  0
   34.0200   32.2990   42.7230 C   0  0  0  0  0  3  0  0  0  0  0  0
   32.8310   32.5770   43.3030 C   0  0  0  0  0  0  0  0  0  0  0  0
   36.4780   29.6410   50.6260 C   0  0  0  0  0  0  0  0  0  0  0  0
   35.3420   29.2790   51.3290 F   0  0  0  0  0  0  0  0  0  0  0  0
   36.9450   30.8230   51.1960 F   0  0  0  0  0  0  0  0  0  0  0  0
   37.5240   28.7230   50.8180 F   0  0  0  0  0  0  0  0  0  0  0  0
  1  2  1  0  0  0  0
  2  3  2  0  0  0  0
  3  7  1  0  0  0  0
  4  3  1  0  0  0  0
  5  4  2  0  0  0  0
  6  5  1  0  0  0  0
  6  1  2  0  0  0  0
  7  8  1  0  0  0  0
  8  9  2  0  0  0  0
  9 32  1  0  0  0  0
 10  9  1  0  0  0  0
 11  7  1  0  0  0  0
 11 10  2  0  0  0  0
 12 18  1  0  0  0  0
 12 11  1  0  0  0  0
 13 12  1  0  0  0  0
 14 15  1  0  0  0  0
 14 13  2  0  0  0  0
 15 17  2  0  0  0  0
 16 20  1  0  0  0  0
 16 15  1  0  0  0  0
 17 18  1  0  0  0  0
 18 19  2  0  0  0  0
 21 16  1  0  0  0  0
 22  5  1  0  0  0  0
 22 23  1  0  0  0  0
 24 23  2  0  0  0  0
 25 24  1  0  0  0  0
 26 31  1  0  0  0  0
 26 25  2  0  0  0  0
 27 26  1  0  0  0  0
 28 29  1  0  0  0  0
 28 27  2  0  0  0  0
 29 30  2  0  0  0  0
 30 31  1  0  0  0  0
 31 22  2  0  0  0  0
 32 35  1  0  0  0  0
 32 34  1  0  0  0  0
 32 33  1  0  0  0  0
M  END
>  <minimizedAffinity>
-7.35375786

$$$$

 OpenBabel03272514443D

 35 39  0  0  0  0  0  0  0  0999 V2000
   31.7500   26.9560   46.0590 C   0  0  0  0  0  3  0  0  0  0  0  0
   31.6100   28.1250   45.3090 C   0  0  0  0  0  3  0  0  0  0  0  0
   30.6810   29.0640   45.7620 C   0  0  0  0  0  0  0  0  0  0  0  0
   30.0180   28.7460   46.8730 N   0  0  0  0  0  0  0  0  0  0  0  0
   30.1400   27.6310   47.6030 C   0  0  0  0  0  0  0  0  0  0  0  0
   31.0360   26.7370   47.1580 N   0  0  0  0  0  0  0  0  0  0  0  0
   30.4580   30.2920   45.0700 N   0  0  0  0  0  0  0  0  0  0  0  0
   31.3550   31.2600   45.0580 C   0  0  0  0  0  3  0  0  0  0  0  0
   30.8140   32.2640   44.3140 C   0  0  0  0  0  0  0  0  0  0  0  0
   29.6020   31.8940   43.8860 N   0  0  0  0  0  0  0  0  0  0  0  0
   29.3770   30.6470   44.3630 C   0  0  0  0  0  0  0  0  0  0  0  0
   28.2000   29.8790   44.1390 N   0  0  0  0  0  0  0  0  0  0  0  0
   28.1350   28.5170   44.1860 C   0  0  0  0  0  3  0  0  0  0  0  0
   26.9040   27.8980   43.9440 C   0  0  0  0  0  3  0  0  0  0  0  0
   25.7820   28.6520   43.6630 C   0  0  0  0  0  0  0  0  0  0  0  0
   24.5440   27.9950   43.4220 N   0  0  0  0  0  0  0  0  0  0  0  0
   25.9010   30.0080   43.6290 N   0  0  0  0  0  0  0  0  0  0  0  0
   27.0900   30.6100   43.8630 C   0  0  0  0  0  0  0  0  0  0  0  0
   27.0980   31.8760   43.8070 O   0  0  0  0  0  0  0  0  0  0  0  0
   23.7000   28.5470   43.2120 H   0  0  0  0  0  0  0  0  0  0  0  0
   24.4910   26.9670   43.4580 H   0  0  0  0  0  0  0  0  0  0  0  0
   29.2620   27.6090   48.7570 C   0  0  0  0  0  0  0  0  0  0  0  0
   29.6760   27.1140   49.9710 C   0  0  0  0  0  3  0  0  0  0  0  0
   28.8850   27.0680   51.0980 C   0  0  0  0  0  3  0  0  0  0  0  0
   27.5880   27.5380   51.0530 C   0  0  0  0  0  3  0  0  0  0  0  0
   27.1370   28.0370   49.8660 C   0  0  0  0  0  0  0  0  0  0  0  0
   25.8320   28.5100   49.8150 C   0  0  0  0  0  3  0  0  0  0  0  0
   25.2980   29.0260   48.6750 C   0  0  0  0  0  3  0  0  0  0  0  0
   26.1290   29.0570   47.5510 C   0  0  0  0  0  3  0  0  0  0  0  0
   27.4230   28.5770   47.6390 C   0  0  0  0  0  3  0  0  0  0  0  0
   27.9620   28.0640   48.7670 C   0  0  0  0  0  0  0  0  0  0  0  0
   31.3950   33.5960   43.9740 C   0  0  0  0  0  0  0  0  0  0  0  0
   30.4920   34.4250   43.3310 F   0  0  0  0  0  0  0  0  0  0  0  0
   32.4900   33.4590   43.1250 F   0  0  0  0  0  0  0  0  0  0  0  0
   31.9210   34.1970   45.1300 F   0  0  0  0  0  0  0  0  0  0  0  0
  1  6  1  0  0  0  0
  2  3  1  0  0  0  0
  2  1  2  0  0  0  0
  3  4  2  0  0  0  0
  4  5  1  0  0  0  0
  5 22  1  0  0  0  0
  6  5  2  0  0  0  0
  7  3  1  0  0  0  0
  8  7  1  0  0  0  0
  9  8  2  0  0  0  0
 10  9  1  0  0  0  0
 10 11  2  0  0  0  0
 11  7  1  0  0  0  0
 12 13  1  0  0  0  0
 12 11  1  0  0  0  0
 14 13  2  0  0  0  0
 15 14  1  0  0  0  0
 16 21  1  0  0  0  0
 16 15  1  0  0  0  0
 17 15  2  0  0  0  0
 17 18  1  0  0  0  0
 18 12  1  0  0  0  0
 19 18  2  0  0  0  0
 20 16  1  0  0  0  0
 22 31  2  0  0  0  0
 22 23  1  0  0  0  0
 23 24  2  0  0  0  0
 25 24  1  0  0  0  0
 26 25  2  0  0  0  0
 27 26  1  0  0  0  0
 28 27  2  0  0  0  0
 29 30  2  0  0  0  0
 29 28  1  0  0  0  0
 30 31  1  0  0  0  0
 31 26  1  0  0  0  0
 32  9  1  0  0  0  0
 32 35  1  0  0  0  0
 33 32  1  0  0  0  0
 34 32  1  0  0  0  0
M  END
>  <minimizedAffinity>
-7.26860237

$$$$

 OpenBabel03272514443D

 35 39  0  0  0  0  0  0  0  0999 V2000
   28.8600   26.3990   45.6090 C   0  0  0  0  0  3  0  0  0  0  0  0
   30.0800   27.0760   45.5730 C   0  0  0  0  0  3  0  0  0  0  0  0
   30.1560   28.2850   46.2680 C   0  0  0  0  0  0  0  0  0  0  0  0
   29.0480   28.6720   46.8990 N   0  0  0  0  0  0  0  0  0  0  0  0
   27.8720   28.0350   46.9420 C   0  0  0  0  0  0  0  0  0  0  0  0
   27.8110   26.8740   46.2710 N   0  0  0  0  0  0  0  0  0  0  0  0
   31.3560   29.0600   46.2970 N   0  0  0  0  0  0  0  0  0  0  0  0
   32.4240   28.6670   46.9650 C   0  0  0  0  0  3  0  0  0  0  0  0
   33.3630   29.6350   46.7720 C   0  0  0  0  0  0  0  0  0  0  0  0
   32.8540   30.5960   45.9940 N   0  0  0  0  0  0  0  0  0  0  0  0
   31.5850   30.2330   45.6930 C   0  0  0  0  0  0  0  0  0  0  0  0
   30.6840   30.9800   44.8830 N   0  0  0  0  0  0  0  0  0  0  0  0
   29.6310   30.4510   44.1940 C   0  0  0  0  0  3  0  0  0  0  0  0
   28.8290   31.3110   43.4370 C   0  0  0  0  0  3  0  0  0  0  0  0
   29.1000   32.6640   43.3880 C   0  0  0  0  0  0  0  0  0  0  0  0
   28.2670   33.5140   42.6110 N   0  0  0  0  0  0  0  0  0  0  0  0
   30.1620   33.1400   44.0950 N   0  0  0  0  0  0  0  0  0  0  0  0
   30.9400   32.3110   44.8290 C   0  0  0  0  0  0  0  0  0  0  0  0
   31.9050   32.8500   45.4490 O   0  0  0  0  0  0  0  0  0  0  0  0
   28.4590   34.5250   42.5670 H   0  0  0  0  0  0  0  0  0  0  0  0
   27.4700   33.1180   42.0900 H   0  0  0  0  0  0  0  0  0  0  0  0
   26.8730   28.7390   47.7220 C   0  0  0  0  0  0  0  0  0  0  0  0
   26.1930   28.1260   48.7480 C   0  0  0  0  0  3  0  0  0  0  0  0
   25.2350   28.7470   49.5200 C   0  0  0  0  0  3  0  0  0  0  0  0
   24.9050   30.0660   49.2860 C   0  0  0  0  0  3  0  0  0  0  0  0
   25.5570   30.7120   48.2770 C   0  0  0  0  0  0  0  0  0  0  0  0
   25.2280   32.0390   48.0380 C   0  0  0  0  0  3  0  0  0  0  0  0
   25.8270   32.7620   47.0520 C   0  0  0  0  0  3  0  0  0  0  0  0
   26.7940   32.1020   46.2880 C   0  0  0  0  0  3  0  0  0  0  0  0
   27.0950   30.7790   46.5560 C   0  0  0  0  0  3  0  0  0  0  0  0
   26.5060   30.0540   47.5320 C   0  0  0  0  0  0  0  0  0  0  0  0
   34.7570   29.7050   47.2990 C   0  0  0  0  0  0  0  0  0  0  0  0
   34.9700   30.8100   48.1050 F   0  0  0  0  0  0  0  0  0  0  0  0
   35.6790   29.7830   46.2580 F   0  0  0  0  0  0  0  0  0  0  0  0
   35.0790   28.5080   47.9620 F   0  0  0  0  0  0  0  0  0  0  0  0
  1  6  1  0  0  0  0
  2  1  2  0  0  0  0
  2  3  1  0  0  0  0
  3  7  1  0  0  0  0
  3  4  2  0  0  0  0
  4  5  1  0  0  0  0
  5 22  1  0  0  0  0
  6  5  2  0  0  0  0
  7  8  1  0  0  0  0
  9  8  2  0  0  0  0
  9 32  1  0  0  0  0
 10  9  1  0  0  0  0
 11 10  2  0  0  0  0
 11  7  1  0  0  0  0
 12 11  1  0  0  0  0
 13 12  1  0  0  0  0
 14 13  2  0  0  0  0
 15 14  1  0  0  0  0
 15 17  2  0  0  0  0
 16 15  1  0  0  0  0
 17 18  1  0  0  0  0
 18 12  1  0  0  0  0
 18 19  2  0  0  0  0
 20 16  1  0  0  0  0
 21 16  1  0  0  0  0
 22 23  1  0  0  0  0
 23 24  2  0  0  0  0
 25 24  1  0  0  0  0
 26 25  2  0  0  0  0
 27 26  1  0  0  0  0
 28 27  2  0  0  0  0
 29 30  2  0  0  0  0
 29 28  1  0  0  0  0
 30 31  1  0  0  0  0
 31 22  2  0  0  0  0
 31 26  1  0  0  0  0
 32 35  1  0  0  0  0
 32 33  1  0  0  0  0
 34 32  1  0  0  0  0
M  END
>  <minimizedAffinity>
-7.26791859

$$$$
