
 OpenBabel03272514363D

 29 34  0  0  1  0  0  0  0  0999 V2000
   30.0590   28.1290   47.0600 C   0  0  0  0  0  0  0  0  0  0  0  0
   29.8290   26.9660   47.7860 C   0  0  0  0  0  3  0  0  0  0  0  0
   30.9630   26.3890   48.4090 C   0  0  0  0  0  3  0  0  0  0  0  0
   32.1580   26.9690   48.2780 N   0  0  0  0  0  0  0  0  0  0  0  0
   32.3460   28.0830   47.5770 C   0  0  0  0  0  0  0  0  0  0  0  0
   31.2980   28.6540   46.9730 N   0  0  0  0  0  0  0  0  0  0  0  0
   33.5840   28.8490   47.3300 C   0  0  0  0  0  0  0  0  0  0  0  0
   33.9760   29.2810   46.0570 C   0  0  0  0  0  3  0  0  0  0  0  0
   35.1170   29.9910   45.8140 C   0  0  0  0  0  3  0  0  0  0  0  0
   35.9630   30.3250   46.8430 C   0  0  0  0  0  3  0  0  0  0  0  0
   35.6320   29.9290   48.1180 C   0  0  0  0  0  0  0  0  0  0  0  0
   36.5020   30.2800   49.1280 C   0  0  0  0  0  3  0  0  0  0  0  0
   36.2370   29.9160   50.4300 C   0  0  0  0  0  3  0  0  0  0  0  0
   35.0700   29.1930   50.6620 C   0  0  0  0  0  3  0  0  0  0  0  0
   34.2420   28.8740   49.6090 C   0  0  0  0  0  3  0  0  0  0  0  0
   34.4730   29.2180   48.3050 C   0  0  0  0  0  0  0  0  0  0  0  0
   28.9550   28.8100   46.3860 C   0  0  0  0  0  0  0  0  0  0  0  0
   28.7830   28.8620   45.0140 C   0  0  0  0  0  3  0  0  0  0  0  0
   27.6340   29.5960   44.8550 N   0  0  0  0  0  0  0  0  0  0  0  0
   27.2000   29.9280   46.0820 C   0  0  0  0  0  3  0  0  0  0  0  0
   27.9890   29.4600   47.0510 N   0  0  0  0  0  0  0  0  0  0  0  0
   27.8620   29.6040   48.4590 C   0  0  1  0  0  3  0  0  0  0  0  0
   27.1700   30.8500   48.8520 C   0  0  0  0  0  2  0  0  0  0  0  0
   25.7010   30.4740   48.7930 C   0  0  0  0  0  2  0  0  0  0  0  0
   25.6850   29.1150   49.3970 C   0  0  0  0  0  2  0  0  0  0  0  0
   27.0190   28.5140   49.0790 C   0  0  2  0  0  3  0  0  0  0  0  0
   27.7310   28.0440   50.3410 C   0  0  0  0  0  3  0  0  0  0  0  0
   27.6030   26.5340   50.5530 C   0  0  0  0  0  2  0  0  0  0  0  0
   27.0090   27.5200   51.5070 C   0  0  0  0  0  2  0  0  0  0  0  0
  1  2  1  0  0  0  0
  2  3  2  0  0  0  0
  4  3  1  0  0  0  0
  5  4  2  0  0  0  0
  6  1  2  0  0  0  0
  6  5  1  0  0  0  0
  7  5  1  0  0  0  0
  7 16  1  0  0  0  0
  8  7  2  0  0  0  0
  9  8  1  0  0  0  0
  9 10  2  0  0  0  0
 10 11  1  0  0  0  0
 11 16  2  0  0  0  0
 11 12  1  0  0  0  0
 12 13  2  0  0  0  0
 13 14  1  0  0  0  0
 15 14  2  0  0  0  0
 16 15  1  0  0  0  0
 17 21  1  0  0  0  0
 17  1  1  0  0  0  0
 18 17  2  0  0  0  0
 19 18  1  0  0  0  0
 19 20  2  0  0  0  0
 20 21  1  0  0  0  0
 22 21  1  6  0  0  0
 22 23  1  0  0  0  0
 22 26  1  0  0  0  0
 24 23  1  0  0  0  0
 24 25  1  0  0  0  0
 26 25  1  0  0  0  0
 26 27  1  1  0  0  0
 27 28  1  0  0  0  0
 27 29  1  0  0  0  0
 28 29  1  0  0  0  0
M  END
>  <minimizedAffinity>
-7.59065056

$$$$

 OpenBabel03272514363D

 29 34  0  0  1  0  0  0  0  0999 V2000
   30.5400   28.0390   46.9870 C   0  0  0  0  0  0  0  0  0  0  0  0
   30.3430   26.6640   46.9150 C   0  0  0  0  0  3  0  0  0  0  0  0
   31.4050   25.8580   47.3920 C   0  0  0  0  0  3  0  0  0  0  0  0
   32.5090   26.4330   47.8750 N   0  0  0  0  0  0  0  0  0  0  0  0
   32.6680   27.7520   47.9330 C   0  0  0  0  0  0  0  0  0  0  0  0
   31.6860   28.5440   47.4880 N   0  0  0  0  0  0  0  0  0  0  0  0
   33.8080   28.5480   48.4300 C   0  0  0  0  0  0  0  0  0  0  0  0
   34.1030   28.6970   49.7900 C   0  0  0  0  0  3  0  0  0  0  0  0
   35.1530   29.4290   50.2650 C   0  0  0  0  0  3  0  0  0  0  0  0
   35.9990   30.0760   49.3970 C   0  0  0  0  0  3  0  0  0  0  0  0
   35.7620   29.9680   48.0470 C   0  0  0  0  0  0  0  0  0  0  0  0
   36.6290   30.6290   47.2040 C   0  0  0  0  0  3  0  0  0  0  0  0
   36.4520   30.5680   45.8390 C   0  0  0  0  0  3  0  0  0  0  0  0
   35.3770   29.8170   45.3720 C   0  0  0  0  0  3  0  0  0  0  0  0
   34.5470   29.1800   46.2660 C   0  0  0  0  0  3  0  0  0  0  0  0
   34.6920   29.2190   47.6260 C   0  0  0  0  0  0  0  0  0  0  0  0
   29.5020   28.9600   46.5310 C   0  0  0  0  0  0  0  0  0  0  0  0
   29.4520   29.5260   45.2690 C   0  0  0  0  0  3  0  0  0  0  0  0
   28.3230   30.3060   45.3040 N   0  0  0  0  0  0  0  0  0  0  0  0
   27.7830   30.1720   46.5260 C   0  0  0  0  0  3  0  0  0  0  0  0
   28.4820   29.3490   47.3100 N   0  0  0  0  0  0  0  0  0  0  0  0
   28.2320   28.9620   48.6540 C   0  0  1  0  0  3  0  0  0  0  0  0
   27.5760   30.0220   49.4480 C   0  0  0  0  0  2  0  0  0  0  0  0
   26.1000   29.8250   49.1520 C   0  0  0  0  0  2  0  0  0  0  0  0
   25.9530   28.3460   49.1880 C   0  0  0  0  0  2  0  0  0  0  0  0
   27.2750   27.7960   48.7530 C   0  0  2  0  0  3  0  0  0  0  0  0
   27.8390   26.8250   49.7820 C   0  0  0  0  0  3  0  0  0  0  0  0
   27.4530   27.2040   51.2130 C   0  0  0  0  0  2  0  0  0  0  0  0
   28.8740   27.2110   50.7490 C   0  0  0  0  0  2  0  0  0  0  0  0
  1  6  1  0  0  0  0
  2  1  2  0  0  0  0
  2  3  1  0  0  0  0
  3  4  2  0  0  0  0
  4  5  1  0  0  0  0
  5  7  1  0  0  0  0
  6  5  2  0  0  0  0
  7  8  1  0  0  0  0
  8  9  2  0  0  0  0
 10  9  1  0  0  0  0
 11 10  2  0  0  0  0
 12 11  1  0  0  0  0
 13 12  2  0  0  0  0
 14 13  1  0  0  0  0
 14 15  2  0  0  0  0
 15 16  1  0  0  0  0
 16 11  1  0  0  0  0
 16  7  2  0  0  0  0
 17  1  1  0  0  0  0
 17 21  1  0  0  0  0
 18 19  1  0  0  0  0
 18 17  2  0  0  0  0
 19 20  2  0  0  0  0
 20 21  1  0  0  0  0
 22 21  1  6  0  0  0
 22 26  1  0  0  0  0
 22 23  1  0  0  0  0
 24 25  1  0  0  0  0
 24 23  1  0  0  0  0
 26 25  1  0  0  0  0
 26 27  1  1  0  0  0
 27 29  1  0  0  0  0
 27 28  1  0  0  0  0
 29 28  1  0  0  0  0
M  END
>  <minimizedAffinity>
-7.55756521

$$$$

 OpenBabel03272514363D

 29 34  0  0  1  0  0  0  0  0999 V2000
   31.7550   28.3750   46.3060 C   0  0  0  0  0  0  0  0  0  0  0  0
   31.4720   29.3670   45.3730 C   0  0  0  0  0  3  0  0  0  0  0  0
   32.2440   30.5500   45.4700 C   0  0  0  0  0  3  0  0  0  0  0  0
   33.1780   30.6570   46.4190 N   0  0  0  0  0  0  0  0  0  0  0  0
   33.4260   29.6900   47.2970 C   0  0  0  0  0  0  0  0  0  0  0  0
   32.7140   28.5590   47.2360 N   0  0  0  0  0  0  0  0  0  0  0  0
   34.4090   29.6400   48.3990 C   0  0  0  0  0  0  0  0  0  0  0  0
   34.0960   29.1790   49.6830 C   0  0  0  0  0  3  0  0  0  0  0  0
   34.9940   29.1260   50.7110 C   0  0  0  0  0  3  0  0  0  0  0  0
   36.2900   29.5390   50.5250 C   0  0  0  0  0  3  0  0  0  0  0  0
   36.6590   30.0030   49.2840 C   0  0  0  0  0  0  0  0  0  0  0  0
   37.9670   30.4090   49.1310 C   0  0  0  0  0  3  0  0  0  0  0  0
   38.4080   30.8870   47.9160 C   0  0  0  0  0  3  0  0  0  0  0  0
   37.4810   30.9330   46.8780 C   0  0  0  0  0  3  0  0  0  0  0  0
   36.1890   30.5120   47.0960 C   0  0  0  0  0  3  0  0  0  0  0  0
   35.7160   30.0330   48.2870 C   0  0  0  0  0  0  0  0  0  0  0  0
   31.0230   27.1110   46.2870 C   0  0  0  0  0  0  0  0  0  0  0  0
   31.4400   25.9710   45.6240 C   0  0  0  0  0  3  0  0  0  0  0  0
   30.4490   25.0580   45.8850 N   0  0  0  0  0  0  0  0  0  0  0  0
   29.5350   25.6710   46.6550 C   0  0  0  0  0  3  0  0  0  0  0  0
   29.8550   26.9390   46.9240 N   0  0  0  0  0  0  0  0  0  0  0  0
   29.1470   27.8990   47.6940 C   0  0  1  0  0  3  0  0  0  0  0  0
   28.2400   28.7370   46.8810 C   0  0  0  0  0  2  0  0  0  0  0  0
   26.9680   27.9110   46.8030 C   0  0  0  0  0  2  0  0  0  0  0  0
   26.8330   27.3850   48.1870 C   0  0  0  0  0  2  0  0  0  0  0  0
   28.2290   27.2620   48.7120 C   0  0  2  0  0  3  0  0  0  0  0  0
   28.3990   28.0220   50.0220 C   0  0  0  0  0  3  0  0  0  0  0  0
   28.4740   27.0870   51.2320 C   0  0  0  0  0  2  0  0  0  0  0  0
   27.3540   28.0620   51.0530 C   0  0  0  0  0  2  0  0  0  0  0  0
  1  6  1  0  0  0  0
  2  3  1  0  0  0  0
  2  1  2  0  0  0  0
  3  4  2  0  0  0  0
  4  5  1  0  0  0  0
  5  7  1  0  0  0  0
  6  5  2  0  0  0  0
  7  8  1  0  0  0  0
  8  9  2  0  0  0  0
 10  9  1  0  0  0  0
 11 10  2  0  0  0  0
 12 11  1  0  0  0  0
 13 12  2  0  0  0  0
 14 15  2  0  0  0  0
 14 13  1  0  0  0  0
 15 16  1  0  0  0  0
 16  7  2  0  0  0  0
 16 11  1  0  0  0  0
 17  1  1  0  0  0  0
 17 21  1  0  0  0  0
 18 19  1  0  0  0  0
 18 17  2  0  0  0  0
 19 20  2  0  0  0  0
 20 21  1  0  0  0  0
 21 22  1  0  0  0  0
 22 23  1  6  0  0  0
 22 26  1  0  0  0  0
 24 23  1  0  0  0  0
 24 25  1  0  0  0  0
 25 26  1  0  0  0  0
 26 27  1  1  0  0  0
 27 29  1  0  0  0  0
 27 28  1  0  0  0  0
 29 28  1  0  0  0  0
M  END
>  <minimizedAffinity>
-7.52025175

$$$$

 OpenBabel03272514363D

 29 34  0  0  1  0  0  0  0  0999 V2000
   34.4300   29.9380   45.3180 C   0  0  0  0  0  0  0  0  0  0  0  0
   34.9440   29.4970   44.1030 C   0  0  0  0  0  3  0  0  0  0  0  0
   36.3500   29.5820   43.9570 C   0  0  0  0  0  3  0  0  0  0  0  0
   37.0940   30.0620   44.9570 N   0  0  0  0  0  0  0  0  0  0  0  0
   36.5720   30.4740   46.1090 C   0  0  0  0  0  0  0  0  0  0  0  0
   35.2470   30.4110   46.2800 N   0  0  0  0  0  0  0  0  0  0  0  0
   37.2370   31.0260   47.3060 C   0  0  0  0  0  0  0  0  0  0  0  0
   38.1310   32.1020   47.2570 C   0  0  0  0  0  3  0  0  0  0  0  0
   38.7540   32.6230   48.3560 C   0  0  0  0  0  3  0  0  0  0  0  0
   38.5220   32.0960   49.6030 C   0  0  0  0  0  3  0  0  0  0  0  0
   37.6530   31.0370   49.7160 C   0  0  0  0  0  0  0  0  0  0  0  0
   37.4430   30.5310   50.9810 C   0  0  0  0  0  3  0  0  0  0  0  0
   36.5860   29.4690   51.1710 C   0  0  0  0  0  3  0  0  0  0  0  0
   35.9600   28.9500   50.0410 C   0  0  0  0  0  3  0  0  0  0  0  0
   36.2120   29.5000   48.8050 C   0  0  0  0  0  3  0  0  0  0  0  0
   37.0550   30.5530   48.5790 C   0  0  0  0  0  0  0  0  0  0  0  0
   32.9930   29.8830   45.5750 C   0  0  0  0  0  0  0  0  0  0  0  0
   32.0610   30.7420   45.0190 C   0  0  0  0  0  3  0  0  0  0  0  0
   30.8670   30.3150   45.5430 N   0  0  0  0  0  0  0  0  0  0  0  0
   31.1340   29.2730   46.3470 C   0  0  0  0  0  3  0  0  0  0  0  0
   32.4350   28.9770   46.3910 N   0  0  0  0  0  0  0  0  0  0  0  0
   33.0980   27.9550   47.1220 C   0  0  1  0  0  3  0  0  0  0  0  0
   32.6830   27.8960   48.5390 C   0  0  0  0  0  2  0  0  0  0  0  0
   31.4430   27.0220   48.5100 C   0  0  0  0  0  2  0  0  0  0  0  0
   31.8230   25.9450   47.5570 C   0  0  0  0  0  2  0  0  0  0  0  0
   32.7860   26.5720   46.5990 C   0  0  2  0  0  3  0  0  0  0  0  0
   34.0950   25.7970   46.5390 C   0  0  0  0  0  3  0  0  0  0  0  0
   34.3940   25.2650   45.1350 C   0  0  0  0  0  2  0  0  0  0  0  0
   34.1460   24.3500   46.2910 C   0  0  0  0  0  2  0  0  0  0  0  0
  1 17  1  0  0  0  0
  1  6  1  0  0  0  0
  2  1  2  0  0  0  0
  3  2  1  0  0  0  0
  3  4  2  0  0  0  0
  4  5  1  0  0  0  0
  5  6  2  0  0  0  0
  5  7  1  0  0  0  0
  7 16  1  0  0  0  0
  8  7  2  0  0  0  0
  8  9  1  0  0  0  0
  9 10  2  0  0  0  0
 10 11  1  0  0  0  0
 11 12  1  0  0  0  0
 12 13  2  0  0  0  0
 14 13  1  0  0  0  0
 15 14  2  0  0  0  0
 16 15  1  0  0  0  0
 16 11  2  0  0  0  0
 17 21  1  0  0  0  0
 18 19  1  0  0  0  0
 18 17  2  0  0  0  0
 19 20  2  0  0  0  0
 20 21  1  0  0  0  0
 22 21  1  6  0  0  0
 22 23  1  0  0  0  0
 24 23  1  0  0  0  0
 25 24  1  0  0  0  0
 26 27  1  1  0  0  0
 26 22  1  0  0  0  0
 26 25  1  0  0  0  0
 28 29  1  0  0  0  0
 28 27  1  0  0  0  0
 29 27  1  0  0  0  0
M  END
>  <minimizedAffinity>
-7.23600388

$$$$

 OpenBabel03272514363D

 29 34  0  0  1  0  0  0  0  0999 V2000
   31.7460   28.0870   47.4950 C   0  0  0  0  0  0  0  0  0  0  0  0
   31.8750   27.9470   46.1170 C   0  0  0  0  0  3  0  0  0  0  0  0
   33.1480   28.2550   45.5780 C   0  0  0  0  0  3  0  0  0  0  0  0
   34.1330   28.6510   46.3880 N   0  0  0  0  0  0  0  0  0  0  0  0
   33.9800   28.7740   47.7030 C   0  0  0  0  0  0  0  0  0  0  0  0
   32.7900   28.4940   48.2460 N   0  0  0  0  0  0  0  0  0  0  0  0
   34.9490   29.1940   48.7340 C   0  0  0  0  0  0  0  0  0  0  0  0
   34.8230   28.8530   50.0870 C   0  0  0  0  0  3  0  0  0  0  0  0
   35.7120   29.2330   51.0520 C   0  0  0  0  0  3  0  0  0  0  0  0
   36.8080   29.9950   50.7280 C   0  0  0  0  0  3  0  0  0  0  0  0
   36.9860   30.3630   49.4150 C   0  0  0  0  0  0  0  0  0  0  0  0
   38.0960   31.1270   49.1240 C   0  0  0  0  0  3  0  0  0  0  0  0
   38.3390   31.5340   47.8310 C   0  0  0  0  0  3  0  0  0  0  0  0
   37.4240   31.1370   46.8590 C   0  0  0  0  0  3  0  0  0  0  0  0
   36.3360   30.3730   47.2140 C   0  0  0  0  0  3  0  0  0  0  0  0
   36.0630   29.9520   48.4870 C   0  0  0  0  0  0  0  0  0  0  0  0
   30.4770   27.7850   48.1530 C   0  0  0  0  0  0  0  0  0  0  0  0
   30.3590   27.1990   49.4000 C   0  0  0  0  0  3  0  0  0  0  0  0
   29.0030   27.1130   49.5960 N   0  0  0  0  0  0  0  0  0  0  0  0
   28.4100   27.6290   48.5060 C   0  0  0  0  0  3  0  0  0  0  0  0
   29.2880   28.0540   47.5950 N   0  0  0  0  0  0  0  0  0  0  0  0
   29.0480   28.6490   46.3280 C   0  0  1  0  0  3  0  0  0  0  0  0
   28.9780   27.6620   45.2300 C   0  0  0  0  0  2  0  0  0  0  0  0
   27.5300   27.2080   45.2520 C   0  0  0  0  0  2  0  0  0  0  0  0
   26.7910   28.4790   45.4720 C   0  0  0  0  0  2  0  0  0  0  0  0
   27.7120   29.3540   46.2620 C   0  0  2  0  0  3  0  0  0  0  0  0
   27.9330   30.6950   45.5730 C   0  0  0  0  0  3  0  0  0  0  0  0
   26.9540   31.7660   46.0580 C   0  0  0  0  0  2  0  0  0  0  0  0
   26.9560   31.2760   44.6450 C   0  0  0  0  0  2  0  0  0  0  0  0
  1 17  1  0  0  0  0
  1  6  1  0  0  0  0
  2  1  2  0  0  0  0
  3  2  1  0  0  0  0
  3  4  2  0  0  0  0
  4  5  1  0  0  0  0
  5  6  2  0  0  0  0
  5  7  1  0  0  0  0
  7  8  1  0  0  0  0
  8  9  2  0  0  0  0
 10  9  1  0  0  0  0
 11 10  2  0  0  0  0
 12 11  1  0  0  0  0
 13 12  2  0  0  0  0
 14 15  2  0  0  0  0
 14 13  1  0  0  0  0
 15 16  1  0  0  0  0
 16  7  2  0  0  0  0
 16 11  1  0  0  0  0
 17 18  2  0  0  0  0
 18 19  1  0  0  0  0
 20 19  2  0  0  0  0
 21 17  1  0  0  0  0
 21 20  1  0  0  0  0
 22 23  1  6  0  0  0
 22 21  1  0  0  0  0
 23 24  1  0  0  0  0
 24 25  1  0  0  0  0
 25 26  1  0  0  0  0
 26 27  1  6  0  0  0
 26 22  1  0  0  0  0
 27 28  1  0  0  0  0
 29 27  1  0  0  0  0
 29 28  1  0  0  0  0
M  END
>  <minimizedAffinity>
-7.18871212

$$$$

 OpenBabel03272514363D

 29 34  0  0  1  0  0  0  0  0999 V2000
   32.8220   30.0010   45.5840 C   0  0  0  0  0  0  0  0  0  0  0  0
   33.4980   30.0380   44.3690 C   0  0  0  0  0  3  0  0  0  0  0  0
   34.9110   29.9800   44.4430 C   0  0  0  0  0  3  0  0  0  0  0  0
   35.5110   29.8930   45.6330 N   0  0  0  0  0  0  0  0  0  0  0  0
   34.8360   29.8580   46.7780 C   0  0  0  0  0  0  0  0  0  0  0  0
   33.5000   29.9130   46.7460 N   0  0  0  0  0  0  0  0  0  0  0  0
   35.3310   29.7640   48.1670 C   0  0  0  0  0  0  0  0  0  0  0  0
   34.7350   28.9510   49.1380 C   0  0  0  0  0  3  0  0  0  0  0  0
   35.1810   28.8540   50.4250 C   0  0  0  0  0  3  0  0  0  0  0  0
   36.2730   29.5760   50.8400 C   0  0  0  0  0  3  0  0  0  0  0  0
   36.9030   30.3940   49.9310 C   0  0  0  0  0  0  0  0  0  0  0  0
   37.9950   31.1050   50.3790 C   0  0  0  0  0  3  0  0  0  0  0  0
   38.6740   31.9460   49.5250 C   0  0  0  0  0  3  0  0  0  0  0  0
   38.2070   32.0330   48.2160 C   0  0  0  0  0  3  0  0  0  0  0  0
   37.1100   31.2960   47.8310 C   0  0  0  0  0  3  0  0  0  0  0  0
   36.4120   30.4530   48.6510 C   0  0  0  0  0  0  0  0  0  0  0  0
   31.3620   30.0450   45.6190 C   0  0  0  0  0  0  0  0  0  0  0  0
   30.5840   30.9260   44.8900 C   0  0  0  0  0  3  0  0  0  0  0  0
   29.2990   30.5980   45.2420 N   0  0  0  0  0  0  0  0  0  0  0  0
   29.3720   29.5860   46.1220 C   0  0  0  0  0  3  0  0  0  0  0  0
   30.6290   29.2170   46.3780 N   0  0  0  0  0  0  0  0  0  0  0  0
   31.1060   28.1980   47.2450 C   0  0  1  0  0  3  0  0  0  0  0  0
   30.0830   27.7300   48.2040 C   0  0  0  0  0  2  0  0  0  0  0  0
   29.3280   26.6670   47.4270 C   0  0  0  0  0  2  0  0  0  0  0  0
   30.4170   25.9370   46.7260 C   0  0  0  0  0  2  0  0  0  0  0  0
   31.5020   26.9430   46.5020 C   0  0  2  0  0  3  0  0  0  0  0  0
   32.8290   26.4670   47.0780 C   0  0  0  0  0  3  0  0  0  0  0  0
   33.9080   26.3110   46.0030 C   0  0  0  0  0  2  0  0  0  0  0  0
   33.3900   25.1430   46.7800 C   0  0  0  0  0  2  0  0  0  0  0  0
  1 17  1  0  0  0  0
  1  6  1  0  0  0  0
  2  3  1  0  0  0  0
  2  1  2  0  0  0  0
  3  4  2  0  0  0  0
  4  5  1  0  0  0  0
  5  7  1  0  0  0  0
  6  5  2  0  0  0  0
  7 16  2  0  0  0  0
  7  8  1  0  0  0  0
  8  9  2  0  0  0  0
  9 10  1  0  0  0  0
 11 12  1  0  0  0  0
 11 10  2  0  0  0  0
 13 12  2  0  0  0  0
 14 13  1  0  0  0  0
 15 14  2  0  0  0  0
 15 16  1  0  0  0  0
 16 11  1  0  0  0  0
 17 21  1  0  0  0  0
 18 19  1  0  0  0  0
 18 17  2  0  0  0  0
 19 20  2  0  0  0  0
 20 21  1  0  0  0  0
 22 21  1  6  0  0  0
 22 23  1  0  0  0  0
 24 23  1  0  0  0  0
 25 24  1  0  0  0  0
 26 25  1  0  0  0  0
 26 27  1  1  0  0  0
 26 22  1  0  0  0  0
 28 29  1  0  0  0  0
 28 27  1  0  0  0  0
 29 27  1  0  0  0  0
M  END
>  <minimizedAffinity>
-6.9634428

$$$$

 OpenBabel03272514363D

 29 34  0  0  1  0  0  0  0  0999 V2000
   33.4750   29.1620   46.4490 C   0  0  0  0  0  0  0  0  0  0  0  0
   33.0090   27.8550   46.3590 C   0  0  0  0  0  3  0  0  0  0  0  0
   33.4880   26.9550   47.3420 C   0  0  0  0  0  3  0  0  0  0  0  0
   34.3340   27.3870   48.2800 N   0  0  0  0  0  0  0  0  0  0  0  0
   34.7620   28.6450   48.3410 C   0  0  0  0  0  0  0  0  0  0  0  0
   34.3310   29.5210   47.4270 N   0  0  0  0  0  0  0  0  0  0  0  0
   35.6860   29.2860   49.2980 C   0  0  0  0  0  0  0  0  0  0  0  0
   35.6570   29.0350   50.6750 C   0  0  0  0  0  3  0  0  0  0  0  0
   36.5050   29.6200   51.5720 C   0  0  0  0  0  3  0  0  0  0  0  0
   37.4590   30.5120   51.1480 C   0  0  0  0  0  3  0  0  0  0  0  0
   37.5380   30.7990   49.8050 C   0  0  0  0  0  0  0  0  0  0  0  0
   38.5070   31.6980   49.4130 C   0  0  0  0  0  3  0  0  0  0  0  0
   38.6440   32.0360   48.0850 C   0  0  0  0  0  3  0  0  0  0  0  0
   37.7710   31.4310   47.1840 C   0  0  0  0  0  3  0  0  0  0  0  0
   36.8260   30.5400   47.6390 C   0  0  0  0  0  3  0  0  0  0  0  0
   36.6610   30.1830   48.9490 C   0  0  0  0  0  0  0  0  0  0  0  0
   33.0350   30.1720   45.4900 C   0  0  0  0  0  0  0  0  0  0  0  0
   31.8350   30.8560   45.5640 C   0  0  0  0  0  3  0  0  0  0  0  0
   31.8600   31.6830   44.4680 N   0  0  0  0  0  0  0  0  0  0  0  0
   33.0190   31.4590   43.8270 C   0  0  0  0  0  3  0  0  0  0  0  0
   33.7700   30.5350   44.4280 N   0  0  0  0  0  0  0  0  0  0  0  0
   35.0450   30.0320   44.0540 C   0  0  1  0  0  3  0  0  0  0  0  0
   34.9650   28.7830   43.2680 C   0  0  0  0  0  2  0  0  0  0  0  0
   34.7770   29.2710   41.8430 C   0  0  0  0  0  2  0  0  0  0  0  0
   35.7200   30.4180   41.7620 C   0  0  0  0  0  2  0  0  0  0  0  0
   35.7970   30.9790   43.1480 C   0  0  2  0  0  3  0  0  0  0  0  0
   37.2370   31.0420   43.6430 C   0  0  0  0  0  3  0  0  0  0  0  0
   37.7920   32.4680   43.6380 C   0  0  0  0  0  2  0  0  0  0  0  0
   38.3590   31.3950   42.7650 C   0  0  0  0  0  2  0  0  0  0  0  0
  1  6  1  0  0  0  0
  2  1  2  0  0  0  0
  2  3  1  0  0  0  0
  3  4  2  0  0  0  0
  4  5  1  0  0  0  0
  5  7  1  0  0  0  0
  6  5  2  0  0  0  0
  7  8  1  0  0  0  0
  8  9  2  0  0  0  0
 10  9  1  0  0  0  0
 11 10  2  0  0  0  0
 12 11  1  0  0  0  0
 13 12  2  0  0  0  0
 14 15  2  0  0  0  0
 14 13  1  0  0  0  0
 15 16  1  0  0  0  0
 16  7  2  0  0  0  0
 16 11  1  0  0  0  0
 17 18  2  0  0  0  0
 17  1  1  0  0  0  0
 19 18  1  0  0  0  0
 20 21  1  0  0  0  0
 20 19  2  0  0  0  0
 21 17  1  0  0  0  0
 22 23  1  6  0  0  0
 22 21  1  0  0  0  0
 24 23  1  0  0  0  0
 25 24  1  0  0  0  0
 25 26  1  0  0  0  0
 26 27  1  1  0  0  0
 26 22  1  0  0  0  0
 28 27  1  0  0  0  0
 29 28  1  0  0  0  0
 29 27  1  0  0  0  0
M  END
>  <minimizedAffinity>
-6.90209913

$$$$

 OpenBabel03272514363D

 29 34  0  0  1  0  0  0  0  0999 V2000
   32.2580   28.0480   47.4630 C   0  0  0  0  0  0  0  0  0  0  0  0
   32.0420   27.9100   48.8290 C   0  0  0  0  0  3  0  0  0  0  0  0
   33.0170   28.4940   49.6740 C   0  0  0  0  0  3  0  0  0  0  0  0
   34.0620   29.1320   49.1400 N   0  0  0  0  0  0  0  0  0  0  0  0
   34.2410   29.2480   47.8280 C   0  0  0  0  0  0  0  0  0  0  0  0
   33.3410   28.7070   47.0000 N   0  0  0  0  0  0  0  0  0  0  0  0
   35.3250   29.9100   47.0750 C   0  0  0  0  0  0  0  0  0  0  0  0
   35.4080   29.8910   45.6770 C   0  0  0  0  0  3  0  0  0  0  0  0
   36.4040   30.4980   44.9670 C   0  0  0  0  0  3  0  0  0  0  0  0
   37.4050   31.1800   45.6150 C   0  0  0  0  0  3  0  0  0  0  0  0
   37.3790   31.2340   46.9890 C   0  0  0  0  0  0  0  0  0  0  0  0
   38.3980   31.9250   47.6080 C   0  0  0  0  0  3  0  0  0  0  0  0
   38.4380   32.0210   48.9810 C   0  0  0  0  0  3  0  0  0  0  0  0
   37.4150   31.3960   49.6910 C   0  0  0  0  0  3  0  0  0  0  0  0
   36.4260   30.7220   49.0120 C   0  0  0  0  0  3  0  0  0  0  0  0
   36.3540   30.6060   47.6510 C   0  0  0  0  0  0  0  0  0  0  0  0
   31.3070   27.4910   46.5030 C   0  0  0  0  0  0  0  0  0  0  0  0
   31.6490   26.6710   45.4430 C   0  0  0  0  0  3  0  0  0  0  0  0
   30.4480   26.4060   44.8330 N   0  0  0  0  0  0  0  0  0  0  0  0
   29.4960   27.0510   45.5280 C   0  0  0  0  0  3  0  0  0  0  0  0
   29.9890   27.7300   46.5660 N   0  0  0  0  0  0  0  0  0  0  0  0
   29.3050   28.5280   47.5220 C   0  0  1  0  0  3  0  0  0  0  0  0
   28.4030   29.5240   46.9050 C   0  0  0  0  0  2  0  0  0  0  0  0
   27.1180   28.7480   46.6820 C   0  0  0  0  0  2  0  0  0  0  0  0
   26.9890   27.9580   47.9350 C   0  0  0  0  0  2  0  0  0  0  0  0
   28.3880   27.7140   48.4060 C   0  0  2  0  0  3  0  0  0  0  0  0
   28.5850   28.1940   49.8380 C   0  0  0  0  0  3  0  0  0  0  0  0
   28.8890   27.0440   50.8010 C   0  0  0  0  0  2  0  0  0  0  0  0
   27.6450   27.8660   50.9180 C   0  0  0  0  0  2  0  0  0  0  0  0
  1  2  1  0  0  0  0
  2  3  2  0  0  0  0
  4  3  1  0  0  0  0
  5  4  2  0  0  0  0
  6  1  2  0  0  0  0
  6  5  1  0  0  0  0
  7 16  1  0  0  0  0
  7  5  1  0  0  0  0
  8  7  2  0  0  0  0
  9 10  2  0  0  0  0
  9  8  1  0  0  0  0
 10 11  1  0  0  0  0
 11 12  2  0  0  0  0
 11 16  1  0  0  0  0
 12 13  1  0  0  0  0
 13 14  2  0  0  0  0
 15 14  1  0  0  0  0
 16 15  2  0  0  0  0
 17 21  1  0  0  0  0
 17  1  1  0  0  0  0
 18 17  2  0  0  0  0
 19 18  1  0  0  0  0
 19 20  2  0  0  0  0
 20 21  1  0  0  0  0
 22 21  1  6  0  0  0
 22 26  1  0  0  0  0
 23 22  1  0  0  0  0
 24 23  1  0  0  0  0
 24 25  1  0  0  0  0
 25 26  1  0  0  0  0
 26 27  1  1  0  0  0
 27 28  1  0  0  0  0
 27 29  1  0  0  0  0
 28 29  1  0  0  0  0
M  END
>  <minimizedAffinity>
-6.90139961

$$$$

 OpenBabel03272514363D

 29 34  0  0  1  0  0  0  0  0999 V2000
   32.9180   27.8780   46.6230 C   0  0  0  0  0  0  0  0  0  0  0  0
   31.8700   28.6670   46.1640 C   0  0  0  0  0  3  0  0  0  0  0  0
   32.1130   30.0620   46.1250 C   0  0  0  0  0  3  0  0  0  0  0  0
   33.2970   30.5400   46.5150 N   0  0  0  0  0  0  0  0  0  0  0  0
   34.2820   29.7580   46.9490 C   0  0  0  0  0  0  0  0  0  0  0  0
   34.0860   28.4360   47.0010 N   0  0  0  0  0  0  0  0  0  0  0  0
   35.6380   30.1130   47.4140 C   0  0  0  0  0  0  0  0  0  0  0  0
   36.6320   30.6120   46.5640 C   0  0  0  0  0  3  0  0  0  0  0  0
   37.8900   30.9450   46.9800 C   0  0  0  0  0  3  0  0  0  0  0  0
   38.2490   30.8000   48.2970 C   0  0  0  0  0  3  0  0  0  0  0  0
   37.3150   30.3140   49.1820 C   0  0  0  0  0  0  0  0  0  0  0  0
   37.7080   30.1800   50.4960 C   0  0  0  0  0  3  0  0  0  0  0  0
   36.8260   29.6970   51.4390 C   0  0  0  0  0  3  0  0  0  0  0  0
   35.5480   29.3630   50.9990 C   0  0  0  0  0  3  0  0  0  0  0  0
   35.2180   29.5210   49.6720 C   0  0  0  0  0  3  0  0  0  0  0  0
   36.0670   29.9960   48.7100 C   0  0  0  0  0  0  0  0  0  0  0  0
   32.7740   26.4250   46.6940 C   0  0  0  0  0  0  0  0  0  0  0  0
   33.7570   25.5590   47.1380 C   0  0  0  0  0  3  0  0  0  0  0  0
   33.1770   24.3200   47.0240 N   0  0  0  0  0  0  0  0  0  0  0  0
   31.9370   24.5020   46.5410 C   0  0  0  0  0  3  0  0  0  0  0  0
   31.6530   25.7880   46.3250 N   0  0  0  0  0  0  0  0  0  0  0  0
   30.4590   26.3710   45.8230 C   0  0  1  0  0  3  0  0  0  0  0  0
   30.0950   25.8760   44.4780 C   0  0  0  0  0  2  0  0  0  0  0  0
   29.3140   24.6070   44.7670 C   0  0  0  0  0  2  0  0  0  0  0  0
   28.4680   24.9980   45.9260 C   0  0  0  0  0  2  0  0  0  0  0  0
   29.2510   26.0360   46.6670 C   0  0  2  0  0  3  0  0  0  0  0  0
   28.4460   27.3170   46.8470 C   0  0  0  0  0  3  0  0  0  0  0  0
   28.3450   27.7410   48.3140 C   0  0  0  0  0  2  0  0  0  0  0  0
   27.1420   27.3420   47.5200 C   0  0  0  0  0  2  0  0  0  0  0  0
  1 17  1  0  0  0  0
  1  6  1  0  0  0  0
  2  1  2  0  0  0  0
  3  2  1  0  0  0  0
  3  4  2  0  0  0  0
  4  5  1  0  0  0  0
  5  6  2  0  0  0  0
  5  7  1  0  0  0  0
  7 16  1  0  0  0  0
  8  9  1  0  0  0  0
  8  7  2  0  0  0  0
  9 10  2  0  0  0  0
 10 11  1  0  0  0  0
 11 12  1  0  0  0  0
 12 13  2  0  0  0  0
 14 13  1  0  0  0  0
 15 14  2  0  0  0  0
 16 11  2  0  0  0  0
 16 15  1  0  0  0  0
 17 18  2  0  0  0  0
 19 18  1  0  0  0  0
 20 19  2  0  0  0  0
 21 20  1  0  0  0  0
 21 17  1  0  0  0  0
 22 23  1  6  0  0  0
 22 21  1  0  0  0  0
 22 26  1  0  0  0  0
 23 24  1  0  0  0  0
 24 25  1  0  0  0  0
 25 26  1  0  0  0  0
 26 27  1  6  0  0  0
 27 29  1  0  0  0  0
 27 28  1  0  0  0  0
 29 28  1  0  0  0  0
M  END
>  <minimizedAffinity>
-6.78464127

$$$$
