
 OpenBabel03272514323D

 34 38  0  0  0  0  0  0  0  0999 V2000
   35.4470   29.7860   44.3970 C   0  0  0  0  0  3  0  0  0  0  0  0
   34.0770   29.5630   44.4510 C   0  0  0  0  0  3  0  0  0  0  0  0
   33.5090   29.7580   45.7080 C   0  0  0  0  0  0  0  0  0  0  0  0
   34.2920   30.1240   46.7130 N   0  0  0  0  0  0  0  0  0  0  0  0
   35.5930   30.3340   46.6630 C   0  0  0  0  0  0  0  0  0  0  0  0
   36.1310   30.1540   45.4780 N   0  0  0  0  0  0  0  0  0  0  0  0
   32.1240   29.5710   45.9160 N   0  0  0  0  0  0  0  0  0  0  0  0
   31.1130   30.1480   45.2440 C   0  0  0  0  0  3  0  0  0  0  0  0
   29.9570   29.7370   45.7130 N   0  0  0  0  0  0  0  0  0  0  0  0
   30.1950   28.8820   46.7020 C   0  0  0  0  0  0  0  0  0  0  0  0
   31.5470   28.7880   46.8180 N   0  0  0  0  0  0  0  0  0  0  0  0
   29.3620   28.0980   47.6040 C   0  0  0  0  0  0  0  0  0  0  0  0
   28.2530   27.3610   47.4820 N   0  0  0  0  0  0  0  0  0  0  0  0
   27.9080   26.8540   48.6300 O   0  0  0  0  0  0  0  0  0  0  0  0
   28.8020   27.2610   49.5350 C   0  0  0  0  0  0  0  0  0  0  0  0
   29.7170   28.0350   48.9240 N   0  0  0  0  0  0  0  0  0  0  0  0
   28.7350   26.8930   50.9140 N   0  0  0  0  0  0  0  0  0  0  0  0
   27.4500   26.9550   51.5570 C   0  0  0  0  0  0  0  0  0  0  0  0
   26.5250   27.4980   51.0270 N   0  0  0  0  0  0  0  0  0  0  0  0
   27.3600   26.3340   52.8560 N   0  0  0  0  0  0  0  0  0  0  0  0
   25.8720   27.9580   50.5030 H   0  0  0  0  0  0  0  0  0  0  0  0
   29.5760   26.5930   51.4290 H   0  0  0  0  0  0  0  0  0  0  0  0
   26.4670   26.3430   53.3700 H   0  0  0  0  0  0  0  0  0  0  0  0
   28.1870   25.8800   53.2680 H   0  0  0  0  0  0  0  0  0  0  0  0
   36.5570   30.7350   47.6730 C   0  0  0  0  0  0  0  0  0  0  0  0
   37.6120   31.5750   47.3790 C   0  0  0  0  0  3  0  0  0  0  0  0
   38.5480   31.9840   48.3000 C   0  0  0  0  0  3  0  0  0  0  0  0
   38.4660   31.5510   49.6100 C   0  0  0  0  0  3  0  0  0  0  0  0
   37.4490   30.7270   49.9400 C   0  0  0  0  0  0  0  0  0  0  0  0
   37.3590   30.2870   51.2450 C   0  0  0  0  0  3  0  0  0  0  0  0
   36.3760   29.4590   51.6730 C   0  0  0  0  0  3  0  0  0  0  0  0
   35.4330   29.0530   50.7300 C   0  0  0  0  0  3  0  0  0  0  0  0
   35.5480   29.5020   49.4480 C   0  0  0  0  0  3  0  0  0  0  0  0
   36.5280   30.3370   48.9910 C   0  0  0  0  0  0  0  0  0  0  0  0
  1  2  2  0  0  0  0
  1  6  1  0  0  0  0
  2  3  1  0  0  0  0
  3  7  1  0  0  0  0
  3  4  2  0  0  0  0
  5  4  1  0  0  0  0
  5 25  1  0  0  0  0
  6  5  2  0  0  0  0
  7 11  1  0  0  0  0
  8  9  2  0  0  0  0
  8  7  1  0  0  0  0
  9 10  1  0  0  0  0
 10 11  2  0  0  0  0
 10 12  1  0  0  0  0
 12 16  1  0  0  0  0
 13 12  2  0  0  0  0
 13 14  1  0  0  0  0
 14 15  1  0  0  0  0
 15 17  1  0  0  0  0
 16 15  2  0  0  0  0
 17 22  1  0  0  0  0
 17 18  1  0  0  0  0
 18 20  1  0  0  0  0
 19 18  2  0  0  0  0
 20 24  1  0  0  0  0
 20 23  1  0  0  0  0
 21 19  1  0  0  0  0
 25 34  1  0  0  0  0
 26 25  2  0  0  0  0
 26 27  1  0  0  0  0
 27 28  2  0  0  0  0
 28 29  1  0  0  0  0
 29 30  1  0  0  0  0
 30 31  2  0  0  0  0
 32 31  1  0  0  0  0
 33 32  2  0  0  0  0
 34 33  1  0  0  0  0
 34 29  2  0  0  0  0
M  END
>  <minimizedAffinity>
-9.30193138

$$$$

 OpenBabel03272514323D

 34 38  0  0  0  0  0  0  0  0999 V2000
   35.6600   28.9000   43.6500 C   0  0  0  0  0  3  0  0  0  0  0  0
   34.2720   28.8880   43.7160 C   0  0  0  0  0  3  0  0  0  0  0  0
   33.7390   29.5980   44.7900 C   0  0  0  0  0  0  0  0  0  0  0  0
   34.5670   30.2030   45.6300 N   0  0  0  0  0  0  0  0  0  0  0  0
   35.8840   30.2130   45.5690 C   0  0  0  0  0  0  0  0  0  0  0  0
   36.3900   29.5470   44.5560 N   0  0  0  0  0  0  0  0  0  0  0  0
   32.3420   29.6760   44.9860 N   0  0  0  0  0  0  0  0  0  0  0  0
   31.4170   30.0930   44.1040 C   0  0  0  0  0  3  0  0  0  0  0  0
   30.2170   30.0320   44.6350 N   0  0  0  0  0  0  0  0  0  0  0  0
   30.3390   29.5720   45.8750 C   0  0  0  0  0  0  0  0  0  0  0  0
   31.6670   29.3570   46.0820 N   0  0  0  0  0  0  0  0  0  0  0  0
   29.4100   29.2830   46.9590 C   0  0  0  0  0  0  0  0  0  0  0  0
   29.4140   28.4870   48.0340 N   0  0  0  0  0  0  0  0  0  0  0  0
   28.3040   28.6080   48.7020 O   0  0  0  0  0  0  0  0  0  0  0  0
   27.5440   29.5010   48.0610 C   0  0  0  0  0  0  0  0  0  0  0  0
   28.2070   29.9360   46.9750 N   0  0  0  0  0  0  0  0  0  0  0  0
   26.2450   29.8850   48.5160 N   0  0  0  0  0  0  0  0  0  0  0  0
   25.3590   28.8400   48.9550 C   0  0  0  0  0  0  0  0  0  0  0  0
   25.6150   27.6900   48.7450 N   0  0  0  0  0  0  0  0  0  0  0  0
   24.1690   29.2680   49.6490 N   0  0  0  0  0  0  0  0  0  0  0  0
   25.9300   26.8190   48.5170 H   0  0  0  0  0  0  0  0  0  0  0  0
   25.9520   30.8730   48.5280 H   0  0  0  0  0  0  0  0  0  0  0  0
   23.4930   28.5700   49.9900 H   0  0  0  0  0  0  0  0  0  0  0  0
   23.9950   30.2720   49.8040 H   0  0  0  0  0  0  0  0  0  0  0  0
   36.8950   30.8280   46.4110 C   0  0  0  0  0  0  0  0  0  0  0  0
   37.8370   31.6980   45.8990 C   0  0  0  0  0  3  0  0  0  0  0  0
   38.8130   32.3070   46.6540 C   0  0  0  0  0  3  0  0  0  0  0  0
   38.8910   32.0600   48.0110 C   0  0  0  0  0  3  0  0  0  0  0  0
   37.9890   31.2140   48.5530 C   0  0  0  0  0  0  0  0  0  0  0  0
   38.0610   30.9600   49.9080 C   0  0  0  0  0  3  0  0  0  0  0  0
   37.2010   30.1270   50.5430 C   0  0  0  0  0  3  0  0  0  0  0  0
   36.2180   29.5170   49.7660 C   0  0  0  0  0  3  0  0  0  0  0  0
   36.1720   29.7860   48.4300 C   0  0  0  0  0  3  0  0  0  0  0  0
   37.0250   30.6220   47.7660 C   0  0  0  0  0  0  0  0  0  0  0  0
  1  2  2  0  0  0  0
  1  6  1  0  0  0  0
  2  3  1  0  0  0  0
  3  7  1  0  0  0  0
  3  4  2  0  0  0  0
  5  4  1  0  0  0  0
  5 25  1  0  0  0  0
  6  5  2  0  0  0  0
  7 11  1  0  0  0  0
  8  9  2  0  0  0  0
  8  7  1  0  0  0  0
  9 10  1  0  0  0  0
 10 11  2  0  0  0  0
 10 12  1  0  0  0  0
 12 16  1  0  0  0  0
 12 13  2  0  0  0  0
 13 14  1  0  0  0  0
 15 17  1  0  0  0  0
 15 14  1  0  0  0  0
 16 15  2  0  0  0  0
 17 22  1  0  0  0  0
 17 18  1  0  0  0  0
 18 20  1  0  0  0  0
 19 18  2  0  0  0  0
 20 24  1  0  0  0  0
 20 23  1  0  0  0  0
 21 19  1  0  0  0  0
 25 34  1  0  0  0  0
 26 25  2  0  0  0  0
 26 27  1  0  0  0  0
 27 28  2  0  0  0  0
 28 29  1  0  0  0  0
 29 30  1  0  0  0  0
 30 31  2  0  0  0  0
 32 31  1  0  0  0  0
 33 32  2  0  0  0  0
 34 33  1  0  0  0  0
 34 29  2  0  0  0  0
M  END
>  <minimizedAffinity>
-8.86087227

$$$$

 OpenBabel03272514323D

 34 38  0  0  0  0  0  0  0  0999 V2000
   39.1510   30.1000   44.2730 C   0  0  0  0  0  3  0  0  0  0  0  0
   38.6200   30.8460   43.2270 C   0  0  0  0  0  3  0  0  0  0  0  0
   37.7410   31.8510   43.6230 C   0  0  0  0  0  0  0  0  0  0  0  0
   37.4900   32.0080   44.9150 N   0  0  0  0  0  0  0  0  0  0  0  0
   37.9920   31.3010   45.9080 C   0  0  0  0  0  0  0  0  0  0  0  0
   38.8240   30.3530   45.5380 N   0  0  0  0  0  0  0  0  0  0  0  0
   37.1240   32.6920   42.6700 N   0  0  0  0  0  0  0  0  0  0  0  0
   37.7270   33.4340   41.7260 C   0  0  0  0  0  3  0  0  0  0  0  0
   36.8350   34.0920   41.0200 N   0  0  0  0  0  0  0  0  0  0  0  0
   35.6310   33.7880   41.4930 C   0  0  0  0  0  0  0  0  0  0  0  0
   35.8250   32.9180   42.5210 N   0  0  0  0  0  0  0  0  0  0  0  0
   34.2680   34.1750   41.1570 C   0  0  0  0  0  0  0  0  0  0  0  0
   33.6950   34.9350   40.2170 N   0  0  0  0  0  0  0  0  0  0  0  0
   32.4020   34.9520   40.3620 O   0  0  0  0  0  0  0  0  0  0  0  0
   32.1050   34.1900   41.4190 C   0  0  0  0  0  0  0  0  0  0  0  0
   33.2470   33.6950   41.9320 N   0  0  0  0  0  0  0  0  0  0  0  0
   30.7680   33.9790   41.8750 N   0  0  0  0  0  0  0  0  0  0  0  0
   29.9010   35.1240   41.9450 C   0  0  0  0  0  0  0  0  0  0  0  0
   30.3400   36.2330   41.8390 N   0  0  0  0  0  0  0  0  0  0  0  0
   28.5000   34.8480   42.1500 N   0  0  0  0  0  0  0  0  0  0  0  0
   30.8100   37.0580   41.7420 H   0  0  0  0  0  0  0  0  0  0  0  0
   30.4360   33.0410   42.1430 H   0  0  0  0  0  0  0  0  0  0  0  0
   27.8260   35.6240   42.2100 H   0  0  0  0  0  0  0  0  0  0  0  0
   28.1740   33.8740   42.2360 H   0  0  0  0  0  0  0  0  0  0  0  0
   37.8060   31.3680   47.3470 C   0  0  0  0  0  0  0  0  0  0  0  0
   38.6940   32.0360   48.1650 C   0  0  0  0  0  3  0  0  0  0  0  0
   38.5610   32.1310   49.5310 C   0  0  0  0  0  3  0  0  0  0  0  0
   37.4880   31.5330   50.1640 C   0  0  0  0  0  3  0  0  0  0  0  0
   36.5950   30.8670   49.4000 C   0  0  0  0  0  0  0  0  0  0  0  0
   35.5200   30.2660   50.0230 C   0  0  0  0  0  3  0  0  0  0  0  0
   34.5720   29.5760   49.3440 C   0  0  0  0  0  3  0  0  0  0  0  0
   34.7190   29.4900   47.9610 C   0  0  0  0  0  3  0  0  0  0  0  0
   35.7910   30.0930   47.3730 C   0  0  0  0  0  3  0  0  0  0  0  0
   36.7600   30.7940   48.0340 C   0  0  0  0  0  0  0  0  0  0  0  0
  1  6  1  0  0  0  0
  2  3  1  0  0  0  0
  2  1  2  0  0  0  0
  3  4  2  0  0  0  0
  4  5  1  0  0  0  0
  5 25  1  0  0  0  0
  6  5  2  0  0  0  0
  7  3  1  0  0  0  0
  8  7  1  0  0  0  0
  9 10  1  0  0  0  0
  9  8  2  0  0  0  0
 10 11  2  0  0  0  0
 11  7  1  0  0  0  0
 12 10  1  0  0  0  0
 12 16  1  0  0  0  0
 13 14  1  0  0  0  0
 13 12  2  0  0  0  0
 14 15  1  0  0  0  0
 15 17  1  0  0  0  0
 15 16  2  0  0  0  0
 17 18  1  0  0  0  0
 17 22  1  0  0  0  0
 18 20  1  0  0  0  0
 19 18  2  0  0  0  0
 20 23  1  0  0  0  0
 20 24  1  0  0  0  0
 21 19  1  0  0  0  0
 25 34  2  0  0  0  0
 25 26  1  0  0  0  0
 26 27  2  0  0  0  0
 27 28  1  0  0  0  0
 29 30  1  0  0  0  0
 29 28  2  0  0  0  0
 31 30  2  0  0  0  0
 32 31  1  0  0  0  0
 33 32  2  0  0  0  0
 33 34  1  0  0  0  0
 34 29  1  0  0  0  0
M  END
>  <minimizedAffinity>
-8.49365807

$$$$

 OpenBabel03272514323D

 34 38  0  0  0  0  0  0  0  0999 V2000
   33.4720   27.1070   47.5280 C   0  0  0  0  0  3  0  0  0  0  0  0
   33.0010   27.6820   46.3540 C   0  0  0  0  0  3  0  0  0  0  0  0
   33.4660   28.9740   46.1170 C   0  0  0  0  0  0  0  0  0  0  0  0
   34.2870   29.5290   46.9970 N   0  0  0  0  0  0  0  0  0  0  0  0
   34.7340   28.9850   48.1120 C   0  0  0  0  0  0  0  0  0  0  0  0
   34.2990   27.7650   48.3370 N   0  0  0  0  0  0  0  0  0  0  0  0
   33.0730   29.6860   44.9620 N   0  0  0  0  0  0  0  0  0  0  0  0
   33.1850   29.2890   43.6830 C   0  0  0  0  0  3  0  0  0  0  0  0
   32.7160   30.2120   42.8730 N   0  0  0  0  0  0  0  0  0  0  0  0
   32.2900   31.2300   43.6140 C   0  0  0  0  0  0  0  0  0  0  0  0
   32.5200   30.8900   44.9110 N   0  0  0  0  0  0  0  0  0  0  0  0
   31.6820   32.5220   43.3290 C   0  0  0  0  0  0  0  0  0  0  0  0
   31.3990   33.6210   44.0370 N   0  0  0  0  0  0  0  0  0  0  0  0
   30.8400   34.5230   43.2840 O   0  0  0  0  0  0  0  0  0  0  0  0
   30.7460   34.0170   42.0510 C   0  0  0  0  0  0  0  0  0  0  0  0
   31.2620   32.7750   42.0510 N   0  0  0  0  0  0  0  0  0  0  0  0
   30.1780   34.7380   40.9560 N   0  0  0  0  0  0  0  0  0  0  0  0
   28.9530   35.4530   41.1950 C   0  0  0  0  0  0  0  0  0  0  0  0
   28.3240   35.2750   42.1970 N   0  0  0  0  0  0  0  0  0  0  0  0
   28.5460   36.3770   40.1640 N   0  0  0  0  0  0  0  0  0  0  0  0
   27.9180   35.0430   43.0300 H   0  0  0  0  0  0  0  0  0  0  0  0
   30.6290   34.7460   40.0290 H   0  0  0  0  0  0  0  0  0  0  0  0
   27.6780   36.9200   40.2730 H   0  0  0  0  0  0  0  0  0  0  0  0
   29.1240   36.4920   39.3190 H   0  0  0  0  0  0  0  0  0  0  0  0
   35.6260   29.4730   49.1490 C   0  0  0  0  0  0  0  0  0  0  0  0
   35.5080   29.0660   50.4620 C   0  0  0  0  0  3  0  0  0  0  0  0
   36.3280   29.4970   51.4790 C   0  0  0  0  0  3  0  0  0  0  0  0
   37.3450   30.3950   51.2130 C   0  0  0  0  0  3  0  0  0  0  0  0
   37.4950   30.8210   49.9400 C   0  0  0  0  0  0  0  0  0  0  0  0
   38.5070   31.7190   49.6650 C   0  0  0  0  0  3  0  0  0  0  0  0
   38.7370   32.2040   48.4210 C   0  0  0  0  0  3  0  0  0  0  0  0
   37.8980   31.7570   47.4010 C   0  0  0  0  0  3  0  0  0  0  0  0
   36.9070   30.8710   47.7030 C   0  0  0  0  0  3  0  0  0  0  0  0
   36.6540   30.3670   48.9470 C   0  0  0  0  0  0  0  0  0  0  0  0
  1  6  1  0  0  0  0
  2  1  2  0  0  0  0
  3  2  1  0  0  0  0
  3  4  2  0  0  0  0
  4  5  1  0  0  0  0
  5  6  2  0  0  0  0
  5 25  1  0  0  0  0
  7  3  1  0  0  0  0
  8  7  1  0  0  0  0
  9 10  1  0  0  0  0
  9  8  2  0  0  0  0
 10 11  2  0  0  0  0
 11  7  1  0  0  0  0
 12 10  1  0  0  0  0
 12 13  2  0  0  0  0
 14 13  1  0  0  0  0
 15 16  2  0  0  0  0
 15 14  1  0  0  0  0
 16 12  1  0  0  0  0
 17 18  1  0  0  0  0
 17 15  1  0  0  0  0
 18 19  2  0  0  0  0
 19 21  1  0  0  0  0
 20 23  1  0  0  0  0
 20 18  1  0  0  0  0
 22 17  1  0  0  0  0
 24 20  1  0  0  0  0
 25 26  1  0  0  0  0
 26 27  2  0  0  0  0
 28 27  1  0  0  0  0
 29 28  2  0  0  0  0
 30 29  1  0  0  0  0
 31 30  2  0  0  0  0
 32 33  2  0  0  0  0
 32 31  1  0  0  0  0
 33 34  1  0  0  0  0
 34 25  2  0  0  0  0
 34 29  1  0  0  0  0
M  END
>  <minimizedAffinity>
-8.16415977

$$$$

 OpenBabel03272514323D

 34 38  0  0  0  0  0  0  0  0999 V2000
   34.6600   28.0540   49.0840 C   0  0  0  0  0  3  0  0  0  0  0  0
   33.6330   27.9990   48.1490 C   0  0  0  0  0  3  0  0  0  0  0  0
   33.6280   29.0500   47.2340 C   0  0  0  0  0  0  0  0  0  0  0  0
   34.5670   29.9810   47.3270 N   0  0  0  0  0  0  0  0  0  0  0  0
   35.5410   30.0350   48.2140 C   0  0  0  0  0  0  0  0  0  0  0  0
   35.5490   29.0430   49.0770 N   0  0  0  0  0  0  0  0  0  0  0  0
   32.6440   29.1290   46.2240 N   0  0  0  0  0  0  0  0  0  0  0  0
   32.3300   28.1880   45.3170 C   0  0  0  0  0  3  0  0  0  0  0  0
   31.3640   28.6110   44.5330 N   0  0  0  0  0  0  0  0  0  0  0  0
   31.0310   29.8380   44.9170 C   0  0  0  0  0  0  0  0  0  0  0  0
   31.8360   30.1490   45.9690 N   0  0  0  0  0  0  0  0  0  0  0  0
   30.0600   30.8260   44.4670 C   0  0  0  0  0  0  0  0  0  0  0  0
   28.7260   30.8930   44.3980 N   0  0  0  0  0  0  0  0  0  0  0  0
   28.3460   32.0340   43.9030 O   0  0  0  0  0  0  0  0  0  0  0  0
   29.4460   32.7440   43.6350 C   0  0  0  0  0  0  0  0  0  0  0  0
   30.5250   32.0170   43.9760 N   0  0  0  0  0  0  0  0  0  0  0  0
   29.4060   34.0590   43.0780 N   0  0  0  0  0  0  0  0  0  0  0  0
   28.4990   34.2900   41.9860 C   0  0  0  0  0  0  0  0  0  0  0  0
   27.9640   33.3770   41.4280 N   0  0  0  0  0  0  0  0  0  0  0  0
   28.2860   35.6700   41.6200 N   0  0  0  0  0  0  0  0  0  0  0  0
   27.6060   32.5680   41.0680 H   0  0  0  0  0  0  0  0  0  0  0  0
   30.0050   34.8130   43.4430 H   0  0  0  0  0  0  0  0  0  0  0  0
   27.6480   35.9040   40.8470 H   0  0  0  0  0  0  0  0  0  0  0  0
   28.7710   36.4200   42.1330 H   0  0  0  0  0  0  0  0  0  0  0  0
   36.6200   30.9830   48.4230 C   0  0  0  0  0  0  0  0  0  0  0  0
   36.7660   31.6680   49.6120 C   0  0  0  0  0  3  0  0  0  0  0  0
   37.7720   32.5740   49.8600 C   0  0  0  0  0  3  0  0  0  0  0  0
   38.7150   32.8440   48.8860 C   0  0  0  0  0  3  0  0  0  0  0  0
   38.6080   32.1960   47.7060 C   0  0  0  0  0  0  0  0  0  0  0  0
   39.5430   32.4600   46.7260 C   0  0  0  0  0  3  0  0  0  0  0  0
   39.5210   31.8600   45.5110 C   0  0  0  0  0  3  0  0  0  0  0  0
   38.4970   30.9450   45.2750 C   0  0  0  0  0  3  0  0  0  0  0  0
   37.5860   30.7050   46.2610 C   0  0  0  0  0  3  0  0  0  0  0  0
   37.5870   31.2950   47.4930 C   0  0  0  0  0  0  0  0  0  0  0  0
  2  1  2  0  0  0  0
  3  4  2  0  0  0  0
  3  2  1  0  0  0  0
  4  5  1  0  0  0  0
  5 25  1  0  0  0  0
  5  6  2  0  0  0  0
  6  1  1  0  0  0  0
  7  3  1  0  0  0  0
  8  7  1  0  0  0  0
  9 10  1  0  0  0  0
  9  8  2  0  0  0  0
 10 11  2  0  0  0  0
 11  7  1  0  0  0  0
 12 10  1  0  0  0  0
 13 12  2  0  0  0  0
 14 13  1  0  0  0  0
 15 14  1  0  0  0  0
 15 16  2  0  0  0  0
 16 12  1  0  0  0  0
 17 22  1  0  0  0  0
 17 15  1  0  0  0  0
 18 17  1  0  0  0  0
 19 18  2  0  0  0  0
 20 18  1  0  0  0  0
 20 24  1  0  0  0  0
 21 19  1  0  0  0  0
 23 20  1  0  0  0  0
 25 26  1  0  0  0  0
 26 27  2  0  0  0  0
 28 27  1  0  0  0  0
 29 28  2  0  0  0  0
 30 29  1  0  0  0  0
 31 30  2  0  0  0  0
 32 31  1  0  0  0  0
 32 33  2  0  0  0  0
 33 34  1  0  0  0  0
 34 29  1  0  0  0  0
 34 25  2  0  0  0  0
M  END
>  <minimizedAffinity>
-8.01591969

$$$$

 OpenBabel03272514323D

 34 38  0  0  0  0  0  0  0  0999 V2000
   35.3180   29.3170   43.4640 C   0  0  0  0  0  3  0  0  0  0  0  0
   34.0070   29.6910   43.1970 C   0  0  0  0  0  3  0  0  0  0  0  0
   33.3620   30.3310   44.2530 C   0  0  0  0  0  0  0  0  0  0  0  0
   34.0260   30.5240   45.3830 N   0  0  0  0  0  0  0  0  0  0  0  0
   35.2700   30.1690   45.6390 C   0  0  0  0  0  0  0  0  0  0  0  0
   35.8810   29.5670   44.6430 N   0  0  0  0  0  0  0  0  0  0  0  0
   32.0250   30.7700   44.1270 N   0  0  0  0  0  0  0  0  0  0  0  0
   31.5160   31.5750   43.1790 C   0  0  0  0  0  3  0  0  0  0  0  0
   30.2330   31.7700   43.3820 N   0  0  0  0  0  0  0  0  0  0  0  0
   29.8810   31.0920   44.4700 C   0  0  0  0  0  0  0  0  0  0  0  0
   31.0060   30.4760   44.9250 N   0  0  0  0  0  0  0  0  0  0  0  0
   28.6380   30.9010   45.2030 C   0  0  0  0  0  0  0  0  0  0  0  0
   27.5840   31.6650   45.5120 N   0  0  0  0  0  0  0  0  0  0  0  0
   26.7140   30.9910   46.2060 O   0  0  0  0  0  0  0  0  0  0  0  0
   27.1950   29.7550   46.3660 C   0  0  0  0  0  0  0  0  0  0  0  0
   28.3900   29.6720   45.7520 N   0  0  0  0  0  0  0  0  0  0  0  0
   26.4980   28.7350   47.0840 N   0  0  0  0  0  0  0  0  0  0  0  0
   25.8950   29.1000   48.3370 C   0  0  0  0  0  0  0  0  0  0  0  0
   26.1500   30.1460   48.8600 N   0  0  0  0  0  0  0  0  0  0  0  0
   24.9840   28.1370   48.9070 N   0  0  0  0  0  0  0  0  0  0  0  0
   26.4350   31.0030   49.1710 H   0  0  0  0  0  0  0  0  0  0  0  0
   26.4300   27.7750   46.7180 H   0  0  0  0  0  0  0  0  0  0  0  0
   24.5180   28.3370   49.8030 H   0  0  0  0  0  0  0  0  0  0  0  0
   24.7990   27.2500   48.4160 H   0  0  0  0  0  0  0  0  0  0  0  0
   36.1060   30.3190   46.8160 C   0  0  0  0  0  0  0  0  0  0  0  0
   37.3690   30.8720   46.7460 C   0  0  0  0  0  3  0  0  0  0  0  0
   38.1980   31.0380   47.8310 C   0  0  0  0  0  3  0  0  0  0  0  0
   37.7810   30.6400   49.0870 C   0  0  0  0  0  3  0  0  0  0  0  0
   36.5520   30.0920   49.2000 C   0  0  0  0  0  0  0  0  0  0  0  0
   36.1260   29.6890   50.4500 C   0  0  0  0  0  3  0  0  0  0  0  0
   34.9110   29.1300   50.6660 C   0  0  0  0  0  3  0  0  0  0  0  0
   34.0820   28.9690   49.5570 C   0  0  0  0  0  3  0  0  0  0  0  0
   34.5290   29.3750   48.3350 C   0  0  0  0  0  3  0  0  0  0  0  0
   35.7480   29.9420   48.0910 C   0  0  0  0  0  0  0  0  0  0  0  0
  1  6  1  0  0  0  0
  2  1  2  0  0  0  0
  2  3  1  0  0  0  0
  3  4  2  0  0  0  0
  4  5  1  0  0  0  0
  5 25  1  0  0  0  0
  6  5  2  0  0  0  0
  7  3  1  0  0  0  0
  7 11  1  0  0  0  0
  8  9  2  0  0  0  0
  8  7  1  0  0  0  0
  9 10  1  0  0  0  0
 10 11  2  0  0  0  0
 10 12  1  0  0  0  0
 12 13  2  0  0  0  0
 12 16  1  0  0  0  0
 13 14  1  0  0  0  0
 14 15  1  0  0  0  0
 15 17  1  0  0  0  0
 16 15  2  0  0  0  0
 17 18  1  0  0  0  0
 18 19  2  0  0  0  0
 18 20  1  0  0  0  0
 19 21  1  0  0  0  0
 20 23  1  0  0  0  0
 22 17  1  0  0  0  0
 24 20  1  0  0  0  0
 25 34  1  0  0  0  0
 26 25  2  0  0  0  0
 26 27  1  0  0  0  0
 27 28  2  0  0  0  0
 28 29  1  0  0  0  0
 29 30  1  0  0  0  0
 30 31  2  0  0  0  0
 32 31  1  0  0  0  0
 33 32  2  0  0  0  0
 34 33  1  0  0  0  0
 34 29  2  0  0  0  0
M  END
>  <minimizedAffinity>
-7.91631413

$$$$

 OpenBabel03272514323D

 34 38  0  0  0  0  0  0  0  0999 V2000
   25.1380   31.9990   48.2610 C   0  0  0  0  0  3  0  0  0  0  0  0
   25.5980   32.4160   47.0180 C   0  0  0  0  0  3  0  0  0  0  0  0
   26.6480   31.6570   46.5070 C   0  0  0  0  0  0  0  0  0  0  0  0
   27.1070   30.6390   47.2200 N   0  0  0  0  0  0  0  0  0  0  0  0
   26.6720   30.2430   48.4000 C   0  0  0  0  0  0  0  0  0  0  0  0
   25.6790   30.9560   48.8840 N   0  0  0  0  0  0  0  0  0  0  0  0
   27.2190   31.9620   45.2510 N   0  0  0  0  0  0  0  0  0  0  0  0
   26.5830   32.0820   44.0730 C   0  0  0  0  0  3  0  0  0  0  0  0
   27.4360   32.3710   43.1170 N   0  0  0  0  0  0  0  0  0  0  0  0
   28.6490   32.4450   43.6570 C   0  0  0  0  0  0  0  0  0  0  0  0
   28.5000   32.1860   44.9850 N   0  0  0  0  0  0  0  0  0  0  0  0
   29.9840   32.7210   43.1470 C   0  0  0  0  0  0  0  0  0  0  0  0
   31.0450   31.9840   42.7990 N   0  0  0  0  0  0  0  0  0  0  0  0
   32.0200   32.7430   42.3920 O   0  0  0  0  0  0  0  0  0  0  0  0
   31.6040   34.0110   42.4710 C   0  0  0  0  0  0  0  0  0  0  0  0
   30.3430   34.0250   42.9380 N   0  0  0  0  0  0  0  0  0  0  0  0
   32.4220   35.1220   42.1010 N   0  0  0  0  0  0  0  0  0  0  0  0
   33.7910   35.1160   42.5440 C   0  0  0  0  0  0  0  0  0  0  0  0
   34.1670   34.3310   43.3650 N   0  0  0  0  0  0  0  0  0  0  0  0
   34.6560   36.1030   41.9440 N   0  0  0  0  0  0  0  0  0  0  0  0
   34.3390   33.6590   44.0210 H   0  0  0  0  0  0  0  0  0  0  0  0
   32.0470   35.8990   41.5380 H   0  0  0  0  0  0  0  0  0  0  0  0
   35.6470   36.1520   42.2170 H   0  0  0  0  0  0  0  0  0  0  0  0
   34.2820   36.7570   41.2410 H   0  0  0  0  0  0  0  0  0  0  0  0
   27.0770   29.1580   49.2770 C   0  0  0  0  0  0  0  0  0  0  0  0
   26.2970   28.7530   50.3410 C   0  0  0  0  0  3  0  0  0  0  0  0
   26.6350   27.7310   51.1980 C   0  0  0  0  0  3  0  0  0  0  0  0
   27.8200   27.0420   51.0190 C   0  0  0  0  0  3  0  0  0  0  0  0
   28.6140   27.4080   49.9900 C   0  0  0  0  0  0  0  0  0  0  0  0
   29.8010   26.7280   49.8040 C   0  0  0  0  0  3  0  0  0  0  0  0
   30.6640   27.0210   48.8010 C   0  0  0  0  0  3  0  0  0  0  0  0
   30.3080   28.0580   47.9410 C   0  0  0  0  0  3  0  0  0  0  0  0
   29.1300   28.7120   48.1490 C   0  0  0  0  0  3  0  0  0  0  0  0
   28.2430   28.4370   49.1510 C   0  0  0  0  0  0  0  0  0  0  0  0
  1  6  1  0  0  0  0
  2  1  2  0  0  0  0
  3  2  1  0  0  0  0
  3  4  2  0  0  0  0
  4  5  1  0  0  0  0
  5  6  2  0  0  0  0
  5 25  1  0  0  0  0
  7  3  1  0  0  0  0
  8  7  1  0  0  0  0
  9 10  1  0  0  0  0
  9  8  2  0  0  0  0
 10 11  2  0  0  0  0
 11  7  1  0  0  0  0
 12 10  1  0  0  0  0
 13 12  2  0  0  0  0
 14 15  1  0  0  0  0
 14 13  1  0  0  0  0
 15 16  2  0  0  0  0
 16 12  1  0  0  0  0
 17 15  1  0  0  0  0
 17 18  1  0  0  0  0
 18 19  2  0  0  0  0
 19 21  1  0  0  0  0
 20 23  1  0  0  0  0
 20 18  1  0  0  0  0
 22 17  1  0  0  0  0
 24 20  1  0  0  0  0
 25 26  1  0  0  0  0
 26 27  2  0  0  0  0
 28 27  1  0  0  0  0
 29 28  2  0  0  0  0
 30 29  1  0  0  0  0
 31 30  2  0  0  0  0
 32 33  2  0  0  0  0
 32 31  1  0  0  0  0
 33 34  1  0  0  0  0
 34 25  2  0  0  0  0
 34 29  1  0  0  0  0
M  END
>  <minimizedAffinity>
-7.71592712

$$$$

 OpenBabel03272514323D

 34 38  0  0  0  0  0  0  0  0999 V2000
   26.3240   31.0640   48.9260 C   0  0  0  0  0  3  0  0  0  0  0  0
   27.1080   29.9180   48.8930 C   0  0  0  0  0  3  0  0  0  0  0  0
   27.5730   29.5730   47.6250 C   0  0  0  0  0  0  0  0  0  0  0  0
   27.2420   30.3360   46.5940 N   0  0  0  0  0  0  0  0  0  0  0  0
   26.4970   31.4230   46.6240 C   0  0  0  0  0  0  0  0  0  0  0  0
   26.0590   31.7530   47.8190 N   0  0  0  0  0  0  0  0  0  0  0  0
   28.3840   28.4310   47.4360 N   0  0  0  0  0  0  0  0  0  0  0  0
   29.5350   28.1360   48.0640 C   0  0  0  0  0  3  0  0  0  0  0  0
   30.0130   26.9910   47.6300 N   0  0  0  0  0  0  0  0  0  0  0  0
   29.1790   26.5190   46.7100 C   0  0  0  0  0  0  0  0  0  0  0  0
   28.1700   27.4260   46.5970 N   0  0  0  0  0  0  0  0  0  0  0  0
   29.1410   25.3290   45.8730 C   0  0  0  0  0  0  0  0  0  0  0  0
   29.8290   24.1830   45.8080 N   0  0  0  0  0  0  0  0  0  0  0  0
   29.3800   23.4290   44.8470 O   0  0  0  0  0  0  0  0  0  0  0  0
   28.3750   24.0830   44.2580 C   0  0  0  0  0  0  0  0  0  0  0  0
   28.2050   25.2660   44.8750 N   0  0  0  0  0  0  0  0  0  0  0  0
   27.6430   23.5490   43.1530 N   0  0  0  0  0  0  0  0  0  0  0  0
   28.3940   22.9230   42.0980 C   0  0  0  0  0  0  0  0  0  0  0  0
   29.5830   23.0370   42.0400 N   0  0  0  0  0  0  0  0  0  0  0  0
   27.6280   22.1670   41.1370 N   0  0  0  0  0  0  0  0  0  0  0  0
   30.5210   23.2050   42.1050 H   0  0  0  0  0  0  0  0  0  0  0  0
   26.6150   23.6100   43.1130 H   0  0  0  0  0  0  0  0  0  0  0  0
   28.1050   21.6940   40.3570 H   0  0  0  0  0  0  0  0  0  0  0  0
   26.6040   22.1000   41.2320 H   0  0  0  0  0  0  0  0  0  0  0  0
   26.0650   32.3410   45.5840 C   0  0  0  0  0  0  0  0  0  0  0  0
   26.0490   31.9760   44.2530 C   0  0  0  0  0  3  0  0  0  0  0  0
   25.6470   32.8070   43.2330 C   0  0  0  0  0  3  0  0  0  0  0  0
   25.2260   34.0930   43.5130 C   0  0  0  0  0  3  0  0  0  0  0  0
   25.2260   34.4910   44.8030 C   0  0  0  0  0  0  0  0  0  0  0  0
   24.8090   35.7740   45.0940 C   0  0  0  0  0  3  0  0  0  0  0  0
   24.7730   36.2650   46.3560 C   0  0  0  0  0  3  0  0  0  0  0  0
   25.1830   35.4120   47.3800 C   0  0  0  0  0  3  0  0  0  0  0  0
   25.5910   34.1500   47.0630 C   0  0  0  0  0  3  0  0  0  0  0  0
   25.6360   33.6310   45.8000 C   0  0  0  0  0  0  0  0  0  0  0  0
  2  1  1  0  0  0  0
  3  2  2  0  0  0  0
  4  5  2  0  0  0  0
  4  3  1  0  0  0  0
  5  6  1  0  0  0  0
  6  1  2  0  0  0  0
  7  3  1  0  0  0  0
  7  8  1  0  0  0  0
  9  8  2  0  0  0  0
 10  9  1  0  0  0  0
 11 10  2  0  0  0  0
 11  7  1  0  0  0  0
 12 10  1  0  0  0  0
 13 12  2  0  0  0  0
 14 13  1  0  0  0  0
 15 14  1  0  0  0  0
 15 16  2  0  0  0  0
 16 12  1  0  0  0  0
 17 15  1  0  0  0  0
 18 17  1  0  0  0  0
 19 18  2  0  0  0  0
 19 21  1  0  0  0  0
 20 24  1  0  0  0  0
 20 18  1  0  0  0  0
 22 17  1  0  0  0  0
 23 20  1  0  0  0  0
 25 34  1  0  0  0  0
 25  5  1  0  0  0  0
 26 25  2  0  0  0  0
 27 28  2  0  0  0  0
 27 26  1  0  0  0  0
 28 29  1  0  0  0  0
 29 30  2  0  0  0  0
 29 34  1  0  0  0  0
 30 31  1  0  0  0  0
 31 32  2  0  0  0  0
 33 32  1  0  0  0  0
 34 33  2  0  0  0  0
M  END
>  <minimizedAffinity>
-7.46405649

$$$$

 OpenBabel03272514323D

 34 38  0  0  0  0  0  0  0  0999 V2000
   31.8440   25.8540   47.9420 C   0  0  0  0  0  3  0  0  0  0  0  0
   32.4490   26.7620   47.0820 C   0  0  0  0  0  3  0  0  0  0  0  0
   31.8460   28.0180   47.0520 C   0  0  0  0  0  0  0  0  0  0  0  0
   30.7850   28.2350   47.8150 N   0  0  0  0  0  0  0  0  0  0  0  0
   30.2090   27.3740   48.6300 C   0  0  0  0  0  0  0  0  0  0  0  0
   30.7770   26.1890   48.6630 N   0  0  0  0  0  0  0  0  0  0  0  0
   32.3520   29.0460   46.2240 N   0  0  0  0  0  0  0  0  0  0  0  0
   33.6080   29.5220   46.1920 C   0  0  0  0  0  3  0  0  0  0  0  0
   33.7130   30.4800   45.2980 N   0  0  0  0  0  0  0  0  0  0  0  0
   32.5220   30.6440   44.7300 C   0  0  0  0  0  0  0  0  0  0  0  0
   31.6840   29.7460   45.3170 N   0  0  0  0  0  0  0  0  0  0  0  0
   31.9900   31.5210   43.6980 C   0  0  0  0  0  0  0  0  0  0  0  0
   31.9970   31.5370   42.3600 N   0  0  0  0  0  0  0  0  0  0  0  0
   31.3560   32.5740   41.9070 O   0  0  0  0  0  0  0  0  0  0  0  0
   30.9130   33.2660   42.9610 C   0  0  0  0  0  0  0  0  0  0  0  0
   31.2930   32.6340   44.0860 N   0  0  0  0  0  0  0  0  0  0  0  0
   30.1610   34.4750   42.8380 N   0  0  0  0  0  0  0  0  0  0  0  0
   30.6160   35.4450   41.8790 C   0  0  0  0  0  0  0  0  0  0  0  0
   31.6920   35.3440   41.3670 N   0  0  0  0  0  0  0  0  0  0  0  0
   29.7030   36.5240   41.5870 N   0  0  0  0  0  0  0  0  0  0  0  0
   32.5660   35.1510   41.0330 H   0  0  0  0  0  0  0  0  0  0  0  0
   29.3240   34.6450   43.4150 H   0  0  0  0  0  0  0  0  0  0  0  0
   29.9680   37.2520   40.9090 H   0  0  0  0  0  0  0  0  0  0  0  0
   28.7870   36.5650   42.0570 H   0  0  0  0  0  0  0  0  0  0  0  0
   29.0600   27.4810   49.5120 C   0  0  0  0  0  0  0  0  0  0  0  0
   29.0940   27.0160   50.8110 C   0  0  0  0  0  3  0  0  0  0  0  0
   28.0350   27.0960   51.6850 C   0  0  0  0  0  3  0  0  0  0  0  0
   26.8450   27.6700   51.2790 C   0  0  0  0  0  3  0  0  0  0  0  0
   26.7680   28.1370   50.0140 C   0  0  0  0  0  0  0  0  0  0  0  0
   25.5840   28.7100   49.5980 C   0  0  0  0  0  3  0  0  0  0  0  0
   25.4090   29.2070   48.3490 C   0  0  0  0  0  3  0  0  0  0  0  0
   26.4910   29.1190   47.4750 C   0  0  0  0  0  3  0  0  0  0  0  0
   27.6490   28.5470   47.9140 C   0  0  0  0  0  3  0  0  0  0  0  0
   27.8500   28.0400   49.1660 C   0  0  0  0  0  0  0  0  0  0  0  0
  1  6  1  0  0  0  0
  2  1  2  0  0  0  0
  3  2  1  0  0  0  0
  3  4  2  0  0  0  0
  4  5  1  0  0  0  0
  5  6  2  0  0  0  0
  5 25  1  0  0  0  0
  7  3  1  0  0  0  0
  8  7  1  0  0  0  0
  9  8  2  0  0  0  0
 10  9  1  0  0  0  0
 10 11  2  0  0  0  0
 11  7  1  0  0  0  0
 12 16  1  0  0  0  0
 12 10  1  0  0  0  0
 13 12  2  0  0  0  0
 14 13  1  0  0  0  0
 14 15  1  0  0  0  0
 15 16  2  0  0  0  0
 17 15  1  0  0  0  0
 17 22  1  0  0  0  0
 18 17  1  0  0  0  0
 19 18  2  0  0  0  0
 20 18  1  0  0  0  0
 20 24  1  0  0  0  0
 21 19  1  0  0  0  0
 23 20  1  0  0  0  0
 25 26  1  0  0  0  0
 26 27  2  0  0  0  0
 28 27  1  0  0  0  0
 29 28  2  0  0  0  0
 30 29  1  0  0  0  0
 31 30  2  0  0  0  0
 32 33  2  0  0  0  0
 32 31  1  0  0  0  0
 33 34  1  0  0  0  0
 34 25  2  0  0  0  0
 34 29  1  0  0  0  0
M  END
>  <minimizedAffinity>
-7.45951843

$$$$
