
 OpenBabel03272514303D

 31 35  0  0  0  0  0  0  0  0999 V2000
   34.5670   29.4450   44.6090 C   0  0  0  0  0  3  0  0  0  0  0  0
   33.4430   28.7370   45.0350 C   0  0  0  0  0  3  0  0  0  0  0  0
   33.3380   28.6110   46.3910 C   0  0  0  0  0  0  0  0  0  0  0  0
   34.2750   29.1480   47.1720 N   0  0  0  0  0  0  0  0  0  0  0  0
   35.3320   29.8120   46.7960 C   0  0  0  0  0  0  0  0  0  0  0  0
   35.4450   29.9420   45.4860 N   0  0  0  0  0  0  0  0  0  0  0  0
   32.2510   27.9170   46.9990 N   0  0  0  0  0  0  0  0  0  0  0  0
   32.2870   26.6630   47.4940 C   0  0  0  0  0  3  0  0  0  0  0  0
   31.0960   26.3340   47.9870 N   0  0  0  0  0  0  0  0  0  0  0  0
   30.2860   27.3750   47.8130 C   0  0  0  0  0  0  0  0  0  0  0  0
   31.0150   28.3280   47.2070 N   0  0  0  0  0  0  0  0  0  0  0  0
   28.9130   27.6120   48.1320 N   0  0  0  0  0  0  0  0  0  0  0  0
   27.9320   27.2610   47.2670 C   0  0  0  0  0  3  0  0  0  0  0  0
   26.6140   27.5110   47.6200 C   0  0  0  0  0  3  0  0  0  0  0  0
   26.2850   28.1010   48.8190 C   0  0  0  0  0  0  0  0  0  0  0  0
   24.9190   28.3400   49.1460 N   0  0  0  0  0  0  0  0  0  0  0  0
   27.2760   28.4410   49.6640 N   0  0  0  0  0  0  0  0  0  0  0  0
   28.5470   28.1860   49.2920 C   0  0  0  0  0  0  0  0  0  0  0  0
   29.5020   28.4990   50.0750 O   0  0  0  0  0  0  0  0  0  0  0  0
   24.6740   28.7820   50.0440 H   0  0  0  0  0  0  0  0  0  0  0  0
   24.1750   28.0710   48.4860 H   0  0  0  0  0  0  0  0  0  0  0  0
   36.4180   30.4430   47.5280 C   0  0  0  0  0  0  0  0  0  0  0  0
   37.3220   31.2810   46.9080 C   0  0  0  0  0  3  0  0  0  0  0  0
   38.3710   31.9060   47.5530 C   0  0  0  0  0  3  0  0  0  0  0  0
   38.5550   31.7030   48.8990 C   0  0  0  0  0  3  0  0  0  0  0  0
   37.6930   30.8890   49.5510 C   0  0  0  0  0  0  0  0  0  0  0  0
   37.8850   30.6870   50.9140 C   0  0  0  0  0  3  0  0  0  0  0  0
   37.0760   29.8930   51.6460 C   0  0  0  0  0  3  0  0  0  0  0  0
   36.0170   29.2680   50.9680 C   0  0  0  0  0  3  0  0  0  0  0  0
   35.8580   29.4890   49.6260 C   0  0  0  0  0  3  0  0  0  0  0  0
   36.6600   30.2820   48.8810 C   0  0  0  0  0  0  0  0  0  0  0  0
  1  2  2  0  0  0  0
  1  6  1  0  0  0  0
  2  3  1  0  0  0  0
  3  7  1  0  0  0  0
  3  4  2  0  0  0  0
  5  4  1  0  0  0  0
  5 22  1  0  0  0  0
  6  5  2  0  0  0  0
  7 11  1  0  0  0  0
  7  8  1  0  0  0  0
  8  9  2  0  0  0  0
 10  9  1  0  0  0  0
 10 12  1  0  0  0  0
 11 10  2  0  0  0  0
 12 18  1  0  0  0  0
 13 14  2  0  0  0  0
 13 12  1  0  0  0  0
 14 15  1  0  0  0  0
 15 16  1  0  0  0  0
 15 17  2  0  0  0  0
 16 20  1  0  0  0  0
 18 17  1  0  0  0  0
 18 19  2  0  0  0  0
 21 16  1  0  0  0  0
 22 31  1  0  0  0  0
 23 22  2  0  0  0  0
 23 24  1  0  0  0  0
 24 25  2  0  0  0  0
 25 26  1  0  0  0  0
 26 27  1  0  0  0  0
 27 28  2  0  0  0  0
 29 28  1  0  0  0  0
 30 29  2  0  0  0  0
 31 26  2  0  0  0  0
 31 30  1  0  0  0  0
M  END
>  <minimizedAffinity>
-9.10022926

$$$$

 OpenBabel03272514303D

 31 35  0  0  0  0  0  0  0  0999 V2000
   34.7460   29.4050   45.5190 C   0  0  0  0  0  3  0  0  0  0  0  0
   33.5020   28.7760   45.4780 C   0  0  0  0  0  3  0  0  0  0  0  0
   33.0010   28.4400   46.7030 C   0  0  0  0  0  0  0  0  0  0  0  0
   33.7050   28.7240   47.7980 N   0  0  0  0  0  0  0  0  0  0  0  0
   34.8690   29.3090   47.8590 C   0  0  0  0  0  0  0  0  0  0  0  0
   35.3640   29.6400   46.6800 N   0  0  0  0  0  0  0  0  0  0  0  0
   31.7390   27.7900   46.8470 N   0  0  0  0  0  0  0  0  0  0  0  0
   31.4500   26.5270   46.4720 C   0  0  0  0  0  3  0  0  0  0  0  0
   30.1800   26.2490   46.7540 N   0  0  0  0  0  0  0  0  0  0  0  0
   29.6440   27.3310   47.3120 C   0  0  0  0  0  0  0  0  0  0  0  0
   30.6170   28.2570   47.3560 N   0  0  0  0  0  0  0  0  0  0  0  0
   28.3400   27.6300   47.8160 N   0  0  0  0  0  0  0  0  0  0  0  0
   27.3770   28.1130   46.9950 C   0  0  0  0  0  3  0  0  0  0  0  0
   26.1270   28.3880   47.5280 C   0  0  0  0  0  3  0  0  0  0  0  0
   25.8460   28.1830   48.8590 C   0  0  0  0  0  0  0  0  0  0  0  0
   24.5490   28.4770   49.3700 N   0  0  0  0  0  0  0  0  0  0  0  0
   26.8180   27.7020   49.6570 N   0  0  0  0  0  0  0  0  0  0  0  0
   28.0230   27.4450   49.1090 C   0  0  0  0  0  0  0  0  0  0  0  0
   28.9590   26.9900   49.8440 O   0  0  0  0  0  0  0  0  0  0  0  0
   24.3410   28.3230   50.3670 H   0  0  0  0  0  0  0  0  0  0  0  0
   23.8180   28.8430   48.7420 H   0  0  0  0  0  0  0  0  0  0  0  0
   35.7360   29.6750   48.9670 C   0  0  0  0  0  0  0  0  0  0  0  0
   35.5970   29.1080   50.2170 C   0  0  0  0  0  3  0  0  0  0  0  0
   36.3920   29.4180   51.3040 C   0  0  0  0  0  3  0  0  0  0  0  0
   37.3930   30.3480   51.1660 C   0  0  0  0  0  3  0  0  0  0  0  0
   37.5680   30.9320   49.9580 C   0  0  0  0  0  0  0  0  0  0  0  0
   38.5840   31.8730   49.8260 C   0  0  0  0  0  3  0  0  0  0  0  0
   38.8320   32.5070   48.6600 C   0  0  0  0  0  3  0  0  0  0  0  0
   38.0120   32.1750   47.5710 C   0  0  0  0  0  3  0  0  0  0  0  0
   37.0210   31.2450   47.7370 C   0  0  0  0  0  3  0  0  0  0  0  0
   36.7620   30.6020   48.8970 C   0  0  0  0  0  0  0  0  0  0  0  0
  1  6  1  0  0  0  0
  2  1  2  0  0  0  0
  2  3  1  0  0  0  0
  3  7  1  0  0  0  0
  3  4  2  0  0  0  0
  4  5  1  0  0  0  0
  5 22  1  0  0  0  0
  6  5  2  0  0  0  0
  7 11  1  0  0  0  0
  8  9  2  0  0  0  0
  8  7  1  0  0  0  0
  9 10  1  0  0  0  0
 10 11  2  0  0  0  0
 10 12  1  0  0  0  0
 12 18  1  0  0  0  0
 13 14  2  0  0  0  0
 13 12  1  0  0  0  0
 14 15  1  0  0  0  0
 15 16  1  0  0  0  0
 15 17  2  0  0  0  0
 16 20  1  0  0  0  0
 18 17  1  0  0  0  0
 18 19  2  0  0  0  0
 21 16  1  0  0  0  0
 22 23  1  0  0  0  0
 23 24  2  0  0  0  0
 25 24  1  0  0  0  0
 26 25  2  0  0  0  0
 27 26  1  0  0  0  0
 28 27  2  0  0  0  0
 29 30  2  0  0  0  0
 29 28  1  0  0  0  0
 30 31  1  0  0  0  0
 31 22  2  0  0  0  0
 31 26  1  0  0  0  0
M  END
>  <minimizedAffinity>
-9.07146645

$$$$

 OpenBabel03272514303D

 31 35  0  0  0  0  0  0  0  0999 V2000
   33.0390   25.8420   47.5320 C   0  0  0  0  0  3  0  0  0  0  0  0
   31.6660   26.0680   47.4540 C   0  0  0  0  0  3  0  0  0  0  0  0
   31.3150   27.3880   47.4180 C   0  0  0  0  0  0  0  0  0  0  0  0
   32.2670   28.3200   47.4600 N   0  0  0  0  0  0  0  0  0  0  0  0
   33.5550   28.1290   47.5350 C   0  0  0  0  0  0  0  0  0  0  0  0
   33.9070   26.8570   47.5690 N   0  0  0  0  0  0  0  0  0  0  0  0
   29.9520   27.8020   47.3380 N   0  0  0  0  0  0  0  0  0  0  0  0
   28.8850   26.9930   47.1790 C   0  0  0  0  0  3  0  0  0  0  0  0
   27.7680   27.7140   47.1440 N   0  0  0  0  0  0  0  0  0  0  0  0
   28.1100   28.9930   47.2810 C   0  0  0  0  0  0  0  0  0  0  0  0
   29.4480   29.0190   47.3960 N   0  0  0  0  0  0  0  0  0  0  0  0
   27.3580   30.2080   47.3190 N   0  0  0  0  0  0  0  0  0  0  0  0
   27.0510   30.8670   46.1760 C   0  0  0  0  0  3  0  0  0  0  0  0
   26.3210   32.0420   46.2620 C   0  0  0  0  0  3  0  0  0  0  0  0
   25.9050   32.5500   47.4720 C   0  0  0  0  0  0  0  0  0  0  0  0
   25.1550   33.7600   47.5190 N   0  0  0  0  0  0  0  0  0  0  0  0
   26.2210   31.8780   48.5950 N   0  0  0  0  0  0  0  0  0  0  0  0
   26.9330   30.7390   48.4790 C   0  0  0  0  0  0  0  0  0  0  0  0
   27.2440   30.0870   49.5280 O   0  0  0  0  0  0  0  0  0  0  0  0
   24.8450   34.1380   48.4260 H   0  0  0  0  0  0  0  0  0  0  0  0
   24.9220   34.2570   46.6480 H   0  0  0  0  0  0  0  0  0  0  0  0
   34.6890   29.0380   47.5860 C   0  0  0  0  0  0  0  0  0  0  0  0
   35.1810   29.6520   46.4530 C   0  0  0  0  0  3  0  0  0  0  0  0
   36.2530   30.5220   46.4430 C   0  0  0  0  0  3  0  0  0  0  0  0
   36.8950   30.8170   47.6210 C   0  0  0  0  0  3  0  0  0  0  0  0
   36.4490   30.2380   48.7600 C   0  0  0  0  0  0  0  0  0  0  0  0
   37.1050   30.5410   49.9490 C   0  0  0  0  0  3  0  0  0  0  0  0
   36.7300   30.0120   51.1330 C   0  0  0  0  0  3  0  0  0  0  0  0
   35.6380   29.1310   51.1180 C   0  0  0  0  0  3  0  0  0  0  0  0
   35.0160   28.8550   49.9290 C   0  0  0  0  0  3  0  0  0  0  0  0
   35.3800   29.3770   48.7360 C   0  0  0  0  0  0  0  0  0  0  0  0
  1  6  1  0  0  0  0
  2  1  2  0  0  0  0
  3  2  1  0  0  0  0
  3  4  2  0  0  0  0
  4  5  1  0  0  0  0
  5  6  2  0  0  0  0
  5 22  1  0  0  0  0
  7 11  1  0  0  0  0
  7  3  1  0  0  0  0
  8  7  1  0  0  0  0
  9  8  2  0  0  0  0
  9 10  1  0  0  0  0
 10 12  1  0  0  0  0
 10 11  2  0  0  0  0
 12 18  1  0  0  0  0
 13 14  2  0  0  0  0
 13 12  1  0  0  0  0
 14 15  1  0  0  0  0
 15 16  1  0  0  0  0
 15 17  2  0  0  0  0
 16 20  1  0  0  0  0
 18 17  1  0  0  0  0
 18 19  2  0  0  0  0
 21 16  1  0  0  0  0
 22 31  1  0  0  0  0
 23 22  2  0  0  0  0
 24 23  1  0  0  0  0
 24 25  2  0  0  0  0
 25 26  1  0  0  0  0
 26 27  1  0  0  0  0
 27 28  2  0  0  0  0
 29 28  1  0  0  0  0
 30 29  2  0  0  0  0
 31 26  2  0  0  0  0
 31 30  1  0  0  0  0
M  END
>  <minimizedAffinity>
-8.64658451

$$$$

 OpenBabel03272514303D

 31 35  0  0  0  0  0  0  0  0999 V2000
   35.5870   29.8700   44.0300 C   0  0  0  0  0  3  0  0  0  0  0  0
   34.3240   29.2970   44.1680 C   0  0  0  0  0  3  0  0  0  0  0  0
   33.8770   29.2260   45.4570 C   0  0  0  0  0  0  0  0  0  0  0  0
   34.6470   29.6880   46.4430 N   0  0  0  0  0  0  0  0  0  0  0  0
   35.8300   30.2250   46.3350 C   0  0  0  0  0  0  0  0  0  0  0  0
   36.2720   30.3010   45.0930 N   0  0  0  0  0  0  0  0  0  0  0  0
   32.6050   28.6690   45.7830 N   0  0  0  0  0  0  0  0  0  0  0  0
   31.8430   27.9040   44.9740 C   0  0  0  0  0  3  0  0  0  0  0  0
   30.7210   27.5590   45.5990 N   0  0  0  0  0  0  0  0  0  0  0  0
   30.7540   28.0990   46.8150 C   0  0  0  0  0  0  0  0  0  0  0  0
   31.9130   28.7720   46.9000 N   0  0  0  0  0  0  0  0  0  0  0  0
   29.8470   28.0790   47.9200 N   0  0  0  0  0  0  0  0  0  0  0  0
   28.8550   28.9960   48.0160 C   0  0  0  0  0  3  0  0  0  0  0  0
   28.0000   28.9370   49.1070 C   0  0  0  0  0  3  0  0  0  0  0  0
   28.1360   27.9770   50.0830 C   0  0  0  0  0  0  0  0  0  0  0  0
   27.2370   27.9480   51.1880 N   0  0  0  0  0  0  0  0  0  0  0  0
   29.1300   27.0750   49.9660 N   0  0  0  0  0  0  0  0  0  0  0  0
   29.9450   27.1590   48.8960 C   0  0  0  0  0  0  0  0  0  0  0  0
   30.8920   26.3170   48.7640 O   0  0  0  0  0  0  0  0  0  0  0  0
   27.3410   27.2280   51.9180 H   0  0  0  0  0  0  0  0  0  0  0  0
   26.4830   28.6460   51.2570 H   0  0  0  0  0  0  0  0  0  0  0  0
   36.7650   30.7640   47.3090 C   0  0  0  0  0  0  0  0  0  0  0  0
   37.7340   31.6810   46.9570 C   0  0  0  0  0  3  0  0  0  0  0  0
   38.6470   32.2240   47.8390 C   0  0  0  0  0  3  0  0  0  0  0  0
   38.6170   31.8490   49.1600 C   0  0  0  0  0  3  0  0  0  0  0  0
   37.6850   30.9510   49.5530 C   0  0  0  0  0  0  0  0  0  0  0  0
   37.6610   30.5750   50.8920 C   0  0  0  0  0  3  0  0  0  0  0  0
   36.7670   29.6860   51.3750 C   0  0  0  0  0  3  0  0  0  0  0  0
   35.8500   29.1480   50.4600 C   0  0  0  0  0  3  0  0  0  0  0  0
   35.9020   29.5400   49.1490 C   0  0  0  0  0  3  0  0  0  0  0  0
   36.7910   30.4290   48.6520 C   0  0  0  0  0  0  0  0  0  0  0  0
  1  2  2  0  0  0  0
  1  6  1  0  0  0  0
  2  3  1  0  0  0  0
  3  7  1  0  0  0  0
  3  4  2  0  0  0  0
  5  4  1  0  0  0  0
  5 22  1  0  0  0  0
  6  5  2  0  0  0  0
  7 11  1  0  0  0  0
  8  9  2  0  0  0  0
  8  7  1  0  0  0  0
  9 10  1  0  0  0  0
 10 11  2  0  0  0  0
 10 12  1  0  0  0  0
 12 13  1  0  0  0  0
 12 18  1  0  0  0  0
 13 14  2  0  0  0  0
 14 15  1  0  0  0  0
 15 16  1  0  0  0  0
 16 21  1  0  0  0  0
 16 20  1  0  0  0  0
 17 15  2  0  0  0  0
 18 17  1  0  0  0  0
 19 18  2  0  0  0  0
 22 31  1  0  0  0  0
 23 22  2  0  0  0  0
 23 24  1  0  0  0  0
 24 25  2  0  0  0  0
 25 26  1  0  0  0  0
 26 27  1  0  0  0  0
 27 28  2  0  0  0  0
 29 28  1  0  0  0  0
 30 29  2  0  0  0  0
 31 30  1  0  0  0  0
 31 26  2  0  0  0  0
M  END
>  <minimizedAffinity>
-8.50119972

$$$$

 OpenBabel03272514303D

 31 35  0  0  0  0  0  0  0  0999 V2000
   33.4270   25.9210   47.3890 C   0  0  0  0  0  3  0  0  0  0  0  0
   32.0580   26.1200   47.2160 C   0  0  0  0  0  3  0  0  0  0  0  0
   31.5940   27.3030   47.7190 C   0  0  0  0  0  0  0  0  0  0  0  0
   32.4450   28.1400   48.3120 N   0  0  0  0  0  0  0  0  0  0  0  0
   33.7260   27.9720   48.4850 C   0  0  0  0  0  0  0  0  0  0  0  0
   34.1870   26.8330   48.0020 N   0  0  0  0  0  0  0  0  0  0  0  0
   30.2190   27.6710   47.6280 N   0  0  0  0  0  0  0  0  0  0  0  0
   29.1780   26.8230   47.4960 C   0  0  0  0  0  3  0  0  0  0  0  0
   28.0390   27.5080   47.4420 N   0  0  0  0  0  0  0  0  0  0  0  0
   28.3390   28.8000   47.5390 C   0  0  0  0  0  0  0  0  0  0  0  0
   29.6760   28.8720   47.6500 N   0  0  0  0  0  0  0  0  0  0  0  0
   27.5500   29.9920   47.5420 N   0  0  0  0  0  0  0  0  0  0  0  0
   27.2210   30.6050   46.3790 C   0  0  0  0  0  3  0  0  0  0  0  0
   26.4540   31.7590   46.4310 C   0  0  0  0  0  3  0  0  0  0  0  0
   26.0230   32.2890   47.6250 C   0  0  0  0  0  0  0  0  0  0  0  0
   25.2350   33.4760   47.6380 N   0  0  0  0  0  0  0  0  0  0  0  0
   26.3620   31.6630   48.7680 N   0  0  0  0  0  0  0  0  0  0  0  0
   27.1090   30.5440   48.6850 C   0  0  0  0  0  0  0  0  0  0  0  0
   27.4420   29.9340   49.7530 O   0  0  0  0  0  0  0  0  0  0  0  0
   24.9140   33.8720   48.5330 H   0  0  0  0  0  0  0  0  0  0  0  0
   24.9860   33.9390   46.7520 H   0  0  0  0  0  0  0  0  0  0  0  0
   34.7570   28.7900   49.1040 C   0  0  0  0  0  0  0  0  0  0  0  0
   34.9480   28.8070   50.4700 C   0  0  0  0  0  3  0  0  0  0  0  0
   35.9100   29.5640   51.1110 C   0  0  0  0  0  3  0  0  0  0  0  0
   36.7470   30.3620   50.3690 C   0  0  0  0  0  3  0  0  0  0  0  0
   36.5970   30.3780   49.0250 C   0  0  0  0  0  0  0  0  0  0  0  0
   37.4490   31.1890   48.2810 C   0  0  0  0  0  3  0  0  0  0  0  0
   37.3740   31.2690   46.9350 C   0  0  0  0  0  3  0  0  0  0  0  0
   36.3890   30.4910   46.3070 C   0  0  0  0  0  3  0  0  0  0  0  0
   35.5680   29.7040   47.0710 C   0  0  0  0  0  3  0  0  0  0  0  0
   35.6320   29.6140   48.4180 C   0  0  0  0  0  0  0  0  0  0  0  0
  1  6  1  0  0  0  0
  2  1  2  0  0  0  0
  2  3  1  0  0  0  0
  3  4  2  0  0  0  0
  4  5  1  0  0  0  0
  5 22  1  0  0  0  0
  6  5  2  0  0  0  0
  7 11  1  0  0  0  0
  7  3  1  0  0  0  0
  8  7  1  0  0  0  0
  9  8  2  0  0  0  0
  9 10  1  0  0  0  0
 10 12  1  0  0  0  0
 10 11  2  0  0  0  0
 12 18  1  0  0  0  0
 13 14  2  0  0  0  0
 13 12  1  0  0  0  0
 14 15  1  0  0  0  0
 15 16  1  0  0  0  0
 15 17  2  0  0  0  0
 16 20  1  0  0  0  0
 18 17  1  0  0  0  0
 18 19  2  0  0  0  0
 21 16  1  0  0  0  0
 22 23  1  0  0  0  0
 23 24  2  0  0  0  0
 25 24  1  0  0  0  0
 26 25  2  0  0  0  0
 27 26  1  0  0  0  0
 28 27  2  0  0  0  0
 29 28  1  0  0  0  0
 29 30  2  0  0  0  0
 30 31  1  0  0  0  0
 31 26  1  0  0  0  0
 31 22  2  0  0  0  0
M  END
>  <minimizedAffinity>
-8.43744469

$$$$

 OpenBabel03272514303D

 31 35  0  0  0  0  0  0  0  0999 V2000
   34.4160   29.0240   44.0850 C   0  0  0  0  0  3  0  0  0  0  0  0
   33.0440   28.9330   44.3180 C   0  0  0  0  0  3  0  0  0  0  0  0
   32.6600   29.3130   45.5720 C   0  0  0  0  0  0  0  0  0  0  0  0
   33.5830   29.7240   46.4420 N   0  0  0  0  0  0  0  0  0  0  0  0
   34.8680   29.8150   46.2450 C   0  0  0  0  0  0  0  0  0  0  0  0
   35.2520   29.4510   45.0350 N   0  0  0  0  0  0  0  0  0  0  0  0
   31.2940   29.2840   45.9820 N   0  0  0  0  0  0  0  0  0  0  0  0
   30.2390   29.7100   45.2570 C   0  0  0  0  0  3  0  0  0  0  0  0
   29.1150   29.5350   45.9460 N   0  0  0  0  0  0  0  0  0  0  0  0
   29.4390   28.9950   47.1180 C   0  0  0  0  0  0  0  0  0  0  0  0
   30.7750   28.8540   47.1150 N   0  0  0  0  0  0  0  0  0  0  0  0
   28.6730   28.5900   48.2550 N   0  0  0  0  0  0  0  0  0  0  0  0
   28.3760   29.4720   49.2380 C   0  0  0  0  0  3  0  0  0  0  0  0
   27.6300   29.0330   50.3220 C   0  0  0  0  0  3  0  0  0  0  0  0
   27.1900   27.7330   50.4190 C   0  0  0  0  0  0  0  0  0  0  0  0
   26.4250   27.3190   51.5470 N   0  0  0  0  0  0  0  0  0  0  0  0
   27.4970   26.8730   49.4290 N   0  0  0  0  0  0  0  0  0  0  0  0
   28.2230   27.3300   48.3900 C   0  0  0  0  0  0  0  0  0  0  0  0
   28.5260   26.5340   47.4420 O   0  0  0  0  0  0  0  0  0  0  0  0
   26.0970   26.3450   51.6180 H   0  0  0  0  0  0  0  0  0  0  0  0
   26.2000   27.9940   52.2930 H   0  0  0  0  0  0  0  0  0  0  0  0
   35.9720   30.2410   47.0910 C   0  0  0  0  0  0  0  0  0  0  0  0
   37.0550   30.9270   46.5810 C   0  0  0  0  0  3  0  0  0  0  0  0
   38.1290   31.3550   47.3370 C   0  0  0  0  0  3  0  0  0  0  0  0
   38.1530   31.0960   48.6860 C   0  0  0  0  0  3  0  0  0  0  0  0
   37.1120   30.4260   49.2310 C   0  0  0  0  0  0  0  0  0  0  0  0
   37.1430   30.1670   50.5980 C   0  0  0  0  0  3  0  0  0  0  0  0
   36.1500   29.5050   51.2290 C   0  0  0  0  0  3  0  0  0  0  0  0
   35.0690   29.0810   50.4400 C   0  0  0  0  0  3  0  0  0  0  0  0
   35.0720   29.3520   49.0980 C   0  0  0  0  0  3  0  0  0  0  0  0
   36.0590   30.0140   48.4530 C   0  0  0  0  0  0  0  0  0  0  0  0
  1  2  2  0  0  0  0
  1  6  1  0  0  0  0
  2  3  1  0  0  0  0
  3  7  1  0  0  0  0
  3  4  2  0  0  0  0
  5  4  1  0  0  0  0
  5 22  1  0  0  0  0
  6  5  2  0  0  0  0
  7 11  1  0  0  0  0
  8  9  2  0  0  0  0
  8  7  1  0  0  0  0
  9 10  1  0  0  0  0
 10 12  1  0  0  0  0
 11 10  2  0  0  0  0
 12 18  1  0  0  0  0
 12 13  1  0  0  0  0
 13 14  2  0  0  0  0
 14 15  1  0  0  0  0
 15 16  1  0  0  0  0
 16 20  1  0  0  0  0
 16 21  1  0  0  0  0
 17 15  2  0  0  0  0
 18 17  1  0  0  0  0
 19 18  2  0  0  0  0
 22 31  1  0  0  0  0
 23 22  2  0  0  0  0
 23 24  1  0  0  0  0
 24 25  2  0  0  0  0
 25 26  1  0  0  0  0
 26 27  1  0  0  0  0
 27 28  2  0  0  0  0
 29 28  1  0  0  0  0
 30 29  2  0  0  0  0
 31 30  1  0  0  0  0
 31 26  2  0  0  0  0
M  END
>  <minimizedAffinity>
-8.34978676

$$$$

 OpenBabel03272514303D

 31 35  0  0  0  0  0  0  0  0999 V2000
   29.0800   29.5790   44.8790 C   0  0  0  0  0  3  0  0  0  0  0  0
   30.4430   29.3090   44.9940 C   0  0  0  0  0  3  0  0  0  0  0  0
   30.8300   28.8860   46.2330 C   0  0  0  0  0  0  0  0  0  0  0  0
   29.9180   28.7690   47.1990 N   0  0  0  0  0  0  0  0  0  0  0  0
   28.6410   29.0170   47.1130 C   0  0  0  0  0  0  0  0  0  0  0  0
   28.2540   29.4260   45.9180 N   0  0  0  0  0  0  0  0  0  0  0  0
   32.1880   28.5640   46.5290 N   0  0  0  0  0  0  0  0  0  0  0  0
   32.8720   27.5020   46.0570 C   0  0  0  0  0  3  0  0  0  0  0  0
   34.1120   27.5110   46.5360 N   0  0  0  0  0  0  0  0  0  0  0  0
   34.2350   28.5790   47.3190 C   0  0  0  0  0  0  0  0  0  0  0  0
   33.0460   29.2040   47.2980 N   0  0  0  0  0  0  0  0  0  0  0  0
   35.3140   29.1070   48.0940 N   0  0  0  0  0  0  0  0  0  0  0  0
   35.5160   28.6930   49.3680 C   0  0  0  0  0  3  0  0  0  0  0  0
   36.5750   29.2330   50.0820 C   0  0  0  0  0  3  0  0  0  0  0  0
   37.4170   30.1700   49.5300 C   0  0  0  0  0  0  0  0  0  0  0  0
   38.4960   30.7010   50.2940 N   0  0  0  0  0  0  0  0  0  0  0  0
   37.1980   30.5670   48.2620 N   0  0  0  0  0  0  0  0  0  0  0  0
   36.1600   30.0240   47.5940 C   0  0  0  0  0  0  0  0  0  0  0  0
   35.9330   30.3840   46.3940 O   0  0  0  0  0  0  0  0  0  0  0  0
   39.1250   31.4030   49.8790 H   0  0  0  0  0  0  0  0  0  0  0  0
   38.6470   30.3830   51.2630 H   0  0  0  0  0  0  0  0  0  0  0  0
   27.5490   28.9330   48.0690 C   0  0  0  0  0  0  0  0  0  0  0  0
   26.3150   29.4940   47.8140 C   0  0  0  0  0  3  0  0  0  0  0  0
   25.2440   29.4450   48.6860 C   0  0  0  0  0  3  0  0  0  0  0  0
   25.3830   28.8050   49.8930 C   0  0  0  0  0  3  0  0  0  0  0  0
   26.5770   28.2400   50.1880 C   0  0  0  0  0  0  0  0  0  0  0  0
   26.7100   27.5940   51.4130 C   0  0  0  0  0  3  0  0  0  0  0  0
   27.8620   27.0010   51.7930 C   0  0  0  0  0  3  0  0  0  0  0  0
   28.9360   27.0640   50.8910 C   0  0  0  0  0  3  0  0  0  0  0  0
   28.7690   27.7090   49.6940 C   0  0  0  0  0  3  0  0  0  0  0  0
   27.6220   28.3060   49.3010 C   0  0  0  0  0  0  0  0  0  0  0  0
  1  2  2  0  0  0  0
  1  6  1  0  0  0  0
  2  3  1  0  0  0  0
  3  7  1  0  0  0  0
  3  4  2  0  0  0  0
  5  4  1  0  0  0  0
  5 22  1  0  0  0  0
  6  5  2  0  0  0  0
  7 11  1  0  0  0  0
  8  7  1  0  0  0  0
  8  9  2  0  0  0  0
  9 10  1  0  0  0  0
 10 12  1  0  0  0  0
 11 10  2  0  0  0  0
 12 13  1  0  0  0  0
 13 14  2  0  0  0  0
 15 14  1  0  0  0  0
 15 16  1  0  0  0  0
 16 21  1  0  0  0  0
 17 15  2  0  0  0  0
 18 12  1  0  0  0  0
 18 17  1  0  0  0  0
 19 18  2  0  0  0  0
 20 16  1  0  0  0  0
 22 31  1  0  0  0  0
 23 22  2  0  0  0  0
 23 24  1  0  0  0  0
 24 25  2  0  0  0  0
 25 26  1  0  0  0  0
 26 27  1  0  0  0  0
 27 28  2  0  0  0  0
 29 28  1  0  0  0  0
 30 29  2  0  0  0  0
 31 30  1  0  0  0  0
 31 26  2  0  0  0  0
M  END
>  <minimizedAffinity>
-8.18860531

$$$$

 OpenBabel03272514303D

 31 35  0  0  0  0  0  0  0  0999 V2000
   33.5280   27.0810   47.8110 C   0  0  0  0  0  3  0  0  0  0  0  0
   32.7090   27.7130   46.8760 C   0  0  0  0  0  3  0  0  0  0  0  0
   32.9220   29.0570   46.7590 C   0  0  0  0  0  0  0  0  0  0  0  0
   33.8550   29.6390   47.5130 N   0  0  0  0  0  0  0  0  0  0  0  0
   34.6290   29.0680   48.3930 C   0  0  0  0  0  0  0  0  0  0  0  0
   34.4330   27.7670   48.5150 N   0  0  0  0  0  0  0  0  0  0  0  0
   32.1730   29.8610   45.8500 N   0  0  0  0  0  0  0  0  0  0  0  0
   30.8370   29.8240   45.6730 C   0  0  0  0  0  3  0  0  0  0  0  0
   30.4760   30.7070   44.7460 N   0  0  0  0  0  0  0  0  0  0  0  0
   31.5780   31.3190   44.3210 C   0  0  0  0  0  0  0  0  0  0  0  0
   32.6000   30.7830   45.0090 N   0  0  0  0  0  0  0  0  0  0  0  0
   31.8190   32.3420   43.3520 N   0  0  0  0  0  0  0  0  0  0  0  0
   32.0170   32.0280   42.0500 C   0  0  0  0  0  3  0  0  0  0  0  0
   32.2470   33.0540   41.1460 C   0  0  0  0  0  3  0  0  0  0  0  0
   32.2780   34.3720   41.5400 C   0  0  0  0  0  0  0  0  0  0  0  0
   32.5160   35.3990   40.5810 N   0  0  0  0  0  0  0  0  0  0  0  0
   32.0780   34.6620   42.8390 N   0  0  0  0  0  0  0  0  0  0  0  0
   31.8570   33.6420   43.6940 C   0  0  0  0  0  0  0  0  0  0  0  0
   31.6660   33.8920   44.9280 O   0  0  0  0  0  0  0  0  0  0  0  0
   32.5390   36.3860   40.8780 H   0  0  0  0  0  0  0  0  0  0  0  0
   32.6650   35.1560   39.5920 H   0  0  0  0  0  0  0  0  0  0  0  0
   35.6720   29.5740   49.2700 C   0  0  0  0  0  0  0  0  0  0  0  0
   35.7170   29.2460   50.6100 C   0  0  0  0  0  3  0  0  0  0  0  0
   36.6830   29.6970   51.4880 C   0  0  0  0  0  3  0  0  0  0  0  0
   37.6770   30.5270   51.0320 C   0  0  0  0  0  3  0  0  0  0  0  0
   37.6750   30.8770   49.7250 C   0  0  0  0  0  0  0  0  0  0  0  0
   38.6850   31.7190   49.2700 C   0  0  0  0  0  3  0  0  0  0  0  0
   38.7630   32.1200   47.9840 C   0  0  0  0  0  3  0  0  0  0  0  0
   37.7710   31.6490   47.1100 C   0  0  0  0  0  3  0  0  0  0  0  0
   36.7920   30.8220   47.5920 C   0  0  0  0  0  3  0  0  0  0  0  0
   36.7010   30.4120   48.8770 C   0  0  0  0  0  0  0  0  0  0  0  0
  1  6  1  0  0  0  0
  2  1  2  0  0  0  0
  3  2  1  0  0  0  0
  3  4  2  0  0  0  0
  4  5  1  0  0  0  0
  5  6  2  0  0  0  0
  5 22  1  0  0  0  0
  7  3  1  0  0  0  0
  8  7  1  0  0  0  0
  9  8  2  0  0  0  0
 10  9  1  0  0  0  0
 10 11  2  0  0  0  0
 11  7  1  0  0  0  0
 12 18  1  0  0  0  0
 12 10  1  0  0  0  0
 13 12  1  0  0  0  0
 14 15  1  0  0  0  0
 14 13  2  0  0  0  0
 15 17  2  0  0  0  0
 16 20  1  0  0  0  0
 16 15  1  0  0  0  0
 17 18  1  0  0  0  0
 18 19  2  0  0  0  0
 21 16  1  0  0  0  0
 22 23  1  0  0  0  0
 23 24  2  0  0  0  0
 25 24  1  0  0  0  0
 26 25  2  0  0  0  0
 27 26  1  0  0  0  0
 28 27  2  0  0  0  0
 29 30  2  0  0  0  0
 29 28  1  0  0  0  0
 30 31  1  0  0  0  0
 31 22  2  0  0  0  0
 31 26  1  0  0  0  0
M  END
>  <minimizedAffinity>
-7.81300592

$$$$

 OpenBabel03272514303D

 31 35  0  0  0  0  0  0  0  0999 V2000
   35.3850   29.7980   44.2700 C   0  0  0  0  0  3  0  0  0  0  0  0
   34.1410   29.1970   44.4540 C   0  0  0  0  0  3  0  0  0  0  0  0
   33.7430   29.1130   45.7580 C   0  0  0  0  0  0  0  0  0  0  0  0
   34.5380   29.5900   46.7160 N   0  0  0  0  0  0  0  0  0  0  0  0
   35.7050   30.1530   46.5660 C   0  0  0  0  0  0  0  0  0  0  0  0
   36.1000   30.2410   45.3090 N   0  0  0  0  0  0  0  0  0  0  0  0
   32.4960   28.5280   46.1280 N   0  0  0  0  0  0  0  0  0  0  0  0
   32.2750   27.7480   47.2060 C   0  0  0  0  0  3  0  0  0  0  0  0
   30.9990   27.3770   47.2440 N   0  0  0  0  0  0  0  0  0  0  0  0
   30.3900   27.9160   46.1910 C   0  0  0  0  0  0  0  0  0  0  0  0
   31.3270   28.6120   45.5260 N   0  0  0  0  0  0  0  0  0  0  0  0
   29.0450   27.8720   45.7090 N   0  0  0  0  0  0  0  0  0  0  0  0
   28.6390   26.8770   44.8840 C   0  0  0  0  0  3  0  0  0  0  0  0
   27.3240   26.8770   44.4410 C   0  0  0  0  0  3  0  0  0  0  0  0
   26.4330   27.8550   44.8190 C   0  0  0  0  0  0  0  0  0  0  0  0
   25.0900   27.8200   44.3440 N   0  0  0  0  0  0  0  0  0  0  0  0
   26.8590   28.8340   45.6390 N   0  0  0  0  0  0  0  0  0  0  0  0
   28.1420   28.8070   46.0520 C   0  0  0  0  0  0  0  0  0  0  0  0
   28.5680   29.7230   46.8280 O   0  0  0  0  0  0  0  0  0  0  0  0
   24.4240   28.5540   44.6270 H   0  0  0  0  0  0  0  0  0  0  0  0
   24.7840   27.0610   43.7170 H   0  0  0  0  0  0  0  0  0  0  0  0
   36.6630   30.7100   47.5070 C   0  0  0  0  0  0  0  0  0  0  0  0
   37.6120   31.6330   47.1160 C   0  0  0  0  0  3  0  0  0  0  0  0
   38.5460   32.1930   47.9660 C   0  0  0  0  0  3  0  0  0  0  0  0
   38.5590   31.8310   49.2910 C   0  0  0  0  0  3  0  0  0  0  0  0
   37.6480   30.9280   49.7200 C   0  0  0  0  0  0  0  0  0  0  0  0
   37.6670   30.5650   51.0630 C   0  0  0  0  0  3  0  0  0  0  0  0
   36.7970   29.6730   51.5810 C   0  0  0  0  0  3  0  0  0  0  0  0
   35.8570   29.1170   50.6990 C   0  0  0  0  0  3  0  0  0  0  0  0
   35.8670   29.4970   49.3830 C   0  0  0  0  0  3  0  0  0  0  0  0
   36.7320   30.3890   48.8510 C   0  0  0  0  0  0  0  0  0  0  0  0
  1  2  2  0  0  0  0
  1  6  1  0  0  0  0
  2  3  1  0  0  0  0
  3  7  1  0  0  0  0
  3  4  2  0  0  0  0
  5  4  1  0  0  0  0
  5 22  1  0  0  0  0
  6  5  2  0  0  0  0
  7  8  1  0  0  0  0
  8  9  2  0  0  0  0
 10  9  1  0  0  0  0
 11  7  1  0  0  0  0
 11 10  2  0  0  0  0
 12 18  1  0  0  0  0
 12 10  1  0  0  0  0
 13 12  1  0  0  0  0
 14 15  1  0  0  0  0
 14 13  2  0  0  0  0
 15 17  2  0  0  0  0
 16 20  1  0  0  0  0
 16 15  1  0  0  0  0
 17 18  1  0  0  0  0
 18 19  2  0  0  0  0
 21 16  1  0  0  0  0
 22 31  1  0  0  0  0
 23 22  2  0  0  0  0
 23 24  1  0  0  0  0
 24 25  2  0  0  0  0
 25 26  1  0  0  0  0
 26 27  1  0  0  0  0
 27 28  2  0  0  0  0
 29 28  1  0  0  0  0
 30 29  2  0  0  0  0
 31 30  1  0  0  0  0
 31 26  2  0  0  0  0
M  END
>  <minimizedAffinity>
-7.7875886

$$$$
