
 OpenBabel03272514293D

 31 36  0  0  0  0  0  0  0  0999 V2000
   29.4060   28.0930   45.4550 C   0  0  0  0  0  3  0  0  0  0  0  0
   30.7510   28.3790   45.2660 C   0  0  0  0  0  3  0  0  0  0  0  0
   31.4970   28.4870   46.4280 C   0  0  0  0  0  0  0  0  0  0  0  0
   30.8860   28.3130   47.6020 N   0  0  0  0  0  0  0  0  0  0  0  0
   29.6190   28.0430   47.8000 C   0  0  0  0  0  0  0  0  0  0  0  0
   28.9160   27.9430   46.6840 N   0  0  0  0  0  0  0  0  0  0  0  0
   32.8800   28.7730   46.3990 N   0  0  0  0  0  0  0  0  0  0  0  0
   33.7790   28.2850   45.5440 C   0  0  0  0  0  3  0  0  0  0  0  0
   34.9920   28.7750   45.8170 N   0  0  0  0  0  0  0  0  0  0  0  0
   34.8670   29.5950   46.8730 C   0  0  0  0  0  0  0  0  0  0  0  0
   33.5750   29.5610   47.1880 N   0  0  0  0  0  0  0  0  0  0  0  0
   28.8290   27.8320   48.9980 C   0  0  0  0  0  0  0  0  0  0  0  0
   29.3230   27.1390   50.0850 C   0  0  0  0  0  3  0  0  0  0  0  0
   28.6100   26.9110   51.2440 C   0  0  0  0  0  3  0  0  0  0  0  0
   27.3250   27.3890   51.3640 C   0  0  0  0  0  3  0  0  0  0  0  0
   26.7880   28.0800   50.3170 C   0  0  0  0  0  0  0  0  0  0  0  0
   25.4960   28.5590   50.4410 C   0  0  0  0  0  3  0  0  0  0  0  0
   24.8970   29.2510   49.4500 C   0  0  0  0  0  3  0  0  0  0  0  0
   25.6350   29.4680   48.2920 C   0  0  0  0  0  3  0  0  0  0  0  0
   26.9140   28.9780   48.2050 C   0  0  0  0  0  3  0  0  0  0  0  0
   27.5420   28.2840   49.1760 C   0  0  0  0  0  0  0  0  0  0  0  0
   36.0570   30.2540   47.3640 C   0  0  0  0  0  0  0  0  0  0  0  0
   36.8740   30.9960   46.5390 C   0  0  0  0  0  3  0  0  0  0  0  0
   38.0190   31.6420   46.9690 C   0  0  0  0  0  3  0  0  0  0  0  0
   38.4060   31.5690   48.2870 C   0  0  0  0  0  3  0  0  0  0  0  0
   37.6310   30.8480   49.1450 C   0  0  0  0  0  0  0  0  0  0  0  0
   38.0230   30.7810   50.4560 C   0  0  0  0  0  3  0  0  0  0  0  0
   37.3010   30.0780   51.3770 C   0  0  0  0  0  3  0  0  0  0  0  0
   36.1550   29.4390   50.9210 C   0  0  0  0  0  3  0  0  0  0  0  0
   35.7930   29.5260   49.6100 C   0  0  0  0  0  3  0  0  0  0  0  0
   36.5020   30.2260   48.6600 C   0  0  0  0  0  0  0  0  0  0  0  0
  1  6  1  0  0  0  0
  2  1  2  0  0  0  0
  2  3  1  0  0  0  0
  3  4  2  0  0  0  0
  4  5  1  0  0  0  0
  5 12  1  0  0  0  0
  6  5  2  0  0  0  0
  7  3  1  0  0  0  0
  7 11  1  0  0  0  0
  8  9  2  0  0  0  0
  8  7  1  0  0  0  0
  9 10  1  0  0  0  0
 10 11  2  0  0  0  0
 10 22  1  0  0  0  0
 12 21  2  0  0  0  0
 12 13  1  0  0  0  0
 13 14  2  0  0  0  0
 14 15  1  0  0  0  0
 16 17  1  0  0  0  0
 16 15  2  0  0  0  0
 18 17  2  0  0  0  0
 19 18  1  0  0  0  0
 20 19  2  0  0  0  0
 20 21  1  0  0  0  0
 21 16  1  0  0  0  0
 22 31  1  0  0  0  0
 23 24  1  0  0  0  0
 23 22  2  0  0  0  0
 24 25  2  0  0  0  0
 25 26  1  0  0  0  0
 26 27  1  0  0  0  0
 27 28  2  0  0  0  0
 29 28  1  0  0  0  0
 30 29  2  0  0  0  0
 31 26  2  0  0  0  0
 31 30  1  0  0  0  0
M  END
>  <minimizedAffinity>
-9.53734112

$$$$

 OpenBabel03272514293D

 31 36  0  0  0  0  0  0  0  0999 V2000
   29.6140   27.8860   45.0470 C   0  0  0  0  0  3  0  0  0  0  0  0
   30.9660   27.9090   45.3650 C   0  0  0  0  0  3  0  0  0  0  0  0
   31.2500   28.1440   46.7000 C   0  0  0  0  0  0  0  0  0  0  0  0
   30.2370   28.3250   47.5510 N   0  0  0  0  0  0  0  0  0  0  0  0
   28.9570   28.3070   47.2690 C   0  0  0  0  0  0  0  0  0  0  0  0
   28.6970   28.0810   45.9920 N   0  0  0  0  0  0  0  0  0  0  0  0
   32.5780   28.1960   47.1790 N   0  0  0  0  0  0  0  0  0  0  0  0
   33.5870   27.4010   46.8230 C   0  0  0  0  0  3  0  0  0  0  0  0
   34.6990   27.7400   47.4820 N   0  0  0  0  0  0  0  0  0  0  0  0
   34.3950   28.7770   48.2790 C   0  0  0  0  0  0  0  0  0  0  0  0
   33.1030   29.0150   48.0620 N   0  0  0  0  0  0  0  0  0  0  0  0
   27.7640   28.4840   48.0750 C   0  0  0  0  0  0  0  0  0  0  0  0
   26.6510   29.1440   47.5940 C   0  0  0  0  0  3  0  0  0  0  0  0
   25.4950   29.3390   48.3220 C   0  0  0  0  0  3  0  0  0  0  0  0
   25.4060   28.8590   49.6090 C   0  0  0  0  0  3  0  0  0  0  0  0
   26.4800   28.1990   50.1330 C   0  0  0  0  0  0  0  0  0  0  0  0
   26.3870   27.7180   51.4270 C   0  0  0  0  0  3  0  0  0  0  0  0
   27.4060   27.0550   52.0130 C   0  0  0  0  0  3  0  0  0  0  0  0
   28.5600   26.8710   51.2600 C   0  0  0  0  0  3  0  0  0  0  0  0
   28.6160   27.3630   49.9800 C   0  0  0  0  0  3  0  0  0  0  0  0
   27.6170   28.0280   49.3650 C   0  0  0  0  0  0  0  0  0  0  0  0
   35.4470   29.3300   49.1040 C   0  0  0  0  0  0  0  0  0  0  0  0
   35.5290   29.0700   50.4540 C   0  0  0  0  0  3  0  0  0  0  0  0
   36.5170   29.5790   51.2770 C   0  0  0  0  0  3  0  0  0  0  0  0
   37.4970   30.3970   50.7630 C   0  0  0  0  0  3  0  0  0  0  0  0
   37.4620   30.6840   49.4320 C   0  0  0  0  0  0  0  0  0  0  0  0
   38.4410   31.4980   48.9290 C   0  0  0  0  0  3  0  0  0  0  0  0
   38.4750   31.8330   47.6060 C   0  0  0  0  0  3  0  0  0  0  0  0
   37.4720   31.3090   46.8000 C   0  0  0  0  0  3  0  0  0  0  0  0
   36.5120   30.5030   47.3330 C   0  0  0  0  0  3  0  0  0  0  0  0
   36.4530   30.1490   48.6620 C   0  0  0  0  0  0  0  0  0  0  0  0
  1  2  2  0  0  0  0
  1  6  1  0  0  0  0
  2  3  1  0  0  0  0
  3  7  1  0  0  0  0
  3  4  2  0  0  0  0
  5  4  1  0  0  0  0
  5 12  1  0  0  0  0
  6  5  2  0  0  0  0
  7 11  1  0  0  0  0
  8  7  1  0  0  0  0
  8  9  2  0  0  0  0
  9 10  1  0  0  0  0
 10 22  1  0  0  0  0
 11 10  2  0  0  0  0
 12 21  1  0  0  0  0
 13 12  2  0  0  0  0
 13 14  1  0  0  0  0
 14 15  2  0  0  0  0
 15 16  1  0  0  0  0
 16 17  1  0  0  0  0
 17 18  2  0  0  0  0
 19 18  1  0  0  0  0
 20 19  2  0  0  0  0
 21 20  1  0  0  0  0
 21 16  2  0  0  0  0
 22 23  1  0  0  0  0
 23 24  2  0  0  0  0
 25 24  1  0  0  0  0
 26 25  2  0  0  0  0
 27 26  1  0  0  0  0
 28 27  2  0  0  0  0
 29 30  2  0  0  0  0
 29 28  1  0  0  0  0
 30 31  1  0  0  0  0
 31 22  2  0  0  0  0
 31 26  1  0  0  0  0
M  END
>  <minimizedAffinity>
-9.44524384

$$$$

 OpenBabel03272514293D

 31 36  0  0  0  0  0  0  0  0999 V2000
   29.1960   29.5030   44.2320 C   0  0  0  0  0  3  0  0  0  0  0  0
   30.5840   29.4940   44.2500 C   0  0  0  0  0  3  0  0  0  0  0  0
   31.1540   29.4390   45.5120 C   0  0  0  0  0  0  0  0  0  0  0  0
   30.3520   29.3990   46.5770 N   0  0  0  0  0  0  0  0  0  0  0  0
   29.0410   29.4070   46.5790 C   0  0  0  0  0  0  0  0  0  0  0  0
   28.5070   29.4600   45.3700 N   0  0  0  0  0  0  0  0  0  0  0  0
   32.5540   29.4220   45.6940 N   0  0  0  0  0  0  0  0  0  0  0  0
   33.4480   28.7530   44.9640 C   0  0  0  0  0  3  0  0  0  0  0  0
   34.6820   28.9710   45.4270 N   0  0  0  0  0  0  0  0  0  0  0  0
   34.5770   29.7980   46.4800 C   0  0  0  0  0  0  0  0  0  0  0  0
   33.2740   30.0420   46.6020 N   0  0  0  0  0  0  0  0  0  0  0  0
   28.0540   29.3700   47.6410 C   0  0  0  0  0  0  0  0  0  0  0  0
   26.8840   30.1010   47.5750 C   0  0  0  0  0  3  0  0  0  0  0  0
   25.9170   30.0990   48.5590 C   0  0  0  0  0  3  0  0  0  0  0  0
   26.0890   29.3330   49.6900 C   0  0  0  0  0  3  0  0  0  0  0  0
   27.2290   28.5910   49.8050 C   0  0  0  0  0  0  0  0  0  0  0  0
   27.3990   27.8230   50.9430 C   0  0  0  0  0  3  0  0  0  0  0  0
   28.4990   27.0630   51.1290 C   0  0  0  0  0  3  0  0  0  0  0  0
   29.4600   27.0810   50.1240 C   0  0  0  0  0  3  0  0  0  0  0  0
   29.2570   27.8560   49.0100 C   0  0  0  0  0  3  0  0  0  0  0  0
   28.1700   28.6250   48.7920 C   0  0  0  0  0  0  0  0  0  0  0  0
   35.7920   30.1870   47.1610 C   0  0  0  0  0  0  0  0  0  0  0  0
   36.8300   30.8110   46.5040 C   0  0  0  0  0  3  0  0  0  0  0  0
   38.0070   31.1990   47.1170 C   0  0  0  0  0  3  0  0  0  0  0  0
   38.2000   30.9700   48.4600 C   0  0  0  0  0  3  0  0  0  0  0  0
   37.2030   30.3560   49.1570 C   0  0  0  0  0  0  0  0  0  0  0  0
   37.4020   30.1320   50.4940 C   0  0  0  0  0  3  0  0  0  0  0  0
   36.4520   29.5230   51.2600 C   0  0  0  0  0  3  0  0  0  0  0  0
   35.2780   29.1430   50.6210 C   0  0  0  0  0  3  0  0  0  0  0  0
   35.1120   29.3800   49.2900 C   0  0  0  0  0  3  0  0  0  0  0  0
   36.0520   29.9920   48.4920 C   0  0  0  0  0  0  0  0  0  0  0  0
  1  2  2  0  0  0  0
  1  6  1  0  0  0  0
  2  3  1  0  0  0  0
  3  7  1  0  0  0  0
  3  4  2  0  0  0  0
  4  5  1  0  0  0  0
  5 12  1  0  0  0  0
  6  5  2  0  0  0  0
  7 11  1  0  0  0  0
  8  9  2  0  0  0  0
  8  7  1  0  0  0  0
  9 10  1  0  0  0  0
 10 11  2  0  0  0  0
 10 22  1  0  0  0  0
 12 21  1  0  0  0  0
 13 12  2  0  0  0  0
 13 14  1  0  0  0  0
 14 15  2  0  0  0  0
 15 16  1  0  0  0  0
 16 17  1  0  0  0  0
 17 18  2  0  0  0  0
 19 18  1  0  0  0  0
 20 19  2  0  0  0  0
 21 20  1  0  0  0  0
 21 16  2  0  0  0  0
 22 31  1  0  0  0  0
 23 24  1  0  0  0  0
 23 22  2  0  0  0  0
 24 25  2  0  0  0  0
 25 26  1  0  0  0  0
 26 27  1  0  0  0  0
 27 28  2  0  0  0  0
 29 28  1  0  0  0  0
 30 29  2  0  0  0  0
 31 26  2  0  0  0  0
 31 30  1  0  0  0  0
M  END
>  <minimizedAffinity>
-9.43362427

$$$$

 OpenBabel03272514293D

 31 36  0  0  0  0  0  0  0  0999 V2000
   34.3070   29.0000   44.0120 C   0  0  0  0  0  3  0  0  0  0  0  0
   32.9290   29.0160   44.1810 C   0  0  0  0  0  3  0  0  0  0  0  0
   32.4960   29.4480   45.4250 C   0  0  0  0  0  0  0  0  0  0  0  0
   33.4070   29.8050   46.3330 N   0  0  0  0  0  0  0  0  0  0  0  0
   34.7090   29.7960   46.1910 C   0  0  0  0  0  0  0  0  0  0  0  0
   35.1120   29.3820   45.0010 N   0  0  0  0  0  0  0  0  0  0  0  0
   31.1240   29.5200   45.7500 N   0  0  0  0  0  0  0  0  0  0  0  0
   30.1360   29.9400   44.9580 C   0  0  0  0  0  3  0  0  0  0  0  0
   28.9670   29.8730   45.6000 N   0  0  0  0  0  0  0  0  0  0  0  0
   29.2100   29.4000   46.8330 C   0  0  0  0  0  0  0  0  0  0  0  0
   30.5260   29.2030   46.8750 N   0  0  0  0  0  0  0  0  0  0  0  0
   35.8030   30.1500   47.0760 C   0  0  0  0  0  0  0  0  0  0  0  0
   36.9480   30.7650   46.6090 C   0  0  0  0  0  3  0  0  0  0  0  0
   38.0150   31.1200   47.4100 C   0  0  0  0  0  3  0  0  0  0  0  0
   37.9730   30.8630   48.7610 C   0  0  0  0  0  3  0  0  0  0  0  0
   36.8630   30.2540   49.2740 C   0  0  0  0  0  0  0  0  0  0  0  0
   36.8250   29.9970   50.6330 C   0  0  0  0  0  3  0  0  0  0  0  0
   35.7630   29.4000   51.2130 C   0  0  0  0  0  3  0  0  0  0  0  0
   34.7010   29.0520   50.3860 C   0  0  0  0  0  3  0  0  0  0  0  0
   34.7750   29.3230   49.0420 C   0  0  0  0  0  3  0  0  0  0  0  0
   35.8190   29.9180   48.4310 C   0  0  0  0  0  0  0  0  0  0  0  0
   28.0880   29.2350   47.7310 C   0  0  0  0  0  0  0  0  0  0  0  0
   26.8570   29.7960   47.4720 C   0  0  0  0  0  3  0  0  0  0  0  0
   25.7600   29.6630   48.3030 C   0  0  0  0  0  3  0  0  0  0  0  0
   25.8540   28.9360   49.4670 C   0  0  0  0  0  3  0  0  0  0  0  0
   27.0510   28.3580   49.7700 C   0  0  0  0  0  0  0  0  0  0  0  0
   27.1360   27.6360   50.9300 C   0  0  0  0  0  3  0  0  0  0  0  0
   28.2990   27.0270   51.3030 C   0  0  0  0  0  3  0  0  0  0  0  0
   29.3860   27.1760   50.4510 C   0  0  0  0  0  3  0  0  0  0  0  0
   29.2680   27.9020   49.3050 C   0  0  0  0  0  3  0  0  0  0  0  0
   28.1090   28.5260   48.9040 C   0  0  0  0  0  0  0  0  0  0  0  0
  1  2  2  0  0  0  0
  1  6  1  0  0  0  0
  2  3  1  0  0  0  0
  3  7  1  0  0  0  0
  3  4  2  0  0  0  0
  5  4  1  0  0  0  0
  5 12  1  0  0  0  0
  6  5  2  0  0  0  0
  7 11  1  0  0  0  0
  8  9  2  0  0  0  0
  8  7  1  0  0  0  0
  9 10  1  0  0  0  0
 10 11  2  0  0  0  0
 10 22  1  0  0  0  0
 12 21  1  0  0  0  0
 13 12  2  0  0  0  0
 13 14  1  0  0  0  0
 14 15  2  0  0  0  0
 15 16  1  0  0  0  0
 16 17  1  0  0  0  0
 17 18  2  0  0  0  0
 19 18  1  0  0  0  0
 20 19  2  0  0  0  0
 21 20  1  0  0  0  0
 21 16  2  0  0  0  0
 22 31  1  0  0  0  0
 23 22  2  0  0  0  0
 23 24  1  0  0  0  0
 24 25  2  0  0  0  0
 25 26  1  0  0  0  0
 26 27  1  0  0  0  0
 27 28  2  0  0  0  0
 29 28  1  0  0  0  0
 30 29  2  0  0  0  0
 31 30  1  0  0  0  0
 31 26  2  0  0  0  0
M  END
>  <minimizedAffinity>
-9.32639885

$$$$

 OpenBabel03272514293D

 31 36  0  0  0  0  0  0  0  0999 V2000
   34.9640   28.8210   44.0070 C   0  0  0  0  0  3  0  0  0  0  0  0
   33.6570   28.5500   44.3890 C   0  0  0  0  0  3  0  0  0  0  0  0
   33.3100   29.0000   45.6530 C   0  0  0  0  0  0  0  0  0  0  0  0
   34.2270   29.6400   46.3810 N   0  0  0  0  0  0  0  0  0  0  0  0
   35.4640   29.9050   46.0370 C   0  0  0  0  0  0  0  0  0  0  0  0
   35.7850   29.4700   44.8300 N   0  0  0  0  0  0  0  0  0  0  0  0
   32.0160   28.8010   46.1830 N   0  0  0  0  0  0  0  0  0  0  0  0
   30.8590   28.9090   45.5290 C   0  0  0  0  0  3  0  0  0  0  0  0
   29.8370   28.6510   46.3490 N   0  0  0  0  0  0  0  0  0  0  0  0
   30.3510   28.3720   47.5580 C   0  0  0  0  0  0  0  0  0  0  0  0
   31.6690   28.4760   47.4070 N   0  0  0  0  0  0  0  0  0  0  0  0
   36.5550   30.5800   46.7140 C   0  0  0  0  0  0  0  0  0  0  0  0
   37.3970   31.4500   46.0490 C   0  0  0  0  0  3  0  0  0  0  0  0
   38.4480   32.1150   46.6480 C   0  0  0  0  0  3  0  0  0  0  0  0
   38.7050   31.9270   47.9870 C   0  0  0  0  0  3  0  0  0  0  0  0
   37.9020   31.0750   48.6900 C   0  0  0  0  0  0  0  0  0  0  0  0
   38.1640   30.8890   50.0360 C   0  0  0  0  0  3  0  0  0  0  0  0
   37.4150   30.0640   50.7970 C   0  0  0  0  0  3  0  0  0  0  0  0
   36.3610   29.4060   50.1720 C   0  0  0  0  0  3  0  0  0  0  0  0
   36.1330   29.6150   48.8350 C   0  0  0  0  0  3  0  0  0  0  0  0
   36.8610   30.4330   48.0470 C   0  0  0  0  0  0  0  0  0  0  0  0
   29.4310   28.0560   48.6290 C   0  0  0  0  0  0  0  0  0  0  0  0
   29.7650   27.1860   49.6440 C   0  0  0  0  0  3  0  0  0  0  0  0
   28.9170   26.8580   50.6860 C   0  0  0  0  0  3  0  0  0  0  0  0
   27.6570   27.4060   50.7560 C   0  0  0  0  0  3  0  0  0  0  0  0
   27.2780   28.2740   49.7770 C   0  0  0  0  0  0  0  0  0  0  0  0
   26.0230   28.8160   49.8550 C   0  0  0  0  0  3  0  0  0  0  0  0
   25.5690   29.6930   48.9130 C   0  0  0  0  0  3  0  0  0  0  0  0
   26.4400   30.0070   47.8770 C   0  0  0  0  0  3  0  0  0  0  0  0
   27.6820   29.4500   47.8290 C   0  0  0  0  0  3  0  0  0  0  0  0
   28.1660   28.5630   48.7640 C   0  0  0  0  0  0  0  0  0  0  0  0
  1  2  2  0  0  0  0
  1  6  1  0  0  0  0
  2  3  1  0  0  0  0
  3  7  1  0  0  0  0
  3  4  2  0  0  0  0
  5  4  1  0  0  0  0
  5 12  1  0  0  0  0
  6  5  2  0  0  0  0
  7 11  1  0  0  0  0
  8  7  1  0  0  0  0
  8  9  2  0  0  0  0
  9 10  1  0  0  0  0
 10 22  1  0  0  0  0
 11 10  2  0  0  0  0
 12 21  1  0  0  0  0
 13 14  1  0  0  0  0
 13 12  2  0  0  0  0
 14 15  2  0  0  0  0
 15 16  1  0  0  0  0
 16 17  1  0  0  0  0
 17 18  2  0  0  0  0
 19 18  1  0  0  0  0
 20 19  2  0  0  0  0
 21 16  2  0  0  0  0
 21 20  1  0  0  0  0
 22 31  2  0  0  0  0
 22 23  1  0  0  0  0
 23 24  2  0  0  0  0
 24 25  1  0  0  0  0
 26 27  1  0  0  0  0
 26 25  2  0  0  0  0
 28 27  2  0  0  0  0
 29 28  1  0  0  0  0
 30 29  2  0  0  0  0
 30 31  1  0  0  0  0
 31 26  1  0  0  0  0
M  END
>  <minimizedAffinity>
-9.22790718

$$$$

 OpenBabel03272514293D

 31 36  0  0  0  0  0  0  0  0999 V2000
   34.0550   28.8550   44.5370 C   0  0  0  0  0  3  0  0  0  0  0  0
   32.6760   28.9290   44.6720 C   0  0  0  0  0  3  0  0  0  0  0  0
   32.2270   29.2790   45.9360 C   0  0  0  0  0  0  0  0  0  0  0  0
   33.1260   29.5100   46.8950 N   0  0  0  0  0  0  0  0  0  0  0  0
   34.4310   29.4460   46.7860 C   0  0  0  0  0  0  0  0  0  0  0  0
   34.8480   29.1110   45.5760 N   0  0  0  0  0  0  0  0  0  0  0  0
   30.8510   29.3960   46.2300 N   0  0  0  0  0  0  0  0  0  0  0  0
   29.9100   29.9310   45.4510 C   0  0  0  0  0  3  0  0  0  0  0  0
   28.7200   29.8720   46.0540 N   0  0  0  0  0  0  0  0  0  0  0  0
   28.9020   29.2860   47.2480 C   0  0  0  0  0  0  0  0  0  0  0  0
   30.2040   29.0170   47.3080 N   0  0  0  0  0  0  0  0  0  0  0  0
   35.5140   29.6670   47.7260 C   0  0  0  0  0  0  0  0  0  0  0  0
   35.5030   29.1180   48.9920 C   0  0  0  0  0  3  0  0  0  0  0  0
   36.5080   29.3000   49.9210 C   0  0  0  0  0  3  0  0  0  0  0  0
   37.6050   30.0680   49.6030 C   0  0  0  0  0  3  0  0  0  0  0  0
   37.6640   30.6360   48.3620 C   0  0  0  0  0  0  0  0  0  0  0  0
   38.7680   31.4070   48.0460 C   0  0  0  0  0  3  0  0  0  0  0  0
   38.8980   32.0000   46.8410 C   0  0  0  0  0  3  0  0  0  0  0  0
   37.8730   31.8010   45.9220 C   0  0  0  0  0  3  0  0  0  0  0  0
   36.7940   31.0300   46.2720 C   0  0  0  0  0  3  0  0  0  0  0  0
   36.6330   30.4240   47.4660 C   0  0  0  0  0  0  0  0  0  0  0  0
   27.7460   29.1060   48.0990 C   0  0  0  0  0  0  0  0  0  0  0  0
   26.5130   29.6300   47.7770 C   0  0  0  0  0  3  0  0  0  0  0  0
   25.3850   29.4810   48.5620 C   0  0  0  0  0  3  0  0  0  0  0  0
   25.4470   28.7760   49.7420 C   0  0  0  0  0  3  0  0  0  0  0  0
   26.6430   28.2360   50.1070 C   0  0  0  0  0  0  0  0  0  0  0  0
   26.6960   27.5360   51.2820 C   0  0  0  0  0  3  0  0  0  0  0  0
   27.8570   26.9650   51.7160 C   0  0  0  0  0  3  0  0  0  0  0  0
   28.9760   27.1280   50.9100 C   0  0  0  0  0  3  0  0  0  0  0  0
   28.8900   27.8310   49.7460 C   0  0  0  0  0  3  0  0  0  0  0  0
   27.7330   28.4180   49.2840 C   0  0  0  0  0  0  0  0  0  0  0  0
  1  2  2  0  0  0  0
  1  6  1  0  0  0  0
  2  3  1  0  0  0  0
  3  7  1  0  0  0  0
  3  4  2  0  0  0  0
  5  4  1  0  0  0  0
  5 12  1  0  0  0  0
  6  5  2  0  0  0  0
  7 11  1  0  0  0  0
  8  9  2  0  0  0  0
  8  7  1  0  0  0  0
  9 10  1  0  0  0  0
 10 11  2  0  0  0  0
 10 22  1  0  0  0  0
 12 13  1  0  0  0  0
 13 14  2  0  0  0  0
 15 14  1  0  0  0  0
 16 15  2  0  0  0  0
 17 16  1  0  0  0  0
 18 17  2  0  0  0  0
 19 20  2  0  0  0  0
 19 18  1  0  0  0  0
 20 21  1  0  0  0  0
 21 12  2  0  0  0  0
 21 16  1  0  0  0  0
 22 31  1  0  0  0  0
 23 22  2  0  0  0  0
 23 24  1  0  0  0  0
 24 25  2  0  0  0  0
 25 26  1  0  0  0  0
 26 27  1  0  0  0  0
 27 28  2  0  0  0  0
 29 28  1  0  0  0  0
 30 29  2  0  0  0  0
 31 30  1  0  0  0  0
 31 26  2  0  0  0  0
M  END
>  <minimizedAffinity>
-9.2041769

$$$$

 OpenBabel03272514293D

 31 36  0  0  0  0  0  0  0  0999 V2000
   29.2880   30.3220   43.9810 C   0  0  0  0  0  3  0  0  0  0  0  0
   30.6720   30.3980   44.0500 C   0  0  0  0  0  3  0  0  0  0  0  0
   31.2290   29.9000   45.2170 C   0  0  0  0  0  0  0  0  0  0  0  0
   30.4200   29.4020   46.1540 N   0  0  0  0  0  0  0  0  0  0  0  0
   29.1120   29.3230   46.1060 C   0  0  0  0  0  0  0  0  0  0  0  0
   28.5910   29.8000   44.9880 N   0  0  0  0  0  0  0  0  0  0  0  0
   32.6250   29.9070   45.4360 N   0  0  0  0  0  0  0  0  0  0  0  0
   33.5750   29.6300   44.5430 C   0  0  0  0  0  3  0  0  0  0  0  0
   34.7830   29.7340   45.1030 N   0  0  0  0  0  0  0  0  0  0  0  0
   34.6030   30.0850   46.3860 C   0  0  0  0  0  0  0  0  0  0  0  0
   33.2840   30.1770   46.5390 N   0  0  0  0  0  0  0  0  0  0  0  0
   28.1180   28.8150   47.0320 C   0  0  0  0  0  0  0  0  0  0  0  0
   28.0780   27.4860   47.4020 C   0  0  0  0  0  3  0  0  0  0  0  0
   27.1510   26.9560   48.2780 C   0  0  0  0  0  3  0  0  0  0  0  0
   26.1930   27.7700   48.8390 C   0  0  0  0  0  3  0  0  0  0  0  0
   26.1890   29.0940   48.5050 C   0  0  0  0  0  0  0  0  0  0  0  0
   25.2250   29.9090   49.0700 C   0  0  0  0  0  3  0  0  0  0  0  0
   25.1560   31.2280   48.7890 C   0  0  0  0  0  3  0  0  0  0  0  0
   26.0990   31.7380   47.9050 C   0  0  0  0  0  3  0  0  0  0  0  0
   27.0400   30.8990   47.3640 C   0  0  0  0  0  3  0  0  0  0  0  0
   27.1380   29.5790   47.6230 C   0  0  0  0  0  0  0  0  0  0  0  0
   35.7770   30.2620   47.2130 C   0  0  0  0  0  0  0  0  0  0  0  0
   36.9630   30.7420   46.7030 C   0  0  0  0  0  3  0  0  0  0  0  0
   38.1070   30.9260   47.4580 C   0  0  0  0  0  3  0  0  0  0  0  0
   38.1090   30.6270   48.8010 C   0  0  0  0  0  3  0  0  0  0  0  0
   36.9600   30.1500   49.3550 C   0  0  0  0  0  0  0  0  0  0  0  0
   36.9700   29.8550   50.6930 C   0  0  0  0  0  3  0  0  0  0  0  0
   35.8590   29.3740   51.3220 C   0  0  0  0  0  3  0  0  0  0  0  0
   34.7230   29.1980   50.5420 C   0  0  0  0  0  3  0  0  0  0  0  0
   34.7460   29.5000   49.2140 C   0  0  0  0  0  3  0  0  0  0  0  0
   35.8520   29.9870   48.5540 C   0  0  0  0  0  0  0  0  0  0  0  0
  1  2  2  0  0  0  0
  1  6  1  0  0  0  0
  2  3  1  0  0  0  0
  3  7  1  0  0  0  0
  3  4  2  0  0  0  0
  5  4  1  0  0  0  0
  5 12  1  0  0  0  0
  6  5  2  0  0  0  0
  7 11  1  0  0  0  0
  8  9  2  0  0  0  0
  8  7  1  0  0  0  0
  9 10  1  0  0  0  0
 10 11  2  0  0  0  0
 10 22  1  0  0  0  0
 12 13  2  0  0  0  0
 12 21  1  0  0  0  0
 13 14  1  0  0  0  0
 14 15  2  0  0  0  0
 16 15  1  0  0  0  0
 16 17  1  0  0  0  0
 18 17  2  0  0  0  0
 19 18  1  0  0  0  0
 20 21  1  0  0  0  0
 20 19  2  0  0  0  0
 21 16  2  0  0  0  0
 22 31  1  0  0  0  0
 23 22  2  0  0  0  0
 23 24  1  0  0  0  0
 24 25  2  0  0  0  0
 25 26  1  0  0  0  0
 26 27  1  0  0  0  0
 27 28  2  0  0  0  0
 29 28  1  0  0  0  0
 30 29  2  0  0  0  0
 31 30  1  0  0  0  0
 31 26  2  0  0  0  0
M  END
>  <minimizedAffinity>
-9.08866692

$$$$

 OpenBabel03272514293D

 31 36  0  0  0  0  0  0  0  0999 V2000
   28.4510   25.9760   46.3370 C   0  0  0  0  0  3  0  0  0  0  0  0
   29.8330   26.0650   46.4350 C   0  0  0  0  0  3  0  0  0  0  0  0
   30.3010   27.1450   47.1660 C   0  0  0  0  0  0  0  0  0  0  0  0
   29.4170   27.9880   47.7040 N   0  0  0  0  0  0  0  0  0  0  0  0
   28.1100   27.9200   47.6220 C   0  0  0  0  0  0  0  0  0  0  0  0
   27.6740   26.8870   46.9210 N   0  0  0  0  0  0  0  0  0  0  0  0
   31.6820   27.3710   47.3560 N   0  0  0  0  0  0  0  0  0  0  0  0
   32.6160   26.4520   47.6030 C   0  0  0  0  0  3  0  0  0  0  0  0
   33.8140   27.0300   47.7270 N   0  0  0  0  0  0  0  0  0  0  0  0
   33.6440   28.3500   47.5570 C   0  0  0  0  0  0  0  0  0  0  0  0
   32.3400   28.5070   47.3370 N   0  0  0  0  0  0  0  0  0  0  0  0
   27.0420   28.7510   48.1450 C   0  0  0  0  0  0  0  0  0  0  0  0
   26.2350   28.3310   49.1830 C   0  0  0  0  0  3  0  0  0  0  0  0
   25.2060   29.0830   49.7140 C   0  0  0  0  0  3  0  0  0  0  0  0
   24.9380   30.3340   49.2060 C   0  0  0  0  0  3  0  0  0  0  0  0
   25.7070   30.7960   48.1760 C   0  0  0  0  0  0  0  0  0  0  0  0
   25.4340   32.0530   47.6680 C   0  0  0  0  0  3  0  0  0  0  0  0
   26.1500   32.5780   46.6510 C   0  0  0  0  0  3  0  0  0  0  0  0
   27.1800   31.8020   46.1340 C   0  0  0  0  0  3  0  0  0  0  0  0
   27.4210   30.5600   46.6640 C   0  0  0  0  0  3  0  0  0  0  0  0
   26.7270   30.0060   47.6780 C   0  0  0  0  0  0  0  0  0  0  0  0
   34.8100   29.2020   47.6470 C   0  0  0  0  0  0  0  0  0  0  0  0
   35.3460   29.8250   46.5410 C   0  0  0  0  0  3  0  0  0  0  0  0
   36.4580   30.6460   46.5840 C   0  0  0  0  0  3  0  0  0  0  0  0
   37.1000   30.8850   47.7770 C   0  0  0  0  0  3  0  0  0  0  0  0
   36.6090   30.2930   48.9020 C   0  0  0  0  0  0  0  0  0  0  0  0
   37.2540   30.5380   50.0850 C   0  0  0  0  0  3  0  0  0  0  0  0
   36.8230   29.9820   51.2550 C   0  0  0  0  0  3  0  0  0  0  0  0
   35.7040   29.1620   51.1860 C   0  0  0  0  0  3  0  0  0  0  0  0
   35.0860   28.9390   49.9930 C   0  0  0  0  0  3  0  0  0  0  0  0
   35.4980   29.4860   48.7980 C   0  0  0  0  0  0  0  0  0  0  0  0
  1  2  2  0  0  0  0
  1  6  1  0  0  0  0
  2  3  1  0  0  0  0
  3  7  1  0  0  0  0
  3  4  2  0  0  0  0
  5  4  1  0  0  0  0
  5 12  1  0  0  0  0
  6  5  2  0  0  0  0
  7  8  1  0  0  0  0
  8  9  2  0  0  0  0
 10 22  1  0  0  0  0
 10  9  1  0  0  0  0
 11  7  1  0  0  0  0
 11 10  2  0  0  0  0
 12 13  1  0  0  0  0
 13 14  2  0  0  0  0
 15 14  1  0  0  0  0
 16 15  2  0  0  0  0
 17 16  1  0  0  0  0
 18 17  2  0  0  0  0
 19 18  1  0  0  0  0
 19 20  2  0  0  0  0
 20 21  1  0  0  0  0
 21 12  2  0  0  0  0
 21 16  1  0  0  0  0
 22 31  1  0  0  0  0
 23 24  1  0  0  0  0
 23 22  2  0  0  0  0
 24 25  2  0  0  0  0
 25 26  1  0  0  0  0
 26 27  1  0  0  0  0
 27 28  2  0  0  0  0
 29 28  1  0  0  0  0
 30 29  2  0  0  0  0
 31 26  2  0  0  0  0
 31 30  1  0  0  0  0
M  END
>  <minimizedAffinity>
-8.92634869

$$$$

 OpenBabel03272514293D

 31 36  0  0  0  0  0  0  0  0999 V2000
   29.2680   27.1280   45.5340 C   0  0  0  0  0  3  0  0  0  0  0  0
   30.6110   27.1220   45.8830 C   0  0  0  0  0  3  0  0  0  0  0  0
   30.9000   27.6920   47.1130 C   0  0  0  0  0  0  0  0  0  0  0  0
   29.8980   28.1850   47.8430 N   0  0  0  0  0  0  0  0  0  0  0  0
   28.6250   28.1980   47.5300 C   0  0  0  0  0  0  0  0  0  0  0  0
   28.3610   27.6530   46.3540 N   0  0  0  0  0  0  0  0  0  0  0  0
   32.2210   27.7610   47.6080 N   0  0  0  0  0  0  0  0  0  0  0  0
   33.1570   26.8160   47.5210 C   0  0  0  0  0  3  0  0  0  0  0  0
   34.2870   27.2270   48.1020 N   0  0  0  0  0  0  0  0  0  0  0  0
   34.0700   28.4650   48.5740 C   0  0  0  0  0  0  0  0  0  0  0  0
   32.8090   28.7430   48.2520 N   0  0  0  0  0  0  0  0  0  0  0  0
   27.4440   28.6910   48.2120 C   0  0  0  0  0  0  0  0  0  0  0  0
   26.8170   27.9630   49.2040 C   0  0  0  0  0  3  0  0  0  0  0  0
   25.6920   28.3880   49.8800 C   0  0  0  0  0  3  0  0  0  0  0  0
   25.1300   29.6080   49.5780 C   0  0  0  0  0  3  0  0  0  0  0  0
   25.7110   30.3680   48.6040 C   0  0  0  0  0  0  0  0  0  0  0  0
   25.1430   31.5930   48.3030 C   0  0  0  0  0  3  0  0  0  0  0  0
   25.6600   32.4010   47.3530 C   0  0  0  0  0  3  0  0  0  0  0  0
   26.7930   31.9510   46.6860 C   0  0  0  0  0  3  0  0  0  0  0  0
   27.3280   30.7300   47.0110 C   0  0  0  0  0  3  0  0  0  0  0  0
   26.8380   29.8990   47.9540 C   0  0  0  0  0  0  0  0  0  0  0  0
   35.1580   29.1330   49.2550 C   0  0  0  0  0  0  0  0  0  0  0  0
   35.3440   29.0250   50.6150 C   0  0  0  0  0  3  0  0  0  0  0  0
   36.3700   29.6470   51.3030 C   0  0  0  0  0  3  0  0  0  0  0  0
   37.2830   30.4280   50.6340 C   0  0  0  0  0  3  0  0  0  0  0  0
   37.1440   30.5670   49.2850 C   0  0  0  0  0  0  0  0  0  0  0  0
   38.0570   31.3470   48.6260 C   0  0  0  0  0  3  0  0  0  0  0  0
   37.9860   31.5350   47.2760 C   0  0  0  0  0  3  0  0  0  0  0  0
   36.9470   30.9000   46.6080 C   0  0  0  0  0  3  0  0  0  0  0  0
   36.0550   30.1320   47.2940 C   0  0  0  0  0  3  0  0  0  0  0  0
   36.1020   29.9240   48.6540 C   0  0  0  0  0  0  0  0  0  0  0  0
  1  2  2  0  0  0  0
  1  6  1  0  0  0  0
  2  3  1  0  0  0  0
  3  7  1  0  0  0  0
  3  4  2  0  0  0  0
  5  4  1  0  0  0  0
  5 12  1  0  0  0  0
  6  5  2  0  0  0  0
  7 11  1  0  0  0  0
  8  7  1  0  0  0  0
  8  9  2  0  0  0  0
  9 10  1  0  0  0  0
 10 22  1  0  0  0  0
 11 10  2  0  0  0  0
 12 13  1  0  0  0  0
 13 14  2  0  0  0  0
 15 14  1  0  0  0  0
 16 15  2  0  0  0  0
 17 16  1  0  0  0  0
 18 17  2  0  0  0  0
 19 20  2  0  0  0  0
 19 18  1  0  0  0  0
 20 21  1  0  0  0  0
 21 12  2  0  0  0  0
 21 16  1  0  0  0  0
 22 23  1  0  0  0  0
 23 24  2  0  0  0  0
 25 24  1  0  0  0  0
 26 25  2  0  0  0  0
 27 26  1  0  0  0  0
 28 27  2  0  0  0  0
 29 28  1  0  0  0  0
 29 30  2  0  0  0  0
 30 31  1  0  0  0  0
 31 22  2  0  0  0  0
 31 26  1  0  0  0  0
M  END
>  <minimizedAffinity>
-8.82411671

$$$$
