
 OpenBabel03272514343D

 29 33  0  0  0  0  0  0  0  0999 V2000
   34.0110   29.6140   44.7360 C   0  0  0  0  0  3  0  0  0  0  0  0
   32.9240   28.9260   45.2640 C   0  0  0  0  0  3  0  0  0  0  0  0
   32.9770   28.7190   46.6310 C   0  0  0  0  0  0  0  0  0  0  0  0
   34.0230   29.1780   47.2990 N   0  0  0  0  0  0  0  0  0  0  0  0
   35.0620   29.8310   46.8260 C   0  0  0  0  0  0  0  0  0  0  0  0
   35.0040   30.0240   45.5210 N   0  0  0  0  0  0  0  0  0  0  0  0
   36.2520   30.3800   47.4350 C   0  0  0  0  0  0  0  0  0  0  0  0
   37.1880   31.0930   46.6940 C   0  0  0  0  0  3  0  0  0  0  0  0
   38.3310   31.6310   47.2280 C   0  0  0  0  0  3  0  0  0  0  0  0
   38.6100   31.4790   48.5810 C   0  0  0  0  0  3  0  0  0  0  0  0
   37.7190   30.7920   49.3320 C   0  0  0  0  0  0  0  0  0  0  0  0
   37.9890   30.6350   50.6830 C   0  0  0  0  0  3  0  0  0  0  0  0
   37.1580   29.9600   51.5260 C   0  0  0  0  0  3  0  0  0  0  0  0
   36.0030   29.4200   50.9660 C   0  0  0  0  0  3  0  0  0  0  0  0
   35.7670   29.5930   49.6280 C   0  0  0  0  0  3  0  0  0  0  0  0
   36.5850   30.2610   48.7820 C   0  0  0  0  0  0  0  0  0  0  0  0
   31.9410   28.0310   47.3170 N   0  0  0  0  0  0  0  0  0  0  0  0
   32.0630   26.9490   48.0890 C   0  0  0  0  0  3  0  0  0  0  0  0
   30.8900   26.5730   48.5690 N   0  0  0  0  0  0  0  0  0  0  0  0
   29.9810   27.4310   48.0930 C   0  0  0  0  0  0  0  0  0  0  0  0
   30.6540   28.3160   47.3270 N   0  0  0  0  0  0  0  0  0  0  0  0
   28.5360   27.5660   48.2420 C   0  0  0  0  0  0  0  0  0  0  0  0
   27.5100   26.7240   48.3700 N   0  0  0  0  0  0  0  0  0  0  0  0
   26.3940   27.3840   48.4710 O   0  0  0  0  0  0  0  0  0  0  0  0
   26.6700   28.6710   48.4090 C   0  0  0  0  0  0  0  0  0  0  0  0
   28.0040   28.8150   48.2660 N   0  0  0  0  0  0  0  0  0  0  0  0
   25.7100   29.8240   48.4820 C   0  0  0  0  0  3  0  0  0  0  0  0
   26.3680   31.0990   48.8900 C   0  0  0  0  0  1  0  0  0  0  0  0
   24.5600   29.4890   49.4310 C   0  0  0  0  0  1  0  0  0  0  0  0
  1  2  2  0  0  0  0
  1  6  1  0  0  0  0
  2  3  1  0  0  0  0
  3  4  2  0  0  0  0
  3 17  1  0  0  0  0
  5  4  1  0  0  0  0
  5  7  1  0  0  0  0
  6  5  2  0  0  0  0
  7 16  1  0  0  0  0
  8  9  1  0  0  0  0
  8  7  2  0  0  0  0
  9 10  2  0  0  0  0
 10 11  1  0  0  0  0
 11 12  1  0  0  0  0
 12 13  2  0  0  0  0
 14 13  1  0  0  0  0
 15 14  2  0  0  0  0
 16 11  2  0  0  0  0
 16 15  1  0  0  0  0
 17 21  1  0  0  0  0
 17 18  1  0  0  0  0
 18 19  2  0  0  0  0
 20 22  1  0  0  0  0
 20 19  1  0  0  0  0
 21 20  2  0  0  0  0
 22 26  1  0  0  0  0
 22 23  2  0  0  0  0
 23 24  1  0  0  0  0
 25 24  1  0  0  0  0
 25 27  1  0  0  0  0
 26 25  2  0  0  0  0
 27 28  1  0  0  0  0
 27 29  1  0  0  0  0
M  END
>  <minimizedAffinity>
-8.40857697

$$$$

 OpenBabel03272514343D

 29 33  0  0  0  0  0  0  0  0999 V2000
   32.8220   25.8350   47.5780 C   0  0  0  0  0  3  0  0  0  0  0  0
   31.5340   26.0280   48.0660 C   0  0  0  0  0  3  0  0  0  0  0  0
   31.2670   27.3120   48.5070 C   0  0  0  0  0  0  0  0  0  0  0  0
   32.2280   28.2180   48.4320 N   0  0  0  0  0  0  0  0  0  0  0  0
   33.4520   28.0630   47.9750 C   0  0  0  0  0  0  0  0  0  0  0  0
   33.6980   26.8360   47.5560 N   0  0  0  0  0  0  0  0  0  0  0  0
   34.5820   28.9540   47.8370 C   0  0  0  0  0  0  0  0  0  0  0  0
   34.9430   29.4880   46.6060 C   0  0  0  0  0  3  0  0  0  0  0  0
   36.0060   30.3360   46.4270 C   0  0  0  0  0  3  0  0  0  0  0  0
   36.7940   30.7080   47.5090 C   0  0  0  0  0  3  0  0  0  0  0  0
   36.4700   30.2060   48.7230 C   0  0  0  0  0  0  0  0  0  0  0  0
   37.2510   30.5720   49.8090 C   0  0  0  0  0  3  0  0  0  0  0  0
   37.0110   30.1220   51.0730 C   0  0  0  0  0  3  0  0  0  0  0  0
   35.9280   29.2620   51.2350 C   0  0  0  0  0  3  0  0  0  0  0  0
   35.1770   28.9210   50.1420 C   0  0  0  0  0  3  0  0  0  0  0  0
   35.4070   29.3610   48.8830 C   0  0  0  0  0  0  0  0  0  0  0  0
   29.9960   27.6650   49.0350 N   0  0  0  0  0  0  0  0  0  0  0  0
   29.3840   27.1310   50.0940 C   0  0  0  0  0  3  0  0  0  0  0  0
   28.2100   27.7020   50.3010 N   0  0  0  0  0  0  0  0  0  0  0  0
   28.0530   28.6290   49.3500 C   0  0  0  0  0  0  0  0  0  0  0  0
   29.1660   28.5850   48.5860 N   0  0  0  0  0  0  0  0  0  0  0  0
   26.9990   29.5840   49.0260 C   0  0  0  0  0  0  0  0  0  0  0  0
   25.7120   29.7260   49.3460 N   0  0  0  0  0  0  0  0  0  0  0  0
   25.2170   30.7810   48.7690 O   0  0  0  0  0  0  0  0  0  0  0  0
   26.1720   31.3480   48.0600 C   0  0  0  0  0  0  0  0  0  0  0  0
   27.2990   30.6210   48.2010 N   0  0  0  0  0  0  0  0  0  0  0  0
   26.0810   32.5900   47.2190 C   0  0  0  0  0  3  0  0  0  0  0  0
   24.7360   33.2320   47.2810 C   0  0  0  0  0  1  0  0  0  0  0  0
   26.4540   32.2710   45.7720 C   0  0  0  0  0  1  0  0  0  0  0  0
  1  2  1  0  0  0  0
  2  3  2  0  0  0  0
  3 17  1  0  0  0  0
  4  3  1  0  0  0  0
  5  4  2  0  0  0  0
  6  1  2  0  0  0  0
  6  5  1  0  0  0  0
  7  5  1  0  0  0  0
  7 16  1  0  0  0  0
  8  7  2  0  0  0  0
  9  8  1  0  0  0  0
  9 10  2  0  0  0  0
 10 11  1  0  0  0  0
 11 16  2  0  0  0  0
 11 12  1  0  0  0  0
 12 13  2  0  0  0  0
 13 14  1  0  0  0  0
 15 14  2  0  0  0  0
 16 15  1  0  0  0  0
 17 18  1  0  0  0  0
 18 19  2  0  0  0  0
 20 19  1  0  0  0  0
 21 17  1  0  0  0  0
 21 20  2  0  0  0  0
 22 23  2  0  0  0  0
 22 20  1  0  0  0  0
 24 23  1  0  0  0  0
 25 26  2  0  0  0  0
 25 24  1  0  0  0  0
 26 22  1  0  0  0  0
 27 28  1  0  0  0  0
 27 25  1  0  0  0  0
 29 27  1  0  0  0  0
M  END
>  <minimizedAffinity>
-8.30939198

$$$$

 OpenBabel03272514343D

 29 33  0  0  0  0  0  0  0  0999 V2000
   33.4460   26.5370   47.5380 C   0  0  0  0  0  3  0  0  0  0  0  0
   32.0810   26.6320   47.7910 C   0  0  0  0  0  3  0  0  0  0  0  0
   31.7290   27.6070   48.7090 C   0  0  0  0  0  0  0  0  0  0  0  0
   32.6870   28.3400   49.2510 N   0  0  0  0  0  0  0  0  0  0  0  0
   33.9820   28.2710   49.0290 C   0  0  0  0  0  0  0  0  0  0  0  0
   34.3100   27.3400   48.1530 N   0  0  0  0  0  0  0  0  0  0  0  0
   35.1190   29.0000   49.5450 C   0  0  0  0  0  0  0  0  0  0  0  0
   35.4590   28.9640   50.8920 C   0  0  0  0  0  3  0  0  0  0  0  0
   36.5260   29.6390   51.4250 C   0  0  0  0  0  3  0  0  0  0  0  0
   37.3420   30.4140   50.6110 C   0  0  0  0  0  3  0  0  0  0  0  0
   37.0400   30.4710   49.2930 C   0  0  0  0  0  0  0  0  0  0  0  0
   37.8480   31.2430   48.4720 C   0  0  0  0  0  3  0  0  0  0  0  0
   37.6320   31.3670   47.1320 C   0  0  0  0  0  3  0  0  0  0  0  0
   36.5420   30.6760   46.6090 C   0  0  0  0  0  3  0  0  0  0  0  0
   35.7640   29.9230   47.4470 C   0  0  0  0  0  3  0  0  0  0  0  0
   35.9710   29.7920   48.7780 C   0  0  0  0  0  0  0  0  0  0  0  0
   30.3730   27.8260   49.0730 N   0  0  0  0  0  0  0  0  0  0  0  0
   29.6520   27.1310   49.9550 C   0  0  0  0  0  3  0  0  0  0  0  0
   28.4230   27.6110   50.0460 N   0  0  0  0  0  0  0  0  0  0  0  0
   28.3430   28.6430   49.1980 C   0  0  0  0  0  0  0  0  0  0  0  0
   29.5550   28.7520   48.6140 N   0  0  0  0  0  0  0  0  0  0  0  0
   27.2850   29.5760   48.8310 C   0  0  0  0  0  0  0  0  0  0  0  0
   26.0100   29.7550   49.1810 N   0  0  0  0  0  0  0  0  0  0  0  0
   25.5020   30.7630   48.5350 O   0  0  0  0  0  0  0  0  0  0  0  0
   26.4360   31.2620   47.7490 C   0  0  0  0  0  0  0  0  0  0  0  0
   27.5620   30.5390   47.9140 N   0  0  0  0  0  0  0  0  0  0  0  0
   26.3240   32.4310   46.8130 C   0  0  0  0  0  3  0  0  0  0  0  0
   25.0960   33.2450   47.0480 C   0  0  0  0  0  1  0  0  0  0  0  0
   26.3740   31.9470   45.3640 C   0  0  0  0  0  1  0  0  0  0  0  0
  1  2  2  0  0  0  0
  1  6  1  0  0  0  0
  2  3  1  0  0  0  0
  3 17  1  0  0  0  0
  3  4  2  0  0  0  0
  5  4  1  0  0  0  0
  5  7  1  0  0  0  0
  6  5  2  0  0  0  0
  7  8  1  0  0  0  0
  8  9  2  0  0  0  0
 10  9  1  0  0  0  0
 11 10  2  0  0  0  0
 12 11  1  0  0  0  0
 13 12  2  0  0  0  0
 14 13  1  0  0  0  0
 14 15  2  0  0  0  0
 15 16  1  0  0  0  0
 16 11  1  0  0  0  0
 16  7  2  0  0  0  0
 17 18  1  0  0  0  0
 18 19  2  0  0  0  0
 20 19  1  0  0  0  0
 21 17  1  0  0  0  0
 21 20  2  0  0  0  0
 22 23  2  0  0  0  0
 22 20  1  0  0  0  0
 24 23  1  0  0  0  0
 25 26  2  0  0  0  0
 25 24  1  0  0  0  0
 26 22  1  0  0  0  0
 27 28  1  0  0  0  0
 27 25  1  0  0  0  0
 29 27  1  0  0  0  0
M  END
>  <minimizedAffinity>
-8.26685619

$$$$

 OpenBabel03272514343D

 29 33  0  0  0  0  0  0  0  0999 V2000
   35.7960   29.7990   44.1720 C   0  0  0  0  0  3  0  0  0  0  0  0
   34.5000   29.3060   44.2860 C   0  0  0  0  0  3  0  0  0  0  0  0
   33.9750   29.3460   45.5650 C   0  0  0  0  0  0  0  0  0  0  0  0
   34.7240   29.8320   46.5410 N   0  0  0  0  0  0  0  0  0  0  0  0
   35.9490   30.3060   46.4610 C   0  0  0  0  0  0  0  0  0  0  0  0
   36.4430   30.2640   45.2380 N   0  0  0  0  0  0  0  0  0  0  0  0
   36.8660   30.8590   47.4320 C   0  0  0  0  0  0  0  0  0  0  0  0
   37.7990   31.8280   47.0830 C   0  0  0  0  0  3  0  0  0  0  0  0
   38.6880   32.3810   47.9690 C   0  0  0  0  0  3  0  0  0  0  0  0
   38.6930   31.9800   49.2990 C   0  0  0  0  0  3  0  0  0  0  0  0
   37.7950   31.0390   49.6730 C   0  0  0  0  0  0  0  0  0  0  0  0
   37.7920   30.6320   50.9990 C   0  0  0  0  0  3  0  0  0  0  0  0
   36.9300   29.6910   51.4780 C   0  0  0  0  0  3  0  0  0  0  0  0
   36.0360   29.1400   50.5640 C   0  0  0  0  0  3  0  0  0  0  0  0
   36.0660   29.5640   49.2620 C   0  0  0  0  0  3  0  0  0  0  0  0
   36.9160   30.4970   48.7760 C   0  0  0  0  0  0  0  0  0  0  0  0
   32.6630   28.8760   45.8420 N   0  0  0  0  0  0  0  0  0  0  0  0
   31.6960   28.6140   44.9600 C   0  0  0  0  0  3  0  0  0  0  0  0
   30.6000   28.1930   45.5690 N   0  0  0  0  0  0  0  0  0  0  0  0
   30.8600   28.1850   46.8810 C   0  0  0  0  0  0  0  0  0  0  0  0
   32.1340   28.6090   47.0200 N   0  0  0  0  0  0  0  0  0  0  0  0
   30.0890   27.8340   48.0670 C   0  0  0  0  0  0  0  0  0  0  0  0
   30.2140   26.9470   49.0560 N   0  0  0  0  0  0  0  0  0  0  0  0
   29.2190   27.0540   49.8860 O   0  0  0  0  0  0  0  0  0  0  0  0
   28.4230   28.0120   49.4550 C   0  0  0  0  0  0  0  0  0  0  0  0
   28.9430   28.5190   48.3180 N   0  0  0  0  0  0  0  0  0  0  0  0
   27.1470   28.5010   50.0790 C   0  0  0  0  0  3  0  0  0  0  0  0
   26.7850   27.7510   51.3170 C   0  0  0  0  0  1  0  0  0  0  0  0
   26.0080   28.4340   49.0620 C   0  0  0  0  0  1  0  0  0  0  0  0
  1  2  2  0  0  0  0
  1  6  1  0  0  0  0
  2  3  1  0  0  0  0
  3 17  1  0  0  0  0
  3  4  2  0  0  0  0
  5  4  1  0  0  0  0
  5  7  1  0  0  0  0
  6  5  2  0  0  0  0
  7 16  1  0  0  0  0
  8  7  2  0  0  0  0
  8  9  1  0  0  0  0
  9 10  2  0  0  0  0
 10 11  1  0  0  0  0
 11 12  1  0  0  0  0
 12 13  2  0  0  0  0
 14 13  1  0  0  0  0
 15 14  2  0  0  0  0
 16 15  1  0  0  0  0
 16 11  2  0  0  0  0
 17 21  1  0  0  0  0
 18 19  2  0  0  0  0
 18 17  1  0  0  0  0
 19 20  1  0  0  0  0
 20 21  2  0  0  0  0
 20 22  1  0  0  0  0
 22 26  1  0  0  0  0
 22 23  2  0  0  0  0
 23 24  1  0  0  0  0
 25 24  1  0  0  0  0
 25 27  1  0  0  0  0
 26 25  2  0  0  0  0
 27 28  1  0  0  0  0
 29 27  1  0  0  0  0
M  END
>  <minimizedAffinity>
-8.06530857

$$$$

 OpenBabel03272514343D

 29 33  0  0  0  0  0  0  0  0999 V2000
   35.4210   29.8380   44.2120 C   0  0  0  0  0  3  0  0  0  0  0  0
   34.1240   29.3580   44.3600 C   0  0  0  0  0  3  0  0  0  0  0  0
   33.6560   29.3440   45.6630 C   0  0  0  0  0  0  0  0  0  0  0  0
   34.4550   29.7730   46.6250 N   0  0  0  0  0  0  0  0  0  0  0  0
   35.6830   30.2320   46.5130 C   0  0  0  0  0  0  0  0  0  0  0  0
   36.1220   30.2420   45.2680 N   0  0  0  0  0  0  0  0  0  0  0  0
   36.6510   30.7260   47.4660 C   0  0  0  0  0  0  0  0  0  0  0  0
   37.6510   31.6170   47.0950 C   0  0  0  0  0  3  0  0  0  0  0  0
   38.5900   32.1110   47.9640 C   0  0  0  0  0  3  0  0  0  0  0  0
   38.5800   31.7270   49.2980 C   0  0  0  0  0  3  0  0  0  0  0  0
   37.6180   30.8610   49.6950 C   0  0  0  0  0  0  0  0  0  0  0  0
   37.6000   30.4720   51.0250 C   0  0  0  0  0  3  0  0  0  0  0  0
   36.6750   29.6050   51.5260 C   0  0  0  0  0  3  0  0  0  0  0  0
   35.7300   29.1130   50.6290 C   0  0  0  0  0  3  0  0  0  0  0  0
   35.7770   29.5170   49.3210 C   0  0  0  0  0  3  0  0  0  0  0  0
   36.6900   30.3780   48.8140 C   0  0  0  0  0  0  0  0  0  0  0  0
   32.3500   28.8800   45.9760 N   0  0  0  0  0  0  0  0  0  0  0  0
   31.9670   27.6170   46.1720 C   0  0  0  0  0  3  0  0  0  0  0  0
   30.6750   27.5500   46.4450 N   0  0  0  0  0  0  0  0  0  0  0  0
   30.2060   28.8020   46.4230 C   0  0  0  0  0  0  0  0  0  0  0  0
   31.2570   29.5990   46.1330 N   0  0  0  0  0  0  0  0  0  0  0  0
   28.8930   29.3980   46.6370 C   0  0  0  0  0  0  0  0  0  0  0  0
   28.0270   30.0860   45.8910 N   0  0  0  0  0  0  0  0  0  0  0  0
   26.9720   30.3910   46.5880 O   0  0  0  0  0  0  0  0  0  0  0  0
   27.1290   29.9080   47.8040 C   0  0  0  0  0  0  0  0  0  0  0  0
   28.3220   29.2820   47.8640 N   0  0  0  0  0  0  0  0  0  0  0  0
   26.1790   30.0060   48.9650 C   0  0  0  0  0  3  0  0  0  0  0  0
   25.3250   28.7920   49.1150 C   0  0  0  0  0  1  0  0  0  0  0  0
   25.3110   31.2560   48.8260 C   0  0  0  0  0  1  0  0  0  0  0  0
  1  2  2  0  0  0  0
  1  6  1  0  0  0  0
  2  3  1  0  0  0  0
  3 17  1  0  0  0  0
  3  4  2  0  0  0  0
  5  4  1  0  0  0  0
  5  7  1  0  0  0  0
  6  5  2  0  0  0  0
  7 16  1  0  0  0  0
  8  7  2  0  0  0  0
  8  9  1  0  0  0  0
  9 10  2  0  0  0  0
 10 11  1  0  0  0  0
 11 12  1  0  0  0  0
 12 13  2  0  0  0  0
 14 13  1  0  0  0  0
 15 14  2  0  0  0  0
 16 15  1  0  0  0  0
 16 11  2  0  0  0  0
 17 21  1  0  0  0  0
 17 18  1  0  0  0  0
 18 19  2  0  0  0  0
 20 19  1  0  0  0  0
 20 22  1  0  0  0  0
 21 20  2  0  0  0  0
 22 26  1  0  0  0  0
 23 24  1  0  0  0  0
 23 22  2  0  0  0  0
 24 25  1  0  0  0  0
 25 26  2  0  0  0  0
 25 27  1  0  0  0  0
 27 28  1  0  0  0  0
 29 27  1  0  0  0  0
M  END
>  <minimizedAffinity>
-8.03604984

$$$$

 OpenBabel03272514343D

 29 33  0  0  0  0  0  0  0  0999 V2000
   31.8970   26.4950   47.4420 C   0  0  0  0  0  3  0  0  0  0  0  0
   33.0850   27.1670   47.7060 C   0  0  0  0  0  3  0  0  0  0  0  0
   33.0130   28.0890   48.7370 C   0  0  0  0  0  0  0  0  0  0  0  0
   31.8580   28.2480   49.3610 N   0  0  0  0  0  0  0  0  0  0  0  0
   30.7210   27.6270   49.1320 C   0  0  0  0  0  0  0  0  0  0  0  0
   30.7980   26.7490   48.1480 N   0  0  0  0  0  0  0  0  0  0  0  0
   29.4070   27.7040   49.7300 C   0  0  0  0  0  0  0  0  0  0  0  0
   29.0930   27.0070   50.8910 C   0  0  0  0  0  3  0  0  0  0  0  0
   27.8620   27.0490   51.4930 C   0  0  0  0  0  3  0  0  0  0  0  0
   26.8420   27.8170   50.9460 C   0  0  0  0  0  3  0  0  0  0  0  0
   27.1140   28.5100   49.8160 C   0  0  0  0  0  0  0  0  0  0  0  0
   26.1010   29.2790   49.2630 C   0  0  0  0  0  3  0  0  0  0  0  0
   26.2710   30.0120   48.1270 C   0  0  0  0  0  3  0  0  0  0  0  0
   27.5270   29.9570   47.5290 C   0  0  0  0  0  3  0  0  0  0  0  0
   28.5050   29.1860   48.1010 C   0  0  0  0  0  3  0  0  0  0  0  0
   28.3470   28.4550   49.2280 C   0  0  0  0  0  0  0  0  0  0  0  0
   34.1440   28.8550   49.1250 N   0  0  0  0  0  0  0  0  0  0  0  0
   34.6240   29.0170   50.3600 C   0  0  0  0  0  3  0  0  0  0  0  0
   35.6910   29.7980   50.3560 N   0  0  0  0  0  0  0  0  0  0  0  0
   35.9080   30.1550   49.0850 C   0  0  0  0  0  0  0  0  0  0  0  0
   34.9430   29.5620   48.3510 N   0  0  0  0  0  0  0  0  0  0  0  0
   36.9030   30.9880   48.4200 C   0  0  0  0  0  0  0  0  0  0  0  0
   37.5980   32.0810   48.7410 N   0  0  0  0  0  0  0  0  0  0  0  0
   38.3740   32.4280   47.7580 O   0  0  0  0  0  0  0  0  0  0  0  0
   38.2010   31.5680   46.7740 C   0  0  0  0  0  0  0  0  0  0  0  0
   37.2860   30.6560   47.1610 N   0  0  0  0  0  0  0  0  0  0  0  0
   38.8770   31.5540   45.4320 C   0  0  0  0  0  3  0  0  0  0  0  0
   38.2990   32.5510   44.4840 C   0  0  0  0  0  1  0  0  0  0  0  0
   38.8190   30.1500   44.8310 C   0  0  0  0  0  1  0  0  0  0  0  0
  1  2  2  0  0  0  0
  1  6  1  0  0  0  0
  2  3  1  0  0  0  0
  3 17  1  0  0  0  0
  3  4  2  0  0  0  0
  5  4  1  0  0  0  0
  5  7  1  0  0  0  0
  6  5  2  0  0  0  0
  7  8  1  0  0  0  0
  8  9  2  0  0  0  0
 10  9  1  0  0  0  0
 11 10  2  0  0  0  0
 12 11  1  0  0  0  0
 13 12  2  0  0  0  0
 14 15  2  0  0  0  0
 14 13  1  0  0  0  0
 15 16  1  0  0  0  0
 16  7  2  0  0  0  0
 16 11  1  0  0  0  0
 17 18  1  0  0  0  0
 19 18  2  0  0  0  0
 20 19  1  0  0  0  0
 21 20  2  0  0  0  0
 21 17  1  0  0  0  0
 22 23  2  0  0  0  0
 22 20  1  0  0  0  0
 24 23  1  0  0  0  0
 25 26  2  0  0  0  0
 25 24  1  0  0  0  0
 26 22  1  0  0  0  0
 27 25  1  0  0  0  0
 28 27  1  0  0  0  0
 29 27  1  0  0  0  0
M  END
>  <minimizedAffinity>
-7.84599113

$$$$

 OpenBabel03272514343D

 29 33  0  0  0  0  0  0  0  0999 V2000
   35.1370   29.9610   44.8440 C   0  0  0  0  0  3  0  0  0  0  0  0
   33.7880   30.0220   44.5080 C   0  0  0  0  0  3  0  0  0  0  0  0
   32.9230   30.0400   45.5880 C   0  0  0  0  0  0  0  0  0  0  0  0
   33.4330   29.9980   46.8080 N   0  0  0  0  0  0  0  0  0  0  0  0
   34.7020   29.9410   47.1520 C   0  0  0  0  0  0  0  0  0  0  0  0
   35.5210   29.9240   46.1170 N   0  0  0  0  0  0  0  0  0  0  0  0
   35.3850   29.8910   48.4250 C   0  0  0  0  0  0  0  0  0  0  0  0
   34.9410   29.0760   49.4600 C   0  0  0  0  0  3  0  0  0  0  0  0
   35.5560   28.9980   50.6830 C   0  0  0  0  0  3  0  0  0  0  0  0
   36.6880   29.7580   50.9470 C   0  0  0  0  0  3  0  0  0  0  0  0
   37.1480   30.5620   49.9610 C   0  0  0  0  0  0  0  0  0  0  0  0
   38.2780   31.3250   50.2160 C   0  0  0  0  0  3  0  0  0  0  0  0
   38.8210   32.1660   49.2920 C   0  0  0  0  0  3  0  0  0  0  0  0
   38.1830   32.2340   48.0570 C   0  0  0  0  0  3  0  0  0  0  0  0
   37.0690   31.4680   47.8380 C   0  0  0  0  0  3  0  0  0  0  0  0
   36.5210   30.6290   48.7480 C   0  0  0  0  0  0  0  0  0  0  0  0
   31.5150   30.1000   45.4080 N   0  0  0  0  0  0  0  0  0  0  0  0
   30.8530   30.6940   44.4130 C   0  0  0  0  0  3  0  0  0  0  0  0
   29.5460   30.5530   44.5620 N   0  0  0  0  0  0  0  0  0  0  0  0
   29.3550   29.8520   45.6840 C   0  0  0  0  0  0  0  0  0  0  0  0
   30.5810   29.5870   46.1830 N   0  0  0  0  0  0  0  0  0  0  0  0
   28.1740   29.3710   46.3930 C   0  0  0  0  0  0  0  0  0  0  0  0
   27.3770   28.3050   46.3010 N   0  0  0  0  0  0  0  0  0  0  0  0
   26.4400   28.3640   47.2010 O   0  0  0  0  0  0  0  0  0  0  0  0
   26.6070   29.4700   47.8980 C   0  0  0  0  0  0  0  0  0  0  0  0
   27.6850   30.1210   47.4140 N   0  0  0  0  0  0  0  0  0  0  0  0
   25.7740   29.9720   49.0430 C   0  0  0  0  0  3  0  0  0  0  0  0
   24.6640   29.0410   49.4020 C   0  0  0  0  0  1  0  0  0  0  0  0
   25.2230   31.3600   48.7210 C   0  0  0  0  0  1  0  0  0  0  0  0
  1  6  1  0  0  0  0
  2  1  2  0  0  0  0
  2  3  1  0  0  0  0
  3  4  2  0  0  0  0
  4  5  1  0  0  0  0
  5  7  1  0  0  0  0
  6  5  2  0  0  0  0
  7 16  2  0  0  0  0
  7  8  1  0  0  0  0
  8  9  2  0  0  0  0
  9 10  1  0  0  0  0
 11 12  1  0  0  0  0
 11 10  2  0  0  0  0
 13 12  2  0  0  0  0
 14 13  1  0  0  0  0
 15 14  2  0  0  0  0
 15 16  1  0  0  0  0
 16 11  1  0  0  0  0
 17  3  1  0  0  0  0
 17 21  1  0  0  0  0
 18 19  2  0  0  0  0
 18 17  1  0  0  0  0
 19 20  1  0  0  0  0
 20 21  2  0  0  0  0
 20 22  1  0  0  0  0
 22 26  1  0  0  0  0
 23 22  2  0  0  0  0
 23 24  1  0  0  0  0
 24 25  1  0  0  0  0
 25 27  1  0  0  0  0
 26 25  2  0  0  0  0
 27 28  1  0  0  0  0
 29 27  1  0  0  0  0
M  END
>  <minimizedAffinity>
-7.83339071

$$$$

 OpenBabel03272514343D

 29 33  0  0  0  0  0  0  0  0999 V2000
   28.7680   30.1000   44.8450 C   0  0  0  0  0  3  0  0  0  0  0  0
   30.1420   29.8850   44.8330 C   0  0  0  0  0  3  0  0  0  0  0  0
   30.6600   29.3800   46.0130 C   0  0  0  0  0  0  0  0  0  0  0  0
   29.8330   29.1540   47.0200 N   0  0  0  0  0  0  0  0  0  0  0  0
   28.5320   29.3490   47.0580 C   0  0  0  0  0  0  0  0  0  0  0  0
   28.0460   29.8300   45.9290 N   0  0  0  0  0  0  0  0  0  0  0  0
   27.5270   29.1470   48.0770 C   0  0  0  0  0  0  0  0  0  0  0  0
   26.2510   29.6850   47.9580 C   0  0  0  0  0  3  0  0  0  0  0  0
   25.2660   29.5210   48.8980 C   0  0  0  0  0  3  0  0  0  0  0  0
   25.5120   28.7820   50.0480 C   0  0  0  0  0  3  0  0  0  0  0  0
   26.7440   28.2420   50.1950 C   0  0  0  0  0  0  0  0  0  0  0  0
   27.0000   27.5030   51.3400 C   0  0  0  0  0  3  0  0  0  0  0  0
   28.2060   26.9180   51.5850 C   0  0  0  0  0  3  0  0  0  0  0  0
   29.1940   27.0970   50.6200 C   0  0  0  0  0  3  0  0  0  0  0  0
   28.9090   27.8330   49.5010 C   0  0  0  0  0  3  0  0  0  0  0  0
   27.7150   28.4170   49.2480 C   0  0  0  0  0  0  0  0  0  0  0  0
   32.0470   29.1080   46.1560 N   0  0  0  0  0  0  0  0  0  0  0  0
   32.6700   27.9500   45.9280 C   0  0  0  0  0  3  0  0  0  0  0  0
   33.9670   28.0540   46.1640 N   0  0  0  0  0  0  0  0  0  0  0  0
   34.1920   29.3120   46.5580 C   0  0  0  0  0  0  0  0  0  0  0  0
   32.9950   29.9370   46.5440 N   0  0  0  0  0  0  0  0  0  0  0  0
   35.3820   30.0530   46.9600 C   0  0  0  0  0  0  0  0  0  0  0  0
   36.4950   30.4680   46.3540 N   0  0  0  0  0  0  0  0  0  0  0  0
   37.2550   31.1070   47.1930 O   0  0  0  0  0  0  0  0  0  0  0  0
   36.6540   31.1210   48.3650 C   0  0  0  0  0  0  0  0  0  0  0  0
   35.4780   30.4690   48.2500 N   0  0  0  0  0  0  0  0  0  0  0  0
   37.1410   31.7410   49.6440 C   0  0  0  0  0  3  0  0  0  0  0  0
   37.8880   33.0130   49.4220 C   0  0  0  0  0  1  0  0  0  0  0  0
   38.0060   30.7420   50.4130 C   0  0  0  0  0  1  0  0  0  0  0  0
  1  6  1  0  0  0  0
  2  1  2  0  0  0  0
  2  3  1  0  0  0  0
  3 17  1  0  0  0  0
  3  4  2  0  0  0  0
  4  5  1  0  0  0  0
  5  7  1  0  0  0  0
  6  5  2  0  0  0  0
  7 16  1  0  0  0  0
  8  7  2  0  0  0  0
  8  9  1  0  0  0  0
  9 10  2  0  0  0  0
 10 11  1  0  0  0  0
 11 12  1  0  0  0  0
 12 13  2  0  0  0  0
 14 13  1  0  0  0  0
 15 14  2  0  0  0  0
 16 15  1  0  0  0  0
 16 11  2  0  0  0  0
 17 21  1  0  0  0  0
 18 17  1  0  0  0  0
 18 19  2  0  0  0  0
 19 20  1  0  0  0  0
 20 22  1  0  0  0  0
 21 20  2  0  0  0  0
 22 26  1  0  0  0  0
 23 22  2  0  0  0  0
 23 24  1  0  0  0  0
 24 25  1  0  0  0  0
 25 27  1  0  0  0  0
 26 25  2  0  0  0  0
 27 29  1  0  0  0  0
 28 27  1  0  0  0  0
M  END
>  <minimizedAffinity>
-7.78152084

$$$$

 OpenBabel03272514343D

 29 33  0  0  0  0  0  0  0  0999 V2000
   32.6540   25.9560   47.7040 C   0  0  0  0  0  3  0  0  0  0  0  0
   31.3020   26.2720   47.7850 C   0  0  0  0  0  3  0  0  0  0  0  0
   31.0260   27.6280   47.8180 C   0  0  0  0  0  0  0  0  0  0  0  0
   32.0370   28.4800   47.7730 N   0  0  0  0  0  0  0  0  0  0  0  0
   33.3210   28.2080   47.6960 C   0  0  0  0  0  0  0  0  0  0  0  0
   33.5770   26.9130   47.6640 N   0  0  0  0  0  0  0  0  0  0  0  0
   34.5100   29.0290   47.6390 C   0  0  0  0  0  0  0  0  0  0  0  0
   34.9760   29.5550   46.4400 C   0  0  0  0  0  3  0  0  0  0  0  0
   36.0970   30.3370   46.3380 C   0  0  0  0  0  3  0  0  0  0  0  0
   36.8410   30.6470   47.4690 C   0  0  0  0  0  3  0  0  0  0  0  0
   36.4140   30.1520   48.6550 C   0  0  0  0  0  0  0  0  0  0  0  0
   37.1500   30.4550   49.7900 C   0  0  0  0  0  3  0  0  0  0  0  0
   36.8070   30.0060   51.0310 C   0  0  0  0  0  3  0  0  0  0  0  0
   35.6660   29.2120   51.1150 C   0  0  0  0  0  3  0  0  0  0  0  0
   34.9630   28.9310   49.9730 C   0  0  0  0  0  3  0  0  0  0  0  0
   35.2940   29.3720   48.7380 C   0  0  0  0  0  0  0  0  0  0  0  0
   29.6920   28.1100   47.9010 N   0  0  0  0  0  0  0  0  0  0  0  0
   28.6640   27.5380   48.5320 C   0  0  0  0  0  3  0  0  0  0  0  0
   27.5660   28.2620   48.4030 N   0  0  0  0  0  0  0  0  0  0  0  0
   27.8870   29.3320   47.6670 C   0  0  0  0  0  0  0  0  0  0  0  0
   29.2000   29.2120   47.3730 N   0  0  0  0  0  0  0  0  0  0  0  0
   27.1460   30.4870   47.1770 C   0  0  0  0  0  0  0  0  0  0  0  0
   26.3590   31.4160   47.7240 N   0  0  0  0  0  0  0  0  0  0  0  0
   25.9400   32.2450   46.8140 O   0  0  0  0  0  0  0  0  0  0  0  0
   26.4440   31.8730   45.6540 C   0  0  0  0  0  0  0  0  0  0  0  0
   27.2030   30.7760   45.8510 N   0  0  0  0  0  0  0  0  0  0  0  0
   26.2440   32.5200   44.3130 C   0  0  0  0  0  3  0  0  0  0  0  0
   25.2930   33.6680   44.3610 C   0  0  0  0  0  1  0  0  0  0  0  0
   25.7750   31.4800   43.2950 C   0  0  0  0  0  1  0  0  0  0  0  0
  1  2  1  0  0  0  0
  2  3  2  0  0  0  0
  3 17  1  0  0  0  0
  4  3  1  0  0  0  0
  5  4  2  0  0  0  0
  6  5  1  0  0  0  0
  6  1  2  0  0  0  0
  7  5  1  0  0  0  0
  7 16  1  0  0  0  0
  8  7  2  0  0  0  0
  9  8  1  0  0  0  0
  9 10  2  0  0  0  0
 10 11  1  0  0  0  0
 11 16  2  0  0  0  0
 11 12  1  0  0  0  0
 12 13  2  0  0  0  0
 13 14  1  0  0  0  0
 15 14  2  0  0  0  0
 16 15  1  0  0  0  0
 17 18  1  0  0  0  0
 19 18  2  0  0  0  0
 20 19  1  0  0  0  0
 21 20  2  0  0  0  0
 21 17  1  0  0  0  0
 22 20  1  0  0  0  0
 22 23  2  0  0  0  0
 24 23  1  0  0  0  0
 25 26  2  0  0  0  0
 25 24  1  0  0  0  0
 26 22  1  0  0  0  0
 27 28  1  0  0  0  0
 27 25  1  0  0  0  0
 29 27  1  0  0  0  0
M  END
>  <minimizedAffinity>
-7.56745815

$$$$
