
 OpenBabel03272514303D

 31 36  0  0  0  0  0  0  0  0999 V2000
   34.4530   29.6950   44.5570 C   0  0  0  0  0  3  0  0  0  0  0  0
   33.3460   28.9510   44.9550 C   0  0  0  0  0  3  0  0  0  0  0  0
   33.2810   28.7090   46.3180 C   0  0  0  0  0  0  0  0  0  0  0  0
   34.2310   29.1800   47.1090 N   0  0  0  0  0  0  0  0  0  0  0  0
   35.2780   29.8830   46.7520 C   0  0  0  0  0  0  0  0  0  0  0  0
   35.3510   30.1200   45.4580 N   0  0  0  0  0  0  0  0  0  0  0  0
   36.3800   30.4560   47.5000 C   0  0  0  0  0  0  0  0  0  0  0  0
   37.3300   31.2710   46.8920 C   0  0  0  0  0  3  0  0  0  0  0  0
   38.3890   31.8380   47.5550 C   0  0  0  0  0  3  0  0  0  0  0  0
   38.5570   31.6110   48.9000 C   0  0  0  0  0  3  0  0  0  0  0  0
   37.6590   30.8240   49.5420 C   0  0  0  0  0  0  0  0  0  0  0  0
   37.8340   30.5960   50.9040 C   0  0  0  0  0  3  0  0  0  0  0  0
   36.9850   29.8230   51.6190 C   0  0  0  0  0  3  0  0  0  0  0  0
   35.9180   29.2580   50.9250 C   0  0  0  0  0  3  0  0  0  0  0  0
   35.7670   29.4960   49.5850 C   0  0  0  0  0  3  0  0  0  0  0  0
   36.6030   30.2650   48.8550 C   0  0  0  0  0  0  0  0  0  0  0  0
   32.2050   27.9590   46.8690 N   0  0  0  0  0  0  0  0  0  0  0  0
   32.2370   26.7090   47.3350 C   0  0  0  0  0  3  0  0  0  0  0  0
   31.0440   26.3430   47.7690 N   0  0  0  0  0  0  0  0  0  0  0  0
   30.2130   27.3620   47.5880 C   0  0  0  0  0  0  0  0  0  0  0  0
   30.9560   28.3350   47.0350 N   0  0  0  0  0  0  0  0  0  0  0  0
   28.7960   27.7300   47.7970 C   0  0  0  0  0  0  0  0  0  0  0  0
   27.9350   28.1590   46.8540 N   0  0  0  0  0  0  0  0  0  0  0  0
   26.6620   28.4740   47.1110 C   0  0  0  0  0  3  0  0  0  0  0  0
   26.1220   28.3950   48.3320 N   0  0  0  0  0  0  0  0  0  0  0  0
   26.9080   27.9780   49.3300 C   0  0  0  0  0  0  0  0  0  0  0  0
   26.3470   27.8970   50.5850 C   0  0  0  0  0  3  0  0  0  0  0  0
   27.0880   27.4800   51.6440 C   0  0  0  0  0  3  0  0  0  0  0  0
   28.4230   27.1370   51.4320 C   0  0  0  0  0  3  0  0  0  0  0  0
   28.9240   27.2390   50.1580 C   0  0  0  0  0  3  0  0  0  0  0  0
   28.2220   27.6550   49.0470 C   0  0  0  0  0  0  0  0  0  0  0  0
  1  2  2  0  0  0  0
  1  6  1  0  0  0  0
  2  3  1  0  0  0  0
  3 17  1  0  0  0  0
  3  4  2  0  0  0  0
  5  4  1  0  0  0  0
  5  7  1  0  0  0  0
  6  5  2  0  0  0  0
  7 16  1  0  0  0  0
  8  7  2  0  0  0  0
  8  9  1  0  0  0  0
  9 10  2  0  0  0  0
 10 11  1  0  0  0  0
 11 12  1  0  0  0  0
 12 13  2  0  0  0  0
 14 13  1  0  0  0  0
 15 14  2  0  0  0  0
 16 11  2  0  0  0  0
 16 15  1  0  0  0  0
 17 21  1  0  0  0  0
 17 18  1  0  0  0  0
 18 19  2  0  0  0  0
 20 19  1  0  0  0  0
 20 22  1  0  0  0  0
 21 20  2  0  0  0  0
 22 31  1  0  0  0  0
 23 24  1  0  0  0  0
 23 22  2  0  0  0  0
 24 25  2  0  0  0  0
 25 26  1  0  0  0  0
 26 27  1  0  0  0  0
 27 28  2  0  0  0  0
 29 28  1  0  0  0  0
 30 29  2  0  0  0  0
 31 26  2  0  0  0  0
 31 30  1  0  0  0  0
M  END
>  <minimizedAffinity>
-9.23664951

$$$$

 OpenBabel03272514303D

 31 36  0  0  0  0  0  0  0  0999 V2000
   33.7180   29.8490   44.8340 C   0  0  0  0  0  3  0  0  0  0  0  0
   32.6920   29.0120   45.2650 C   0  0  0  0  0  3  0  0  0  0  0  0
   32.8350   28.5570   46.5660 C   0  0  0  0  0  0  0  0  0  0  0  0
   33.8870   28.9330   47.2750 N   0  0  0  0  0  0  0  0  0  0  0  0
   34.8600   29.7200   46.8860 C   0  0  0  0  0  0  0  0  0  0  0  0
   34.7350   30.1600   45.6510 N   0  0  0  0  0  0  0  0  0  0  0  0
   36.0550   30.2080   47.5480 C   0  0  0  0  0  0  0  0  0  0  0  0
   37.0460   30.8940   46.8530 C   0  0  0  0  0  3  0  0  0  0  0  0
   38.1920   31.3770   47.4330 C   0  0  0  0  0  3  0  0  0  0  0  0
   38.4120   31.1920   48.7760 C   0  0  0  0  0  3  0  0  0  0  0  0
   37.4770   30.5290   49.5010 C   0  0  0  0  0  0  0  0  0  0  0  0
   37.7050   30.3430   50.8620 C   0  0  0  0  0  3  0  0  0  0  0  0
   36.8240   29.6930   51.6560 C   0  0  0  0  0  3  0  0  0  0  0  0
   35.6680   29.2120   51.0460 C   0  0  0  0  0  3  0  0  0  0  0  0
   35.4670   29.4070   49.7060 C   0  0  0  0  0  3  0  0  0  0  0  0
   36.3330   30.0530   48.8970 C   0  0  0  0  0  0  0  0  0  0  0  0
   31.8630   27.6910   47.1400 N   0  0  0  0  0  0  0  0  0  0  0  0
   31.6680   26.3970   46.8780 C   0  0  0  0  0  3  0  0  0  0  0  0
   30.6730   25.9200   47.6040 N   0  0  0  0  0  0  0  0  0  0  0  0
   30.2040   26.9100   48.3550 C   0  0  0  0  0  0  0  0  0  0  0  0
   30.9560   27.9790   48.0460 N   0  0  0  0  0  0  0  0  0  0  0  0
   29.1620   27.1760   49.3710 C   0  0  0  0  0  0  0  0  0  0  0  0
   29.2380   26.8900   50.6850 N   0  0  0  0  0  0  0  0  0  0  0  0
   28.2570   27.1590   51.5520 C   0  0  0  0  0  3  0  0  0  0  0  0
   27.1050   27.7380   51.1950 N   0  0  0  0  0  0  0  0  0  0  0  0
   26.9460   28.0560   49.9060 C   0  0  0  0  0  0  0  0  0  0  0  0
   25.7580   28.6530   49.5440 C   0  0  0  0  0  3  0  0  0  0  0  0
   25.5310   29.0030   48.2510 C   0  0  0  0  0  3  0  0  0  0  0  0
   26.5230   28.7460   47.3050 C   0  0  0  0  0  3  0  0  0  0  0  0
   27.6830   28.1480   47.7280 C   0  0  0  0  0  3  0  0  0  0  0  0
   27.9700   27.7710   49.0230 C   0  0  0  0  0  0  0  0  0  0  0  0
  1  2  2  0  0  0  0
  1  6  1  0  0  0  0
  2  3  1  0  0  0  0
  3 17  1  0  0  0  0
  3  4  2  0  0  0  0
  5  4  1  0  0  0  0
  5  7  1  0  0  0  0
  6  5  2  0  0  0  0
  7 16  1  0  0  0  0
  8  9  1  0  0  0  0
  8  7  2  0  0  0  0
  9 10  2  0  0  0  0
 10 11  1  0  0  0  0
 11 12  1  0  0  0  0
 12 13  2  0  0  0  0
 14 13  1  0  0  0  0
 15 14  2  0  0  0  0
 16 11  2  0  0  0  0
 16 15  1  0  0  0  0
 17 21  1  0  0  0  0
 18 17  1  0  0  0  0
 18 19  2  0  0  0  0
 19 20  1  0  0  0  0
 20 22  1  0  0  0  0
 21 20  2  0  0  0  0
 22 23  1  0  0  0  0
 23 24  2  0  0  0  0
 25 24  1  0  0  0  0
 26 25  2  0  0  0  0
 27 26  1  0  0  0  0
 28 27  2  0  0  0  0
 29 30  2  0  0  0  0
 29 28  1  0  0  0  0
 30 31  1  0  0  0  0
 31 22  2  0  0  0  0
 31 26  1  0  0  0  0
M  END
>  <minimizedAffinity>
-9.13494682

$$$$

 OpenBabel03272514303D

 31 36  0  0  0  0  0  0  0  0999 V2000
   31.8010   25.5030   47.5960 C   0  0  0  0  0  3  0  0  0  0  0  0
   32.7740   26.3370   47.0530 C   0  0  0  0  0  3  0  0  0  0  0  0
   32.5820   27.6850   47.3150 C   0  0  0  0  0  0  0  0  0  0  0  0
   31.5370   28.0660   48.0300 N   0  0  0  0  0  0  0  0  0  0  0  0
   30.6130   27.2960   48.5500 C   0  0  0  0  0  0  0  0  0  0  0  0
   30.7840   26.0130   48.3080 N   0  0  0  0  0  0  0  0  0  0  0  0
   29.4310   27.5750   49.3440 C   0  0  0  0  0  0  0  0  0  0  0  0
   29.2400   26.9980   50.5950 C   0  0  0  0  0  3  0  0  0  0  0  0
   28.1420   27.2300   51.3850 C   0  0  0  0  0  3  0  0  0  0  0  0
   27.1510   28.0750   50.9490 C   0  0  0  0  0  3  0  0  0  0  0  0
   27.2870   28.6640   49.7350 C   0  0  0  0  0  0  0  0  0  0  0  0
   26.2790   29.5190   49.2980 C   0  0  0  0  0  3  0  0  0  0  0  0
   26.3370   30.1460   48.1000 C   0  0  0  0  0  3  0  0  0  0  0  0
   27.4610   29.8950   47.3170 C   0  0  0  0  0  3  0  0  0  0  0  0
   28.4380   29.0500   47.7680 C   0  0  0  0  0  3  0  0  0  0  0  0
   28.3990   28.4160   48.9590 C   0  0  0  0  0  0  0  0  0  0  0  0
   33.4980   28.6540   46.8200 N   0  0  0  0  0  0  0  0  0  0  0  0
   33.4430   29.3090   45.6590 C   0  0  0  0  0  3  0  0  0  0  0  0
   34.4670   30.1350   45.5410 N   0  0  0  0  0  0  0  0  0  0  0  0
   35.2090   30.0250   46.6360 C   0  0  0  0  0  0  0  0  0  0  0  0
   34.5870   29.1100   47.3980 N   0  0  0  0  0  0  0  0  0  0  0  0
   36.4450   30.5720   47.2370 C   0  0  0  0  0  0  0  0  0  0  0  0
   37.4070   31.2610   46.5940 N   0  0  0  0  0  0  0  0  0  0  0  0
   38.5030   31.7310   47.1990 C   0  0  0  0  0  3  0  0  0  0  0  0
   38.7470   31.5580   48.5030 N   0  0  0  0  0  0  0  0  0  0  0  0
   37.8430   30.8820   49.2180 C   0  0  0  0  0  0  0  0  0  0  0  0
   38.0990   30.7080   50.5600 C   0  0  0  0  0  3  0  0  0  0  0  0
   37.2210   30.0320   51.3460 C   0  0  0  0  0  3  0  0  0  0  0  0
   36.0600   29.5220   50.7660 C   0  0  0  0  0  3  0  0  0  0  0  0
   35.8620   29.7280   49.4230 C   0  0  0  0  0  3  0  0  0  0  0  0
   36.7150   30.4040   48.5770 C   0  0  0  0  0  0  0  0  0  0  0  0
  1  6  1  0  0  0  0
  2  3  1  0  0  0  0
  2  1  2  0  0  0  0
  3  4  2  0  0  0  0
  4  5  1  0  0  0  0
  5  7  1  0  0  0  0
  6  5  2  0  0  0  0
  7  8  1  0  0  0  0
  8  9  2  0  0  0  0
 10  9  1  0  0  0  0
 11 10  2  0  0  0  0
 12 11  1  0  0  0  0
 13 12  2  0  0  0  0
 14 15  2  0  0  0  0
 14 13  1  0  0  0  0
 15 16  1  0  0  0  0
 16  7  2  0  0  0  0
 16 11  1  0  0  0  0
 17  3  1  0  0  0  0
 17 21  1  0  0  0  0
 18 17  1  0  0  0  0
 19 18  2  0  0  0  0
 19 20  1  0  0  0  0
 20 22  1  0  0  0  0
 20 21  2  0  0  0  0
 22 31  1  0  0  0  0
 23 24  1  0  0  0  0
 23 22  2  0  0  0  0
 24 25  2  0  0  0  0
 25 26  1  0  0  0  0
 26 27  1  0  0  0  0
 27 28  2  0  0  0  0
 29 28  1  0  0  0  0
 30 29  2  0  0  0  0
 31 26  2  0  0  0  0
 31 30  1  0  0  0  0
M  END
>  <minimizedAffinity>
-9.02982616

$$$$

 OpenBabel03272514303D

 31 36  0  0  0  0  0  0  0  0999 V2000
   34.3910   29.1990   44.9510 C   0  0  0  0  0  3  0  0  0  0  0  0
   33.2130   28.4970   45.1840 C   0  0  0  0  0  3  0  0  0  0  0  0
   32.8860   28.3560   46.5240 C   0  0  0  0  0  0  0  0  0  0  0  0
   33.6810   28.8760   47.4450 N   0  0  0  0  0  0  0  0  0  0  0  0
   34.7920   29.5410   47.2440 C   0  0  0  0  0  0  0  0  0  0  0  0
   35.1130   29.6810   45.9740 N   0  0  0  0  0  0  0  0  0  0  0  0
   35.7460   30.1580   48.1450 C   0  0  0  0  0  0  0  0  0  0  0  0
   35.6140   30.0620   49.5270 C   0  0  0  0  0  3  0  0  0  0  0  0
   36.4890   30.6250   50.4210 C   0  0  0  0  0  3  0  0  0  0  0  0
   37.5720   31.3350   49.9650 C   0  0  0  0  0  3  0  0  0  0  0  0
   37.7500   31.4600   48.6260 C   0  0  0  0  0  0  0  0  0  0  0  0
   38.8490   32.1820   48.1690 C   0  0  0  0  0  3  0  0  0  0  0  0
   39.0980   32.3540   46.8500 C   0  0  0  0  0  3  0  0  0  0  0  0
   38.1960   31.7730   45.9620 C   0  0  0  0  0  3  0  0  0  0  0  0
   37.1220   31.0690   46.4360 C   0  0  0  0  0  3  0  0  0  0  0  0
   36.8570   30.8850   47.7470 C   0  0  0  0  0  0  0  0  0  0  0  0
   31.7090   27.6580   46.9120 N   0  0  0  0  0  0  0  0  0  0  0  0
   31.1280   26.6310   46.2890 C   0  0  0  0  0  3  0  0  0  0  0  0
   30.0490   26.2400   46.9430 N   0  0  0  0  0  0  0  0  0  0  0  0
   29.9140   27.0170   48.0120 C   0  0  0  0  0  0  0  0  0  0  0  0
   30.9480   27.8740   47.9610 N   0  0  0  0  0  0  0  0  0  0  0  0
   29.0210   27.2150   49.1730 C   0  0  0  0  0  0  0  0  0  0  0  0
   29.2690   26.8440   50.4430 N   0  0  0  0  0  0  0  0  0  0  0  0
   28.4160   27.0540   51.4510 C   0  0  0  0  0  3  0  0  0  0  0  0
   27.2310   27.6540   51.2900 N   0  0  0  0  0  0  0  0  0  0  0  0
   26.9030   28.0560   50.0580 C   0  0  0  0  0  0  0  0  0  0  0  0
   25.6820   28.6740   49.8980 C   0  0  0  0  0  3  0  0  0  0  0  0
   25.2860   29.1080   48.6730 C   0  0  0  0  0  3  0  0  0  0  0  0
   26.1400   28.9140   47.5880 C   0  0  0  0  0  3  0  0  0  0  0  0
   27.3420   28.2910   47.8110 C   0  0  0  0  0  3  0  0  0  0  0  0
   27.7970   27.8310   49.0280 C   0  0  0  0  0  0  0  0  0  0  0  0
  1  2  2  0  0  0  0
  1  6  1  0  0  0  0
  2  3  1  0  0  0  0
  3 17  1  0  0  0  0
  3  4  2  0  0  0  0
  5  4  1  0  0  0  0
  5  7  1  0  0  0  0
  6  5  2  0  0  0  0
  7  8  1  0  0  0  0
  8  9  2  0  0  0  0
 10  9  1  0  0  0  0
 11 10  2  0  0  0  0
 12 11  1  0  0  0  0
 13 12  2  0  0  0  0
 14 15  2  0  0  0  0
 14 13  1  0  0  0  0
 15 16  1  0  0  0  0
 16  7  2  0  0  0  0
 16 11  1  0  0  0  0
 17 21  1  0  0  0  0
 18 17  1  0  0  0  0
 18 19  2  0  0  0  0
 19 20  1  0  0  0  0
 20 22  1  0  0  0  0
 21 20  2  0  0  0  0
 22 23  1  0  0  0  0
 23 24  2  0  0  0  0
 25 24  1  0  0  0  0
 26 25  2  0  0  0  0
 27 26  1  0  0  0  0
 28 27  2  0  0  0  0
 29 30  2  0  0  0  0
 29 28  1  0  0  0  0
 30 31  1  0  0  0  0
 31 22  2  0  0  0  0
 31 26  1  0  0  0  0
M  END
>  <minimizedAffinity>
-8.89857578

$$$$

 OpenBabel03272514303D

 31 36  0  0  0  0  0  0  0  0999 V2000
   31.2970   26.5550   46.6820 C   0  0  0  0  0  3  0  0  0  0  0  0
   32.5780   27.0700   46.8590 C   0  0  0  0  0  3  0  0  0  0  0  0
   32.7340   27.8310   48.0070 C   0  0  0  0  0  0  0  0  0  0  0  0
   31.7030   28.0070   48.8160 N   0  0  0  0  0  0  0  0  0  0  0  0
   30.4920   27.5290   48.6660 C   0  0  0  0  0  0  0  0  0  0  0  0
   30.3310   26.8030   47.5790 N   0  0  0  0  0  0  0  0  0  0  0  0
   29.2850   27.6390   49.4630 C   0  0  0  0  0  0  0  0  0  0  0  0
   29.1230   26.9260   50.6460 C   0  0  0  0  0  3  0  0  0  0  0  0
   28.0030   26.9970   51.4360 C   0  0  0  0  0  3  0  0  0  0  0  0
   26.9570   27.8080   51.0690 C   0  0  0  0  0  3  0  0  0  0  0  0
   27.0620   28.5250   49.9230 C   0  0  0  0  0  0  0  0  0  0  0  0
   25.9980   29.3450   49.5560 C   0  0  0  0  0  3  0  0  0  0  0  0
   26.0220   30.0930   48.4290 C   0  0  0  0  0  3  0  0  0  0  0  0
   27.1690   30.0050   47.6450 C   0  0  0  0  0  3  0  0  0  0  0  0
   28.2020   29.1910   48.0260 C   0  0  0  0  0  3  0  0  0  0  0  0
   28.1970   28.4380   49.1470 C   0  0  0  0  0  0  0  0  0  0  0  0
   33.9900   28.4230   48.3160 N   0  0  0  0  0  0  0  0  0  0  0  0
   34.6980   28.2940   49.4400 C   0  0  0  0  0  3  0  0  0  0  0  0
   35.8180   28.9900   49.3680 N   0  0  0  0  0  0  0  0  0  0  0  0
   35.8530   29.5870   48.1830 C   0  0  0  0  0  0  0  0  0  0  0  0
   34.7190   29.2180   47.5640 N   0  0  0  0  0  0  0  0  0  0  0  0
   36.7120   30.4860   47.3830 C   0  0  0  0  0  0  0  0  0  0  0  0
   36.8440   30.4800   46.0420 N   0  0  0  0  0  0  0  0  0  0  0  0
   37.6410   31.3240   45.3790 C   0  0  0  0  0  3  0  0  0  0  0  0
   38.3840   32.2550   45.9860 N   0  0  0  0  0  0  0  0  0  0  0  0
   38.3150   32.3310   47.3190 C   0  0  0  0  0  0  0  0  0  0  0  0
   39.0830   33.2920   47.9390 C   0  0  0  0  0  3  0  0  0  0  0  0
   39.0580   33.4240   49.2910 C   0  0  0  0  0  3  0  0  0  0  0  0
   38.2430   32.5700   50.0310 C   0  0  0  0  0  3  0  0  0  0  0  0
   37.5030   31.6320   49.3560 C   0  0  0  0  0  3  0  0  0  0  0  0
   37.4860   31.4510   47.9890 C   0  0  0  0  0  0  0  0  0  0  0  0
  1  2  2  0  0  0  0
  1  6  1  0  0  0  0
  2  3  1  0  0  0  0
  3 17  1  0  0  0  0
  3  4  2  0  0  0  0
  5  4  1  0  0  0  0
  5  7  1  0  0  0  0
  6  5  2  0  0  0  0
  7  8  1  0  0  0  0
  8  9  2  0  0  0  0
 10  9  1  0  0  0  0
 11 10  2  0  0  0  0
 12 11  1  0  0  0  0
 13 12  2  0  0  0  0
 14 15  2  0  0  0  0
 14 13  1  0  0  0  0
 15 16  1  0  0  0  0
 16  7  2  0  0  0  0
 16 11  1  0  0  0  0
 17 18  1  0  0  0  0
 19 18  2  0  0  0  0
 20 19  1  0  0  0  0
 21 20  2  0  0  0  0
 21 17  1  0  0  0  0
 22 31  1  0  0  0  0
 22 20  1  0  0  0  0
 23 22  2  0  0  0  0
 24 25  2  0  0  0  0
 24 23  1  0  0  0  0
 25 26  1  0  0  0  0
 26 27  2  0  0  0  0
 26 31  1  0  0  0  0
 27 28  1  0  0  0  0
 28 29  2  0  0  0  0
 30 29  1  0  0  0  0
 31 30  2  0  0  0  0
M  END
>  <minimizedAffinity>
-8.87669563

$$$$

 OpenBabel03272514303D

 31 36  0  0  0  0  0  0  0  0999 V2000
   29.2290   30.1370   45.1000 C   0  0  0  0  0  3  0  0  0  0  0  0
   30.5800   29.8240   45.2240 C   0  0  0  0  0  3  0  0  0  0  0  0
   30.9210   29.2360   46.4320 C   0  0  0  0  0  0  0  0  0  0  0  0
   29.9830   29.0230   47.3400 N   0  0  0  0  0  0  0  0  0  0  0  0
   28.7080   29.3090   47.2400 C   0  0  0  0  0  0  0  0  0  0  0  0
   28.3710   29.8690   46.0960 N   0  0  0  0  0  0  0  0  0  0  0  0
   27.5860   29.1330   48.1410 C   0  0  0  0  0  0  0  0  0  0  0  0
   26.3350   29.6750   47.8660 C   0  0  0  0  0  3  0  0  0  0  0  0
   25.2430   29.5360   48.6840 C   0  0  0  0  0  3  0  0  0  0  0  0
   25.3500   28.8260   49.8550 C   0  0  0  0  0  3  0  0  0  0  0  0
   26.5480   28.2750   50.1730 C   0  0  0  0  0  0  0  0  0  0  0  0
   26.6520   27.5580   51.3610 C   0  0  0  0  0  3  0  0  0  0  0  0
   27.8100   26.9770   51.7520 C   0  0  0  0  0  3  0  0  0  0  0  0
   28.9040   27.1330   50.9050 C   0  0  0  0  0  3  0  0  0  0  0  0
   28.7770   27.8440   49.7420 C   0  0  0  0  0  3  0  0  0  0  0  0
   27.6310   28.4290   49.3350 C   0  0  0  0  0  0  0  0  0  0  0  0
   32.2680   28.8650   46.7000 N   0  0  0  0  0  0  0  0  0  0  0  0
   32.7750   27.6320   46.7710 C   0  0  0  0  0  3  0  0  0  0  0  0
   34.0680   27.6750   47.0380 N   0  0  0  0  0  0  0  0  0  0  0  0
   34.4210   28.9510   47.1450 C   0  0  0  0  0  0  0  0  0  0  0  0
   33.2950   29.6520   46.9320 N   0  0  0  0  0  0  0  0  0  0  0  0
   35.6110   29.7860   47.4140 C   0  0  0  0  0  0  0  0  0  0  0  0
   36.3140   30.4900   46.5060 N   0  0  0  0  0  0  0  0  0  0  0  0
   37.3830   31.2290   46.8170 C   0  0  0  0  0  3  0  0  0  0  0  0
   37.8580   31.3370   48.0630 N   0  0  0  0  0  0  0  0  0  0  0  0
   37.2200   30.6680   49.0290 C   0  0  0  0  0  0  0  0  0  0  0  0
   37.7130   30.7840   50.3100 C   0  0  0  0  0  3  0  0  0  0  0  0
   37.1120   30.1320   51.3390 C   0  0  0  0  0  3  0  0  0  0  0  0
   35.9900   29.3490   51.0700 C   0  0  0  0  0  3  0  0  0  0  0  0
   35.5480   29.2730   49.7730 C   0  0  0  0  0  3  0  0  0  0  0  0
   36.1150   29.9100   48.6890 C   0  0  0  0  0  0  0  0  0  0  0  0
  1  2  2  0  0  0  0
  1  6  1  0  0  0  0
  2  3  1  0  0  0  0
  3 17  1  0  0  0  0
  3  4  2  0  0  0  0
  5  4  1  0  0  0  0
  5  7  1  0  0  0  0
  6  5  2  0  0  0  0
  7 16  1  0  0  0  0
  8  7  2  0  0  0  0
  8  9  1  0  0  0  0
  9 10  2  0  0  0  0
 10 11  1  0  0  0  0
 11 12  1  0  0  0  0
 12 13  2  0  0  0  0
 14 13  1  0  0  0  0
 15 14  2  0  0  0  0
 16 15  1  0  0  0  0
 16 11  2  0  0  0  0
 17 18  1  0  0  0  0
 17 21  1  0  0  0  0
 18 19  2  0  0  0  0
 19 20  1  0  0  0  0
 20 22  1  0  0  0  0
 21 20  2  0  0  0  0
 22 31  1  0  0  0  0
 23 24  1  0  0  0  0
 23 22  2  0  0  0  0
 24 25  2  0  0  0  0
 25 26  1  0  0  0  0
 26 27  1  0  0  0  0
 27 28  2  0  0  0  0
 29 28  1  0  0  0  0
 30 29  2  0  0  0  0
 31 26  2  0  0  0  0
 31 30  1  0  0  0  0
M  END
>  <minimizedAffinity>
-8.84999561

$$$$

 OpenBabel03272514303D

 31 36  0  0  0  0  0  0  0  0999 V2000
   34.5450   29.2030   45.0510 C   0  0  0  0  0  3  0  0  0  0  0  0
   33.1800   29.0210   44.8450 C   0  0  0  0  0  3  0  0  0  0  0  0
   32.4240   29.0070   46.0060 C   0  0  0  0  0  0  0  0  0  0  0  0
   33.0250   29.1600   47.1750 N   0  0  0  0  0  0  0  0  0  0  0  0
   34.3060   29.3340   47.3870 C   0  0  0  0  0  0  0  0  0  0  0  0
   35.0350   29.3500   46.2910 N   0  0  0  0  0  0  0  0  0  0  0  0
   35.0880   29.5130   48.5950 C   0  0  0  0  0  0  0  0  0  0  0  0
   34.7270   28.9090   49.7960 C   0  0  0  0  0  3  0  0  0  0  0  0
   35.4330   29.0460   50.9640 C   0  0  0  0  0  3  0  0  0  0  0  0
   36.5690   29.8180   50.9920 C   0  0  0  0  0  3  0  0  0  0  0  0
   36.9660   30.4300   49.8490 C   0  0  0  0  0  0  0  0  0  0  0  0
   38.1180   31.2120   49.8840 C   0  0  0  0  0  3  0  0  0  0  0  0
   38.5820   31.8560   48.7880 C   0  0  0  0  0  3  0  0  0  0  0  0
   37.8490   31.7020   47.6140 C   0  0  0  0  0  3  0  0  0  0  0  0
   36.7200   30.9290   47.6060 C   0  0  0  0  0  3  0  0  0  0  0  0
   36.2410   30.2780   48.6870 C   0  0  0  0  0  0  0  0  0  0  0  0
   31.0140   28.8270   45.9490 N   0  0  0  0  0  0  0  0  0  0  0  0
   30.2800   28.4700   44.8930 C   0  0  0  0  0  3  0  0  0  0  0  0
   29.0010   28.4020   45.2170 N   0  0  0  0  0  0  0  0  0  0  0  0
   28.8870   28.7180   46.5020 C   0  0  0  0  0  0  0  0  0  0  0  0
   30.1390   28.9720   46.9190 N   0  0  0  0  0  0  0  0  0  0  0  0
   27.8580   28.8680   47.5530 C   0  0  0  0  0  0  0  0  0  0  0  0
   27.5830   27.9850   48.5320 N   0  0  0  0  0  0  0  0  0  0  0  0
   26.6360   28.1840   49.4550 C   0  0  0  0  0  3  0  0  0  0  0  0
   25.8700   29.2800   49.4900 N   0  0  0  0  0  0  0  0  0  0  0  0
   26.0750   30.2090   48.5520 C   0  0  0  0  0  0  0  0  0  0  0  0
   25.2850   31.3360   48.5940 C   0  0  0  0  0  3  0  0  0  0  0  0
   25.4420   32.3210   47.6720 C   0  0  0  0  0  3  0  0  0  0  0  0
   26.4170   32.1660   46.6880 C   0  0  0  0  0  3  0  0  0  0  0  0
   27.1720   31.0200   46.6980 C   0  0  0  0  0  3  0  0  0  0  0  0
   27.0590   29.9880   47.6060 C   0  0  0  0  0  0  0  0  0  0  0  0
  1  6  1  0  0  0  0
  2  1  2  0  0  0  0
  2  3  1  0  0  0  0
  3  4  2  0  0  0  0
  4  5  1  0  0  0  0
  5  7  1  0  0  0  0
  6  5  2  0  0  0  0
  7 16  2  0  0  0  0
  7  8  1  0  0  0  0
  8  9  2  0  0  0  0
  9 10  1  0  0  0  0
 11 12  1  0  0  0  0
 11 10  2  0  0  0  0
 13 12  2  0  0  0  0
 14 13  1  0  0  0  0
 15 14  2  0  0  0  0
 15 16  1  0  0  0  0
 16 11  1  0  0  0  0
 17  3  1  0  0  0  0
 17 21  1  0  0  0  0
 18 19  2  0  0  0  0
 18 17  1  0  0  0  0
 19 20  1  0  0  0  0
 20 21  2  0  0  0  0
 20 22  1  0  0  0  0
 22 31  2  0  0  0  0
 22 23  1  0  0  0  0
 23 24  2  0  0  0  0
 24 25  1  0  0  0  0
 26 27  1  0  0  0  0
 26 25  2  0  0  0  0
 28 27  2  0  0  0  0
 29 30  2  0  0  0  0
 29 28  1  0  0  0  0
 30 31  1  0  0  0  0
 31 26  1  0  0  0  0
M  END
>  <minimizedAffinity>
-8.52261162

$$$$

 OpenBabel03272514303D

 31 36  0  0  0  0  0  0  0  0999 V2000
   29.9540   27.2970   45.0750 C   0  0  0  0  0  3  0  0  0  0  0  0
   31.2900   27.6720   45.1720 C   0  0  0  0  0  3  0  0  0  0  0  0
   31.5840   28.4580   46.2750 C   0  0  0  0  0  0  0  0  0  0  0  0
   30.6180   28.7820   47.1190 N   0  0  0  0  0  0  0  0  0  0  0  0
   29.3560   28.4360   47.0440 C   0  0  0  0  0  0  0  0  0  0  0  0
   29.0640   27.6880   46.0000 N   0  0  0  0  0  0  0  0  0  0  0  0
   28.2080   28.7140   47.8860 C   0  0  0  0  0  0  0  0  0  0  0  0
   27.1840   29.5590   47.4690 C   0  0  0  0  0  3  0  0  0  0  0  0
   26.0780   29.8530   48.2260 C   0  0  0  0  0  3  0  0  0  0  0  0
   25.9360   29.3000   49.4760 C   0  0  0  0  0  3  0  0  0  0  0  0
   26.9060   28.4680   49.9310 C   0  0  0  0  0  0  0  0  0  0  0  0
   26.7580   27.9120   51.1990 C   0  0  0  0  0  3  0  0  0  0  0  0
   27.6780   27.0730   51.7280 C   0  0  0  0  0  3  0  0  0  0  0  0
   28.7920   26.7900   50.9410 C   0  0  0  0  0  3  0  0  0  0  0  0
   28.9150   27.3510   49.6990 C   0  0  0  0  0  3  0  0  0  0  0  0
   28.0080   28.1880   49.1530 C   0  0  0  0  0  0  0  0  0  0  0  0
   32.9110   28.9180   46.5020 N   0  0  0  0  0  0  0  0  0  0  0  0
   33.8080   29.3020   45.5920 C   0  0  0  0  0  3  0  0  0  0  0  0
   34.9350   29.6680   46.1740 N   0  0  0  0  0  0  0  0  0  0  0  0
   34.7830   29.5240   47.4860 C   0  0  0  0  0  0  0  0  0  0  0  0
   33.5320   29.0640   47.6510 N   0  0  0  0  0  0  0  0  0  0  0  0
   35.5330   29.7060   48.7470 C   0  0  0  0  0  0  0  0  0  0  0  0
   35.2650   29.1120   49.9260 N   0  0  0  0  0  0  0  0  0  0  0  0
   35.9860   29.3200   51.0330 C   0  0  0  0  0  3  0  0  0  0  0  0
   37.0420   30.1400   51.0730 N   0  0  0  0  0  0  0  0  0  0  0  0
   37.3770   30.7730   49.9450 C   0  0  0  0  0  0  0  0  0  0  0  0
   38.4660   31.6160   49.9920 C   0  0  0  0  0  3  0  0  0  0  0  0
   38.8620   32.2890   48.8810 C   0  0  0  0  0  3  0  0  0  0  0  0
   38.1460   32.1080   47.6980 C   0  0  0  0  0  3  0  0  0  0  0  0
   37.0710   31.2550   47.7150 C   0  0  0  0  0  3  0  0  0  0  0  0
   36.6220   30.5460   48.8100 C   0  0  0  0  0  0  0  0  0  0  0  0
  1  2  2  0  0  0  0
  1  6  1  0  0  0  0
  2  3  1  0  0  0  0
  3 17  1  0  0  0  0
  3  4  2  0  0  0  0
  5  4  1  0  0  0  0
  5  7  1  0  0  0  0
  6  5  2  0  0  0  0
  7 16  1  0  0  0  0
  8  7  2  0  0  0  0
  8  9  1  0  0  0  0
  9 10  2  0  0  0  0
 10 11  1  0  0  0  0
 11 12  1  0  0  0  0
 12 13  2  0  0  0  0
 14 13  1  0  0  0  0
 15 14  2  0  0  0  0
 16 15  1  0  0  0  0
 16 11  2  0  0  0  0
 17 21  1  0  0  0  0
 18 19  2  0  0  0  0
 18 17  1  0  0  0  0
 19 20  1  0  0  0  0
 20 21  2  0  0  0  0
 20 22  1  0  0  0  0
 22 31  2  0  0  0  0
 22 23  1  0  0  0  0
 23 24  2  0  0  0  0
 24 25  1  0  0  0  0
 26 27  1  0  0  0  0
 26 25  2  0  0  0  0
 28 27  2  0  0  0  0
 29 30  2  0  0  0  0
 29 28  1  0  0  0  0
 30 31  1  0  0  0  0
 31 26  1  0  0  0  0
M  END
>  <minimizedAffinity>
-8.48041821

$$$$

 OpenBabel03272514303D

 31 36  0  0  0  0  0  0  0  0999 V2000
   32.9010   26.3020   47.5410 C   0  0  0  0  0  3  0  0  0  0  0  0
   31.5720   26.6960   47.4220 C   0  0  0  0  0  3  0  0  0  0  0  0
   31.3850   28.0680   47.3790 C   0  0  0  0  0  0  0  0  0  0  0  0
   32.4340   28.8710   47.4520 N   0  0  0  0  0  0  0  0  0  0  0  0
   33.6910   28.5170   47.5630 C   0  0  0  0  0  0  0  0  0  0  0  0
   33.8820   27.2150   47.6040 N   0  0  0  0  0  0  0  0  0  0  0  0
   34.9230   29.2780   47.6500 C   0  0  0  0  0  0  0  0  0  0  0  0
   35.5180   29.8370   46.5240 C   0  0  0  0  0  3  0  0  0  0  0  0
   36.6800   30.5650   46.5530 C   0  0  0  0  0  3  0  0  0  0  0  0
   37.3260   30.7760   47.7470 C   0  0  0  0  0  3  0  0  0  0  0  0
   36.7890   30.2530   48.8770 C   0  0  0  0  0  0  0  0  0  0  0  0
   37.4490   30.4690   50.0840 C   0  0  0  0  0  3  0  0  0  0  0  0
   36.9810   29.9820   51.2570 C   0  0  0  0  0  3  0  0  0  0  0  0
   35.8000   29.2460   51.2010 C   0  0  0  0  0  3  0  0  0  0  0  0
   35.1710   29.0470   50.0020 C   0  0  0  0  0  3  0  0  0  0  0  0
   35.6210   29.5250   48.8230 C   0  0  0  0  0  0  0  0  0  0  0  0
   30.0770   28.6160   47.2610 N   0  0  0  0  0  0  0  0  0  0  0  0
   29.0510   28.4660   48.1020 C   0  0  0  0  0  3  0  0  0  0  0  0
   27.9920   29.1230   47.6650 N   0  0  0  0  0  0  0  0  0  0  0  0
   28.3200   29.7150   46.5230 C   0  0  0  0  0  0  0  0  0  0  0  0
   29.6030   29.3830   46.3050 N   0  0  0  0  0  0  0  0  0  0  0  0
   27.7320   30.5770   45.4750 C   0  0  0  0  0  0  0  0  0  0  0  0
   27.9700   30.4990   44.1510 N   0  0  0  0  0  0  0  0  0  0  0  0
   27.4020   31.3120   43.2540 C   0  0  0  0  0  3  0  0  0  0  0  0
   26.5460   32.2830   43.5890 N   0  0  0  0  0  0  0  0  0  0  0  0
   26.2540   32.4330   44.8840 C   0  0  0  0  0  0  0  0  0  0  0  0
   25.3710   33.4340   45.2230 C   0  0  0  0  0  3  0  0  0  0  0  0
   25.0300   33.6390   46.5210 C   0  0  0  0  0  3  0  0  0  0  0  0
   25.5910   32.8180   47.4980 C   0  0  0  0  0  3  0  0  0  0  0  0
   26.4660   31.8390   47.0980 C   0  0  0  0  0  3  0  0  0  0  0  0
   26.8490   31.5830   45.7980 C   0  0  0  0  0  0  0  0  0  0  0  0
  1  6  1  0  0  0  0
  2  1  2  0  0  0  0
  3  2  1  0  0  0  0
  3  4  2  0  0  0  0
  4  5  1  0  0  0  0
  5  6  2  0  0  0  0
  5  7  1  0  0  0  0
  7 16  1  0  0  0  0
  8  9  1  0  0  0  0
  8  7  2  0  0  0  0
  9 10  2  0  0  0  0
 10 11  1  0  0  0  0
 11 12  1  0  0  0  0
 12 13  2  0  0  0  0
 14 13  1  0  0  0  0
 15 14  2  0  0  0  0
 16 11  2  0  0  0  0
 16 15  1  0  0  0  0
 17  3  1  0  0  0  0
 17 18  1  0  0  0  0
 19 18  2  0  0  0  0
 20 19  1  0  0  0  0
 21 20  2  0  0  0  0
 21 17  1  0  0  0  0
 22 31  1  0  0  0  0
 22 20  1  0  0  0  0
 23 22  2  0  0  0  0
 24 25  2  0  0  0  0
 24 23  1  0  0  0  0
 25 26  1  0  0  0  0
 26 27  2  0  0  0  0
 26 31  1  0  0  0  0
 27 28  1  0  0  0  0
 28 29  2  0  0  0  0
 30 29  1  0  0  0  0
 31 30  2  0  0  0  0
M  END
>  <minimizedAffinity>
-8.43977165

$$$$
