
 OpenBabel03272514543D

 31 34  0  0  1  0  0  0  0  0999 V2000
   28.5310   27.6550   48.2060 C   0  0  0  0  0  0  0  0  0  0  0  0
   28.7210   28.5250   49.2850 C   0  0  0  0  0  0  0  0  0  0  0  0
   30.0100   28.6270   49.8280 C   0  0  0  0  0  3  0  0  0  0  0  0
   31.0030   27.8830   49.2850 N   0  0  0  0  0  0  0  0  0  0  0  0
   30.8030   27.0640   48.2620 C   0  0  0  0  0  0  0  0  0  0  0  0
   29.5900   26.9510   47.7320 N   0  0  0  0  0  0  0  0  0  0  0  0
   31.9110   26.3290   47.7570 N   0  0  0  0  0  0  0  0  0  0  0  0
   31.6810   25.0470   47.1710 C   0  0  0  0  0  2  0  0  0  0  0  0
   32.9870   24.3010   47.2560 C   0  0  0  0  0  2  0  0  0  0  0  0
   34.1330   24.9780   46.6050 C   0  0  0  0  0  2  0  0  0  0  0  0
   34.1480   26.4740   46.7140 C   0  0  0  0  0  2  0  0  0  0  0  0
   33.2300   26.9080   47.8430 C   0  0  1  0  0  3  0  0  0  0  0  0
   27.6180   29.3230   49.8550 C   0  0  0  0  0  0  0  0  0  0  0  0
   28.1670   30.2650   50.6740 F   0  0  0  0  0  0  0  0  0  0  0  0
   26.7170   28.6030   50.5630 F   0  0  0  0  0  0  0  0  0  0  0  0
   26.9730   30.0540   48.8430 F   0  0  0  0  0  0  0  0  0  0  0  0
   27.2650   27.3890   47.4860 C   0  0  0  0  0  0  0  0  0  0  0  0
   26.8730   28.4880   46.7340 F   0  0  0  0  0  0  0  0  0  0  0  0
   27.3910   26.2720   46.6650 F   0  0  0  0  0  0  0  0  0  0  0  0
   26.2330   27.0690   48.3000 F   0  0  0  0  0  0  0  0  0  0  0  0
   33.2490   28.4010   47.8740 C   0  0  0  0  0  2  0  0  0  0  0  0
   34.4680   28.9010   48.6200 C   0  0  0  0  0  0  0  0  0  0  0  0
   34.5810   28.6650   49.9940 C   0  0  0  0  0  3  0  0  0  0  0  0
   35.6140   29.0850   50.8040 C   0  0  0  0  0  3  0  0  0  0  0  0
   36.6150   29.7950   50.1930 C   0  0  0  0  0  3  0  0  0  0  0  0
   36.5540   30.0540   48.8430 C   0  0  0  0  0  0  0  0  0  0  0  0
   37.5820   30.7660   48.2460 C   0  0  0  0  0  3  0  0  0  0  0  0
   37.5090   31.0100   46.8760 C   0  0  0  0  0  3  0  0  0  0  0  0
   36.4510   30.5700   46.0970 C   0  0  0  0  0  3  0  0  0  0  0  0
   35.4530   29.8660   46.7290 C   0  0  0  0  0  3  0  0  0  0  0  0
   35.4980   29.6120   48.0780 C   0  0  0  0  0  0  0  0  0  0  0  0
  1  2  1  0  0  0  0
  2  3  2  0  0  0  0
  2 13  1  0  0  0  0
  4  3  1  0  0  0  0
  5  4  2  0  0  0  0
  6  1  2  0  0  0  0
  6  5  1  0  0  0  0
  7 12  1  0  0  0  0
  7  5  1  0  0  0  0
  8  9  1  0  0  0  0
  8  7  1  0  0  0  0
 10 11  1  0  0  0  0
 10  9  1  0  0  0  0
 11 12  1  0  0  0  0
 12 21  1  6  0  0  0
 13 15  1  0  0  0  0
 13 14  1  0  0  0  0
 16 13  1  0  0  0  0
 17  1  1  0  0  0  0
 17 20  1  0  0  0  0
 18 17  1  0  0  0  0
 19 17  1  0  0  0  0
 21 22  1  0  0  0  0
 22 23  1  0  0  0  0
 23 24  2  0  0  0  0
 25 24  1  0  0  0  0
 26 25  2  0  0  0  0
 27 26  1  0  0  0  0
 28 27  2  0  0  0  0
 29 30  2  0  0  0  0
 29 28  1  0  0  0  0
 30 31  1  0  0  0  0
 31 22  2  0  0  0  0
 31 26  1  0  0  0  0
M  END
>  <minimizedAffinity>
-7.7173171

$$$$

 OpenBabel03272514543D

 31 34  0  0  1  0  0  0  0  0999 V2000
   28.6040   27.1620   48.3920 C   0  0  0  0  0  0  0  0  0  0  0  0
   28.7370   28.0810   49.4380 C   0  0  0  0  0  0  0  0  0  0  0  0
   30.0300   28.3770   49.8940 C   0  0  0  0  0  3  0  0  0  0  0  0
   31.0830   27.7610   49.3020 N   0  0  0  0  0  0  0  0  0  0  0  0
   30.9350   26.8930   48.3110 C   0  0  0  0  0  0  0  0  0  0  0  0
   29.7200   26.5980   47.8640 N   0  0  0  0  0  0  0  0  0  0  0  0
   32.1030   26.3040   47.7500 N   0  0  0  0  0  0  0  0  0  0  0  0
   32.0180   24.9860   47.2080 C   0  0  0  0  0  2  0  0  0  0  0  0
   33.4190   24.4300   47.2220 C   0  0  0  0  0  2  0  0  0  0  0  0
   34.4160   25.2390   46.4840 C   0  0  0  0  0  2  0  0  0  0  0  0
   34.2280   26.7250   46.5610 C   0  0  0  0  0  2  0  0  0  0  0  0
   33.3310   27.0610   47.7390 C   0  0  1  0  0  3  0  0  0  0  0  0
   27.5710   28.7360   50.0630 C   0  0  0  0  0  0  0  0  0  0  0  0
   28.0180   29.4390   51.1420 F   0  0  0  0  0  0  0  0  0  0  0  0
   26.6040   27.8810   50.4700 F   0  0  0  0  0  0  0  0  0  0  0  0
   27.0350   29.7030   49.1960 F   0  0  0  0  0  0  0  0  0  0  0  0
   27.3460   26.7020   47.7620 C   0  0  0  0  0  0  0  0  0  0  0  0
   26.5300   27.7740   47.4280 F   0  0  0  0  0  0  0  0  0  0  0  0
   27.6130   25.9370   46.6310 F   0  0  0  0  0  0  0  0  0  0  0  0
   26.6190   25.8700   48.5430 F   0  0  0  0  0  0  0  0  0  0  0  0
   33.1420   28.5430   47.7380 C   0  0  0  0  0  2  0  0  0  0  0  0
   34.4810   29.2480   47.7040 C   0  0  0  0  0  0  0  0  0  0  0  0
   34.9780   29.7270   46.4860 C   0  0  0  0  0  3  0  0  0  0  0  0
   36.1890   30.3580   46.3000 C   0  0  0  0  0  3  0  0  0  0  0  0
   36.9650   30.5270   47.4170 C   0  0  0  0  0  3  0  0  0  0  0  0
   36.5230   30.0750   48.6390 C   0  0  0  0  0  0  0  0  0  0  0  0
   37.3210   30.2650   49.7570 C   0  0  0  0  0  3  0  0  0  0  0  0
   36.8540   29.8110   50.9880 C   0  0  0  0  0  3  0  0  0  0  0  0
   35.6290   29.1800   51.1330 C   0  0  0  0  0  3  0  0  0  0  0  0
   34.8690   29.0140   49.9990 C   0  0  0  0  0  3  0  0  0  0  0  0
   35.3040   29.4490   48.7720 C   0  0  0  0  0  0  0  0  0  0  0  0
  1  2  1  0  0  0  0
  2  3  2  0  0  0  0
  2 13  1  0  0  0  0
  4  3  1  0  0  0  0
  5  4  2  0  0  0  0
  6  5  1  0  0  0  0
  6  1  2  0  0  0  0
  7  5  1  0  0  0  0
  8  9  1  0  0  0  0
  8  7  1  0  0  0  0
 10 11  1  0  0  0  0
 10  9  1  0  0  0  0
 11 12  1  0  0  0  0
 12 21  1  6  0  0  0
 12  7  1  0  0  0  0
 13 15  1  0  0  0  0
 13 14  1  0  0  0  0
 16 13  1  0  0  0  0
 17  1  1  0  0  0  0
 17 20  1  0  0  0  0
 18 17  1  0  0  0  0
 19 17  1  0  0  0  0
 22 21  1  0  0  0  0
 22 31  1  0  0  0  0
 23 22  2  0  0  0  0
 24 23  1  0  0  0  0
 24 25  2  0  0  0  0
 25 26  1  0  0  0  0
 26 31  2  0  0  0  0
 26 27  1  0  0  0  0
 27 28  2  0  0  0  0
 28 29  1  0  0  0  0
 30 29  2  0  0  0  0
 31 30  1  0  0  0  0
M  END
>  <minimizedAffinity>
-7.69553804

$$$$

 OpenBabel03272514543D

 31 34  0  0  1  0  0  0  0  0999 V2000
   29.5600   27.9100   47.3440 C   0  0  0  0  0  0  0  0  0  0  0  0
   29.9520   27.8240   48.6840 C   0  0  0  0  0  0  0  0  0  0  0  0
   31.3260   27.8010   48.9670 C   0  0  0  0  0  3  0  0  0  0  0  0
   32.2020   27.8620   47.9340 N   0  0  0  0  0  0  0  0  0  0  0  0
   31.8090   27.9430   46.6710 C   0  0  0  0  0  0  0  0  0  0  0  0
   30.5140   27.9660   46.3800 N   0  0  0  0  0  0  0  0  0  0  0  0
   32.8050   28.0090   45.6570 N   0  0  0  0  0  0  0  0  0  0  0  0
   32.5180   27.4610   44.3700 C   0  0  0  0  0  2  0  0  0  0  0  0
   33.8490   27.1600   43.7300 C   0  0  0  0  0  2  0  0  0  0  0  0
   34.7600   28.3220   43.6150 C   0  0  0  0  0  2  0  0  0  0  0  0
   34.7110   29.2980   44.7530 C   0  0  0  0  0  2  0  0  0  0  0  0
   34.0690   28.6370   45.9590 C   0  0  1  0  0  3  0  0  0  0  0  0
   28.9740   27.7590   49.7870 C   0  0  0  0  0  0  0  0  0  0  0  0
   29.6540   27.4470   50.9270 F   0  0  0  0  0  0  0  0  0  0  0  0
   27.9880   26.8500   49.6050 F   0  0  0  0  0  0  0  0  0  0  0  0
   28.4280   29.0310   50.0280 F   0  0  0  0  0  0  0  0  0  0  0  0
   28.1770   27.9420   46.8190 C   0  0  0  0  0  0  0  0  0  0  0  0
   27.4260   28.9290   47.4430 F   0  0  0  0  0  0  0  0  0  0  0  0
   28.1760   28.1440   45.4430 F   0  0  0  0  0  0  0  0  0  0  0  0
   27.5100   26.7750   46.9680 F   0  0  0  0  0  0  0  0  0  0  0  0
   34.0040   29.6660   47.0400 C   0  0  0  0  0  2  0  0  0  0  0  0
   35.3960   30.0240   47.5160 C   0  0  0  0  0  0  0  0  0  0  0  0
   36.3290   30.5270   46.6020 C   0  0  0  0  0  3  0  0  0  0  0  0
   37.6340   30.8660   46.8840 C   0  0  0  0  0  3  0  0  0  0  0  0
   38.0420   30.6900   48.1810 C   0  0  0  0  0  3  0  0  0  0  0  0
   37.1640   30.1990   49.1200 C   0  0  0  0  0  0  0  0  0  0  0  0
   37.5960   30.0380   50.4270 C   0  0  0  0  0  3  0  0  0  0  0  0
   36.6910   29.5490   51.3660 C   0  0  0  0  0  3  0  0  0  0  0  0
   35.3850   29.2200   51.0420 C   0  0  0  0  0  3  0  0  0  0  0  0
   34.9980   29.3960   49.7340 C   0  0  0  0  0  3  0  0  0  0  0  0
   35.8680   29.8740   48.7860 C   0  0  0  0  0  0  0  0  0  0  0  0
  1  2  1  0  0  0  0
  2  3  2  0  0  0  0
  2 13  1  0  0  0  0
  4  3  1  0  0  0  0
  5  4  2  0  0  0  0
  6  5  1  0  0  0  0
  6  1  2  0  0  0  0
  7 12  1  0  0  0  0
  7  5  1  0  0  0  0
  8  7  1  0  0  0  0
  9  8  1  0  0  0  0
 10  9  1  0  0  0  0
 10 11  1  0  0  0  0
 11 12  1  0  0  0  0
 12 21  1  1  0  0  0
 13 16  1  0  0  0  0
 13 14  1  0  0  0  0
 15 13  1  0  0  0  0
 17 20  1  0  0  0  0
 17  1  1  0  0  0  0
 17 18  1  0  0  0  0
 19 17  1  0  0  0  0
 21 22  1  0  0  0  0
 22 31  1  0  0  0  0
 23 24  1  0  0  0  0
 23 22  2  0  0  0  0
 24 25  2  0  0  0  0
 25 26  1  0  0  0  0
 26 27  1  0  0  0  0
 27 28  2  0  0  0  0
 29 28  1  0  0  0  0
 30 29  2  0  0  0  0
 31 26  2  0  0  0  0
 31 30  1  0  0  0  0
M  END
>  <minimizedAffinity>
-7.61623764

$$$$

 OpenBabel03272514543D

 31 34  0  0  1  0  0  0  0  0999 V2000
   28.8110   27.3250   48.1240 C   0  0  0  0  0  0  0  0  0  0  0  0
   29.1570   27.7150   49.4220 C   0  0  0  0  0  0  0  0  0  0  0  0
   30.5200   27.7970   49.7420 C   0  0  0  0  0  3  0  0  0  0  0  0
   31.4300   27.4960   48.7850 N   0  0  0  0  0  0  0  0  0  0  0  0
   31.0820   27.1280   47.5600 C   0  0  0  0  0  0  0  0  0  0  0  0
   29.7970   27.0440   47.2340 N   0  0  0  0  0  0  0  0  0  0  0  0
   32.1120   26.8390   46.6220 N   0  0  0  0  0  0  0  0  0  0  0  0
   31.8630   25.8740   45.5990 C   0  0  0  0  0  2  0  0  0  0  0  0
   33.2120   25.3730   45.1510 C   0  0  0  0  0  2  0  0  0  0  0  0
   34.1370   26.4250   44.6690 C   0  0  0  0  0  2  0  0  0  0  0  0
   34.0580   27.7370   45.3910 C   0  0  0  0  0  2  0  0  0  0  0  0
   33.3700   27.5370   46.7300 C   0  0  1  0  0  3  0  0  0  0  0  0
   28.1420   28.0360   50.4440 C   0  0  0  0  0  0  0  0  0  0  0  0
   28.7510   27.9920   51.6630 F   0  0  0  0  0  0  0  0  0  0  0  0
   27.0790   27.1990   50.4570 F   0  0  0  0  0  0  0  0  0  0  0  0
   27.7130   29.3670   50.3000 F   0  0  0  0  0  0  0  0  0  0  0  0
   27.4460   27.1680   47.5730 C   0  0  0  0  0  0  0  0  0  0  0  0
   26.6990   28.3260   47.7420 F   0  0  0  0  0  0  0  0  0  0  0  0
   27.4950   26.8270   46.2250 F   0  0  0  0  0  0  0  0  0  0  0  0
   26.7470   26.1530   48.1310 F   0  0  0  0  0  0  0  0  0  0  0  0
   33.2790   28.8790   47.3800 C   0  0  0  0  0  2  0  0  0  0  0  0
   34.4560   29.1010   48.3050 C   0  0  0  0  0  0  0  0  0  0  0  0
   34.3820   28.6670   49.6330 C   0  0  0  0  0  3  0  0  0  0  0  0
   35.3600   28.8280   50.5910 C   0  0  0  0  0  3  0  0  0  0  0  0
   36.5020   29.4720   50.1920 C   0  0  0  0  0  3  0  0  0  0  0  0
   36.6270   29.9180   48.8960 C   0  0  0  0  0  0  0  0  0  0  0  0
   37.7950   30.5590   48.5140 C   0  0  0  0  0  3  0  0  0  0  0  0
   37.9090   30.9950   47.1960 C   0  0  0  0  0  3  0  0  0  0  0  0
   36.9010   30.8130   46.2620 C   0  0  0  0  0  3  0  0  0  0  0  0
   35.7600   30.1720   46.6840 C   0  0  0  0  0  3  0  0  0  0  0  0
   35.6190   29.7330   47.9760 C   0  0  0  0  0  0  0  0  0  0  0  0
  1  2  1  0  0  0  0
  2  3  2  0  0  0  0
  2 13  1  0  0  0  0
  4  3  1  0  0  0  0
  5  4  2  0  0  0  0
  6  5  1  0  0  0  0
  6  1  2  0  0  0  0
  7 12  1  0  0  0  0
  7  5  1  0  0  0  0
  8  7  1  0  0  0  0
  9  8  1  0  0  0  0
 10  9  1  0  0  0  0
 10 11  1  0  0  0  0
 11 12  1  0  0  0  0
 12 21  1  6  0  0  0
 13 15  1  0  0  0  0
 13 14  1  0  0  0  0
 16 13  1  0  0  0  0
 17 18  1  0  0  0  0
 17  1  1  0  0  0  0
 17 20  1  0  0  0  0
 19 17  1  0  0  0  0
 21 22  1  0  0  0  0
 22 23  1  0  0  0  0
 23 24  2  0  0  0  0
 25 24  1  0  0  0  0
 26 25  2  0  0  0  0
 27 26  1  0  0  0  0
 28 27  2  0  0  0  0
 29 30  2  0  0  0  0
 29 28  1  0  0  0  0
 30 31  1  0  0  0  0
 31 22  2  0  0  0  0
 31 26  1  0  0  0  0
M  END
>  <minimizedAffinity>
-7.52677298

$$$$

 OpenBabel03272514543D

 31 34  0  0  1  0  0  0  0  0999 V2000
   29.3350   28.9970   47.2470 C   0  0  0  0  0  0  0  0  0  0  0  0
   29.9500   28.0660   48.0900 C   0  0  0  0  0  0  0  0  0  0  0  0
   31.2780   27.7080   47.8170 C   0  0  0  0  0  3  0  0  0  0  0  0
   31.8980   28.2770   46.7550 N   0  0  0  0  0  0  0  0  0  0  0  0
   31.2980   29.1580   45.9680 C   0  0  0  0  0  0  0  0  0  0  0  0
   30.0410   29.5120   46.2070 N   0  0  0  0  0  0  0  0  0  0  0  0
   32.0360   29.7060   44.8810 N   0  0  0  0  0  0  0  0  0  0  0  0
   31.3360   30.0960   43.6990 C   0  0  0  0  0  2  0  0  0  0  0  0
   32.3490   30.0870   42.5840 C   0  0  0  0  0  2  0  0  0  0  0  0
   33.5270   30.9560   42.8080 C   0  0  0  0  0  2  0  0  0  0  0  0
   34.0140   31.0340   44.2240 C   0  0  0  0  0  2  0  0  0  0  0  0
   33.4640   29.8590   45.0130 C   0  0  1  0  0  3  0  0  0  0  0  0
   29.2480   27.4630   49.2400 C   0  0  0  0  0  0  0  0  0  0  0  0
   28.2340   26.6930   48.7500 F   0  0  0  0  0  0  0  0  0  0  0  0
   28.7320   28.3590   50.1120 F   0  0  0  0  0  0  0  0  0  0  0  0
   30.0960   26.5630   49.9080 F   0  0  0  0  0  0  0  0  0  0  0  0
   27.9510   29.5120   47.3440 C   0  0  0  0  0  0  0  0  0  0  0  0
   27.6880   30.4380   46.3440 F   0  0  0  0  0  0  0  0  0  0  0  0
   27.0320   28.4700   47.2790 F   0  0  0  0  0  0  0  0  0  0  0  0
   27.6730   30.1080   48.5260 F   0  0  0  0  0  0  0  0  0  0  0  0
   33.9410   30.0140   46.4200 C   0  0  0  0  0  2  0  0  0  0  0  0
   35.4340   30.2620   46.4500 C   0  0  0  0  0  0  0  0  0  0  0  0
   36.1720   30.1680   45.2650 C   0  0  0  0  0  3  0  0  0  0  0  0
   37.5350   30.3380   45.1470 C   0  0  0  0  0  3  0  0  0  0  0  0
   38.2140   30.6260   46.3030 C   0  0  0  0  0  3  0  0  0  0  0  0
   37.5360   30.7300   47.4950 C   0  0  0  0  0  0  0  0  0  0  0  0
   38.2430   31.0300   48.6490 C   0  0  0  0  0  3  0  0  0  0  0  0
   37.5390   31.1420   49.8450 C   0  0  0  0  0  3  0  0  0  0  0  0
   36.1670   30.9640   49.9220 C   0  0  0  0  0  3  0  0  0  0  0  0
   35.5050   30.6690   48.7530 C   0  0  0  0  0  3  0  0  0  0  0  0
   36.1720   30.5510   47.5600 C   0  0  0  0  0  0  0  0  0  0  0  0
  1 17  1  0  0  0  0
  1  2  1  0  0  0  0
  2 13  1  0  0  0  0
  3  2  2  0  0  0  0
  4  3  1  0  0  0  0
  5  6  1  0  0  0  0
  5  4  2  0  0  0  0
  6  1  2  0  0  0  0
  7 12  1  0  0  0  0
  7  5  1  0  0  0  0
  8  7  1  0  0  0  0
  9 10  1  0  0  0  0
  9  8  1  0  0  0  0
 10 11  1  0  0  0  0
 11 12  1  0  0  0  0
 12 21  1  1  0  0  0
 13 16  1  0  0  0  0
 13 15  1  0  0  0  0
 14 13  1  0  0  0  0
 17 20  1  0  0  0  0
 18 17  1  0  0  0  0
 19 17  1  0  0  0  0
 21 22  1  0  0  0  0
 22 31  1  0  0  0  0
 23 22  2  0  0  0  0
 24 23  1  0  0  0  0
 24 25  2  0  0  0  0
 25 26  1  0  0  0  0
 26 31  2  0  0  0  0
 26 27  1  0  0  0  0
 27 28  2  0  0  0  0
 28 29  1  0  0  0  0
 30 29  2  0  0  0  0
 31 30  1  0  0  0  0
M  END
>  <minimizedAffinity>
-6.73077011

$$$$

 OpenBabel03272514543D

 31 34  0  0  1  0  0  0  0  0999 V2000
   27.5940   27.8710   47.6800 C   0  0  0  0  0  0  0  0  0  0  0  0
   28.9620   28.1590   47.6480 C   0  0  0  0  0  0  0  0  0  0  0  0
   29.5150   28.5940   46.4340 C   0  0  0  0  0  3  0  0  0  0  0  0
   28.7010   28.7140   45.3570 N   0  0  0  0  0  0  0  0  0  0  0  0
   27.4060   28.4360   45.4080 C   0  0  0  0  0  0  0  0  0  0  0  0
   26.8620   28.0220   46.5460 N   0  0  0  0  0  0  0  0  0  0  0  0
   26.6330   28.6000   44.2250 N   0  0  0  0  0  0  0  0  0  0  0  0
   25.4970   27.7590   44.0210 C   0  0  0  0  0  2  0  0  0  0  0  0
   25.2390   27.7470   42.5360 C   0  0  0  0  0  2  0  0  0  0  0  0
   25.0200   29.0820   41.9330 C   0  0  0  0  0  2  0  0  0  0  0  0
   25.8380   30.1970   42.5140 C   0  0  0  0  0  2  0  0  0  0  0  0
   27.0160   29.6160   43.2750 C   0  0  1  0  0  3  0  0  0  0  0  0
   29.8230   28.0180   48.8380 C   0  0  0  0  0  0  0  0  0  0  0  0
   31.1090   28.2570   48.4510 F   0  0  0  0  0  0  0  0  0  0  0  0
   29.7640   26.8020   49.4290 F   0  0  0  0  0  0  0  0  0  0  0  0
   29.5310   29.0290   49.7700 F   0  0  0  0  0  0  0  0  0  0  0  0
   26.8080   27.3970   48.8410 C   0  0  0  0  0  0  0  0  0  0  0  0
   26.9990   26.0390   49.0560 F   0  0  0  0  0  0  0  0  0  0  0  0
   27.1420   28.1120   49.9870 F   0  0  0  0  0  0  0  0  0  0  0  0
   25.4760   27.6010   48.7170 F   0  0  0  0  0  0  0  0  0  0  0  0
   27.7650   30.7650   43.8680 C   0  0  0  0  0  2  0  0  0  0  0  0
   26.8570   31.9670   44.0190 C   0  0  0  0  0  0  0  0  0  0  0  0
   26.5730   32.7610   42.9020 C   0  0  0  0  0  3  0  0  0  0  0  0
   25.7930   33.8970   42.8960 C   0  0  0  0  0  3  0  0  0  0  0  0
   25.2520   34.2690   44.1000 C   0  0  0  0  0  3  0  0  0  0  0  0
   25.4990   33.5230   45.2290 C   0  0  0  0  0  0  0  0  0  0  0  0
   24.9340   33.9140   46.4330 C   0  0  0  0  0  3  0  0  0  0  0  0
   25.1870   33.1410   47.5630 C   0  0  0  0  0  3  0  0  0  0  0  0
   25.9780   32.0040   47.5270 C   0  0  0  0  0  3  0  0  0  0  0  0
   26.5180   31.6520   46.3120 C   0  0  0  0  0  3  0  0  0  0  0  0
   26.2880   32.3950   45.1820 C   0  0  0  0  0  0  0  0  0  0  0  0
  1 17  1  0  0  0  0
  2  1  1  0  0  0  0
  2 13  1  0  0  0  0
  3  2  2  0  0  0  0
  4  5  2  0  0  0  0
  4  3  1  0  0  0  0
  5  6  1  0  0  0  0
  6  1  2  0  0  0  0
  7  5  1  0  0  0  0
  8  7  1  0  0  0  0
  9  8  1  0  0  0  0
 10 11  1  0  0  0  0
 10  9  1  0  0  0  0
 11 12  1  0  0  0  0
 12 21  1  1  0  0  0
 12  7  1  0  0  0  0
 13 15  1  0  0  0  0
 13 16  1  0  0  0  0
 14 13  1  0  0  0  0
 17 18  1  0  0  0  0
 17 19  1  0  0  0  0
 20 17  1  0  0  0  0
 21 22  1  0  0  0  0
 22 31  1  0  0  0  0
 23 22  2  0  0  0  0
 24 23  1  0  0  0  0
 24 25  2  0  0  0  0
 25 26  1  0  0  0  0
 26 27  1  0  0  0  0
 27 28  2  0  0  0  0
 29 28  1  0  0  0  0
 30 29  2  0  0  0  0
 31 26  2  0  0  0  0
 31 30  1  0  0  0  0
M  END
>  <minimizedAffinity>
-6.6400094

$$$$

 OpenBabel03272514543D

 31 34  0  0  1  0  0  0  0  0999 V2000
   31.3180   30.9520   43.6670 C   0  0  0  0  0  0  0  0  0  0  0  0
   31.6260   32.1310   44.3550 C   0  0  0  0  0  0  0  0  0  0  0  0
   32.1360   32.0200   45.6560 C   0  0  0  0  0  3  0  0  0  0  0  0
   32.3060   30.7820   46.1830 N   0  0  0  0  0  0  0  0  0  0  0  0
   32.0080   29.6770   45.5150 C   0  0  0  0  0  0  0  0  0  0  0  0
   31.5230   29.7590   44.2810 N   0  0  0  0  0  0  0  0  0  0  0  0
   32.2280   28.4230   46.1510 N   0  0  0  0  0  0  0  0  0  0  0  0
   31.3850   27.3210   45.8140 C   0  0  0  0  0  2  0  0  0  0  0  0
   31.4530   26.3630   46.9750 C   0  0  0  0  0  2  0  0  0  0  0  0
   32.8170   25.8970   47.3160 C   0  0  0  0  0  2  0  0  0  0  0  0
   33.9080   26.9130   47.1540 C   0  0  0  0  0  2  0  0  0  0  0  0
   33.3010   28.3040   47.1070 C   0  0  1  0  0  3  0  0  0  0  0  0
   31.4300   33.4650   43.7540 C   0  0  0  0  0  0  0  0  0  0  0  0
   31.8620   34.3930   44.6550 F   0  0  0  0  0  0  0  0  0  0  0  0
   30.1480   33.7440   43.4220 F   0  0  0  0  0  0  0  0  0  0  0  0
   32.2700   33.6240   42.6390 F   0  0  0  0  0  0  0  0  0  0  0  0
   30.7690   30.8340   42.2980 C   0  0  0  0  0  0  0  0  0  0  0  0
   29.5350   31.4610   42.1960 F   0  0  0  0  0  0  0  0  0  0  0  0
   31.6520   31.3690   41.3650 F   0  0  0  0  0  0  0  0  0  0  0  0
   30.6070   29.5560   41.8850 F   0  0  0  0  0  0  0  0  0  0  0  0
   34.4250   29.2660   46.8980 C   0  0  0  0  0  2  0  0  0  0  0  0
   35.1650   29.5080   48.1970 C   0  0  0  0  0  0  0  0  0  0  0  0
   34.6590   28.9760   49.3880 C   0  0  0  0  0  3  0  0  0  0  0  0
   35.2070   29.1390   50.6420 C   0  0  0  0  0  3  0  0  0  0  0  0
   36.3500   29.8920   50.7120 C   0  0  0  0  0  3  0  0  0  0  0  0
   36.8890   30.4390   49.5710 C   0  0  0  0  0  0  0  0  0  0  0  0
   38.0500   31.1900   49.6660 C   0  0  0  0  0  3  0  0  0  0  0  0
   38.5880   31.7260   48.4990 C   0  0  0  0  0  3  0  0  0  0  0  0
   38.0060   31.5380   47.2550 C   0  0  0  0  0  3  0  0  0  0  0  0
   36.8560   30.7860   47.2060 C   0  0  0  0  0  3  0  0  0  0  0  0
   36.3020   30.2460   48.3400 C   0  0  0  0  0  0  0  0  0  0  0  0
  1  6  2  0  0  0  0
  1  2  1  0  0  0  0
  2  3  2  0  0  0  0
  3  4  1  0  0  0  0
  5  7  1  0  0  0  0
  5  4  2  0  0  0  0
  6  5  1  0  0  0  0
  7 12  1  0  0  0  0
  8  7  1  0  0  0  0
  8  9  1  0  0  0  0
  9 10  1  0  0  0  0
 11 10  1  0  0  0  0
 12 21  1  6  0  0  0
 12 11  1  0  0  0  0
 13  2  1  0  0  0  0
 13 14  1  0  0  0  0
 15 13  1  0  0  0  0
 16 13  1  0  0  0  0
 17  1  1  0  0  0  0
 18 17  1  0  0  0  0
 19 17  1  0  0  0  0
 20 17  1  0  0  0  0
 21 22  1  0  0  0  0
 22 31  2  0  0  0  0
 22 23  1  0  0  0  0
 23 24  2  0  0  0  0
 24 25  1  0  0  0  0
 26 27  1  0  0  0  0
 26 25  2  0  0  0  0
 28 27  2  0  0  0  0
 29 28  1  0  0  0  0
 30 29  2  0  0  0  0
 30 31  1  0  0  0  0
 31 26  1  0  0  0  0
M  END
>  <minimizedAffinity>
-6.6122427

$$$$

 OpenBabel03272514543D

 31 34  0  0  1  0  0  0  0  0999 V2000
   32.3570   27.6350   46.5440 C   0  0  0  0  0  0  0  0  0  0  0  0
   32.7950   28.9600   46.6460 C   0  0  0  0  0  0  0  0  0  0  0  0
   31.8980   29.9780   46.2910 C   0  0  0  0  0  3  0  0  0  0  0  0
   30.6570   29.6320   45.8690 N   0  0  0  0  0  0  0  0  0  0  0  0
   30.2620   28.3700   45.7800 C   0  0  0  0  0  0  0  0  0  0  0  0
   31.0940   27.3890   46.1100 N   0  0  0  0  0  0  0  0  0  0  0  0
   28.9370   28.1070   45.3330 N   0  0  0  0  0  0  0  0  0  0  0  0
   28.6750   26.8970   44.6220 C   0  0  0  0  0  2  0  0  0  0  0  0
   27.4240   27.1380   43.8180 C   0  0  0  0  0  2  0  0  0  0  0  0
   26.2430   27.5460   44.6140 C   0  0  0  0  0  2  0  0  0  0  0  0
   26.5290   28.4350   45.7870 C   0  0  0  0  0  2  0  0  0  0  0  0
   27.8990   29.0680   45.6210 C   0  0  1  0  0  3  0  0  0  0  0  0
   34.1530   29.3060   47.1090 C   0  0  0  0  0  0  0  0  0  0  0  0
   35.0190   29.0380   46.0900 F   0  0  0  0  0  0  0  0  0  0  0  0
   34.5550   28.6330   48.2110 F   0  0  0  0  0  0  0  0  0  0  0  0
   34.2560   30.6920   47.3180 F   0  0  0  0  0  0  0  0  0  0  0  0
   33.1300   26.4130   46.8580 C   0  0  0  0  0  0  0  0  0  0  0  0
   33.4660   26.3620   48.2040 F   0  0  0  0  0  0  0  0  0  0  0  0
   32.4150   25.2730   46.5040 F   0  0  0  0  0  0  0  0  0  0  0  0
   34.2780   26.2980   46.1520 F   0  0  0  0  0  0  0  0  0  0  0  0
   28.1480   29.9010   46.8350 C   0  0  0  0  0  2  0  0  0  0  0  0
   27.3110   29.4080   47.9970 C   0  0  0  0  0  0  0  0  0  0  0  0
   25.9740   29.8080   48.1010 C   0  0  0  0  0  3  0  0  0  0  0  0
   25.1060   29.4650   49.1140 C   0  0  0  0  0  3  0  0  0  0  0  0
   25.6100   28.6580   50.1010 C   0  0  0  0  0  3  0  0  0  0  0  0
   26.9190   28.2360   50.0460 C   0  0  0  0  0  0  0  0  0  0  0  0
   27.4040   27.4130   51.0500 C   0  0  0  0  0  3  0  0  0  0  0  0
   28.7280   26.9860   50.9730 C   0  0  0  0  0  3  0  0  0  0  0  0
   29.5700   27.3550   49.9360 C   0  0  0  0  0  3  0  0  0  0  0  0
   29.0470   28.1710   48.9600 C   0  0  0  0  0  3  0  0  0  0  0  0
   27.7470   28.6080   49.0110 C   0  0  0  0  0  0  0  0  0  0  0  0
  1  2  1  0  0  0  0
  1 17  1  0  0  0  0
  2 13  1  0  0  0  0
  3  2  2  0  0  0  0
  4  3  1  0  0  0  0
  5  4  2  0  0  0  0
  5  6  1  0  0  0  0
  6  1  2  0  0  0  0
  7 12  1  0  0  0  0
  7  5  1  0  0  0  0
  8  7  1  0  0  0  0
  9 10  1  0  0  0  0
  9  8  1  0  0  0  0
 10 11  1  0  0  0  0
 12 11  1  0  0  0  0
 12 21  1  1  0  0  0
 13 16  1  0  0  0  0
 13 15  1  0  0  0  0
 14 13  1  0  0  0  0
 17 18  1  0  0  0  0
 19 17  1  0  0  0  0
 20 17  1  0  0  0  0
 21 22  1  0  0  0  0
 22 23  2  0  0  0  0
 22 31  1  0  0  0  0
 23 24  1  0  0  0  0
 24 25  2  0  0  0  0
 26 25  1  0  0  0  0
 26 27  1  0  0  0  0
 28 27  2  0  0  0  0
 29 28  1  0  0  0  0
 30 31  1  0  0  0  0
 30 29  2  0  0  0  0
 31 26  2  0  0  0  0
M  END
>  <minimizedAffinity>
-6.46143627

$$$$

 OpenBabel03272514543D

 31 34  0  0  1  0  0  0  0  0999 V2000
   26.9730   29.9300   47.3790 C   0  0  0  0  0  0  0  0  0  0  0  0
   27.0930   28.6530   46.8220 C   0  0  0  0  0  0  0  0  0  0  0  0
   26.9900   28.5290   45.4290 C   0  0  0  0  0  3  0  0  0  0  0  0
   26.7800   29.6480   44.6930 N   0  0  0  0  0  0  0  0  0  0  0  0
   26.6690   30.8510   45.2400 C   0  0  0  0  0  0  0  0  0  0  0  0
   26.7630   30.9900   46.5570 N   0  0  0  0  0  0  0  0  0  0  0  0
   26.4570   31.9660   44.3820 N   0  0  0  0  0  0  0  0  0  0  0  0
   25.7160   33.0830   44.8740 C   0  0  0  0  0  2  0  0  0  0  0  0
   25.1790   33.8020   43.6630 C   0  0  0  0  0  2  0  0  0  0  0  0
   26.2090   34.2400   42.6930 C   0  0  0  0  0  2  0  0  0  0  0  0
   27.3740   33.3110   42.5220 C   0  0  0  0  0  2  0  0  0  0  0  0
   27.0050   31.9350   43.0480 C   0  0  1  0  0  3  0  0  0  0  0  0
   27.3210   27.4520   47.6510 C   0  0  0  0  0  0  0  0  0  0  0  0
   27.5260   26.3990   46.8080 F   0  0  0  0  0  0  0  0  0  0  0  0
   26.3010   27.1500   48.4860 F   0  0  0  0  0  0  0  0  0  0  0  0
   28.5210   27.5800   48.3700 F   0  0  0  0  0  0  0  0  0  0  0  0
   27.0430   30.2900   48.8130 C   0  0  0  0  0  0  0  0  0  0  0  0
   28.2910   29.9940   49.3450 F   0  0  0  0  0  0  0  0  0  0  0  0
   26.7570   31.6390   48.9970 F   0  0  0  0  0  0  0  0  0  0  0  0
   26.1200   29.6620   49.5770 F   0  0  0  0  0  0  0  0  0  0  0  0
   28.2130   31.0690   42.8960 C   0  0  0  0  0  2  0  0  0  0  0  0
   29.4220   31.7310   43.5210 C   0  0  0  0  0  0  0  0  0  0  0  0
   29.7180   33.0620   43.2070 C   0  0  0  0  0  3  0  0  0  0  0  0
   30.7970   33.7810   43.6740 C   0  0  0  0  0  3  0  0  0  0  0  0
   31.6470   33.1200   44.5230 C   0  0  0  0  0  3  0  0  0  0  0  0
   31.4010   31.8100   44.8640 C   0  0  0  0  0  0  0  0  0  0  0  0
   32.2700   31.1650   45.7310 C   0  0  0  0  0  3  0  0  0  0  0  0
   32.0000   29.8420   46.0740 C   0  0  0  0  0  3  0  0  0  0  0  0
   30.9030   29.1540   45.5810 C   0  0  0  0  0  3  0  0  0  0  0  0
   30.0660   29.8320   44.7260 C   0  0  0  0  0  3  0  0  0  0  0  0
   30.3080   31.1350   44.3690 C   0  0  0  0  0  0  0  0  0  0  0  0
  1 17  1  0  0  0  0
  2  1  1  0  0  0  0
  2 13  1  0  0  0  0
  3  2  2  0  0  0  0
  4  5  2  0  0  0  0
  4  3  1  0  0  0  0
  5  6  1  0  0  0  0
  6  1  2  0  0  0  0
  7  8  1  0  0  0  0
  7  5  1  0  0  0  0
  9  8  1  0  0  0  0
 10  9  1  0  0  0  0
 11 10  1  0  0  0  0
 11 12  1  0  0  0  0
 12 21  1  1  0  0  0
 12  7  1  0  0  0  0
 13 16  1  0  0  0  0
 13 15  1  0  0  0  0
 14 13  1  0  0  0  0
 17 19  1  0  0  0  0
 17 18  1  0  0  0  0
 17 20  1  0  0  0  0
 21 22  1  0  0  0  0
 22 31  1  0  0  0  0
 23 22  2  0  0  0  0
 23 24  1  0  0  0  0
 24 25  2  0  0  0  0
 25 26  1  0  0  0  0
 26 27  1  0  0  0  0
 27 28  2  0  0  0  0
 29 28  1  0  0  0  0
 30 29  2  0  0  0  0
 31 30  1  0  0  0  0
 31 26  2  0  0  0  0
M  END
>  <minimizedAffinity>
-6.41039419

$$$$
