
 OpenBabel03272514323D

 32 37  0  0  0  0  0  0  0  0999 V2000
   33.1140   26.0390   47.8470 C   0  0  0  0  0  3  0  0  0  0  0  0
   31.7550   26.2160   48.0640 C   0  0  0  0  0  3  0  0  0  0  0  0
   31.4170   27.3730   48.7520 C   0  0  0  0  0  0  0  0  0  0  0  0
   32.3960   28.1850   49.1320 N   0  0  0  0  0  0  0  0  0  0  0  0
   33.6950   28.0360   48.9350 C   0  0  0  0  0  0  0  0  0  0  0  0
   34.0010   26.9300   48.2790 N   0  0  0  0  0  0  0  0  0  0  0  0
   34.8450   28.8330   49.2930 C   0  0  0  0  0  0  0  0  0  0  0  0
   35.2890   28.9300   50.5980 C   0  0  0  0  0  3  0  0  0  0  0  0
   36.3750   29.6710   50.9900 C   0  0  0  0  0  3  0  0  0  0  0  0
   37.1050   30.3890   50.0580 C   0  0  0  0  0  3  0  0  0  0  0  0
   36.7030   30.3230   48.7690 C   0  0  0  0  0  0  0  0  0  0  0  0
   37.4240   31.0350   47.8200 C   0  0  0  0  0  3  0  0  0  0  0  0
   37.0890   31.0270   46.4880 C   0  0  0  0  0  3  0  0  0  0  0  0
   35.9920   30.2700   46.1200 C   0  0  0  0  0  3  0  0  0  0  0  0
   35.3020   29.5800   47.0750 C   0  0  0  0  0  3  0  0  0  0  0  0
   35.6090   29.5690   48.3970 C   0  0  0  0  0  0  0  0  0  0  0  0
   30.0700   27.7020   49.0550 N   0  0  0  0  0  0  0  0  0  0  0  0
   29.2510   27.0260   49.8590 C   0  0  0  0  0  3  0  0  0  0  0  0
   28.0610   27.6090   49.9190 N   0  0  0  0  0  0  0  0  0  0  0  0
   28.1280   28.6890   49.1250 C   0  0  0  0  0  0  0  0  0  0  0  0
   29.3690   28.7180   48.6120 N   0  0  0  0  0  0  0  0  0  0  0  0
   27.1740   29.7300   48.7640 C   0  0  0  0  0  0  0  0  0  0  0  0
   25.9350   30.0610   49.1440 N   0  0  0  0  0  0  0  0  0  0  0  0
   25.5210   31.1100   48.4940 O   0  0  0  0  0  0  0  0  0  0  0  0
   26.4780   31.4890   47.6750 C   0  0  0  0  0  0  0  0  0  0  0  0
   27.5200   30.6480   47.8200 N   0  0  0  0  0  0  0  0  0  0  0  0
   26.3630   32.5930   46.8190 N   0  0  0  0  0  0  0  0  0  0  0  0
   26.7890   32.4890   45.4370 C   0  0  0  0  0  2  0  0  0  0  0  0
   25.6710   32.9010   44.5020 C   0  0  0  0  0  2  0  0  0  0  0  0
   24.9110   34.1040   44.9590 C   0  0  0  0  0  2  0  0  0  0  0  0
   24.5450   34.0590   46.4270 C   0  0  0  0  0  2  0  0  0  0  0  0
   25.8330   33.8780   47.2220 C   0  0  0  0  0  2  0  0  0  0  0  0
  1  2  2  0  0  0  0
  1  6  1  0  0  0  0
  2  3  1  0  0  0  0
  3 17  1  0  0  0  0
  3  4  2  0  0  0  0
  5  4  1  0  0  0  0
  5  7  1  0  0  0  0
  6  5  2  0  0  0  0
  7  8  1  0  0  0  0
  8  9  2  0  0  0  0
 10  9  1  0  0  0  0
 11 10  2  0  0  0  0
 12 11  1  0  0  0  0
 13 12  2  0  0  0  0
 14 13  1  0  0  0  0
 14 15  2  0  0  0  0
 15 16  1  0  0  0  0
 16 11  1  0  0  0  0
 16  7  2  0  0  0  0
 17 18  1  0  0  0  0
 18 19  2  0  0  0  0
 20 19  1  0  0  0  0
 21 17  1  0  0  0  0
 21 20  2  0  0  0  0
 22 20  1  0  0  0  0
 22 23  2  0  0  0  0
 24 23  1  0  0  0  0
 25 26  2  0  0  0  0
 25 24  1  0  0  0  0
 26 22  1  0  0  0  0
 27 32  1  0  0  0  0
 27 25  1  0  0  0  0
 28 27  1  0  0  0  0
 29 30  1  0  0  0  0
 29 28  1  0  0  0  0
 30 31  1  0  0  0  0
 31 32  1  0  0  0  0
M  END
>  <minimizedAffinity>
-8.89676094

$$$$

 OpenBabel03272514323D

 32 37  0  0  0  0  0  0  0  0999 V2000
   36.9910   30.0750   44.0560 C   0  0  0  0  0  3  0  0  0  0  0  0
   35.6970   29.6200   43.8470 C   0  0  0  0  0  3  0  0  0  0  0  0
   34.8700   29.6760   44.9610 C   0  0  0  0  0  0  0  0  0  0  0  0
   35.3750   30.1450   46.0950 N   0  0  0  0  0  0  0  0  0  0  0  0
   36.6040   30.5830   46.3140 C   0  0  0  0  0  0  0  0  0  0  0  0
   37.3790   30.5240   45.2450 N   0  0  0  0  0  0  0  0  0  0  0  0
   37.2700   31.1110   47.4830 C   0  0  0  0  0  0  0  0  0  0  0  0
   38.1290   32.1910   47.4080 C   0  0  0  0  0  3  0  0  0  0  0  0
   38.7840   32.7300   48.4860 C   0  0  0  0  0  3  0  0  0  0  0  0
   38.6100   32.1940   49.7500 C   0  0  0  0  0  3  0  0  0  0  0  0
   37.7770   31.1350   49.8670 C   0  0  0  0  0  0  0  0  0  0  0  0
   37.5900   30.5850   51.1280 C   0  0  0  0  0  3  0  0  0  0  0  0
   36.7630   29.5090   51.3420 C   0  0  0  0  0  3  0  0  0  0  0  0
   36.1140   28.9860   50.2380 C   0  0  0  0  0  3  0  0  0  0  0  0
   36.3180   29.5480   49.0110 C   0  0  0  0  0  3  0  0  0  0  0  0
   37.1280   30.6100   48.7690 C   0  0  0  0  0  0  0  0  0  0  0  0
   33.5180   29.2480   44.9150 N   0  0  0  0  0  0  0  0  0  0  0  0
   32.9470   28.5250   43.9530 C   0  0  0  0  0  3  0  0  0  0  0  0
   31.6680   28.3020   44.2240 N   0  0  0  0  0  0  0  0  0  0  0  0
   31.4200   28.9060   45.3970 C   0  0  0  0  0  0  0  0  0  0  0  0
   32.5700   29.4750   45.7940 N   0  0  0  0  0  0  0  0  0  0  0  0
   30.2290   29.0330   46.2280 C   0  0  0  0  0  0  0  0  0  0  0  0
   29.2450   29.9300   46.3530 N   0  0  0  0  0  0  0  0  0  0  0  0
   28.3990   29.5560   47.2700 O   0  0  0  0  0  0  0  0  0  0  0  0
   28.8090   28.4090   47.7640 C   0  0  0  0  0  0  0  0  0  0  0  0
   29.9470   28.0570   47.1360 N   0  0  0  0  0  0  0  0  0  0  0  0
   28.1270   27.7230   48.7790 N   0  0  0  0  0  0  0  0  0  0  0  0
   28.8600   27.1590   49.8950 C   0  0  0  0  0  2  0  0  0  0  0  0
   28.2910   27.6500   51.2100 C   0  0  0  0  0  2  0  0  0  0  0  0
   26.7970   27.6950   51.2450 C   0  0  0  0  0  2  0  0  0  0  0  0
   26.1860   28.3090   50.0030 C   0  0  0  0  0  2  0  0  0  0  0  0
   26.6940   27.5230   48.7990 C   0  0  0  0  0  2  0  0  0  0  0  0
  1  6  1  0  0  0  0
  2  1  2  0  0  0  0
  2  3  1  0  0  0  0
  3  4  2  0  0  0  0
  4  5  1  0  0  0  0
  5  7  1  0  0  0  0
  6  5  2  0  0  0  0
  7 16  1  0  0  0  0
  8  7  2  0  0  0  0
  8  9  1  0  0  0  0
  9 10  2  0  0  0  0
 10 11  1  0  0  0  0
 11 12  1  0  0  0  0
 12 13  2  0  0  0  0
 14 13  1  0  0  0  0
 15 14  2  0  0  0  0
 16 15  1  0  0  0  0
 16 11  2  0  0  0  0
 17  3  1  0  0  0  0
 17 21  1  0  0  0  0
 18 19  2  0  0  0  0
 18 17  1  0  0  0  0
 19 20  1  0  0  0  0
 20 21  2  0  0  0  0
 20 22  1  0  0  0  0
 22 23  2  0  0  0  0
 22 26  1  0  0  0  0
 23 24  1  0  0  0  0
 24 25  1  0  0  0  0
 25 27  1  0  0  0  0
 26 25  2  0  0  0  0
 27 32  1  0  0  0  0
 27 28  1  0  0  0  0
 28 29  1  0  0  0  0
 29 30  1  0  0  0  0
 31 30  1  0  0  0  0
 32 31  1  0  0  0  0
M  END
>  <minimizedAffinity>
-8.85291386

$$$$

 OpenBabel03272514323D

 32 37  0  0  0  0  0  0  0  0999 V2000
   33.2610   26.1280   47.6930 C   0  0  0  0  0  3  0  0  0  0  0  0
   31.9020   26.4030   47.7360 C   0  0  0  0  0  3  0  0  0  0  0  0
   31.5790   27.7510   47.8020 C   0  0  0  0  0  0  0  0  0  0  0  0
   32.5690   28.6340   47.8180 N   0  0  0  0  0  0  0  0  0  0  0  0
   33.8700   28.3930   47.7780 C   0  0  0  0  0  0  0  0  0  0  0  0
   34.1610   27.1060   47.7150 N   0  0  0  0  0  0  0  0  0  0  0  0
   35.0320   29.2510   47.7890 C   0  0  0  0  0  0  0  0  0  0  0  0
   35.5320   29.8190   46.6330 C   0  0  0  0  0  3  0  0  0  0  0  0
   36.6310   30.6390   46.5900 C   0  0  0  0  0  3  0  0  0  0  0  0
   37.3190   30.9470   47.7500 C   0  0  0  0  0  3  0  0  0  0  0  0
   36.8640   30.4100   48.9050 C   0  0  0  0  0  0  0  0  0  0  0  0
   37.5420   30.7090   50.0790 C   0  0  0  0  0  3  0  0  0  0  0  0
   37.1510   30.2100   51.2980 C   0  0  0  0  0  3  0  0  0  0  0  0
   36.0400   29.3860   51.3120 C   0  0  0  0  0  3  0  0  0  0  0  0
   35.3940   29.1100   50.1420 C   0  0  0  0  0  3  0  0  0  0  0  0
   35.7560   29.5880   48.9240 C   0  0  0  0  0  0  0  0  0  0  0  0
   30.2330   28.2000   47.8530 N   0  0  0  0  0  0  0  0  0  0  0  0
   29.2740   27.7420   48.6570 C   0  0  0  0  0  3  0  0  0  0  0  0
   28.1330   28.3830   48.4440 N   0  0  0  0  0  0  0  0  0  0  0  0
   28.3760   29.2740   47.4700 C   0  0  0  0  0  0  0  0  0  0  0  0
   29.6680   29.1380   47.1310 N   0  0  0  0  0  0  0  0  0  0  0  0
   27.5530   30.2670   46.7900 C   0  0  0  0  0  0  0  0  0  0  0  0
   26.7080   31.2300   47.1750 N   0  0  0  0  0  0  0  0  0  0  0  0
   26.2210   31.8510   46.1390 O   0  0  0  0  0  0  0  0  0  0  0  0
   26.7340   31.3100   45.0570 C   0  0  0  0  0  0  0  0  0  0  0  0
   27.5670   30.3200   45.4290 N   0  0  0  0  0  0  0  0  0  0  0  0
   26.4200   31.7410   43.7610 N   0  0  0  0  0  0  0  0  0  0  0  0
   26.1290   30.7720   42.7220 C   0  0  0  0  0  2  0  0  0  0  0  0
   24.7910   31.0660   42.0760 C   0  0  0  0  0  2  0  0  0  0  0  0
   24.5440   32.5190   41.8300 C   0  0  0  0  0  2  0  0  0  0  0  0
   24.9020   33.3970   43.0100 C   0  0  0  0  0  2  0  0  0  0  0  0
   26.3620   33.1310   43.3610 C   0  0  0  0  0  2  0  0  0  0  0  0
  1  6  2  0  0  0  0
  1  2  1  0  0  0  0
  2  3  2  0  0  0  0
  3  4  1  0  0  0  0
  3 17  1  0  0  0  0
  5  7  1  0  0  0  0
  5  4  2  0  0  0  0
  6  5  1  0  0  0  0
  7 16  1  0  0  0  0
  8  7  2  0  0  0  0
  9  8  1  0  0  0  0
  9 10  2  0  0  0  0
 10 11  1  0  0  0  0
 11 16  2  0  0  0  0
 11 12  1  0  0  0  0
 12 13  2  0  0  0  0
 13 14  1  0  0  0  0
 15 14  2  0  0  0  0
 16 15  1  0  0  0  0
 17 18  1  0  0  0  0
 19 18  2  0  0  0  0
 20 19  1  0  0  0  0
 21 20  2  0  0  0  0
 21 17  1  0  0  0  0
 22 23  2  0  0  0  0
 22 20  1  0  0  0  0
 24 23  1  0  0  0  0
 25 26  2  0  0  0  0
 25 24  1  0  0  0  0
 26 22  1  0  0  0  0
 27 25  1  0  0  0  0
 28 27  1  0  0  0  0
 29 28  1  0  0  0  0
 30 29  1  0  0  0  0
 30 31  1  0  0  0  0
 31 32  1  0  0  0  0
 32 27  1  0  0  0  0
M  END
>  <minimizedAffinity>
-8.38200855

$$$$

 OpenBabel03272514323D

 32 37  0  0  0  0  0  0  0  0999 V2000
   28.2720   26.9330   44.5440 C   0  0  0  0  0  3  0  0  0  0  0  0
   29.5140   27.4560   44.2130 C   0  0  0  0  0  3  0  0  0  0  0  0
   30.0460   28.3360   45.1450 C   0  0  0  0  0  0  0  0  0  0  0  0
   29.3410   28.5930   46.2400 N   0  0  0  0  0  0  0  0  0  0  0  0
   28.1580   28.1050   46.5740 C   0  0  0  0  0  0  0  0  0  0  0  0
   27.6640   27.2690   45.6770 N   0  0  0  0  0  0  0  0  0  0  0  0
   27.2970   28.3010   47.7180 C   0  0  0  0  0  0  0  0  0  0  0  0
   26.0580   28.9030   47.6040 C   0  0  0  0  0  3  0  0  0  0  0  0
   25.2040   29.1120   48.6560 C   0  0  0  0  0  3  0  0  0  0  0  0
   25.5570   28.7150   49.9340 C   0  0  0  0  0  3  0  0  0  0  0  0
   26.7630   28.1220   50.0890 C   0  0  0  0  0  0  0  0  0  0  0  0
   27.1340   27.7170   51.3640 C   0  0  0  0  0  3  0  0  0  0  0  0
   28.3390   27.1060   51.6170 C   0  0  0  0  0  3  0  0  0  0  0  0
   29.1800   26.9070   50.5380 C   0  0  0  0  0  3  0  0  0  0  0  0
   28.7880   27.3160   49.2960 C   0  0  0  0  0  3  0  0  0  0  0  0
   27.6060   27.9210   49.0160 C   0  0  0  0  0  0  0  0  0  0  0  0
   31.3080   28.9580   44.9570 N   0  0  0  0  0  0  0  0  0  0  0  0
   31.7600   29.5100   43.8320 C   0  0  0  0  0  3  0  0  0  0  0  0
   32.9790   30.0020   44.0030 N   0  0  0  0  0  0  0  0  0  0  0  0
   33.3120   29.7510   45.2790 C   0  0  0  0  0  0  0  0  0  0  0  0
   32.2700   29.1130   45.8350 N   0  0  0  0  0  0  0  0  0  0  0  0
   34.4980   30.0290   46.0800 C   0  0  0  0  0  0  0  0  0  0  0  0
   35.8040   30.1760   45.8310 N   0  0  0  0  0  0  0  0  0  0  0  0
   36.4550   30.4240   46.9310 O   0  0  0  0  0  0  0  0  0  0  0  0
   35.5920   30.4450   47.9230 C   0  0  0  0  0  0  0  0  0  0  0  0
   34.3650   30.2020   47.4240 N   0  0  0  0  0  0  0  0  0  0  0  0
   35.9590   30.6840   49.2540 N   0  0  0  0  0  0  0  0  0  0  0  0
   35.4220   29.8560   50.3160 C   0  0  0  0  0  2  0  0  0  0  0  0
   36.5400   29.2700   51.1530 C   0  0  0  0  0  2  0  0  0  0  0  0
   37.6470   30.2310   51.4440 C   0  0  0  0  0  2  0  0  0  0  0  0
   38.0900   31.0220   50.2310 C   0  0  0  0  0  2  0  0  0  0  0  0
   36.8650   31.7340   49.6690 C   0  0  0  0  0  2  0  0  0  0  0  0
  1  6  1  0  0  0  0
  2  1  2  0  0  0  0
  2  3  1  0  0  0  0
  3  4  2  0  0  0  0
  4  5  1  0  0  0  0
  5  7  1  0  0  0  0
  6  5  2  0  0  0  0
  7 16  1  0  0  0  0
  8  7  2  0  0  0  0
  8  9  1  0  0  0  0
  9 10  2  0  0  0  0
 10 11  1  0  0  0  0
 11 12  1  0  0  0  0
 12 13  2  0  0  0  0
 14 13  1  0  0  0  0
 15 14  2  0  0  0  0
 16 15  1  0  0  0  0
 16 11  2  0  0  0  0
 17  3  1  0  0  0  0
 17 21  1  0  0  0  0
 18 19  2  0  0  0  0
 18 17  1  0  0  0  0
 19 20  1  0  0  0  0
 20 21  2  0  0  0  0
 20 22  1  0  0  0  0
 22 26  1  0  0  0  0
 23 22  2  0  0  0  0
 23 24  1  0  0  0  0
 24 25  1  0  0  0  0
 25 27  1  0  0  0  0
 26 25  2  0  0  0  0
 27 32  1  0  0  0  0
 27 28  1  0  0  0  0
 28 29  1  0  0  0  0
 29 30  1  0  0  0  0
 31 30  1  0  0  0  0
 32 31  1  0  0  0  0
M  END
>  <minimizedAffinity>
-8.33985043

$$$$

 OpenBabel03272514323D

 32 37  0  0  0  0  0  0  0  0999 V2000
   31.6660   25.8780   47.5340 C   0  0  0  0  0  3  0  0  0  0  0  0
   32.8670   26.5710   47.5790 C   0  0  0  0  0  3  0  0  0  0  0  0
   32.8690   27.6870   48.4040 C   0  0  0  0  0  0  0  0  0  0  0  0
   31.7540   27.9850   49.0580 N   0  0  0  0  0  0  0  0  0  0  0  0
   30.6000   27.3390   49.0300 C   0  0  0  0  0  0  0  0  0  0  0  0
   30.6140   26.2790   48.2410 N   0  0  0  0  0  0  0  0  0  0  0  0
   29.3310   27.5560   49.6850 C   0  0  0  0  0  0  0  0  0  0  0  0
   29.0180   26.9550   50.8890 C   0  0  0  0  0  3  0  0  0  0  0  0
   27.8290   27.1280   51.5510 C   0  0  0  0  0  3  0  0  0  0  0  0
   26.8460   27.9460   51.0210 C   0  0  0  0  0  3  0  0  0  0  0  0
   27.1120   28.5540   49.8420 C   0  0  0  0  0  0  0  0  0  0  0  0
   26.1380   29.3790   49.2960 C   0  0  0  0  0  3  0  0  0  0  0  0
   26.3200   30.0370   48.1040 C   0  0  0  0  0  3  0  0  0  0  0  0
   27.5280   29.8450   47.4590 C   0  0  0  0  0  3  0  0  0  0  0  0
   28.4660   29.0280   48.0200 C   0  0  0  0  0  3  0  0  0  0  0  0
   28.3150   28.3650   49.1950 C   0  0  0  0  0  0  0  0  0  0  0  0
   34.0180   28.5050   48.5600 N   0  0  0  0  0  0  0  0  0  0  0  0
   34.6610   28.7600   49.6990 C   0  0  0  0  0  3  0  0  0  0  0  0
   35.6950   29.5630   49.4890 N   0  0  0  0  0  0  0  0  0  0  0  0
   35.7070   29.8270   48.1730 C   0  0  0  0  0  0  0  0  0  0  0  0
   34.6700   29.1660   47.6330 N   0  0  0  0  0  0  0  0  0  0  0  0
   36.5720   30.6320   47.3190 C   0  0  0  0  0  0  0  0  0  0  0  0
   37.4930   31.5810   47.5180 N   0  0  0  0  0  0  0  0  0  0  0  0
   37.9870   31.9850   46.3840 O   0  0  0  0  0  0  0  0  0  0  0  0
   37.4030   31.3100   45.4180 C   0  0  0  0  0  0  0  0  0  0  0  0
   36.5160   30.4610   45.9690 N   0  0  0  0  0  0  0  0  0  0  0  0
   37.7010   31.4990   44.0620 N   0  0  0  0  0  0  0  0  0  0  0  0
   36.6300   31.5970   43.0880 C   0  0  0  0  0  2  0  0  0  0  0  0
   36.7640   32.8660   42.2740 C   0  0  0  0  0  2  0  0  0  0  0  0
   38.1680   33.1840   41.8710 C   0  0  0  0  0  2  0  0  0  0  0  0
   39.1650   33.0290   43.0010 C   0  0  0  0  0  2  0  0  0  0  0  0
   39.0450   31.6060   43.5350 C   0  0  0  0  0  2  0  0  0  0  0  0
  1  2  2  0  0  0  0
  1  6  1  0  0  0  0
  2  3  1  0  0  0  0
  3 17  1  0  0  0  0
  3  4  2  0  0  0  0
  5  4  1  0  0  0  0
  5  7  1  0  0  0  0
  6  5  2  0  0  0  0
  7  8  1  0  0  0  0
  8  9  2  0  0  0  0
 10  9  1  0  0  0  0
 11 10  2  0  0  0  0
 12 11  1  0  0  0  0
 13 12  2  0  0  0  0
 14 15  2  0  0  0  0
 14 13  1  0  0  0  0
 15 16  1  0  0  0  0
 16  7  2  0  0  0  0
 16 11  1  0  0  0  0
 17 18  1  0  0  0  0
 19 18  2  0  0  0  0
 20 19  1  0  0  0  0
 21 20  2  0  0  0  0
 21 17  1  0  0  0  0
 22 23  2  0  0  0  0
 22 20  1  0  0  0  0
 24 23  1  0  0  0  0
 25 26  2  0  0  0  0
 25 24  1  0  0  0  0
 26 22  1  0  0  0  0
 27 25  1  0  0  0  0
 28 27  1  0  0  0  0
 29 28  1  0  0  0  0
 30 29  1  0  0  0  0
 30 31  1  0  0  0  0
 31 32  1  0  0  0  0
 32 27  1  0  0  0  0
M  END
>  <minimizedAffinity>
-8.28418541

$$$$

 OpenBabel03272514323D

 32 37  0  0  0  0  0  0  0  0999 V2000
   33.9080   27.4220   48.5970 C   0  0  0  0  0  3  0  0  0  0  0  0
   33.0230   27.6600   47.5560 C   0  0  0  0  0  3  0  0  0  0  0  0
   33.2410   28.8410   46.8600 C   0  0  0  0  0  0  0  0  0  0  0  0
   34.2480   29.6170   47.2410 N   0  0  0  0  0  0  0  0  0  0  0  0
   35.1020   29.4090   48.2290 C   0  0  0  0  0  0  0  0  0  0  0  0
   34.8820   28.2810   48.8820 N   0  0  0  0  0  0  0  0  0  0  0  0
   36.2240   30.1630   48.7390 C   0  0  0  0  0  0  0  0  0  0  0  0
   36.4980   30.2390   50.0910 C   0  0  0  0  0  3  0  0  0  0  0  0
   37.5490   30.9400   50.6260 C   0  0  0  0  0  3  0  0  0  0  0  0
   38.4180   31.6340   49.8030 C   0  0  0  0  0  3  0  0  0  0  0  0
   38.1850   31.5860   48.4710 C   0  0  0  0  0  0  0  0  0  0  0  0
   39.0480   32.2750   47.6300 C   0  0  0  0  0  3  0  0  0  0  0  0
   38.8890   32.2830   46.2650 C   0  0  0  0  0  3  0  0  0  0  0  0
   37.8230   31.5680   45.7530 C   0  0  0  0  0  3  0  0  0  0  0  0
   36.9910   30.9000   46.6050 C   0  0  0  0  0  3  0  0  0  0  0  0
   37.1230   30.8740   47.9560 C   0  0  0  0  0  0  0  0  0  0  0  0
   32.4230   29.2320   45.7680 N   0  0  0  0  0  0  0  0  0  0  0  0
   32.4530   28.7270   44.5350 C   0  0  0  0  0  3  0  0  0  0  0  0
   31.5550   29.3200   43.7600 N   0  0  0  0  0  0  0  0  0  0  0  0
   30.9380   30.2330   44.5270 C   0  0  0  0  0  0  0  0  0  0  0  0
   31.4900   30.1530   45.7480 N   0  0  0  0  0  0  0  0  0  0  0  0
   29.8730   31.1970   44.2780 C   0  0  0  0  0  0  0  0  0  0  0  0
   29.7120   32.2530   43.4730 N   0  0  0  0  0  0  0  0  0  0  0  0
   28.5360   32.7850   43.6460 O   0  0  0  0  0  0  0  0  0  0  0  0
   27.9030   32.0910   44.5660 C   0  0  0  0  0  0  0  0  0  0  0  0
   28.7100   31.0960   44.9800 N   0  0  0  0  0  0  0  0  0  0  0  0
   26.6050   32.3970   44.9990 N   0  0  0  0  0  0  0  0  0  0  0  0
   26.2930   32.3990   46.4150 C   0  0  0  0  0  2  0  0  0  0  0  0
   25.6710   33.7190   46.8220 C   0  0  0  0  0  2  0  0  0  0  0  0
   24.6800   34.2510   45.8390 C   0  0  0  0  0  2  0  0  0  0  0  0
   25.1570   34.1740   44.4040 C   0  0  0  0  0  2  0  0  0  0  0  0
   25.5100   32.7200   44.1100 C   0  0  0  0  0  2  0  0  0  0  0  0
  1  6  1  0  0  0  0
  2  1  2  0  0  0  0
  3  4  2  0  0  0  0
  3  2  1  0  0  0  0
  4  5  1  0  0  0  0
  5  7  1  0  0  0  0
  5  6  2  0  0  0  0
  7  8  1  0  0  0  0
  8  9  2  0  0  0  0
 10  9  1  0  0  0  0
 11 10  2  0  0  0  0
 12 11  1  0  0  0  0
 13 12  2  0  0  0  0
 14 13  1  0  0  0  0
 14 15  2  0  0  0  0
 15 16  1  0  0  0  0
 16 11  1  0  0  0  0
 16  7  2  0  0  0  0
 17  3  1  0  0  0  0
 18 17  1  0  0  0  0
 19 20  1  0  0  0  0
 19 18  2  0  0  0  0
 20 21  2  0  0  0  0
 21 17  1  0  0  0  0
 22 20  1  0  0  0  0
 22 26  1  0  0  0  0
 23 24  1  0  0  0  0
 23 22  2  0  0  0  0
 24 25  1  0  0  0  0
 25 26  2  0  0  0  0
 25 27  1  0  0  0  0
 27 28  1  0  0  0  0
 28 29  1  0  0  0  0
 30 29  1  0  0  0  0
 31 30  1  0  0  0  0
 32 31  1  0  0  0  0
 32 27  1  0  0  0  0
M  END
>  <minimizedAffinity>
-8.21173096

$$$$

 OpenBabel03272514323D

 32 37  0  0  0  0  0  0  0  0999 V2000
   33.5370   27.0720   47.9370 C   0  0  0  0  0  3  0  0  0  0  0  0
   32.7580   27.6980   46.9750 C   0  0  0  0  0  3  0  0  0  0  0  0
   32.9930   29.0570   46.8250 C   0  0  0  0  0  0  0  0  0  0  0  0
   33.9150   29.6240   47.5930 N   0  0  0  0  0  0  0  0  0  0  0  0
   34.6680   29.0460   48.5150 C   0  0  0  0  0  0  0  0  0  0  0  0
   34.4330   27.7520   48.6460 N   0  0  0  0  0  0  0  0  0  0  0  0
   35.6920   29.5420   49.4050 C   0  0  0  0  0  0  0  0  0  0  0  0
   35.7240   29.1970   50.7430 C   0  0  0  0  0  3  0  0  0  0  0  0
   36.6730   29.6390   51.6300 C   0  0  0  0  0  3  0  0  0  0  0  0
   37.6830   30.4870   51.2090 C   0  0  0  0  0  3  0  0  0  0  0  0
   37.6870   30.8500   49.9060 C   0  0  0  0  0  0  0  0  0  0  0  0
   38.6930   31.6990   49.4660 C   0  0  0  0  0  3  0  0  0  0  0  0
   38.7770   32.1200   48.1600 C   0  0  0  0  0  3  0  0  0  0  0  0
   37.8080   31.6590   47.2880 C   0  0  0  0  0  3  0  0  0  0  0  0
   36.8310   30.8240   47.7500 C   0  0  0  0  0  3  0  0  0  0  0  0
   36.7230   30.3920   49.0320 C   0  0  0  0  0  0  0  0  0  0  0  0
   32.2790   29.8440   45.8840 N   0  0  0  0  0  0  0  0  0  0  0  0
   32.8060   30.6150   44.9330 C   0  0  0  0  0  3  0  0  0  0  0  0
   31.8550   31.2130   44.2280 N   0  0  0  0  0  0  0  0  0  0  0  0
   30.6870   30.8080   44.7500 C   0  0  0  0  0  0  0  0  0  0  0  0
   30.9790   29.9720   45.7600 N   0  0  0  0  0  0  0  0  0  0  0  0
   29.2930   31.0950   44.4340 C   0  0  0  0  0  0  0  0  0  0  0  0
   28.1100   30.5700   44.7720 N   0  0  0  0  0  0  0  0  0  0  0  0
   27.1390   31.2210   44.1980 O   0  0  0  0  0  0  0  0  0  0  0  0
   27.6630   32.1840   43.4730 C   0  0  0  0  0  0  0  0  0  0  0  0
   29.0030   32.1310   43.5990 N   0  0  0  0  0  0  0  0  0  0  0  0
   26.8940   33.0790   42.7170 N   0  0  0  0  0  0  0  0  0  0  0  0
   27.2820   33.4020   41.3570 C   0  0  0  0  0  2  0  0  0  0  0  0
   26.1320   33.1550   40.4020 C   0  0  0  0  0  2  0  0  0  0  0  0
   24.8040   33.5990   40.9240 C   0  0  0  0  0  2  0  0  0  0  0  0
   24.5560   33.1870   42.3600 C   0  0  0  0  0  2  0  0  0  0  0  0
   25.7000   33.7350   43.2050 C   0  0  0  0  0  2  0  0  0  0  0  0
  1  6  1  0  0  0  0
  2  1  2  0  0  0  0
  3  2  1  0  0  0  0
  3  4  2  0  0  0  0
  4  5  1  0  0  0  0
  5  6  2  0  0  0  0
  5  7  1  0  0  0  0
  7  8  1  0  0  0  0
  8  9  2  0  0  0  0
 10  9  1  0  0  0  0
 11 10  2  0  0  0  0
 12 11  1  0  0  0  0
 13 12  2  0  0  0  0
 14 15  2  0  0  0  0
 14 13  1  0  0  0  0
 15 16  1  0  0  0  0
 16  7  2  0  0  0  0
 16 11  1  0  0  0  0
 17  3  1  0  0  0  0
 18 17  1  0  0  0  0
 19 20  1  0  0  0  0
 19 18  2  0  0  0  0
 20 21  2  0  0  0  0
 21 17  1  0  0  0  0
 22 20  1  0  0  0  0
 22 23  2  0  0  0  0
 24 23  1  0  0  0  0
 25 26  2  0  0  0  0
 25 24  1  0  0  0  0
 26 22  1  0  0  0  0
 27 32  1  0  0  0  0
 27 25  1  0  0  0  0
 28 27  1  0  0  0  0
 29 30  1  0  0  0  0
 29 28  1  0  0  0  0
 30 31  1  0  0  0  0
 31 32  1  0  0  0  0
M  END
>  <minimizedAffinity>
-8.07960415

$$$$

 OpenBabel03272514323D

 32 37  0  0  0  0  0  0  0  0999 V2000
   26.8110   28.2770   46.5150 C   0  0  0  0  0  3  0  0  0  0  0  0
   28.1500   27.9180   46.5530 C   0  0  0  0  0  3  0  0  0  0  0  0
   29.0070   28.7790   45.8810 C   0  0  0  0  0  0  0  0  0  0  0  0
   28.4850   29.8390   45.2770 N   0  0  0  0  0  0  0  0  0  0  0  0
   27.2130   30.2000   45.2290 C   0  0  0  0  0  0  0  0  0  0  0  0
   26.4100   29.3710   45.8740 N   0  0  0  0  0  0  0  0  0  0  0  0
   26.5250   31.3120   44.6150 C   0  0  0  0  0  0  0  0  0  0  0  0
   26.2860   31.3610   43.2550 C   0  0  0  0  0  3  0  0  0  0  0  0
   25.6380   32.3920   42.6240 C   0  0  0  0  0  3  0  0  0  0  0  0
   25.1750   33.4760   43.3490 C   0  0  0  0  0  3  0  0  0  0  0  0
   25.3890   33.4680   44.6850 C   0  0  0  0  0  0  0  0  0  0  0  0
   24.9300   34.5460   45.4290 C   0  0  0  0  0  3  0  0  0  0  0  0
   25.1020   34.6230   46.7900 C   0  0  0  0  0  3  0  0  0  0  0  0
   25.7580   33.5700   47.4000 C   0  0  0  0  0  3  0  0  0  0  0  0
   26.1980   32.5230   46.6430 C   0  0  0  0  0  3  0  0  0  0  0  0
   26.0420   32.4190   45.2990 C   0  0  0  0  0  0  0  0  0  0  0  0
   30.4070   28.5540   45.8240 N   0  0  0  0  0  0  0  0  0  0  0  0
   31.0250   27.5540   45.1970 C   0  0  0  0  0  3  0  0  0  0  0  0
   32.3400   27.6430   45.3450 N   0  0  0  0  0  0  0  0  0  0  0  0
   32.5620   28.7350   46.0930 C   0  0  0  0  0  0  0  0  0  0  0  0
   31.3620   29.2700   46.3690 N   0  0  0  0  0  0  0  0  0  0  0  0
   33.7700   29.3730   46.6020 C   0  0  0  0  0  0  0  0  0  0  0  0
   34.8370   29.9680   46.0570 N   0  0  0  0  0  0  0  0  0  0  0  0
   35.6530   30.3820   46.9830 O   0  0  0  0  0  0  0  0  0  0  0  0
   35.1400   30.0680   48.1530 C   0  0  0  0  0  0  0  0  0  0  0  0
   33.9680   29.4380   47.9480 N   0  0  0  0  0  0  0  0  0  0  0  0
   35.7670   30.3680   49.3700 N   0  0  0  0  0  0  0  0  0  0  0  0
   35.8400   29.3670   50.4160 C   0  0  0  0  0  2  0  0  0  0  0  0
   37.2730   29.1690   50.8660 C   0  0  0  0  0  2  0  0  0  0  0  0
   38.0490   30.4390   50.9940 C   0  0  0  0  0  2  0  0  0  0  0  0
   37.8610   31.3780   49.8210 C   0  0  0  0  0  2  0  0  0  0  0  0
   36.3670   31.6490   49.6780 C   0  0  0  0  0  2  0  0  0  0  0  0
  1  2  1  0  0  0  0
  3  2  2  0  0  0  0
  4  3  1  0  0  0  0
  5  4  2  0  0  0  0
  5  6  1  0  0  0  0
  6  1  2  0  0  0  0
  7  5  1  0  0  0  0
  7 16  1  0  0  0  0
  8  7  2  0  0  0  0
  9  8  1  0  0  0  0
  9 10  2  0  0  0  0
 10 11  1  0  0  0  0
 11 16  2  0  0  0  0
 11 12  1  0  0  0  0
 12 13  2  0  0  0  0
 13 14  1  0  0  0  0
 15 14  2  0  0  0  0
 16 15  1  0  0  0  0
 17  3  1  0  0  0  0
 17 21  1  0  0  0  0
 18 19  2  0  0  0  0
 18 17  1  0  0  0  0
 19 20  1  0  0  0  0
 20 21  2  0  0  0  0
 20 22  1  0  0  0  0
 22 26  1  0  0  0  0
 23 22  2  0  0  0  0
 23 24  1  0  0  0  0
 24 25  1  0  0  0  0
 25 27  1  0  0  0  0
 26 25  2  0  0  0  0
 27 32  1  0  0  0  0
 27 28  1  0  0  0  0
 28 29  1  0  0  0  0
 29 30  1  0  0  0  0
 31 30  1  0  0  0  0
 32 31  1  0  0  0  0
M  END
>  <minimizedAffinity>
-8.02697468

$$$$

 OpenBabel03272514323D

 32 37  0  0  0  0  0  0  0  0999 V2000
   37.2570   30.1340   43.9120 C   0  0  0  0  0  3  0  0  0  0  0  0
   35.9410   29.9480   43.5140 C   0  0  0  0  0  3  0  0  0  0  0  0
   34.9940   30.1530   44.5080 C   0  0  0  0  0  0  0  0  0  0  0  0
   35.4180   30.4980   45.7170 N   0  0  0  0  0  0  0  0  0  0  0  0
   36.6650   30.6810   46.1170 C   0  0  0  0  0  0  0  0  0  0  0  0
   37.5550   30.4820   45.1600 N   0  0  0  0  0  0  0  0  0  0  0  0
   37.2510   31.0510   47.3840 C   0  0  0  0  0  0  0  0  0  0  0  0
   38.2290   32.0220   47.4800 C   0  0  0  0  0  3  0  0  0  0  0  0
   38.8160   32.4110   48.6570 C   0  0  0  0  0  3  0  0  0  0  0  0
   38.4420   31.8230   49.8530 C   0  0  0  0  0  3  0  0  0  0  0  0
   37.4880   30.8660   49.8030 C   0  0  0  0  0  0  0  0  0  0  0  0
   37.0990   30.2660   50.9930 C   0  0  0  0  0  3  0  0  0  0  0  0
   36.1380   29.2860   51.0390 C   0  0  0  0  0  3  0  0  0  0  0  0
   35.5620   28.9140   49.8380 C   0  0  0  0  0  3  0  0  0  0  0  0
   35.9640   29.5220   48.6840 C   0  0  0  0  0  3  0  0  0  0  0  0
   36.9100   30.4920   48.6080 C   0  0  0  0  0  0  0  0  0  0  0  0
   33.6040   30.0030   44.2640 N   0  0  0  0  0  0  0  0  0  0  0  0
   32.9570   28.8590   44.0400 C   0  0  0  0  0  3  0  0  0  0  0  0
   31.6630   29.0780   43.8500 N   0  0  0  0  0  0  0  0  0  0  0  0
   31.4850   30.4040   43.9540 C   0  0  0  0  0  0  0  0  0  0  0  0
   32.6890   30.9410   44.2080 N   0  0  0  0  0  0  0  0  0  0  0  0
   30.3170   31.2700   43.8490 C   0  0  0  0  0  0  0  0  0  0  0  0
   30.0050   32.3710   43.1550 N   0  0  0  0  0  0  0  0  0  0  0  0
   28.7940   32.7600   43.4340 O   0  0  0  0  0  0  0  0  0  0  0  0
   28.2870   31.9250   44.3150 C   0  0  0  0  0  0  0  0  0  0  0  0
   29.2120   30.9870   44.5940 N   0  0  0  0  0  0  0  0  0  0  0  0
   26.9930   32.0540   44.8370 N   0  0  0  0  0  0  0  0  0  0  0  0
   26.7640   31.8980   46.2600 C   0  0  0  0  0  2  0  0  0  0  0  0
   26.0390   33.1050   46.8190 C   0  0  0  0  0  2  0  0  0  0  0  0
   24.9440   33.6160   45.9390 C   0  0  0  0  0  2  0  0  0  0  0  0
   25.3430   33.7160   44.4820 C   0  0  0  0  0  2  0  0  0  0  0  0
   25.8210   32.3390   44.0360 C   0  0  0  0  0  2  0  0  0  0  0  0
  1  6  1  0  0  0  0
  2  1  2  0  0  0  0
  2  3  1  0  0  0  0
  3  4  2  0  0  0  0
  4  5  1  0  0  0  0
  5  7  1  0  0  0  0
  6  5  2  0  0  0  0
  7  8  2  0  0  0  0
  7 16  1  0  0  0  0
  8  9  1  0  0  0  0
  9 10  2  0  0  0  0
 11 10  1  0  0  0  0
 11 12  1  0  0  0  0
 12 13  2  0  0  0  0
 14 13  1  0  0  0  0
 15 14  2  0  0  0  0
 16 15  1  0  0  0  0
 16 11  2  0  0  0  0
 17  3  1  0  0  0  0
 18 17  1  0  0  0  0
 19 20  1  0  0  0  0
 19 18  2  0  0  0  0
 20 21  2  0  0  0  0
 21 17  1  0  0  0  0
 22 20  1  0  0  0  0
 22 26  1  0  0  0  0
 23 24  1  0  0  0  0
 23 22  2  0  0  0  0
 24 25  1  0  0  0  0
 25 26  2  0  0  0  0
 25 27  1  0  0  0  0
 27 28  1  0  0  0  0
 28 29  1  0  0  0  0
 30 29  1  0  0  0  0
 31 30  1  0  0  0  0
 32 31  1  0  0  0  0
 32 27  1  0  0  0  0
M  END
>  <minimizedAffinity>
-7.99846888

$$$$
