
 OpenBabel03272514463D

 39 45  0  0  0  0  0  0  0  0999 V2000
   32.1520   30.6470   42.9860 C   0  0  0  0  0  0  0  0  0  0  0  0
   30.8400   31.1730   43.0970 C   0  0  0  0  0  3  0  0  0  0  0  0
   30.2340   31.0980   44.3280 C   0  0  0  0  0  3  0  0  0  0  0  0
   30.9520   30.5310   45.3030 N   0  0  0  0  0  0  0  0  0  0  0  0
   32.1540   30.0420   45.2230 C   0  0  0  0  0  0  0  0  0  0  0  0
   32.7680   30.1030   44.0290 N   0  0  0  0  0  0  0  0  0  0  0  0
   32.6820   29.5050   46.4120 N   0  0  0  0  0  0  0  0  0  0  0  0
   33.7340   30.1370   46.9980 C   0  0  0  0  0  3  0  0  0  0  0  0
   34.0890   29.4650   48.1400 C   0  0  0  0  0  0  0  0  0  0  0  0
   33.2490   28.4350   48.2300 N   0  0  0  0  0  0  0  0  0  0  0  0
   32.3750   28.4500   47.1650 C   0  0  0  0  0  0  0  0  0  0  0  0
   31.3600   27.4730   46.9440 C   0  0  0  0  0  0  0  0  0  0  0  0
   31.4910   26.4600   45.9720 C   0  0  0  0  0  3  0  0  0  0  0  0
   30.3550   25.6900   45.9660 N   0  0  0  0  0  0  0  0  0  0  0  0
   29.5190   26.2400   46.9450 C   0  0  0  0  0  3  0  0  0  0  0  0
   30.1730   27.2620   47.4650 N   0  0  0  0  0  0  0  0  0  0  0  0
   29.3140   27.7080   48.4720 C   0  0  0  0  0  0  0  0  0  0  0  0
   29.4870   27.0420   49.6130 N   0  0  0  0  0  0  0  0  0  0  0  0
   28.6880   27.3070   50.6790 C   0  0  0  0  0  3  0  0  0  0  0  0
   27.7140   28.2130   50.6660 N   0  0  0  0  0  0  0  0  0  0  0  0
   27.4980   28.9120   49.5330 C   0  0  0  0  0  0  0  0  0  0  0  0
   26.5300   29.8690   49.3750 C   0  0  0  0  0  3  0  0  0  0  0  0
   26.3580   30.5390   48.2080 C   0  0  0  0  0  3  0  0  0  0  0  0
   27.1880   30.2520   47.1270 C   0  0  0  0  0  3  0  0  0  0  0  0
   28.1760   29.3060   47.2180 C   0  0  0  0  0  3  0  0  0  0  0  0
   28.3080   28.6600   48.4180 C   0  0  0  0  0  0  0  0  0  0  0  0
   35.0980   29.6380   49.1620 C   0  0  0  0  0  0  0  0  0  0  0  0
   35.0670   29.0170   50.4020 C   0  0  0  0  0  3  0  0  0  0  0  0
   36.1400   29.3770   51.1320 N   0  0  0  0  0  0  0  0  0  0  0  0
   36.9180   30.2270   50.4450 C   0  0  0  0  0  0  0  0  0  0  0  0
   38.0960   30.8910   50.6950 C   0  0  0  0  0  3  0  0  0  0  0  0
   38.6830   31.7190   49.7900 C   0  0  0  0  0  3  0  0  0  0  0  0
   38.0190   31.8600   48.5900 C   0  0  0  0  0  3  0  0  0  0  0  0
   36.8470   31.2060   48.3320 C   0  0  0  0  0  3  0  0  0  0  0  0
   36.2550   30.3680   49.2450 C   0  0  0  0  0  0  0  0  0  0  0  0
   36.3360   29.0450   52.0870 H   0  0  0  0  0  0  0  0  0  0  0  0
   32.8220   30.7220   41.7110 N   0  0  0  0  0  0  0  0  0  0  0  0
   33.7760   30.3460   41.6070 H   0  0  0  0  0  0  0  0  0  0  0  0
   32.3480   31.1520   40.9030 H   0  0  0  0  0  0  0  0  0  0  0  0
  1  2  2  0  0  0  0
  1  6  1  0  0  0  0
  2  3  1  0  0  0  0
  3  4  2  0  0  0  0
  5  4  1  0  0  0  0
  5  7  1  0  0  0  0
  6  5  2  0  0  0  0
  7  8  1  0  0  0  0
  7 11  1  0  0  0  0
  8  9  2  0  0  0  0
  9 10  1  0  0  0  0
  9 27  1  0  0  0  0
 11 10  2  0  0  0  0
 12 11  1  0  0  0  0
 12 16  1  0  0  0  0
 13 12  2  0  0  0  0
 14 13  1  0  0  0  0
 14 15  2  0  0  0  0
 15 16  1  0  0  0  0
 16 17  1  0  0  0  0
 17 18  1  0  0  0  0
 18 19  2  0  0  0  0
 20 19  1  0  0  0  0
 21 20  2  0  0  0  0
 22 21  1  0  0  0  0
 23 22  2  0  0  0  0
 24 25  2  0  0  0  0
 24 23  1  0  0  0  0
 25 26  1  0  0  0  0
 26 17  2  0  0  0  0
 26 21  1  0  0  0  0
 27 35  1  0  0  0  0
 27 28  2  0  0  0  0
 28 29  1  0  0  0  0
 29 36  1  0  0  0  0
 30 31  1  0  0  0  0
 30 29  1  0  0  0  0
 32 31  2  0  0  0  0
 33 32  1  0  0  0  0
 34 33  2  0  0  0  0
 34 35  1  0  0  0  0
 35 30  2  0  0  0  0
 37  1  1  0  0  0  0
 38 37  1  0  0  0  0
 39 37  1  0  0  0  0
M  END
>  <minimizedAffinity>
-8.95001602

$$$$

 OpenBabel03272514463D

 39 45  0  0  0  0  0  0  0  0999 V2000
   30.9430   31.1340   42.4870 C   0  0  0  0  0  0  0  0  0  0  0  0
   29.6720   31.5430   42.9640 C   0  0  0  0  0  3  0  0  0  0  0  0
   29.4110   31.3580   44.3010 C   0  0  0  0  0  3  0  0  0  0  0  0
   30.3940   30.8060   45.0190 N   0  0  0  0  0  0  0  0  0  0  0  0
   31.5650   30.4240   44.6040 C   0  0  0  0  0  0  0  0  0  0  0  0
   31.8430   30.5940   43.3000 N   0  0  0  0  0  0  0  0  0  0  0  0
   32.4180   29.8750   45.5790 N   0  0  0  0  0  0  0  0  0  0  0  0
   33.5400   30.5640   45.9210 C   0  0  0  0  0  3  0  0  0  0  0  0
   34.2230   29.8680   46.8860 C   0  0  0  0  0  0  0  0  0  0  0  0
   33.5070   28.7690   47.1160 N   0  0  0  0  0  0  0  0  0  0  0  0
   32.3880   28.7630   46.3120 C   0  0  0  0  0  0  0  0  0  0  0  0
   31.4200   27.7160   46.2900 C   0  0  0  0  0  0  0  0  0  0  0  0
   31.4580   26.6780   45.3370 C   0  0  0  0  0  3  0  0  0  0  0  0
   30.3920   25.8390   45.5420 N   0  0  0  0  0  0  0  0  0  0  0  0
   29.6930   26.3710   46.6310 C   0  0  0  0  0  3  0  0  0  0  0  0
   30.3530   27.4520   47.0070 N   0  0  0  0  0  0  0  0  0  0  0  0
   29.6420   27.8800   48.1310 C   0  0  0  0  0  0  0  0  0  0  0  0
   30.0470   27.2690   49.2450 N   0  0  0  0  0  0  0  0  0  0  0  0
   29.4180   27.5240   50.4220 C   0  0  0  0  0  3  0  0  0  0  0  0
   28.3960   28.3660   50.5470 N   0  0  0  0  0  0  0  0  0  0  0  0
   27.9490   29.0070   49.4480 C   0  0  0  0  0  0  0  0  0  0  0  0
   26.9060   29.8950   49.4280 C   0  0  0  0  0  3  0  0  0  0  0  0
   26.4980   30.5090   48.2880 C   0  0  0  0  0  3  0  0  0  0  0  0
   27.1560   30.2340   47.0930 C   0  0  0  0  0  3  0  0  0  0  0  0
   28.2080   29.3550   47.0430 C   0  0  0  0  0  3  0  0  0  0  0  0
   28.5790   28.7650   48.2200 C   0  0  0  0  0  0  0  0  0  0  0  0
   35.4480   30.0750   47.6280 C   0  0  0  0  0  0  0  0  0  0  0  0
   36.6340   30.5250   47.0680 C   0  0  0  0  0  3  0  0  0  0  0  0
   37.5920   30.6150   48.0090 N   0  0  0  0  0  0  0  0  0  0  0  0
   37.1160   30.2440   49.2070 C   0  0  0  0  0  0  0  0  0  0  0  0
   37.6370   30.1430   50.4760 C   0  0  0  0  0  3  0  0  0  0  0  0
   36.9060   29.7250   51.5440 C   0  0  0  0  0  3  0  0  0  0  0  0
   35.5920   29.4000   51.2790 C   0  0  0  0  0  3  0  0  0  0  0  0
   35.0650   29.4950   50.0210 C   0  0  0  0  0  3  0  0  0  0  0  0
   35.8030   29.9190   48.9430 C   0  0  0  0  0  0  0  0  0  0  0  0
   38.5580   30.9260   47.8340 H   0  0  0  0  0  0  0  0  0  0  0  0
   31.2540   31.3270   41.0920 N   0  0  0  0  0  0  0  0  0  0  0  0
   32.1710   31.0380   40.7240 H   0  0  0  0  0  0  0  0  0  0  0  0
   30.5590   31.7550   40.4630 H   0  0  0  0  0  0  0  0  0  0  0  0
  1  2  2  0  0  0  0
  1  6  1  0  0  0  0
  2  3  1  0  0  0  0
  3  4  2  0  0  0  0
  5  4  1  0  0  0  0
  5  7  1  0  0  0  0
  6  5  2  0  0  0  0
  7  8  1  0  0  0  0
  7 11  1  0  0  0  0
  8  9  2  0  0  0  0
  9 10  1  0  0  0  0
  9 27  1  0  0  0  0
 11 10  2  0  0  0  0
 12 11  1  0  0  0  0
 12 16  1  0  0  0  0
 13 14  1  0  0  0  0
 13 12  2  0  0  0  0
 14 15  2  0  0  0  0
 15 16  1  0  0  0  0
 16 17  1  0  0  0  0
 17 26  2  0  0  0  0
 17 18  1  0  0  0  0
 18 19  2  0  0  0  0
 19 20  1  0  0  0  0
 21 20  2  0  0  0  0
 22 21  1  0  0  0  0
 23 22  2  0  0  0  0
 24 23  1  0  0  0  0
 25 24  2  0  0  0  0
 25 26  1  0  0  0  0
 26 21  1  0  0  0  0
 27 35  1  0  0  0  0
 28 27  2  0  0  0  0
 28 29  1  0  0  0  0
 29 30  1  0  0  0  0
 30 31  1  0  0  0  0
 31 32  2  0  0  0  0
 33 32  1  0  0  0  0
 34 33  2  0  0  0  0
 35 30  2  0  0  0  0
 35 34  1  0  0  0  0
 36 29  1  0  0  0  0
 37  1  1  0  0  0  0
 38 37  1  0  0  0  0
 39 37  1  0  0  0  0
M  END
>  <minimizedAffinity>
-8.55988026

$$$$

 OpenBabel03272514463D

 39 45  0  0  0  0  0  0  0  0999 V2000
   31.4970   32.1330   42.2160 C   0  0  0  0  0  0  0  0  0  0  0  0
   30.3630   32.9440   42.4730 C   0  0  0  0  0  3  0  0  0  0  0  0
   29.7300   32.7760   43.6810 C   0  0  0  0  0  3  0  0  0  0  0  0
   30.2550   31.8550   44.4960 N   0  0  0  0  0  0  0  0  0  0  0  0
   31.2920   31.1020   44.2810 C   0  0  0  0  0  0  0  0  0  0  0  0
   31.9280   31.2470   43.1060 N   0  0  0  0  0  0  0  0  0  0  0  0
   31.6370   30.2150   45.3180 N   0  0  0  0  0  0  0  0  0  0  0  0
   32.8020   30.4220   45.9870 C   0  0  0  0  0  3  0  0  0  0  0  0
   32.9460   29.4610   46.9560 C   0  0  0  0  0  0  0  0  0  0  0  0
   31.8670   28.6850   46.8610 N   0  0  0  0  0  0  0  0  0  0  0  0
   31.0510   29.1420   45.8490 C   0  0  0  0  0  0  0  0  0  0  0  0
   29.8240   28.5260   45.4640 C   0  0  0  0  0  0  0  0  0  0  0  0
   29.7160   27.7240   44.3100 C   0  0  0  0  0  3  0  0  0  0  0  0
   28.4200   27.2920   44.1800 N   0  0  0  0  0  0  0  0  0  0  0  0
   27.7270   27.8380   45.2670 C   0  0  0  0  0  3  0  0  0  0  0  0
   28.6090   28.5330   45.9620 N   0  0  0  0  0  0  0  0  0  0  0  0
   27.8660   28.9810   47.0570 C   0  0  0  0  0  0  0  0  0  0  0  0
   27.8280   28.0820   48.0410 N   0  0  0  0  0  0  0  0  0  0  0  0
   27.0960   28.3320   49.1570 C   0  0  0  0  0  3  0  0  0  0  0  0
   26.3900   29.4450   49.3450 N   0  0  0  0  0  0  0  0  0  0  0  0
   26.3960   30.3830   48.3770 C   0  0  0  0  0  0  0  0  0  0  0  0
   25.7140   31.5710   48.4330 C   0  0  0  0  0  3  0  0  0  0  0  0
   25.7550   32.4780   47.4240 C   0  0  0  0  0  3  0  0  0  0  0  0
   26.5120   32.2020   46.2890 C   0  0  0  0  0  3  0  0  0  0  0  0
   27.2180   31.0320   46.1690 C   0  0  0  0  0  3  0  0  0  0  0  0
   27.1440   30.1530   47.2150 C   0  0  0  0  0  0  0  0  0  0  0  0
   33.9410   29.1550   47.9610 C   0  0  0  0  0  0  0  0  0  0  0  0
   33.7640   28.2320   48.9800 C   0  0  0  0  0  3  0  0  0  0  0  0
   34.8640   28.1720   49.7540 N   0  0  0  0  0  0  0  0  0  0  0  0
   35.8030   29.0210   49.3100 C   0  0  0  0  0  0  0  0  0  0  0  0
   37.0760   29.3610   49.7040 C   0  0  0  0  0  3  0  0  0  0  0  0
   37.8300   30.2850   49.0490 C   0  0  0  0  0  3  0  0  0  0  0  0
   37.2360   30.8730   47.9520 C   0  0  0  0  0  3  0  0  0  0  0  0
   35.9700   30.5430   47.5530 C   0  0  0  0  0  3  0  0  0  0  0  0
   35.2110   29.6080   48.2130 C   0  0  0  0  0  0  0  0  0  0  0  0
   34.9700   27.5590   50.5740 H   0  0  0  0  0  0  0  0  0  0  0  0
   32.1930   32.2940   40.9630 N   0  0  0  0  0  0  0  0  0  0  0  0
   33.0200   31.7160   40.7550 H   0  0  0  0  0  0  0  0  0  0  0  0
   31.8640   32.9880   40.2750 H   0  0  0  0  0  0  0  0  0  0  0  0
  1  2  2  0  0  0  0
  1  6  1  0  0  0  0
  2  3  1  0  0  0  0
  3  4  2  0  0  0  0
  5  4  1  0  0  0  0
  5  7  1  0  0  0  0
  6  5  2  0  0  0  0
  7 11  1  0  0  0  0
  7  8  1  0  0  0  0
  8  9  2  0  0  0  0
  9 27  1  0  0  0  0
 10  9  1  0  0  0  0
 11 10  2  0  0  0  0
 12 11  1  0  0  0  0
 12 16  1  0  0  0  0
 13 12  2  0  0  0  0
 14 13  1  0  0  0  0
 14 15  2  0  0  0  0
 15 16  1  0  0  0  0
 16 17  1  0  0  0  0
 17 26  2  0  0  0  0
 17 18  1  0  0  0  0
 18 19  2  0  0  0  0
 19 20  1  0  0  0  0
 21 22  1  0  0  0  0
 21 20  2  0  0  0  0
 23 22  2  0  0  0  0
 24 23  1  0  0  0  0
 25 24  2  0  0  0  0
 25 26  1  0  0  0  0
 26 21  1  0  0  0  0
 27 35  1  0  0  0  0
 27 28  2  0  0  0  0
 28 29  1  0  0  0  0
 29 36  1  0  0  0  0
 30 31  1  0  0  0  0
 30 29  1  0  0  0  0
 32 31  2  0  0  0  0
 33 32  1  0  0  0  0
 34 33  2  0  0  0  0
 34 35  1  0  0  0  0
 35 30  2  0  0  0  0
 37  1  1  0  0  0  0
 38 37  1  0  0  0  0
 39 37  1  0  0  0  0
M  END
>  <minimizedAffinity>
-8.4600668

$$$$

 OpenBabel03272514463D

 39 45  0  0  0  0  0  0  0  0999 V2000
   29.1140   23.6510   45.2600 C   0  0  0  0  0  0  0  0  0  0  0  0
   28.1980   23.9270   44.2130 C   0  0  0  0  0  3  0  0  0  0  0  0
   27.9870   25.2470   43.8940 C   0  0  0  0  0  3  0  0  0  0  0  0
   28.6740   26.1410   44.6110 N   0  0  0  0  0  0  0  0  0  0  0  0
   29.5150   25.9110   45.5740 C   0  0  0  0  0  0  0  0  0  0  0  0
   29.7390   24.6280   45.9060 N   0  0  0  0  0  0  0  0  0  0  0  0
   30.1080   27.0450   46.1610 N   0  0  0  0  0  0  0  0  0  0  0  0
   31.4420   27.2440   45.9850 C   0  0  0  0  0  3  0  0  0  0  0  0
   31.8170   28.3990   46.6240 C   0  0  0  0  0  0  0  0  0  0  0  0
   30.7060   28.8840   47.1780 N   0  0  0  0  0  0  0  0  0  0  0  0
   29.6430   28.0530   46.8980 C   0  0  0  0  0  0  0  0  0  0  0  0
   28.3110   28.2660   47.3610 C   0  0  0  0  0  0  0  0  0  0  0  0
   27.7990   27.6140   48.5010 C   0  0  0  0  0  3  0  0  0  0  0  0
   26.4920   27.9910   48.6870 N   0  0  0  0  0  0  0  0  0  0  0  0
   26.2030   28.8830   47.6490 C   0  0  0  0  0  3  0  0  0  0  0  0
   27.3060   28.9910   46.9300 N   0  0  0  0  0  0  0  0  0  0  0  0
   26.9620   29.9430   45.9670 C   0  0  0  0  0  0  0  0  0  0  0  0
   27.1470   31.1890   46.4030 N   0  0  0  0  0  0  0  0  0  0  0  0
   26.8040   32.2400   45.6120 C   0  0  0  0  0  3  0  0  0  0  0  0
   26.2800   32.1110   44.3960 N   0  0  0  0  0  0  0  0  0  0  0  0
   26.0730   30.8690   43.9120 C   0  0  0  0  0  0  0  0  0  0  0  0
   25.5370   30.5870   42.6820 C   0  0  0  0  0  3  0  0  0  0  0  0
   25.3490   29.3150   42.2490 C   0  0  0  0  0  3  0  0  0  0  0  0
   25.7080   28.2530   43.0740 C   0  0  0  0  0  3  0  0  0  0  0  0
   26.2480   28.4650   44.3170 C   0  0  0  0  0  3  0  0  0  0  0  0
   26.4180   29.7670   44.7040 C   0  0  0  0  0  0  0  0  0  0  0  0
   33.0580   29.1210   46.7970 C   0  0  0  0  0  0  0  0  0  0  0  0
   33.5750   30.0180   45.8740 C   0  0  0  0  0  3  0  0  0  0  0  0
   34.7400   30.5250   46.3170 N   0  0  0  0  0  0  0  0  0  0  0  0
   35.0560   30.0130   47.5160 C   0  0  0  0  0  0  0  0  0  0  0  0
   36.0970   30.1700   48.4000 C   0  0  0  0  0  3  0  0  0  0  0  0
   36.1670   29.5050   49.5850 C   0  0  0  0  0  3  0  0  0  0  0  0
   35.1190   28.6490   49.8520 C   0  0  0  0  0  3  0  0  0  0  0  0
   34.0810   28.4840   48.9790 C   0  0  0  0  0  3  0  0  0  0  0  0
   34.0100   29.1580   47.7840 C   0  0  0  0  0  0  0  0  0  0  0  0
   35.3120   31.2120   45.8050 H   0  0  0  0  0  0  0  0  0  0  0  0
   29.3690   22.2750   45.6110 N   0  0  0  0  0  0  0  0  0  0  0  0
   30.0300   22.0510   46.3690 H   0  0  0  0  0  0  0  0  0  0  0  0
   28.8910   21.5160   45.1050 H   0  0  0  0  0  0  0  0  0  0  0  0
  1 37  1  0  0  0  0
  1  6  1  0  0  0  0
  2  1  2  0  0  0  0
  3  2  1  0  0  0  0
  3  4  2  0  0  0  0
  4  5  1  0  0  0  0
  5  6  2  0  0  0  0
  5  7  1  0  0  0  0
  7 11  1  0  0  0  0
  8  7  1  0  0  0  0
  8  9  2  0  0  0  0
  9 27  1  0  0  0  0
  9 10  1  0  0  0  0
 11 10  2  0  0  0  0
 11 12  1  0  0  0  0
 12 13  2  0  0  0  0
 13 14  1  0  0  0  0
 15 14  2  0  0  0  0
 16 12  1  0  0  0  0
 16 15  1  0  0  0  0
 17 18  1  0  0  0  0
 17 16  1  0  0  0  0
 19 18  2  0  0  0  0
 20 19  1  0  0  0  0
 21 20  2  0  0  0  0
 21 26  1  0  0  0  0
 22 21  1  0  0  0  0
 23 22  2  0  0  0  0
 23 24  1  0  0  0  0
 24 25  2  0  0  0  0
 25 26  1  0  0  0  0
 26 17  2  0  0  0  0
 27 35  1  0  0  0  0
 28 29  1  0  0  0  0
 28 27  2  0  0  0  0
 29 30  1  0  0  0  0
 30 35  2  0  0  0  0
 30 31  1  0  0  0  0
 31 32  2  0  0  0  0
 32 33  1  0  0  0  0
 34 33  2  0  0  0  0
 35 34  1  0  0  0  0
 36 29  1  0  0  0  0
 37 38  1  0  0  0  0
 39 37  1  0  0  0  0
M  END
>  <minimizedAffinity>
-7.89307404

$$$$

 OpenBabel03272514463D

 39 45  0  0  0  0  0  0  0  0999 V2000
   32.0640   24.4160   46.0890 C   0  0  0  0  0  0  0  0  0  0  0  0
   32.2310   24.3840   44.6810 C   0  0  0  0  0  3  0  0  0  0  0  0
   32.7600   25.5040   44.0850 C   0  0  0  0  0  3  0  0  0  0  0  0
   33.0640   26.5160   44.9030 N   0  0  0  0  0  0  0  0  0  0  0  0
   32.9180   26.5670   46.1930 C   0  0  0  0  0  0  0  0  0  0  0  0
   32.4030   25.4840   46.8000 N   0  0  0  0  0  0  0  0  0  0  0  0
   33.3280   27.7620   46.8150 N   0  0  0  0  0  0  0  0  0  0  0  0
   34.4070   27.7260   47.6420 C   0  0  0  0  0  3  0  0  0  0  0  0
   34.6440   28.9850   48.1340 C   0  0  0  0  0  0  0  0  0  0  0  0
   33.7060   29.7660   47.5990 N   0  0  0  0  0  0  0  0  0  0  0  0
   32.8860   29.0190   46.7820 C   0  0  0  0  0  0  0  0  0  0  0  0
   31.7640   29.5420   46.0740 C   0  0  0  0  0  0  0  0  0  0  0  0
   31.8300   30.7480   45.3480 C   0  0  0  0  0  3  0  0  0  0  0  0
   30.6010   31.0120   44.7980 N   0  0  0  0  0  0  0  0  0  0  0  0
   29.7730   29.9550   45.1930 C   0  0  0  0  0  3  0  0  0  0  0  0
   30.5210   29.1470   45.9230 N   0  0  0  0  0  0  0  0  0  0  0  0
   29.6530   28.0920   46.2160 C   0  0  0  0  0  0  0  0  0  0  0  0
   29.6360   27.1720   45.2510 N   0  0  0  0  0  0  0  0  0  0  0  0
   28.7980   26.1080   45.3470 C   0  0  0  0  0  3  0  0  0  0  0  0
   27.9670   25.9100   46.3670 N   0  0  0  0  0  0  0  0  0  0  0  0
   27.9460   26.8150   47.3670 C   0  0  0  0  0  0  0  0  0  0  0  0
   27.1400   26.7420   48.4720 C   0  0  0  0  0  3  0  0  0  0  0  0
   27.1610   27.6860   49.4480 C   0  0  0  0  0  3  0  0  0  0  0  0
   28.0280   28.7690   49.3300 C   0  0  0  0  0  3  0  0  0  0  0  0
   28.8610   28.9020   48.2490 C   0  0  0  0  0  3  0  0  0  0  0  0
   28.8010   27.9220   47.2950 C   0  0  0  0  0  0  0  0  0  0  0  0
   35.6160   29.5710   49.0310 C   0  0  0  0  0  0  0  0  0  0  0  0
   35.6980   29.2880   50.3850 C   0  0  0  0  0  3  0  0  0  0  0  0
   36.7000   29.9880   50.9500 N   0  0  0  0  0  0  0  0  0  0  0  0
   37.3200   30.7490   50.0360 C   0  0  0  0  0  0  0  0  0  0  0  0
   38.3730   31.6340   50.0560 C   0  0  0  0  0  3  0  0  0  0  0  0
   38.8080   32.2890   48.9450 C   0  0  0  0  0  3  0  0  0  0  0  0
   38.1220   32.0130   47.7810 C   0  0  0  0  0  3  0  0  0  0  0  0
   37.0730   31.1360   47.7520 C   0  0  0  0  0  3  0  0  0  0  0  0
   36.6360   30.4730   48.8730 C   0  0  0  0  0  0  0  0  0  0  0  0
   36.9550   29.9440   51.9470 H   0  0  0  0  0  0  0  0  0  0  0  0
   31.5250   23.2510   46.7480 N   0  0  0  0  0  0  0  0  0  0  0  0
   31.3950   23.2520   47.7700 H   0  0  0  0  0  0  0  0  0  0  0  0
   31.2700   22.4180   46.1980 H   0  0  0  0  0  0  0  0  0  0  0  0
  1 37  1  0  0  0  0
  1  6  1  0  0  0  0
  2  1  2  0  0  0  0
  3  2  1  0  0  0  0
  3  4  2  0  0  0  0
  4  5  1  0  0  0  0
  5  6  2  0  0  0  0
  5  7  1  0  0  0  0
  7  8  1  0  0  0  0
  8  9  2  0  0  0  0
  9 27  1  0  0  0  0
 10  9  1  0  0  0  0
 11  7  1  0  0  0  0
 11 10  2  0  0  0  0
 12 11  1  0  0  0  0
 13 12  2  0  0  0  0
 14 15  2  0  0  0  0
 14 13  1  0  0  0  0
 15 16  1  0  0  0  0
 16 12  1  0  0  0  0
 16 17  1  0  0  0  0
 17 26  1  0  0  0  0
 18 19  1  0  0  0  0
 18 17  2  0  0  0  0
 19 20  2  0  0  0  0
 20 21  1  0  0  0  0
 21 22  1  0  0  0  0
 22 23  2  0  0  0  0
 24 23  1  0  0  0  0
 25 24  2  0  0  0  0
 26 21  2  0  0  0  0
 26 25  1  0  0  0  0
 27 28  2  0  0  0  0
 28 29  1  0  0  0  0
 29 36  1  0  0  0  0
 30 31  1  0  0  0  0
 30 29  1  0  0  0  0
 32 31  2  0  0  0  0
 33 32  1  0  0  0  0
 34 33  2  0  0  0  0
 34 35  1  0  0  0  0
 35 27  1  0  0  0  0
 35 30  2  0  0  0  0
 37 38  1  0  0  0  0
 39 37  1  0  0  0  0
M  END
>  <minimizedAffinity>
-7.77865219

$$$$

 OpenBabel03272514463D

 39 45  0  0  0  0  0  0  0  0999 V2000
   29.0650   27.8020   47.6230 C   0  0  0  0  0  0  0  0  0  0  0  0
   28.9370   26.5010   47.0760 C   0  0  0  0  0  3  0  0  0  0  0  0
   30.0090   26.0050   46.3730 C   0  0  0  0  0  3  0  0  0  0  0  0
   31.0720   26.8110   46.2780 N   0  0  0  0  0  0  0  0  0  0  0  0
   31.2110   28.0050   46.7710 C   0  0  0  0  0  0  0  0  0  0  0  0
   30.1750   28.5130   47.4620 N   0  0  0  0  0  0  0  0  0  0  0  0
   32.4460   28.6350   46.5260 N   0  0  0  0  0  0  0  0  0  0  0  0
   33.2760   28.8640   47.5790 C   0  0  0  0  0  3  0  0  0  0  0  0
   34.4210   29.4730   47.1290 C   0  0  0  0  0  0  0  0  0  0  0  0
   34.2680   29.6040   45.8120 N   0  0  0  0  0  0  0  0  0  0  0  0
   33.0490   29.0890   45.4280 C   0  0  0  0  0  0  0  0  0  0  0  0
   32.5600   29.0910   44.0890 C   0  0  0  0  0  0  0  0  0  0  0  0
   32.5470   27.9290   43.2920 C   0  0  0  0  0  3  0  0  0  0  0  0
   32.0520   28.2380   42.0510 N   0  0  0  0  0  0  0  0  0  0  0  0
   31.7590   29.6060   42.0880 C   0  0  0  0  0  3  0  0  0  0  0  0
   32.0770   30.0230   43.3010 N   0  0  0  0  0  0  0  0  0  0  0  0
   31.6930   31.3660   43.2830 C   0  0  0  0  0  0  0  0  0  0  0  0
   30.4050   31.5250   43.5890 N   0  0  0  0  0  0  0  0  0  0  0  0
   29.8500   32.7640   43.5580 C   0  0  0  0  0  3  0  0  0  0  0  0
   30.5210   33.8670   43.2350 N   0  0  0  0  0  0  0  0  0  0  0  0
   31.8270   33.7580   42.9160 C   0  0  0  0  0  0  0  0  0  0  0  0
   32.6370   34.8040   42.5600 C   0  0  0  0  0  3  0  0  0  0  0  0
   33.9470   34.6320   42.2470 C   0  0  0  0  0  3  0  0  0  0  0  0
   34.4950   33.3530   42.2850 C   0  0  0  0  0  3  0  0  0  0  0  0
   33.7400   32.2630   42.6330 C   0  0  0  0  0  3  0  0  0  0  0  0
   32.4260   32.4910   42.9410 C   0  0  0  0  0  0  0  0  0  0  0  0
   35.6380   29.9530   47.7450 C   0  0  0  0  0  0  0  0  0  0  0  0
   36.6580   30.5970   47.0600 C   0  0  0  0  0  3  0  0  0  0  0  0
   37.6560   30.9210   47.9030 N   0  0  0  0  0  0  0  0  0  0  0  0
   37.3690   30.5250   49.1530 C   0  0  0  0  0  0  0  0  0  0  0  0
   38.0080   30.5930   50.3690 C   0  0  0  0  0  3  0  0  0  0  0  0
   37.4700   30.0930   51.5140 C   0  0  0  0  0  3  0  0  0  0  0  0
   36.2300   29.5040   51.3850 C   0  0  0  0  0  3  0  0  0  0  0  0
   35.5870   29.4310   50.1800 C   0  0  0  0  0  3  0  0  0  0  0  0
   36.1300   29.9370   49.0250 C   0  0  0  0  0  0  0  0  0  0  0  0
   38.5220   31.4060   47.6280 H   0  0  0  0  0  0  0  0  0  0  0  0
   27.9640   28.3470   48.3790 N   0  0  0  0  0  0  0  0  0  0  0  0
   28.0350   29.2910   48.7850 H   0  0  0  0  0  0  0  0  0  0  0  0
   27.1060   27.7930   48.5120 H   0  0  0  0  0  0  0  0  0  0  0  0
  1 37  1  0  0  0  0
  2  1  2  0  0  0  0
  3  2  1  0  0  0  0
  4  3  2  0  0  0  0
  4  5  1  0  0  0  0
  5  6  2  0  0  0  0
  6  1  1  0  0  0  0
  7  5  1  0  0  0  0
  7  8  1  0  0  0  0
  9  8  2  0  0  0  0
  9 27  1  0  0  0  0
 10  9  1  0  0  0  0
 11 10  2  0  0  0  0
 11  7  1  0  0  0  0
 12 11  1  0  0  0  0
 13 12  2  0  0  0  0
 14 15  2  0  0  0  0
 14 13  1  0  0  0  0
 15 16  1  0  0  0  0
 16 12  1  0  0  0  0
 17 16  1  0  0  0  0
 17 18  1  0  0  0  0
 19 18  2  0  0  0  0
 20 19  1  0  0  0  0
 21 26  1  0  0  0  0
 21 20  2  0  0  0  0
 22 21  1  0  0  0  0
 23 24  1  0  0  0  0
 23 22  2  0  0  0  0
 24 25  2  0  0  0  0
 25 26  1  0  0  0  0
 26 17  2  0  0  0  0
 27 35  1  0  0  0  0
 28 27  2  0  0  0  0
 28 29  1  0  0  0  0
 29 30  1  0  0  0  0
 30 31  1  0  0  0  0
 31 32  2  0  0  0  0
 33 32  1  0  0  0  0
 34 33  2  0  0  0  0
 35 30  2  0  0  0  0
 35 34  1  0  0  0  0
 36 29  1  0  0  0  0
 37 39  1  0  0  0  0
 37 38  1  0  0  0  0
M  END
>  <minimizedAffinity>
-7.71652412

$$$$

 OpenBabel03272514463D

 39 45  0  0  0  0  0  0  0  0999 V2000
   28.8060   26.8040   47.2740 C   0  0  0  0  0  0  0  0  0  0  0  0
   28.9400   25.6830   46.4160 C   0  0  0  0  0  3  0  0  0  0  0  0
   30.1780   25.4600   45.8610 C   0  0  0  0  0  3  0  0  0  0  0  0
   31.1350   26.3320   46.1920 N   0  0  0  0  0  0  0  0  0  0  0  0
   31.0350   27.3640   46.9740 C   0  0  0  0  0  0  0  0  0  0  0  0
   29.8340   27.6050   47.5290 N   0  0  0  0  0  0  0  0  0  0  0  0
   32.2100   28.1170   47.1580 N   0  0  0  0  0  0  0  0  0  0  0  0
   32.7920   28.1220   48.3870 C   0  0  0  0  0  3  0  0  0  0  0  0
   33.9200   28.9020   48.3510 C   0  0  0  0  0  0  0  0  0  0  0  0
   34.0060   29.3590   47.1020 N   0  0  0  0  0  0  0  0  0  0  0  0
   32.9520   28.8800   46.3560 C   0  0  0  0  0  0  0  0  0  0  0  0
   32.7290   29.1970   44.9830 C   0  0  0  0  0  0  0  0  0  0  0  0
   31.4350   29.2810   44.4320 C   0  0  0  0  0  3  0  0  0  0  0  0
   31.5310   29.5710   43.0950 N   0  0  0  0  0  0  0  0  0  0  0  0
   32.9010   29.6650   42.8240 C   0  0  0  0  0  3  0  0  0  0  0  0
   33.5240   29.4390   43.9670 N   0  0  0  0  0  0  0  0  0  0  0  0
   34.8690   29.6200   43.6340 C   0  0  0  0  0  0  0  0  0  0  0  0
   35.2380   30.8990   43.7070 N   0  0  0  0  0  0  0  0  0  0  0  0
   36.5000   31.2590   43.3560 C   0  0  0  0  0  3  0  0  0  0  0  0
   37.4230   30.4010   42.9300 N   0  0  0  0  0  0  0  0  0  0  0  0
   37.0960   29.0960   42.8370 C   0  0  0  0  0  0  0  0  0  0  0  0
   37.9410   28.1050   42.4110 C   0  0  0  0  0  3  0  0  0  0  0  0
   37.5550   26.8060   42.3360 C   0  0  0  0  0  3  0  0  0  0  0  0
   36.2580   26.4580   42.7010 C   0  0  0  0  0  3  0  0  0  0  0  0
   35.3610   27.4000   43.1360 C   0  0  0  0  0  3  0  0  0  0  0  0
   35.8020   28.6950   43.1950 C   0  0  0  0  0  0  0  0  0  0  0  0
   34.9330   29.2870   49.3100 C   0  0  0  0  0  0  0  0  0  0  0  0
   34.9510   28.8760   50.6340 C   0  0  0  0  0  3  0  0  0  0  0  0
   36.0140   29.4000   51.2720 N   0  0  0  0  0  0  0  0  0  0  0  0
   36.7390   30.1620   50.4400 C   0  0  0  0  0  0  0  0  0  0  0  0
   37.8860   30.9130   50.5530 C   0  0  0  0  0  3  0  0  0  0  0  0
   38.4180   31.6100   49.5130 C   0  0  0  0  0  3  0  0  0  0  0  0
   37.7310   31.5220   48.3210 C   0  0  0  0  0  3  0  0  0  0  0  0
   36.5900   30.7800   48.1980 C   0  0  0  0  0  3  0  0  0  0  0  0
   36.0540   30.0750   49.2480 C   0  0  0  0  0  0  0  0  0  0  0  0
   36.2400   29.2370   52.2640 H   0  0  0  0  0  0  0  0  0  0  0  0
   27.5240   27.0590   47.8850 N   0  0  0  0  0  0  0  0  0  0  0  0
   27.4050   27.8680   48.5120 H   0  0  0  0  0  0  0  0  0  0  0  0
   26.7290   26.4330   47.6950 H   0  0  0  0  0  0  0  0  0  0  0  0
  1  6  1  0  0  0  0
  1 37  1  0  0  0  0
  2  1  2  0  0  0  0
  3  4  2  0  0  0  0
  3  2  1  0  0  0  0
  4  5  1  0  0  0  0
  5  7  1  0  0  0  0
  5  6  2  0  0  0  0
  7  8  1  0  0  0  0
  9  8  2  0  0  0  0
  9 27  1  0  0  0  0
 10  9  1  0  0  0  0
 11 10  2  0  0  0  0
 11  7  1  0  0  0  0
 12 11  1  0  0  0  0
 13 12  2  0  0  0  0
 14 13  1  0  0  0  0
 15 14  2  0  0  0  0
 15 16  1  0  0  0  0
 16 12  1  0  0  0  0
 17 18  1  0  0  0  0
 17 16  1  0  0  0  0
 19 18  2  0  0  0  0
 20 19  1  0  0  0  0
 21 20  2  0  0  0  0
 21 26  1  0  0  0  0
 22 21  1  0  0  0  0
 23 22  2  0  0  0  0
 23 24  1  0  0  0  0
 24 25  2  0  0  0  0
 25 26  1  0  0  0  0
 26 17  2  0  0  0  0
 27 28  2  0  0  0  0
 28 29  1  0  0  0  0
 29 36  1  0  0  0  0
 30 31  1  0  0  0  0
 30 29  1  0  0  0  0
 32 31  2  0  0  0  0
 33 32  1  0  0  0  0
 34 33  2  0  0  0  0
 34 35  1  0  0  0  0
 35 27  1  0  0  0  0
 35 30  2  0  0  0  0
 37 38  1  0  0  0  0
 39 37  1  0  0  0  0
M  END
>  <minimizedAffinity>
-7.44064426

$$$$

 OpenBabel03272514463D

 39 45  0  0  0  0  0  0  0  0999 V2000
   28.9150   27.0050   47.6680 C   0  0  0  0  0  0  0  0  0  0  0  0
   28.6900   26.2460   46.4920 C   0  0  0  0  0  3  0  0  0  0  0  0
   29.5340   26.4670   45.4290 C   0  0  0  0  0  3  0  0  0  0  0  0
   30.4880   27.3840   45.6180 N   0  0  0  0  0  0  0  0  0  0  0  0
   30.7110   28.0910   46.6850 C   0  0  0  0  0  0  0  0  0  0  0  0
   29.8990   27.8930   47.7390 N   0  0  0  0  0  0  0  0  0  0  0  0
   31.7940   28.9870   46.6180 N   0  0  0  0  0  0  0  0  0  0  0  0
   32.8830   28.7490   47.3980 C   0  0  0  0  0  3  0  0  0  0  0  0
   33.8210   29.7260   47.1770 C   0  0  0  0  0  0  0  0  0  0  0  0
   33.2890   30.5420   46.2680 N   0  0  0  0  0  0  0  0  0  0  0  0
   32.0350   30.0940   45.9150 C   0  0  0  0  0  0  0  0  0  0  0  0
   31.1790   30.7500   44.9820 C   0  0  0  0  0  0  0  0  0  0  0  0
   29.7750   30.6350   45.0400 C   0  0  0  0  0  3  0  0  0  0  0  0
   29.2210   31.3460   44.0060 N   0  0  0  0  0  0  0  0  0  0  0  0
   30.2980   31.9020   43.3060 C   0  0  0  0  0  3  0  0  0  0  0  0
   31.3930   31.5140   43.9360 N   0  0  0  0  0  0  0  0  0  0  0  0
   32.4090   32.1610   43.2290 C   0  0  0  0  0  0  0  0  0  0  0  0
   32.6190   33.4010   43.6710 N   0  0  0  0  0  0  0  0  0  0  0  0
   33.5320   34.1940   43.0530 C   0  0  0  0  0  3  0  0  0  0  0  0
   34.2570   33.8100   42.0050 N   0  0  0  0  0  0  0  0  0  0  0  0
   34.0790   32.5640   41.5200 C   0  0  0  0  0  0  0  0  0  0  0  0
   34.7500   32.0380   40.4470 C   0  0  0  0  0  3  0  0  0  0  0  0
   34.5270   30.7760   40.0010 C   0  0  0  0  0  3  0  0  0  0  0  0
   33.5870   29.9800   40.6500 C   0  0  0  0  0  3  0  0  0  0  0  0
   32.8810   30.4450   41.7290 C   0  0  0  0  0  3  0  0  0  0  0  0
   33.1450   31.7230   42.1390 C   0  0  0  0  0  0  0  0  0  0  0  0
   35.1430   30.0150   47.6890 C   0  0  0  0  0  0  0  0  0  0  0  0
   36.1820   30.5250   46.9250 C   0  0  0  0  0  3  0  0  0  0  0  0
   37.2840   30.6830   47.6800 N   0  0  0  0  0  0  0  0  0  0  0  0
   37.0520   30.3020   48.9450 C   0  0  0  0  0  0  0  0  0  0  0  0
   37.7950   30.2500   50.1010 C   0  0  0  0  0  3  0  0  0  0  0  0
   37.2910   29.8040   51.2840 C   0  0  0  0  0  3  0  0  0  0  0  0
   35.9730   29.4000   51.2570 C   0  0  0  0  0  3  0  0  0  0  0  0
   35.2260   29.4460   50.1130 C   0  0  0  0  0  3  0  0  0  0  0  0
   35.7350   29.8980   48.9200 C   0  0  0  0  0  0  0  0  0  0  0  0
   38.1830   31.0480   47.3350 H   0  0  0  0  0  0  0  0  0  0  0  0
   28.0570   26.7870   48.8070 N   0  0  0  0  0  0  0  0  0  0  0  0
   28.2020   27.3270   49.6720 H   0  0  0  0  0  0  0  0  0  0  0  0
   27.2990   26.0920   48.7560 H   0  0  0  0  0  0  0  0  0  0  0  0
  1  6  1  0  0  0  0
  1 37  1  0  0  0  0
  2  1  2  0  0  0  0
  3  4  2  0  0  0  0
  3  2  1  0  0  0  0
  4  5  1  0  0  0  0
  5  6  2  0  0  0  0
  7  5  1  0  0  0  0
  7  8  1  0  0  0  0
  9  8  2  0  0  0  0
  9 27  1  0  0  0  0
 10  9  1  0  0  0  0
 11 10  2  0  0  0  0
 11  7  1  0  0  0  0
 12 13  2  0  0  0  0
 12 11  1  0  0  0  0
 14 13  1  0  0  0  0
 15 16  1  0  0  0  0
 15 14  2  0  0  0  0
 16 12  1  0  0  0  0
 17 18  1  0  0  0  0
 17 16  1  0  0  0  0
 19 18  2  0  0  0  0
 20 19  1  0  0  0  0
 21 20  2  0  0  0  0
 21 26  1  0  0  0  0
 22 21  1  0  0  0  0
 23 22  2  0  0  0  0
 23 24  1  0  0  0  0
 24 25  2  0  0  0  0
 25 26  1  0  0  0  0
 26 17  2  0  0  0  0
 27 35  1  0  0  0  0
 28 29  1  0  0  0  0
 28 27  2  0  0  0  0
 29 30  1  0  0  0  0
 30 31  1  0  0  0  0
 31 32  2  0  0  0  0
 33 32  1  0  0  0  0
 34 33  2  0  0  0  0
 35 30  2  0  0  0  0
 35 34  1  0  0  0  0
 36 29  1  0  0  0  0
 37 38  1  0  0  0  0
 39 37  1  0  0  0  0
M  END
>  <minimizedAffinity>
-7.42559576

$$$$

 OpenBabel03272514463D

 39 45  0  0  0  0  0  0  0  0999 V2000
   28.0360   26.9160   49.5670 C   0  0  0  0  0  0  0  0  0  0  0  0
   29.0770   27.1750   50.4930 C   0  0  0  0  0  3  0  0  0  0  0  0
   30.1320   27.9400   50.0570 C   0  0  0  0  0  3  0  0  0  0  0  0
   30.0660   28.3640   48.7910 N   0  0  0  0  0  0  0  0  0  0  0  0
   29.1240   28.1380   47.9260 C   0  0  0  0  0  0  0  0  0  0  0  0
   28.0800   27.3920   48.3280 N   0  0  0  0  0  0  0  0  0  0  0  0
   29.3030   28.7130   46.6530 N   0  0  0  0  0  0  0  0  0  0  0  0
   28.4580   29.7050   46.2660 C   0  0  0  0  0  3  0  0  0  0  0  0
   28.8060   30.1320   45.0080 C   0  0  0  0  0  0  0  0  0  0  0  0
   29.8550   29.3930   44.6520 N   0  0  0  0  0  0  0  0  0  0  0  0
   30.1700   28.5110   45.6620 C   0  0  0  0  0  0  0  0  0  0  0  0
   31.2280   27.5570   45.5960 C   0  0  0  0  0  0  0  0  0  0  0  0
   30.9940   26.1930   45.3270 C   0  0  0  0  0  3  0  0  0  0  0  0
   32.1870   25.5160   45.3540 N   0  0  0  0  0  0  0  0  0  0  0  0
   33.1630   26.4770   45.6430 C   0  0  0  0  0  3  0  0  0  0  0  0
   32.5280   27.6290   45.7650 N   0  0  0  0  0  0  0  0  0  0  0  0
   33.5650   28.5400   45.9790 C   0  0  0  0  0  0  0  0  0  0  0  0
   34.0970   28.9750   44.8360 N   0  0  0  0  0  0  0  0  0  0  0  0
   35.1590   29.8210   44.8640 C   0  0  0  0  0  3  0  0  0  0  0  0
   35.7260   30.2600   45.9840 N   0  0  0  0  0  0  0  0  0  0  0  0
   35.2250   29.8460   47.1660 C   0  0  0  0  0  0  0  0  0  0  0  0
   35.7100   30.2120   48.3940 C   0  0  0  0  0  3  0  0  0  0  0  0
   35.1660   29.7600   49.5530 C   0  0  0  0  0  3  0  0  0  0  0  0
   34.0770   28.8950   49.5020 C   0  0  0  0  0  3  0  0  0  0  0  0
   33.5430   28.4890   48.3060 C   0  0  0  0  0  3  0  0  0  0  0  0
   34.1280   28.9750   47.1680 C   0  0  0  0  0  0  0  0  0  0  0  0
   28.3040   31.1280   44.0870 C   0  0  0  0  0  0  0  0  0  0  0  0
   28.8460   31.3750   42.8340 C   0  0  0  0  0  3  0  0  0  0  0  0
   28.1650   32.3580   42.2160 N   0  0  0  0  0  0  0  0  0  0  0  0
   27.1670   32.8060   42.9930 C   0  0  0  0  0  0  0  0  0  0  0  0
   26.1910   33.7660   42.8700 C   0  0  0  0  0  3  0  0  0  0  0  0
   25.2770   34.0200   43.8460 C   0  0  0  0  0  3  0  0  0  0  0  0
   25.3890   33.2490   44.9840 C   0  0  0  0  0  3  0  0  0  0  0  0
   26.3570   32.2920   45.1160 C   0  0  0  0  0  3  0  0  0  0  0  0
   27.2770   32.0350   44.1300 C   0  0  0  0  0  0  0  0  0  0  0  0
   28.3800   32.7170   41.2750 H   0  0  0  0  0  0  0  0  0  0  0  0
   26.9060   26.1280   49.9960 N   0  0  0  0  0  0  0  0  0  0  0  0
   26.1390   25.9280   49.3400 H   0  0  0  0  0  0  0  0  0  0  0  0
   26.8670   25.7660   50.9600 H   0  0  0  0  0  0  0  0  0  0  0  0
  1 37  1  0  0  0  0
  1  2  1  0  0  0  0
  3  2  2  0  0  0  0
  4  3  1  0  0  0  0
  5  6  1  0  0  0  0
  5  4  2  0  0  0  0
  6  1  2  0  0  0  0
  7  5  1  0  0  0  0
  8  7  1  0  0  0  0
  9  8  2  0  0  0  0
 10  9  1  0  0  0  0
 10 11  2  0  0  0  0
 11  7  1  0  0  0  0
 12 11  1  0  0  0  0
 12 16  1  0  0  0  0
 13 14  1  0  0  0  0
 13 12  2  0  0  0  0
 14 15  2  0  0  0  0
 15 16  1  0  0  0  0
 16 17  1  0  0  0  0
 17 26  1  0  0  0  0
 18 19  1  0  0  0  0
 18 17  2  0  0  0  0
 19 20  2  0  0  0  0
 20 21  1  0  0  0  0
 21 26  2  0  0  0  0
 21 22  1  0  0  0  0
 22 23  2  0  0  0  0
 24 23  1  0  0  0  0
 25 24  2  0  0  0  0
 26 25  1  0  0  0  0
 27 35  1  0  0  0  0
 27  9  1  0  0  0  0
 28 27  2  0  0  0  0
 29 28  1  0  0  0  0
 29 30  1  0  0  0  0
 30 35  1  0  0  0  0
 31 30  2  0  0  0  0
 31 32  1  0  0  0  0
 32 33  2  0  0  0  0
 33 34  1  0  0  0  0
 35 34  2  0  0  0  0
 36 29  1  0  0  0  0
 37 39  1  0  0  0  0
 38 37  1  0  0  0  0
M  END
>  <minimizedAffinity>
-7.33853054

$$$$
