
 OpenBabel03272514453D

 31 35  0  0  0  0  0  0  0  0999 V2000
   32.7290   25.7400   47.5480 C   0  0  0  0  0  3  0  0  0  0  0  0
   33.8080   26.6290   47.5310 C   0  0  0  0  0  3  0  0  0  0  0  0
   33.4970   27.9860   47.6430 C   0  0  0  0  0  0  0  0  0  0  0  0
   32.2000   28.2980   47.7570 N   0  0  0  0  0  0  0  0  0  0  0  0
   31.1610   27.4430   47.7740 C   0  0  0  0  0  0  0  0  0  0  0  0
   31.4680   26.1470   47.6660 N   0  0  0  0  0  0  0  0  0  0  0  0
   34.5160   28.9900   47.6370 N   0  0  0  0  0  0  0  0  0  0  0  0
   35.0820   29.4240   48.7470 C   0  0  0  0  0  3  0  0  0  0  0  0
   35.9940   30.3670   48.3710 C   0  0  0  0  0  0  0  0  0  0  0  0
   35.9640   30.4850   47.0500 N   0  0  0  0  0  0  0  0  0  0  0  0
   35.0370   29.6230   46.5800 C   0  0  0  0  0  0  0  0  0  0  0  0
   34.7120   29.4490   45.2070 N   0  0  0  0  0  0  0  0  0  0  0  0
   33.6820   28.7930   44.4300 C   0  0  0  0  0  2  0  0  0  0  0  0
   33.2370   29.6630   43.2800 C   0  0  0  0  0  2  0  0  0  0  0  0
   33.4880   30.9870   43.6060 O   0  0  0  0  0  0  0  0  0  0  0  0
   34.8680   31.1670   43.4760 C   0  0  0  0  0  2  0  0  0  0  0  0
   35.6200   30.0830   44.2370 C   0  0  0  0  0  2  0  0  0  0  0  0
   29.8900   28.1250   47.9080 C   0  0  0  0  0  0  0  0  0  0  0  0
   29.4230   28.9670   46.9280 C   0  0  0  0  0  3  0  0  0  0  0  0
   28.2210   29.6470   46.9950 C   0  0  0  0  0  3  0  0  0  0  0  0
   27.4130   29.5020   48.0930 C   0  0  0  0  0  3  0  0  0  0  0  0
   27.8310   28.6700   49.1070 C   0  0  0  0  0  0  0  0  0  0  0  0
   27.0110   28.5330   50.2000 C   0  0  0  0  0  3  0  0  0  0  0  0
   27.3690   27.7200   51.2450 C   0  0  0  0  0  3  0  0  0  0  0  0
   28.5930   27.0510   51.1340 C   0  0  0  0  0  3  0  0  0  0  0  0
   29.3780   27.2210   50.0200 C   0  0  0  0  0  3  0  0  0  0  0  0
   29.0420   28.0170   48.9840 C   0  0  0  0  0  0  0  0  0  0  0  0
   36.9080   31.1700   49.2260 C   0  0  0  0  0  0  0  0  0  0  0  0
   37.7510   30.4010   49.9980 F   0  0  0  0  0  0  0  0  0  0  0  0
   36.1810   31.9820   50.0910 F   0  0  0  0  0  0  0  0  0  0  0  0
   37.6180   32.0900   48.4330 F   0  0  0  0  0  0  0  0  0  0  0  0
  1  6  1  0  0  0  0
  2  1  2  0  0  0  0
  2  3  1  0  0  0  0
  3  4  2  0  0  0  0
  4  5  1  0  0  0  0
  5 18  1  0  0  0  0
  6  5  2  0  0  0  0
  7  3  1  0  0  0  0
  7  8  1  0  0  0  0
  9  8  2  0  0  0  0
  9 28  1  0  0  0  0
 10  9  1  0  0  0  0
 11 10  2  0  0  0  0
 11  7  1  0  0  0  0
 12 11  1  0  0  0  0
 13 12  1  0  0  0  0
 14 15  1  0  0  0  0
 14 13  1  0  0  0  0
 16 15  1  0  0  0  0
 16 17  1  0  0  0  0
 17 12  1  0  0  0  0
 18 27  1  0  0  0  0
 19 20  1  0  0  0  0
 19 18  2  0  0  0  0
 20 21  2  0  0  0  0
 21 22  1  0  0  0  0
 22 23  1  0  0  0  0
 23 24  2  0  0  0  0
 25 24  1  0  0  0  0
 26 25  2  0  0  0  0
 27 22  2  0  0  0  0
 27 26  1  0  0  0  0
 28 29  1  0  0  0  0
 28 30  1  0  0  0  0
 31 28  1  0  0  0  0
M  END
>  <minimizedAffinity>
-7.92584896

$$$$

 OpenBabel03272514453D

 31 35  0  0  0  0  0  0  0  0999 V2000
   32.1090   25.3500   47.5530 C   0  0  0  0  0  3  0  0  0  0  0  0
   33.0950   26.3220   47.3570 C   0  0  0  0  0  3  0  0  0  0  0  0
   32.8140   27.6000   47.8450 C   0  0  0  0  0  0  0  0  0  0  0  0
   31.6320   27.7650   48.4520 N   0  0  0  0  0  0  0  0  0  0  0  0
   30.6830   26.8300   48.6420 C   0  0  0  0  0  0  0  0  0  0  0  0
   30.9600   25.6100   48.1710 N   0  0  0  0  0  0  0  0  0  0  0  0
   33.7450   28.6770   47.7030 N   0  0  0  0  0  0  0  0  0  0  0  0
   34.6540   28.9460   48.6210 C   0  0  0  0  0  3  0  0  0  0  0  0
   35.3560   30.0220   48.1630 C   0  0  0  0  0  0  0  0  0  0  0  0
   34.8630   30.3810   46.9830 N   0  0  0  0  0  0  0  0  0  0  0  0
   33.8490   29.5410   46.6870 C   0  0  0  0  0  0  0  0  0  0  0  0
   33.0690   29.5960   45.5000 N   0  0  0  0  0  0  0  0  0  0  0  0
   31.8470   29.0050   44.9990 C   0  0  0  0  0  2  0  0  0  0  0  0
   31.0100   30.0290   44.2730 C   0  0  0  0  0  2  0  0  0  0  0  0
   31.3310   31.2870   44.7610 O   0  0  0  0  0  0  0  0  0  0  0  0
   32.5740   31.6140   44.2130 C   0  0  0  0  0  2  0  0  0  0  0  0
   33.5680   30.4810   44.4330 C   0  0  0  0  0  2  0  0  0  0  0  0
   29.5250   27.3550   49.3360 C   0  0  0  0  0  0  0  0  0  0  0  0
   29.2030   26.9410   50.6060 C   0  0  0  0  0  3  0  0  0  0  0  0
   28.1130   27.4020   51.3210 C   0  0  0  0  0  3  0  0  0  0  0  0
   27.2710   28.3310   50.7640 C   0  0  0  0  0  3  0  0  0  0  0  0
   27.5460   28.7810   49.4930 C   0  0  0  0  0  0  0  0  0  0  0  0
   26.6960   29.7130   48.9480 C   0  0  0  0  0  3  0  0  0  0  0  0
   26.9130   30.2030   47.6850 C   0  0  0  0  0  3  0  0  0  0  0  0
   28.0280   29.7090   46.9990 C   0  0  0  0  0  3  0  0  0  0  0  0
   28.8490   28.7780   47.5880 C   0  0  0  0  0  3  0  0  0  0  0  0
   28.6490   28.2840   48.8280 C   0  0  0  0  0  0  0  0  0  0  0  0
   36.4940   30.7330   48.8040 C   0  0  0  0  0  0  0  0  0  0  0  0
   36.1130   31.5410   49.8520 F   0  0  0  0  0  0  0  0  0  0  0  0
   37.1510   31.5380   47.8790 F   0  0  0  0  0  0  0  0  0  0  0  0
   37.4790   29.8060   49.1890 F   0  0  0  0  0  0  0  0  0  0  0  0
  1  6  1  0  0  0  0
  2  1  2  0  0  0  0
  2  3  1  0  0  0  0
  3  4  2  0  0  0  0
  4  5  1  0  0  0  0
  5 18  1  0  0  0  0
  6  5  2  0  0  0  0
  7  3  1  0  0  0  0
  7  8  1  0  0  0  0
  9  8  2  0  0  0  0
  9 28  1  0  0  0  0
 10  9  1  0  0  0  0
 11 10  2  0  0  0  0
 11  7  1  0  0  0  0
 12 11  1  0  0  0  0
 13 12  1  0  0  0  0
 14 15  1  0  0  0  0
 14 13  1  0  0  0  0
 16 17  1  0  0  0  0
 16 15  1  0  0  0  0
 17 12  1  0  0  0  0
 18 19  1  0  0  0  0
 19 20  2  0  0  0  0
 21 20  1  0  0  0  0
 22 21  2  0  0  0  0
 23 22  1  0  0  0  0
 24 23  2  0  0  0  0
 25 26  2  0  0  0  0
 25 24  1  0  0  0  0
 26 27  1  0  0  0  0
 27 18  2  0  0  0  0
 27 22  1  0  0  0  0
 28 31  1  0  0  0  0
 28 29  1  0  0  0  0
 30 28  1  0  0  0  0
M  END
>  <minimizedAffinity>
-7.74078512

$$$$

 OpenBabel03272514453D

 31 35  0  0  0  0  0  0  0  0999 V2000
   32.2920   26.5410   45.7730 C   0  0  0  0  0  3  0  0  0  0  0  0
   31.0480   27.1730   45.6860 C   0  0  0  0  0  3  0  0  0  0  0  0
   30.8840   28.3330   46.4470 C   0  0  0  0  0  0  0  0  0  0  0  0
   31.9350   28.7230   47.1800 N   0  0  0  0  0  0  0  0  0  0  0  0
   33.1330   28.1160   47.2630 C   0  0  0  0  0  0  0  0  0  0  0  0
   33.2790   27.0070   46.5320 N   0  0  0  0  0  0  0  0  0  0  0  0
   29.6560   29.0650   46.4400 N   0  0  0  0  0  0  0  0  0  0  0  0
   29.4300   30.0510   45.5940 C   0  0  0  0  0  3  0  0  0  0  0  0
   28.1770   30.5170   45.8710 C   0  0  0  0  0  0  0  0  0  0  0  0
   27.6720   29.8070   46.8720 N   0  0  0  0  0  0  0  0  0  0  0  0
   28.5950   28.8920   47.2370 C   0  0  0  0  0  0  0  0  0  0  0  0
   28.4260   27.9380   48.2760 N   0  0  0  0  0  0  0  0  0  0  0  0
   29.2520   27.0050   49.0120 C   0  0  0  0  0  2  0  0  0  0  0  0
   28.9060   27.0190   50.4810 C   0  0  0  0  0  2  0  0  0  0  0  0
   28.3500   28.2520   50.7910 O   0  0  0  0  0  0  0  0  0  0  0  0
   27.0510   28.2360   50.2750 C   0  0  0  0  0  2  0  0  0  0  0  0
   27.0630   27.7970   48.8160 C   0  0  0  0  0  2  0  0  0  0  0  0
   34.0400   28.8110   48.1530 C   0  0  0  0  0  0  0  0  0  0  0  0
   33.8920   28.7440   49.5180 C   0  0  0  0  0  3  0  0  0  0  0  0
   34.7220   29.3830   50.4220 C   0  0  0  0  0  3  0  0  0  0  0  0
   35.7710   30.1430   49.9700 C   0  0  0  0  0  3  0  0  0  0  0  0
   35.9660   30.2440   48.6110 C   0  0  0  0  0  0  0  0  0  0  0  0
   37.0210   31.0070   48.1730 C   0  0  0  0  0  3  0  0  0  0  0  0
   37.2720   31.1490   46.8320 C   0  0  0  0  0  3  0  0  0  0  0  0
   36.4070   30.4850   45.9540 C   0  0  0  0  0  3  0  0  0  0  0  0
   35.3660   29.7330   46.4420 C   0  0  0  0  0  3  0  0  0  0  0  0
   35.1050   29.5840   47.7580 C   0  0  0  0  0  0  0  0  0  0  0  0
   27.4280   31.6200   45.2130 C   0  0  0  0  0  0  0  0  0  0  0  0
   26.8010   32.4620   46.1040 F   0  0  0  0  0  0  0  0  0  0  0  0
   26.4470   31.1080   44.3680 F   0  0  0  0  0  0  0  0  0  0  0  0
   28.2780   32.3210   44.3390 F   0  0  0  0  0  0  0  0  0  0  0  0
  1  6  1  0  0  0  0
  2  1  2  0  0  0  0
  2  3  1  0  0  0  0
  3  4  2  0  0  0  0
  4  5  1  0  0  0  0
  5 18  1  0  0  0  0
  6  5  2  0  0  0  0
  7  3  1  0  0  0  0
  7 11  1  0  0  0  0
  8  9  2  0  0  0  0
  8  7  1  0  0  0  0
  9 10  1  0  0  0  0
 10 11  2  0  0  0  0
 11 12  1  0  0  0  0
 12 17  1  0  0  0  0
 12 13  1  0  0  0  0
 13 14  1  0  0  0  0
 14 15  1  0  0  0  0
 16 15  1  0  0  0  0
 17 16  1  0  0  0  0
 18 19  1  0  0  0  0
 19 20  2  0  0  0  0
 21 20  1  0  0  0  0
 22 21  2  0  0  0  0
 23 22  1  0  0  0  0
 24 23  2  0  0  0  0
 25 26  2  0  0  0  0
 25 24  1  0  0  0  0
 26 27  1  0  0  0  0
 27 18  2  0  0  0  0
 27 22  1  0  0  0  0
 28  9  1  0  0  0  0
 28 29  1  0  0  0  0
 30 28  1  0  0  0  0
 31 28  1  0  0  0  0
M  END
>  <minimizedAffinity>
-7.73731422

$$$$

 OpenBabel03272514453D

 31 35  0  0  0  0  0  0  0  0999 V2000
   33.1320   29.7660   44.5640 C   0  0  0  0  0  3  0  0  0  0  0  0
   32.2050   28.9730   45.2460 C   0  0  0  0  0  3  0  0  0  0  0  0
   32.5410   28.6080   46.5520 C   0  0  0  0  0  0  0  0  0  0  0  0
   33.7140   29.0550   47.0180 N   0  0  0  0  0  0  0  0  0  0  0  0
   34.6060   29.8190   46.3620 C   0  0  0  0  0  0  0  0  0  0  0  0
   34.2760   30.1630   45.1130 N   0  0  0  0  0  0  0  0  0  0  0  0
   31.6720   27.7980   47.3500 N   0  0  0  0  0  0  0  0  0  0  0  0
   30.7560   28.3190   48.1420 C   0  0  0  0  0  3  0  0  0  0  0  0
   30.1230   27.2690   48.7420 C   0  0  0  0  0  0  0  0  0  0  0  0
   30.6650   26.1400   48.3030 N   0  0  0  0  0  0  0  0  0  0  0  0
   31.6400   26.4630   47.4280 C   0  0  0  0  0  0  0  0  0  0  0  0
   32.4520   25.5240   46.7350 N   0  0  0  0  0  0  0  0  0  0  0  0
   33.6540   25.5450   45.9290 C   0  0  0  0  0  2  0  0  0  0  0  0
   34.5630   24.3950   46.2840 C   0  0  0  0  0  2  0  0  0  0  0  0
   34.2970   24.0100   47.5900 O   0  0  0  0  0  0  0  0  0  0  0  0
   33.0880   23.3110   47.5530 C   0  0  0  0  0  2  0  0  0  0  0  0
   32.0300   24.1160   46.8090 C   0  0  0  0  0  2  0  0  0  0  0  0
   35.7720   30.1170   47.1680 C   0  0  0  0  0  0  0  0  0  0  0  0
   36.9040   30.6640   46.6130 C   0  0  0  0  0  3  0  0  0  0  0  0
   38.0490   30.9700   47.3260 C   0  0  0  0  0  3  0  0  0  0  0  0
   38.1020   30.7280   48.6750 C   0  0  0  0  0  3  0  0  0  0  0  0
   36.9950   30.1800   49.2830 C   0  0  0  0  0  0  0  0  0  0  0  0
   37.0610   29.9440   50.6350 C   0  0  0  0  0  3  0  0  0  0  0  0
   35.9930   29.4010   51.3030 C   0  0  0  0  0  3  0  0  0  0  0  0
   34.8560   29.1070   50.5420 C   0  0  0  0  0  3  0  0  0  0  0  0
   34.8390   29.3620   49.1920 C   0  0  0  0  0  3  0  0  0  0  0  0
   35.8810   29.8950   48.5200 C   0  0  0  0  0  0  0  0  0  0  0  0
   29.0090   27.2930   49.7260 C   0  0  0  0  0  0  0  0  0  0  0  0
   27.8410   26.7470   49.2420 F   0  0  0  0  0  0  0  0  0  0  0  0
   28.7250   28.6000   50.1110 F   0  0  0  0  0  0  0  0  0  0  0  0
   29.4160   26.6810   50.9250 F   0  0  0  0  0  0  0  0  0  0  0  0
  1  6  2  0  0  0  0
  1  2  1  0  0  0  0
  2  3  2  0  0  0  0
  3  4  1  0  0  0  0
  3  7  1  0  0  0  0
  5  4  2  0  0  0  0
  5 18  1  0  0  0  0
  6  5  1  0  0  0  0
  7 11  1  0  0  0  0
  7  8  1  0  0  0  0
  8  9  2  0  0  0  0
  9 28  1  0  0  0  0
 10  9  1  0  0  0  0
 11 10  2  0  0  0  0
 12 17  1  0  0  0  0
 12 11  1  0  0  0  0
 13 14  1  0  0  0  0
 13 12  1  0  0  0  0
 14 15  1  0  0  0  0
 16 15  1  0  0  0  0
 17 16  1  0  0  0  0
 18 27  1  0  0  0  0
 19 18  2  0  0  0  0
 19 20  1  0  0  0  0
 20 21  2  0  0  0  0
 21 22  1  0  0  0  0
 22 23  1  0  0  0  0
 23 24  2  0  0  0  0
 25 24  1  0  0  0  0
 26 25  2  0  0  0  0
 27 26  1  0  0  0  0
 27 22  2  0  0  0  0
 28 30  1  0  0  0  0
 28 31  1  0  0  0  0
 29 28  1  0  0  0  0
M  END
>  <minimizedAffinity>
-7.69239902

$$$$

 OpenBabel03272514453D

 31 35  0  0  0  0  0  0  0  0999 V2000
   31.8550   24.9300   47.0760 C   0  0  0  0  0  3  0  0  0  0  0  0
   32.9320   25.7970   47.2830 C   0  0  0  0  0  3  0  0  0  0  0  0
   32.6140   27.1240   47.5810 C   0  0  0  0  0  0  0  0  0  0  0  0
   31.3120   27.4310   47.6400 N   0  0  0  0  0  0  0  0  0  0  0  0
   30.2750   26.5970   47.4410 C   0  0  0  0  0  0  0  0  0  0  0  0
   30.5890   25.3300   47.1560 N   0  0  0  0  0  0  0  0  0  0  0  0
   33.6310   28.1040   47.8120 N   0  0  0  0  0  0  0  0  0  0  0  0
   34.1070   28.3520   49.0170 C   0  0  0  0  0  3  0  0  0  0  0  0
   35.0460   29.3300   48.8650 C   0  0  0  0  0  0  0  0  0  0  0  0
   35.1210   29.6530   47.5800 N   0  0  0  0  0  0  0  0  0  0  0  0
   34.2340   28.8860   46.9100 C   0  0  0  0  0  0  0  0  0  0  0  0
   34.0190   28.9320   45.5060 N   0  0  0  0  0  0  0  0  0  0  0  0
   33.0540   28.4190   44.5580 C   0  0  0  0  0  2  0  0  0  0  0  0
   32.7020   29.4630   43.5260 C   0  0  0  0  0  2  0  0  0  0  0  0
   32.9270   30.7170   44.0740 O   0  0  0  0  0  0  0  0  0  0  0  0
   34.3130   30.8970   44.0820 C   0  0  0  0  0  2  0  0  0  0  0  0
   35.0020   29.6980   44.7210 C   0  0  0  0  0  2  0  0  0  0  0  0
   28.9970   27.2660   47.5800 C   0  0  0  0  0  0  0  0  0  0  0  0
   28.3320   27.7700   46.4890 C   0  0  0  0  0  3  0  0  0  0  0  0
   27.1120   28.4180   46.5540 C   0  0  0  0  0  3  0  0  0  0  0  0
   26.4930   28.5930   47.7650 C   0  0  0  0  0  3  0  0  0  0  0  0
   27.1150   28.1080   48.8930 C   0  0  0  0  0  0  0  0  0  0  0  0
   26.4830   28.2880   50.0990 C   0  0  0  0  0  3  0  0  0  0  0  0
   27.0490   27.8280   51.2610 C   0  0  0  0  0  3  0  0  0  0  0  0
   28.2830   27.1770   51.1470 C   0  0  0  0  0  3  0  0  0  0  0  0
   28.8750   27.0220   49.9180 C   0  0  0  0  0  3  0  0  0  0  0  0
   28.3320   27.4680   48.7660 C   0  0  0  0  0  0  0  0  0  0  0  0
   35.8900   29.9790   49.9040 C   0  0  0  0  0  0  0  0  0  0  0  0
   35.8220   31.3540   49.8820 F   0  0  0  0  0  0  0  0  0  0  0  0
   37.2270   29.6280   49.7350 F   0  0  0  0  0  0  0  0  0  0  0  0
   35.5730   29.4580   51.1710 F   0  0  0  0  0  0  0  0  0  0  0  0
  1  6  2  0  0  0  0
  1  2  1  0  0  0  0
  2  3  2  0  0  0  0
  3  4  1  0  0  0  0
  3  7  1  0  0  0  0
  5 18  1  0  0  0  0
  5  4  2  0  0  0  0
  6  5  1  0  0  0  0
  7  8  1  0  0  0  0
  9  8  2  0  0  0  0
  9 28  1  0  0  0  0
 10  9  1  0  0  0  0
 11 10  2  0  0  0  0
 11  7  1  0  0  0  0
 12 11  1  0  0  0  0
 13 12  1  0  0  0  0
 14 15  1  0  0  0  0
 14 13  1  0  0  0  0
 15 16  1  0  0  0  0
 16 17  1  0  0  0  0
 17 12  1  0  0  0  0
 18 27  1  0  0  0  0
 19 20  1  0  0  0  0
 19 18  2  0  0  0  0
 20 21  2  0  0  0  0
 21 22  1  0  0  0  0
 22 23  1  0  0  0  0
 23 24  2  0  0  0  0
 25 24  1  0  0  0  0
 26 25  2  0  0  0  0
 27 22  2  0  0  0  0
 27 26  1  0  0  0  0
 28 31  1  0  0  0  0
 29 28  1  0  0  0  0
 30 28  1  0  0  0  0
M  END
>  <minimizedAffinity>
-7.52317381

$$$$

 OpenBabel03272514453D

 31 35  0  0  0  0  0  0  0  0999 V2000
   32.5080   30.1180   44.7890 C   0  0  0  0  0  3  0  0  0  0  0  0
   31.4170   29.2900   45.0700 C   0  0  0  0  0  3  0  0  0  0  0  0
   31.4290   28.6450   46.3080 C   0  0  0  0  0  0  0  0  0  0  0  0
   32.4820   28.8850   47.1010 N   0  0  0  0  0  0  0  0  0  0  0  0
   33.5320   29.6830   46.8310 C   0  0  0  0  0  0  0  0  0  0  0  0
   33.5110   30.2950   45.6440 N   0  0  0  0  0  0  0  0  0  0  0  0
   30.3690   27.7720   46.7080 N   0  0  0  0  0  0  0  0  0  0  0  0
   29.3170   28.2040   47.3770 C   0  0  0  0  0  3  0  0  0  0  0  0
   28.5210   27.1160   47.5890 C   0  0  0  0  0  0  0  0  0  0  0  0
   29.1020   26.0530   47.0460 N   0  0  0  0  0  0  0  0  0  0  0  0
   30.2650   26.4560   46.4900 C   0  0  0  0  0  0  0  0  0  0  0  0
   31.1750   25.6060   45.8050 N   0  0  0  0  0  0  0  0  0  0  0  0
   32.5290   25.6810   45.3010 C   0  0  0  0  0  2  0  0  0  0  0  0
   33.2850   24.4070   45.5900 C   0  0  0  0  0  2  0  0  0  0  0  0
   32.7110   23.7960   46.6950 O   0  0  0  0  0  0  0  0  0  0  0  0
   31.5140   23.2270   46.2500 C   0  0  0  0  0  2  0  0  0  0  0  0
   30.6890   24.2540   45.4840 C   0  0  0  0  0  2  0  0  0  0  0  0
   34.4930   29.7100   47.9140 C   0  0  0  0  0  0  0  0  0  0  0  0
   34.1530   29.3070   49.1830 C   0  0  0  0  0  3  0  0  0  0  0  0
   35.0220   29.3100   50.2590 C   0  0  0  0  0  3  0  0  0  0  0  0
   36.3150   29.7360   50.0930 C   0  0  0  0  0  3  0  0  0  0  0  0
   36.7100   30.1520   48.8420 C   0  0  0  0  0  0  0  0  0  0  0  0
   38.0080   30.5750   48.6910 C   0  0  0  0  0  3  0  0  0  0  0  0
   38.4670   31.0030   47.4710 C   0  0  0  0  0  3  0  0  0  0  0  0
   37.5530   30.9820   46.4100 C   0  0  0  0  0  3  0  0  0  0  0  0
   36.2650   30.5490   46.6130 C   0  0  0  0  0  3  0  0  0  0  0  0
   35.7980   30.1270   47.8060 C   0  0  0  0  0  0  0  0  0  0  0  0
   27.2130   27.0420   48.2910 C   0  0  0  0  0  0  0  0  0  0  0  0
   26.1880   27.6520   47.6020 F   0  0  0  0  0  0  0  0  0  0  0  0
   27.2930   27.6530   49.5390 F   0  0  0  0  0  0  0  0  0  0  0  0
   26.9110   25.7040   48.6000 F   0  0  0  0  0  0  0  0  0  0  0  0
  1  2  2  0  0  0  0
  1  6  1  0  0  0  0
  2  3  1  0  0  0  0
  3  7  1  0  0  0  0
  3  4  2  0  0  0  0
  5  4  1  0  0  0  0
  5 18  1  0  0  0  0
  6  5  2  0  0  0  0
  7  8  1  0  0  0  0
  8  9  2  0  0  0  0
  9 28  1  0  0  0  0
 10  9  1  0  0  0  0
 11  7  1  0  0  0  0
 11 10  2  0  0  0  0
 12 11  1  0  0  0  0
 13 14  1  0  0  0  0
 13 12  1  0  0  0  0
 14 15  1  0  0  0  0
 16 15  1  0  0  0  0
 17 12  1  0  0  0  0
 17 16  1  0  0  0  0
 18 19  1  0  0  0  0
 19 20  2  0  0  0  0
 21 20  1  0  0  0  0
 22 21  2  0  0  0  0
 23 22  1  0  0  0  0
 24 23  2  0  0  0  0
 25 26  2  0  0  0  0
 25 24  1  0  0  0  0
 26 27  1  0  0  0  0
 27 18  2  0  0  0  0
 27 22  1  0  0  0  0
 28 31  1  0  0  0  0
 28 30  1  0  0  0  0
 29 28  1  0  0  0  0
M  END
>  <minimizedAffinity>
-7.42551231

$$$$

 OpenBabel03272514453D

 31 35  0  0  0  0  0  0  0  0999 V2000
   30.3000   25.9080   45.6930 C   0  0  0  0  0  3  0  0  0  0  0  0
   31.4150   26.7470   45.7840 C   0  0  0  0  0  3  0  0  0  0  0  0
   31.2740   27.8830   46.5840 C   0  0  0  0  0  0  0  0  0  0  0  0
   30.0890   28.0530   47.1840 N   0  0  0  0  0  0  0  0  0  0  0  0
   29.0160   27.2450   47.0980 C   0  0  0  0  0  0  0  0  0  0  0  0
   29.1600   26.1610   46.3300 N   0  0  0  0  0  0  0  0  0  0  0  0
   32.3450   28.8160   46.7530 N   0  0  0  0  0  0  0  0  0  0  0  0
   33.2230   28.7080   47.7320 C   0  0  0  0  0  3  0  0  0  0  0  0
   34.0870   29.7550   47.5900 C   0  0  0  0  0  0  0  0  0  0  0  0
   33.7180   30.4710   46.5350 N   0  0  0  0  0  0  0  0  0  0  0  0
   32.6230   29.8880   46.0030 C   0  0  0  0  0  0  0  0  0  0  0  0
   31.9310   30.3580   44.8540 N   0  0  0  0  0  0  0  0  0  0  0  0
   30.6750   30.0950   44.1850 C   0  0  0  0  0  2  0  0  0  0  0  0
   30.0240   31.3800   43.7340 C   0  0  0  0  0  2  0  0  0  0  0  0
   30.4760   32.4110   44.5440 O   0  0  0  0  0  0  0  0  0  0  0  0
   31.7820   32.6880   44.1320 C   0  0  0  0  0  2  0  0  0  0  0  0
   32.6040   31.4060   44.0700 C   0  0  0  0  0  2  0  0  0  0  0  0
   27.8970   27.7330   47.8770 C   0  0  0  0  0  0  0  0  0  0  0  0
   26.8570   28.4120   47.2870 C   0  0  0  0  0  3  0  0  0  0  0  0
   25.7610   28.9030   47.9730 C   0  0  0  0  0  3  0  0  0  0  0  0
   25.6670   28.7260   49.3290 C   0  0  0  0  0  3  0  0  0  0  0  0
   26.6800   28.0530   49.9720 C   0  0  0  0  0  0  0  0  0  0  0  0
   26.5720   27.8810   51.3310 C   0  0  0  0  0  3  0  0  0  0  0  0
   27.5470   27.2190   52.0330 C   0  0  0  0  0  3  0  0  0  0  0  0
   28.6360   26.7380   51.2980 C   0  0  0  0  0  3  0  0  0  0  0  0
   28.6990   26.9350   49.9400 C   0  0  0  0  0  3  0  0  0  0  0  0
   27.7500   27.5840   49.2350 C   0  0  0  0  0  0  0  0  0  0  0  0
   35.2670   30.1070   48.4240 C   0  0  0  0  0  0  0  0  0  0  0  0
   36.1930   30.8820   47.7600 F   0  0  0  0  0  0  0  0  0  0  0  0
   35.9230   28.9570   48.8530 F   0  0  0  0  0  0  0  0  0  0  0  0
   34.8440   30.7080   49.6220 F   0  0  0  0  0  0  0  0  0  0  0  0
  1  2  2  0  0  0  0
  1  6  1  0  0  0  0
  2  3  1  0  0  0  0
  3  7  1  0  0  0  0
  3  4  2  0  0  0  0
  5  4  1  0  0  0  0
  5 18  1  0  0  0  0
  6  5  2  0  0  0  0
  7  8  1  0  0  0  0
  9  8  2  0  0  0  0
  9 28  1  0  0  0  0
 10  9  1  0  0  0  0
 11 10  2  0  0  0  0
 11  7  1  0  0  0  0
 12 11  1  0  0  0  0
 13 12  1  0  0  0  0
 14 13  1  0  0  0  0
 14 15  1  0  0  0  0
 16 15  1  0  0  0  0
 17 16  1  0  0  0  0
 17 12  1  0  0  0  0
 18 27  1  0  0  0  0
 19 18  2  0  0  0  0
 19 20  1  0  0  0  0
 20 21  2  0  0  0  0
 21 22  1  0  0  0  0
 22 23  1  0  0  0  0
 23 24  2  0  0  0  0
 25 24  1  0  0  0  0
 26 25  2  0  0  0  0
 27 26  1  0  0  0  0
 27 22  2  0  0  0  0
 28 30  1  0  0  0  0
 28 31  1  0  0  0  0
 29 28  1  0  0  0  0
M  END
>  <minimizedAffinity>
-7.38318729

$$$$

 OpenBabel03272514453D

 31 35  0  0  0  0  0  0  0  0999 V2000
   34.9890   29.9870   43.6730 C   0  0  0  0  0  3  0  0  0  0  0  0
   33.7090   29.5210   43.9880 C   0  0  0  0  0  3  0  0  0  0  0  0
   33.4090   29.3970   45.3470 C   0  0  0  0  0  0  0  0  0  0  0  0
   34.3760   29.7370   46.2090 N   0  0  0  0  0  0  0  0  0  0  0  0
   35.6080   30.1860   45.9070 C   0  0  0  0  0  0  0  0  0  0  0  0
   35.8850   30.3010   44.6040 N   0  0  0  0  0  0  0  0  0  0  0  0
   32.1320   28.9300   45.7920 N   0  0  0  0  0  0  0  0  0  0  0  0
   31.1310   29.7530   46.0410 C   0  0  0  0  0  3  0  0  0  0  0  0
   30.0840   28.9740   46.4410 C   0  0  0  0  0  0  0  0  0  0  0  0
   30.4690   27.7030   46.4250 N   0  0  0  0  0  0  0  0  0  0  0  0
   31.7560   27.6670   46.0180 C   0  0  0  0  0  0  0  0  0  0  0  0
   32.5260   26.4820   45.8670 N   0  0  0  0  0  0  0  0  0  0  0  0
   33.9140   26.1320   45.6580 C   0  0  0  0  0  2  0  0  0  0  0  0
   34.3090   24.9540   46.5130 C   0  0  0  0  0  2  0  0  0  0  0  0
   33.4700   24.9080   47.6170 O   0  0  0  0  0  0  0  0  0  0  0  0
   32.2430   24.4240   47.1550 C   0  0  0  0  0  2  0  0  0  0  0  0
   31.7850   25.2100   45.9330 C   0  0  0  0  0  2  0  0  0  0  0  0
   36.3990   30.4570   47.0890 C   0  0  0  0  0  0  0  0  0  0  0  0
   37.5450   31.2130   47.0240 C   0  0  0  0  0  3  0  0  0  0  0  0
   38.3450   31.5070   48.1140 C   0  0  0  0  0  3  0  0  0  0  0  0
   38.0100   31.0320   49.3570 C   0  0  0  0  0  3  0  0  0  0  0  0
   36.8720   30.2690   49.4800 C   0  0  0  0  0  0  0  0  0  0  0  0
   36.5480   29.8020   50.7300 C   0  0  0  0  0  3  0  0  0  0  0  0
   35.4260   29.0360   50.9220 C   0  0  0  0  0  3  0  0  0  0  0  0
   34.6470   28.7640   49.7920 C   0  0  0  0  0  3  0  0  0  0  0  0
   35.0130   29.2550   48.5620 C   0  0  0  0  0  3  0  0  0  0  0  0
   36.1130   30.0090   48.3560 C   0  0  0  0  0  0  0  0  0  0  0  0
   28.7140   29.3910   46.8400 C   0  0  0  0  0  0  0  0  0  0  0  0
   28.5870   29.6300   48.1910 F   0  0  0  0  0  0  0  0  0  0  0  0
   27.7880   28.4070   46.5060 F   0  0  0  0  0  0  0  0  0  0  0  0
   28.3080   30.4960   46.0720 F   0  0  0  0  0  0  0  0  0  0  0  0
  1  2  2  0  0  0  0
  1  6  1  0  0  0  0
  2  3  1  0  0  0  0
  3  7  1  0  0  0  0
  3  4  2  0  0  0  0
  5  4  1  0  0  0  0
  5 18  1  0  0  0  0
  6  5  2  0  0  0  0
  7 11  1  0  0  0  0
  7  8  1  0  0  0  0
  8  9  2  0  0  0  0
  9 28  1  0  0  0  0
 10  9  1  0  0  0  0
 11 10  2  0  0  0  0
 12 17  1  0  0  0  0
 12 11  1  0  0  0  0
 13 12  1  0  0  0  0
 13 14  1  0  0  0  0
 14 15  1  0  0  0  0
 16 15  1  0  0  0  0
 17 16  1  0  0  0  0
 18 27  1  0  0  0  0
 19 18  2  0  0  0  0
 19 20  1  0  0  0  0
 20 21  2  0  0  0  0
 21 22  1  0  0  0  0
 22 23  1  0  0  0  0
 23 24  2  0  0  0  0
 25 24  1  0  0  0  0
 26 25  2  0  0  0  0
 27 26  1  0  0  0  0
 27 22  2  0  0  0  0
 28 29  1  0  0  0  0
 30 28  1  0  0  0  0
 31 28  1  0  0  0  0
M  END
>  <minimizedAffinity>
-7.3292408

$$$$

 OpenBabel03272514453D

 31 35  0  0  0  0  0  0  0  0999 V2000
   35.0210   29.9440   44.2430 C   0  0  0  0  0  3  0  0  0  0  0  0
   33.6370   29.8230   44.0950 C   0  0  0  0  0  3  0  0  0  0  0  0
   32.8980   29.6550   45.2690 C   0  0  0  0  0  0  0  0  0  0  0  0
   33.5900   29.6290   46.4160 N   0  0  0  0  0  0  0  0  0  0  0  0
   34.9230   29.7480   46.5590 C   0  0  0  0  0  0  0  0  0  0  0  0
   35.6200   29.9070   45.4300 N   0  0  0  0  0  0  0  0  0  0  0  0
   31.4740   29.5180   45.2450 N   0  0  0  0  0  0  0  0  0  0  0  0
   30.6670   30.5570   45.3420 C   0  0  0  0  0  3  0  0  0  0  0  0
   29.3960   30.0630   45.2860 C   0  0  0  0  0  0  0  0  0  0  0  0
   29.4580   28.7440   45.1540 N   0  0  0  0  0  0  0  0  0  0  0  0
   30.7610   28.3930   45.1280 C   0  0  0  0  0  0  0  0  0  0  0  0
   31.2410   27.0610   44.9940 N   0  0  0  0  0  0  0  0  0  0  0  0
   32.5010   26.3640   45.1280 C   0  0  0  0  0  2  0  0  0  0  0  0
   32.3170   25.0450   45.8370 C   0  0  0  0  0  2  0  0  0  0  0  0
   31.1830   25.1260   46.6310 O   0  0  0  0  0  0  0  0  0  0  0  0
   30.0900   25.0470   45.7630 C   0  0  0  0  0  2  0  0  0  0  0  0
   30.2440   26.0440   44.6210 C   0  0  0  0  0  2  0  0  0  0  0  0
   35.3350   29.6740   47.9450 C   0  0  0  0  0  0  0  0  0  0  0  0
   34.6900   28.8550   48.8400 C   0  0  0  0  0  3  0  0  0  0  0  0
   35.0340   28.7390   50.1750 C   0  0  0  0  0  3  0  0  0  0  0  0
   36.0780   29.4710   50.6800 C   0  0  0  0  0  3  0  0  0  0  0  0
   36.7600   30.3090   49.8270 C   0  0  0  0  0  0  0  0  0  0  0  0
   37.8040   31.0350   50.3450 C   0  0  0  0  0  3  0  0  0  0  0  0
   38.5260   31.8880   49.5490 C   0  0  0  0  0  3  0  0  0  0  0  0
   38.1440   31.9730   48.2050 C   0  0  0  0  0  3  0  0  0  0  0  0
   37.0920   31.2250   47.7350 C   0  0  0  0  0  3  0  0  0  0  0  0
   36.3710   30.3830   48.5040 C   0  0  0  0  0  0  0  0  0  0  0  0
   28.1070   30.8020   45.3480 C   0  0  0  0  0  0  0  0  0  0  0  0
   27.4160   30.5960   46.5220 F   0  0  0  0  0  0  0  0  0  0  0  0
   27.2720   30.4160   44.3040 F   0  0  0  0  0  0  0  0  0  0  0  0
   28.3270   32.1690   45.1030 F   0  0  0  0  0  0  0  0  0  0  0  0
  1  6  1  0  0  0  0
  2  1  2  0  0  0  0
  2  3  1  0  0  0  0
  3  4  2  0  0  0  0
  4  5  1  0  0  0  0
  5 18  1  0  0  0  0
  6  5  2  0  0  0  0
  7  3  1  0  0  0  0
  7  8  1  0  0  0  0
  9  8  2  0  0  0  0
  9 28  1  0  0  0  0
 10  9  1  0  0  0  0
 11 10  2  0  0  0  0
 11  7  1  0  0  0  0
 12 11  1  0  0  0  0
 12 13  1  0  0  0  0
 13 14  1  0  0  0  0
 14 15  1  0  0  0  0
 16 15  1  0  0  0  0
 17 12  1  0  0  0  0
 17 16  1  0  0  0  0
 18 27  2  0  0  0  0
 18 19  1  0  0  0  0
 19 20  2  0  0  0  0
 20 21  1  0  0  0  0
 22 23  1  0  0  0  0
 22 21  2  0  0  0  0
 24 23  2  0  0  0  0
 25 24  1  0  0  0  0
 26 25  2  0  0  0  0
 26 27  1  0  0  0  0
 27 22  1  0  0  0  0
 28 29  1  0  0  0  0
 30 28  1  0  0  0  0
 31 28  1  0  0  0  0
M  END
>  <minimizedAffinity>
-7.0953269

$$$$
