
 OpenBabel03272514543D

 28 32  0  0  0  0  0  0  0  0999 V2000
   30.1670   33.2070   43.4310 C   0  0  0  0  0  3  0  0  0  0  0  0
   31.3550   33.6820   42.8760 C   0  0  0  0  0  3  0  0  0  0  0  0
   32.5430   32.9760   43.1770 C   0  0  0  0  0  3  0  0  0  0  0  0
   32.4240   31.8800   43.9930 N   0  0  0  0  0  0  0  0  0  0  0  0
   31.2620   31.4640   44.5000 C   0  0  0  0  0  0  0  0  0  0  0  0
   30.1230   32.1310   44.2200 N   0  0  0  0  0  0  0  0  0  0  0  0
   31.3090   30.3100   45.3280 N   0  0  0  0  0  0  0  0  0  0  0  0
   30.2630   29.4240   45.4370 C   0  0  0  0  0  3  0  0  0  0  0  0
   30.5990   28.4270   46.2930 N   0  0  0  0  0  0  0  0  0  0  0  0
   31.8610   28.6590   46.7460 C   0  0  0  0  0  0  0  0  0  0  0  0
   32.7350   28.0240   47.6180 C   0  0  0  0  0  0  0  0  0  0  0  0
   33.9540   28.5470   47.8500 N   0  0  0  0  0  0  0  0  0  0  0  0
   34.3260   29.6850   47.2370 C   0  0  0  0  0  0  0  0  0  0  0  0
   33.4770   30.2940   46.3980 N   0  0  0  0  0  0  0  0  0  0  0  0
   32.2600   29.8230   46.1310 C   0  0  0  0  0  0  0  0  0  0  0  0
   32.1910   26.8270   48.1830 N   0  0  0  0  0  0  0  0  0  0  0  0
   31.2390   26.5230   47.9280 H   0  0  0  0  0  0  0  0  0  0  0  0
   32.7500   26.2680   48.8430 H   0  0  0  0  0  0  0  0  0  0  0  0
   35.6690   30.0890   47.6160 C   0  0  0  0  0  0  0  0  0  0  0  0
   36.5610   30.5760   46.6900 C   0  0  0  0  0  3  0  0  0  0  0  0
   37.8440   30.9780   46.9620 C   0  0  0  0  0  3  0  0  0  0  0  0
   38.3240   30.9090   48.2470 C   0  0  0  0  0  3  0  0  0  0  0  0
   37.4880   30.4300   49.2320 C   0  0  0  0  0  0  0  0  0  0  0  0
   37.9590   30.3590   50.5170 C   0  0  0  0  0  3  0  0  0  0  0  0
   37.1710   29.8900   51.5480 C   0  0  0  0  0  3  0  0  0  0  0  0
   35.8740   29.4940   51.2110 C   0  0  0  0  0  3  0  0  0  0  0  0
   35.4460   29.5850   49.9080 C   0  0  0  0  0  3  0  0  0  0  0  0
   36.2180   30.0510   48.8740 C   0  0  0  0  0  0  0  0  0  0  0  0
  1  6  1  0  0  0  0
  2  3  1  0  0  0  0
  2  1  2  0  0  0  0
  3  4  2  0  0  0  0
  4  5  1  0  0  0  0
  5  7  1  0  0  0  0
  6  5  2  0  0  0  0
  7  8  1  0  0  0  0
  7 15  1  0  0  0  0
  8  9  2  0  0  0  0
  9 10  1  0  0  0  0
 10 11  1  0  0  0  0
 11 12  2  0  0  0  0
 11 16  1  0  0  0  0
 13 19  1  0  0  0  0
 13 12  1  0  0  0  0
 14 13  2  0  0  0  0
 15 14  1  0  0  0  0
 15 10  2  0  0  0  0
 16 18  1  0  0  0  0
 17 16  1  0  0  0  0
 19 28  1  0  0  0  0
 20 21  1  0  0  0  0
 20 19  2  0  0  0  0
 21 22  2  0  0  0  0
 22 23  1  0  0  0  0
 23 24  1  0  0  0  0
 24 25  2  0  0  0  0
 26 25  1  0  0  0  0
 27 26  2  0  0  0  0
 28 23  2  0  0  0  0
 28 27  1  0  0  0  0
M  END
>  <minimizedAffinity>
-7.61691666

$$$$

 OpenBabel03272514543D

 28 32  0  0  0  0  0  0  0  0999 V2000
   35.2670   26.8720   41.9320 C   0  0  0  0  0  3  0  0  0  0  0  0
   34.3280   26.5400   42.9080 C   0  0  0  0  0  3  0  0  0  0  0  0
   34.2170   27.4000   44.0250 C   0  0  0  0  0  3  0  0  0  0  0  0
   35.0470   28.4920   44.0530 N   0  0  0  0  0  0  0  0  0  0  0  0
   35.9310   28.7670   43.0930 C   0  0  0  0  0  0  0  0  0  0  0  0
   36.0460   27.9530   42.0230 N   0  0  0  0  0  0  0  0  0  0  0  0
   36.7160   29.9380   43.2720 N   0  0  0  0  0  0  0  0  0  0  0  0
   37.1970   30.6850   42.2220 C   0  0  0  0  0  3  0  0  0  0  0  0
   37.9070   31.7380   42.6990 N   0  0  0  0  0  0  0  0  0  0  0  0
   37.8930   31.6810   44.0590 C   0  0  0  0  0  0  0  0  0  0  0  0
   38.4250   32.4450   45.0890 C   0  0  0  0  0  0  0  0  0  0  0  0
   38.2130   32.0880   46.3700 N   0  0  0  0  0  0  0  0  0  0  0  0
   37.4860   30.9930   46.6530 C   0  0  0  0  0  0  0  0  0  0  0  0
   36.9770   30.2600   45.6540 N   0  0  0  0  0  0  0  0  0  0  0  0
   37.1540   30.5630   44.3690 C   0  0  0  0  0  0  0  0  0  0  0  0
   39.1670   33.5760   44.6220 N   0  0  0  0  0  0  0  0  0  0  0  0
   39.2620   33.7480   43.6100 H   0  0  0  0  0  0  0  0  0  0  0  0
   39.6070   34.2180   45.2970 H   0  0  0  0  0  0  0  0  0  0  0  0
   37.3720   30.7740   48.0840 C   0  0  0  0  0  0  0  0  0  0  0  0
   38.3420   31.2100   48.9570 C   0  0  0  0  0  3  0  0  0  0  0  0
   38.3130   31.0460   50.3180 C   0  0  0  0  0  3  0  0  0  0  0  0
   37.2530   30.4010   50.9070 C   0  0  0  0  0  3  0  0  0  0  0  0
   36.2410   29.9340   50.0970 C   0  0  0  0  0  0  0  0  0  0  0  0
   35.1790   29.2900   50.6770 C   0  0  0  0  0  3  0  0  0  0  0  0
   34.1340   28.8010   49.9210 C   0  0  0  0  0  3  0  0  0  0  0  0
   34.2170   28.9970   48.5390 C   0  0  0  0  0  3  0  0  0  0  0  0
   35.3020   29.6490   48.0040 C   0  0  0  0  0  3  0  0  0  0  0  0
   36.3480   30.1420   48.7440 C   0  0  0  0  0  0  0  0  0  0  0  0
  1  6  2  0  0  0  0
  1  2  1  0  0  0  0
  2  3  2  0  0  0  0
  3  4  1  0  0  0  0
  5  7  1  0  0  0  0
  5  4  2  0  0  0  0
  6  5  1  0  0  0  0
  7 15  1  0  0  0  0
  8  9  2  0  0  0  0
  8  7  1  0  0  0  0
  9 10  1  0  0  0  0
 10 15  2  0  0  0  0
 10 11  1  0  0  0  0
 11 12  2  0  0  0  0
 12 13  1  0  0  0  0
 13 19  1  0  0  0  0
 14 13  2  0  0  0  0
 15 14  1  0  0  0  0
 16 11  1  0  0  0  0
 16 18  1  0  0  0  0
 17 16  1  0  0  0  0
 19 28  2  0  0  0  0
 19 20  1  0  0  0  0
 20 21  2  0  0  0  0
 21 22  1  0  0  0  0
 23 24  1  0  0  0  0
 23 22  2  0  0  0  0
 25 24  2  0  0  0  0
 26 25  1  0  0  0  0
 27 26  2  0  0  0  0
 27 28  1  0  0  0  0
 28 23  1  0  0  0  0
M  END
>  <minimizedAffinity>
-7.53965473

$$$$

 OpenBabel03272514543D

 28 32  0  0  0  0  0  0  0  0999 V2000
   35.7870   30.5030   48.3240 C   0  0  0  0  0  3  0  0  0  0  0  0
   35.5810   30.5350   49.7030 C   0  0  0  0  0  3  0  0  0  0  0  0
   34.5910   29.6740   50.2330 C   0  0  0  0  0  3  0  0  0  0  0  0
   33.9160   28.8800   49.3420 N   0  0  0  0  0  0  0  0  0  0  0  0
   34.1510   28.8860   48.0290 C   0  0  0  0  0  0  0  0  0  0  0  0
   35.0920   29.7020   47.5120 N   0  0  0  0  0  0  0  0  0  0  0  0
   33.3650   28.0010   47.2410 N   0  0  0  0  0  0  0  0  0  0  0  0
   33.8180   27.4380   46.0720 C   0  0  0  0  0  3  0  0  0  0  0  0
   32.8540   26.6420   45.5460 N   0  0  0  0  0  0  0  0  0  0  0  0
   31.7700   26.6850   46.3680 C   0  0  0  0  0  0  0  0  0  0  0  0
   30.5060   26.1090   46.3750 C   0  0  0  0  0  0  0  0  0  0  0  0
   29.6490   26.3790   47.3770 N   0  0  0  0  0  0  0  0  0  0  0  0
   30.0150   27.2060   48.3720 C   0  0  0  0  0  0  0  0  0  0  0  0
   31.2350   27.7600   48.3580 N   0  0  0  0  0  0  0  0  0  0  0  0
   32.1240   27.5300   47.3940 C   0  0  0  0  0  0  0  0  0  0  0  0
   30.2750   25.2530   45.2510 N   0  0  0  0  0  0  0  0  0  0  0  0
   31.0120   25.1230   44.5420 H   0  0  0  0  0  0  0  0  0  0  0  0
   29.3720   24.7680   45.1500 H   0  0  0  0  0  0  0  0  0  0  0  0
   28.9570   27.3730   49.3540 C   0  0  0  0  0  0  0  0  0  0  0  0
   29.0950   26.9170   50.6440 C   0  0  0  0  0  3  0  0  0  0  0  0
   28.1480   27.0330   51.6290 C   0  0  0  0  0  3  0  0  0  0  0  0
   26.9490   27.6450   51.3570 C   0  0  0  0  0  3  0  0  0  0  0  0
   26.7360   28.1280   50.0850 C   0  0  0  0  0  0  0  0  0  0  0  0
   25.5420   28.7410   49.8060 C   0  0  0  0  0  3  0  0  0  0  0  0
   25.2690   29.2470   48.5520 C   0  0  0  0  0  3  0  0  0  0  0  0
   26.2700   29.1000   47.5880 C   0  0  0  0  0  3  0  0  0  0  0  0
   27.4510   28.4780   47.9150 C   0  0  0  0  0  3  0  0  0  0  0  0
   27.7370   27.9720   49.1590 C   0  0  0  0  0  0  0  0  0  0  0  0
  1  2  1  0  0  0  0
  2  3  2  0  0  0  0
  4  3  1  0  0  0  0
  5  4  2  0  0  0  0
  6  5  1  0  0  0  0
  6  1  2  0  0  0  0
  7 15  1  0  0  0  0
  7  5  1  0  0  0  0
  8  7  1  0  0  0  0
  9  8  2  0  0  0  0
  9 10  1  0  0  0  0
 10 11  2  0  0  0  0
 10 15  1  0  0  0  0
 11 12  1  0  0  0  0
 12 13  2  0  0  0  0
 13 19  1  0  0  0  0
 14 13  1  0  0  0  0
 15 14  2  0  0  0  0
 16 11  1  0  0  0  0
 17 16  1  0  0  0  0
 18 16  1  0  0  0  0
 19 20  1  0  0  0  0
 20 21  2  0  0  0  0
 22 21  1  0  0  0  0
 23 22  2  0  0  0  0
 24 23  1  0  0  0  0
 25 24  2  0  0  0  0
 26 27  2  0  0  0  0
 26 25  1  0  0  0  0
 27 28  1  0  0  0  0
 28 19  2  0  0  0  0
 28 23  1  0  0  0  0
M  END
>  <minimizedAffinity>
-7.4298768

$$$$

 OpenBabel03272514543D

 28 32  0  0  0  0  0  0  0  0999 V2000
   31.0910   28.8930   44.3070 C   0  0  0  0  0  3  0  0  0  0  0  0
   30.7380   29.8900   45.2160 C   0  0  0  0  0  3  0  0  0  0  0  0
   31.7540   30.7790   45.6350 C   0  0  0  0  0  3  0  0  0  0  0  0
   33.0060   30.5840   45.1100 N   0  0  0  0  0  0  0  0  0  0  0  0
   33.2940   29.6140   44.2410 C   0  0  0  0  0  0  0  0  0  0  0  0
   32.3330   28.7600   43.8340 N   0  0  0  0  0  0  0  0  0  0  0  0
   34.6410   29.5480   43.7910 N   0  0  0  0  0  0  0  0  0  0  0  0
   34.9920   29.0760   42.5470 C   0  0  0  0  0  3  0  0  0  0  0  0
   36.3390   29.1340   42.4020 N   0  0  0  0  0  0  0  0  0  0  0  0
   36.8710   29.6410   43.5480 C   0  0  0  0  0  0  0  0  0  0  0  0
   38.1500   29.9310   44.0050 C   0  0  0  0  0  0  0  0  0  0  0  0
   38.3250   30.4400   45.2390 N   0  0  0  0  0  0  0  0  0  0  0  0
   37.2610   30.6680   46.0300 C   0  0  0  0  0  0  0  0  0  0  0  0
   36.0310   30.3840   45.5830 N   0  0  0  0  0  0  0  0  0  0  0  0
   35.7970   29.8800   44.3730 C   0  0  0  0  0  0  0  0  0  0  0  0
   39.1680   29.6350   43.0430 N   0  0  0  0  0  0  0  0  0  0  0  0
   38.9120   29.2450   42.1240 H   0  0  0  0  0  0  0  0  0  0  0  0
   40.1580   29.8120   43.2700 H   0  0  0  0  0  0  0  0  0  0  0  0
   37.6530   31.2140   47.3180 C   0  0  0  0  0  0  0  0  0  0  0  0
   38.4290   32.3450   47.4120 C   0  0  0  0  0  3  0  0  0  0  0  0
   38.8430   32.9250   48.5840 C   0  0  0  0  0  3  0  0  0  0  0  0
   38.4800   32.3710   49.7870 C   0  0  0  0  0  3  0  0  0  0  0  0
   37.7030   31.2340   49.7740 C   0  0  0  0  0  0  0  0  0  0  0  0
   37.3350   30.6750   50.9710 C   0  0  0  0  0  3  0  0  0  0  0  0
   36.5560   29.5380   51.0250 C   0  0  0  0  0  3  0  0  0  0  0  0
   36.1640   28.9900   49.8000 C   0  0  0  0  0  3  0  0  0  0  0  0
   36.5570   29.5880   48.6260 C   0  0  0  0  0  3  0  0  0  0  0  0
   37.3300   30.7200   48.5570 C   0  0  0  0  0  0  0  0  0  0  0  0
  1  2  1  0  0  0  0
  2  3  2  0  0  0  0
  4  3  1  0  0  0  0
  5  4  2  0  0  0  0
  6  5  1  0  0  0  0
  6  1  2  0  0  0  0
  7  5  1  0  0  0  0
  7 15  1  0  0  0  0
  8  7  1  0  0  0  0
  9  8  2  0  0  0  0
  9 10  1  0  0  0  0
 10 11  2  0  0  0  0
 10 15  1  0  0  0  0
 11 12  1  0  0  0  0
 12 13  2  0  0  0  0
 13 19  1  0  0  0  0
 14 13  1  0  0  0  0
 15 14  2  0  0  0  0
 16 18  1  0  0  0  0
 16 11  1  0  0  0  0
 17 16  1  0  0  0  0
 19 20  2  0  0  0  0
 19 28  1  0  0  0  0
 20 21  1  0  0  0  0
 21 22  2  0  0  0  0
 23 22  1  0  0  0  0
 23 24  1  0  0  0  0
 24 25  2  0  0  0  0
 26 25  1  0  0  0  0
 27 26  2  0  0  0  0
 28 27  1  0  0  0  0
 28 23  2  0  0  0  0
M  END
>  <minimizedAffinity>
-7.31429815

$$$$

 OpenBabel03272514543D

 28 32  0  0  0  0  0  0  0  0999 V2000
   31.1790   26.0860   46.8240 C   0  0  0  0  0  3  0  0  0  0  0  0
   31.0380   26.6640   48.0860 C   0  0  0  0  0  3  0  0  0  0  0  0
   31.7270   27.8750   48.3290 C   0  0  0  0  0  3  0  0  0  0  0  0
   32.4800   28.3790   47.2980 N   0  0  0  0  0  0  0  0  0  0  0  0
   32.5830   27.7880   46.1070 C   0  0  0  0  0  0  0  0  0  0  0  0
   31.9300   26.6320   45.8640 N   0  0  0  0  0  0  0  0  0  0  0  0
   33.4030   28.4400   45.1460 N   0  0  0  0  0  0  0  0  0  0  0  0
   33.1780   28.3570   43.7920 C   0  0  0  0  0  3  0  0  0  0  0  0
   34.1170   29.0790   43.1300 N   0  0  0  0  0  0  0  0  0  0  0  0
   34.9550   29.6330   44.0480 C   0  0  0  0  0  0  0  0  0  0  0  0
   36.0790   30.4470   44.0010 C   0  0  0  0  0  0  0  0  0  0  0  0
   36.6890   30.8190   45.1420 N   0  0  0  0  0  0  0  0  0  0  0  0
   36.2110   30.4010   46.3280 C   0  0  0  0  0  0  0  0  0  0  0  0
   35.1280   29.6140   46.3660 N   0  0  0  0  0  0  0  0  0  0  0  0
   34.4840   29.2150   45.2710 C   0  0  0  0  0  0  0  0  0  0  0  0
   36.4560   30.8050   42.6670 N   0  0  0  0  0  0  0  0  0  0  0  0
   35.9080   30.4580   41.8660 H   0  0  0  0  0  0  0  0  0  0  0  0
   37.2750   31.4100   42.5080 H   0  0  0  0  0  0  0  0  0  0  0  0
   37.0040   30.9030   47.4370 C   0  0  0  0  0  0  0  0  0  0  0  0
   37.9560   31.8800   47.2560 C   0  0  0  0  0  3  0  0  0  0  0  0
   38.7460   32.4080   48.2450 C   0  0  0  0  0  3  0  0  0  0  0  0
   38.6150   31.9610   49.5370 C   0  0  0  0  0  3  0  0  0  0  0  0
   37.6820   30.9820   49.7970 C   0  0  0  0  0  0  0  0  0  0  0  0
   37.5440   30.5310   51.0850 C   0  0  0  0  0  3  0  0  0  0  0  0
   36.6270   29.5530   51.4110 C   0  0  0  0  0  3  0  0  0  0  0  0
   35.8500   29.0510   50.3620 C   0  0  0  0  0  3  0  0  0  0  0  0
   36.0240   29.5360   49.0880 C   0  0  0  0  0  3  0  0  0  0  0  0
   36.9310   30.5090   48.7500 C   0  0  0  0  0  0  0  0  0  0  0  0
  1  2  1  0  0  0  0
  2  3  2  0  0  0  0
  4  3  1  0  0  0  0
  5  4  2  0  0  0  0
  6  5  1  0  0  0  0
  6  1  2  0  0  0  0
  7 15  1  0  0  0  0
  7  5  1  0  0  0  0
  8  7  1  0  0  0  0
  9  8  2  0  0  0  0
  9 10  1  0  0  0  0
 10 15  1  0  0  0  0
 11 10  2  0  0  0  0
 11 12  1  0  0  0  0
 12 13  2  0  0  0  0
 13 14  1  0  0  0  0
 13 19  1  0  0  0  0
 15 14  2  0  0  0  0
 16 11  1  0  0  0  0
 17 16  1  0  0  0  0
 18 16  1  0  0  0  0
 19 28  1  0  0  0  0
 20 19  2  0  0  0  0
 20 21  1  0  0  0  0
 21 22  2  0  0  0  0
 22 23  1  0  0  0  0
 23 24  1  0  0  0  0
 24 25  2  0  0  0  0
 26 25  1  0  0  0  0
 27 26  2  0  0  0  0
 28 27  1  0  0  0  0
 28 23  2  0  0  0  0
M  END
>  <minimizedAffinity>
-7.2922554

$$$$

 OpenBabel03272514543D

 28 32  0  0  0  0  0  0  0  0999 V2000
   34.5280   30.4620   41.8260 C   0  0  0  0  0  3  0  0  0  0  0  0
   35.9090   30.5250   42.0180 C   0  0  0  0  0  3  0  0  0  0  0  0
   36.4240   29.9900   43.2220 C   0  0  0  0  0  3  0  0  0  0  0  0
   35.5180   29.4540   44.1010 N   0  0  0  0  0  0  0  0  0  0  0  0
   34.2050   29.4170   43.8720 C   0  0  0  0  0  0  0  0  0  0  0  0
   33.7020   29.9240   42.7270 N   0  0  0  0  0  0  0  0  0  0  0  0
   33.4020   28.8260   44.8840 N   0  0  0  0  0  0  0  0  0  0  0  0
   32.2190   28.1770   44.6180 C   0  0  0  0  0  3  0  0  0  0  0  0
   31.6800   27.7190   45.7750 N   0  0  0  0  0  0  0  0  0  0  0  0
   32.5070   28.0670   46.7990 C   0  0  0  0  0  0  0  0  0  0  0  0
   32.5060   27.8970   48.1770 C   0  0  0  0  0  0  0  0  0  0  0  0
   33.5170   28.3910   48.9170 N   0  0  0  0  0  0  0  0  0  0  0  0
   34.5280   29.0490   48.3220 C   0  0  0  0  0  0  0  0  0  0  0  0
   34.5210   29.2110   46.9920 N   0  0  0  0  0  0  0  0  0  0  0  0
   33.5490   28.7460   46.2110 C   0  0  0  0  0  0  0  0  0  0  0  0
   31.3650   27.1750   48.6510 N   0  0  0  0  0  0  0  0  0  0  0  0
   30.6510   26.8440   47.9850 H   0  0  0  0  0  0  0  0  0  0  0  0
   31.2570   26.9850   49.6580 H   0  0  0  0  0  0  0  0  0  0  0  0
   35.5160   29.5050   49.2840 C   0  0  0  0  0  0  0  0  0  0  0  0
   35.4720   29.1090   50.6010 C   0  0  0  0  0  3  0  0  0  0  0  0
   36.3630   29.4910   51.5720 C   0  0  0  0  0  3  0  0  0  0  0  0
   37.3990   30.3360   51.2550 C   0  0  0  0  0  3  0  0  0  0  0  0
   37.5080   30.7760   49.9550 C   0  0  0  0  0  0  0  0  0  0  0  0
   38.5410   31.6190   49.6310 C   0  0  0  0  0  3  0  0  0  0  0  0
   38.7060   32.0930   48.3460 C   0  0  0  0  0  3  0  0  0  0  0  0
   37.7680   31.6710   47.3990 C   0  0  0  0  0  3  0  0  0  0  0  0
   36.7510   30.8250   47.7720 C   0  0  0  0  0  3  0  0  0  0  0  0
   36.5760   30.3440   49.0450 C   0  0  0  0  0  0  0  0  0  0  0  0
  1  2  2  0  0  0  0
  1  6  1  0  0  0  0
  2  3  1  0  0  0  0
  3  4  2  0  0  0  0
  5  4  1  0  0  0  0
  5  7  1  0  0  0  0
  6  5  2  0  0  0  0
  7 15  1  0  0  0  0
  8  7  1  0  0  0  0
  8  9  2  0  0  0  0
  9 10  1  0  0  0  0
 10 11  1  0  0  0  0
 11 16  1  0  0  0  0
 11 12  2  0  0  0  0
 13 12  1  0  0  0  0
 13 19  1  0  0  0  0
 14 13  2  0  0  0  0
 15 10  2  0  0  0  0
 15 14  1  0  0  0  0
 16 18  1  0  0  0  0
 17 16  1  0  0  0  0
 19 20  1  0  0  0  0
 20 21  2  0  0  0  0
 22 21  1  0  0  0  0
 23 22  2  0  0  0  0
 24 23  1  0  0  0  0
 25 24  2  0  0  0  0
 26 27  2  0  0  0  0
 26 25  1  0  0  0  0
 27 28  1  0  0  0  0
 28 19  2  0  0  0  0
 28 23  1  0  0  0  0
M  END
>  <minimizedAffinity>
-7.25452757

$$$$

 OpenBabel03272514543D

 28 32  0  0  0  0  0  0  0  0999 V2000
   33.2970   23.2950   45.2290 C   0  0  0  0  0  3  0  0  0  0  0  0
   33.6150   22.8640   46.5170 C   0  0  0  0  0  3  0  0  0  0  0  0
   33.6370   23.8380   47.5430 C   0  0  0  0  0  3  0  0  0  0  0  0
   33.3430   25.1280   47.1820 N   0  0  0  0  0  0  0  0  0  0  0  0
   33.0450   25.4910   45.9330 C   0  0  0  0  0  0  0  0  0  0  0  0
   33.0210   24.5710   44.9460 N   0  0  0  0  0  0  0  0  0  0  0  0
   32.7640   26.8690   45.7250 N   0  0  0  0  0  0  0  0  0  0  0  0
   31.9070   27.3180   44.7480 C   0  0  0  0  0  3  0  0  0  0  0  0
   31.8380   28.6720   44.7910 N   0  0  0  0  0  0  0  0  0  0  0  0
   32.6480   29.1100   45.7930 C   0  0  0  0  0  0  0  0  0  0  0  0
   32.9990   30.3470   46.3170 C   0  0  0  0  0  0  0  0  0  0  0  0
   33.8640   30.4220   47.3450 N   0  0  0  0  0  0  0  0  0  0  0  0
   34.3890   29.2990   47.8670 C   0  0  0  0  0  0  0  0  0  0  0  0
   34.0480   28.1090   47.3560 N   0  0  0  0  0  0  0  0  0  0  0  0
   33.1980   27.9740   46.3390 C   0  0  0  0  0  0  0  0  0  0  0  0
   32.3520   31.4390   45.6540 N   0  0  0  0  0  0  0  0  0  0  0  0
   31.7050   31.2580   44.8730 H   0  0  0  0  0  0  0  0  0  0  0  0
   32.5340   32.4070   45.9580 H   0  0  0  0  0  0  0  0  0  0  0  0
   35.2980   29.5860   48.9630 C   0  0  0  0  0  0  0  0  0  0  0  0
   35.0830   29.0830   50.2250 C   0  0  0  0  0  3  0  0  0  0  0  0
   35.8880   29.3050   51.3130 C   0  0  0  0  0  3  0  0  0  0  0  0
   37.0120   30.0840   51.1840 C   0  0  0  0  0  3  0  0  0  0  0  0
   37.2940   30.6240   49.9490 C   0  0  0  0  0  0  0  0  0  0  0  0
   38.4150   31.4020   49.8120 C   0  0  0  0  0  3  0  0  0  0  0  0
   38.7540   31.9700   48.6010 C   0  0  0  0  0  3  0  0  0  0  0  0
   37.8960   31.7100   47.5290 C   0  0  0  0  0  3  0  0  0  0  0  0
   36.7840   30.9230   47.7150 C   0  0  0  0  0  3  0  0  0  0  0  0
   36.4370   30.3510   48.9130 C   0  0  0  0  0  0  0  0  0  0  0  0
  1  2  1  0  0  0  0
  2  3  2  0  0  0  0
  4  3  1  0  0  0  0
  5  4  2  0  0  0  0
  6  1  2  0  0  0  0
  6  5  1  0  0  0  0
  7  5  1  0  0  0  0
  7 15  1  0  0  0  0
  8  9  2  0  0  0  0
  8  7  1  0  0  0  0
  9 10  1  0  0  0  0
 10 11  2  0  0  0  0
 10 15  1  0  0  0  0
 11 12  1  0  0  0  0
 12 13  2  0  0  0  0
 13 19  1  0  0  0  0
 14 13  1  0  0  0  0
 15 14  2  0  0  0  0
 16 18  1  0  0  0  0
 16 11  1  0  0  0  0
 17 16  1  0  0  0  0
 19 20  1  0  0  0  0
 20 21  2  0  0  0  0
 22 21  1  0  0  0  0
 23 22  2  0  0  0  0
 24 23  1  0  0  0  0
 25 24  2  0  0  0  0
 26 27  2  0  0  0  0
 26 25  1  0  0  0  0
 27 28  1  0  0  0  0
 28 19  2  0  0  0  0
 28 23  1  0  0  0  0
M  END
>  <minimizedAffinity>
-7.24561691

$$$$

 OpenBabel03272514543D

 28 32  0  0  0  0  0  0  0  0999 V2000
   29.7070   32.0600   44.5450 C   0  0  0  0  0  3  0  0  0  0  0  0
   30.6920   33.0480   44.5640 C   0  0  0  0  0  3  0  0  0  0  0  0
   31.9930   32.6630   44.9650 C   0  0  0  0  0  3  0  0  0  0  0  0
   32.1740   31.3460   45.3040 N   0  0  0  0  0  0  0  0  0  0  0  0
   31.1980   30.4380   45.2690 C   0  0  0  0  0  0  0  0  0  0  0  0
   29.9540   30.7930   44.8880 N   0  0  0  0  0  0  0  0  0  0  0  0
   31.5510   29.1150   45.6510 N   0  0  0  0  0  0  0  0  0  0  0  0
   30.9290   27.9990   45.1420 C   0  0  0  0  0  3  0  0  0  0  0  0
   31.4770   26.8840   45.6880 N   0  0  0  0  0  0  0  0  0  0  0  0
   32.4560   27.2680   46.5530 C   0  0  0  0  0  0  0  0  0  0  0  0
   33.3490   26.6170   47.3930 C   0  0  0  0  0  0  0  0  0  0  0  0
   34.2110   27.3310   48.1420 N   0  0  0  0  0  0  0  0  0  0  0  0
   34.2080   28.6740   48.0760 C   0  0  0  0  0  0  0  0  0  0  0  0
   33.3430   29.2950   47.2640 N   0  0  0  0  0  0  0  0  0  0  0  0
   32.4680   28.6430   46.5020 C   0  0  0  0  0  0  0  0  0  0  0  0
   33.2260   25.1920   47.3440 N   0  0  0  0  0  0  0  0  0  0  0  0
   32.5240   24.7560   46.7290 H   0  0  0  0  0  0  0  0  0  0  0  0
   33.8390   24.6020   47.9250 H   0  0  0  0  0  0  0  0  0  0  0  0
   35.2050   29.2600   48.9550 C   0  0  0  0  0  0  0  0  0  0  0  0
   35.1860   29.0370   50.3120 C   0  0  0  0  0  3  0  0  0  0  0  0
   36.0860   29.5500   51.2110 C   0  0  0  0  0  3  0  0  0  0  0  0
   37.1060   30.3580   50.7720 C   0  0  0  0  0  3  0  0  0  0  0  0
   37.1910   30.6280   49.4240 C   0  0  0  0  0  0  0  0  0  0  0  0
   38.2070   31.4330   48.9770 C   0  0  0  0  0  3  0  0  0  0  0  0
   38.3470   31.7400   47.6400 C   0  0  0  0  0  3  0  0  0  0  0  0
   37.4010   31.1890   46.7710 C   0  0  0  0  0  3  0  0  0  0  0  0
   36.4000   30.3880   47.2660 C   0  0  0  0  0  3  0  0  0  0  0  0
   36.2500   30.0730   48.5930 C   0  0  0  0  0  0  0  0  0  0  0  0
  1  2  2  0  0  0  0
  1  6  1  0  0  0  0
  2  3  1  0  0  0  0
  3  4  2  0  0  0  0
  5  4  1  0  0  0  0
  5  7  1  0  0  0  0
  6  5  2  0  0  0  0
  7 15  1  0  0  0  0
  8  7  1  0  0  0  0
  8  9  2  0  0  0  0
  9 10  1  0  0  0  0
 10 11  1  0  0  0  0
 11 12  2  0  0  0  0
 13 12  1  0  0  0  0
 13 19  1  0  0  0  0
 14 13  2  0  0  0  0
 15 10  2  0  0  0  0
 15 14  1  0  0  0  0
 16 11  1  0  0  0  0
 16 18  1  0  0  0  0
 17 16  1  0  0  0  0
 19 20  1  0  0  0  0
 20 21  2  0  0  0  0
 22 21  1  0  0  0  0
 23 22  2  0  0  0  0
 24 23  1  0  0  0  0
 25 24  2  0  0  0  0
 26 27  2  0  0  0  0
 26 25  1  0  0  0  0
 27 28  1  0  0  0  0
 28 19  2  0  0  0  0
 28 23  1  0  0  0  0
M  END
>  <minimizedAffinity>
-7.22473621

$$$$

 OpenBabel03272514543D

 28 32  0  0  0  0  0  0  0  0999 V2000
   26.3000   32.3510   46.1910 C   0  0  0  0  0  3  0  0  0  0  0  0
   26.9910   31.9940   45.0330 C   0  0  0  0  0  3  0  0  0  0  0  0
   27.7440   30.7970   45.0670 C   0  0  0  0  0  3  0  0  0  0  0  0
   27.7310   30.0870   46.2410 N   0  0  0  0  0  0  0  0  0  0  0  0
   27.0520   30.4720   47.3230 C   0  0  0  0  0  0  0  0  0  0  0  0
   26.3300   31.6110   47.3020 N   0  0  0  0  0  0  0  0  0  0  0  0
   27.1410   29.6230   48.4600 N   0  0  0  0  0  0  0  0  0  0  0  0
   26.1290   29.5010   49.3830 C   0  0  0  0  0  3  0  0  0  0  0  0
   26.4990   28.6240   50.3500 N   0  0  0  0  0  0  0  0  0  0  0  0
   27.7510   28.1740   50.0630 C   0  0  0  0  0  0  0  0  0  0  0  0
   28.6490   27.2940   50.6520 C   0  0  0  0  0  0  0  0  0  0  0  0
   29.8480   27.0740   50.0820 N   0  0  0  0  0  0  0  0  0  0  0  0
   30.1780   27.7060   48.9420 C   0  0  0  0  0  0  0  0  0  0  0  0
   29.3080   28.5540   48.3800 N   0  0  0  0  0  0  0  0  0  0  0  0
   28.1090   28.8110   48.8980 C   0  0  0  0  0  0  0  0  0  0  0  0
   28.1450   26.7030   51.8550 N   0  0  0  0  0  0  0  0  0  0  0  0
   27.2050   26.9500   52.1960 H   0  0  0  0  0  0  0  0  0  0  0  0
   28.7230   26.0300   52.3800 H   0  0  0  0  0  0  0  0  0  0  0  0
   31.5090   27.3400   48.4870 C   0  0  0  0  0  0  0  0  0  0  0  0
   31.7020   26.3380   47.5650 C   0  0  0  0  0  3  0  0  0  0  0  0
   32.9200   25.9310   47.0830 C   0  0  0  0  0  3  0  0  0  0  0  0
   34.0690   26.5400   47.5260 C   0  0  0  0  0  3  0  0  0  0  0  0
   33.9560   27.5530   48.4520 C   0  0  0  0  0  0  0  0  0  0  0  0
   35.0980   28.1670   48.8980 C   0  0  0  0  0  3  0  0  0  0  0  0
   35.0510   29.1890   49.8240 C   0  0  0  0  0  3  0  0  0  0  0  0
   33.7830   29.5610   50.2790 C   0  0  0  0  0  3  0  0  0  0  0  0
   32.6670   28.9160   49.8020 C   0  0  0  0  0  3  0  0  0  0  0  0
   32.6990   27.9000   48.8800 C   0  0  0  0  0  0  0  0  0  0  0  0
  1  6  1  0  0  0  0
  2  3  1  0  0  0  0
  2  1  2  0  0  0  0
  3  4  2  0  0  0  0
  4  5  1  0  0  0  0
  5  7  1  0  0  0  0
  6  5  2  0  0  0  0
  7 15  1  0  0  0  0
  7  8  1  0  0  0  0
  8  9  2  0  0  0  0
 10  9  1  0  0  0  0
 10 11  1  0  0  0  0
 11 16  1  0  0  0  0
 12 11  2  0  0  0  0
 13 12  1  0  0  0  0
 14 15  1  0  0  0  0
 14 13  2  0  0  0  0
 15 10  2  0  0  0  0
 16 17  1  0  0  0  0
 16 18  1  0  0  0  0
 19 28  1  0  0  0  0
 19 13  1  0  0  0  0
 20 19  2  0  0  0  0
 21 22  2  0  0  0  0
 21 20  1  0  0  0  0
 22 23  1  0  0  0  0
 23 28  2  0  0  0  0
 23 24  1  0  0  0  0
 24 25  2  0  0  0  0
 25 26  1  0  0  0  0
 27 26  2  0  0  0  0
 28 27  1  0  0  0  0
M  END
>  <minimizedAffinity>
-7.20334625

$$$$
