
 OpenBabel03272514493D

 39 44  0  0  0  0  0  0  0  0999 V2000
   31.4150   31.1450   42.8400 C   0  0  0  0  0  0  0  0  0  0  0  0
   30.1080   31.5760   43.2020 C   0  0  0  0  0  3  0  0  0  0  0  0
   29.7120   31.3540   44.4940 C   0  0  0  0  0  3  0  0  0  0  0  0
   30.6060   30.7490   45.2910 N   0  0  0  0  0  0  0  0  0  0  0  0
   31.7960   30.3480   44.9890 C   0  0  0  0  0  0  0  0  0  0  0  0
   32.2150   30.5530   43.7190 N   0  0  0  0  0  0  0  0  0  0  0  0
   32.5320   29.7450   46.0210 N   0  0  0  0  0  0  0  0  0  0  0  0
   33.6340   30.3900   46.4920 C   0  0  0  0  0  3  0  0  0  0  0  0
   34.2020   29.6290   47.4900 C   0  0  0  0  0  0  0  0  0  0  0  0
   33.4490   28.5430   47.6150 N   0  0  0  0  0  0  0  0  0  0  0  0
   32.4070   28.6050   46.7030 C   0  0  0  0  0  0  0  0  0  0  0  0
   31.4180   27.5880   46.5460 C   0  0  0  0  0  0  0  0  0  0  0  0
   31.5060   26.6080   45.5370 C   0  0  0  0  0  3  0  0  0  0  0  0
   30.4110   25.7900   45.6150 N   0  0  0  0  0  0  0  0  0  0  0  0
   29.6400   26.2710   46.6790 C   0  0  0  0  0  3  0  0  0  0  0  0
   30.2990   27.3130   47.1650 N   0  0  0  0  0  0  0  0  0  0  0  0
   29.5150   27.6880   48.2640 C   0  0  0  0  0  0  0  0  0  0  0  0
   29.8310   26.9930   49.3650 N   0  0  0  0  0  0  0  0  0  0  0  0
   29.1230   27.1920   50.5080 C   0  0  0  0  0  3  0  0  0  0  0  0
   28.1070   28.0550   50.6100 N   0  0  0  0  0  0  0  0  0  0  0  0
   27.7590   28.7730   49.5270 C   0  0  0  0  0  0  0  0  0  0  0  0
   26.7400   29.6870   49.4910 C   0  0  0  0  0  3  0  0  0  0  0  0
   26.4270   30.3840   48.3620 C   0  0  0  0  0  3  0  0  0  0  0  0
   27.1660   30.1650   47.2030 C   0  0  0  0  0  3  0  0  0  0  0  0
   28.1990   29.2630   47.1740 C   0  0  0  0  0  3  0  0  0  0  0  0
   28.4710   28.5900   48.3350 C   0  0  0  0  0  0  0  0  0  0  0  0
   35.3850   29.9470   48.2540 N   0  0  0  0  0  0  0  0  0  0  0  0
   36.5150   30.2080   47.5710 C   0  0  0  0  0  3  0  0  0  0  0  0
   37.6500   30.5120   48.3000 C   0  0  0  0  0  3  0  0  0  0  0  0
   37.5400   30.5260   49.6760 C   0  0  0  0  0  0  0  0  0  0  0  0
   38.6130   30.8200   50.5620 N   0  0  0  0  0  0  0  0  0  0  0  0
   36.3790   30.2560   50.3300 N   0  0  0  0  0  0  0  0  0  0  0  0
   35.2670   29.9570   49.5960 C   0  0  0  0  0  0  0  0  0  0  0  0
   34.1830   29.7040   50.1720 O   0  0  0  0  0  0  0  0  0  0  0  0
   38.4570   30.8110   51.5790 H   0  0  0  0  0  0  0  0  0  0  0  0
   39.5460   31.0410   50.1850 H   0  0  0  0  0  0  0  0  0  0  0  0
   31.8730   31.3750   41.4910 N   0  0  0  0  0  0  0  0  0  0  0  0
   32.8150   31.0710   41.2080 H   0  0  0  0  0  0  0  0  0  0  0  0
   31.2570   31.8440   40.8100 H   0  0  0  0  0  0  0  0  0  0  0  0
  1  2  2  0  0  0  0
  1  6  1  0  0  0  0
  2  3  1  0  0  0  0
  3  4  2  0  0  0  0
  5  4  1  0  0  0  0
  5  7  1  0  0  0  0
  6  5  2  0  0  0  0
  7  8  1  0  0  0  0
  7 11  1  0  0  0  0
  8  9  2  0  0  0  0
  9 10  1  0  0  0  0
  9 27  1  0  0  0  0
 11 10  2  0  0  0  0
 12 11  1  0  0  0  0
 12 16  1  0  0  0  0
 13 14  1  0  0  0  0
 13 12  2  0  0  0  0
 14 15  2  0  0  0  0
 15 16  1  0  0  0  0
 16 17  1  0  0  0  0
 17 26  2  0  0  0  0
 17 18  1  0  0  0  0
 18 19  2  0  0  0  0
 19 20  1  0  0  0  0
 21 20  2  0  0  0  0
 22 21  1  0  0  0  0
 23 22  2  0  0  0  0
 24 23  1  0  0  0  0
 25 24  2  0  0  0  0
 25 26  1  0  0  0  0
 26 21  1  0  0  0  0
 27 33  1  0  0  0  0
 28 27  1  0  0  0  0
 28 29  2  0  0  0  0
 29 30  1  0  0  0  0
 30 32  2  0  0  0  0
 30 31  1  0  0  0  0
 31 35  1  0  0  0  0
 33 34  2  0  0  0  0
 33 32  1  0  0  0  0
 36 31  1  0  0  0  0
 37  1  1  0  0  0  0
 38 37  1  0  0  0  0
 39 37  1  0  0  0  0
M  END
>  <minimizedAffinity>
-8.07944965

$$$$

 OpenBabel03272514493D

 39 44  0  0  0  0  0  0  0  0999 V2000
   31.4290   32.1400   42.0860 C   0  0  0  0  0  0  0  0  0  0  0  0
   30.2820   32.9380   42.3510 C   0  0  0  0  0  3  0  0  0  0  0  0
   29.6780   32.7790   43.5710 C   0  0  0  0  0  3  0  0  0  0  0  0
   30.2380   31.8810   44.3950 N   0  0  0  0  0  0  0  0  0  0  0  0
   31.2780   31.1450   44.1800 C   0  0  0  0  0  0  0  0  0  0  0  0
   31.8950   31.2790   42.9830 N   0  0  0  0  0  0  0  0  0  0  0  0
   31.6590   30.2840   45.2210 N   0  0  0  0  0  0  0  0  0  0  0  0
   32.8370   30.5240   45.8590 C   0  0  0  0  0  3  0  0  0  0  0  0
   33.0160   29.5680   46.8350 C   0  0  0  0  0  0  0  0  0  0  0  0
   31.9580   28.7680   46.7830 N   0  0  0  0  0  0  0  0  0  0  0  0
   31.1080   29.2050   45.7790 C   0  0  0  0  0  0  0  0  0  0  0  0
   29.8840   28.5600   45.4290 C   0  0  0  0  0  0  0  0  0  0  0  0
   29.7700   27.7370   44.2900 C   0  0  0  0  0  3  0  0  0  0  0  0
   28.4820   27.2820   44.1970 N   0  0  0  0  0  0  0  0  0  0  0  0
   27.7950   27.8300   45.2870 C   0  0  0  0  0  3  0  0  0  0  0  0
   28.6840   28.5550   45.9510 N   0  0  0  0  0  0  0  0  0  0  0  0
   27.9510   29.0020   47.0570 C   0  0  0  0  0  0  0  0  0  0  0  0
   27.9560   28.1080   48.0560 N   0  0  0  0  0  0  0  0  0  0  0  0
   27.2410   28.3610   49.1840 C   0  0  0  0  0  3  0  0  0  0  0  0
   26.5140   29.4670   49.3690 N   0  0  0  0  0  0  0  0  0  0  0  0
   26.4840   30.3900   48.3900 C   0  0  0  0  0  0  0  0  0  0  0  0
   25.7810   31.5640   48.4470 C   0  0  0  0  0  3  0  0  0  0  0  0
   25.7820   32.4620   47.4210 C   0  0  0  0  0  3  0  0  0  0  0  0
   26.5220   32.1840   46.2760 C   0  0  0  0  0  3  0  0  0  0  0  0
   27.2470   31.0250   46.1580 C   0  0  0  0  0  3  0  0  0  0  0  0
   27.2110   30.1580   47.2170 C   0  0  0  0  0  0  0  0  0  0  0  0
   34.1340   29.4560   47.7420 N   0  0  0  0  0  0  0  0  0  0  0  0
   35.2640   30.1140   47.4210 C   0  0  0  0  0  3  0  0  0  0  0  0
   36.3360   30.0090   48.2860 C   0  0  0  0  0  3  0  0  0  0  0  0
   36.1710   29.2350   49.4170 C   0  0  0  0  0  0  0  0  0  0  0  0
   37.1760   29.0280   50.4010 N   0  0  0  0  0  0  0  0  0  0  0  0
   35.0120   28.5840   49.7060 N   0  0  0  0  0  0  0  0  0  0  0  0
   33.9620   28.6980   48.8420 C   0  0  0  0  0  0  0  0  0  0  0  0
   32.8820   28.1090   49.0830 O   0  0  0  0  0  0  0  0  0  0  0  0
   36.9810   28.4360   51.2200 H   0  0  0  0  0  0  0  0  0  0  0  0
   38.1000   29.4700   50.2930 H   0  0  0  0  0  0  0  0  0  0  0  0
   32.1010   32.2900   40.8170 N   0  0  0  0  0  0  0  0  0  0  0  0
   32.9330   31.7220   40.6040 H   0  0  0  0  0  0  0  0  0  0  0  0
   31.7480   32.9660   40.1240 H   0  0  0  0  0  0  0  0  0  0  0  0
  1  2  2  0  0  0  0
  1  6  1  0  0  0  0
  2  3  1  0  0  0  0
  3  4  2  0  0  0  0
  5  4  1  0  0  0  0
  5  7  1  0  0  0  0
  6  5  2  0  0  0  0
  7 11  1  0  0  0  0
  7  8  1  0  0  0  0
  8  9  2  0  0  0  0
  9 27  1  0  0  0  0
 10  9  1  0  0  0  0
 11 10  2  0  0  0  0
 12 11  1  0  0  0  0
 12 16  1  0  0  0  0
 13 12  2  0  0  0  0
 14 13  1  0  0  0  0
 14 15  2  0  0  0  0
 15 16  1  0  0  0  0
 16 17  1  0  0  0  0
 17 26  2  0  0  0  0
 17 18  1  0  0  0  0
 18 19  2  0  0  0  0
 19 20  1  0  0  0  0
 21 22  1  0  0  0  0
 21 20  2  0  0  0  0
 23 22  2  0  0  0  0
 24 23  1  0  0  0  0
 25 24  2  0  0  0  0
 25 26  1  0  0  0  0
 26 21  1  0  0  0  0
 27 33  1  0  0  0  0
 28 27  1  0  0  0  0
 28 29  2  0  0  0  0
 29 30  1  0  0  0  0
 30 32  2  0  0  0  0
 30 31  1  0  0  0  0
 31 35  1  0  0  0  0
 33 34  2  0  0  0  0
 33 32  1  0  0  0  0
 36 31  1  0  0  0  0
 37  1  1  0  0  0  0
 38 37  1  0  0  0  0
 39 37  1  0  0  0  0
M  END
>  <minimizedAffinity>
-7.59786749

$$$$

 OpenBabel03272514493D

 39 44  0  0  0  0  0  0  0  0999 V2000
   32.2230   32.0020   43.9580 C   0  0  0  0  0  0  0  0  0  0  0  0
   32.2930   31.4530   42.6470 C   0  0  0  0  0  3  0  0  0  0  0  0
   31.7930   30.1890   42.4700 C   0  0  0  0  0  3  0  0  0  0  0  0
   31.2840   29.5970   43.5620 N   0  0  0  0  0  0  0  0  0  0  0  0
   31.2080   30.0720   44.7610 C   0  0  0  0  0  0  0  0  0  0  0  0
   31.6950   31.3170   44.9660 N   0  0  0  0  0  0  0  0  0  0  0  0
   30.6200   29.2390   45.7260 N   0  0  0  0  0  0  0  0  0  0  0  0
   29.4270   29.6130   46.2610 C   0  0  0  0  0  3  0  0  0  0  0  0
   29.0340   28.6630   47.1790 C   0  0  0  0  0  0  0  0  0  0  0  0
   29.9800   27.7320   47.1910 N   0  0  0  0  0  0  0  0  0  0  0  0
   30.9730   28.0820   46.2900 C   0  0  0  0  0  0  0  0  0  0  0  0
   32.1570   27.3180   46.0650 C   0  0  0  0  0  0  0  0  0  0  0  0
   32.1130   25.9770   45.6330 C   0  0  0  0  0  3  0  0  0  0  0  0
   33.3920   25.5000   45.5290 N   0  0  0  0  0  0  0  0  0  0  0  0
   34.2330   26.5560   45.9010 C   0  0  0  0  0  3  0  0  0  0  0  0
   33.4350   27.5730   46.1930 N   0  0  0  0  0  0  0  0  0  0  0  0
   34.3400   28.6030   46.4770 C   0  0  0  0  0  0  0  0  0  0  0  0
   34.7300   29.2460   45.3680 N   0  0  0  0  0  0  0  0  0  0  0  0
   35.6550   30.2380   45.4600 C   0  0  0  0  0  3  0  0  0  0  0  0
   36.2170   30.6230   46.6110 N   0  0  0  0  0  0  0  0  0  0  0  0
   35.8510   30.0020   47.7470 C   0  0  0  0  0  0  0  0  0  0  0  0
   36.3470   30.2950   48.9900 C   0  0  0  0  0  3  0  0  0  0  0  0
   35.9430   29.6290   50.1090 C   0  0  0  0  0  3  0  0  0  0  0  0
   34.9940   28.6180   49.9920 C   0  0  0  0  0  3  0  0  0  0  0  0
   34.4590   28.2780   48.7750 C   0  0  0  0  0  3  0  0  0  0  0  0
   34.8990   28.9780   47.6830 C   0  0  0  0  0  0  0  0  0  0  0  0
   27.8290   28.6740   47.9740 N   0  0  0  0  0  0  0  0  0  0  0  0
   26.6520   28.6900   47.3200 C   0  0  0  0  0  3  0  0  0  0  0  0
   25.4970   28.7000   48.0770 C   0  0  0  0  0  3  0  0  0  0  0  0
   25.6330   28.6950   49.4500 C   0  0  0  0  0  0  0  0  0  0  0  0
   24.5430   28.7040   50.3640 N   0  0  0  0  0  0  0  0  0  0  0  0
   26.8410   28.6790   50.0750 N   0  0  0  0  0  0  0  0  0  0  0  0
   27.9740   28.6690   49.3130 C   0  0  0  0  0  0  0  0  0  0  0  0
   29.1010   28.6550   49.8610 O   0  0  0  0  0  0  0  0  0  0  0  0
   24.7220   28.6990   51.3780 H   0  0  0  0  0  0  0  0  0  0  0  0
   23.5760   28.7150   50.0120 H   0  0  0  0  0  0  0  0  0  0  0  0
   32.7250   33.3370   44.1790 N   0  0  0  0  0  0  0  0  0  0  0  0
   32.6850   33.7530   45.1200 H   0  0  0  0  0  0  0  0  0  0  0  0
   33.1250   33.8730   43.3950 H   0  0  0  0  0  0  0  0  0  0  0  0
  1 37  1  0  0  0  0
  1  6  1  0  0  0  0
  2  1  2  0  0  0  0
  3  2  1  0  0  0  0
  3  4  2  0  0  0  0
  4  5  1  0  0  0  0
  5  6  2  0  0  0  0
  5  7  1  0  0  0  0
  7  8  1  0  0  0  0
  7 11  1  0  0  0  0
  8  9  2  0  0  0  0
  9 10  1  0  0  0  0
  9 27  1  0  0  0  0
 11 10  2  0  0  0  0
 12 16  1  0  0  0  0
 12 11  1  0  0  0  0
 13 12  2  0  0  0  0
 14 13  1  0  0  0  0
 14 15  2  0  0  0  0
 15 16  1  0  0  0  0
 16 17  1  0  0  0  0
 17 26  1  0  0  0  0
 18 19  1  0  0  0  0
 18 17  2  0  0  0  0
 19 20  2  0  0  0  0
 20 21  1  0  0  0  0
 21 22  1  0  0  0  0
 22 23  2  0  0  0  0
 24 23  1  0  0  0  0
 25 24  2  0  0  0  0
 26 21  2  0  0  0  0
 26 25  1  0  0  0  0
 27 33  1  0  0  0  0
 28 27  1  0  0  0  0
 28 29  2  0  0  0  0
 29 30  1  0  0  0  0
 30 32  2  0  0  0  0
 30 31  1  0  0  0  0
 31 35  1  0  0  0  0
 33 34  2  0  0  0  0
 33 32  1  0  0  0  0
 36 31  1  0  0  0  0
 37 38  1  0  0  0  0
 39 37  1  0  0  0  0
M  END
>  <minimizedAffinity>
-7.06943703

$$$$

 OpenBabel03272514493D

 39 44  0  0  0  0  0  0  0  0999 V2000
   28.6630   28.5670   49.5420 C   0  0  0  0  0  0  0  0  0  0  0  0
   27.8810   29.6920   49.9280 C   0  0  0  0  0  3  0  0  0  0  0  0
   27.1250   30.2910   48.9550 C   0  0  0  0  0  3  0  0  0  0  0  0
   27.2010   29.7490   47.7300 N   0  0  0  0  0  0  0  0  0  0  0  0
   27.9010   28.7310   47.3530 C   0  0  0  0  0  0  0  0  0  0  0  0
   28.6590   28.1190   48.2920 N   0  0  0  0  0  0  0  0  0  0  0  0
   27.7940   28.3650   46.0020 N   0  0  0  0  0  0  0  0  0  0  0  0
   27.2040   27.1770   45.6990 C   0  0  0  0  0  3  0  0  0  0  0  0
   27.2050   27.0160   44.3310 C   0  0  0  0  0  0  0  0  0  0  0  0
   27.7870   28.0940   43.8220 N   0  0  0  0  0  0  0  0  0  0  0  0
   28.1590   28.9400   44.8550 C   0  0  0  0  0  0  0  0  0  0  0  0
   28.8350   30.1830   44.6700 C   0  0  0  0  0  0  0  0  0  0  0  0
   30.2320   30.3040   44.8090 C   0  0  0  0  0  3  0  0  0  0  0  0
   30.5890   31.6090   44.5990 N   0  0  0  0  0  0  0  0  0  0  0  0
   29.4020   32.3000   44.3300 C   0  0  0  0  0  3  0  0  0  0  0  0
   28.4330   31.3970   44.3880 N   0  0  0  0  0  0  0  0  0  0  0  0
   27.2990   32.1390   44.0340 C   0  0  0  0  0  0  0  0  0  0  0  0
   27.1390   32.2050   42.7060 N   0  0  0  0  0  0  0  0  0  0  0  0
   26.1170   32.9390   42.1910 C   0  0  0  0  0  3  0  0  0  0  0  0
   25.2410   33.6170   42.9400 N   0  0  0  0  0  0  0  0  0  0  0  0
   25.3680   33.5750   44.2780 C   0  0  0  0  0  0  0  0  0  0  0  0
   24.5440   34.2220   45.1610 C   0  0  0  0  0  3  0  0  0  0  0  0
   24.7220   34.1490   46.5100 C   0  0  0  0  0  3  0  0  0  0  0  0
   25.7740   33.3900   47.0150 C   0  0  0  0  0  3  0  0  0  0  0  0
   26.6340   32.7180   46.1830 C   0  0  0  0  0  3  0  0  0  0  0  0
   26.4100   32.8260   44.8370 C   0  0  0  0  0  0  0  0  0  0  0  0
   26.6760   25.8950   43.5910 N   0  0  0  0  0  0  0  0  0  0  0  0
   27.4560   24.8050   43.4700 C   0  0  0  0  0  3  0  0  0  0  0  0
   26.9530   23.7300   42.7620 C   0  0  0  0  0  3  0  0  0  0  0  0
   25.6870   23.8530   42.2280 C   0  0  0  0  0  0  0  0  0  0  0  0
   25.0310   22.8390   41.4760 N   0  0  0  0  0  0  0  0  0  0  0  0
   24.9280   24.9730   42.3710 N   0  0  0  0  0  0  0  0  0  0  0  0
   25.4390   26.0260   43.0730 C   0  0  0  0  0  0  0  0  0  0  0  0
   24.7630   27.0710   43.2210 O   0  0  0  0  0  0  0  0  0  0  0  0
   24.0840   23.0030   41.1080 H   0  0  0  0  0  0  0  0  0  0  0  0
   25.5050   21.9420   41.3000 H   0  0  0  0  0  0  0  0  0  0  0  0
   29.4620   27.9010   50.5430 N   0  0  0  0  0  0  0  0  0  0  0  0
   30.0350   27.0860   50.2850 H   0  0  0  0  0  0  0  0  0  0  0  0
   29.4580   28.2410   51.5160 H   0  0  0  0  0  0  0  0  0  0  0  0
  1  2  1  0  0  0  0
  1 37  1  0  0  0  0
  3  2  2  0  0  0  0
  4  3  1  0  0  0  0
  5  4  2  0  0  0  0
  5  6  1  0  0  0  0
  6  1  2  0  0  0  0
  7  5  1  0  0  0  0
  8  7  1  0  0  0  0
  9  8  2  0  0  0  0
 10  9  1  0  0  0  0
 10 11  2  0  0  0  0
 11  7  1  0  0  0  0
 12 13  2  0  0  0  0
 12 11  1  0  0  0  0
 14 13  1  0  0  0  0
 15 16  1  0  0  0  0
 15 14  2  0  0  0  0
 16 12  1  0  0  0  0
 17 16  1  0  0  0  0
 17 26  1  0  0  0  0
 18 17  2  0  0  0  0
 19 18  1  0  0  0  0
 19 20  2  0  0  0  0
 20 21  1  0  0  0  0
 21 26  2  0  0  0  0
 21 22  1  0  0  0  0
 22 23  2  0  0  0  0
 23 24  1  0  0  0  0
 25 24  2  0  0  0  0
 26 25  1  0  0  0  0
 27  9  1  0  0  0  0
 28 27  1  0  0  0  0
 29 28  2  0  0  0  0
 30 32  2  0  0  0  0
 30 29  1  0  0  0  0
 31 30  1  0  0  0  0
 32 33  1  0  0  0  0
 33 34  2  0  0  0  0
 33 27  1  0  0  0  0
 35 31  1  0  0  0  0
 36 31  1  0  0  0  0
 37 39  1  0  0  0  0
 38 37  1  0  0  0  0
M  END
>  <minimizedAffinity>
-7.05602694

$$$$

 OpenBabel03272514493D

 39 44  0  0  0  0  0  0  0  0999 V2000
   28.1020   29.0110   49.6890 C   0  0  0  0  0  0  0  0  0  0  0  0
   27.5790   27.9230   50.4420 C   0  0  0  0  0  3  0  0  0  0  0  0
   28.4010   26.8450   50.6380 C   0  0  0  0  0  3  0  0  0  0  0  0
   29.6260   26.9300   50.0950 N   0  0  0  0  0  0  0  0  0  0  0  0
   30.1250   27.9030   49.4080 C   0  0  0  0  0  0  0  0  0  0  0  0
   29.3360   28.9820   49.1980 N   0  0  0  0  0  0  0  0  0  0  0  0
   31.4440   27.7370   48.9570 N   0  0  0  0  0  0  0  0  0  0  0  0
   32.4110   28.5410   49.4750 C   0  0  0  0  0  3  0  0  0  0  0  0
   33.6180   28.2130   48.8990 C   0  0  0  0  0  0  0  0  0  0  0  0
   33.3770   27.2240   48.0470 N   0  0  0  0  0  0  0  0  0  0  0  0
   32.0250   26.9210   48.0750 C   0  0  0  0  0  0  0  0  0  0  0  0
   31.4100   25.9220   47.2620 C   0  0  0  0  0  0  0  0  0  0  0  0
   31.9260   24.6130   47.1660 C   0  0  0  0  0  3  0  0  0  0  0  0
   31.1480   23.8910   46.3010 N   0  0  0  0  0  0  0  0  0  0  0  0
   30.1450   24.7610   45.8590 C   0  0  0  0  0  3  0  0  0  0  0  0
   30.3700   25.9170   46.4690 N   0  0  0  0  0  0  0  0  0  0  0  0
   29.2930   26.7040   46.0420 C   0  0  0  0  0  0  0  0  0  0  0  0
   28.2080   26.5270   46.8100 N   0  0  0  0  0  0  0  0  0  0  0  0
   27.0540   27.1740   46.4970 C   0  0  0  0  0  3  0  0  0  0  0  0
   26.9250   27.9940   45.4490 N   0  0  0  0  0  0  0  0  0  0  0  0
   27.9910   28.1980   44.6550 C   0  0  0  0  0  0  0  0  0  0  0  0
   27.9970   29.0090   43.5500 C   0  0  0  0  0  3  0  0  0  0  0  0
   29.1060   29.1770   42.7770 C   0  0  0  0  0  3  0  0  0  0  0  0
   30.2780   28.5060   43.1160 C   0  0  0  0  0  3  0  0  0  0  0  0
   30.3360   27.6800   44.2100 C   0  0  0  0  0  3  0  0  0  0  0  0
   29.1940   27.5470   44.9530 C   0  0  0  0  0  0  0  0  0  0  0  0
   34.8990   28.8230   49.1660 N   0  0  0  0  0  0  0  0  0  0  0  0
   35.4440   28.6180   50.3800 C   0  0  0  0  0  3  0  0  0  0  0  0
   36.6710   29.2000   50.6400 C   0  0  0  0  0  3  0  0  0  0  0  0
   37.2460   29.9510   49.6360 C   0  0  0  0  0  0  0  0  0  0  0  0
   38.5010   30.6120   49.7480 N   0  0  0  0  0  0  0  0  0  0  0  0
   36.6640   30.1360   48.4210 N   0  0  0  0  0  0  0  0  0  0  0  0
   35.4520   29.5540   48.1790 C   0  0  0  0  0  0  0  0  0  0  0  0
   34.8910   29.7070   47.0690 O   0  0  0  0  0  0  0  0  0  0  0  0
   38.8690   31.1560   48.9550 H   0  0  0  0  0  0  0  0  0  0  0  0
   39.0410   30.5460   50.6220 H   0  0  0  0  0  0  0  0  0  0  0  0
   27.2700   30.1720   49.4760 N   0  0  0  0  0  0  0  0  0  0  0  0
   27.6290   30.9700   48.9340 H   0  0  0  0  0  0  0  0  0  0  0  0
   26.3170   30.2010   49.8660 H   0  0  0  0  0  0  0  0  0  0  0  0
  1  2  1  0  0  0  0
  2  3  2  0  0  0  0
  4  3  1  0  0  0  0
  5  4  2  0  0  0  0
  6  5  1  0  0  0  0
  6  1  2  0  0  0  0
  7  5  1  0  0  0  0
  7  8  1  0  0  0  0
  9 27  1  0  0  0  0
  9  8  2  0  0  0  0
 10 11  2  0  0  0  0
 10  9  1  0  0  0  0
 11  7  1  0  0  0  0
 12 11  1  0  0  0  0
 13 12  2  0  0  0  0
 14 13  1  0  0  0  0
 15 14  2  0  0  0  0
 15 16  1  0  0  0  0
 16 12  1  0  0  0  0
 17 16  1  0  0  0  0
 17 18  1  0  0  0  0
 19 18  2  0  0  0  0
 20 19  1  0  0  0  0
 21 26  1  0  0  0  0
 21 20  2  0  0  0  0
 22 21  1  0  0  0  0
 23 24  1  0  0  0  0
 23 22  2  0  0  0  0
 24 25  2  0  0  0  0
 25 26  1  0  0  0  0
 26 17  2  0  0  0  0
 27 28  1  0  0  0  0
 28 29  2  0  0  0  0
 30 31  1  0  0  0  0
 30 29  1  0  0  0  0
 31 36  1  0  0  0  0
 32 30  2  0  0  0  0
 33 32  1  0  0  0  0
 33 27  1  0  0  0  0
 34 33  2  0  0  0  0
 35 31  1  0  0  0  0
 37  1  1  0  0  0  0
 37 39  1  0  0  0  0
 38 37  1  0  0  0  0
M  END
>  <minimizedAffinity>
-7.04930735

$$$$

 OpenBabel03272514493D

 39 44  0  0  0  0  0  0  0  0999 V2000
   28.3600   28.8670   49.2520 C   0  0  0  0  0  0  0  0  0  0  0  0
   27.8340   27.7250   49.9180 C   0  0  0  0  0  3  0  0  0  0  0  0
   28.6950   26.6860   50.1520 C   0  0  0  0  0  3  0  0  0  0  0  0
   29.9560   26.8560   49.7260 N   0  0  0  0  0  0  0  0  0  0  0  0
   30.4590   27.8800   49.1210 C   0  0  0  0  0  0  0  0  0  0  0  0
   29.6320   28.9220   48.8750 N   0  0  0  0  0  0  0  0  0  0  0  0
   31.8200   27.8020   48.7860 N   0  0  0  0  0  0  0  0  0  0  0  0
   32.6900   28.6370   49.4170 C   0  0  0  0  0  3  0  0  0  0  0  0
   33.9610   28.3960   48.9430 C   0  0  0  0  0  0  0  0  0  0  0  0
   33.8530   27.4280   48.0400 N   0  0  0  0  0  0  0  0  0  0  0  0
   32.5230   27.0520   47.9350 C   0  0  0  0  0  0  0  0  0  0  0  0
   32.0410   26.0530   47.0370 C   0  0  0  0  0  0  0  0  0  0  0  0
   30.6770   25.7050   46.9660 C   0  0  0  0  0  3  0  0  0  0  0  0
   30.5200   24.7080   46.0410 N   0  0  0  0  0  0  0  0  0  0  0  0
   31.7980   24.4360   45.5390 C   0  0  0  0  0  3  0  0  0  0  0  0
   32.6210   25.2640   46.1680 N   0  0  0  0  0  0  0  0  0  0  0  0
   33.8540   24.9920   45.5640 C   0  0  0  0  0  0  0  0  0  0  0  0
   34.0270   25.6980   44.4390 N   0  0  0  0  0  0  0  0  0  0  0  0
   35.1490   25.5090   43.6950 C   0  0  0  0  0  3  0  0  0  0  0  0
   36.1140   24.6420   44.0180 N   0  0  0  0  0  0  0  0  0  0  0  0
   35.9780   23.9140   45.1400 C   0  0  0  0  0  0  0  0  0  0  0  0
   36.8870   22.9910   45.5870 C   0  0  0  0  0  3  0  0  0  0  0  0
   36.6960   22.2760   46.7310 C   0  0  0  0  0  3  0  0  0  0  0  0
   35.5400   22.4870   47.4780 C   0  0  0  0  0  3  0  0  0  0  0  0
   34.5920   23.3970   47.0850 C   0  0  0  0  0  3  0  0  0  0  0  0
   34.8340   24.0880   45.9280 C   0  0  0  0  0  0  0  0  0  0  0  0
   35.1760   29.0620   49.3460 N   0  0  0  0  0  0  0  0  0  0  0  0
   35.6020   28.8690   50.6090 C   0  0  0  0  0  3  0  0  0  0  0  0
   36.7650   29.5060   50.9990 C   0  0  0  0  0  3  0  0  0  0  0  0
   37.4040   30.2950   50.0650 C   0  0  0  0  0  0  0  0  0  0  0  0
   38.6070   31.0140   50.3120 N   0  0  0  0  0  0  0  0  0  0  0  0
   36.9420   30.4670   48.7980 N   0  0  0  0  0  0  0  0  0  0  0  0
   35.7920   29.8320   48.4270 C   0  0  0  0  0  0  0  0  0  0  0  0
   35.3410   29.9710   47.2660 O   0  0  0  0  0  0  0  0  0  0  0  0
   39.0280   31.5840   49.5650 H   0  0  0  0  0  0  0  0  0  0  0  0
   39.0560   30.9630   51.2370 H   0  0  0  0  0  0  0  0  0  0  0  0
   27.4850   29.9880   49.0020 N   0  0  0  0  0  0  0  0  0  0  0  0
   27.8460   30.8250   48.5210 H   0  0  0  0  0  0  0  0  0  0  0  0
   26.5010   29.9520   49.3040 H   0  0  0  0  0  0  0  0  0  0  0  0
  1  2  1  0  0  0  0
  2  3  2  0  0  0  0
  4  3  1  0  0  0  0
  5  4  2  0  0  0  0
  6  5  1  0  0  0  0
  6  1  2  0  0  0  0
  7  5  1  0  0  0  0
  7  8  1  0  0  0  0
  9 27  1  0  0  0  0
  9  8  2  0  0  0  0
 10  9  1  0  0  0  0
 11 10  2  0  0  0  0
 11  7  1  0  0  0  0
 12 11  1  0  0  0  0
 13 12  2  0  0  0  0
 14 13  1  0  0  0  0
 15 14  2  0  0  0  0
 15 16  1  0  0  0  0
 16 12  1  0  0  0  0
 17 26  1  0  0  0  0
 17 16  1  0  0  0  0
 18 17  2  0  0  0  0
 19 20  2  0  0  0  0
 19 18  1  0  0  0  0
 20 21  1  0  0  0  0
 21 22  2  0  0  0  0
 21 26  1  0  0  0  0
 22 23  1  0  0  0  0
 23 24  2  0  0  0  0
 25 24  1  0  0  0  0
 26 25  2  0  0  0  0
 27 28  1  0  0  0  0
 28 29  2  0  0  0  0
 30 31  1  0  0  0  0
 30 29  1  0  0  0  0
 31 36  1  0  0  0  0
 32 30  2  0  0  0  0
 33 32  1  0  0  0  0
 33 27  1  0  0  0  0
 34 33  2  0  0  0  0
 35 31  1  0  0  0  0
 37  1  1  0  0  0  0
 37 39  1  0  0  0  0
 38 37  1  0  0  0  0
M  END
>  <minimizedAffinity>
-7.0206995

$$$$

 OpenBabel03272514493D

 39 44  0  0  0  0  0  0  0  0999 V2000
   31.5570   25.0780   45.3910 C   0  0  0  0  0  0  0  0  0  0  0  0
   31.5580   25.0990   43.9680 C   0  0  0  0  0  3  0  0  0  0  0  0
   32.0180   26.2370   43.3600 C   0  0  0  0  0  3  0  0  0  0  0  0
   32.4250   27.2200   44.1770 N   0  0  0  0  0  0  0  0  0  0  0  0
   32.4350   27.2270   45.4690 C   0  0  0  0  0  0  0  0  0  0  0  0
   31.9850   26.1180   46.0980 N   0  0  0  0  0  0  0  0  0  0  0  0
   32.9200   28.3930   46.0830 N   0  0  0  0  0  0  0  0  0  0  0  0
   34.0860   28.3180   46.7790 C   0  0  0  0  0  3  0  0  0  0  0  0
   34.3750   29.5620   47.2960 C   0  0  0  0  0  0  0  0  0  0  0  0
   33.3950   30.3710   46.9130 N   0  0  0  0  0  0  0  0  0  0  0  0
   32.4820   29.6510   46.1580 C   0  0  0  0  0  0  0  0  0  0  0  0
   31.2880   30.2020   45.6040 C   0  0  0  0  0  0  0  0  0  0  0  0
   31.2720   31.4490   44.9460 C   0  0  0  0  0  3  0  0  0  0  0  0
   29.9920   31.7260   44.5480 N   0  0  0  0  0  0  0  0  0  0  0  0
   29.2110   30.6420   44.9650 C   0  0  0  0  0  3  0  0  0  0  0  0
   30.0420   29.8030   45.5660 N   0  0  0  0  0  0  0  0  0  0  0  0
   29.2110   28.7210   45.8840 C   0  0  0  0  0  0  0  0  0  0  0  0
   29.1010   27.8590   44.8640 N   0  0  0  0  0  0  0  0  0  0  0  0
   28.2830   26.7800   44.9840 C   0  0  0  0  0  3  0  0  0  0  0  0
   27.5610   26.5160   46.0780 N   0  0  0  0  0  0  0  0  0  0  0  0
   27.6440   27.3580   47.1240 C   0  0  0  0  0  0  0  0  0  0  0  0
   26.9600   27.2090   48.3020 C   0  0  0  0  0  3  0  0  0  0  0  0
   27.0790   28.0960   49.3290 C   0  0  0  0  0  3  0  0  0  0  0  0
   27.9240   29.1930   49.1850 C   0  0  0  0  0  3  0  0  0  0  0  0
   28.6360   29.3980   48.0300 C   0  0  0  0  0  3  0  0  0  0  0  0
   28.4810   28.4770   47.0290 C   0  0  0  0  0  0  0  0  0  0  0  0
   35.5210   29.9220   48.0980 N   0  0  0  0  0  0  0  0  0  0  0  0
   36.5810   30.4580   47.4640 C   0  0  0  0  0  3  0  0  0  0  0  0
   37.6790   30.8030   48.2290 C   0  0  0  0  0  3  0  0  0  0  0  0
   37.6100   30.5710   49.5870 C   0  0  0  0  0  0  0  0  0  0  0  0
   38.6540   30.8700   50.5050 N   0  0  0  0  0  0  0  0  0  0  0  0
   36.5210   30.0260   50.1910 N   0  0  0  0  0  0  0  0  0  0  0  0
   35.4430   29.6900   49.4230 C   0  0  0  0  0  0  0  0  0  0  0  0
   34.4250   29.1860   49.9520 O   0  0  0  0  0  0  0  0  0  0  0  0
   38.5310   30.6690   51.5080 H   0  0  0  0  0  0  0  0  0  0  0  0
   39.5330   31.2870   50.1680 H   0  0  0  0  0  0  0  0  0  0  0  0
   31.0930   23.8900   46.0670 N   0  0  0  0  0  0  0  0  0  0  0  0
   31.0830   23.8530   47.0960 H   0  0  0  0  0  0  0  0  0  0  0  0
   30.7710   23.0780   45.5200 H   0  0  0  0  0  0  0  0  0  0  0  0
  1 37  1  0  0  0  0
  1  6  1  0  0  0  0
  2  1  2  0  0  0  0
  3  2  1  0  0  0  0
  3  4  2  0  0  0  0
  4  5  1  0  0  0  0
  5  7  1  0  0  0  0
  5  6  2  0  0  0  0
  7 11  1  0  0  0  0
  7  8  1  0  0  0  0
  8  9  2  0  0  0  0
  9 27  1  0  0  0  0
 10  9  1  0  0  0  0
 11 10  2  0  0  0  0
 12 11  1  0  0  0  0
 13 12  2  0  0  0  0
 14 13  1  0  0  0  0
 14 15  2  0  0  0  0
 15 16  1  0  0  0  0
 16 12  1  0  0  0  0
 16 17  1  0  0  0  0
 17 26  1  0  0  0  0
 18 19  1  0  0  0  0
 18 17  2  0  0  0  0
 19 20  2  0  0  0  0
 20 21  1  0  0  0  0
 21 22  1  0  0  0  0
 22 23  2  0  0  0  0
 24 23  1  0  0  0  0
 25 24  2  0  0  0  0
 26 21  2  0  0  0  0
 26 25  1  0  0  0  0
 27 33  1  0  0  0  0
 28 27  1  0  0  0  0
 28 29  2  0  0  0  0
 29 30  1  0  0  0  0
 30 32  2  0  0  0  0
 30 31  1  0  0  0  0
 31 35  1  0  0  0  0
 33 34  2  0  0  0  0
 33 32  1  0  0  0  0
 36 31  1  0  0  0  0
 37 38  1  0  0  0  0
 39 37  1  0  0  0  0
M  END
>  <minimizedAffinity>
-7.02059603

$$$$

 OpenBabel03272514493D

 39 44  0  0  0  0  0  0  0  0999 V2000
   36.2540   29.1460   49.7200 C   0  0  0  0  0  0  0  0  0  0  0  0
   36.6730   30.0090   48.6690 C   0  0  0  0  0  3  0  0  0  0  0  0
   35.8380   30.1320   47.5900 C   0  0  0  0  0  3  0  0  0  0  0  0
   34.7010   29.4210   47.6380 N   0  0  0  0  0  0  0  0  0  0  0  0
   34.2970   28.6320   48.5780 C   0  0  0  0  0  0  0  0  0  0  0  0
   35.1010   28.4890   49.6560 N   0  0  0  0  0  0  0  0  0  0  0  0
   33.0550   28.0090   48.3770 N   0  0  0  0  0  0  0  0  0  0  0  0
   32.0200   28.3540   49.1910 C   0  0  0  0  0  3  0  0  0  0  0  0
   30.9070   27.6280   48.8260 C   0  0  0  0  0  0  0  0  0  0  0  0
   31.2710   26.8600   47.8060 N   0  0  0  0  0  0  0  0  0  0  0  0
   32.6080   27.0890   47.5200 C   0  0  0  0  0  0  0  0  0  0  0  0
   33.3360   26.4120   46.4960 C   0  0  0  0  0  0  0  0  0  0  0  0
   34.1390   25.2860   46.7680 C   0  0  0  0  0  3  0  0  0  0  0  0
   34.7300   24.8700   45.6050 N   0  0  0  0  0  0  0  0  0  0  0  0
   34.2890   25.7470   44.6080 C   0  0  0  0  0  3  0  0  0  0  0  0
   33.4820   26.6090   45.2110 N   0  0  0  0  0  0  0  0  0  0  0  0
   33.0240   27.3980   44.1480 C   0  0  0  0  0  0  0  0  0  0  0  0
   31.9630   26.8510   43.5390 N   0  0  0  0  0  0  0  0  0  0  0  0
   31.4290   27.4600   42.4480 C   0  0  0  0  0  3  0  0  0  0  0  0
   31.9050   28.5950   41.9270 N   0  0  0  0  0  0  0  0  0  0  0  0
   32.9690   29.1760   42.5090 C   0  0  0  0  0  0  0  0  0  0  0  0
   33.5580   30.3360   42.0790 C   0  0  0  0  0  3  0  0  0  0  0  0
   34.6400   30.8780   42.7050 C   0  0  0  0  0  3  0  0  0  0  0  0
   35.1690   30.2390   43.8220 C   0  0  0  0  0  3  0  0  0  0  0  0
   34.6250   29.0740   44.3020 C   0  0  0  0  0  3  0  0  0  0  0  0
   33.5390   28.5720   43.6360 C   0  0  0  0  0  0  0  0  0  0  0  0
   29.5980   27.6900   49.4300 N   0  0  0  0  0  0  0  0  0  0  0  0
   29.3870   26.9500   50.5350 C   0  0  0  0  0  3  0  0  0  0  0  0
   28.1340   27.0060   51.1160 C   0  0  0  0  0  3  0  0  0  0  0  0
   27.1890   27.8160   50.5200 C   0  0  0  0  0  0  0  0  0  0  0  0
   25.8590   27.9790   50.9960 N   0  0  0  0  0  0  0  0  0  0  0  0
   27.4400   28.5480   49.4020 N   0  0  0  0  0  0  0  0  0  0  0  0
   28.6820   28.4820   48.8390 C   0  0  0  0  0  0  0  0  0  0  0  0
   28.9420   29.1460   47.8080 O   0  0  0  0  0  0  0  0  0  0  0  0
   25.2070   28.6020   50.4980 H   0  0  0  0  0  0  0  0  0  0  0  0
   25.5480   27.4760   51.8380 H   0  0  0  0  0  0  0  0  0  0  0  0
   37.1000   29.0030   50.8800 N   0  0  0  0  0  0  0  0  0  0  0  0
   36.8160   28.3830   51.6520 H   0  0  0  0  0  0  0  0  0  0  0  0
   37.9890   29.5200   50.9370 H   0  0  0  0  0  0  0  0  0  0  0  0
  1 37  1  0  0  0  0
  2  1  2  0  0  0  0
  3  4  2  0  0  0  0
  3  2  1  0  0  0  0
  4  5  1  0  0  0  0
  5  6  2  0  0  0  0
  6  1  1  0  0  0  0
  7  5  1  0  0  0  0
  7  8  1  0  0  0  0
  9  8  2  0  0  0  0
  9 27  1  0  0  0  0
 10  9  1  0  0  0  0
 11 10  2  0  0  0  0
 11  7  1  0  0  0  0
 12 13  2  0  0  0  0
 12 11  1  0  0  0  0
 14 13  1  0  0  0  0
 15 16  1  0  0  0  0
 15 14  2  0  0  0  0
 16 12  1  0  0  0  0
 17 16  1  0  0  0  0
 18 17  2  0  0  0  0
 19 18  1  0  0  0  0
 20 19  2  0  0  0  0
 20 21  1  0  0  0  0
 21 26  1  0  0  0  0
 22 21  2  0  0  0  0
 22 23  1  0  0  0  0
 23 24  2  0  0  0  0
 24 25  1  0  0  0  0
 26 17  1  0  0  0  0
 26 25  2  0  0  0  0
 27 28  1  0  0  0  0
 28 29  2  0  0  0  0
 30 31  1  0  0  0  0
 30 29  1  0  0  0  0
 31 36  1  0  0  0  0
 32 30  2  0  0  0  0
 33 32  1  0  0  0  0
 33 27  1  0  0  0  0
 34 33  2  0  0  0  0
 35 31  1  0  0  0  0
 37 39  1  0  0  0  0
 37 38  1  0  0  0  0
M  END
>  <minimizedAffinity>
-6.79370928

$$$$

 OpenBabel03272514493D

 39 44  0  0  0  0  0  0  0  0999 V2000
   32.1510   27.8060   41.8830 C   0  0  0  0  0  0  0  0  0  0  0  0
   31.0370   28.6000   41.4910 C   0  0  0  0  0  3  0  0  0  0  0  0
   30.4040   29.3160   42.4720 C   0  0  0  0  0  3  0  0  0  0  0  0
   30.9060   29.1940   43.7110 N   0  0  0  0  0  0  0  0  0  0  0  0
   31.9130   28.4820   44.0930 C   0  0  0  0  0  0  0  0  0  0  0  0
   32.5580   27.7620   43.1460 N   0  0  0  0  0  0  0  0  0  0  0  0
   32.2340   28.5370   45.4590 N   0  0  0  0  0  0  0  0  0  0  0  0
   33.4100   29.1170   45.8230 C   0  0  0  0  0  3  0  0  0  0  0  0
   33.5260   29.0630   47.1950 C   0  0  0  0  0  0  0  0  0  0  0  0
   32.4330   28.4590   47.6450 N   0  0  0  0  0  0  0  0  0  0  0  0
   31.6220   28.1260   46.5710 C   0  0  0  0  0  0  0  0  0  0  0  0
   30.3760   27.4400   46.6890 C   0  0  0  0  0  0  0  0  0  0  0  0
   30.2190   26.0980   46.2880 C   0  0  0  0  0  3  0  0  0  0  0  0
   28.9200   25.7210   46.4950 N   0  0  0  0  0  0  0  0  0  0  0  0
   28.2680   26.8410   47.0260 C   0  0  0  0  0  3  0  0  0  0  0  0
   29.1880   27.7920   47.1080 N   0  0  0  0  0  0  0  0  0  0  0  0
   28.4890   28.8440   47.7130 C   0  0  0  0  0  0  0  0  0  0  0  0
   28.4930   28.7450   49.0490 N   0  0  0  0  0  0  0  0  0  0  0  0
   27.8080   29.6550   49.7900 C   0  0  0  0  0  3  0  0  0  0  0  0
   27.1120   30.6670   49.2630 N   0  0  0  0  0  0  0  0  0  0  0  0
   27.0830   30.8020   47.9250 C   0  0  0  0  0  0  0  0  0  0  0  0
   26.4090   31.7890   47.2540 C   0  0  0  0  0  3  0  0  0  0  0  0
   26.4110   31.8750   45.8940 C   0  0  0  0  0  3  0  0  0  0  0  0
   27.1200   30.9330   45.1540 C   0  0  0  0  0  3  0  0  0  0  0  0
   27.8150   29.9200   45.7670 C   0  0  0  0  0  3  0  0  0  0  0  0
   27.7810   29.8800   47.1350 C   0  0  0  0  0  0  0  0  0  0  0  0
   34.6190   29.5650   47.9910 N   0  0  0  0  0  0  0  0  0  0  0  0
   35.6210   30.1940   47.3480 C   0  0  0  0  0  3  0  0  0  0  0  0
   36.6700   30.6760   48.1080 C   0  0  0  0  0  3  0  0  0  0  0  0
   36.6150   30.4750   49.4720 C   0  0  0  0  0  0  0  0  0  0  0  0
   37.6140   30.9100   50.3860 N   0  0  0  0  0  0  0  0  0  0  0  0
   35.5860   29.8340   50.0860 N   0  0  0  0  0  0  0  0  0  0  0  0
   34.5570   29.3630   49.3220 C   0  0  0  0  0  0  0  0  0  0  0  0
   33.5940   28.7680   49.8610 O   0  0  0  0  0  0  0  0  0  0  0  0
   37.5060   30.7240   51.3930 H   0  0  0  0  0  0  0  0  0  0  0  0
   38.4460   31.4100   50.0410 H   0  0  0  0  0  0  0  0  0  0  0  0
   32.8530   27.0490   40.8730 N   0  0  0  0  0  0  0  0  0  0  0  0
   33.6610   26.4680   41.1350 H   0  0  0  0  0  0  0  0  0  0  0  0
   32.5450   27.0910   39.8910 H   0  0  0  0  0  0  0  0  0  0  0  0
  1  6  1  0  0  0  0
  2  1  2  0  0  0  0
  2  3  1  0  0  0  0
  3  4  2  0  0  0  0
  4  5  1  0  0  0  0
  5  7  1  0  0  0  0
  6  5  2  0  0  0  0
  7  8  1  0  0  0  0
  7 11  1  0  0  0  0
  8  9  2  0  0  0  0
  9 10  1  0  0  0  0
  9 27  1  0  0  0  0
 11 12  1  0  0  0  0
 11 10  2  0  0  0  0
 12 16  1  0  0  0  0
 13 14  1  0  0  0  0
 13 12  2  0  0  0  0
 14 15  2  0  0  0  0
 15 16  1  0  0  0  0
 16 17  1  0  0  0  0
 17 18  1  0  0  0  0
 18 19  2  0  0  0  0
 20 19  1  0  0  0  0
 21 20  2  0  0  0  0
 22 21  1  0  0  0  0
 23 22  2  0  0  0  0
 24 25  2  0  0  0  0
 24 23  1  0  0  0  0
 25 26  1  0  0  0  0
 26 17  2  0  0  0  0
 26 21  1  0  0  0  0
 27 33  1  0  0  0  0
 28 27  1  0  0  0  0
 28 29  2  0  0  0  0
 29 30  1  0  0  0  0
 30 32  2  0  0  0  0
 30 31  1  0  0  0  0
 31 35  1  0  0  0  0
 33 34  2  0  0  0  0
 33 32  1  0  0  0  0
 36 31  1  0  0  0  0
 37 38  1  0  0  0  0
 37  1  1  0  0  0  0
 39 37  1  0  0  0  0
M  END
>  <minimizedAffinity>
-6.76014471

$$$$
