
 OpenBabel03272514303D

 30 34  0  0  0  0  0  0  0  0999 V2000
   34.2580   29.4990   44.6380 C   0  0  0  0  0  3  0  0  0  0  0  0
   33.1470   28.8010   45.1150 C   0  0  0  0  0  3  0  0  0  0  0  0
   33.1180   28.6370   46.4850 C   0  0  0  0  0  0  0  0  0  0  0  0
   34.1090   29.1390   47.2030 N   0  0  0  0  0  0  0  0  0  0  0  0
   35.1570   29.7950   46.7840 C   0  0  0  0  0  0  0  0  0  0  0  0
   35.1920   29.9560   45.4710 N   0  0  0  0  0  0  0  0  0  0  0  0
   32.0540   27.9490   47.1130 N   0  0  0  0  0  0  0  0  0  0  0  0
   32.0510   26.6790   47.5520 C   0  0  0  0  0  3  0  0  0  0  0  0
   30.8790   26.3650   48.0910 N   0  0  0  0  0  0  0  0  0  0  0  0
   30.1080   27.4540   47.9990 C   0  0  0  0  0  0  0  0  0  0  0  0
   30.8350   28.4170   47.4000 N   0  0  0  0  0  0  0  0  0  0  0  0
   28.7520   27.7480   48.3970 N   0  0  0  0  0  0  0  0  0  0  0  0
   27.7940   27.5680   47.4430 C   0  0  0  0  0  3  0  0  0  0  0  0
   26.5260   27.8660   47.8870 C   0  0  0  0  0  3  0  0  0  0  0  0
   26.1910   28.2980   49.1320 C   0  0  0  0  0  0  0  0  0  0  0  0
   25.0100   28.5560   49.4860 O   0  0  0  0  0  0  0  0  0  0  0  0
   27.1930   28.4550   50.0320 N   0  0  0  0  0  0  0  0  0  0  0  0
   28.4640   28.1750   49.6460 C   0  0  0  0  0  0  0  0  0  0  0  0
   29.4650   28.2900   50.4110 O   0  0  0  0  0  0  0  0  0  0  0  0
   26.9940   28.7790   50.9880 H   0  0  0  0  0  0  0  0  0  0  0  0
   36.2890   30.3830   47.4610 C   0  0  0  0  0  0  0  0  0  0  0  0
   37.2240   31.1660   46.7900 C   0  0  0  0  0  3  0  0  0  0  0  0
   38.3170   31.7460   47.3930 C   0  0  0  0  0  3  0  0  0  0  0  0
   38.5360   31.5640   48.7380 C   0  0  0  0  0  3  0  0  0  0  0  0
   37.6600   30.8110   49.4410 C   0  0  0  0  0  0  0  0  0  0  0  0
   37.8870   30.6320   50.7960 C   0  0  0  0  0  3  0  0  0  0  0  0
   37.0500   29.8860   51.5760 C   0  0  0  0  0  3  0  0  0  0  0  0
   35.9550   29.3120   50.9430 C   0  0  0  0  0  3  0  0  0  0  0  0
   35.7600   29.5110   49.5970 C   0  0  0  0  0  3  0  0  0  0  0  0
   36.5820   30.2500   48.8030 C   0  0  0  0  0  0  0  0  0  0  0  0
  1  2  2  0  0  0  0
  1  6  1  0  0  0  0
  2  3  1  0  0  0  0
  3  7  1  0  0  0  0
  3  4  2  0  0  0  0
  5  4  1  0  0  0  0
  5 21  1  0  0  0  0
  6  5  2  0  0  0  0
  7 11  1  0  0  0  0
  7  8  1  0  0  0  0
  8  9  2  0  0  0  0
 10  9  1  0  0  0  0
 10 12  1  0  0  0  0
 11 10  2  0  0  0  0
 12 18  1  0  0  0  0
 13 14  2  0  0  0  0
 13 12  1  0  0  0  0
 14 15  1  0  0  0  0
 15 16  2  0  0  0  0
 15 17  1  0  0  0  0
 17 20  1  0  0  0  0
 18 17  1  0  0  0  0
 18 19  2  0  0  0  0
 21 30  1  0  0  0  0
 22 23  1  0  0  0  0
 22 21  2  0  0  0  0
 23 24  2  0  0  0  0
 24 25  1  0  0  0  0
 25 26  1  0  0  0  0
 26 27  2  0  0  0  0
 28 27  1  0  0  0  0
 29 28  2  0  0  0  0
 30 25  2  0  0  0  0
 30 29  1  0  0  0  0
M  END
>  <minimizedAffinity>
-8.85037041

$$$$

 OpenBabel03272514303D

 30 34  0  0  0  0  0  0  0  0999 V2000
   34.4240   29.0510   45.0680 C   0  0  0  0  0  3  0  0  0  0  0  0
   33.0530   28.9490   44.8320 C   0  0  0  0  0  3  0  0  0  0  0  0
   32.2680   29.0260   45.9650 C   0  0  0  0  0  0  0  0  0  0  0  0
   32.8640   29.1860   47.1350 N   0  0  0  0  0  0  0  0  0  0  0  0
   34.1420   29.2840   47.3840 C   0  0  0  0  0  0  0  0  0  0  0  0
   34.9000   29.2100   46.3020 N   0  0  0  0  0  0  0  0  0  0  0  0
   30.8600   28.9390   45.8830 N   0  0  0  0  0  0  0  0  0  0  0  0
   30.1160   28.7880   44.7740 C   0  0  0  0  0  3  0  0  0  0  0  0
   28.8230   28.7430   45.0710 N   0  0  0  0  0  0  0  0  0  0  0  0
   28.7270   28.8680   46.3990 C   0  0  0  0  0  0  0  0  0  0  0  0
   29.9780   28.9860   46.8870 N   0  0  0  0  0  0  0  0  0  0  0  0
   27.6140   28.8950   47.3170 N   0  0  0  0  0  0  0  0  0  0  0  0
   27.1320   30.1290   47.6410 C   0  0  0  0  0  3  0  0  0  0  0  0
   26.0730   30.0820   48.5190 C   0  0  0  0  0  3  0  0  0  0  0  0
   25.5150   28.9610   49.0470 C   0  0  0  0  0  0  0  0  0  0  0  0
   24.5430   28.9760   49.8470 O   0  0  0  0  0  0  0  0  0  0  0  0
   26.0430   27.7670   48.6810 N   0  0  0  0  0  0  0  0  0  0  0  0
   27.0900   27.7540   47.8180 C   0  0  0  0  0  0  0  0  0  0  0  0
   27.6500   26.6930   47.4170 O   0  0  0  0  0  0  0  0  0  0  0  0
   25.6580   26.8870   49.0520 H   0  0  0  0  0  0  0  0  0  0  0  0
   34.9000   29.4570   48.6010 C   0  0  0  0  0  0  0  0  0  0  0  0
   34.5150   28.8650   49.8000 C   0  0  0  0  0  3  0  0  0  0  0  0
   35.2050   29.0020   50.9830 C   0  0  0  0  0  3  0  0  0  0  0  0
   36.3500   29.7620   51.0250 C   0  0  0  0  0  3  0  0  0  0  0  0
   36.7720   30.3620   49.8890 C   0  0  0  0  0  0  0  0  0  0  0  0
   37.9260   31.1270   49.9400 C   0  0  0  0  0  3  0  0  0  0  0  0
   38.4190   31.7640   48.8370 C   0  0  0  0  0  3  0  0  0  0  0  0
   37.7040   31.6100   47.6560 C   0  0  0  0  0  3  0  0  0  0  0  0
   36.5620   30.8440   47.6420 C   0  0  0  0  0  3  0  0  0  0  0  0
   36.0560   30.2010   48.7300 C   0  0  0  0  0  0  0  0  0  0  0  0
  1  6  1  0  0  0  0
  2  1  2  0  0  0  0
  2  3  1  0  0  0  0
  3  4  2  0  0  0  0
  4  5  1  0  0  0  0
  5 21  1  0  0  0  0
  6  5  2  0  0  0  0
  7  3  1  0  0  0  0
  7 11  1  0  0  0  0
  8  9  2  0  0  0  0
  8  7  1  0  0  0  0
  9 10  1  0  0  0  0
 10 11  2  0  0  0  0
 10 12  1  0  0  0  0
 12 13  1  0  0  0  0
 12 18  1  0  0  0  0
 13 14  2  0  0  0  0
 14 15  1  0  0  0  0
 15 16  2  0  0  0  0
 17 15  1  0  0  0  0
 17 20  1  0  0  0  0
 18 17  1  0  0  0  0
 19 18  2  0  0  0  0
 21 30  2  0  0  0  0
 21 22  1  0  0  0  0
 22 23  2  0  0  0  0
 23 24  1  0  0  0  0
 25 26  1  0  0  0  0
 25 24  2  0  0  0  0
 27 26  2  0  0  0  0
 28 27  1  0  0  0  0
 29 28  2  0  0  0  0
 29 30  1  0  0  0  0
 30 25  1  0  0  0  0
M  END
>  <minimizedAffinity>
-8.72928715

$$$$

 OpenBabel03272514303D

 30 34  0  0  0  0  0  0  0  0999 V2000
   32.3990   25.8490   47.5520 C   0  0  0  0  0  3  0  0  0  0  0  0
   31.0440   26.1770   47.4970 C   0  0  0  0  0  3  0  0  0  0  0  0
   30.7840   27.5290   47.4020 C   0  0  0  0  0  0  0  0  0  0  0  0
   31.8070   28.3680   47.3710 N   0  0  0  0  0  0  0  0  0  0  0  0
   33.0810   28.0890   47.4200 C   0  0  0  0  0  0  0  0  0  0  0  0
   33.3370   26.7940   47.5120 N   0  0  0  0  0  0  0  0  0  0  0  0
   29.4570   28.0130   47.3370 N   0  0  0  0  0  0  0  0  0  0  0  0
   28.3270   27.2880   47.2970 C   0  0  0  0  0  3  0  0  0  0  0  0
   27.2590   28.0740   47.2410 N   0  0  0  0  0  0  0  0  0  0  0  0
   27.7070   29.3350   47.2450 C   0  0  0  0  0  0  0  0  0  0  0  0
   29.0520   29.2870   47.3050 N   0  0  0  0  0  0  0  0  0  0  0  0
   27.0550   30.6210   47.2010 N   0  0  0  0  0  0  0  0  0  0  0  0
   26.9080   31.1770   45.9640 C   0  0  0  0  0  3  0  0  0  0  0  0
   26.2800   32.4020   45.9940 C   0  0  0  0  0  3  0  0  0  0  0  0
   25.8270   33.0470   47.1010 C   0  0  0  0  0  0  0  0  0  0  0  0
   25.2570   34.1690   47.0710 O   0  0  0  0  0  0  0  0  0  0  0  0
   26.0060   32.4370   48.2990 N   0  0  0  0  0  0  0  0  0  0  0  0
   26.6200   31.2270   48.3280 C   0  0  0  0  0  0  0  0  0  0  0  0
   26.8320   30.5780   49.3940 O   0  0  0  0  0  0  0  0  0  0  0  0
   25.6820   32.8820   49.1690 H   0  0  0  0  0  0  0  0  0  0  0  0
   34.2720   28.9060   47.3960 C   0  0  0  0  0  0  0  0  0  0  0  0
   34.7720   29.4440   46.2140 C   0  0  0  0  0  3  0  0  0  0  0  0
   35.9030   30.2270   46.1420 C   0  0  0  0  0  3  0  0  0  0  0  0
   36.6090   30.5180   47.2840 C   0  0  0  0  0  3  0  0  0  0  0  0
   36.1700   30.0210   48.4630 C   0  0  0  0  0  0  0  0  0  0  0  0
   36.8870   30.3180   49.6100 C   0  0  0  0  0  3  0  0  0  0  0  0
   36.5090   29.8550   50.8380 C   0  0  0  0  0  3  0  0  0  0  0  0
   35.3660   29.0680   50.8830 C   0  0  0  0  0  3  0  0  0  0  0  0
   34.6780   28.7930   49.7250 C   0  0  0  0  0  3  0  0  0  0  0  0
   35.0390   29.2450   48.4920 C   0  0  0  0  0  0  0  0  0  0  0  0
  2  1  2  0  0  0  0
  3  2  1  0  0  0  0
  4  3  2  0  0  0  0
  4  5  1  0  0  0  0
  5  6  2  0  0  0  0
  6  1  1  0  0  0  0
  7  3  1  0  0  0  0
  8  7  1  0  0  0  0
  9 10  1  0  0  0  0
  9  8  2  0  0  0  0
 10 11  2  0  0  0  0
 11  7  1  0  0  0  0
 12 10  1  0  0  0  0
 12 18  1  0  0  0  0
 13 14  2  0  0  0  0
 13 12  1  0  0  0  0
 14 15  1  0  0  0  0
 15 17  1  0  0  0  0
 16 15  2  0  0  0  0
 17 18  1  0  0  0  0
 17 20  1  0  0  0  0
 18 19  2  0  0  0  0
 21  5  1  0  0  0  0
 21 30  1  0  0  0  0
 22 21  2  0  0  0  0
 23 22  1  0  0  0  0
 23 24  2  0  0  0  0
 24 25  1  0  0  0  0
 25 30  2  0  0  0  0
 25 26  1  0  0  0  0
 26 27  2  0  0  0  0
 27 28  1  0  0  0  0
 29 28  2  0  0  0  0
 30 29  1  0  0  0  0
M  END
>  <minimizedAffinity>
-8.62542057

$$$$

 OpenBabel03272514303D

 30 34  0  0  0  0  0  0  0  0999 V2000
   35.4920   29.7880   44.1060 C   0  0  0  0  0  3  0  0  0  0  0  0
   34.2450   29.1850   44.2750 C   0  0  0  0  0  3  0  0  0  0  0  0
   33.8210   29.1020   45.5850 C   0  0  0  0  0  0  0  0  0  0  0  0
   34.6050   29.5850   46.5350 N   0  0  0  0  0  0  0  0  0  0  0  0
   35.7730   30.1540   46.4050 C   0  0  0  0  0  0  0  0  0  0  0  0
   36.1860   30.2360   45.1510 N   0  0  0  0  0  0  0  0  0  0  0  0
   32.5760   28.5150   45.9120 N   0  0  0  0  0  0  0  0  0  0  0  0
   31.8910   27.6060   45.1970 C   0  0  0  0  0  3  0  0  0  0  0  0
   30.7590   27.2770   45.8070 N   0  0  0  0  0  0  0  0  0  0  0  0
   30.7100   27.9870   46.9390 C   0  0  0  0  0  0  0  0  0  0  0  0
   31.8260   28.7410   46.9950 N   0  0  0  0  0  0  0  0  0  0  0  0
   29.7530   28.0760   48.0150 N   0  0  0  0  0  0  0  0  0  0  0  0
   28.8220   29.0660   47.9110 C   0  0  0  0  0  3  0  0  0  0  0  0
   27.9410   29.0950   48.9680 C   0  0  0  0  0  3  0  0  0  0  0  0
   27.9410   28.2560   50.0380 C   0  0  0  0  0  0  0  0  0  0  0  0
   27.1090   28.3270   50.9800 O   0  0  0  0  0  0  0  0  0  0  0  0
   28.8950   27.2930   50.0780 N   0  0  0  0  0  0  0  0  0  0  0  0
   29.7900   27.2200   49.0610 C   0  0  0  0  0  0  0  0  0  0  0  0
   30.7150   26.3580   49.0070 O   0  0  0  0  0  0  0  0  0  0  0  0
   28.9400   26.6310   50.8660 H   0  0  0  0  0  0  0  0  0  0  0  0
   36.7090   30.7120   47.3520 C   0  0  0  0  0  0  0  0  0  0  0  0
   37.6690   31.6470   46.9760 C   0  0  0  0  0  3  0  0  0  0  0  0
   38.5810   32.2060   47.8430 C   0  0  0  0  0  3  0  0  0  0  0  0
   38.5770   31.8440   49.1690 C   0  0  0  0  0  3  0  0  0  0  0  0
   37.6670   30.9380   49.5920 C   0  0  0  0  0  0  0  0  0  0  0  0
   37.6700   30.5780   50.9300 C   0  0  0  0  0  3  0  0  0  0  0  0
   36.7830   29.6710   51.4350 C   0  0  0  0  0  3  0  0  0  0  0  0
   35.8740   29.1220   50.5400 C   0  0  0  0  0  3  0  0  0  0  0  0
   35.8990   29.5020   49.2190 C   0  0  0  0  0  3  0  0  0  0  0  0
   36.7750   30.4050   48.6960 C   0  0  0  0  0  0  0  0  0  0  0  0
  1  2  2  0  0  0  0
  1  6  1  0  0  0  0
  2  3  1  0  0  0  0
  3  7  1  0  0  0  0
  3  4  2  0  0  0  0
  5  4  1  0  0  0  0
  5 21  1  0  0  0  0
  6  5  2  0  0  0  0
  7 11  1  0  0  0  0
  8  9  2  0  0  0  0
  8  7  1  0  0  0  0
  9 10  1  0  0  0  0
 10 11  2  0  0  0  0
 10 12  1  0  0  0  0
 12 18  1  0  0  0  0
 13 12  1  0  0  0  0
 13 14  2  0  0  0  0
 14 15  1  0  0  0  0
 15 17  1  0  0  0  0
 15 16  2  0  0  0  0
 17 20  1  0  0  0  0
 18 17  1  0  0  0  0
 19 18  2  0  0  0  0
 21 30  1  0  0  0  0
 22 21  2  0  0  0  0
 22 23  1  0  0  0  0
 23 24  2  0  0  0  0
 24 25  1  0  0  0  0
 25 26  1  0  0  0  0
 26 27  2  0  0  0  0
 28 27  1  0  0  0  0
 29 28  2  0  0  0  0
 30 29  1  0  0  0  0
 30 25  2  0  0  0  0
M  END
>  <minimizedAffinity>
-8.41249275

$$$$

 OpenBabel03272514303D

 30 34  0  0  0  0  0  0  0  0999 V2000
   34.2340   29.3920   44.9920 C   0  0  0  0  0  3  0  0  0  0  0  0
   33.0190   28.7390   45.2080 C   0  0  0  0  0  3  0  0  0  0  0  0
   32.7120   28.5240   46.5370 C   0  0  0  0  0  0  0  0  0  0  0  0
   33.5650   28.9410   47.4580 N   0  0  0  0  0  0  0  0  0  0  0  0
   34.7050   29.5530   47.2840 C   0  0  0  0  0  0  0  0  0  0  0  0
   35.0060   29.7620   46.0130 N   0  0  0  0  0  0  0  0  0  0  0  0
   31.5140   27.8740   46.9100 N   0  0  0  0  0  0  0  0  0  0  0  0
   31.2390   26.5610   46.8290 C   0  0  0  0  0  3  0  0  0  0  0  0
   30.0140   26.3030   47.2700 N   0  0  0  0  0  0  0  0  0  0  0  0
   29.4840   27.4730   47.6440 C   0  0  0  0  0  0  0  0  0  0  0  0
   30.4090   28.4270   47.4220 N   0  0  0  0  0  0  0  0  0  0  0  0
   28.2070   27.8530   48.1980 N   0  0  0  0  0  0  0  0  0  0  0  0
   27.2590   28.2500   47.3020 C   0  0  0  0  0  3  0  0  0  0  0  0
   26.0670   28.5990   47.8950 C   0  0  0  0  0  3  0  0  0  0  0  0
   25.7930   28.5740   49.2260 C   0  0  0  0  0  0  0  0  0  0  0  0
   24.6820   28.9040   49.7160 O   0  0  0  0  0  0  0  0  0  0  0  0
   26.7820   28.1690   50.0610 N   0  0  0  0  0  0  0  0  0  0  0  0
   27.9790   27.8130   49.5290 C   0  0  0  0  0  0  0  0  0  0  0  0
   28.9610   27.4220   50.2240 O   0  0  0  0  0  0  0  0  0  0  0  0
   26.6280   28.1310   51.0780 H   0  0  0  0  0  0  0  0  0  0  0  0
   35.7080   30.0500   48.1970 C   0  0  0  0  0  0  0  0  0  0  0  0
   35.6100   29.8630   49.5730 C   0  0  0  0  0  3  0  0  0  0  0  0
   36.5400   30.3180   50.4800 C   0  0  0  0  0  3  0  0  0  0  0  0
   37.6470   31.0040   50.0410 C   0  0  0  0  0  3  0  0  0  0  0  0
   37.7950   31.2160   48.7130 C   0  0  0  0  0  0  0  0  0  0  0  0
   38.9140   31.9080   48.2790 C   0  0  0  0  0  3  0  0  0  0  0  0
   39.1360   32.1630   46.9560 C   0  0  0  0  0  3  0  0  0  0  0  0
   38.1830   31.6930   46.0620 C   0  0  0  0  0  3  0  0  0  0  0  0
   37.0850   31.0100   46.5280 C   0  0  0  0  0  3  0  0  0  0  0  0
   36.8460   30.7460   47.8420 C   0  0  0  0  0  0  0  0  0  0  0  0
  1  2  2  0  0  0  0
  1  6  1  0  0  0  0
  2  3  1  0  0  0  0
  3  7  1  0  0  0  0
  3  4  2  0  0  0  0
  5  4  1  0  0  0  0
  5 21  1  0  0  0  0
  6  5  2  0  0  0  0
  7 11  1  0  0  0  0
  8  7  1  0  0  0  0
  8  9  2  0  0  0  0
  9 10  1  0  0  0  0
 10 12  1  0  0  0  0
 11 10  2  0  0  0  0
 12 18  1  0  0  0  0
 13 14  2  0  0  0  0
 13 12  1  0  0  0  0
 14 15  1  0  0  0  0
 15 16  2  0  0  0  0
 15 17  1  0  0  0  0
 17 20  1  0  0  0  0
 18 17  1  0  0  0  0
 18 19  2  0  0  0  0
 21 22  1  0  0  0  0
 22 23  2  0  0  0  0
 24 23  1  0  0  0  0
 25 24  2  0  0  0  0
 26 25  1  0  0  0  0
 27 26  2  0  0  0  0
 28 29  2  0  0  0  0
 28 27  1  0  0  0  0
 29 30  1  0  0  0  0
 30 21  2  0  0  0  0
 30 25  1  0  0  0  0
M  END
>  <minimizedAffinity>
-8.38887119

$$$$

 OpenBabel03272514303D

 30 34  0  0  0  0  0  0  0  0999 V2000
   34.2000   28.6430   44.2430 C   0  0  0  0  0  3  0  0  0  0  0  0
   32.8340   28.5790   44.5210 C   0  0  0  0  0  3  0  0  0  0  0  0
   32.4760   29.0800   45.7570 C   0  0  0  0  0  0  0  0  0  0  0  0
   33.4260   29.5610   46.5420 N   0  0  0  0  0  0  0  0  0  0  0  0
   34.7080   29.6330   46.3070 C   0  0  0  0  0  0  0  0  0  0  0  0
   35.0580   29.1540   45.1240 N   0  0  0  0  0  0  0  0  0  0  0  0
   31.1270   29.0820   46.1780 N   0  0  0  0  0  0  0  0  0  0  0  0
   30.0600   29.5280   45.4940 C   0  0  0  0  0  3  0  0  0  0  0  0
   28.9450   29.3730   46.1980 N   0  0  0  0  0  0  0  0  0  0  0  0
   29.2970   28.8160   47.3620 C   0  0  0  0  0  0  0  0  0  0  0  0
   30.6330   28.6410   47.3400 N   0  0  0  0  0  0  0  0  0  0  0  0
   28.5570   28.4060   48.5300 N   0  0  0  0  0  0  0  0  0  0  0  0
   28.4700   29.3220   49.5370 C   0  0  0  0  0  3  0  0  0  0  0  0
   27.7530   28.8680   50.6210 C   0  0  0  0  0  3  0  0  0  0  0  0
   27.1650   27.6470   50.7420 C   0  0  0  0  0  0  0  0  0  0  0  0
   26.5180   27.2830   51.7590 O   0  0  0  0  0  0  0  0  0  0  0  0
   27.2910   26.7860   49.7030 N   0  0  0  0  0  0  0  0  0  0  0  0
   27.9890   27.1820   48.6090 C   0  0  0  0  0  0  0  0  0  0  0  0
   28.1620   26.4520   47.5900 O   0  0  0  0  0  0  0  0  0  0  0  0
   26.8660   25.8490   49.7430 H   0  0  0  0  0  0  0  0  0  0  0  0
   35.8260   30.1290   47.0750 C   0  0  0  0  0  0  0  0  0  0  0  0
   36.8620   30.8490   46.4880 C   0  0  0  0  0  3  0  0  0  0  0  0
   37.9470   31.3400   47.1790 C   0  0  0  0  0  3  0  0  0  0  0  0
   38.0500   31.1290   48.5330 C   0  0  0  0  0  3  0  0  0  0  0  0
   37.0710   30.4350   49.1580 C   0  0  0  0  0  0  0  0  0  0  0  0
   37.1830   30.2260   50.5230 C   0  0  0  0  0  3  0  0  0  0  0  0
   36.2370   29.5360   51.2270 C   0  0  0  0  0  3  0  0  0  0  0  0
   35.1540   29.0510   50.5060 C   0  0  0  0  0  3  0  0  0  0  0  0
   35.0750   29.2770   49.1530 C   0  0  0  0  0  3  0  0  0  0  0  0
   36.0070   29.9620   48.4330 C   0  0  0  0  0  0  0  0  0  0  0  0
  1  2  2  0  0  0  0
  1  6  1  0  0  0  0
  2  3  1  0  0  0  0
  3  7  1  0  0  0  0
  3  4  2  0  0  0  0
  5  4  1  0  0  0  0
  5 21  1  0  0  0  0
  6  5  2  0  0  0  0
  7 11  1  0  0  0  0
  8  7  1  0  0  0  0
  8  9  2  0  0  0  0
  9 10  1  0  0  0  0
 10 12  1  0  0  0  0
 11 10  2  0  0  0  0
 12 18  1  0  0  0  0
 12 13  1  0  0  0  0
 13 14  2  0  0  0  0
 14 15  1  0  0  0  0
 15 16  2  0  0  0  0
 17 20  1  0  0  0  0
 17 15  1  0  0  0  0
 18 17  1  0  0  0  0
 19 18  2  0  0  0  0
 21 30  1  0  0  0  0
 22 21  2  0  0  0  0
 22 23  1  0  0  0  0
 23 24  2  0  0  0  0
 24 25  1  0  0  0  0
 25 26  1  0  0  0  0
 26 27  2  0  0  0  0
 28 27  1  0  0  0  0
 29 28  2  0  0  0  0
 30 29  1  0  0  0  0
 30 25  2  0  0  0  0
M  END
>  <minimizedAffinity>
-8.31149578

$$$$

 OpenBabel03272514303D

 30 34  0  0  0  0  0  0  0  0999 V2000
   32.4020   25.7300   47.4370 C   0  0  0  0  0  3  0  0  0  0  0  0
   31.0610   26.0740   47.2600 C   0  0  0  0  0  3  0  0  0  0  0  0
   30.7580   27.3840   47.5720 C   0  0  0  0  0  0  0  0  0  0  0  0
   31.7310   28.1730   47.9960 N   0  0  0  0  0  0  0  0  0  0  0  0
   32.9920   27.8780   48.1700 C   0  0  0  0  0  0  0  0  0  0  0  0
   33.2890   26.6240   47.8730 N   0  0  0  0  0  0  0  0  0  0  0  0
   29.4390   27.8770   47.4430 N   0  0  0  0  0  0  0  0  0  0  0  0
   28.3100   27.1600   47.3140 C   0  0  0  0  0  3  0  0  0  0  0  0
   27.2510   27.9540   47.2180 N   0  0  0  0  0  0  0  0  0  0  0  0
   27.7040   29.2110   47.2840 C   0  0  0  0  0  0  0  0  0  0  0  0
   29.0430   29.1530   47.4230 N   0  0  0  0  0  0  0  0  0  0  0  0
   27.0610   30.5020   47.2390 N   0  0  0  0  0  0  0  0  0  0  0  0
   26.9900   31.0940   46.0120 C   0  0  0  0  0  3  0  0  0  0  0  0
   26.3670   32.3210   46.0390 C   0  0  0  0  0  3  0  0  0  0  0  0
   25.8510   32.9370   47.1360 C   0  0  0  0  0  0  0  0  0  0  0  0
   25.2890   34.0630   47.1040 O   0  0  0  0  0  0  0  0  0  0  0  0
   25.9560   32.2920   48.3240 N   0  0  0  0  0  0  0  0  0  0  0  0
   26.5620   31.0780   48.3550 C   0  0  0  0  0  0  0  0  0  0  0  0
   26.7070   30.3980   49.4120 O   0  0  0  0  0  0  0  0  0  0  0  0
   25.5820   32.7140   49.1860 H   0  0  0  0  0  0  0  0  0  0  0  0
   34.1310   28.6430   48.6210 C   0  0  0  0  0  0  0  0  0  0  0  0
   34.4730   28.7300   49.9670 C   0  0  0  0  0  3  0  0  0  0  0  0
   35.5490   29.4460   50.4430 C   0  0  0  0  0  3  0  0  0  0  0  0
   36.3580   30.1310   49.5680 C   0  0  0  0  0  3  0  0  0  0  0  0
   36.0730   30.0820   48.2470 C   0  0  0  0  0  0  0  0  0  0  0  0
   36.8930   30.7750   47.3720 C   0  0  0  0  0  3  0  0  0  0  0  0
   36.6730   30.7760   46.0230 C   0  0  0  0  0  3  0  0  0  0  0  0
   35.5820   30.0460   45.5690 C   0  0  0  0  0  3  0  0  0  0  0  0
   34.7890   29.3700   46.4660 C   0  0  0  0  0  3  0  0  0  0  0  0
   34.9920   29.3570   47.8130 C   0  0  0  0  0  0  0  0  0  0  0  0
  1  6  1  0  0  0  0
  2  1  2  0  0  0  0
  2  3  1  0  0  0  0
  3  4  2  0  0  0  0
  4  5  1  0  0  0  0
  5 21  1  0  0  0  0
  6  5  2  0  0  0  0
  7  3  1  0  0  0  0
  8  7  1  0  0  0  0
  9 10  1  0  0  0  0
  9  8  2  0  0  0  0
 10 11  2  0  0  0  0
 11  7  1  0  0  0  0
 12 10  1  0  0  0  0
 12 18  1  0  0  0  0
 13 14  2  0  0  0  0
 13 12  1  0  0  0  0
 14 15  1  0  0  0  0
 15 17  1  0  0  0  0
 16 15  2  0  0  0  0
 17 18  1  0  0  0  0
 17 20  1  0  0  0  0
 18 19  2  0  0  0  0
 21 22  1  0  0  0  0
 22 23  2  0  0  0  0
 24 23  1  0  0  0  0
 25 24  2  0  0  0  0
 26 25  1  0  0  0  0
 27 26  2  0  0  0  0
 28 27  1  0  0  0  0
 28 29  2  0  0  0  0
 29 30  1  0  0  0  0
 30 25  1  0  0  0  0
 30 21  2  0  0  0  0
M  END
>  <minimizedAffinity>
-8.29445648

$$$$

 OpenBabel03272514303D

 30 34  0  0  0  0  0  0  0  0999 V2000
   33.5050   27.1320   47.4930 C   0  0  0  0  0  3  0  0  0  0  0  0
   32.7170   27.8220   46.5710 C   0  0  0  0  0  3  0  0  0  0  0  0
   32.9110   29.1880   46.5590 C   0  0  0  0  0  0  0  0  0  0  0  0
   33.7970   29.7080   47.3930 N   0  0  0  0  0  0  0  0  0  0  0  0
   34.5460   29.0870   48.2640 C   0  0  0  0  0  0  0  0  0  0  0  0
   34.3650   27.7770   48.2810 N   0  0  0  0  0  0  0  0  0  0  0  0
   32.1830   30.0190   45.6760 N   0  0  0  0  0  0  0  0  0  0  0  0
   30.8480   30.0990   45.5470 C   0  0  0  0  0  3  0  0  0  0  0  0
   30.5120   30.9880   44.6200 N   0  0  0  0  0  0  0  0  0  0  0  0
   31.6530   31.4940   44.1390 C   0  0  0  0  0  0  0  0  0  0  0  0
   32.6690   30.8960   44.7920 N   0  0  0  0  0  0  0  0  0  0  0  0
   31.9550   32.4820   43.1320 N   0  0  0  0  0  0  0  0  0  0  0  0
   32.1890   32.0070   41.8750 C   0  0  0  0  0  3  0  0  0  0  0  0
   32.4710   33.0000   40.9650 C   0  0  0  0  0  3  0  0  0  0  0  0
   32.5260   34.3340   41.2220 C   0  0  0  0  0  0  0  0  0  0  0  0
   32.7880   35.2020   40.3480 O   0  0  0  0  0  0  0  0  0  0  0  0
   32.2830   34.7380   42.4930 N   0  0  0  0  0  0  0  0  0  0  0  0
   32.0000   33.7990   43.4320 C   0  0  0  0  0  0  0  0  0  0  0  0
   31.7580   34.0750   44.6430 O   0  0  0  0  0  0  0  0  0  0  0  0
   32.3120   35.7360   42.7420 H   0  0  0  0  0  0  0  0  0  0  0  0
   35.5340   29.5390   49.2160 C   0  0  0  0  0  0  0  0  0  0  0  0
   35.4900   29.1670   50.5570 C   0  0  0  0  0  3  0  0  0  0  0  0
   36.4080   29.5730   51.4990 C   0  0  0  0  0  3  0  0  0  0  0  0
   37.4460   30.3960   51.1340 C   0  0  0  0  0  3  0  0  0  0  0  0
   37.5400   30.7900   49.8430 C   0  0  0  0  0  0  0  0  0  0  0  0
   38.5890   31.6200   49.4840 C   0  0  0  0  0  3  0  0  0  0  0  0
   38.7530   32.0620   48.2020 C   0  0  0  0  0  3  0  0  0  0  0  0
   37.8130   31.6380   47.2710 C   0  0  0  0  0  3  0  0  0  0  0  0
   36.7850   30.8150   47.6630 C   0  0  0  0  0  3  0  0  0  0  0  0
   36.6040   30.3640   48.9350 C   0  0  0  0  0  0  0  0  0  0  0  0
  1  6  1  0  0  0  0
  2  1  2  0  0  0  0
  3  2  1  0  0  0  0
  3  4  2  0  0  0  0
  4  5  1  0  0  0  0
  5  6  2  0  0  0  0
  5 21  1  0  0  0  0
  7  3  1  0  0  0  0
  8  7  1  0  0  0  0
  9  8  2  0  0  0  0
 10  9  1  0  0  0  0
 10 11  2  0  0  0  0
 11  7  1  0  0  0  0
 12 18  1  0  0  0  0
 12 10  1  0  0  0  0
 13 12  1  0  0  0  0
 14 15  1  0  0  0  0
 14 13  2  0  0  0  0
 15 17  1  0  0  0  0
 16 15  2  0  0  0  0
 17 20  1  0  0  0  0
 17 18  1  0  0  0  0
 18 19  2  0  0  0  0
 21 22  1  0  0  0  0
 22 23  2  0  0  0  0
 24 23  1  0  0  0  0
 25 24  2  0  0  0  0
 26 25  1  0  0  0  0
 27 26  2  0  0  0  0
 28 29  2  0  0  0  0
 28 27  1  0  0  0  0
 29 30  1  0  0  0  0
 30 21  2  0  0  0  0
 30 25  1  0  0  0  0
M  END
>  <minimizedAffinity>
-7.8296566

$$$$

 OpenBabel03272514303D

 30 34  0  0  0  0  0  0  0  0999 V2000
   29.1650   29.5930   44.8590 C   0  0  0  0  0  3  0  0  0  0  0  0
   30.5310   29.3410   44.9950 C   0  0  0  0  0  3  0  0  0  0  0  0
   30.9180   28.9400   46.2580 C   0  0  0  0  0  0  0  0  0  0  0  0
   29.9930   28.8320   47.1970 N   0  0  0  0  0  0  0  0  0  0  0  0
   28.7120   29.0600   47.0980 C   0  0  0  0  0  0  0  0  0  0  0  0
   28.3340   29.4460   45.8900 N   0  0  0  0  0  0  0  0  0  0  0  0
   32.2710   28.6480   46.5460 N   0  0  0  0  0  0  0  0  0  0  0  0
   33.0090   27.6360   46.0590 C   0  0  0  0  0  3  0  0  0  0  0  0
   34.2430   27.6690   46.5460 N   0  0  0  0  0  0  0  0  0  0  0  0
   34.3060   28.7250   47.3650 C   0  0  0  0  0  0  0  0  0  0  0  0
   33.0960   29.3180   47.3580 N   0  0  0  0  0  0  0  0  0  0  0  0
   35.3550   29.2870   48.1810 N   0  0  0  0  0  0  0  0  0  0  0  0
   35.3910   28.8750   49.4800 C   0  0  0  0  0  3  0  0  0  0  0  0
   36.4140   29.4490   50.2020 C   0  0  0  0  0  3  0  0  0  0  0  0
   37.3270   30.3400   49.7330 C   0  0  0  0  0  0  0  0  0  0  0  0
   38.2450   30.8340   50.4390 O   0  0  0  0  0  0  0  0  0  0  0  0
   37.2330   30.7070   48.4310 N   0  0  0  0  0  0  0  0  0  0  0  0
   36.2420   30.1710   47.6730 C   0  0  0  0  0  0  0  0  0  0  0  0
   36.0720   30.4500   46.4500 O   0  0  0  0  0  0  0  0  0  0  0  0
   37.8990   31.3780   48.0250 H   0  0  0  0  0  0  0  0  0  0  0  0
   27.6190   28.9790   48.0390 C   0  0  0  0  0  0  0  0  0  0  0  0
   26.3810   29.5610   47.7820 C   0  0  0  0  0  3  0  0  0  0  0  0
   25.3120   29.5090   48.6480 C   0  0  0  0  0  3  0  0  0  0  0  0
   25.4340   28.8540   49.8500 C   0  0  0  0  0  3  0  0  0  0  0  0
   26.6150   28.2690   50.1530 C   0  0  0  0  0  0  0  0  0  0  0  0
   26.7300   27.6110   51.3670 C   0  0  0  0  0  3  0  0  0  0  0  0
   27.8890   26.9960   51.7470 C   0  0  0  0  0  3  0  0  0  0  0  0
   28.9520   27.0630   50.8560 C   0  0  0  0  0  3  0  0  0  0  0  0
   28.8020   27.7250   49.6600 C   0  0  0  0  0  3  0  0  0  0  0  0
   27.6560   28.3440   49.2630 C   0  0  0  0  0  0  0  0  0  0  0  0
  1  2  2  0  0  0  0
  1  6  1  0  0  0  0
  2  3  1  0  0  0  0
  3  7  1  0  0  0  0
  3  4  2  0  0  0  0
  5  4  1  0  0  0  0
  5 21  1  0  0  0  0
  6  5  2  0  0  0  0
  7 11  1  0  0  0  0
  8  7  1  0  0  0  0
  8  9  2  0  0  0  0
  9 10  1  0  0  0  0
 10 12  1  0  0  0  0
 11 10  2  0  0  0  0
 12 13  1  0  0  0  0
 13 14  2  0  0  0  0
 15 14  1  0  0  0  0
 15 16  2  0  0  0  0
 17 15  1  0  0  0  0
 18 12  1  0  0  0  0
 18 17  1  0  0  0  0
 19 18  2  0  0  0  0
 20 17  1  0  0  0  0
 21 30  1  0  0  0  0
 22 21  2  0  0  0  0
 22 23  1  0  0  0  0
 23 24  2  0  0  0  0
 24 25  1  0  0  0  0
 25 26  1  0  0  0  0
 26 27  2  0  0  0  0
 28 27  1  0  0  0  0
 29 28  2  0  0  0  0
 30 29  1  0  0  0  0
 30 25  2  0  0  0  0
M  END
>  <minimizedAffinity>
-7.78793097

$$$$
