
 OpenBabel03272514313D

 27 31  0  0  0  0  0  0  0  0999 V2000
   32.0120   26.2940   47.5800 C   0  0  0  0  0  3  0  0  0  0  0  0
   33.2100   26.9480   47.8590 C   0  0  0  0  0  3  0  0  0  0  0  0
   33.1140   27.9240   48.8370 C   0  0  0  0  0  0  0  0  0  0  0  0
   31.9370   28.1450   49.4010 N   0  0  0  0  0  0  0  0  0  0  0  0
   30.7970   27.5410   49.1520 C   0  0  0  0  0  0  0  0  0  0  0  0
   30.8900   26.6160   48.2260 N   0  0  0  0  0  0  0  0  0  0  0  0
   34.2480   28.6710   49.2260 N   0  0  0  0  0  0  0  0  0  0  0  0
   34.6010   29.0300   50.4720 C   0  0  0  0  0  3  0  0  0  0  0  0
   35.7290   29.7270   50.4590 N   0  0  0  0  0  0  0  0  0  0  0  0
   36.1160   29.8240   49.1890 C   0  0  0  0  0  0  0  0  0  0  0  0
   35.2040   29.1760   48.4560 N   0  0  0  0  0  0  0  0  0  0  0  0
   37.2710   30.4880   48.7290 N   0  0  0  0  0  0  0  0  0  0  0  0
   38.1870   31.1530   49.6050 C   0  0  0  0  0  2  0  0  0  0  0  0
   38.4880   32.5570   49.1310 C   0  0  0  0  0  2  0  0  0  0  0  0
   38.8430   32.6120   47.6690 C   0  0  0  0  0  2  0  0  0  0  0  0
   38.8030   31.2760   46.9850 C   0  0  0  0  0  2  0  0  0  0  0  0
   37.5580   30.5040   47.2930 C   0  0  0  0  0  2  0  0  0  0  0  0
   29.4670   27.6900   49.6930 C   0  0  0  0  0  0  0  0  0  0  0  0
   29.0860   27.0740   50.8700 C   0  0  0  0  0  3  0  0  0  0  0  0
   27.8270   27.1880   51.4210 C   0  0  0  0  0  3  0  0  0  0  0  0
   26.8610   27.9480   50.8040 C   0  0  0  0  0  3  0  0  0  0  0  0
   27.1910   28.5730   49.6460 C   0  0  0  0  0  0  0  0  0  0  0  0
   26.2210   29.3450   49.0130 C   0  0  0  0  0  3  0  0  0  0  0  0
   26.4610   30.0030   47.8550 C   0  0  0  0  0  3  0  0  0  0  0  0
   27.7340   29.8760   47.3150 C   0  0  0  0  0  3  0  0  0  0  0  0
   28.6750   29.1090   47.9550 C   0  0  0  0  0  3  0  0  0  0  0  0
   28.4530   28.4450   49.1120 C   0  0  0  0  0  0  0  0  0  0  0  0
  1  2  2  0  0  0  0
  1  6  1  0  0  0  0
  2  3  1  0  0  0  0
  3  7  1  0  0  0  0
  3  4  2  0  0  0  0
  5  4  1  0  0  0  0
  5 18  1  0  0  0  0
  6  5  2  0  0  0  0
  7  8  1  0  0  0  0
  9  8  2  0  0  0  0
 10  9  1  0  0  0  0
 11 10  2  0  0  0  0
 11  7  1  0  0  0  0
 12 10  1  0  0  0  0
 12 13  1  0  0  0  0
 14 13  1  0  0  0  0
 15 14  1  0  0  0  0
 16 17  1  0  0  0  0
 16 15  1  0  0  0  0
 17 12  1  0  0  0  0
 18 19  1  0  0  0  0
 19 20  2  0  0  0  0
 21 20  1  0  0  0  0
 22 21  2  0  0  0  0
 23 22  1  0  0  0  0
 24 23  2  0  0  0  0
 25 24  1  0  0  0  0
 25 26  2  0  0  0  0
 26 27  1  0  0  0  0
 27 22  1  0  0  0  0
 27 18  2  0  0  0  0
M  END
>  <minimizedAffinity>
-8.64812374

$$$$

 OpenBabel03272514313D

 27 31  0  0  0  0  0  0  0  0999 V2000
   33.5590   26.9450   47.2030 C   0  0  0  0  0  3  0  0  0  0  0  0
   32.2120   26.8940   47.5600 C   0  0  0  0  0  3  0  0  0  0  0  0
   31.8880   27.6500   48.6740 C   0  0  0  0  0  0  0  0  0  0  0  0
   32.8470   28.3300   49.2830 N   0  0  0  0  0  0  0  0  0  0  0  0
   34.1200   28.3910   48.9640 C   0  0  0  0  0  0  0  0  0  0  0  0
   34.4250   27.6750   47.9070 N   0  0  0  0  0  0  0  0  0  0  0  0
   30.5600   27.6950   49.1540 N   0  0  0  0  0  0  0  0  0  0  0  0
   29.9290   26.7690   49.8960 C   0  0  0  0  0  3  0  0  0  0  0  0
   28.6860   27.1470   50.1630 N   0  0  0  0  0  0  0  0  0  0  0  0
   28.5050   28.3340   49.5890 C   0  0  0  0  0  0  0  0  0  0  0  0
   29.6540   28.6490   48.9810 N   0  0  0  0  0  0  0  0  0  0  0  0
   27.3180   29.0940   49.6260 N   0  0  0  0  0  0  0  0  0  0  0  0
   26.1380   28.6600   50.3100 C   0  0  0  0  0  2  0  0  0  0  0  0
   24.9150   28.7660   49.4280 C   0  0  0  0  0  2  0  0  0  0  0  0
   24.8060   30.1030   48.7440 C   0  0  0  0  0  2  0  0  0  0  0  0
   25.9380   31.0380   49.0590 C   0  0  0  0  0  2  0  0  0  0  0  0
   27.2800   30.3870   48.9390 C   0  0  0  0  0  2  0  0  0  0  0  0
   35.2460   29.0870   49.5390 C   0  0  0  0  0  0  0  0  0  0  0  0
   35.5340   29.0150   50.8900 C   0  0  0  0  0  3  0  0  0  0  0  0
   36.5970   29.6640   51.4810 C   0  0  0  0  0  3  0  0  0  0  0  0
   37.4490   30.4360   50.7280 C   0  0  0  0  0  3  0  0  0  0  0  0
   37.2060   30.5350   49.3970 C   0  0  0  0  0  0  0  0  0  0  0  0
   38.0630   31.3140   48.6240 C   0  0  0  0  0  3  0  0  0  0  0  0
   37.8970   31.4680   47.2900 C   0  0  0  0  0  3  0  0  0  0  0  0
   36.8200   30.8080   46.7130 C   0  0  0  0  0  3  0  0  0  0  0  0
   35.9880   30.0450   47.4930 C   0  0  0  0  0  3  0  0  0  0  0  0
   36.1390   29.8800   48.8270 C   0  0  0  0  0  0  0  0  0  0  0  0
  1  2  2  0  0  0  0
  1  6  1  0  0  0  0
  2  3  1  0  0  0  0
  3  7  1  0  0  0  0
  3  4  2  0  0  0  0
  5  4  1  0  0  0  0
  5 18  1  0  0  0  0
  6  5  2  0  0  0  0
  7  8  1  0  0  0  0
  8  9  2  0  0  0  0
 10 12  1  0  0  0  0
 10  9  1  0  0  0  0
 11  7  1  0  0  0  0
 11 10  2  0  0  0  0
 12 13  1  0  0  0  0
 14 13  1  0  0  0  0
 15 16  1  0  0  0  0
 15 14  1  0  0  0  0
 17 16  1  0  0  0  0
 17 12  1  0  0  0  0
 18 19  1  0  0  0  0
 19 20  2  0  0  0  0
 21 20  1  0  0  0  0
 22 21  2  0  0  0  0
 23 22  1  0  0  0  0
 24 23  2  0  0  0  0
 25 24  1  0  0  0  0
 25 26  2  0  0  0  0
 26 27  1  0  0  0  0
 27 22  1  0  0  0  0
 27 18  2  0  0  0  0
M  END
>  <minimizedAffinity>
-8.54939461

$$$$

 OpenBabel03272514313D

 27 31  0  0  0  0  0  0  0  0999 V2000
   32.2040   25.9890   47.1730 C   0  0  0  0  0  3  0  0  0  0  0  0
   33.3900   26.5550   47.6380 C   0  0  0  0  0  3  0  0  0  0  0  0
   33.2250   27.7560   48.3070 C   0  0  0  0  0  0  0  0  0  0  0  0
   32.0040   28.2470   48.4430 N   0  0  0  0  0  0  0  0  0  0  0  0
   30.8750   27.7300   48.0120 C   0  0  0  0  0  0  0  0  0  0  0  0
   31.0320   26.5910   47.3790 N   0  0  0  0  0  0  0  0  0  0  0  0
   34.3390   28.4460   48.8350 N   0  0  0  0  0  0  0  0  0  0  0  0
   34.6760   28.5820   50.1290 C   0  0  0  0  0  3  0  0  0  0  0  0
   35.7870   29.2960   50.2540 N   0  0  0  0  0  0  0  0  0  0  0  0
   36.1780   29.6300   49.0260 C   0  0  0  0  0  0  0  0  0  0  0  0
   35.2860   29.1040   48.1790 N   0  0  0  0  0  0  0  0  0  0  0  0
   37.3190   30.3930   48.7040 N   0  0  0  0  0  0  0  0  0  0  0  0
   38.2140   30.9100   49.6950 C   0  0  0  0  0  2  0  0  0  0  0  0
   38.4820   32.3830   49.4850 C   0  0  0  0  0  2  0  0  0  0  0  0
   38.8440   32.7100   48.0610 C   0  0  0  0  0  2  0  0  0  0  0  0
   38.8400   31.5190   47.1460 C   0  0  0  0  0  2  0  0  0  0  0  0
   37.6130   30.6750   47.2970 C   0  0  0  0  0  2  0  0  0  0  0  0
   29.5000   28.1620   48.0970 C   0  0  0  0  0  0  0  0  0  0  0  0
   28.8830   28.8380   47.0600 C   0  0  0  0  0  3  0  0  0  0  0  0
   27.5740   29.2690   47.1000 C   0  0  0  0  0  3  0  0  0  0  0  0
   26.7960   29.0370   48.2090 C   0  0  0  0  0  3  0  0  0  0  0  0
   27.3590   28.3760   49.2510 C   0  0  0  0  0  0  0  0  0  0  0  0
   26.5800   28.1350   50.3800 C   0  0  0  0  0  3  0  0  0  0  0  0
   27.0590   27.4830   51.4640 C   0  0  0  0  0  3  0  0  0  0  0  0
   28.3800   27.0560   51.4060 C   0  0  0  0  0  3  0  0  0  0  0  0
   29.1290   27.3050   50.2840 C   0  0  0  0  0  3  0  0  0  0  0  0
   28.6680   27.9550   49.1920 C   0  0  0  0  0  0  0  0  0  0  0  0
  1  6  2  0  0  0  0
  1  2  1  0  0  0  0
  2  3  2  0  0  0  0
  3  4  1  0  0  0  0
  3  7  1  0  0  0  0
  5 18  1  0  0  0  0
  5  4  2  0  0  0  0
  6  5  1  0  0  0  0
  7  8  1  0  0  0  0
  8  9  2  0  0  0  0
 10  9  1  0  0  0  0
 11  7  1  0  0  0  0
 11 10  2  0  0  0  0
 12 10  1  0  0  0  0
 12 13  1  0  0  0  0
 14 13  1  0  0  0  0
 15 14  1  0  0  0  0
 16 17  1  0  0  0  0
 16 15  1  0  0  0  0
 17 12  1  0  0  0  0
 18 27  1  0  0  0  0
 19 20  1  0  0  0  0
 19 18  2  0  0  0  0
 20 21  2  0  0  0  0
 21 22  1  0  0  0  0
 22 23  1  0  0  0  0
 23 24  2  0  0  0  0
 25 24  1  0  0  0  0
 26 25  2  0  0  0  0
 27 22  2  0  0  0  0
 27 26  1  0  0  0  0
M  END
>  <minimizedAffinity>
-8.26523018

$$$$

 OpenBabel03272514313D

 27 31  0  0  0  0  0  0  0  0999 V2000
   34.0320   29.2660   44.1820 C   0  0  0  0  0  3  0  0  0  0  0  0
   32.7060   29.0380   44.5430 C   0  0  0  0  0  3  0  0  0  0  0  0
   32.4440   29.2140   45.8920 C   0  0  0  0  0  0  0  0  0  0  0  0
   33.4360   29.5690   46.6920 N   0  0  0  0  0  0  0  0  0  0  0  0
   34.6920   29.7880   46.3720 C   0  0  0  0  0  0  0  0  0  0  0  0
   34.9380   29.6220   45.0940 N   0  0  0  0  0  0  0  0  0  0  0  0
   31.1420   29.0180   46.4050 N   0  0  0  0  0  0  0  0  0  0  0  0
   29.9790   29.3840   45.8410 C   0  0  0  0  0  3  0  0  0  0  0  0
   28.9540   29.0370   46.6080 N   0  0  0  0  0  0  0  0  0  0  0  0
   29.4550   28.4380   47.6850 C   0  0  0  0  0  0  0  0  0  0  0  0
   30.7850   28.4360   47.5430 N   0  0  0  0  0  0  0  0  0  0  0  0
   28.7070   27.9140   48.7590 N   0  0  0  0  0  0  0  0  0  0  0  0
   27.2780   27.9680   48.8110 C   0  0  0  0  0  2  0  0  0  0  0  0
   26.7910   28.5140   50.1340 C   0  0  0  0  0  2  0  0  0  0  0  0
   27.4510   27.8520   51.3130 C   0  0  0  0  0  2  0  0  0  0  0  0
   28.4650   26.8110   50.9350 C   0  0  0  0  0  2  0  0  0  0  0  0
   29.4130   27.2820   49.8760 C   0  0  0  0  0  2  0  0  0  0  0  0
   35.8500   30.1750   47.1420 C   0  0  0  0  0  0  0  0  0  0  0  0
   36.9330   30.8070   46.5610 C   0  0  0  0  0  3  0  0  0  0  0  0
   38.0580   31.1930   47.2580 C   0  0  0  0  0  3  0  0  0  0  0  0
   38.1560   30.9600   48.6090 C   0  0  0  0  0  3  0  0  0  0  0  0
   37.1150   30.3440   49.2230 C   0  0  0  0  0  0  0  0  0  0  0  0
   37.2030   30.1040   50.5920 C   0  0  0  0  0  3  0  0  0  0  0  0
   36.2130   29.4950   51.2850 C   0  0  0  0  0  3  0  0  0  0  0  0
   35.0880   29.1130   50.5660 C   0  0  0  0  0  3  0  0  0  0  0  0
   35.0220   29.3590   49.2180 C   0  0  0  0  0  3  0  0  0  0  0  0
   36.0010   29.9660   48.5080 C   0  0  0  0  0  0  0  0  0  0  0  0
  1  2  2  0  0  0  0
  1  6  1  0  0  0  0
  2  3  1  0  0  0  0
  3  7  1  0  0  0  0
  3  4  2  0  0  0  0
  5  4  1  0  0  0  0
  5 18  1  0  0  0  0
  6  5  2  0  0  0  0
  7 11  1  0  0  0  0
  8  7  1  0  0  0  0
  8  9  2  0  0  0  0
  9 10  1  0  0  0  0
 10 12  1  0  0  0  0
 11 10  2  0  0  0  0
 12 13  1  0  0  0  0
 12 17  1  0  0  0  0
 13 14  1  0  0  0  0
 14 15  1  0  0  0  0
 16 15  1  0  0  0  0
 17 16  1  0  0  0  0
 18 27  1  0  0  0  0
 19 18  2  0  0  0  0
 19 20  1  0  0  0  0
 20 21  2  0  0  0  0
 21 22  1  0  0  0  0
 22 23  1  0  0  0  0
 23 24  2  0  0  0  0
 25 24  1  0  0  0  0
 26 25  2  0  0  0  0
 27 26  1  0  0  0  0
 27 22  2  0  0  0  0
M  END
>  <minimizedAffinity>
-8.20578671

$$$$

 OpenBabel03272514313D

 27 31  0  0  0  0  0  0  0  0999 V2000
   33.0670   27.1360   45.6130 C   0  0  0  0  0  3  0  0  0  0  0  0
   31.8370   27.0450   46.2620 C   0  0  0  0  0  3  0  0  0  0  0  0
   31.7300   27.8350   47.3950 C   0  0  0  0  0  0  0  0  0  0  0  0
   32.7640   28.5790   47.7520 N   0  0  0  0  0  0  0  0  0  0  0  0
   33.9310   28.6780   47.1550 C   0  0  0  0  0  0  0  0  0  0  0  0
   34.0310   27.9300   46.0810 N   0  0  0  0  0  0  0  0  0  0  0  0
   30.5400   27.8460   48.1570 N   0  0  0  0  0  0  0  0  0  0  0  0
   30.1470   26.9410   49.0680 C   0  0  0  0  0  3  0  0  0  0  0  0
   28.9720   27.2740   49.5870 N   0  0  0  0  0  0  0  0  0  0  0  0
   28.5960   28.4110   49.0050 C   0  0  0  0  0  0  0  0  0  0  0  0
   29.5610   28.7410   48.1400 N   0  0  0  0  0  0  0  0  0  0  0  0
   27.4020   29.1130   49.2670 N   0  0  0  0  0  0  0  0  0  0  0  0
   26.4300   28.6680   50.2200 C   0  0  0  0  0  2  0  0  0  0  0  0
   25.0390   28.6560   49.6290 C   0  0  0  0  0  2  0  0  0  0  0  0
   24.6990   29.9380   48.9170 C   0  0  0  0  0  2  0  0  0  0  0  0
   25.8120   30.9470   48.9220 C   0  0  0  0  0  2  0  0  0  0  0  0
   27.1330   30.3550   48.5390 C   0  0  0  0  0  2  0  0  0  0  0  0
   35.1210   29.4430   47.4430 C   0  0  0  0  0  0  0  0  0  0  0  0
   35.8090   30.1190   46.4530 C   0  0  0  0  0  3  0  0  0  0  0  0
   36.9490   30.8600   46.6830 C   0  0  0  0  0  3  0  0  0  0  0  0
   37.4680   30.9660   47.9510 C   0  0  0  0  0  3  0  0  0  0  0  0
   36.8250   30.3200   48.9560 C   0  0  0  0  0  0  0  0  0  0  0  0
   37.3420   30.4210   50.2440 C   0  0  0  0  0  3  0  0  0  0  0  0
   36.7650   29.8100   51.3060 C   0  0  0  0  0  3  0  0  0  0  0  0
   35.6190   29.0680   51.0540 C   0  0  0  0  0  3  0  0  0  0  0  0
   35.1270   28.9820   49.7760 C   0  0  0  0  0  3  0  0  0  0  0  0
   35.6890   29.5850   48.7040 C   0  0  0  0  0  0  0  0  0  0  0  0
  1  6  2  0  0  0  0
  1  2  1  0  0  0  0
  2  3  2  0  0  0  0
  3  4  1  0  0  0  0
  3  7  1  0  0  0  0
  5 18  1  0  0  0  0
  5  4  2  0  0  0  0
  6  5  1  0  0  0  0
  7  8  1  0  0  0  0
  8  9  2  0  0  0  0
 10 12  1  0  0  0  0
 10  9  1  0  0  0  0
 11  7  1  0  0  0  0
 11 10  2  0  0  0  0
 12 13  1  0  0  0  0
 14 13  1  0  0  0  0
 15 16  1  0  0  0  0
 15 14  1  0  0  0  0
 17 16  1  0  0  0  0
 17 12  1  0  0  0  0
 18 27  1  0  0  0  0
 19 20  1  0  0  0  0
 19 18  2  0  0  0  0
 20 21  2  0  0  0  0
 21 22  1  0  0  0  0
 22 23  1  0  0  0  0
 23 24  2  0  0  0  0
 25 24  1  0  0  0  0
 26 25  2  0  0  0  0
 27 22  2  0  0  0  0
 27 26  1  0  0  0  0
M  END
>  <minimizedAffinity>
-8.16331673

$$$$

 OpenBabel03272514313D

 27 31  0  0  0  0  0  0  0  0999 V2000
   34.4880   29.2070   44.5320 C   0  0  0  0  0  3  0  0  0  0  0  0
   33.3520   28.6020   45.0680 C   0  0  0  0  0  3  0  0  0  0  0  0
   33.2800   28.6490   46.4510 C   0  0  0  0  0  0  0  0  0  0  0  0
   34.2560   29.2410   47.1190 N   0  0  0  0  0  0  0  0  0  0  0  0
   35.3340   29.8150   46.6330 C   0  0  0  0  0  0  0  0  0  0  0  0
   35.4010   29.7710   45.3230 N   0  0  0  0  0  0  0  0  0  0  0  0
   32.1850   28.0760   47.1350 N   0  0  0  0  0  0  0  0  0  0  0  0
   32.0910   26.8280   47.6250 C   0  0  0  0  0  3  0  0  0  0  0  0
   30.9150   26.6380   48.2080 N   0  0  0  0  0  0  0  0  0  0  0  0
   30.2340   27.7760   48.0970 C   0  0  0  0  0  0  0  0  0  0  0  0
   31.0220   28.6360   47.4430 N   0  0  0  0  0  0  0  0  0  0  0  0
   28.9310   28.0060   48.5840 N   0  0  0  0  0  0  0  0  0  0  0  0
   28.1720   27.0090   49.2750 C   0  0  0  0  0  2  0  0  0  0  0  0
   26.7820   26.8710   48.6970 C   0  0  0  0  0  2  0  0  0  0  0  0
   26.0910   28.1980   48.5230 C   0  0  0  0  0  2  0  0  0  0  0  0
   26.9280   29.3750   48.9340 C   0  0  0  0  0  2  0  0  0  0  0  0
   28.3180   29.3210   48.3800 C   0  0  0  0  0  2  0  0  0  0  0  0
   36.4540   30.4860   47.2500 C   0  0  0  0  0  0  0  0  0  0  0  0
   37.3080   31.2940   46.5250 C   0  0  0  0  0  3  0  0  0  0  0  0
   38.3890   31.9520   47.0730 C   0  0  0  0  0  3  0  0  0  0  0  0
   38.6750   31.8290   48.4120 C   0  0  0  0  0  3  0  0  0  0  0  0
   37.8620   31.0460   49.1650 C   0  0  0  0  0  0  0  0  0  0  0  0
   38.1410   30.9160   50.5220 C   0  0  0  0  0  3  0  0  0  0  0  0
   37.3830   30.1560   51.3470 C   0  0  0  0  0  3  0  0  0  0  0  0
   36.3000   29.5020   50.7770 C   0  0  0  0  0  3  0  0  0  0  0  0
   36.0430   29.6440   49.4370 C   0  0  0  0  0  3  0  0  0  0  0  0
   36.7880   30.3980   48.5970 C   0  0  0  0  0  0  0  0  0  0  0  0
  1  2  2  0  0  0  0
  1  6  1  0  0  0  0
  2  3  1  0  0  0  0
  3  4  2  0  0  0  0
  3  7  1  0  0  0  0
  5  4  1  0  0  0  0
  5 18  1  0  0  0  0
  6  5  2  0  0  0  0
  7 11  1  0  0  0  0
  7  8  1  0  0  0  0
  8  9  2  0  0  0  0
 10  9  1  0  0  0  0
 10 12  1  0  0  0  0
 11 10  2  0  0  0  0
 12 13  1  0  0  0  0
 14 13  1  0  0  0  0
 15 14  1  0  0  0  0
 15 16  1  0  0  0  0
 17 12  1  0  0  0  0
 17 16  1  0  0  0  0
 18 27  1  0  0  0  0
 19 20  1  0  0  0  0
 19 18  2  0  0  0  0
 20 21  2  0  0  0  0
 21 22  1  0  0  0  0
 22 23  1  0  0  0  0
 23 24  2  0  0  0  0
 25 24  1  0  0  0  0
 26 25  2  0  0  0  0
 27 22  2  0  0  0  0
 27 26  1  0  0  0  0
M  END
>  <minimizedAffinity>
-8.16182327

$$$$

 OpenBabel03272514313D

 27 31  0  0  0  0  0  0  0  0999 V2000
   30.6500   25.9850   46.4750 C   0  0  0  0  0  3  0  0  0  0  0  0
   31.8240   26.6990   46.2430 C   0  0  0  0  0  3  0  0  0  0  0  0
   32.0420   27.7430   47.1260 C   0  0  0  0  0  0  0  0  0  0  0  0
   31.1510   27.9670   48.0790 N   0  0  0  0  0  0  0  0  0  0  0  0
   30.0390   27.3070   48.3150 C   0  0  0  0  0  0  0  0  0  0  0  0
   29.8350   26.3170   47.4780 N   0  0  0  0  0  0  0  0  0  0  0  0
   33.1920   28.5560   47.0130 N   0  0  0  0  0  0  0  0  0  0  0  0
   33.8130   28.9380   45.8840 C   0  0  0  0  0  3  0  0  0  0  0  0
   34.8630   29.7000   46.1590 N   0  0  0  0  0  0  0  0  0  0  0  0
   34.9270   29.8160   47.4840 C   0  0  0  0  0  0  0  0  0  0  0  0
   33.9040   29.1140   47.9840 N   0  0  0  0  0  0  0  0  0  0  0  0
   35.8980   30.5440   48.2010 N   0  0  0  0  0  0  0  0  0  0  0  0
   36.9570   31.2660   47.5620 C   0  0  0  0  0  2  0  0  0  0  0  0
   38.3000   30.9330   48.1710 C   0  0  0  0  0  2  0  0  0  0  0  0
   38.2900   31.0050   49.6750 C   0  0  0  0  0  2  0  0  0  0  0  0
   36.9520   31.3670   50.2550 C   0  0  0  0  0  2  0  0  0  0  0  0
   35.8290   30.5740   49.6630 C   0  0  0  0  0  2  0  0  0  0  0  0
   29.0020   27.4520   49.3090 C   0  0  0  0  0  0  0  0  0  0  0  0
   29.1590   26.9800   50.5990 C   0  0  0  0  0  3  0  0  0  0  0  0
   28.1950   27.0960   51.5780 C   0  0  0  0  0  3  0  0  0  0  0  0
   26.9940   27.7080   51.3060 C   0  0  0  0  0  3  0  0  0  0  0  0
   26.7960   28.1880   50.0530 C   0  0  0  0  0  0  0  0  0  0  0  0
   25.5840   28.8100   49.7670 C   0  0  0  0  0  3  0  0  0  0  0  0
   25.3020   29.3170   48.5440 C   0  0  0  0  0  3  0  0  0  0  0  0
   26.2840   29.1910   47.5710 C   0  0  0  0  0  3  0  0  0  0  0  0
   27.4710   28.5740   47.8750 C   0  0  0  0  0  3  0  0  0  0  0  0
   27.7720   28.0610   49.0900 C   0  0  0  0  0  0  0  0  0  0  0  0
  1  6  1  0  0  0  0
  2  1  2  0  0  0  0
  2  3  1  0  0  0  0
  3  4  2  0  0  0  0
  4  5  1  0  0  0  0
  5 18  1  0  0  0  0
  6  5  2  0  0  0  0
  7  3  1  0  0  0  0
  7 11  1  0  0  0  0
  8  9  2  0  0  0  0
  8  7  1  0  0  0  0
  9 10  1  0  0  0  0
 10 11  2  0  0  0  0
 10 12  1  0  0  0  0
 12 17  1  0  0  0  0
 13 14  1  0  0  0  0
 13 12  1  0  0  0  0
 14 15  1  0  0  0  0
 15 16  1  0  0  0  0
 17 16  1  0  0  0  0
 18 19  1  0  0  0  0
 19 20  2  0  0  0  0
 21 20  1  0  0  0  0
 22 21  2  0  0  0  0
 23 22  1  0  0  0  0
 24 23  2  0  0  0  0
 25 26  2  0  0  0  0
 25 24  1  0  0  0  0
 26 27  1  0  0  0  0
 27 18  2  0  0  0  0
 27 22  1  0  0  0  0
M  END
>  <minimizedAffinity>
-7.97349834

$$$$

 OpenBabel03272514313D

 27 31  0  0  0  0  0  0  0  0999 V2000
   31.0780   27.6490   45.4080 C   0  0  0  0  0  3  0  0  0  0  0  0
   32.3480   27.8330   45.9500 C   0  0  0  0  0  3  0  0  0  0  0  0
   32.3510   28.3260   47.2450 C   0  0  0  0  0  0  0  0  0  0  0  0
   31.1910   28.5710   47.8340 N   0  0  0  0  0  0  0  0  0  0  0  0
   29.9850   28.4040   47.3410 C   0  0  0  0  0  0  0  0  0  0  0  0
   29.9840   27.9360   46.1150 N   0  0  0  0  0  0  0  0  0  0  0  0
   33.5660   28.5640   47.9240 N   0  0  0  0  0  0  0  0  0  0  0  0
   33.9820   28.0050   49.0730 C   0  0  0  0  0  3  0  0  0  0  0  0
   35.1770   28.4660   49.4160 N   0  0  0  0  0  0  0  0  0  0  0  0
   35.5450   29.3370   48.4780 C   0  0  0  0  0  0  0  0  0  0  0  0
   34.5540   29.3820   47.5820 N   0  0  0  0  0  0  0  0  0  0  0  0
   36.7540   30.0610   48.4570 N   0  0  0  0  0  0  0  0  0  0  0  0
   37.7540   29.9360   49.4740 C   0  0  0  0  0  2  0  0  0  0  0  0
   38.1920   31.2880   49.9900 C   0  0  0  0  0  2  0  0  0  0  0  0
   38.5200   32.2540   48.8830 C   0  0  0  0  0  2  0  0  0  0  0  0
   38.3230   31.6870   47.5060 C   0  0  0  0  0  2  0  0  0  0  0  0
   37.0100   30.9850   47.3500 C   0  0  0  0  0  2  0  0  0  0  0  0
   28.6630   28.6300   47.8770 C   0  0  0  0  0  0  0  0  0  0  0  0
   27.7130   29.3600   47.1890 C   0  0  0  0  0  3  0  0  0  0  0  0
   26.4410   29.6010   47.6630 C   0  0  0  0  0  3  0  0  0  0  0  0
   26.0470   29.1070   48.8850 C   0  0  0  0  0  3  0  0  0  0  0  0
   26.9470   28.3830   49.5960 C   0  0  0  0  0  0  0  0  0  0  0  0
   26.5580   27.8780   50.8340 C   0  0  0  0  0  3  0  0  0  0  0  0
   27.3900   27.1450   51.6100 C   0  0  0  0  0  3  0  0  0  0  0  0
   28.6670   26.9130   51.1150 C   0  0  0  0  0  3  0  0  0  0  0  0
   29.0290   27.4210   49.8930 C   0  0  0  0  0  3  0  0  0  0  0  0
   28.2120   28.1550   49.1040 C   0  0  0  0  0  0  0  0  0  0  0  0
  1  2  2  0  0  0  0
  1  6  1  0  0  0  0
  2  3  1  0  0  0  0
  3  4  2  0  0  0  0
  3  7  1  0  0  0  0
  5  4  1  0  0  0  0
  5 18  1  0  0  0  0
  6  5  2  0  0  0  0
  7  8  1  0  0  0  0
  8  9  2  0  0  0  0
 10  9  1  0  0  0  0
 11  7  1  0  0  0  0
 11 10  2  0  0  0  0
 12 10  1  0  0  0  0
 12 13  1  0  0  0  0
 13 14  1  0  0  0  0
 15 14  1  0  0  0  0
 16 15  1  0  0  0  0
 17 16  1  0  0  0  0
 17 12  1  0  0  0  0
 18 27  1  0  0  0  0
 19 20  1  0  0  0  0
 19 18  2  0  0  0  0
 20 21  2  0  0  0  0
 21 22  1  0  0  0  0
 22 23  1  0  0  0  0
 23 24  2  0  0  0  0
 25 24  1  0  0  0  0
 26 25  2  0  0  0  0
 27 22  2  0  0  0  0
 27 26  1  0  0  0  0
M  END
>  <minimizedAffinity>
-7.90883541

$$$$

 OpenBabel03272514313D

 27 31  0  0  0  0  0  0  0  0999 V2000
   33.8230   26.3580   47.6090 C   0  0  0  0  0  3  0  0  0  0  0  0
   32.5420   26.7610   47.2340 C   0  0  0  0  0  3  0  0  0  0  0  0
   32.2200   28.0560   47.6060 C   0  0  0  0  0  0  0  0  0  0  0  0
   33.1200   28.7720   48.2610 N   0  0  0  0  0  0  0  0  0  0  0  0
   34.3300   28.4110   48.6240 C   0  0  0  0  0  0  0  0  0  0  0  0
   34.6350   27.1840   48.2690 N   0  0  0  0  0  0  0  0  0  0  0  0
   30.9550   28.6030   47.2950 N   0  0  0  0  0  0  0  0  0  0  0  0
   30.6450   29.4060   46.2630 C   0  0  0  0  0  3  0  0  0  0  0  0
   29.3580   29.7250   46.2850 N   0  0  0  0  0  0  0  0  0  0  0  0
   28.8230   29.1220   47.3440 C   0  0  0  0  0  0  0  0  0  0  0  0
   29.8080   28.4460   47.9440 N   0  0  0  0  0  0  0  0  0  0  0  0
   27.4710   29.1980   47.7380 N   0  0  0  0  0  0  0  0  0  0  0  0
   26.4920   29.9550   47.0180 C   0  0  0  0  0  2  0  0  0  0  0  0
   25.7030   30.8570   47.9390 C   0  0  0  0  0  2  0  0  0  0  0  0
   25.1890   30.1370   49.1570 C   0  0  0  0  0  2  0  0  0  0  0  0
   25.5840   28.6890   49.2170 C   0  0  0  0  0  2  0  0  0  0  0  0
   27.0380   28.4720   48.9340 C   0  0  0  0  0  2  0  0  0  0  0  0
   35.3900   29.0920   49.3290 C   0  0  0  0  0  0  0  0  0  0  0  0
   35.5640   28.9510   50.6930 C   0  0  0  0  0  3  0  0  0  0  0  0
   36.5610   29.5830   51.4070 C   0  0  0  0  0  3  0  0  0  0  0  0
   37.4580   30.4080   50.7710 C   0  0  0  0  0  3  0  0  0  0  0  0
   37.3260   30.5750   49.4310 C   0  0  0  0  0  0  0  0  0  0  0  0
   38.2300   31.4080   48.7770 C   0  0  0  0  0  3  0  0  0  0  0  0
   38.1740   31.6320   47.4440 C   0  0  0  0  0  3  0  0  0  0  0  0
   37.1630   30.9880   46.7420 C   0  0  0  0  0  3  0  0  0  0  0  0
   36.2830   30.1710   47.4070 C   0  0  0  0  0  3  0  0  0  0  0  0
   36.3240   29.9360   48.7380 C   0  0  0  0  0  0  0  0  0  0  0  0
  1  6  1  0  0  0  0
  2  3  1  0  0  0  0
  2  1  2  0  0  0  0
  3  4  2  0  0  0  0
  4  5  1  0  0  0  0
  5 18  1  0  0  0  0
  6  5  2  0  0  0  0
  7  3  1  0  0  0  0
  7 11  1  0  0  0  0
  8  9  2  0  0  0  0
  8  7  1  0  0  0  0
  9 10  1  0  0  0  0
 10 12  1  0  0  0  0
 10 11  2  0  0  0  0
 12 17  1  0  0  0  0
 13 12  1  0  0  0  0
 13 14  1  0  0  0  0
 14 15  1  0  0  0  0
 15 16  1  0  0  0  0
 17 16  1  0  0  0  0
 18 19  1  0  0  0  0
 19 20  2  0  0  0  0
 21 20  1  0  0  0  0
 22 21  2  0  0  0  0
 23 22  1  0  0  0  0
 24 23  2  0  0  0  0
 25 26  2  0  0  0  0
 25 24  1  0  0  0  0
 26 27  1  0  0  0  0
 27 18  2  0  0  0  0
 27 22  1  0  0  0  0
M  END
>  <minimizedAffinity>
-7.71504116

$$$$
