
 OpenBabel03272514543D

 35 38  0  0  1  0  0  0  0  0999 V2000
   32.2570   27.8830   48.3570 C   0  0  0  0  0  0  0  0  0  0  0  0
   32.1360   27.3950   47.0560 C   0  0  0  0  0  0  0  0  0  0  0  0
   30.8840   26.9260   46.6450 C   0  0  0  0  0  3  0  0  0  0  0  0
   29.8560   26.9690   47.5260 N   0  0  0  0  0  0  0  0  0  0  0  0
   29.9930   27.4400   48.7570 C   0  0  0  0  0  0  0  0  0  0  0  0
   31.1770   27.8890   49.1630 N   0  0  0  0  0  0  0  0  0  0  0  0
   28.8510   27.4540   49.6050 N   0  0  0  0  0  0  0  0  0  0  0  0
   29.0390   27.2830   51.0090 C   0  0  0  0  0  2  0  0  0  0  0  0
   27.7350   26.7520   51.5590 C   0  0  0  0  0  2  0  0  0  0  0  0
   26.5850   27.6520   51.3060 C   0  0  0  0  0  2  0  0  0  0  0  0
   26.5570   28.3130   49.9530 C   0  0  0  0  0  2  0  0  0  0  0  0
   27.5430   27.6510   49.0440 C   0  0  1  0  0  3  0  0  0  0  0  0
   33.2770   27.3610   46.1210 C   0  0  0  0  0  0  0  0  0  0  0  0
   34.2150   26.5280   46.6190 F   0  0  0  0  0  0  0  0  0  0  0  0
   33.8480   28.5830   45.8900 F   0  0  0  0  0  0  0  0  0  0  0  0
   32.8820   26.7860   44.9010 F   0  0  0  0  0  0  0  0  0  0  0  0
   33.4870   28.4210   48.9990 C   0  0  0  0  0  0  0  0  0  0  0  0
   34.4500   27.4320   49.1390 F   0  0  0  0  0  0  0  0  0  0  0  0
   34.0070   29.4730   48.2600 F   0  0  0  0  0  0  0  0  0  0  0  0
   33.2820   28.9560   50.2250 F   0  0  0  0  0  0  0  0  0  0  0  0
   27.5370   28.3380   47.7130 C   0  0  0  0  0  2  0  0  0  0  0  0
   27.0970   29.7500   47.8660 N   0  0  0  0  0  0  0  0  0  0  0  0
   26.9210   30.3950   49.0570 C   0  0  0  0  0  3  0  0  0  0  0  0
   26.5340   31.6490   48.8300 N   0  0  0  0  0  0  0  0  0  0  0  0
   26.4480   31.8510   47.5070 C   0  0  0  0  0  0  0  0  0  0  0  0
   26.0960   32.9410   46.7330 C   0  0  0  0  0  0  0  0  0  0  0  0
   25.7710   34.0360   47.2630 O   0  0  0  0  0  0  0  0  0  0  0  0
   26.0900   32.8640   45.3840 N   0  0  0  0  0  0  0  0  0  0  0  0
   26.4440   31.6730   44.8440 C   0  0  0  0  0  0  0  0  0  0  0  0
   26.4680   31.4950   43.4360 N   0  0  0  0  0  0  0  0  0  0  0  0
   26.7880   30.6080   45.5870 N   0  0  0  0  0  0  0  0  0  0  0  0
   26.8020   30.6580   46.9260 C   0  0  0  0  0  0  0  0  0  0  0  0
   25.8290   33.6680   44.7960 H   0  0  0  0  0  0  0  0  0  0  0  0
   26.7390   30.5860   43.0360 H   0  0  0  0  0  0  0  0  0  0  0  0
   26.2150   32.2760   42.8150 H   0  0  0  0  0  0  0  0  0  0  0  0
  1 17  1  0  0  0  0
  1  6  1  0  0  0  0
  2  1  2  0  0  0  0
  3  2  1  0  0  0  0
  3  4  2  0  0  0  0
  4  5  1  0  0  0  0
  5  6  2  0  0  0  0
  5  7  1  0  0  0  0
  7  8  1  0  0  0  0
  8  9  1  0  0  0  0
 10  9  1  0  0  0  0
 11 10  1  0  0  0  0
 12 21  1  6  0  0  0
 12  7  1  0  0  0  0
 12 11  1  0  0  0  0
 13 14  1  0  0  0  0
 13  2  1  0  0  0  0
 15 13  1  0  0  0  0
 16 13  1  0  0  0  0
 17 18  1  0  0  0  0
 17 20  1  0  0  0  0
 19 17  1  0  0  0  0
 21 22  1  0  0  0  0
 22 23  1  0  0  0  0
 24 23  2  0  0  0  0
 25 24  1  0  0  0  0
 26 27  2  0  0  0  0
 26 25  1  0  0  0  0
 28 26  1  0  0  0  0
 29 28  1  0  0  0  0
 29 31  2  0  0  0  0
 30 29  1  0  0  0  0
 31 32  1  0  0  0  0
 32 25  2  0  0  0  0
 32 22  1  0  0  0  0
 33 28  1  0  0  0  0
 34 30  1  0  0  0  0
 35 30  1  0  0  0  0
M  END
>  <minimizedAffinity>
-7.70949984

$$$$

 OpenBabel03272514543D

 35 38  0  0  1  0  0  0  0  0999 V2000
   28.5670   28.5890   47.8580 C   0  0  0  0  0  0  0  0  0  0  0  0
   28.5240   28.6540   49.2510 C   0  0  0  0  0  0  0  0  0  0  0  0
   29.5710   28.0680   49.9680 C   0  0  0  0  0  3  0  0  0  0  0  0
   30.5710   27.4680   49.2780 N   0  0  0  0  0  0  0  0  0  0  0  0
   30.5940   27.4200   47.9540 C   0  0  0  0  0  0  0  0  0  0  0  0
   29.6050   27.9730   47.2580 N   0  0  0  0  0  0  0  0  0  0  0  0
   31.6930   26.7780   47.3210 N   0  0  0  0  0  0  0  0  0  0  0  0
   31.4730   26.1140   46.0770 C   0  0  0  0  0  2  0  0  0  0  0  0
   32.5600   25.0710   45.9450 C   0  0  0  0  0  2  0  0  0  0  0  0
   33.9260   25.6440   45.9820 C   0  0  0  0  0  2  0  0  0  0  0  0
   34.1420   26.7590   46.9720 C   0  0  0  0  0  2  0  0  0  0  0  0
   32.9950   26.8170   47.9280 C   0  0  1  0  0  3  0  0  0  0  0  0
   27.4180   29.3150   49.9710 C   0  0  0  0  0  0  0  0  0  0  0  0
   27.5420   29.0430   51.2880 F   0  0  0  0  0  0  0  0  0  0  0  0
   26.1720   28.9330   49.5550 F   0  0  0  0  0  0  0  0  0  0  0  0
   27.5440   30.7110   49.8690 F   0  0  0  0  0  0  0  0  0  0  0  0
   27.5630   29.1370   46.9050 C   0  0  0  0  0  0  0  0  0  0  0  0
   27.3080   30.4760   47.1650 F   0  0  0  0  0  0  0  0  0  0  0  0
   27.9980   28.9920   45.5960 F   0  0  0  0  0  0  0  0  0  0  0  0
   26.3730   28.4920   46.9250 F   0  0  0  0  0  0  0  0  0  0  0  0
   33.1970   27.9520   48.8840 C   0  0  0  0  0  2  0  0  0  0  0  0
   34.1560   28.9370   48.3170 N   0  0  0  0  0  0  0  0  0  0  0  0
   33.9430   29.6860   47.1950 C   0  0  0  0  0  3  0  0  0  0  0  0
   34.9980   30.4700   46.9770 N   0  0  0  0  0  0  0  0  0  0  0  0
   35.9130   30.2530   47.9350 C   0  0  0  0  0  0  0  0  0  0  0  0
   37.1660   30.7780   48.1870 C   0  0  0  0  0  0  0  0  0  0  0  0
   37.6660   31.6550   47.4360 O   0  0  0  0  0  0  0  0  0  0  0  0
   37.8920   30.3650   49.2490 N   0  0  0  0  0  0  0  0  0  0  0  0
   37.3270   29.4210   50.0390 C   0  0  0  0  0  0  0  0  0  0  0  0
   38.0130   28.9250   51.1780 N   0  0  0  0  0  0  0  0  0  0  0  0
   36.1100   28.9050   49.8030 N   0  0  0  0  0  0  0  0  0  0  0  0
   35.3690   29.2970   48.7570 C   0  0  0  0  0  0  0  0  0  0  0  0
   38.8280   30.7480   49.4480 H   0  0  0  0  0  0  0  0  0  0  0  0
   37.5740   28.2070   51.7720 H   0  0  0  0  0  0  0  0  0  0  0  0
   38.9500   29.2820   51.4110 H   0  0  0  0  0  0  0  0  0  0  0  0
  1  2  1  0  0  0  0
  2  3  2  0  0  0  0
  2 13  1  0  0  0  0
  4  3  1  0  0  0  0
  5  4  2  0  0  0  0
  6  1  2  0  0  0  0
  6  5  1  0  0  0  0
  7 12  1  0  0  0  0
  7  5  1  0  0  0  0
  8  7  1  0  0  0  0
  9 10  1  0  0  0  0
  9  8  1  0  0  0  0
 10 11  1  0  0  0  0
 11 12  1  0  0  0  0
 12 21  1  6  0  0  0
 13 14  1  0  0  0  0
 15 13  1  0  0  0  0
 16 13  1  0  0  0  0
 17 20  1  0  0  0  0
 17 18  1  0  0  0  0
 17  1  1  0  0  0  0
 19 17  1  0  0  0  0
 22 32  1  0  0  0  0
 22 21  1  0  0  0  0
 23 22  1  0  0  0  0
 24 23  2  0  0  0  0
 24 25  1  0  0  0  0
 25 26  1  0  0  0  0
 25 32  2  0  0  0  0
 26 28  1  0  0  0  0
 27 26  2  0  0  0  0
 28 33  1  0  0  0  0
 28 29  1  0  0  0  0
 29 30  1  0  0  0  0
 30 35  1  0  0  0  0
 30 34  1  0  0  0  0
 31 29  2  0  0  0  0
 32 31  1  0  0  0  0
M  END
>  <minimizedAffinity>
-7.44716835

$$$$

 OpenBabel03272514543D

 35 38  0  0  1  0  0  0  0  0999 V2000
   36.1110   29.7260   49.5130 C   0  0  0  0  0  0  0  0  0  0  0  0
   36.6790   30.6250   48.6090 C   0  0  0  0  0  0  0  0  0  0  0  0
   36.1900   30.6340   47.2990 C   0  0  0  0  0  3  0  0  0  0  0  0
   35.1950   29.7740   46.9730 N   0  0  0  0  0  0  0  0  0  0  0  0
   34.6680   28.9300   47.8490 C   0  0  0  0  0  0  0  0  0  0  0  0
   35.1230   28.9090   49.0980 N   0  0  0  0  0  0  0  0  0  0  0  0
   33.6200   28.0740   47.4150 N   0  0  0  0  0  0  0  0  0  0  0  0
   33.4990   26.7830   48.0100 C   0  0  0  0  0  2  0  0  0  0  0  0
   32.7630   25.9140   47.0150 C   0  0  0  0  0  2  0  0  0  0  0  0
   31.4230   26.4390   46.6620 C   0  0  0  0  0  2  0  0  0  0  0  0
   31.3280   27.9330   46.4930 C   0  0  0  0  0  2  0  0  0  0  0  0
   32.6990   28.5210   46.4060 C   0  0  1  0  0  3  0  0  0  0  0  0
   37.7630   31.5480   48.9950 C   0  0  0  0  0  0  0  0  0  0  0  0
   38.2510   32.1290   47.8790 F   0  0  0  0  0  0  0  0  0  0  0  0
   38.7930   30.9500   49.6700 F   0  0  0  0  0  0  0  0  0  0  0  0
   37.2440   32.6040   49.7640 F   0  0  0  0  0  0  0  0  0  0  0  0
   36.4800   29.5450   50.9430 C   0  0  0  0  0  0  0  0  0  0  0  0
   35.4190   29.0250   51.6700 F   0  0  0  0  0  0  0  0  0  0  0  0
   37.5800   28.7080   51.0640 F   0  0  0  0  0  0  0  0  0  0  0  0
   36.8700   30.6830   51.5620 F   0  0  0  0  0  0  0  0  0  0  0  0
   32.5980   30.0100   46.2770 C   0  0  0  0  0  2  0  0  0  0  0  0
   32.7400   30.4130   44.8530 N   0  0  0  0  0  0  0  0  0  0  0  0
   33.1950   29.6080   43.8480 C   0  0  0  0  0  3  0  0  0  0  0  0
   33.1840   30.2810   42.6990 N   0  0  0  0  0  0  0  0  0  0  0  0
   32.7310   31.5240   42.9210 C   0  0  0  0  0  0  0  0  0  0  0  0
   32.5230   32.6190   42.1030 C   0  0  0  0  0  0  0  0  0  0  0  0
   32.7700   32.5660   40.8710 O   0  0  0  0  0  0  0  0  0  0  0  0
   32.0490   33.7810   42.6050 N   0  0  0  0  0  0  0  0  0  0  0  0
   31.7940   33.8070   43.9350 C   0  0  0  0  0  0  0  0  0  0  0  0
   31.2930   34.9830   44.5530 N   0  0  0  0  0  0  0  0  0  0  0  0
   31.9910   32.7490   44.7370 N   0  0  0  0  0  0  0  0  0  0  0  0
   32.4600   31.5850   44.2660 C   0  0  0  0  0  0  0  0  0  0  0  0
   31.8910   34.6040   42.0070 H   0  0  0  0  0  0  0  0  0  0  0  0
   31.1030   34.9920   45.5650 H   0  0  0  0  0  0  0  0  0  0  0  0
   31.1210   35.8270   43.9890 H   0  0  0  0  0  0  0  0  0  0  0  0
  1 17  1  0  0  0  0
  2 13  1  0  0  0  0
  2  1  2  0  0  0  0
  3  2  1  0  0  0  0
  4  3  2  0  0  0  0
  4  5  1  0  0  0  0
  5  6  2  0  0  0  0
  6  1  1  0  0  0  0
  7  5  1  0  0  0  0
  7  8  1  0  0  0  0
  9  8  1  0  0  0  0
 10  9  1  0  0  0  0
 11 10  1  0  0  0  0
 12 21  1  1  0  0  0
 12 11  1  0  0  0  0
 12  7  1  0  0  0  0
 13 15  1  0  0  0  0
 13 16  1  0  0  0  0
 14 13  1  0  0  0  0
 17 19  1  0  0  0  0
 17 20  1  0  0  0  0
 17 18  1  0  0  0  0
 22 21  1  0  0  0  0
 23 22  1  0  0  0  0
 24 25  1  0  0  0  0
 24 23  2  0  0  0  0
 25 32  2  0  0  0  0
 26 28  1  0  0  0  0
 26 25  1  0  0  0  0
 27 26  2  0  0  0  0
 28 29  1  0  0  0  0
 29 30  1  0  0  0  0
 29 31  2  0  0  0  0
 30 34  1  0  0  0  0
 32 31  1  0  0  0  0
 32 22  1  0  0  0  0
 33 28  1  0  0  0  0
 35 30  1  0  0  0  0
M  END
>  <minimizedAffinity>
-7.13221073

$$$$

 OpenBabel03272514543D

 35 38  0  0  1  0  0  0  0  0999 V2000
   28.6070   27.5160   48.2180 C   0  0  0  0  0  0  0  0  0  0  0  0
   28.8120   28.4040   49.2740 C   0  0  0  0  0  0  0  0  0  0  0  0
   30.1070   28.5310   49.7830 C   0  0  0  0  0  3  0  0  0  0  0  0
   31.0960   27.7880   49.2290 N   0  0  0  0  0  0  0  0  0  0  0  0
   30.8790   26.9520   48.2240 C   0  0  0  0  0  0  0  0  0  0  0  0
   29.6530   26.8200   47.7290 N   0  0  0  0  0  0  0  0  0  0  0  0
   31.9840   26.2240   47.7020 N   0  0  0  0  0  0  0  0  0  0  0  0
   31.7540   24.9190   47.1710 C   0  0  0  0  0  2  0  0  0  0  0  0
   33.0710   24.1800   47.2560 C   0  0  0  0  0  2  0  0  0  0  0  0
   34.1640   24.8480   46.5100 C   0  0  0  0  0  2  0  0  0  0  0  0
   34.1980   26.3510   46.6040 C   0  0  0  0  0  2  0  0  0  0  0  0
   33.2960   26.8100   47.7050 C   0  0  1  0  0  3  0  0  0  0  0  0
   27.7120   29.1980   49.8560 C   0  0  0  0  0  0  0  0  0  0  0  0
   28.2460   30.1730   50.6220 F   0  0  0  0  0  0  0  0  0  0  0  0
   26.8360   28.4700   50.6140 F   0  0  0  0  0  0  0  0  0  0  0  0
   27.0130   29.8690   48.8380 F   0  0  0  0  0  0  0  0  0  0  0  0
   27.3180   27.2230   47.5330 C   0  0  0  0  0  0  0  0  0  0  0  0
   26.9080   28.3010   46.7610 F   0  0  0  0  0  0  0  0  0  0  0  0
   27.4330   26.0960   46.7330 F   0  0  0  0  0  0  0  0  0  0  0  0
   26.3020   26.9220   48.3740 F   0  0  0  0  0  0  0  0  0  0  0  0
   33.3050   28.3070   47.7670 C   0  0  0  0  0  2  0  0  0  0  0  0
   34.4740   28.7810   48.5530 N   0  0  0  0  0  0  0  0  0  0  0  0
   34.7130   28.4860   49.8650 C   0  0  0  0  0  3  0  0  0  0  0  0
   35.8510   29.0630   50.2500 N   0  0  0  0  0  0  0  0  0  0  0  0
   36.3740   29.7390   49.2160 C   0  0  0  0  0  0  0  0  0  0  0  0
   37.5140   30.5050   49.0620 C   0  0  0  0  0  0  0  0  0  0  0  0
   38.3140   30.6790   50.0170 O   0  0  0  0  0  0  0  0  0  0  0  0
   37.8020   31.0920   47.8790 N   0  0  0  0  0  0  0  0  0  0  0  0
   36.9220   30.8860   46.8690 C   0  0  0  0  0  0  0  0  0  0  0  0
   37.1410   31.4610   45.5900 N   0  0  0  0  0  0  0  0  0  0  0  0
   35.8130   30.1430   47.0090 N   0  0  0  0  0  0  0  0  0  0  0  0
   35.5020   29.5510   48.1710 C   0  0  0  0  0  0  0  0  0  0  0  0
   38.6480   31.6660   47.7510 H   0  0  0  0  0  0  0  0  0  0  0  0
   36.4650   31.2980   44.8300 H   0  0  0  0  0  0  0  0  0  0  0  0
   37.9750   32.0410   45.4220 H   0  0  0  0  0  0  0  0  0  0  0  0
  1  2  1  0  0  0  0
  2  3  2  0  0  0  0
  2 13  1  0  0  0  0
  4  3  1  0  0  0  0
  5  4  2  0  0  0  0
  6  1  2  0  0  0  0
  6  5  1  0  0  0  0
  7 12  1  0  0  0  0
  7  5  1  0  0  0  0
  8  9  1  0  0  0  0
  8  7  1  0  0  0  0
 10 11  1  0  0  0  0
 10  9  1  0  0  0  0
 11 12  1  0  0  0  0
 12 21  1  6  0  0  0
 13 15  1  0  0  0  0
 13 14  1  0  0  0  0
 16 13  1  0  0  0  0
 17  1  1  0  0  0  0
 17 20  1  0  0  0  0
 18 17  1  0  0  0  0
 19 17  1  0  0  0  0
 21 22  1  0  0  0  0
 22 23  1  0  0  0  0
 23 24  2  0  0  0  0
 25 24  1  0  0  0  0
 26 25  1  0  0  0  0
 26 27  2  0  0  0  0
 28 26  1  0  0  0  0
 29 31  2  0  0  0  0
 29 28  1  0  0  0  0
 30 29  1  0  0  0  0
 31 32  1  0  0  0  0
 32 22  1  0  0  0  0
 32 25  2  0  0  0  0
 33 28  1  0  0  0  0
 34 30  1  0  0  0  0
 35 30  1  0  0  0  0
M  END
>  <minimizedAffinity>
-7.13205481

$$$$

 OpenBabel03272514543D

 35 38  0  0  1  0  0  0  0  0999 V2000
   26.4430   29.0690   47.6470 C   0  0  0  0  0  0  0  0  0  0  0  0
   26.5460   30.4610   47.6290 C   0  0  0  0  0  0  0  0  0  0  0  0
   26.7930   31.0840   46.4020 C   0  0  0  0  0  3  0  0  0  0  0  0
   26.9190   30.3110   45.2970 N   0  0  0  0  0  0  0  0  0  0  0  0
   26.8150   28.9900   45.3370 C   0  0  0  0  0  0  0  0  0  0  0  0
   26.5820   28.3830   46.4960 N   0  0  0  0  0  0  0  0  0  0  0  0
   26.9520   28.2660   44.1210 N   0  0  0  0  0  0  0  0  0  0  0  0
   27.5150   26.9550   44.1650 C   0  0  0  0  0  2  0  0  0  0  0  0
   28.0810   26.6810   42.7900 C   0  0  0  0  0  2  0  0  0  0  0  0
   27.0660   26.7630   41.7140 C   0  0  0  0  0  2  0  0  0  0  0  0
   26.0590   27.8750   41.8470 C   0  0  0  0  0  2  0  0  0  0  0  0
   26.5160   28.8510   42.8830 C   0  0  1  0  0  3  0  0  0  0  0  0
   26.4040   31.2750   48.8520 C   0  0  0  0  0  0  0  0  0  0  0  0
   26.4130   32.5780   48.5030 F   0  0  0  0  0  0  0  0  0  0  0  0
   27.3820   31.0590   49.7840 F   0  0  0  0  0  0  0  0  0  0  0  0
   25.1420   31.0560   49.4300 F   0  0  0  0  0  0  0  0  0  0  0  0
   26.1920   28.2070   48.8340 C   0  0  0  0  0  0  0  0  0  0  0  0
   24.8930   28.3610   49.2960 F   0  0  0  0  0  0  0  0  0  0  0  0
   26.4220   26.8740   48.5290 F   0  0  0  0  0  0  0  0  0  0  0  0
   27.0200   28.4490   49.8770 F   0  0  0  0  0  0  0  0  0  0  0  0
   25.4910   29.9330   43.0380 C   0  0  0  0  0  2  0  0  0  0  0  0
   25.9340   31.1640   42.3320 N   0  0  0  0  0  0  0  0  0  0  0  0
   26.5130   31.1970   41.0950 C   0  0  0  0  0  3  0  0  0  0  0  0
   26.7730   32.4600   40.7600 N   0  0  0  0  0  0  0  0  0  0  0  0
   26.3800   33.2700   41.7550 C   0  0  0  0  0  0  0  0  0  0  0  0
   26.4150   34.6400   41.9340 C   0  0  0  0  0  0  0  0  0  0  0  0
   26.8900   35.3980   41.0500 O   0  0  0  0  0  0  0  0  0  0  0  0
   25.9420   35.2050   43.0670 N   0  0  0  0  0  0  0  0  0  0  0  0
   25.4380   34.3620   44.0000 C   0  0  0  0  0  0  0  0  0  0  0  0
   24.9170   34.8630   45.2220 N   0  0  0  0  0  0  0  0  0  0  0  0
   25.3980   33.0300   43.8340 N   0  0  0  0  0  0  0  0  0  0  0  0
   25.8610   32.4440   42.7220 C   0  0  0  0  0  0  0  0  0  0  0  0
   25.9630   36.2240   43.2130 H   0  0  0  0  0  0  0  0  0  0  0  0
   24.5370   34.2130   45.9240 H   0  0  0  0  0  0  0  0  0  0  0  0
   24.9200   35.8760   45.4050 H   0  0  0  0  0  0  0  0  0  0  0  0
  1 17  1  0  0  0  0
  2  1  1  0  0  0  0
  2 13  1  0  0  0  0
  3  2  2  0  0  0  0
  4  5  2  0  0  0  0
  4  3  1  0  0  0  0
  5  6  1  0  0  0  0
  6  1  2  0  0  0  0
  7  8  1  0  0  0  0
  7  5  1  0  0  0  0
  9  8  1  0  0  0  0
 10 11  1  0  0  0  0
 10  9  1  0  0  0  0
 11 12  1  0  0  0  0
 12 21  1  1  0  0  0
 12  7  1  0  0  0  0
 13 16  1  0  0  0  0
 13 15  1  0  0  0  0
 14 13  1  0  0  0  0
 17 18  1  0  0  0  0
 17 20  1  0  0  0  0
 19 17  1  0  0  0  0
 22 32  1  0  0  0  0
 22 21  1  0  0  0  0
 23 22  1  0  0  0  0
 24 23  2  0  0  0  0
 24 25  1  0  0  0  0
 25 26  1  0  0  0  0
 25 32  2  0  0  0  0
 26 28  1  0  0  0  0
 27 26  2  0  0  0  0
 28 33  1  0  0  0  0
 28 29  1  0  0  0  0
 29 30  1  0  0  0  0
 30 35  1  0  0  0  0
 30 34  1  0  0  0  0
 31 29  2  0  0  0  0
 32 31  1  0  0  0  0
M  END
>  <minimizedAffinity>
-7.11928177

$$$$

 OpenBabel03272514543D

 35 38  0  0  1  0  0  0  0  0999 V2000
   36.2880   29.8440   49.6210 C   0  0  0  0  0  0  0  0  0  0  0  0
   36.9210   30.7660   48.7870 C   0  0  0  0  0  0  0  0  0  0  0  0
   36.4930   30.8500   47.4580 C   0  0  0  0  0  3  0  0  0  0  0  0
   35.4910   30.0350   47.0480 N   0  0  0  0  0  0  0  0  0  0  0  0
   34.9020   29.1680   47.8590 C   0  0  0  0  0  0  0  0  0  0  0  0
   35.2980   29.0760   49.1250 N   0  0  0  0  0  0  0  0  0  0  0  0
   33.8510   28.3650   47.3390 N   0  0  0  0  0  0  0  0  0  0  0  0
   33.6680   27.0510   47.8660 C   0  0  0  0  0  2  0  0  0  0  0  0
   32.9540   26.2520   46.7990 C   0  0  0  0  0  2  0  0  0  0  0  0
   31.6460   26.8320   46.4130 C   0  0  0  0  0  2  0  0  0  0  0  0
   31.6000   28.3340   46.3110 C   0  0  0  0  0  2  0  0  0  0  0  0
   32.9900   28.8850   46.3120 C   0  0  1  0  0  3  0  0  0  0  0  0
   38.0120   31.6380   49.2640 C   0  0  0  0  0  0  0  0  0  0  0  0
   38.6640   32.1350   48.1920 F   0  0  0  0  0  0  0  0  0  0  0  0
   38.9140   31.0100   50.0800 F   0  0  0  0  0  0  0  0  0  0  0  0
   37.4770   32.7580   49.9230 F   0  0  0  0  0  0  0  0  0  0  0  0
   36.5860   29.5860   51.0560 C   0  0  0  0  0  0  0  0  0  0  0  0
   35.4780   29.0650   51.7090 F   0  0  0  0  0  0  0  0  0  0  0  0
   37.6550   28.7120   51.1860 F   0  0  0  0  0  0  0  0  0  0  0  0
   36.9780   30.6830   51.7450 F   0  0  0  0  0  0  0  0  0  0  0  0
   32.9360   30.3800   46.2490 C   0  0  0  0  0  2  0  0  0  0  0  0
   32.7560   30.8290   44.8440 N   0  0  0  0  0  0  0  0  0  0  0  0
   31.6060   31.3520   44.3250 C   0  0  0  0  0  3  0  0  0  0  0  0
   31.7950   31.6570   43.0420 N   0  0  0  0  0  0  0  0  0  0  0  0
   33.0530   31.3430   42.6950 C   0  0  0  0  0  0  0  0  0  0  0  0
   33.7650   31.4420   41.5150 C   0  0  0  0  0  0  0  0  0  0  0  0
   33.2360   31.9120   40.4750 O   0  0  0  0  0  0  0  0  0  0  0  0
   35.0520   31.0350   41.4430 N   0  0  0  0  0  0  0  0  0  0  0  0
   35.5930   30.5340   42.5800 C   0  0  0  0  0  0  0  0  0  0  0  0
   36.9380   30.0820   42.6030 N   0  0  0  0  0  0  0  0  0  0  0  0
   34.9090   30.4350   43.7310 N   0  0  0  0  0  0  0  0  0  0  0  0
   33.6320   30.8300   43.8300 C   0  0  0  0  0  0  0  0  0  0  0  0
   35.5940   31.1030   40.5700 H   0  0  0  0  0  0  0  0  0  0  0  0
   37.3390   29.7020   43.4720 H   0  0  0  0  0  0  0  0  0  0  0  0
   37.5130   30.1330   41.7500 H   0  0  0  0  0  0  0  0  0  0  0  0
  1 17  1  0  0  0  0
  2 13  1  0  0  0  0
  2  1  2  0  0  0  0
  3  2  1  0  0  0  0
  4  3  2  0  0  0  0
  4  5  1  0  0  0  0
  5  6  2  0  0  0  0
  6  1  1  0  0  0  0
  7  5  1  0  0  0  0
  7  8  1  0  0  0  0
  9  8  1  0  0  0  0
 10  9  1  0  0  0  0
 11 12  1  0  0  0  0
 11 10  1  0  0  0  0
 12 21  1  1  0  0  0
 12  7  1  0  0  0  0
 13 16  1  0  0  0  0
 13 15  1  0  0  0  0
 14 13  1  0  0  0  0
 17 19  1  0  0  0  0
 17 18  1  0  0  0  0
 17 20  1  0  0  0  0
 22 21  1  0  0  0  0
 23 22  1  0  0  0  0
 24 23  2  0  0  0  0
 25 24  1  0  0  0  0
 25 32  2  0  0  0  0
 26 25  1  0  0  0  0
 27 26  2  0  0  0  0
 28 26  1  0  0  0  0
 28 29  1  0  0  0  0
 29 30  1  0  0  0  0
 29 31  2  0  0  0  0
 30 34  1  0  0  0  0
 31 32  1  0  0  0  0
 32 22  1  0  0  0  0
 33 28  1  0  0  0  0
 35 30  1  0  0  0  0
M  END
>  <minimizedAffinity>
-6.74227047

$$$$

 OpenBabel03272514543D

 35 38  0  0  1  0  0  0  0  0999 V2000
   35.8670   29.3650   49.1830 C   0  0  0  0  0  0  0  0  0  0  0  0
   36.1810   30.3580   48.2540 C   0  0  0  0  0  0  0  0  0  0  0  0
   35.5950   30.2800   46.9870 C   0  0  0  0  0  3  0  0  0  0  0  0
   34.7560   29.2480   46.7240 N   0  0  0  0  0  0  0  0  0  0  0  0
   34.4700   28.3170   47.6230 C   0  0  0  0  0  0  0  0  0  0  0  0
   35.0200   28.3780   48.8320 N   0  0  0  0  0  0  0  0  0  0  0  0
   33.5690   27.2800   47.2560 N   0  0  0  0  0  0  0  0  0  0  0  0
   33.7420   25.9870   47.8350 C   0  0  0  0  0  2  0  0  0  0  0  0
   33.1050   24.9990   46.8840 C   0  0  0  0  0  2  0  0  0  0  0  0
   31.6660   25.2620   46.6480 C   0  0  0  0  0  2  0  0  0  0  0  0
   31.2780   26.7120   46.5150 C   0  0  0  0  0  2  0  0  0  0  0  0
   32.5030   27.5490   46.3310 C   0  0  1  0  0  3  0  0  0  0  0  0
   37.1000   31.4680   48.5720 C   0  0  0  0  0  0  0  0  0  0  0  0
   38.2710   30.9470   48.9940 F   0  0  0  0  0  0  0  0  0  0  0  0
   36.6280   32.3300   49.5250 F   0  0  0  0  0  0  0  0  0  0  0  0
   37.4140   32.1820   47.4020 F   0  0  0  0  0  0  0  0  0  0  0  0
   36.3770   29.2510   50.5770 C   0  0  0  0  0  0  0  0  0  0  0  0
   37.6020   28.6000   50.6070 F   0  0  0  0  0  0  0  0  0  0  0  0
   36.5030   30.5050   51.1570 F   0  0  0  0  0  0  0  0  0  0  0  0
   35.5490   28.5870   51.4150 F   0  0  0  0  0  0  0  0  0  0  0  0
   32.1140   28.9920   46.2380 C   0  0  0  0  0  2  0  0  0  0  0  0
   30.6340   29.1240   46.2070 N   0  0  0  0  0  0  0  0  0  0  0  0
   29.8940   29.4430   45.1050 C   0  0  0  0  0  3  0  0  0  0  0  0
   28.6010   29.4650   45.4270 N   0  0  0  0  0  0  0  0  0  0  0  0
   28.4670   29.1660   46.7280 C   0  0  0  0  0  0  0  0  0  0  0  0
   27.3750   29.0540   47.5680 C   0  0  0  0  0  0  0  0  0  0  0  0
   26.2060   29.2440   47.1440 O   0  0  0  0  0  0  0  0  0  0  0  0
   27.5320   28.7380   48.8730 N   0  0  0  0  0  0  0  0  0  0  0  0
   28.8020   28.5390   49.3000 C   0  0  0  0  0  0  0  0  0  0  0  0
   29.0660   28.2020   50.6530 N   0  0  0  0  0  0  0  0  0  0  0  0
   29.8690   28.6450   48.4910 N   0  0  0  0  0  0  0  0  0  0  0  0
   29.7420   28.9580   47.1940 C   0  0  0  0  0  0  0  0  0  0  0  0
   26.7270   28.6520   49.5100 H   0  0  0  0  0  0  0  0  0  0  0  0
   30.0360   28.0530   50.9670 H   0  0  0  0  0  0  0  0  0  0  0  0
   28.2890   28.1060   51.3210 H   0  0  0  0  0  0  0  0  0  0  0  0
  1 17  1  0  0  0  0
  2 13  1  0  0  0  0
  2  1  2  0  0  0  0
  3  2  1  0  0  0  0
  4  3  2  0  0  0  0
  4  5  1  0  0  0  0
  5  6  2  0  0  0  0
  6  1  1  0  0  0  0
  7  5  1  0  0  0  0
  7  8  1  0  0  0  0
  9  8  1  0  0  0  0
 10  9  1  0  0  0  0
 11 10  1  0  0  0  0
 12 21  1  1  0  0  0
 12 11  1  0  0  0  0
 12  7  1  0  0  0  0
 13 14  1  0  0  0  0
 13 15  1  0  0  0  0
 16 13  1  0  0  0  0
 17 18  1  0  0  0  0
 17 19  1  0  0  0  0
 17 20  1  0  0  0  0
 22 21  1  0  0  0  0
 22 32  1  0  0  0  0
 23 24  2  0  0  0  0
 23 22  1  0  0  0  0
 24 25  1  0  0  0  0
 25 32  2  0  0  0  0
 25 26  1  0  0  0  0
 26 28  1  0  0  0  0
 27 26  2  0  0  0  0
 28 29  1  0  0  0  0
 28 33  1  0  0  0  0
 29 30  1  0  0  0  0
 30 34  1  0  0  0  0
 30 35  1  0  0  0  0
 31 29  2  0  0  0  0
 32 31  1  0  0  0  0
M  END
>  <minimizedAffinity>
-6.72935009

$$$$

 OpenBabel03272514543D

 35 38  0  0  1  0  0  0  0  0999 V2000
   32.1540   27.3980   48.2020 C   0  0  0  0  0  0  0  0  0  0  0  0
   32.2260   26.3700   47.2610 C   0  0  0  0  0  0  0  0  0  0  0  0
   31.0370   25.7360   46.8900 C   0  0  0  0  0  3  0  0  0  0  0  0
   29.8790   26.1490   47.4590 N   0  0  0  0  0  0  0  0  0  0  0  0
   29.8330   27.1300   48.3490 C   0  0  0  0  0  0  0  0  0  0  0  0
   30.9560   27.7420   48.7130 N   0  0  0  0  0  0  0  0  0  0  0  0
   28.5680   27.4990   48.8820 N   0  0  0  0  0  0  0  0  0  0  0  0
   28.5050   27.9880   50.2220 C   0  0  0  0  0  2  0  0  0  0  0  0
   27.0970   27.7320   50.7100 C   0  0  0  0  0  2  0  0  0  0  0  0
   26.0630   28.3910   49.8790 C   0  0  0  0  0  2  0  0  0  0  0  0
   26.3030   28.3670   48.3920 C   0  0  0  0  0  2  0  0  0  0  0  0
   27.3870   27.3890   48.0710 C   0  0  1  0  0  3  0  0  0  0  0  0
   33.5050   25.9440   46.6600 C   0  0  0  0  0  0  0  0  0  0  0  0
   33.2390   25.1220   45.6230 F   0  0  0  0  0  0  0  0  0  0  0  0
   34.3460   25.3030   47.5300 F   0  0  0  0  0  0  0  0  0  0  0  0
   34.1630   27.0500   46.0950 F   0  0  0  0  0  0  0  0  0  0  0  0
   33.2880   28.1980   48.7400 C   0  0  0  0  0  0  0  0  0  0  0  0
   33.6890   29.1690   47.8330 F   0  0  0  0  0  0  0  0  0  0  0  0
   32.9380   28.8000   49.9400 F   0  0  0  0  0  0  0  0  0  0  0  0
   34.3820   27.4650   49.0520 F   0  0  0  0  0  0  0  0  0  0  0  0
   27.6470   27.3970   46.5950 C   0  0  0  0  0  2  0  0  0  0  0  0
   27.4690   28.7690   46.0510 N   0  0  0  0  0  0  0  0  0  0  0  0
   28.0230   29.9020   46.5750 C   0  0  0  0  0  3  0  0  0  0  0  0
   27.6690   30.9530   45.8370 N   0  0  0  0  0  0  0  0  0  0  0  0
   26.8860   30.5390   44.8290 C   0  0  0  0  0  0  0  0  0  0  0  0
   26.2500   31.1930   43.7910 C   0  0  0  0  0  0  0  0  0  0  0  0
   26.3510   32.4390   43.6490 O   0  0  0  0  0  0  0  0  0  0  0  0
   25.5000   30.5130   42.8960 N   0  0  0  0  0  0  0  0  0  0  0  0
   25.4100   29.1730   43.0750 C   0  0  0  0  0  0  0  0  0  0  0  0
   24.6450   28.3730   42.1870 N   0  0  0  0  0  0  0  0  0  0  0  0
   26.0250   28.5280   44.0800 N   0  0  0  0  0  0  0  0  0  0  0  0
   26.7750   29.1790   44.9810 C   0  0  0  0  0  0  0  0  0  0  0  0
   25.0200   30.9880   42.1190 H   0  0  0  0  0  0  0  0  0  0  0  0
   24.5840   27.3560   42.3320 H   0  0  0  0  0  0  0  0  0  0  0  0
   24.1510   28.8110   41.3960 H   0  0  0  0  0  0  0  0  0  0  0  0
  1  6  1  0  0  0  0
  1 17  1  0  0  0  0
  2  1  2  0  0  0  0
  3  2  1  0  0  0  0
  3  4  2  0  0  0  0
  4  5  1  0  0  0  0
  5  6  2  0  0  0  0
  5  7  1  0  0  0  0
  7  8  1  0  0  0  0
  8  9  1  0  0  0  0
 10  9  1  0  0  0  0
 11 10  1  0  0  0  0
 12 21  1  6  0  0  0
 12 11  1  0  0  0  0
 12  7  1  0  0  0  0
 13  2  1  0  0  0  0
 13 15  1  0  0  0  0
 14 13  1  0  0  0  0
 16 13  1  0  0  0  0
 17 20  1  0  0  0  0
 17 19  1  0  0  0  0
 18 17  1  0  0  0  0
 22 23  1  0  0  0  0
 22 21  1  0  0  0  0
 24 23  2  0  0  0  0
 25 32  2  0  0  0  0
 25 24  1  0  0  0  0
 26 25  1  0  0  0  0
 27 26  2  0  0  0  0
 28 29  1  0  0  0  0
 28 26  1  0  0  0  0
 29 31  2  0  0  0  0
 30 34  1  0  0  0  0
 30 29  1  0  0  0  0
 31 32  1  0  0  0  0
 32 22  1  0  0  0  0
 33 28  1  0  0  0  0
 35 30  1  0  0  0  0
M  END
>  <minimizedAffinity>
-6.60343266

$$$$

 OpenBabel03272514543D

 35 38  0  0  1  0  0  0  0  0999 V2000
   28.5600   28.0960   48.8740 C   0  0  0  0  0  0  0  0  0  0  0  0
   27.5280   28.9610   48.5070 C   0  0  0  0  0  0  0  0  0  0  0  0
   27.7460   29.8240   47.4290 C   0  0  0  0  0  3  0  0  0  0  0  0
   28.9430   29.7780   46.7960 N   0  0  0  0  0  0  0  0  0  0  0  0
   29.9090   28.9470   47.1600 C   0  0  0  0  0  0  0  0  0  0  0  0
   29.7170   28.1210   48.1830 N   0  0  0  0  0  0  0  0  0  0  0  0
   31.1270   28.9670   46.4260 N   0  0  0  0  0  0  0  0  0  0  0  0
   32.3430   28.6640   47.1100 C   0  0  0  0  0  2  0  0  0  0  0  0
   33.4570   29.3140   46.3210 C   0  0  0  0  0  2  0  0  0  0  0  0
   33.5300   28.8430   44.9180 C   0  0  0  0  0  2  0  0  0  0  0  0
   32.2090   28.6380   44.2250 C   0  0  0  0  0  2  0  0  0  0  0  0
   31.1150   29.2730   45.0220 C   0  0  1  0  0  3  0  0  0  0  0  0
   26.2350   28.9850   49.2190 C   0  0  0  0  0  0  0  0  0  0  0  0
   25.5380   30.0650   48.8050 F   0  0  0  0  0  0  0  0  0  0  0  0
   26.3470   29.0260   50.5820 F   0  0  0  0  0  0  0  0  0  0  0  0
   25.4570   27.8770   48.8410 F   0  0  0  0  0  0  0  0  0  0  0  0
   28.5450   27.1070   49.9850 C   0  0  0  0  0  0  0  0  0  0  0  0
   27.5040   26.2020   49.8330 F   0  0  0  0  0  0  0  0  0  0  0  0
   29.7500   26.4220   50.0490 F   0  0  0  0  0  0  0  0  0  0  0  0
   28.4200   27.6580   51.2150 F   0  0  0  0  0  0  0  0  0  0  0  0
   29.7990   29.0330   44.3480 C   0  0  0  0  0  2  0  0  0  0  0  0
   29.4040   30.2250   43.5530 N   0  0  0  0  0  0  0  0  0  0  0  0
   28.4890   30.2280   42.5390 C   0  0  0  0  0  3  0  0  0  0  0  0
   28.3690   31.4620   42.0520 N   0  0  0  0  0  0  0  0  0  0  0  0
   29.1900   32.2830   42.7240 C   0  0  0  0  0  0  0  0  0  0  0  0
   29.4650   33.6340   42.6330 C   0  0  0  0  0  0  0  0  0  0  0  0
   28.8850   34.3590   41.7840 O   0  0  0  0  0  0  0  0  0  0  0  0
   30.3660   34.2170   43.4550 N   0  0  0  0  0  0  0  0  0  0  0  0
   30.9740   33.4110   44.3580 C   0  0  0  0  0  0  0  0  0  0  0  0
   31.9340   33.9320   45.2630 N   0  0  0  0  0  0  0  0  0  0  0  0
   30.7130   32.0970   44.4540 N   0  0  0  0  0  0  0  0  0  0  0  0
   29.8250   31.4940   43.6520 C   0  0  0  0  0  0  0  0  0  0  0  0
   30.5800   35.2230   43.3970 H   0  0  0  0  0  0  0  0  0  0  0  0
   32.3900   33.3100   45.9460 H   0  0  0  0  0  0  0  0  0  0  0  0
   32.1750   34.9330   45.2380 H   0  0  0  0  0  0  0  0  0  0  0  0
  1 17  1  0  0  0  0
  2  1  1  0  0  0  0
  2 13  1  0  0  0  0
  3  2  2  0  0  0  0
  4  5  2  0  0  0  0
  4  3  1  0  0  0  0
  5  6  1  0  0  0  0
  6  1  2  0  0  0  0
  7  8  1  0  0  0  0
  7  5  1  0  0  0  0
  9  8  1  0  0  0  0
 10  9  1  0  0  0  0
 11 10  1  0  0  0  0
 11 12  1  0  0  0  0
 12 21  1  6  0  0  0
 12  7  1  0  0  0  0
 13 15  1  0  0  0  0
 14 13  1  0  0  0  0
 16 13  1  0  0  0  0
 17 19  1  0  0  0  0
 17 20  1  0  0  0  0
 18 17  1  0  0  0  0
 22 32  1  0  0  0  0
 22 21  1  0  0  0  0
 23 22  1  0  0  0  0
 24 23  2  0  0  0  0
 24 25  1  0  0  0  0
 25 32  2  0  0  0  0
 26 25  1  0  0  0  0
 26 28  1  0  0  0  0
 27 26  2  0  0  0  0
 28 29  1  0  0  0  0
 29 31  2  0  0  0  0
 29 30  1  0  0  0  0
 30 34  1  0  0  0  0
 32 31  1  0  0  0  0
 33 28  1  0  0  0  0
 35 30  1  0  0  0  0
M  END
>  <minimizedAffinity>
-6.58441401

$$$$
