
 OpenBabel03272514453D

 34 38  0  0  0  0  0  0  0  0999 V2000
   29.0630   29.1320   46.5990 N   0  0  0  0  0  0  0  0  0  0  0  0
   28.8570   30.0110   45.6310 C   0  0  0  0  0  3  0  0  0  0  0  0
   27.7130   30.6820   45.9680 C   0  0  0  0  0  0  0  0  0  0  0  0
   27.2560   30.1980   47.1250 N   0  0  0  0  0  0  0  0  0  0  0  0
   28.1020   29.2220   47.5260 C   0  0  0  0  0  0  0  0  0  0  0  0
   27.9730   28.4510   48.7140 N   0  0  0  0  0  0  0  0  0  0  0  0
   27.9820   27.1110   48.8430 C   0  0  0  0  0  3  0  0  0  0  0  0
   27.8440   26.5200   50.0740 C   0  0  0  0  0  3  0  0  0  0  0  0
   27.6910   27.2920   51.2090 C   0  0  0  0  0  0  0  0  0  0  0  0
   27.5620   26.7770   52.3510 O   0  0  0  0  0  0  0  0  0  0  0  0
   27.6810   28.6340   51.0850 N   0  0  0  0  0  0  0  0  0  0  0  0
   27.8200   29.1830   49.8550 C   0  0  0  0  0  0  0  0  0  0  0  0
   27.7990   30.4600   49.8250 O   0  0  0  0  0  0  0  0  0  0  0  0
   27.5690   29.2340   51.9150 H   0  0  0  0  0  0  0  0  0  0  0  0
   31.1840   26.0850   46.4840 C   0  0  0  0  0  3  0  0  0  0  0  0
   30.0140   26.8620   46.4930 C   0  0  0  0  0  3  0  0  0  0  0  0
   30.1820   28.2470   46.5820 C   0  0  0  0  0  0  0  0  0  0  0  0
   31.4370   28.6770   46.6510 N   0  0  0  0  0  0  0  0  0  0  0  0
   32.5630   27.9580   46.6450 C   0  0  0  0  0  0  0  0  0  0  0  0
   32.3930   26.6340   46.5580 N   0  0  0  0  0  0  0  0  0  0  0  0
   33.7580   28.7700   46.7350 C   0  0  0  0  0  0  0  0  0  0  0  0
   34.3220   29.3290   45.6070 C   0  0  0  0  0  3  0  0  0  0  0  0
   35.4650   30.1150   45.6270 C   0  0  0  0  0  3  0  0  0  0  0  0
   36.1010   30.3740   46.8230 C   0  0  0  0  0  3  0  0  0  0  0  0
   35.5720   29.8380   47.9610 C   0  0  0  0  0  0  0  0  0  0  0  0
   36.2140   30.1040   49.1470 C   0  0  0  0  0  3  0  0  0  0  0  0
   35.7450   29.6010   50.3360 C   0  0  0  0  0  3  0  0  0  0  0  0
   34.5980   28.8180   50.2740 C   0  0  0  0  0  3  0  0  0  0  0  0
   33.9860   28.5760   49.0670 C   0  0  0  0  0  3  0  0  0  0  0  0
   34.4370   29.0670   47.8820 C   0  0  0  0  0  0  0  0  0  0  0  0
   27.0270   31.7760   45.2300 C   0  0  0  0  0  0  0  0  0  0  0  0
   26.3750   32.6620   46.0510 F   0  0  0  0  0  0  0  0  0  0  0  0
   26.0590   31.2390   44.3680 F   0  0  0  0  0  0  0  0  0  0  0  0
   27.9220   32.4120   44.3720 F   0  0  0  0  0  0  0  0  0  0  0  0
  1  5  1  0  0  0  0
  2  3  2  0  0  0  0
  2  1  1  0  0  0  0
  3  4  1  0  0  0  0
  4  5  2  0  0  0  0
  5  6  1  0  0  0  0
  6  7  1  0  0  0  0
  6 12  1  0  0  0  0
  7  8  2  0  0  0  0
  8  9  1  0  0  0  0
  9 10  2  0  0  0  0
 11  9  1  0  0  0  0
 11 14  1  0  0  0  0
 12 11  1  0  0  0  0
 13 12  2  0  0  0  0
 15 16  2  0  0  0  0
 15 20  1  0  0  0  0
 16 17  1  0  0  0  0
 17  1  1  0  0  0  0
 17 18  2  0  0  0  0
 19 18  1  0  0  0  0
 19 21  1  0  0  0  0
 20 19  2  0  0  0  0
 21 30  1  0  0  0  0
 22 23  1  0  0  0  0
 22 21  2  0  0  0  0
 23 24  2  0  0  0  0
 24 25  1  0  0  0  0
 25 26  1  0  0  0  0
 26 27  2  0  0  0  0
 28 27  1  0  0  0  0
 29 28  2  0  0  0  0
 30 25  2  0  0  0  0
 30 29  1  0  0  0  0
 31  3  1  0  0  0  0
 31 32  1  0  0  0  0
 33 31  1  0  0  0  0
 34 31  1  0  0  0  0
M  END
>  <minimizedAffinity>
-8.37142849

$$$$

 OpenBabel03272514453D

 34 38  0  0  0  0  0  0  0  0999 V2000
   29.1070   29.1990   46.5580 N   0  0  0  0  0  0  0  0  0  0  0  0
   28.8980   30.0920   45.6040 C   0  0  0  0  0  3  0  0  0  0  0  0
   27.7460   30.7470   45.9470 C   0  0  0  0  0  0  0  0  0  0  0  0
   27.2870   30.2390   47.0930 N   0  0  0  0  0  0  0  0  0  0  0  0
   28.1400   29.2640   47.4820 C   0  0  0  0  0  0  0  0  0  0  0  0
   28.0120   28.4710   48.6550 N   0  0  0  0  0  0  0  0  0  0  0  0
   28.0330   27.1290   48.7610 C   0  0  0  0  0  3  0  0  0  0  0  0
   27.8940   26.5160   49.9810 C   0  0  0  0  0  3  0  0  0  0  0  0
   27.7290   27.2670   51.1280 C   0  0  0  0  0  0  0  0  0  0  0  0
   27.5990   26.7310   52.2610 O   0  0  0  0  0  0  0  0  0  0  0  0
   27.7060   28.6100   51.0280 N   0  0  0  0  0  0  0  0  0  0  0  0
   27.8470   29.1810   49.8080 C   0  0  0  0  0  0  0  0  0  0  0  0
   27.8140   30.4590   49.8000 O   0  0  0  0  0  0  0  0  0  0  0  0
   27.5850   29.1940   51.8670 H   0  0  0  0  0  0  0  0  0  0  0  0
   31.3520   26.3110   45.9110 C   0  0  0  0  0  3  0  0  0  0  0  0
   30.1850   27.0920   45.8740 C   0  0  0  0  0  3  0  0  0  0  0  0
   30.2340   28.3240   46.5320 C   0  0  0  0  0  0  0  0  0  0  0  0
   31.3850   28.6210   47.1230 N   0  0  0  0  0  0  0  0  0  0  0  0
   32.5060   27.8950   47.1720 C   0  0  0  0  0  0  0  0  0  0  0  0
   32.4490   26.7180   46.5400 N   0  0  0  0  0  0  0  0  0  0  0  0
   33.5710   28.5400   47.9110 C   0  0  0  0  0  0  0  0  0  0  0  0
   33.6190   28.4740   49.2880 C   0  0  0  0  0  3  0  0  0  0  0  0
   34.6120   29.0700   50.0530 C   0  0  0  0  0  3  0  0  0  0  0  0
   35.6250   29.7750   49.4370 C   0  0  0  0  0  3  0  0  0  0  0  0
   35.6100   29.8610   48.0750 C   0  0  0  0  0  0  0  0  0  0  0  0
   36.6260   30.5660   47.4720 C   0  0  0  0  0  3  0  0  0  0  0  0
   36.6820   30.6990   46.1060 C   0  0  0  0  0  3  0  0  0  0  0  0
   35.6700   30.0890   45.3760 C   0  0  0  0  0  3  0  0  0  0  0  0
   34.6730   29.3920   46.0180 C   0  0  0  0  0  3  0  0  0  0  0  0
   34.6030   29.2510   47.3680 C   0  0  0  0  0  0  0  0  0  0  0  0
   27.0540   31.8470   45.2240 C   0  0  0  0  0  0  0  0  0  0  0  0
   26.4580   32.7580   46.0610 F   0  0  0  0  0  0  0  0  0  0  0  0
   26.0370   31.3220   44.4120 F   0  0  0  0  0  0  0  0  0  0  0  0
   27.9250   32.4510   44.3200 F   0  0  0  0  0  0  0  0  0  0  0  0
  1  5  1  0  0  0  0
  2  3  2  0  0  0  0
  2  1  1  0  0  0  0
  3  4  1  0  0  0  0
  4  5  2  0  0  0  0
  5  6  1  0  0  0  0
  6  7  1  0  0  0  0
  6 12  1  0  0  0  0
  7  8  2  0  0  0  0
  8  9  1  0  0  0  0
  9 10  2  0  0  0  0
 11  9  1  0  0  0  0
 11 14  1  0  0  0  0
 12 11  1  0  0  0  0
 13 12  2  0  0  0  0
 15 20  1  0  0  0  0
 16 15  2  0  0  0  0
 16 17  1  0  0  0  0
 17  1  1  0  0  0  0
 17 18  2  0  0  0  0
 18 19  1  0  0  0  0
 19 21  1  0  0  0  0
 20 19  2  0  0  0  0
 21 22  1  0  0  0  0
 22 23  2  0  0  0  0
 24 23  1  0  0  0  0
 25 24  2  0  0  0  0
 26 25  1  0  0  0  0
 27 26  2  0  0  0  0
 28 29  2  0  0  0  0
 28 27  1  0  0  0  0
 29 30  1  0  0  0  0
 30 21  2  0  0  0  0
 30 25  1  0  0  0  0
 31  3  1  0  0  0  0
 31 32  1  0  0  0  0
 33 31  1  0  0  0  0
 34 31  1  0  0  0  0
M  END
>  <minimizedAffinity>
-8.29779053

$$$$

 OpenBabel03272514453D

 34 38  0  0  0  0  0  0  0  0999 V2000
   30.3360   27.7310   48.3810 N   0  0  0  0  0  0  0  0  0  0  0  0
   29.9840   27.2800   49.5750 C   0  0  0  0  0  3  0  0  0  0  0  0
   28.6710   27.6300   49.7380 C   0  0  0  0  0  0  0  0  0  0  0  0
   28.2600   28.2800   48.6460 N   0  0  0  0  0  0  0  0  0  0  0  0
   29.3050   28.3460   47.7890 C   0  0  0  0  0  0  0  0  0  0  0  0
   29.2860   28.9590   46.5060 N   0  0  0  0  0  0  0  0  0  0  0  0
   30.1310   29.8830   46.0110 C   0  0  0  0  0  3  0  0  0  0  0  0
   29.9700   30.3770   44.7410 C   0  0  0  0  0  3  0  0  0  0  0  0
   28.9340   29.9340   43.9430 C   0  0  0  0  0  0  0  0  0  0  0  0
   28.7630   30.3690   42.7730 O   0  0  0  0  0  0  0  0  0  0  0  0
   28.0850   29.0090   44.4330 N   0  0  0  0  0  0  0  0  0  0  0  0
   28.2740   28.5440   45.6900 C   0  0  0  0  0  0  0  0  0  0  0  0
   27.4260   27.6710   46.0790 O   0  0  0  0  0  0  0  0  0  0  0  0
   27.3050   28.6600   43.8590 H   0  0  0  0  0  0  0  0  0  0  0  0
   33.2310   26.6140   46.3390 C   0  0  0  0  0  3  0  0  0  0  0  0
   31.8960   26.7280   46.7590 C   0  0  0  0  0  3  0  0  0  0  0  0
   31.6550   27.5440   47.8680 C   0  0  0  0  0  0  0  0  0  0  0  0
   32.7210   28.1220   48.4060 N   0  0  0  0  0  0  0  0  0  0  0  0
   33.9980   28.0290   48.0250 C   0  0  0  0  0  0  0  0  0  0  0  0
   34.2190   27.2470   46.9630 N   0  0  0  0  0  0  0  0  0  0  0  0
   34.8990   28.8050   48.8520 C   0  0  0  0  0  0  0  0  0  0  0  0
   34.8780   28.6870   50.2270 C   0  0  0  0  0  3  0  0  0  0  0  0
   35.7140   29.4020   51.0720 C   0  0  0  0  0  3  0  0  0  0  0  0
   36.6300   30.2890   50.5470 C   0  0  0  0  0  3  0  0  0  0  0  0
   36.6800   30.4310   49.1910 C   0  0  0  0  0  0  0  0  0  0  0  0
   37.5980   31.3170   48.6780 C   0  0  0  0  0  3  0  0  0  0  0  0
   37.7110   31.5180   47.3240 C   0  0  0  0  0  3  0  0  0  0  0  0
   36.8560   30.7830   46.5100 C   0  0  0  0  0  3  0  0  0  0  0  0
   35.9520   29.9070   47.0630 C   0  0  0  0  0  3  0  0  0  0  0  0
   35.8290   29.6970   48.4000 C   0  0  0  0  0  0  0  0  0  0  0  0
   27.7790   27.3710   50.8990 C   0  0  0  0  0  0  0  0  0  0  0  0
   26.8660   28.3730   51.1190 F   0  0  0  0  0  0  0  0  0  0  0  0
   28.5400   27.2560   52.0720 F   0  0  0  0  0  0  0  0  0  0  0  0
   27.1730   26.1230   50.7700 F   0  0  0  0  0  0  0  0  0  0  0  0
  1  2  1  0  0  0  0
  2  3  2  0  0  0  0
  3 31  1  0  0  0  0
  4  3  1  0  0  0  0
  5  1  1  0  0  0  0
  5  4  2  0  0  0  0
  6  5  1  0  0  0  0
  7  6  1  0  0  0  0
  8  7  2  0  0  0  0
  9 11  1  0  0  0  0
  9  8  1  0  0  0  0
 10  9  2  0  0  0  0
 11 12  1  0  0  0  0
 12 13  2  0  0  0  0
 12  6  1  0  0  0  0
 14 11  1  0  0  0  0
 15 16  2  0  0  0  0
 15 20  1  0  0  0  0
 16 17  1  0  0  0  0
 17  1  1  0  0  0  0
 17 18  2  0  0  0  0
 19 18  1  0  0  0  0
 19 21  1  0  0  0  0
 20 19  2  0  0  0  0
 21 22  1  0  0  0  0
 22 23  2  0  0  0  0
 24 23  1  0  0  0  0
 25 24  2  0  0  0  0
 26 25  1  0  0  0  0
 27 26  2  0  0  0  0
 28 29  2  0  0  0  0
 28 27  1  0  0  0  0
 29 30  1  0  0  0  0
 30 21  2  0  0  0  0
 30 25  1  0  0  0  0
 31 32  1  0  0  0  0
 31 33  1  0  0  0  0
 34 31  1  0  0  0  0
M  END
>  <minimizedAffinity>
-8.16630268

$$$$

 OpenBabel03272514453D

 34 38  0  0  0  0  0  0  0  0999 V2000
   35.1260   30.9580   43.5910 N   0  0  0  0  0  0  0  0  0  0  0  0
   34.9740   31.7500   42.5420 C   0  0  0  0  0  3  0  0  0  0  0  0
   33.6250   31.8460   42.3340 C   0  0  0  0  0  0  0  0  0  0  0  0
   32.9950   31.1160   43.2580 N   0  0  0  0  0  0  0  0  0  0  0  0
   33.9360   30.5550   44.0510 C   0  0  0  0  0  0  0  0  0  0  0  0
   33.6820   29.7000   45.1590 N   0  0  0  0  0  0  0  0  0  0  0  0
   34.1990   28.4820   45.4080 C   0  0  0  0  0  3  0  0  0  0  0  0
   33.8460   27.7830   46.5350 C   0  0  0  0  0  3  0  0  0  0  0  0
   32.9480   28.3170   47.4390 C   0  0  0  0  0  0  0  0  0  0  0  0
   32.6060   27.6980   48.4810 O   0  0  0  0  0  0  0  0  0  0  0  0
   32.4270   29.5360   47.1940 N   0  0  0  0  0  0  0  0  0  0  0  0
   32.7990   30.1970   46.0730 C   0  0  0  0  0  0  0  0  0  0  0  0
   32.2600   31.3450   45.9150 O   0  0  0  0  0  0  0  0  0  0  0  0
   31.7570   29.9580   47.8510 H   0  0  0  0  0  0  0  0  0  0  0  0
   38.5680   29.6070   43.9540 C   0  0  0  0  0  3  0  0  0  0  0  0
   37.3240   29.8710   43.3560 C   0  0  0  0  0  3  0  0  0  0  0  0
   36.4180   30.6300   44.1010 C   0  0  0  0  0  0  0  0  0  0  0  0
   36.8350   31.0180   45.3010 N   0  0  0  0  0  0  0  0  0  0  0  0
   38.0100   30.7790   45.8900 C   0  0  0  0  0  0  0  0  0  0  0  0
   38.8710   30.0530   45.1690 N   0  0  0  0  0  0  0  0  0  0  0  0
   38.1150   31.3630   47.2110 C   0  0  0  0  0  0  0  0  0  0  0  0
   38.8320   32.5230   47.4180 C   0  0  0  0  0  3  0  0  0  0  0  0
   38.9690   33.1310   48.6570 C   0  0  0  0  0  3  0  0  0  0  0  0
   38.3710   32.5750   49.7680 C   0  0  0  0  0  3  0  0  0  0  0  0
   37.6520   31.4270   49.6010 C   0  0  0  0  0  0  0  0  0  0  0  0
   37.0580   30.8810   50.7150 C   0  0  0  0  0  3  0  0  0  0  0  0
   36.3200   29.7260   50.6320 C   0  0  0  0  0  3  0  0  0  0  0  0
   36.2050   29.1470   49.3730 C   0  0  0  0  0  3  0  0  0  0  0  0
   36.8140   29.7250   48.2850 C   0  0  0  0  0  3  0  0  0  0  0  0
   37.5480   30.8670   48.3510 C   0  0  0  0  0  0  0  0  0  0  0  0
   32.8990   32.6100   41.2860 C   0  0  0  0  0  0  0  0  0  0  0  0
   33.7100   33.0430   40.2660 F   0  0  0  0  0  0  0  0  0  0  0  0
   32.3130   33.7560   41.8470 F   0  0  0  0  0  0  0  0  0  0  0  0
   31.8110   31.8750   40.8200 F   0  0  0  0  0  0  0  0  0  0  0  0
  1  5  1  0  0  0  0
  1 17  1  0  0  0  0
  2  1  1  0  0  0  0
  3  2  2  0  0  0  0
  3  4  1  0  0  0  0
  4  5  2  0  0  0  0
  5  6  1  0  0  0  0
  6  7  1  0  0  0  0
  6 12  1  0  0  0  0
  7  8  2  0  0  0  0
  8  9  1  0  0  0  0
  9 10  2  0  0  0  0
 11  9  1  0  0  0  0
 11 14  1  0  0  0  0
 12 11  1  0  0  0  0
 13 12  2  0  0  0  0
 15 20  1  0  0  0  0
 16 15  2  0  0  0  0
 16 17  1  0  0  0  0
 17 18  2  0  0  0  0
 18 19  1  0  0  0  0
 19 21  1  0  0  0  0
 20 19  2  0  0  0  0
 21 22  2  0  0  0  0
 21 30  1  0  0  0  0
 22 23  1  0  0  0  0
 23 24  2  0  0  0  0
 25 24  1  0  0  0  0
 25 26  1  0  0  0  0
 27 26  2  0  0  0  0
 28 27  1  0  0  0  0
 29 30  1  0  0  0  0
 29 28  2  0  0  0  0
 30 25  2  0  0  0  0
 31 33  1  0  0  0  0
 31  3  1  0  0  0  0
 32 31  1  0  0  0  0
 34 31  1  0  0  0  0
M  END
>  <minimizedAffinity>
-8.01092625

$$$$

 OpenBabel03272514453D

 34 38  0  0  0  0  0  0  0  0999 V2000
   30.0320   28.1990   47.8630 N   0  0  0  0  0  0  0  0  0  0  0  0
   29.2130   27.9570   48.8750 C   0  0  0  0  0  3  0  0  0  0  0  0
   28.1030   28.7260   48.6550 C   0  0  0  0  0  0  0  0  0  0  0  0
   28.2730   29.4120   47.5220 N   0  0  0  0  0  0  0  0  0  0  0  0
   29.4850   29.0840   47.0200 C   0  0  0  0  0  0  0  0  0  0  0  0
   30.0510   29.5970   45.8200 N   0  0  0  0  0  0  0  0  0  0  0  0
   31.2590   30.1640   45.6440 C   0  0  0  0  0  3  0  0  0  0  0  0
   31.6550   30.6110   44.4080 C   0  0  0  0  0  3  0  0  0  0  0  0
   30.8170   30.4880   43.3170 C   0  0  0  0  0  0  0  0  0  0  0  0
   31.1540   30.8890   42.1720 O   0  0  0  0  0  0  0  0  0  0  0  0
   29.6060   29.9210   43.4880 N   0  0  0  0  0  0  0  0  0  0  0  0
   29.2490   29.4910   44.7210 C   0  0  0  0  0  0  0  0  0  0  0  0
   28.0870   28.9670   44.7980 O   0  0  0  0  0  0  0  0  0  0  0  0
   28.9620   29.8160   42.6920 H   0  0  0  0  0  0  0  0  0  0  0  0
   32.7180   25.6500   47.5790 C   0  0  0  0  0  3  0  0  0  0  0  0
   31.4170   26.1710   47.6790 C   0  0  0  0  0  3  0  0  0  0  0  0
   31.3040   27.5620   47.7590 C   0  0  0  0  0  0  0  0  0  0  0  0
   32.4450   28.2400   47.7350 N   0  0  0  0  0  0  0  0  0  0  0  0
   33.6910   27.7670   47.6420 C   0  0  0  0  0  0  0  0  0  0  0  0
   33.7900   26.4360   47.5640 N   0  0  0  0  0  0  0  0  0  0  0  0
   34.6980   28.8070   47.6440 C   0  0  0  0  0  0  0  0  0  0  0  0
   35.0490   29.4570   46.4780 C   0  0  0  0  0  3  0  0  0  0  0  0
   36.0050   30.4610   46.4150 C   0  0  0  0  0  3  0  0  0  0  0  0
   36.6620   30.8590   47.5600 C   0  0  0  0  0  3  0  0  0  0  0  0
   36.3400   30.2390   48.7330 C   0  0  0  0  0  0  0  0  0  0  0  0
   37.0010   30.6450   49.8680 C   0  0  0  0  0  3  0  0  0  0  0  0
   36.7360   30.0710   51.0870 C   0  0  0  0  0  3  0  0  0  0  0  0
   35.7720   29.0690   51.1090 C   0  0  0  0  0  3  0  0  0  0  0  0
   35.1340   28.6930   49.9510 C   0  0  0  0  0  3  0  0  0  0  0  0
   35.3850   29.2510   48.7380 C   0  0  0  0  0  0  0  0  0  0  0  0
   26.8730   28.8390   49.4830 C   0  0  0  0  0  0  0  0  0  0  0  0
   25.8610   28.0080   49.0720 F   0  0  0  0  0  0  0  0  0  0  0  0
   26.3700   30.1480   49.4190 F   0  0  0  0  0  0  0  0  0  0  0  0
   27.1840   28.6680   50.8310 F   0  0  0  0  0  0  0  0  0  0  0  0
  1  2  1  0  0  0  0
  3  2  2  0  0  0  0
  3 31  1  0  0  0  0
  4  3  1  0  0  0  0
  5  4  2  0  0  0  0
  5  1  1  0  0  0  0
  6  5  1  0  0  0  0
  7  6  1  0  0  0  0
  8  7  2  0  0  0  0
  9 11  1  0  0  0  0
  9  8  1  0  0  0  0
 10  9  2  0  0  0  0
 11 12  1  0  0  0  0
 12 13  2  0  0  0  0
 12  6  1  0  0  0  0
 14 11  1  0  0  0  0
 15 16  1  0  0  0  0
 16 17  2  0  0  0  0
 17  1  1  0  0  0  0
 18 17  1  0  0  0  0
 19 21  1  0  0  0  0
 19 18  2  0  0  0  0
 20 15  2  0  0  0  0
 20 19  1  0  0  0  0
 21 30  1  0  0  0  0
 22 21  2  0  0  0  0
 23 22  1  0  0  0  0
 23 24  2  0  0  0  0
 24 25  1  0  0  0  0
 25 30  2  0  0  0  0
 25 26  1  0  0  0  0
 26 27  2  0  0  0  0
 27 28  1  0  0  0  0
 29 28  2  0  0  0  0
 30 29  1  0  0  0  0
 31 34  1  0  0  0  0
 32 31  1  0  0  0  0
 33 31  1  0  0  0  0
M  END
>  <minimizedAffinity>
-7.9242239

$$$$

 OpenBabel03272514453D

 34 38  0  0  0  0  0  0  0  0999 V2000
   33.1090   30.5100   45.1260 N   0  0  0  0  0  0  0  0  0  0  0  0
   32.0550   31.2810   45.3410 C   0  0  0  0  0  3  0  0  0  0  0  0
   32.0180   32.1690   44.2990 C   0  0  0  0  0  0  0  0  0  0  0  0
   33.0440   31.9160   43.4830 N   0  0  0  0  0  0  0  0  0  0  0  0
   33.7330   30.8720   43.9990 C   0  0  0  0  0  0  0  0  0  0  0  0
   34.8990   30.2900   43.4310 N   0  0  0  0  0  0  0  0  0  0  0  0
   36.0860   30.0550   44.0220 C   0  0  0  0  0  3  0  0  0  0  0  0
   37.1190   29.4800   43.3260 C   0  0  0  0  0  3  0  0  0  0  0  0
   36.9610   29.1290   42.0000 C   0  0  0  0  0  0  0  0  0  0  0  0
   37.8910   28.5990   41.3360 O   0  0  0  0  0  0  0  0  0  0  0  0
   35.7750   29.3610   41.4030 N   0  0  0  0  0  0  0  0  0  0  0  0
   34.7780   29.9300   42.1210 C   0  0  0  0  0  0  0  0  0  0  0  0
   33.6870   30.1160   41.4820 O   0  0  0  0  0  0  0  0  0  0  0  0
   35.6290   29.1080   40.4160 H   0  0  0  0  0  0  0  0  0  0  0  0
   33.3980   27.1950   46.7770 C   0  0  0  0  0  3  0  0  0  0  0  0
   32.9880   28.1540   45.8360 C   0  0  0  0  0  3  0  0  0  0  0  0
   33.4610   29.4560   46.0210 C   0  0  0  0  0  0  0  0  0  0  0  0
   34.2480   29.6440   47.0740 N   0  0  0  0  0  0  0  0  0  0  0  0
   34.6490   28.7490   47.9820 C   0  0  0  0  0  0  0  0  0  0  0  0
   34.1930   27.5060   47.7950 N   0  0  0  0  0  0  0  0  0  0  0  0
   35.5100   29.3160   48.9990 C   0  0  0  0  0  0  0  0  0  0  0  0
   35.3280   29.0120   50.3320 C   0  0  0  0  0  3  0  0  0  0  0  0
   36.1190   29.5210   51.3520 C   0  0  0  0  0  3  0  0  0  0  0  0
   37.1540   30.3830   51.0560 C   0  0  0  0  0  3  0  0  0  0  0  0
   37.3650   30.7060   49.7470 C   0  0  0  0  0  0  0  0  0  0  0  0
   38.4000   31.5650   49.4630 C   0  0  0  0  0  3  0  0  0  0  0  0
   38.6770   31.9410   48.1710 C   0  0  0  0  0  3  0  0  0  0  0  0
   37.8630   31.4100   47.1780 C   0  0  0  0  0  3  0  0  0  0  0  0
   36.8380   30.5530   47.5040 C   0  0  0  0  0  3  0  0  0  0  0  0
   36.5510   30.1720   48.7770 C   0  0  0  0  0  0  0  0  0  0  0  0
   31.0400   33.2590   44.0430 C   0  0  0  0  0  0  0  0  0  0  0  0
   31.4150   34.4660   44.5800 F   0  0  0  0  0  0  0  0  0  0  0  0
   29.7990   32.9340   44.6140 F   0  0  0  0  0  0  0  0  0  0  0  0
   30.7660   33.3480   42.6800 F   0  0  0  0  0  0  0  0  0  0  0  0
  1  2  1  0  0  0  0
  1 17  1  0  0  0  0
  3  2  2  0  0  0  0
  4  5  2  0  0  0  0
  4  3  1  0  0  0  0
  5  1  1  0  0  0  0
  6  5  1  0  0  0  0
  6  7  1  0  0  0  0
  8  7  2  0  0  0  0
  9  8  1  0  0  0  0
 10  9  2  0  0  0  0
 11  9  1  0  0  0  0
 11 12  1  0  0  0  0
 12  6  1  0  0  0  0
 13 12  2  0  0  0  0
 14 11  1  0  0  0  0
 15 20  1  0  0  0  0
 16 17  1  0  0  0  0
 16 15  2  0  0  0  0
 17 18  2  0  0  0  0
 18 19  1  0  0  0  0
 19 21  1  0  0  0  0
 20 19  2  0  0  0  0
 21 22  1  0  0  0  0
 22 23  2  0  0  0  0
 24 23  1  0  0  0  0
 25 24  2  0  0  0  0
 26 25  1  0  0  0  0
 27 26  2  0  0  0  0
 28 29  2  0  0  0  0
 28 27  1  0  0  0  0
 29 30  1  0  0  0  0
 30 21  2  0  0  0  0
 30 25  1  0  0  0  0
 31  3  1  0  0  0  0
 31 32  1  0  0  0  0
 31 33  1  0  0  0  0
 34 31  1  0  0  0  0
M  END
>  <minimizedAffinity>
-7.63490534

$$$$

 OpenBabel03272514453D

 34 38  0  0  0  0  0  0  0  0999 V2000
   33.2500   28.0030   47.9340 N   0  0  0  0  0  0  0  0  0  0  0  0
   33.6010   28.2710   49.1820 C   0  0  0  0  0  3  0  0  0  0  0  0
   34.8100   28.9080   49.1060 C   0  0  0  0  0  0  0  0  0  0  0  0
   35.1600   29.0120   47.8220 N   0  0  0  0  0  0  0  0  0  0  0  0
   34.1820   28.4440   47.0800 C   0  0  0  0  0  0  0  0  0  0  0  0
   34.1700   28.3450   45.6620 N   0  0  0  0  0  0  0  0  0  0  0  0
   33.9830   27.2480   44.9040 C   0  0  0  0  0  3  0  0  0  0  0  0
   34.0010   27.3270   43.5340 C   0  0  0  0  0  3  0  0  0  0  0  0
   34.2130   28.5370   42.9040 C   0  0  0  0  0  0  0  0  0  0  0  0
   34.2350   28.6380   41.6480 O   0  0  0  0  0  0  0  0  0  0  0  0
   34.4000   29.6380   43.6580 N   0  0  0  0  0  0  0  0  0  0  0  0
   34.3760   29.5240   45.0060 C   0  0  0  0  0  0  0  0  0  0  0  0
   34.5620   30.6140   45.6470 O   0  0  0  0  0  0  0  0  0  0  0  0
   34.5590   30.5540   43.2140 H   0  0  0  0  0  0  0  0  0  0  0  0
   30.6540   25.9240   46.2810 C   0  0  0  0  0  3  0  0  0  0  0  0
   31.9020   26.5350   46.4880 C   0  0  0  0  0  3  0  0  0  0  0  0
   32.0270   27.3350   47.6270 C   0  0  0  0  0  0  0  0  0  0  0  0
   30.9460   27.4320   48.3900 N   0  0  0  0  0  0  0  0  0  0  0  0
   29.7500   26.8620   48.2140 C   0  0  0  0  0  0  0  0  0  0  0  0
   29.6400   26.0970   47.1230 N   0  0  0  0  0  0  0  0  0  0  0  0
   28.8020   27.1930   49.2570 C   0  0  0  0  0  0  0  0  0  0  0  0
   29.0440   26.8510   50.5710 C   0  0  0  0  0  3  0  0  0  0  0  0
   28.1760   27.1400   51.6140 C   0  0  0  0  0  3  0  0  0  0  0  0
   26.9940   27.8040   51.3620 C   0  0  0  0  0  3  0  0  0  0  0  0
   26.7200   28.1600   50.0730 C   0  0  0  0  0  0  0  0  0  0  0  0
   25.5400   28.8230   49.8340 C   0  0  0  0  0  3  0  0  0  0  0  0
   25.1900   29.2140   48.5650 C   0  0  0  0  0  3  0  0  0  0  0  0
   26.0860   28.9060   47.5470 C   0  0  0  0  0  3  0  0  0  0  0  0
   27.2560   28.2420   47.8290 C   0  0  0  0  0  3  0  0  0  0  0  0
   27.6170   27.8490   49.0790 C   0  0  0  0  0  0  0  0  0  0  0  0
   35.6560   29.4290   50.2120 C   0  0  0  0  0  0  0  0  0  0  0  0
   35.1440   29.1680   51.4590 F   0  0  0  0  0  0  0  0  0  0  0  0
   35.7740   30.8240   50.1100 F   0  0  0  0  0  0  0  0  0  0  0  0
   36.9650   28.9730   50.0720 F   0  0  0  0  0  0  0  0  0  0  0  0
  1  2  1  0  0  0  0
  3  2  2  0  0  0  0
  3 31  1  0  0  0  0
  4  3  1  0  0  0  0
  5  4  2  0  0  0  0
  5  1  1  0  0  0  0
  6  5  1  0  0  0  0
  7  6  1  0  0  0  0
  8  7  2  0  0  0  0
  9  8  1  0  0  0  0
  9 11  1  0  0  0  0
 10  9  2  0  0  0  0
 11 12  1  0  0  0  0
 12 13  2  0  0  0  0
 12  6  1  0  0  0  0
 14 11  1  0  0  0  0
 15 16  2  0  0  0  0
 15 20  1  0  0  0  0
 16 17  1  0  0  0  0
 17  1  1  0  0  0  0
 17 18  2  0  0  0  0
 19 18  1  0  0  0  0
 19 21  1  0  0  0  0
 20 19  2  0  0  0  0
 21 22  1  0  0  0  0
 22 23  2  0  0  0  0
 24 23  1  0  0  0  0
 25 24  2  0  0  0  0
 26 25  1  0  0  0  0
 27 26  2  0  0  0  0
 28 29  2  0  0  0  0
 28 27  1  0  0  0  0
 29 30  1  0  0  0  0
 30 21  2  0  0  0  0
 30 25  1  0  0  0  0
 31 32  1  0  0  0  0
 33 31  1  0  0  0  0
 34 31  1  0  0  0  0
M  END
>  <minimizedAffinity>
-7.55689573

$$$$

 OpenBabel03272514453D

 34 38  0  0  0  0  0  0  0  0999 V2000
   30.3810   28.4340   47.3470 N   0  0  0  0  0  0  0  0  0  0  0  0
   29.5450   28.0030   48.2790 C   0  0  0  0  0  3  0  0  0  0  0  0
   28.3920   28.7210   48.1120 C   0  0  0  0  0  0  0  0  0  0  0  0
   28.5550   29.5640   47.0890 N   0  0  0  0  0  0  0  0  0  0  0  0
   29.8060   29.3880   46.6050 C   0  0  0  0  0  0  0  0  0  0  0  0
   30.3770   30.0960   45.5130 N   0  0  0  0  0  0  0  0  0  0  0  0
   31.5480   30.7590   45.4700 C   0  0  0  0  0  3  0  0  0  0  0  0
   31.9570   31.3950   44.3250 C   0  0  0  0  0  3  0  0  0  0  0  0
   31.1720   31.3670   43.1900 C   0  0  0  0  0  0  0  0  0  0  0  0
   31.5220   31.9420   42.1250 O   0  0  0  0  0  0  0  0  0  0  0  0
   29.9990   30.7050   43.2260 N   0  0  0  0  0  0  0  0  0  0  0  0
   29.6270   30.0890   44.3730 C   0  0  0  0  0  0  0  0  0  0  0  0
   28.5030   29.4840   44.3240 O   0  0  0  0  0  0  0  0  0  0  0  0
   29.3940   30.6680   42.3940 H   0  0  0  0  0  0  0  0  0  0  0  0
   33.2980   26.3710   46.3300 C   0  0  0  0  0  3  0  0  0  0  0  0
   31.9660   26.8150   46.3810 C   0  0  0  0  0  3  0  0  0  0  0  0
   31.6990   27.9010   47.2190 C   0  0  0  0  0  0  0  0  0  0  0  0
   32.7390   28.3960   47.8780 N   0  0  0  0  0  0  0  0  0  0  0  0
   34.0120   27.9910   47.8470 C   0  0  0  0  0  0  0  0  0  0  0  0
   34.2590   26.9520   47.0420 N   0  0  0  0  0  0  0  0  0  0  0  0
   34.8810   28.7720   48.7030 C   0  0  0  0  0  0  0  0  0  0  0  0
   34.8240   28.6460   50.0750 C   0  0  0  0  0  3  0  0  0  0  0  0
   35.6280   29.3650   50.9480 C   0  0  0  0  0  3  0  0  0  0  0  0
   36.5470   30.2650   50.4530 C   0  0  0  0  0  3  0  0  0  0  0  0
   36.6330   30.4170   49.0990 C   0  0  0  0  0  0  0  0  0  0  0  0
   37.5540   31.3160   48.6170 C   0  0  0  0  0  3  0  0  0  0  0  0
   37.7010   31.5270   47.2680 C   0  0  0  0  0  3  0  0  0  0  0  0
   36.8770   30.7890   46.4270 C   0  0  0  0  0  3  0  0  0  0  0  0
   35.9690   29.8980   46.9490 C   0  0  0  0  0  3  0  0  0  0  0  0
   35.8120   29.6780   48.2820 C   0  0  0  0  0  0  0  0  0  0  0  0
   27.1270   28.6390   48.8890 C   0  0  0  0  0  0  0  0  0  0  0  0
   27.1610   27.6970   49.8880 F   0  0  0  0  0  0  0  0  0  0  0  0
   26.0650   28.2880   48.0420 F   0  0  0  0  0  0  0  0  0  0  0  0
   26.7720   29.9000   49.3630 F   0  0  0  0  0  0  0  0  0  0  0  0
  1  2  1  0  0  0  0
  3  2  2  0  0  0  0
  3 31  1  0  0  0  0
  4  3  1  0  0  0  0
  5  4  2  0  0  0  0
  5  1  1  0  0  0  0
  6  5  1  0  0  0  0
  7  6  1  0  0  0  0
  8  7  2  0  0  0  0
  9 11  1  0  0  0  0
  9  8  1  0  0  0  0
 10  9  2  0  0  0  0
 11 12  1  0  0  0  0
 12  6  1  0  0  0  0
 13 12  2  0  0  0  0
 14 11  1  0  0  0  0
 15 16  2  0  0  0  0
 15 20  1  0  0  0  0
 16 17  1  0  0  0  0
 17  1  1  0  0  0  0
 17 18  2  0  0  0  0
 19 18  1  0  0  0  0
 19 21  1  0  0  0  0
 20 19  2  0  0  0  0
 21 22  1  0  0  0  0
 22 23  2  0  0  0  0
 24 23  1  0  0  0  0
 25 24  2  0  0  0  0
 26 25  1  0  0  0  0
 27 26  2  0  0  0  0
 28 29  2  0  0  0  0
 28 27  1  0  0  0  0
 29 30  1  0  0  0  0
 30 21  2  0  0  0  0
 30 25  1  0  0  0  0
 31 34  1  0  0  0  0
 31 32  1  0  0  0  0
 33 31  1  0  0  0  0
M  END
>  <minimizedAffinity>
-7.4934001

$$$$

 OpenBabel03272514453D

 34 38  0  0  0  0  0  0  0  0999 V2000
   33.5190   30.0870   44.8540 N   0  0  0  0  0  0  0  0  0  0  0  0
   32.8090   31.1330   44.4630 C   0  0  0  0  0  3  0  0  0  0  0  0
   31.4970   30.7850   44.6380 C   0  0  0  0  0  0  0  0  0  0  0  0
   31.4430   29.5450   45.1300 N   0  0  0  0  0  0  0  0  0  0  0  0
   32.7130   29.1010   45.2680 C   0  0  0  0  0  0  0  0  0  0  0  0
   33.0940   27.8230   45.7610 N   0  0  0  0  0  0  0  0  0  0  0  0
   33.9180   26.9220   45.1930 C   0  0  0  0  0  3  0  0  0  0  0  0
   34.1830   25.7230   45.8070 C   0  0  0  0  0  3  0  0  0  0  0  0
   33.6080   25.4170   47.0240 C   0  0  0  0  0  0  0  0  0  0  0  0
   33.8330   24.3260   47.6110 O   0  0  0  0  0  0  0  0  0  0  0  0
   32.7830   26.3160   47.5970 N   0  0  0  0  0  0  0  0  0  0  0  0
   32.5440   27.4870   46.9630 C   0  0  0  0  0  0  0  0  0  0  0  0
   31.7510   28.2830   47.5730 O   0  0  0  0  0  0  0  0  0  0  0  0
   32.3410   26.1140   48.5050 H   0  0  0  0  0  0  0  0  0  0  0  0
   37.0440   29.6780   43.7570 C   0  0  0  0  0  3  0  0  0  0  0  0
   35.6420   29.6280   43.6920 C   0  0  0  0  0  3  0  0  0  0  0  0
   34.9450   30.0910   44.8120 C   0  0  0  0  0  0  0  0  0  0  0  0
   35.6910   30.5260   45.8200 N   0  0  0  0  0  0  0  0  0  0  0  0
   37.0230   30.5820   45.9050 C   0  0  0  0  0  0  0  0  0  0  0  0
   37.6810   30.1390   44.8290 N   0  0  0  0  0  0  0  0  0  0  0  0
   37.4920   31.1190   47.1650 C   0  0  0  0  0  0  0  0  0  0  0  0
   38.3100   32.2300   47.2020 C   0  0  0  0  0  3  0  0  0  0  0  0
   38.7920   32.7920   48.3750 C   0  0  0  0  0  3  0  0  0  0  0  0
   38.4560   32.2370   49.5930 C   0  0  0  0  0  3  0  0  0  0  0  0
   37.6480   31.1380   49.5960 C   0  0  0  0  0  0  0  0  0  0  0  0
   37.3190   30.5940   50.8150 C   0  0  0  0  0  3  0  0  0  0  0  0
   36.5110   29.4870   50.9040 C   0  0  0  0  0  3  0  0  0  0  0  0
   36.0490   28.9530   49.7060 C   0  0  0  0  0  3  0  0  0  0  0  0
   36.4010   29.5280   48.5080 C   0  0  0  0  0  3  0  0  0  0  0  0
   37.1990   30.6230   48.4040 C   0  0  0  0  0  0  0  0  0  0  0  0
   30.2780   31.5890   44.3570 C   0  0  0  0  0  0  0  0  0  0  0  0
   29.9930   31.6970   43.0180 F   0  0  0  0  0  0  0  0  0  0  0  0
   30.4440   32.8960   44.8400 F   0  0  0  0  0  0  0  0  0  0  0  0
   29.1990   31.0980   45.0890 F   0  0  0  0  0  0  0  0  0  0  0  0
  1  5  1  0  0  0  0
  2  3  2  0  0  0  0
  2  1  1  0  0  0  0
  3  4  1  0  0  0  0
  4  5  2  0  0  0  0
  5  6  1  0  0  0  0
  6 12  1  0  0  0  0
  7  6  1  0  0  0  0
  7  8  2  0  0  0  0
  8  9  1  0  0  0  0
  9 11  1  0  0  0  0
  9 10  2  0  0  0  0
 11 14  1  0  0  0  0
 12 13  2  0  0  0  0
 12 11  1  0  0  0  0
 15 20  1  0  0  0  0
 16 15  2  0  0  0  0
 16 17  1  0  0  0  0
 17  1  1  0  0  0  0
 17 18  2  0  0  0  0
 18 19  1  0  0  0  0
 19 21  1  0  0  0  0
 20 19  2  0  0  0  0
 21 22  2  0  0  0  0
 21 30  1  0  0  0  0
 22 23  1  0  0  0  0
 23 24  2  0  0  0  0
 24 25  1  0  0  0  0
 25 26  1  0  0  0  0
 26 27  2  0  0  0  0
 28 27  1  0  0  0  0
 29 28  2  0  0  0  0
 30 29  1  0  0  0  0
 30 25  2  0  0  0  0
 31  3  1  0  0  0  0
 31 33  1  0  0  0  0
 31 34  1  0  0  0  0
 32 31  1  0  0  0  0
M  END
>  <minimizedAffinity>
-7.35786057

$$$$
