
 OpenBabel03272514433D

 31 36  0  0  0  0  0  0  0  0999 V2000
   34.4400   30.0620   44.5310 C   0  0  0  0  0  3  0  0  0  0  0  0
   33.0340   30.0450   44.4800 C   0  0  0  0  0  3  0  0  0  0  0  0
   32.3850   29.9230   45.6990 C   0  0  0  0  0  0  0  0  0  0  0  0
   33.1570   29.8320   46.7920 N   0  0  0  0  0  0  0  0  0  0  0  0
   34.4870   29.8460   46.8460 C   0  0  0  0  0  0  0  0  0  0  0  0
   35.1190   29.9640   45.6680 N   0  0  0  0  0  0  0  0  0  0  0  0
   35.0010   29.7260   48.2070 C   0  0  0  0  0  0  0  0  0  0  0  0
   34.3450   28.9610   49.1510 C   0  0  0  0  0  3  0  0  0  0  0  0
   34.7860   28.8130   50.4460 C   0  0  0  0  0  3  0  0  0  0  0  0
   35.9290   29.4340   50.8730 C   0  0  0  0  0  3  0  0  0  0  0  0
   36.6160   30.2100   49.9590 C   0  0  0  0  0  0  0  0  0  0  0  0
   37.7620   30.8350   50.3830 C   0  0  0  0  0  3  0  0  0  0  0  0
   38.5040   31.6210   49.5440 C   0  0  0  0  0  3  0  0  0  0  0  0
   38.0310   31.7530   48.2330 C   0  0  0  0  0  3  0  0  0  0  0  0
   36.8760   31.1050   47.8580 C   0  0  0  0  0  3  0  0  0  0  0  0
   36.1310   30.3220   48.6820 C   0  0  0  0  0  0  0  0  0  0  0  0
   30.9530   29.8950   45.7890 N   0  0  0  0  0  0  0  0  0  0  0  0
   30.3270   29.1300   46.6860 C   0  0  0  0  0  3  0  0  0  0  0  0
   28.9980   29.3440   46.4970 C   0  0  0  0  0  0  0  0  0  0  0  0
   28.8310   30.2250   45.5010 N   0  0  0  0  0  0  0  0  0  0  0  0
   30.0630   30.5810   45.0470 C   0  0  0  0  0  3  0  0  0  0  0  0
   27.9570   28.6720   47.3050 C   0  0  0  0  0  0  0  0  0  0  0  0
   27.8290   27.3210   47.6000 C   0  0  0  0  0  3  0  0  0  0  0  0
   26.7360   27.1440   48.3670 N   0  0  0  0  0  0  0  0  0  0  0  0
   26.1420   28.3430   48.5850 C   0  0  0  0  0  0  0  0  0  0  0  0
   25.0130   28.6950   49.2950 C   0  0  0  0  0  3  0  0  0  0  0  0
   24.6050   30.0210   49.3670 C   0  0  0  0  0  3  0  0  0  0  0  0
   25.3380   31.0060   48.7190 C   0  0  0  0  0  3  0  0  0  0  0  0
   26.4580   30.6150   48.0210 C   0  0  0  0  0  3  0  0  0  0  0  0
   26.9010   29.3120   47.9220 C   0  0  0  0  0  0  0  0  0  0  0  0
   26.4050   26.2400   48.7310 H   0  0  0  0  0  0  0  0  0  0  0  0
  1  6  1  0  0  0  0
  2  1  2  0  0  0  0
  2  3  1  0  0  0  0
  3 17  1  0  0  0  0
  3  4  2  0  0  0  0
  4  5  1  0  0  0  0
  5  7  1  0  0  0  0
  6  5  2  0  0  0  0
  7 16  2  0  0  0  0
  7  8  1  0  0  0  0
  8  9  2  0  0  0  0
  9 10  1  0  0  0  0
 11 12  1  0  0  0  0
 11 10  2  0  0  0  0
 13 12  2  0  0  0  0
 14 13  1  0  0  0  0
 15 14  2  0  0  0  0
 15 16  1  0  0  0  0
 16 11  1  0  0  0  0
 17 18  1  0  0  0  0
 19 18  2  0  0  0  0
 19 22  1  0  0  0  0
 20 19  1  0  0  0  0
 21 20  2  0  0  0  0
 21 17  1  0  0  0  0
 22 23  2  0  0  0  0
 22 30  1  0  0  0  0
 23 24  1  0  0  0  0
 24 25  1  0  0  0  0
 24 31  1  0  0  0  0
 25 26  1  0  0  0  0
 26 27  2  0  0  0  0
 28 27  1  0  0  0  0
 29 28  2  0  0  0  0
 30 29  1  0  0  0  0
 30 25  2  0  0  0  0
M  END
>  <minimizedAffinity>
-9.06568718

$$$$

 OpenBabel03272514433D

 31 36  0  0  0  0  0  0  0  0999 V2000
   35.3090   29.7110   44.2430 C   0  0  0  0  0  3  0  0  0  0  0  0
   34.1840   29.0330   44.7470 C   0  0  0  0  0  3  0  0  0  0  0  0
   34.0620   29.0030   46.1280 C   0  0  0  0  0  0  0  0  0  0  0  0
   35.0220   29.6170   46.8360 N   0  0  0  0  0  0  0  0  0  0  0  0
   36.0890   30.2590   46.3640 C   0  0  0  0  0  0  0  0  0  0  0  0
   36.2100   30.2900   45.0290 N   0  0  0  0  0  0  0  0  0  0  0  0
   36.9310   30.8110   47.4210 C   0  0  0  0  0  0  0  0  0  0  0  0
   37.8690   31.7880   47.1480 C   0  0  0  0  0  3  0  0  0  0  0  0
   38.6860   32.3430   48.1050 C   0  0  0  0  0  3  0  0  0  0  0  0
   38.6090   31.9420   49.4120 C   0  0  0  0  0  3  0  0  0  0  0  0
   37.6840   30.9650   49.7280 C   0  0  0  0  0  0  0  0  0  0  0  0
   37.6020   30.5610   51.0370 C   0  0  0  0  0  3  0  0  0  0  0  0
   36.7150   29.6000   51.4380 C   0  0  0  0  0  3  0  0  0  0  0  0
   35.8950   29.0530   50.4420 C   0  0  0  0  0  3  0  0  0  0  0  0
   36.0170   29.4950   49.1450 C   0  0  0  0  0  3  0  0  0  0  0  0
   36.8940   30.4480   48.7340 C   0  0  0  0  0  0  0  0  0  0  0  0
   32.9610   28.3470   46.7730 N   0  0  0  0  0  0  0  0  0  0  0  0
   31.7690   28.9350   46.8840 C   0  0  0  0  0  3  0  0  0  0  0  0
   30.9730   28.0460   47.5370 C   0  0  0  0  0  0  0  0  0  0  0  0
   31.6800   26.9410   47.8110 N   0  0  0  0  0  0  0  0  0  0  0  0
   32.9400   27.1210   47.3310 C   0  0  0  0  0  3  0  0  0  0  0  0
   29.5570   28.3270   47.8580 C   0  0  0  0  0  0  0  0  0  0  0  0
   28.6020   28.9650   47.0760 C   0  0  0  0  0  3  0  0  0  0  0  0
   27.4410   29.0070   47.7560 N   0  0  0  0  0  0  0  0  0  0  0  0
   27.6050   28.4150   48.9650 C   0  0  0  0  0  0  0  0  0  0  0  0
   26.7330   28.2050   50.0130 C   0  0  0  0  0  3  0  0  0  0  0  0
   27.1570   27.5580   51.1680 C   0  0  0  0  0  3  0  0  0  0  0  0
   28.4680   27.1170   51.2730 C   0  0  0  0  0  3  0  0  0  0  0  0
   29.3080   27.3460   50.2060 C   0  0  0  0  0  3  0  0  0  0  0  0
   28.9320   27.9830   49.0400 C   0  0  0  0  0  0  0  0  0  0  0  0
   26.5640   29.4250   47.4120 H   0  0  0  0  0  0  0  0  0  0  0  0
  1  2  2  0  0  0  0
  1  6  1  0  0  0  0
  2  3  1  0  0  0  0
  3 17  1  0  0  0  0
  3  4  2  0  0  0  0
  5  4  1  0  0  0  0
  5  7  1  0  0  0  0
  6  5  2  0  0  0  0
  7 16  1  0  0  0  0
  8  7  2  0  0  0  0
  8  9  1  0  0  0  0
  9 10  2  0  0  0  0
 10 11  1  0  0  0  0
 11 12  1  0  0  0  0
 12 13  2  0  0  0  0
 14 13  1  0  0  0  0
 15 14  2  0  0  0  0
 16 15  1  0  0  0  0
 16 11  2  0  0  0  0
 17 18  1  0  0  0  0
 17 21  1  0  0  0  0
 18 19  2  0  0  0  0
 19 20  1  0  0  0  0
 19 22  1  0  0  0  0
 21 20  2  0  0  0  0
 22 30  1  0  0  0  0
 23 24  1  0  0  0  0
 23 22  2  0  0  0  0
 24 25  1  0  0  0  0
 25 30  2  0  0  0  0
 25 26  1  0  0  0  0
 26 27  2  0  0  0  0
 27 28  1  0  0  0  0
 29 28  2  0  0  0  0
 30 29  1  0  0  0  0
 31 24  1  0  0  0  0
M  END
>  <minimizedAffinity>
-9.06206799

$$$$

 OpenBabel03272514433D

 31 36  0  0  0  0  0  0  0  0999 V2000
   34.4540   29.7560   44.7960 C   0  0  0  0  0  3  0  0  0  0  0  0
   33.2130   29.0940   44.8180 C   0  0  0  0  0  3  0  0  0  0  0  0
   32.7860   28.6480   46.0600 C   0  0  0  0  0  0  0  0  0  0  0  0
   33.5930   28.8910   47.1030 N   0  0  0  0  0  0  0  0  0  0  0  0
   34.7690   29.5160   47.0880 C   0  0  0  0  0  0  0  0  0  0  0  0
   35.1850   29.9490   45.8870 N   0  0  0  0  0  0  0  0  0  0  0  0
   35.3820   29.6060   48.4090 C   0  0  0  0  0  0  0  0  0  0  0  0
   34.8830   28.8840   49.4760 C   0  0  0  0  0  3  0  0  0  0  0  0
   35.4230   28.9310   50.7410 C   0  0  0  0  0  3  0  0  0  0  0  0
   36.5100   29.7170   51.0110 C   0  0  0  0  0  3  0  0  0  0  0  0
   37.0410   30.4570   49.9710 C   0  0  0  0  0  0  0  0  0  0  0  0
   38.1310   31.2460   50.2370 C   0  0  0  0  0  3  0  0  0  0  0  0
   38.7190   32.0100   49.2660 C   0  0  0  0  0  3  0  0  0  0  0  0
   38.1490   31.9420   47.9890 C   0  0  0  0  0  3  0  0  0  0  0  0
   37.0560   31.1340   47.7750 C   0  0  0  0  0  3  0  0  0  0  0  0
   36.4630   30.3710   48.7300 C   0  0  0  0  0  0  0  0  0  0  0  0
   31.5380   27.9580   46.2240 N   0  0  0  0  0  0  0  0  0  0  0  0
   30.5380   28.4890   46.9310 C   0  0  0  0  0  3  0  0  0  0  0  0
   29.5240   27.5840   46.8810 C   0  0  0  0  0  0  0  0  0  0  0  0
   29.9130   26.5270   46.1540 N   0  0  0  0  0  0  0  0  0  0  0  0
   31.1870   26.7550   45.7330 C   0  0  0  0  0  3  0  0  0  0  0  0
   28.2240   27.8020   47.5490 C   0  0  0  0  0  0  0  0  0  0  0  0
   27.0070   28.1590   46.9810 C   0  0  0  0  0  3  0  0  0  0  0  0
   26.0820   28.2510   47.9540 N   0  0  0  0  0  0  0  0  0  0  0  0
   26.6560   27.9640   49.1490 C   0  0  0  0  0  0  0  0  0  0  0  0
   26.1440   27.9200   50.4290 C   0  0  0  0  0  3  0  0  0  0  0  0
   26.9580   27.5920   51.5060 C   0  0  0  0  0  3  0  0  0  0  0  0
   28.3000   27.3050   51.2980 C   0  0  0  0  0  3  0  0  0  0  0  0
   28.7730   27.3600   50.0070 C   0  0  0  0  0  3  0  0  0  0  0  0
   28.0030   27.6800   48.9070 C   0  0  0  0  0  0  0  0  0  0  0  0
   25.0920   28.4990   47.8140 H   0  0  0  0  0  0  0  0  0  0  0  0
  1  2  2  0  0  0  0
  1  6  1  0  0  0  0
  2  3  1  0  0  0  0
  3 17  1  0  0  0  0
  3  4  2  0  0  0  0
  5  4  1  0  0  0  0
  5  7  1  0  0  0  0
  6  5  2  0  0  0  0
  7 16  2  0  0  0  0
  7  8  1  0  0  0  0
  8  9  2  0  0  0  0
  9 10  1  0  0  0  0
 11 12  1  0  0  0  0
 11 10  2  0  0  0  0
 13 12  2  0  0  0  0
 14 13  1  0  0  0  0
 15 14  2  0  0  0  0
 15 16  1  0  0  0  0
 16 11  1  0  0  0  0
 17 18  1  0  0  0  0
 19 18  2  0  0  0  0
 19 22  1  0  0  0  0
 20 19  1  0  0  0  0
 21 20  2  0  0  0  0
 21 17  1  0  0  0  0
 22 30  1  0  0  0  0
 23 22  2  0  0  0  0
 23 24  1  0  0  0  0
 24 25  1  0  0  0  0
 25 26  1  0  0  0  0
 26 27  2  0  0  0  0
 28 27  1  0  0  0  0
 29 28  2  0  0  0  0
 30 25  2  0  0  0  0
 30 29  1  0  0  0  0
 31 24  1  0  0  0  0
M  END
>  <minimizedAffinity>
-8.87860584

$$$$

 OpenBabel03272514433D

 31 36  0  0  0  0  0  0  0  0999 V2000
   31.4020   25.8740   46.6580 C   0  0  0  0  0  3  0  0  0  0  0  0
   32.6090   26.5520   46.9130 C   0  0  0  0  0  3  0  0  0  0  0  0
   32.5780   27.4790   47.9420 C   0  0  0  0  0  0  0  0  0  0  0  0
   31.4100   27.6360   48.5850 N   0  0  0  0  0  0  0  0  0  0  0  0
   30.2650   26.9980   48.3480 C   0  0  0  0  0  0  0  0  0  0  0  0
   30.2920   26.1000   47.3520 N   0  0  0  0  0  0  0  0  0  0  0  0
   29.1880   27.4160   49.2390 C   0  0  0  0  0  0  0  0  0  0  0  0
   29.0620   26.8810   50.5060 C   0  0  0  0  0  3  0  0  0  0  0  0
   28.0680   27.2400   51.3860 C   0  0  0  0  0  3  0  0  0  0  0  0
   27.1270   28.1720   51.0390 C   0  0  0  0  0  3  0  0  0  0  0  0
   27.2160   28.7340   49.7790 C   0  0  0  0  0  0  0  0  0  0  0  0
   26.2760   29.6690   49.4270 C   0  0  0  0  0  3  0  0  0  0  0  0
   26.2890   30.2740   48.2000 C   0  0  0  0  0  3  0  0  0  0  0  0
   27.3130   29.8900   47.3260 C   0  0  0  0  0  3  0  0  0  0  0  0
   28.2310   28.9470   47.7280 C   0  0  0  0  0  3  0  0  0  0  0  0
   28.2280   28.3390   48.9430 C   0  0  0  0  0  0  0  0  0  0  0  0
   33.7390   28.2390   48.3070 N   0  0  0  0  0  0  0  0  0  0  0  0
   34.3950   28.9790   47.4120 C   0  0  0  0  0  3  0  0  0  0  0  0
   35.4260   29.5550   48.0860 C   0  0  0  0  0  0  0  0  0  0  0  0
   35.3870   29.1630   49.3680 N   0  0  0  0  0  0  0  0  0  0  0  0
   34.3220   28.3300   49.5180 C   0  0  0  0  0  3  0  0  0  0  0  0
   36.3990   30.4600   47.4390 C   0  0  0  0  0  0  0  0  0  0  0  0
   36.6890   30.5950   46.0860 C   0  0  0  0  0  3  0  0  0  0  0  0
   37.6400   31.5370   45.9370 N   0  0  0  0  0  0  0  0  0  0  0  0
   37.9850   32.0260   47.1540 C   0  0  0  0  0  0  0  0  0  0  0  0
   38.8960   32.9880   47.5350 C   0  0  0  0  0  3  0  0  0  0  0  0
   39.0640   33.3140   48.8750 C   0  0  0  0  0  3  0  0  0  0  0  0
   38.3110   32.6670   49.8440 C   0  0  0  0  0  3  0  0  0  0  0  0
   37.4120   31.7120   49.4250 C   0  0  0  0  0  3  0  0  0  0  0  0
   37.2110   31.3560   48.1070 C   0  0  0  0  0  0  0  0  0  0  0  0
   38.0420   31.8390   45.0380 H   0  0  0  0  0  0  0  0  0  0  0  0
  1  2  2  0  0  0  0
  1  6  1  0  0  0  0
  2  3  1  0  0  0  0
  3 17  1  0  0  0  0
  3  4  2  0  0  0  0
  5  4  1  0  0  0  0
  5  7  1  0  0  0  0
  6  5  2  0  0  0  0
  7  8  1  0  0  0  0
  8  9  2  0  0  0  0
 10  9  1  0  0  0  0
 11 10  2  0  0  0  0
 12 11  1  0  0  0  0
 13 12  2  0  0  0  0
 14 15  2  0  0  0  0
 14 13  1  0  0  0  0
 15 16  1  0  0  0  0
 16  7  2  0  0  0  0
 16 11  1  0  0  0  0
 17 21  1  0  0  0  0
 18 19  2  0  0  0  0
 18 17  1  0  0  0  0
 19 20  1  0  0  0  0
 20 21  2  0  0  0  0
 22 19  1  0  0  0  0
 22 30  1  0  0  0  0
 23 22  2  0  0  0  0
 24 23  1  0  0  0  0
 24 25  1  0  0  0  0
 25 26  2  0  0  0  0
 25 30  1  0  0  0  0
 26 27  1  0  0  0  0
 27 28  2  0  0  0  0
 29 28  1  0  0  0  0
 30 29  2  0  0  0  0
 31 24  1  0  0  0  0
M  END
>  <minimizedAffinity>
-8.60546112

$$$$

 OpenBabel03272514433D

 31 36  0  0  0  0  0  0  0  0999 V2000
   31.1120   25.4870   46.0700 C   0  0  0  0  0  3  0  0  0  0  0  0
   32.1360   26.4490   45.9940 C   0  0  0  0  0  3  0  0  0  0  0  0
   31.8160   27.7140   46.4610 C   0  0  0  0  0  0  0  0  0  0  0  0
   30.5730   27.8910   46.9330 N   0  0  0  0  0  0  0  0  0  0  0  0
   29.5990   26.9860   47.0060 C   0  0  0  0  0  0  0  0  0  0  0  0
   29.9060   25.7600   46.5550 N   0  0  0  0  0  0  0  0  0  0  0  0
   28.3670   27.5230   47.5750 C   0  0  0  0  0  0  0  0  0  0  0  0
   27.4030   28.0990   46.7710 C   0  0  0  0  0  3  0  0  0  0  0  0
   26.2250   28.6190   47.2550 C   0  0  0  0  0  3  0  0  0  0  0  0
   25.9420   28.5890   48.5950 C   0  0  0  0  0  3  0  0  0  0  0  0
   26.8810   28.0210   49.4350 C   0  0  0  0  0  0  0  0  0  0  0  0
   26.6020   27.9890   50.7780 C   0  0  0  0  0  3  0  0  0  0  0  0
   27.4750   27.4450   51.6800 C   0  0  0  0  0  3  0  0  0  0  0  0
   28.6660   26.9240   51.1590 C   0  0  0  0  0  3  0  0  0  0  0  0
   28.8970   26.9800   49.8040 C   0  0  0  0  0  3  0  0  0  0  0  0
   28.0380   27.5180   48.8980 C   0  0  0  0  0  0  0  0  0  0  0  0
   32.7690   28.7870   46.4420 N   0  0  0  0  0  0  0  0  0  0  0  0
   33.8930   28.7320   47.1590 C   0  0  0  0  0  3  0  0  0  0  0  0
   34.5530   29.8940   46.9100 C   0  0  0  0  0  0  0  0  0  0  0  0
   33.8320   30.6340   46.0560 N   0  0  0  0  0  0  0  0  0  0  0  0
   32.7020   29.9420   45.7530 C   0  0  0  0  0  3  0  0  0  0  0  0
   35.8570   30.2210   47.5240 C   0  0  0  0  0  0  0  0  0  0  0  0
   36.9930   30.7440   46.9180 C   0  0  0  0  0  3  0  0  0  0  0  0
   37.9560   30.8860   47.8480 N   0  0  0  0  0  0  0  0  0  0  0  0
   37.4870   30.4690   49.0490 C   0  0  0  0  0  0  0  0  0  0  0  0
   38.0730   30.4120   50.2970 C   0  0  0  0  0  3  0  0  0  0  0  0
   37.3630   29.9350   51.3920 C   0  0  0  0  0  3  0  0  0  0  0  0
   36.0520   29.5100   51.2350 C   0  0  0  0  0  3  0  0  0  0  0  0
   35.5020   29.5820   49.9740 C   0  0  0  0  0  3  0  0  0  0  0  0
   36.1670   30.0490   48.8590 C   0  0  0  0  0  0  0  0  0  0  0  0
   38.9030   31.2530   47.6730 H   0  0  0  0  0  0  0  0  0  0  0  0
  1  6  1  0  0  0  0
  2  1  2  0  0  0  0
  2  3  1  0  0  0  0
  3  4  2  0  0  0  0
  4  5  1  0  0  0  0
  5  7  1  0  0  0  0
  6  5  2  0  0  0  0
  7 16  1  0  0  0  0
  8  9  1  0  0  0  0
  8  7  2  0  0  0  0
  9 10  2  0  0  0  0
 10 11  1  0  0  0  0
 11 12  1  0  0  0  0
 12 13  2  0  0  0  0
 14 13  1  0  0  0  0
 15 14  2  0  0  0  0
 16 11  2  0  0  0  0
 16 15  1  0  0  0  0
 17  3  1  0  0  0  0
 17 18  1  0  0  0  0
 19 18  2  0  0  0  0
 19 22  1  0  0  0  0
 20 19  1  0  0  0  0
 21 20  2  0  0  0  0
 21 17  1  0  0  0  0
 22 30  1  0  0  0  0
 23 22  2  0  0  0  0
 23 24  1  0  0  0  0
 24 25  1  0  0  0  0
 25 26  1  0  0  0  0
 26 27  2  0  0  0  0
 28 27  1  0  0  0  0
 29 28  2  0  0  0  0
 30 25  2  0  0  0  0
 30 29  1  0  0  0  0
 31 24  1  0  0  0  0
M  END
>  <minimizedAffinity>
-8.43647003

$$$$

 OpenBabel03272514433D

 31 36  0  0  0  0  0  0  0  0999 V2000
   32.0210   25.8900   47.7740 C   0  0  0  0  0  3  0  0  0  0  0  0
   30.7680   26.5250   47.6940 C   0  0  0  0  0  3  0  0  0  0  0  0
   30.7960   27.9010   47.5220 C   0  0  0  0  0  0  0  0  0  0  0  0
   32.0030   28.4800   47.4500 N   0  0  0  0  0  0  0  0  0  0  0  0
   33.1920   27.8840   47.5260 C   0  0  0  0  0  0  0  0  0  0  0  0
   33.1690   26.5530   47.6930 N   0  0  0  0  0  0  0  0  0  0  0  0
   34.3050   28.8210   47.4100 C   0  0  0  0  0  0  0  0  0  0  0  0
   34.6530   29.3680   46.1910 C   0  0  0  0  0  3  0  0  0  0  0  0
   35.6910   30.2550   46.0260 C   0  0  0  0  0  3  0  0  0  0  0  0
   36.4520   30.6500   47.0940 C   0  0  0  0  0  3  0  0  0  0  0  0
   36.1380   30.1260   48.3330 C   0  0  0  0  0  0  0  0  0  0  0  0
   36.8970   30.5200   49.4060 C   0  0  0  0  0  3  0  0  0  0  0  0
   36.6550   30.0510   50.6680 C   0  0  0  0  0  3  0  0  0  0  0  0
   35.5930   29.1490   50.8050 C   0  0  0  0  0  3  0  0  0  0  0  0
   34.8620   28.7870   49.6970 C   0  0  0  0  0  3  0  0  0  0  0  0
   35.0920   29.2460   48.4390 C   0  0  0  0  0  0  0  0  0  0  0  0
   29.5890   28.6720   47.4230 N   0  0  0  0  0  0  0  0  0  0  0  0
   29.2900   29.3580   46.3190 C   0  0  0  0  0  3  0  0  0  0  0  0
   28.0970   29.9620   46.5660 C   0  0  0  0  0  0  0  0  0  0  0  0
   27.6890   29.6410   47.8010 N   0  0  0  0  0  0  0  0  0  0  0  0
   28.6260   28.8240   48.3530 C   0  0  0  0  0  3  0  0  0  0  0  0
   27.4180   30.8240   45.5750 C   0  0  0  0  0  0  0  0  0  0  0  0
   27.4450   30.7380   44.1890 C   0  0  0  0  0  3  0  0  0  0  0  0
   26.6850   31.7240   43.6760 N   0  0  0  0  0  0  0  0  0  0  0  0
   26.1570   32.4570   44.6870 C   0  0  0  0  0  0  0  0  0  0  0  0
   25.3250   33.5570   44.6900 C   0  0  0  0  0  3  0  0  0  0  0  0
   24.9190   34.1360   45.8860 C   0  0  0  0  0  3  0  0  0  0  0  0
   25.3520   33.6060   47.0930 C   0  0  0  0  0  3  0  0  0  0  0  0
   26.1820   32.5090   47.0490 C   0  0  0  0  0  3  0  0  0  0  0  0
   26.6110   31.9010   45.8870 C   0  0  0  0  0  0  0  0  0  0  0  0
   26.5280   31.8940   42.6730 H   0  0  0  0  0  0  0  0  0  0  0  0
  2  1  1  0  0  0  0
  3  2  2  0  0  0  0
  4  3  1  0  0  0  0
  4  5  2  0  0  0  0
  5  6  1  0  0  0  0
  6  1  2  0  0  0  0
  7  5  1  0  0  0  0
  7 16  1  0  0  0  0
  8  7  2  0  0  0  0
  9  8  1  0  0  0  0
  9 10  2  0  0  0  0
 10 11  1  0  0  0  0
 11 16  2  0  0  0  0
 11 12  1  0  0  0  0
 12 13  2  0  0  0  0
 13 14  1  0  0  0  0
 15 14  2  0  0  0  0
 16 15  1  0  0  0  0
 17  3  1  0  0  0  0
 17 21  1  0  0  0  0
 18 19  2  0  0  0  0
 18 17  1  0  0  0  0
 19 20  1  0  0  0  0
 20 21  2  0  0  0  0
 22 30  1  0  0  0  0
 22 19  1  0  0  0  0
 23 22  2  0  0  0  0
 24 23  1  0  0  0  0
 24 25  1  0  0  0  0
 25 26  2  0  0  0  0
 25 30  1  0  0  0  0
 26 27  1  0  0  0  0
 27 28  2  0  0  0  0
 29 28  1  0  0  0  0
 30 29  2  0  0  0  0
 31 24  1  0  0  0  0
M  END
>  <minimizedAffinity>
-8.36034298

$$$$

 OpenBabel03272514433D

 31 36  0  0  0  0  0  0  0  0999 V2000
   29.8760   25.9730   45.1020 C   0  0  0  0  0  3  0  0  0  0  0  0
   31.1190   26.6030   45.2970 C   0  0  0  0  0  3  0  0  0  0  0  0
   31.1560   27.5820   46.2780 C   0  0  0  0  0  0  0  0  0  0  0  0
   30.0120   27.8280   46.9340 N   0  0  0  0  0  0  0  0  0  0  0  0
   28.8330   27.2360   46.7540 C   0  0  0  0  0  0  0  0  0  0  0  0
   28.7940   26.2880   45.8050 N   0  0  0  0  0  0  0  0  0  0  0  0
   27.7980   27.7520   47.6440 C   0  0  0  0  0  0  0  0  0  0  0  0
   26.7140   28.4500   47.1480 C   0  0  0  0  0  3  0  0  0  0  0  0
   25.7110   28.9560   47.9420 C   0  0  0  0  0  3  0  0  0  0  0  0
   25.7380   28.7870   49.3000 C   0  0  0  0  0  3  0  0  0  0  0  0
   26.8060   28.0950   49.8380 C   0  0  0  0  0  0  0  0  0  0  0  0
   26.8370   27.9220   51.1990 C   0  0  0  0  0  3  0  0  0  0  0  0
   27.8570   27.2490   51.8140 C   0  0  0  0  0  3  0  0  0  0  0  0
   28.8640   26.7450   50.9820 C   0  0  0  0  0  3  0  0  0  0  0  0
   28.7840   26.9440   49.6230 C   0  0  0  0  0  3  0  0  0  0  0  0
   27.7770   27.6110   49.0000 C   0  0  0  0  0  0  0  0  0  0  0  0
   32.3610   28.3010   46.5790 N   0  0  0  0  0  0  0  0  0  0  0  0
   32.8820   28.3000   47.8070 C   0  0  0  0  0  3  0  0  0  0  0  0
   34.0030   29.0670   47.7380 C   0  0  0  0  0  0  0  0  0  0  0  0
   34.1490   29.5190   46.4840 N   0  0  0  0  0  0  0  0  0  0  0  0
   33.1150   29.0390   45.7430 C   0  0  0  0  0  3  0  0  0  0  0  0
   34.8750   29.3180   48.9050 C   0  0  0  0  0  0  0  0  0  0  0  0
   34.7310   28.8540   50.2080 C   0  0  0  0  0  3  0  0  0  0  0  0
   35.7510   29.3230   50.9510 N   0  0  0  0  0  0  0  0  0  0  0  0
   36.5620   30.0830   50.1740 C   0  0  0  0  0  0  0  0  0  0  0  0
   37.7210   30.7760   50.4550 C   0  0  0  0  0  3  0  0  0  0  0  0
   38.3760   31.4930   49.4620 C   0  0  0  0  0  3  0  0  0  0  0  0
   37.8640   31.5170   48.1720 C   0  0  0  0  0  3  0  0  0  0  0  0
   36.7050   30.8130   47.9320 C   0  0  0  0  0  3  0  0  0  0  0  0
   36.0210   30.0870   48.8850 C   0  0  0  0  0  0  0  0  0  0  0  0
   35.8940   29.1340   51.9540 H   0  0  0  0  0  0  0  0  0  0  0  0
  1  2  2  0  0  0  0
  1  6  1  0  0  0  0
  2  3  1  0  0  0  0
  3 17  1  0  0  0  0
  3  4  2  0  0  0  0
  5  4  1  0  0  0  0
  5  7  1  0  0  0  0
  6  5  2  0  0  0  0
  7 16  1  0  0  0  0
  8  7  2  0  0  0  0
  8  9  1  0  0  0  0
  9 10  2  0  0  0  0
 10 11  1  0  0  0  0
 11 12  1  0  0  0  0
 12 13  2  0  0  0  0
 14 13  1  0  0  0  0
 15 14  2  0  0  0  0
 16 15  1  0  0  0  0
 16 11  2  0  0  0  0
 17 18  1  0  0  0  0
 19 18  2  0  0  0  0
 19 22  1  0  0  0  0
 20 19  1  0  0  0  0
 21 20  2  0  0  0  0
 21 17  1  0  0  0  0
 22 23  2  0  0  0  0
 23 24  1  0  0  0  0
 24 31  1  0  0  0  0
 25 26  1  0  0  0  0
 25 24  1  0  0  0  0
 27 26  2  0  0  0  0
 28 27  1  0  0  0  0
 29 28  2  0  0  0  0
 29 30  1  0  0  0  0
 30 22  1  0  0  0  0
 30 25  2  0  0  0  0
M  END
>  <minimizedAffinity>
-8.34900379

$$$$

 OpenBabel03272514433D

 31 36  0  0  0  0  0  0  0  0999 V2000
   32.2860   26.0130   46.9350 C   0  0  0  0  0  3  0  0  0  0  0  0
   33.3730   26.6640   47.5480 C   0  0  0  0  0  3  0  0  0  0  0  0
   33.0610   27.7830   48.3050 C   0  0  0  0  0  0  0  0  0  0  0  0
   31.7670   28.1300   48.3730 N   0  0  0  0  0  0  0  0  0  0  0  0
   30.7350   27.5190   47.7930 C   0  0  0  0  0  0  0  0  0  0  0  0
   31.0330   26.4350   47.0610 N   0  0  0  0  0  0  0  0  0  0  0  0
   29.4590   28.1670   48.0790 C   0  0  0  0  0  0  0  0  0  0  0  0
   28.9160   29.0880   47.2040 C   0  0  0  0  0  3  0  0  0  0  0  0
   27.7170   29.7270   47.4230 C   0  0  0  0  0  3  0  0  0  0  0  0
   26.9840   29.4740   48.5520 C   0  0  0  0  0  3  0  0  0  0  0  0
   27.4920   28.5600   49.4540 C   0  0  0  0  0  0  0  0  0  0  0  0
   26.7600   28.3030   50.5860 C   0  0  0  0  0  3  0  0  0  0  0  0
   27.1880   27.4120   51.5320 C   0  0  0  0  0  3  0  0  0  0  0  0
   28.4110   26.7760   51.2820 C   0  0  0  0  0  3  0  0  0  0  0  0
   29.1050   27.0690   50.1300 C   0  0  0  0  0  3  0  0  0  0  0  0
   28.6910   27.9520   49.1840 C   0  0  0  0  0  0  0  0  0  0  0  0
   34.0740   28.5390   48.9850 N   0  0  0  0  0  0  0  0  0  0  0  0
   35.0540   29.1490   48.3160 C   0  0  0  0  0  3  0  0  0  0  0  0
   35.8230   29.7610   49.2550 C   0  0  0  0  0  0  0  0  0  0  0  0
   35.3100   29.5200   50.4690 N   0  0  0  0  0  0  0  0  0  0  0  0
   34.2020   28.7470   50.3090 C   0  0  0  0  0  3  0  0  0  0  0  0
   37.0240   30.5530   48.9130 C   0  0  0  0  0  0  0  0  0  0  0  0
   38.0020   31.0530   49.7640 C   0  0  0  0  0  3  0  0  0  0  0  0
   38.9170   31.7160   49.0320 N   0  0  0  0  0  0  0  0  0  0  0  0
   38.5690   31.6670   47.7230 C   0  0  0  0  0  0  0  0  0  0  0  0
   39.1650   32.1820   46.5910 C   0  0  0  0  0  3  0  0  0  0  0  0
   38.5960   31.9880   45.3390 C   0  0  0  0  0  3  0  0  0  0  0  0
   37.4160   31.2680   45.2190 C   0  0  0  0  0  3  0  0  0  0  0  0
   36.8510   30.7700   46.3720 C   0  0  0  0  0  3  0  0  0  0  0  0
   37.3790   30.9370   47.6350 C   0  0  0  0  0  0  0  0  0  0  0  0
   39.7530   32.1870   49.4080 H   0  0  0  0  0  0  0  0  0  0  0  0
  1  6  2  0  0  0  0
  1  2  1  0  0  0  0
  2  3  2  0  0  0  0
  3  4  1  0  0  0  0
  3 17  1  0  0  0  0
  5  7  1  0  0  0  0
  5  4  2  0  0  0  0
  6  5  1  0  0  0  0
  7 16  1  0  0  0  0
  8  9  1  0  0  0  0
  8  7  2  0  0  0  0
  9 10  2  0  0  0  0
 10 11  1  0  0  0  0
 11 12  1  0  0  0  0
 12 13  2  0  0  0  0
 14 13  1  0  0  0  0
 15 14  2  0  0  0  0
 16 11  2  0  0  0  0
 16 15  1  0  0  0  0
 17 21  1  0  0  0  0
 18 17  1  0  0  0  0
 18 19  2  0  0  0  0
 19 20  1  0  0  0  0
 21 20  2  0  0  0  0
 22 19  1  0  0  0  0
 22 23  2  0  0  0  0
 24 31  1  0  0  0  0
 24 23  1  0  0  0  0
 25 24  1  0  0  0  0
 26 25  2  0  0  0  0
 27 26  1  0  0  0  0
 28 27  2  0  0  0  0
 28 29  1  0  0  0  0
 29 30  2  0  0  0  0
 30 25  1  0  0  0  0
 30 22  1  0  0  0  0
M  END
>  <minimizedAffinity>
-8.29821205

$$$$

 OpenBabel03272514433D

 31 36  0  0  0  0  0  0  0  0999 V2000
   29.5940   28.6420   44.2050 C   0  0  0  0  0  3  0  0  0  0  0  0
   30.8850   28.5010   44.7480 C   0  0  0  0  0  3  0  0  0  0  0  0
   30.9590   28.4590   46.1320 C   0  0  0  0  0  0  0  0  0  0  0  0
   29.8030   28.5580   46.8050 N   0  0  0  0  0  0  0  0  0  0  0  0
   28.5800   28.6930   46.2970 C   0  0  0  0  0  0  0  0  0  0  0  0
   28.5040   28.7330   44.9580 N   0  0  0  0  0  0  0  0  0  0  0  0
   27.5450   28.7720   47.3230 C   0  0  0  0  0  0  0  0  0  0  0  0
   27.2480   27.6850   48.1210 C   0  0  0  0  0  3  0  0  0  0  0  0
   26.2840   27.7050   49.1020 C   0  0  0  0  0  3  0  0  0  0  0  0
   25.5510   28.8370   49.3410 C   0  0  0  0  0  3  0  0  0  0  0  0
   25.8150   29.9480   48.5640 C   0  0  0  0  0  0  0  0  0  0  0  0
   25.0840   31.0850   48.8010 C   0  0  0  0  0  3  0  0  0  0  0  0
   25.2810   32.2290   48.0790 C   0  0  0  0  0  3  0  0  0  0  0  0
   26.2690   32.1790   47.0870 C   0  0  0  0  0  3  0  0  0  0  0  0
   26.9750   31.0150   46.8910 C   0  0  0  0  0  3  0  0  0  0  0  0
   26.7880   29.8710   47.6010 C   0  0  0  0  0  0  0  0  0  0  0  0
   32.2130   28.3170   46.8150 N   0  0  0  0  0  0  0  0  0  0  0  0
   33.1140   29.3010   46.8270 C   0  0  0  0  0  3  0  0  0  0  0  0
   34.1660   28.8360   47.5530 C   0  0  0  0  0  0  0  0  0  0  0  0
   33.8970   27.5900   47.9680 N   0  0  0  0  0  0  0  0  0  0  0  0
   32.6630   27.2520   47.5070 C   0  0  0  0  0  3  0  0  0  0  0  0
   35.3830   29.6370   47.8020 C   0  0  0  0  0  0  0  0  0  0  0  0
   36.1210   30.3940   46.8990 C   0  0  0  0  0  3  0  0  0  0  0  0
   37.1530   30.9620   47.5500 N   0  0  0  0  0  0  0  0  0  0  0  0
   37.1160   30.6010   48.8560 C   0  0  0  0  0  0  0  0  0  0  0  0
   37.9360   30.9110   49.9210 C   0  0  0  0  0  3  0  0  0  0  0  0
   37.6760   30.4020   51.1870 C   0  0  0  0  0  3  0  0  0  0  0  0
   36.5820   29.5720   51.3890 C   0  0  0  0  0  3  0  0  0  0  0  0
   35.7880   29.2850   50.3010 C   0  0  0  0  0  3  0  0  0  0  0  0
   36.0060   29.7670   49.0270 C   0  0  0  0  0  0  0  0  0  0  0  0
   37.8610   31.5760   47.1220 H   0  0  0  0  0  0  0  0  0  0  0  0
  1  2  2  0  0  0  0
  1  6  1  0  0  0  0
  2  3  1  0  0  0  0
  3  4  2  0  0  0  0
  3 17  1  0  0  0  0
  5  4  1  0  0  0  0
  5  7  1  0  0  0  0
  6  5  2  0  0  0  0
  7 16  2  0  0  0  0
  7  8  1  0  0  0  0
  8  9  2  0  0  0  0
  9 10  1  0  0  0  0
 11 12  1  0  0  0  0
 11 10  2  0  0  0  0
 13 12  2  0  0  0  0
 14 13  1  0  0  0  0
 15 14  2  0  0  0  0
 15 16  1  0  0  0  0
 16 11  1  0  0  0  0
 17 18  1  0  0  0  0
 17 21  1  0  0  0  0
 18 19  2  0  0  0  0
 19 22  1  0  0  0  0
 19 20  1  0  0  0  0
 21 20  2  0  0  0  0
 22 30  1  0  0  0  0
 23 24  1  0  0  0  0
 23 22  2  0  0  0  0
 24 25  1  0  0  0  0
 25 30  2  0  0  0  0
 25 26  1  0  0  0  0
 26 27  2  0  0  0  0
 27 28  1  0  0  0  0
 29 28  2  0  0  0  0
 30 29  1  0  0  0  0
 31 24  1  0  0  0  0
M  END
>  <minimizedAffinity>
-8.1673336

$$$$
