
 OpenBabel03272514543D

 31 34  0  0  1  0  0  0  0  0999 V2000
   28.5690   28.6930   47.7210 C   0  0  0  0  0  0  0  0  0  0  0  0
   28.4990   28.7020   49.1220 C   0  0  0  0  0  0  0  0  0  0  0  0
   29.5190   28.0550   49.8320 C   0  0  0  0  0  3  0  0  0  0  0  0
   30.5130   27.4560   49.1330 N   0  0  0  0  0  0  0  0  0  0  0  0
   30.5590   27.4620   47.8120 C   0  0  0  0  0  0  0  0  0  0  0  0
   29.5980   28.0710   47.1220 N   0  0  0  0  0  0  0  0  0  0  0  0
   31.6530   26.8140   47.1720 N   0  0  0  0  0  0  0  0  0  0  0  0
   31.4340   26.2110   45.8900 C   0  0  0  0  0  2  0  0  0  0  0  0
   32.5200   25.1900   45.6960 C   0  0  0  0  0  2  0  0  0  0  0  0
   33.9030   25.7450   45.7890 C   0  0  0  0  0  2  0  0  0  0  0  0
   34.1040   26.7640   46.8530 C   0  0  0  0  0  2  0  0  0  0  0  0
   32.9380   26.7860   47.7890 C   0  0  1  0  0  3  0  0  0  0  0  0
   27.4000   29.3640   49.8550 C   0  0  0  0  0  0  0  0  0  0  0  0
   27.5250   29.0500   51.1720 F   0  0  0  0  0  0  0  0  0  0  0  0
   26.1560   29.0060   49.4310 F   0  0  0  0  0  0  0  0  0  0  0  0
   27.5580   30.7600   49.7970 F   0  0  0  0  0  0  0  0  0  0  0  0
   27.6010   29.3070   46.7840 C   0  0  0  0  0  0  0  0  0  0  0  0
   27.4320   30.6580   47.0550 F   0  0  0  0  0  0  0  0  0  0  0  0
   28.0240   29.1510   45.4690 F   0  0  0  0  0  0  0  0  0  0  0  0
   26.3740   28.7330   46.7960 F   0  0  0  0  0  0  0  0  0  0  0  0
   33.1550   27.8740   48.8090 C   0  0  0  0  0  2  0  0  0  0  0  0
   34.0130   28.9670   48.1790 C   0  0  0  0  0  0  0  0  0  0  0  0
   33.7110   29.7310   47.0680 C   0  0  0  0  0  3  0  0  0  0  0  0
   34.7360   30.5730   46.8410 N   0  0  0  0  0  0  0  0  0  0  0  0
   35.6910   30.3790   47.7680 C   0  0  0  0  0  0  0  0  0  0  0  0
   36.9260   30.9340   48.0310 C   0  0  0  0  0  3  0  0  0  0  0  0
   37.7580   30.5670   49.0690 C   0  0  0  0  0  3  0  0  0  0  0  0
   37.2780   29.5540   49.8960 C   0  0  0  0  0  3  0  0  0  0  0  0
   36.0470   28.9490   49.6930 C   0  0  0  0  0  3  0  0  0  0  0  0
   35.2750   29.3810   48.6240 C   0  0  0  0  0  0  0  0  0  0  0  0
   34.7820   31.2600   46.0750 H   0  0  0  0  0  0  0  0  0  0  0  0
  1  2  1  0  0  0  0
  2  3  2  0  0  0  0
  2 13  1  0  0  0  0
  4  3  1  0  0  0  0
  5  4  2  0  0  0  0
  6  1  2  0  0  0  0
  6  5  1  0  0  0  0
  7 12  1  0  0  0  0
  7  5  1  0  0  0  0
  8  7  1  0  0  0  0
  9 10  1  0  0  0  0
  9  8  1  0  0  0  0
 10 11  1  0  0  0  0
 11 12  1  0  0  0  0
 12 21  1  1  0  0  0
 13 14  1  0  0  0  0
 15 13  1  0  0  0  0
 16 13  1  0  0  0  0
 17 20  1  0  0  0  0
 17 18  1  0  0  0  0
 17  1  1  0  0  0  0
 19 17  1  0  0  0  0
 22 30  1  0  0  0  0
 22 21  1  0  0  0  0
 23 22  2  0  0  0  0
 24 23  1  0  0  0  0
 24 25  1  0  0  0  0
 25 26  2  0  0  0  0
 25 30  1  0  0  0  0
 26 27  1  0  0  0  0
 27 28  2  0  0  0  0
 29 28  1  0  0  0  0
 30 29  2  0  0  0  0
 31 24  1  0  0  0  0
M  END
>  <minimizedAffinity>
-7.69623947

$$$$

 OpenBabel03272514543D

 31 34  0  0  1  0  0  0  0  0999 V2000
   28.6230   27.4770   48.3190 C   0  0  0  0  0  0  0  0  0  0  0  0
   28.8040   28.3630   49.3910 C   0  0  0  0  0  0  0  0  0  0  0  0
   30.1010   28.5140   49.9020 C   0  0  0  0  0  3  0  0  0  0  0  0
   31.1040   27.7990   49.3400 N   0  0  0  0  0  0  0  0  0  0  0  0
   30.9080   26.9700   48.3290 C   0  0  0  0  0  0  0  0  0  0  0  0
   29.6840   26.8140   47.8310 N   0  0  0  0  0  0  0  0  0  0  0  0
   32.0310   26.2740   47.8000 N   0  0  0  0  0  0  0  0  0  0  0  0
   31.8270   24.9650   47.2500 C   0  0  0  0  0  2  0  0  0  0  0  0
   33.1610   24.2720   47.2650 C   0  0  0  0  0  2  0  0  0  0  0  0
   34.2330   24.9960   46.5190 C   0  0  0  0  0  2  0  0  0  0  0  0
   34.2290   26.4740   46.6830 C   0  0  0  0  0  2  0  0  0  0  0  0
   33.3240   26.8760   47.8040 C   0  0  1  0  0  3  0  0  0  0  0  0
   27.6890   29.1290   49.9830 C   0  0  0  0  0  0  0  0  0  0  0  0
   28.2180   30.1350   50.7300 F   0  0  0  0  0  0  0  0  0  0  0  0
   26.8610   28.3840   50.7690 F   0  0  0  0  0  0  0  0  0  0  0  0
   26.9580   29.7740   48.9700 F   0  0  0  0  0  0  0  0  0  0  0  0
   27.3460   27.1660   47.6370 C   0  0  0  0  0  0  0  0  0  0  0  0
   26.9430   28.2190   46.8270 F   0  0  0  0  0  0  0  0  0  0  0  0
   27.4680   26.0150   46.8680 F   0  0  0  0  0  0  0  0  0  0  0  0
   26.3210   26.8840   48.4770 F   0  0  0  0  0  0  0  0  0  0  0  0
   33.3010   28.3810   47.8910 C   0  0  0  0  0  2  0  0  0  0  0  0
   34.5010   28.8400   48.7120 C   0  0  0  0  0  0  0  0  0  0  0  0
   34.7310   28.6140   50.0550 C   0  0  0  0  0  3  0  0  0  0  0  0
   35.8990   29.1920   50.3890 N   0  0  0  0  0  0  0  0  0  0  0  0
   36.4330   29.7850   49.3060 C   0  0  0  0  0  0  0  0  0  0  0  0
   37.5810   30.5070   49.0520 C   0  0  0  0  0  3  0  0  0  0  0  0
   37.9330   31.0340   47.8270 C   0  0  0  0  0  3  0  0  0  0  0  0
   37.0350   30.7980   46.7890 C   0  0  0  0  0  3  0  0  0  0  0  0
   35.8620   30.0820   46.9690 C   0  0  0  0  0  3  0  0  0  0  0  0
   35.5870   29.5870   48.2360 C   0  0  0  0  0  0  0  0  0  0  0  0
   36.3200   29.1820   51.3290 H   0  0  0  0  0  0  0  0  0  0  0  0
  1  2  1  0  0  0  0
  2  3  2  0  0  0  0
  2 13  1  0  0  0  0
  4  3  1  0  0  0  0
  5  4  2  0  0  0  0
  6  1  2  0  0  0  0
  6  5  1  0  0  0  0
  7 12  1  0  0  0  0
  7  5  1  0  0  0  0
  8  9  1  0  0  0  0
  8  7  1  0  0  0  0
 10 11  1  0  0  0  0
 10  9  1  0  0  0  0
 11 12  1  0  0  0  0
 12 21  1  6  0  0  0
 13 14  1  0  0  0  0
 13 15  1  0  0  0  0
 16 13  1  0  0  0  0
 17  1  1  0  0  0  0
 17 20  1  0  0  0  0
 18 17  1  0  0  0  0
 19 17  1  0  0  0  0
 21 22  1  0  0  0  0
 22 23  2  0  0  0  0
 23 24  1  0  0  0  0
 24 31  1  0  0  0  0
 25 24  1  0  0  0  0
 26 25  1  0  0  0  0
 27 26  2  0  0  0  0
 28 29  2  0  0  0  0
 28 27  1  0  0  0  0
 29 30  1  0  0  0  0
 30 22  1  0  0  0  0
 30 25  2  0  0  0  0
M  END
>  <minimizedAffinity>
-7.16286612

$$$$

 OpenBabel03272514543D

 31 34  0  0  1  0  0  0  0  0999 V2000
   29.0720   27.1680   47.8790 C   0  0  0  0  0  0  0  0  0  0  0  0
   29.4380   27.4780   49.1960 C   0  0  0  0  0  0  0  0  0  0  0  0
   30.7990   27.6720   49.4690 C   0  0  0  0  0  3  0  0  0  0  0  0
   31.6850   27.5490   48.4530 N   0  0  0  0  0  0  0  0  0  0  0  0
   31.3160   27.2560   47.2170 C   0  0  0  0  0  0  0  0  0  0  0  0
   30.0280   27.0680   46.9400 N   0  0  0  0  0  0  0  0  0  0  0  0
   32.3240   27.1620   46.2160 N   0  0  0  0  0  0  0  0  0  0  0  0
   32.1260   26.2440   45.1320 C   0  0  0  0  0  2  0  0  0  0  0  0
   33.4830   25.9510   44.5550 C   0  0  0  0  0  2  0  0  0  0  0  0
   34.2230   27.1620   44.0920 C   0  0  0  0  0  2  0  0  0  0  0  0
   34.0980   28.3540   44.9730 C   0  0  0  0  0  2  0  0  0  0  0  0
   33.4930   27.9760   46.2880 C   0  0  1  0  0  3  0  0  0  0  0  0
   28.4460   27.6050   50.2840 C   0  0  0  0  0  0  0  0  0  0  0  0
   27.7620   28.7640   50.0960 F   0  0  0  0  0  0  0  0  0  0  0  0
   28.9920   27.6110   51.5330 F   0  0  0  0  0  0  0  0  0  0  0  0
   27.4800   26.5900   50.1740 F   0  0  0  0  0  0  0  0  0  0  0  0
   27.7010   26.9190   47.3780 C   0  0  0  0  0  0  0  0  0  0  0  0
   27.6930   26.7710   45.9970 F   0  0  0  0  0  0  0  0  0  0  0  0
   27.1640   25.7790   47.9650 F   0  0  0  0  0  0  0  0  0  0  0  0
   26.8100   27.8900   47.6880 F   0  0  0  0  0  0  0  0  0  0  0  0
   33.3260   29.2210   47.1200 C   0  0  0  0  0  2  0  0  0  0  0  0
   34.7050   29.7070   47.5520 C   0  0  0  0  0  0  0  0  0  0  0  0
   35.6650   30.3090   46.7620 C   0  0  0  0  0  3  0  0  0  0  0  0
   36.7390   30.5750   47.5280 N   0  0  0  0  0  0  0  0  0  0  0  0
   36.5060   30.1650   48.7880 C   0  0  0  0  0  0  0  0  0  0  0  0
   37.2190   30.1760   49.9680 C   0  0  0  0  0  3  0  0  0  0  0  0
   36.7660   29.6860   51.1760 C   0  0  0  0  0  3  0  0  0  0  0  0
   35.4830   29.1460   51.1620 C   0  0  0  0  0  3  0  0  0  0  0  0
   34.7070   29.0990   50.0140 C   0  0  0  0  0  3  0  0  0  0  0  0
   35.2430   29.6160   48.8430 C   0  0  0  0  0  0  0  0  0  0  0  0
   37.6070   31.0240   47.2000 H   0  0  0  0  0  0  0  0  0  0  0  0
  1  2  1  0  0  0  0
  2  3  2  0  0  0  0
  2 13  1  0  0  0  0
  4  3  1  0  0  0  0
  5  4  2  0  0  0  0
  6  5  1  0  0  0  0
  6  1  2  0  0  0  0
  7 12  1  0  0  0  0
  7  5  1  0  0  0  0
  8  7  1  0  0  0  0
  9  8  1  0  0  0  0
 10  9  1  0  0  0  0
 10 11  1  0  0  0  0
 11 12  1  0  0  0  0
 12 21  1  6  0  0  0
 13 15  1  0  0  0  0
 14 13  1  0  0  0  0
 16 13  1  0  0  0  0
 17 20  1  0  0  0  0
 17  1  1  0  0  0  0
 17 19  1  0  0  0  0
 18 17  1  0  0  0  0
 21 22  1  0  0  0  0
 22 30  1  0  0  0  0
 23 24  1  0  0  0  0
 23 22  2  0  0  0  0
 24 25  1  0  0  0  0
 25 30  2  0  0  0  0
 25 26  1  0  0  0  0
 26 27  2  0  0  0  0
 28 27  1  0  0  0  0
 29 28  2  0  0  0  0
 30 29  1  0  0  0  0
 31 24  1  0  0  0  0
M  END
>  <minimizedAffinity>
-7.1197772

$$$$

 OpenBabel03272514543D

 31 34  0  0  1  0  0  0  0  0999 V2000
   36.1840   29.8430   49.5820 C   0  0  0  0  0  0  0  0  0  0  0  0
   36.8330   30.7420   48.7230 C   0  0  0  0  0  0  0  0  0  0  0  0
   36.3710   30.8340   47.4030 C   0  0  0  0  0  3  0  0  0  0  0  0
   35.3300   30.0540   47.0270 N   0  0  0  0  0  0  0  0  0  0  0  0
   34.7330   29.2130   47.8550 C   0  0  0  0  0  0  0  0  0  0  0  0
   35.1600   29.1130   49.1120 N   0  0  0  0  0  0  0  0  0  0  0  0
   33.6390   28.4460   47.3660 N   0  0  0  0  0  0  0  0  0  0  0  0
   33.4240   27.1390   47.9140 C   0  0  0  0  0  2  0  0  0  0  0  0
   32.6040   26.3750   46.9100 C   0  0  0  0  0  2  0  0  0  0  0  0
   31.3050   27.0230   46.5650 C   0  0  0  0  0  2  0  0  0  0  0  0
   31.3550   28.5030   46.4220 C   0  0  0  0  0  2  0  0  0  0  0  0
   32.7710   28.9780   46.3680 C   0  0  1  0  0  3  0  0  0  0  0  0
   37.9670   31.5800   49.1640 C   0  0  0  0  0  0  0  0  0  0  0  0
   38.6120   32.0310   48.0550 F   0  0  0  0  0  0  0  0  0  0  0  0
   38.8600   30.9300   49.9610 F   0  0  0  0  0  0  0  0  0  0  0  0
   37.4880   32.7380   49.8020 F   0  0  0  0  0  0  0  0  0  0  0  0
   36.5130   29.5860   51.0020 C   0  0  0  0  0  0  0  0  0  0  0  0
   35.4240   29.0510   51.6780 F   0  0  0  0  0  0  0  0  0  0  0  0
   37.5910   28.7140   51.1070 F   0  0  0  0  0  0  0  0  0  0  0  0
   36.9190   30.6820   51.6870 F   0  0  0  0  0  0  0  0  0  0  0  0
   32.7740   30.4840   46.2900 C   0  0  0  0  0  2  0  0  0  0  0  0
   32.7870   30.8950   44.8210 C   0  0  0  0  0  0  0  0  0  0  0  0
   33.2870   30.1730   43.7550 C   0  0  0  0  0  3  0  0  0  0  0  0
   33.1090   30.8950   42.6330 N   0  0  0  0  0  0  0  0  0  0  0  0
   32.5110   32.0600   42.9380 C   0  0  0  0  0  0  0  0  0  0  0  0
   32.0930   33.1620   42.2210 C   0  0  0  0  0  3  0  0  0  0  0  0
   31.4840   34.2770   42.7610 C   0  0  0  0  0  3  0  0  0  0  0  0
   31.2940   34.2500   44.1390 C   0  0  0  0  0  3  0  0  0  0  0  0
   31.6890   33.1790   44.9250 C   0  0  0  0  0  3  0  0  0  0  0  0
   32.2930   32.0980   44.2990 C   0  0  0  0  0  0  0  0  0  0  0  0
   33.3880   30.6000   41.6860 H   0  0  0  0  0  0  0  0  0  0  0  0
  1 17  1  0  0  0  0
  2 13  1  0  0  0  0
  2  1  2  0  0  0  0
  3  2  1  0  0  0  0
  4  3  2  0  0  0  0
  4  5  1  0  0  0  0
  5  6  2  0  0  0  0
  6  1  1  0  0  0  0
  7  5  1  0  0  0  0
  7  8  1  0  0  0  0
  9  8  1  0  0  0  0
 10  9  1  0  0  0  0
 11 10  1  0  0  0  0
 12 21  1  1  0  0  0
 12 11  1  0  0  0  0
 12  7  1  0  0  0  0
 13 16  1  0  0  0  0
 13 15  1  0  0  0  0
 14 13  1  0  0  0  0
 17 19  1  0  0  0  0
 17 18  1  0  0  0  0
 17 20  1  0  0  0  0
 22 21  1  0  0  0  0
 23 22  2  0  0  0  0
 24 25  1  0  0  0  0
 24 23  1  0  0  0  0
 25 30  1  0  0  0  0
 26 27  1  0  0  0  0
 26 25  2  0  0  0  0
 27 28  2  0  0  0  0
 28 29  1  0  0  0  0
 30 22  1  0  0  0  0
 30 29  2  0  0  0  0
 31 24  1  0  0  0  0
M  END
>  <minimizedAffinity>
-7.01554298

$$$$

 OpenBabel03272514543D

 31 34  0  0  1  0  0  0  0  0999 V2000
   28.4860   28.8420   47.8860 C   0  0  0  0  0  0  0  0  0  0  0  0
   29.1790   28.0040   48.7710 C   0  0  0  0  0  0  0  0  0  0  0  0
   30.5100   27.6900   48.4660 C   0  0  0  0  0  3  0  0  0  0  0  0
   31.0550   28.2070   47.3400 N   0  0  0  0  0  0  0  0  0  0  0  0
   30.3820   28.9960   46.5200 C   0  0  0  0  0  0  0  0  0  0  0  0
   29.1170   29.3050   46.7930 N   0  0  0  0  0  0  0  0  0  0  0  0
   31.0490   29.4990   45.3670 N   0  0  0  0  0  0  0  0  0  0  0  0
   30.2770   29.7410   44.1840 C   0  0  0  0  0  2  0  0  0  0  0  0
   31.2390   29.7410   43.0280 C   0  0  0  0  0  2  0  0  0  0  0  0
   32.3420   30.7390   43.1520 C   0  0  0  0  0  2  0  0  0  0  0  0
   32.9140   30.8820   44.5170 C   0  0  0  0  0  2  0  0  0  0  0  0
   32.4480   29.7700   45.4020 C   0  0  1  0  0  3  0  0  0  0  0  0
   28.5570   27.4550   49.9930 C   0  0  0  0  0  0  0  0  0  0  0  0
   27.5670   26.6030   49.6140 F   0  0  0  0  0  0  0  0  0  0  0  0
   28.0330   28.4010   50.8220 F   0  0  0  0  0  0  0  0  0  0  0  0
   29.4820   26.6520   50.6830 F   0  0  0  0  0  0  0  0  0  0  0  0
   27.0810   29.2920   48.0120 C   0  0  0  0  0  0  0  0  0  0  0  0
   26.7560   30.2020   47.0150 F   0  0  0  0  0  0  0  0  0  0  0  0
   26.2120   28.2100   47.9470 F   0  0  0  0  0  0  0  0  0  0  0  0
   26.7870   29.8690   49.2020 F   0  0  0  0  0  0  0  0  0  0  0  0
   32.9980   29.9910   46.7880 C   0  0  0  0  0  2  0  0  0  0  0  0
   34.5140   30.1370   46.6930 C   0  0  0  0  0  0  0  0  0  0  0  0
   35.2890   30.0840   45.5510 C   0  0  0  0  0  3  0  0  0  0  0  0
   36.5760   30.2520   45.9040 N   0  0  0  0  0  0  0  0  0  0  0  0
   36.6600   30.4110   47.2370 C   0  0  0  0  0  0  0  0  0  0  0  0
   37.6870   30.6150   48.1350 C   0  0  0  0  0  3  0  0  0  0  0  0
   37.5340   30.7550   49.4990 C   0  0  0  0  0  3  0  0  0  0  0  0
   36.2250   30.6790   49.9680 C   0  0  0  0  0  3  0  0  0  0  0  0
   35.1430   30.4740   49.1260 C   0  0  0  0  0  3  0  0  0  0  0  0
   35.3900   30.3450   47.7670 C   0  0  0  0  0  0  0  0  0  0  0  0
   37.3750   30.2570   45.2530 H   0  0  0  0  0  0  0  0  0  0  0  0
  1 17  1  0  0  0  0
  1  2  1  0  0  0  0
  2 13  1  0  0  0  0
  3  2  2  0  0  0  0
  4  3  1  0  0  0  0
  5  6  1  0  0  0  0
  5  4  2  0  0  0  0
  6  1  2  0  0  0  0
  7 12  1  0  0  0  0
  7  5  1  0  0  0  0
  8  7  1  0  0  0  0
  9 10  1  0  0  0  0
  9  8  1  0  0  0  0
 10 11  1  0  0  0  0
 11 12  1  0  0  0  0
 12 21  1  1  0  0  0
 13 16  1  0  0  0  0
 13 15  1  0  0  0  0
 14 13  1  0  0  0  0
 17 20  1  0  0  0  0
 18 17  1  0  0  0  0
 19 17  1  0  0  0  0
 22 21  1  0  0  0  0
 22 30  1  0  0  0  0
 23 24  1  0  0  0  0
 23 22  2  0  0  0  0
 24 25  1  0  0  0  0
 25 30  2  0  0  0  0
 25 26  1  0  0  0  0
 26 27  2  0  0  0  0
 27 28  1  0  0  0  0
 29 28  2  0  0  0  0
 30 29  1  0  0  0  0
 31 24  1  0  0  0  0
M  END
>  <minimizedAffinity>
-6.91933823

$$$$

 OpenBabel03272514543D

 31 34  0  0  1  0  0  0  0  0999 V2000
   32.0720   27.5290   48.1120 C   0  0  0  0  0  0  0  0  0  0  0  0
   31.9530   26.7920   46.9250 C   0  0  0  0  0  0  0  0  0  0  0  0
   30.7090   26.2140   46.6370 C   0  0  0  0  0  3  0  0  0  0  0  0
   29.6940   26.3930   47.5140 N   0  0  0  0  0  0  0  0  0  0  0  0
   29.8300   27.0930   48.6280 C   0  0  0  0  0  0  0  0  0  0  0  0
   31.0040   27.6490   48.9180 N   0  0  0  0  0  0  0  0  0  0  0  0
   28.6980   27.2340   49.4800 N   0  0  0  0  0  0  0  0  0  0  0  0
   28.9170   27.3450   50.8920 C   0  0  0  0  0  2  0  0  0  0  0  0
   27.6300   26.9530   51.5650 C   0  0  0  0  0  2  0  0  0  0  0  0
   26.4510   27.7670   51.1480 C   0  0  0  0  0  2  0  0  0  0  0  0
   26.3910   28.0960   49.6980 C   0  0  0  0  0  2  0  0  0  0  0  0
   27.3830   27.2790   48.9320 C   0  0  1  0  0  3  0  0  0  0  0  0
   33.0800   26.6140   45.9870 C   0  0  0  0  0  0  0  0  0  0  0  0
   34.0180   25.8420   46.5980 F   0  0  0  0  0  0  0  0  0  0  0  0
   33.6590   27.7810   45.5880 F   0  0  0  0  0  0  0  0  0  0  0  0
   32.6620   25.8650   44.8720 F   0  0  0  0  0  0  0  0  0  0  0  0
   33.2880   28.2130   48.6090 C   0  0  0  0  0  0  0  0  0  0  0  0
   33.6600   29.2470   47.7610 F   0  0  0  0  0  0  0  0  0  0  0  0
   33.0790   28.7180   49.8870 F   0  0  0  0  0  0  0  0  0  0  0  0
   34.3620   27.4010   48.7560 F   0  0  0  0  0  0  0  0  0  0  0  0
   27.3330   27.6920   47.4830 C   0  0  0  0  0  2  0  0  0  0  0  0
   27.1600   29.2060   47.4140 C   0  0  0  0  0  0  0  0  0  0  0  0
   27.2490   30.1060   48.4580 C   0  0  0  0  0  3  0  0  0  0  0  0
   27.0250   31.3410   47.9730 N   0  0  0  0  0  0  0  0  0  0  0  0
   26.7940   31.2700   46.6500 C   0  0  0  0  0  0  0  0  0  0  0  0
   26.5150   32.1840   45.6540 C   0  0  0  0  0  3  0  0  0  0  0  0
   26.3100   31.8740   44.3260 C   0  0  0  0  0  3  0  0  0  0  0  0
   26.4010   30.5230   44.0020 C   0  0  0  0  0  3  0  0  0  0  0  0
   26.6770   29.5480   44.9480 C   0  0  0  0  0  3  0  0  0  0  0  0
   26.8700   29.9500   46.2620 C   0  0  0  0  0  0  0  0  0  0  0  0
   27.0300   32.2080   48.5290 H   0  0  0  0  0  0  0  0  0  0  0  0
  1 17  1  0  0  0  0
  1  6  1  0  0  0  0
  2  1  2  0  0  0  0
  3  2  1  0  0  0  0
  3  4  2  0  0  0  0
  4  5  1  0  0  0  0
  5  6  2  0  0  0  0
  5  7  1  0  0  0  0
  7  8  1  0  0  0  0
  8  9  1  0  0  0  0
 10  9  1  0  0  0  0
 11 10  1  0  0  0  0
 12 21  1  6  0  0  0
 12  7  1  0  0  0  0
 12 11  1  0  0  0  0
 13 14  1  0  0  0  0
 13  2  1  0  0  0  0
 15 13  1  0  0  0  0
 16 13  1  0  0  0  0
 17 20  1  0  0  0  0
 17 19  1  0  0  0  0
 18 17  1  0  0  0  0
 22 21  1  0  0  0  0
 22 23  2  0  0  0  0
 24 23  1  0  0  0  0
 24 31  1  0  0  0  0
 25 24  1  0  0  0  0
 26 25  2  0  0  0  0
 27 26  1  0  0  0  0
 28 27  2  0  0  0  0
 28 29  1  0  0  0  0
 29 30  2  0  0  0  0
 30 25  1  0  0  0  0
 30 22  1  0  0  0  0
M  END
>  <minimizedAffinity>
-6.76960516

$$$$

 OpenBabel03272514543D

 31 34  0  0  1  0  0  0  0  0999 V2000
   35.4390   30.4990   47.9640 C   0  0  0  0  0  0  0  0  0  0  0  0
   36.5390   30.5880   47.0990 C   0  0  0  0  0  0  0  0  0  0  0  0
   36.3180   30.3620   45.7340 C   0  0  0  0  0  3  0  0  0  0  0  0
   35.0610   30.0690   45.3230 N   0  0  0  0  0  0  0  0  0  0  0  0
   34.0380   29.9900   46.1570 C   0  0  0  0  0  0  0  0  0  0  0  0
   34.2310   30.2020   47.4570 N   0  0  0  0  0  0  0  0  0  0  0  0
   32.7540   29.6880   45.6240 N   0  0  0  0  0  0  0  0  0  0  0  0
   31.8320   28.9530   46.4390 C   0  0  0  0  0  2  0  0  0  0  0  0
   30.8290   28.3280   45.5100 C   0  0  0  0  0  2  0  0  0  0  0  0
   30.1040   29.3080   44.6470 C   0  0  0  0  0  2  0  0  0  0  0  0
   30.9410   30.4140   44.1070 C   0  0  0  0  0  2  0  0  0  0  0  0
   32.3930   30.1240   44.3150 C   0  0  1  0  0  3  0  0  0  0  0  0
   37.8990   30.9100   47.5790 C   0  0  0  0  0  0  0  0  0  0  0  0
   38.1790   30.0910   48.6270 F   0  0  0  0  0  0  0  0  0  0  0  0
   38.0550   32.2050   47.9730 F   0  0  0  0  0  0  0  0  0  0  0  0
   38.8460   30.5770   46.5940 F   0  0  0  0  0  0  0  0  0  0  0  0
   35.4500   30.6930   49.4310 C   0  0  0  0  0  0  0  0  0  0  0  0
   34.1600   30.7960   49.9320 F   0  0  0  0  0  0  0  0  0  0  0  0
   36.1050   29.6410   50.0610 F   0  0  0  0  0  0  0  0  0  0  0  0
   36.1350   31.7880   49.8420 F   0  0  0  0  0  0  0  0  0  0  0  0
   33.1970   31.2970   43.8140 C   0  0  0  0  0  2  0  0  0  0  0  0
   32.3000   32.5310   43.7990 C   0  0  0  0  0  0  0  0  0  0  0  0
   31.7530   33.1800   44.8880 C   0  0  0  0  0  3  0  0  0  0  0  0
   31.0210   34.2170   44.4400 N   0  0  0  0  0  0  0  0  0  0  0  0
   31.0750   34.2590   43.0970 C   0  0  0  0  0  0  0  0  0  0  0  0
   30.5390   35.0730   42.1210 C   0  0  0  0  0  3  0  0  0  0  0  0
   30.7370   34.9230   40.7640 C   0  0  0  0  0  3  0  0  0  0  0  0
   31.5460   33.8540   40.3880 C   0  0  0  0  0  3  0  0  0  0  0  0
   32.1180   32.9930   41.3120 C   0  0  0  0  0  3  0  0  0  0  0  0
   31.8670   33.2190   42.6580 C   0  0  0  0  0  0  0  0  0  0  0  0
   30.4980   34.8760   45.0350 H   0  0  0  0  0  0  0  0  0  0  0  0
  1 17  1  0  0  0  0
  2 13  1  0  0  0  0
  2  1  2  0  0  0  0
  3  2  1  0  0  0  0
  4  3  2  0  0  0  0
  4  5  1  0  0  0  0
  5  6  2  0  0  0  0
  6  1  1  0  0  0  0
  7  5  1  0  0  0  0
  7  8  1  0  0  0  0
  9  8  1  0  0  0  0
 10  9  1  0  0  0  0
 11 12  1  0  0  0  0
 11 10  1  0  0  0  0
 12 21  1  1  0  0  0
 12  7  1  0  0  0  0
 13 15  1  0  0  0  0
 13 14  1  0  0  0  0
 16 13  1  0  0  0  0
 17 20  1  0  0  0  0
 17 18  1  0  0  0  0
 17 19  1  0  0  0  0
 22 21  1  0  0  0  0
 22 23  2  0  0  0  0
 24 23  1  0  0  0  0
 24 31  1  0  0  0  0
 25 24  1  0  0  0  0
 26 25  2  0  0  0  0
 27 26  1  0  0  0  0
 28 27  2  0  0  0  0
 28 29  1  0  0  0  0
 29 30  2  0  0  0  0
 30 25  1  0  0  0  0
 30 22  1  0  0  0  0
M  END
>  <minimizedAffinity>
-6.48568964

$$$$

 OpenBabel03272514543D

 31 34  0  0  1  0  0  0  0  0999 V2000
   26.7270   29.0010   48.1450 C   0  0  0  0  0  0  0  0  0  0  0  0
   26.6000   30.3590   47.8180 C   0  0  0  0  0  0  0  0  0  0  0  0
   26.6500   30.7120   46.4630 C   0  0  0  0  0  3  0  0  0  0  0  0
   26.8170   29.7310   45.5450 N   0  0  0  0  0  0  0  0  0  0  0  0
   26.9340   28.4560   45.8770 C   0  0  0  0  0  0  0  0  0  0  0  0
   26.8900   28.1030   47.1600 N   0  0  0  0  0  0  0  0  0  0  0  0
   27.0950   27.4990   44.8360 N   0  0  0  0  0  0  0  0  0  0  0  0
   27.8650   26.3210   45.1060 C   0  0  0  0  0  2  0  0  0  0  0  0
   28.3150   25.7800   43.7770 C   0  0  0  0  0  2  0  0  0  0  0  0
   27.1990   25.4760   42.8330 C   0  0  0  0  0  2  0  0  0  0  0  0
   26.0890   26.4650   42.8280 C   0  0  0  0  0  2  0  0  0  0  0  0
   26.4860   27.7060   43.5640 C   0  0  1  0  0  3  0  0  0  0  0  0
   26.4180   31.4070   48.8430 C   0  0  0  0  0  0  0  0  0  0  0  0
   26.4070   32.6130   48.2150 F   0  0  0  0  0  0  0  0  0  0  0  0
   27.3860   31.4170   49.8030 F   0  0  0  0  0  0  0  0  0  0  0  0
   25.1450   31.2900   49.4280 F   0  0  0  0  0  0  0  0  0  0  0  0
   26.7090   28.4150   49.5050 C   0  0  0  0  0  0  0  0  0  0  0  0
   25.4850   28.6290   50.1250 F   0  0  0  0  0  0  0  0  0  0  0  0
   26.9650   27.0500   49.4540 F   0  0  0  0  0  0  0  0  0  0  0  0
   27.6720   28.8910   50.3290 F   0  0  0  0  0  0  0  0  0  0  0  0
   25.3110   28.6500   43.5890 C   0  0  0  0  0  2  0  0  0  0  0  0
   25.2960   29.4440   42.2870 C   0  0  0  0  0  0  0  0  0  0  0  0
   25.2920   28.9410   41.0010 C   0  0  0  0  0  3  0  0  0  0  0  0
   25.2850   29.9750   40.1410 N   0  0  0  0  0  0  0  0  0  0  0  0
   25.2850   31.1320   40.8280 C   0  0  0  0  0  0  0  0  0  0  0  0
   25.2790   32.4700   40.4920 C   0  0  0  0  0  3  0  0  0  0  0  0
   25.2790   33.5150   41.3920 C   0  0  0  0  0  3  0  0  0  0  0  0
   25.2860   33.1520   42.7360 C   0  0  0  0  0  3  0  0  0  0  0  0
   25.2930   31.8290   43.1490 C   0  0  0  0  0  3  0  0  0  0  0  0
   25.2920   30.8410   42.1750 C   0  0  0  0  0  0  0  0  0  0  0  0
   25.2810   29.8950   39.1130 H   0  0  0  0  0  0  0  0  0  0  0  0
  1 17  1  0  0  0  0
  2  1  1  0  0  0  0
  2 13  1  0  0  0  0
  3  2  2  0  0  0  0
  4  5  2  0  0  0  0
  4  3  1  0  0  0  0
  5  6  1  0  0  0  0
  6  1  2  0  0  0  0
  7  8  1  0  0  0  0
  7  5  1  0  0  0  0
  9  8  1  0  0  0  0
 10  9  1  0  0  0  0
 11 10  1  0  0  0  0
 11 12  1  0  0  0  0
 12 21  1  1  0  0  0
 12  7  1  0  0  0  0
 13 16  1  0  0  0  0
 13 15  1  0  0  0  0
 14 13  1  0  0  0  0
 17 18  1  0  0  0  0
 17 20  1  0  0  0  0
 19 17  1  0  0  0  0
 22 21  1  0  0  0  0
 23 22  2  0  0  0  0
 24 25  1  0  0  0  0
 24 23  1  0  0  0  0
 25 30  1  0  0  0  0
 26 25  2  0  0  0  0
 26 27  1  0  0  0  0
 27 28  2  0  0  0  0
 28 29  1  0  0  0  0
 30 22  1  0  0  0  0
 30 29  2  0  0  0  0
 31 24  1  0  0  0  0
M  END
>  <minimizedAffinity>
-6.32790804

$$$$

 OpenBabel03272514543D

 31 34  0  0  1  0  0  0  0  0999 V2000
   28.1820   28.6010   46.1040 C   0  0  0  0  0  0  0  0  0  0  0  0
   28.2110   28.7960   47.4930 C   0  0  0  0  0  0  0  0  0  0  0  0
   29.4130   28.5340   48.1640 C   0  0  0  0  0  3  0  0  0  0  0  0
   30.4770   28.1080   47.4430 N   0  0  0  0  0  0  0  0  0  0  0  0
   30.4250   27.9310   46.1330 C   0  0  0  0  0  0  0  0  0  0  0  0
   29.2920   28.1750   45.4800 N   0  0  0  0  0  0  0  0  0  0  0  0
   31.6020   27.4920   45.4650 N   0  0  0  0  0  0  0  0  0  0  0  0
   31.4580   26.6730   44.2970 C   0  0  0  0  0  2  0  0  0  0  0  0
   32.7570   25.9380   44.1160 C   0  0  0  0  0  2  0  0  0  0  0  0
   33.9490   26.8280   43.9920 C   0  0  0  0  0  2  0  0  0  0  0  0
   33.9520   28.0090   44.8960 C   0  0  0  0  0  2  0  0  0  0  0  0
   32.8900   27.8750   45.9410 C   0  0  1  0  0  3  0  0  0  0  0  0
   27.0330   29.2620   48.2520 C   0  0  0  0  0  0  0  0  0  0  0  0
   26.0550   28.3260   48.1280 F   0  0  0  0  0  0  0  0  0  0  0  0
   26.5470   30.4670   47.8380 F   0  0  0  0  0  0  0  0  0  0  0  0
   27.3310   29.2970   49.6260 F   0  0  0  0  0  0  0  0  0  0  0  0
   27.0230   28.8100   45.2070 C   0  0  0  0  0  0  0  0  0  0  0  0
   26.5980   30.1320   45.2400 F   0  0  0  0  0  0  0  0  0  0  0  0
   27.3440   28.4640   43.9000 F   0  0  0  0  0  0  0  0  0  0  0  0
   25.9510   28.0310   45.4910 F   0  0  0  0  0  0  0  0  0  0  0  0
   32.8870   29.1200   46.7910 C   0  0  0  0  0  2  0  0  0  0  0  0
   33.8750   28.9300   47.9370 C   0  0  0  0  0  0  0  0  0  0  0  0
   33.6950   28.1740   49.0790 C   0  0  0  0  0  3  0  0  0  0  0  0
   34.8030   28.2780   49.8360 N   0  0  0  0  0  0  0  0  0  0  0  0
   35.6930   29.0780   49.2220 C   0  0  0  0  0  0  0  0  0  0  0  0
   36.9620   29.5340   49.5130 C   0  0  0  0  0  3  0  0  0  0  0  0
   37.7090   30.3720   48.7110 C   0  0  0  0  0  3  0  0  0  0  0  0
   37.1010   30.7670   47.5220 C   0  0  0  0  0  3  0  0  0  0  0  0
   35.8280   30.3500   47.1630 C   0  0  0  0  0  3  0  0  0  0  0  0
   35.1490   29.5060   48.0300 C   0  0  0  0  0  0  0  0  0  0  0  0
   34.9460   27.8170   50.7460 H   0  0  0  0  0  0  0  0  0  0  0  0
  1  2  1  0  0  0  0
  2  3  2  0  0  0  0
  2 13  1  0  0  0  0
  4  3  1  0  0  0  0
  5  4  2  0  0  0  0
  6  1  2  0  0  0  0
  6  5  1  0  0  0  0
  7 12  1  0  0  0  0
  7  5  1  0  0  0  0
  8  7  1  0  0  0  0
  9  8  1  0  0  0  0
 10  9  1  0  0  0  0
 10 11  1  0  0  0  0
 11 12  1  0  0  0  0
 12 21  1  6  0  0  0
 13 16  1  0  0  0  0
 14 13  1  0  0  0  0
 15 13  1  0  0  0  0
 17 18  1  0  0  0  0
 17 20  1  0  0  0  0
 17  1  1  0  0  0  0
 19 17  1  0  0  0  0
 21 22  1  0  0  0  0
 22 30  1  0  0  0  0
 22 23  2  0  0  0  0
 23 24  1  0  0  0  0
 24 31  1  0  0  0  0
 25 26  1  0  0  0  0
 25 24  1  0  0  0  0
 27 26  2  0  0  0  0
 28 27  1  0  0  0  0
 29 28  2  0  0  0  0
 29 30  1  0  0  0  0
 30 25  2  0  0  0  0
M  END
>  <minimizedAffinity>
-6.31560612

$$$$
