
 OpenBabel03272502453D

 33 35  0  0  0  0  0  0  0  0999 V2000
   36.8100   31.3260   49.5220 C   0  0  0  0  0  0  0  0  0  0  0  0
   37.8050   31.6350   48.5890 C   0  0  0  0  0  0  0  0  0  0  0  0
   37.5350   31.3090   47.2580 C   0  0  0  0  0  0  0  0  0  0  0  0
   36.3520   30.7250   46.9480 N   0  0  0  0  0  0  0  0  0  0  0  0
   35.4180   30.4420   47.8740 C   0  0  0  0  0  0  0  0  0  0  0  0
   35.6720   30.7530   49.1540 N   0  0  0  0  0  0  0  0  0  0  0  0
   37.0070   31.5750   50.5700 H   0  0  0  0  0  0  0  0  0  0  0  0
   38.7480   32.1030   48.8520 H   0  0  0  0  0  0  0  0  0  0  0  0
   38.4930   31.5790   46.1890 C   0  0  0  0  0  0  0  0  0  0  0  0
   39.8060   31.1530   46.1800 C   0  0  0  0  0  0  0  0  0  0  0  0
   40.4370   31.5610   45.0580 N   0  0  0  0  0  0  0  0  0  0  0  0
   39.5360   32.2460   44.3500 C   0  0  0  0  0  0  0  0  0  0  0  0
   38.3930   32.2460   45.0360 N   0  0  0  0  0  0  0  0  0  0  0  0
   38.4460   32.9830   42.3070 C   0  0  0  0  0  0  0  0  0  0  0  0
   37.3840   32.4940   42.7240 O   0  0  0  0  0  0  0  0  0  0  0  0
   39.6350   32.9010   43.0960 N   0  0  0  0  0  0  0  0  0  0  0  0
   40.3410   30.5640   46.9340 H   0  0  0  0  0  0  0  0  0  0  0  0
   41.4170   31.4180   44.7300 H   0  0  0  0  0  0  0  0  0  0  0  0
   38.5310   33.5020   41.3180 H   0  0  0  0  0  0  0  0  0  0  0  0
   40.5680   33.2820   42.8250 H   0  0  0  0  0  0  0  0  0  0  0  0
   34.7770   27.9420   49.3000 Cl  0  0  0  0  0  0  0  0  0  0  0  0
   33.7790   28.6320   48.0830 C   0  0  0  0  0  0  0  0  0  0  0  0
   34.1700   29.8140   47.4700 C   0  0  0  0  0  0  0  0  0  0  0  0
   33.4060   30.3960   46.4980 C   0  0  0  0  0  0  0  0  0  0  0  0
   32.2120   29.8260   46.0880 C   0  0  0  0  0  0  0  0  0  0  0  0
   31.7990   28.6520   46.6790 C   0  0  0  0  0  0  0  0  0  0  0  0
   30.3090   27.8390   46.2440 Cl  0  0  0  0  0  0  0  0  0  0  0  0
   32.5950   28.0980   47.6520 C   0  0  0  0  0  0  0  0  0  0  0  0
   33.7170   31.3100   46.0300 H   0  0  0  0  0  0  0  0  0  0  0  0
   31.5940   30.2770   45.3170 H   0  0  0  0  0  0  0  0  0  0  0  0
   32.1880   26.8790   48.2810 N   0  0  0  0  0  0  0  0  0  0  0  0
   32.7170   26.0230   48.5500 H   0  0  0  0  0  0  0  0  0  0  0  0
   31.1470   26.8840   48.5000 H   0  0  0  0  0  0  0  0  0  0  0  0
  1  7  1  0  0  0  0
  2  8  1  0  0  0  0
  2  1  2  0  0  0  0
  3  2  1  0  0  0  0
  4  3  2  0  0  0  0
  4  5  1  0  0  0  0
  5  6  2  0  0  0  0
  6  1  1  0  0  0  0
  9  3  1  0  0  0  0
 10  9  2  0  0  0  0
 10 17  1  0  0  0  0
 11 10  1  0  0  0  0
 12 13  2  0  0  0  0
 12 11  1  0  0  0  0
 13  9  1  0  0  0  0
 14 15  2  0  0  0  0
 14 16  1  0  0  0  0
 16 12  1  0  0  0  0
 18 11  1  0  0  0  0
 19 14  1  0  0  0  0
 20 16  1  0  0  0  0
 22 21  1  0  0  0  0
 23  5  1  0  0  0  0
 23 22  2  0  0  0  0
 24 23  1  0  0  0  0
 25 24  2  0  0  0  0
 25 26  1  0  0  0  0
 26 28  2  0  0  0  0
 27 26  1  0  0  0  0
 28 22  1  0  0  0  0
 28 31  1  0  0  0  0
 29 24  1  0  0  0  0
 30 25  1  0  0  0  0
 31 33  1  0  0  0  0
 31 32  1  0  0  0  0
M  END
>  <minimizedAffinity>
-5.97872972

>  <minimizedRMSD>
1.76003528

$$$$
