
 OpenBabel03262522443D

 31 33  0  0  1  0  0  0  0  0999 V2000
   37.8200   31.4500   45.9390 C   0  0  1  0  0  0  0  0  0  0  0  0
   36.3950   31.3050   45.9670 C   0  0  0  0  0  0  0  0  0  0  0  0
   37.1990   30.1590   46.5520 C   0  0  2  0  0  0  0  0  0  0  0  0
   38.4400   31.8750   46.7680 H   0  0  0  0  0  0  0  0  0  0  0  0
   35.8180   31.8830   46.7410 H   0  0  0  0  0  0  0  0  0  0  0  0
   35.7700   31.0540   45.0910 H   0  0  0  0  0  0  0  0  0  0  0  0
   36.8970   29.2760   45.9820 H   0  0  0  0  0  0  0  0  0  0  0  0
   37.9540   31.3430   43.3560 C   0  0  0  0  0  0  0  0  0  0  0  0
   38.5940   31.2200   44.6590 C   0  0  0  0  0  0  0  0  0  0  0  0
   39.9310   30.9740   44.7280 C   0  0  0  0  0  0  0  0  0  0  0  0
   40.6050   30.8530   43.5410 N   0  0  0  0  0  0  0  0  0  0  0  0
   39.9980   30.9710   42.3480 C   0  0  0  0  0  0  0  0  0  0  0  0
   38.6880   31.2140   42.2560 N   0  0  0  0  0  0  0  0  0  0  0  0
   40.7400   30.8470   41.1310 N   0  0  0  0  0  0  0  0  0  0  0  0
   36.8910   31.5390   43.3570 H   0  0  0  0  0  0  0  0  0  0  0  0
   41.6710   31.3200   41.1380 H   0  0  0  0  0  0  0  0  0  0  0  0
   40.4320   30.3420   40.2740 H   0  0  0  0  0  0  0  0  0  0  0  0
   40.5940   30.8480   45.9790 N   0  0  0  0  0  0  0  0  0  0  0  0
   41.0230   31.5800   46.5880 H   0  0  0  0  0  0  0  0  0  0  0  0
   40.4890   29.7950   46.0420 H   0  0  0  0  0  0  0  0  0  0  0  0
   34.8440   28.7120   47.9540 Cl  0  0  0  0  0  0  0  0  0  0  0  0
   36.1680   29.4500   48.8140 C   0  0  0  0  0  0  0  0  0  0  0  0
   37.0930   30.0820   48.0120 C   0  0  0  0  0  0  0  0  0  0  0  0
   38.1500   30.6940   48.6710 C   0  0  0  0  0  0  0  0  0  0  0  0
   38.2680   30.6730   50.0630 C   0  0  0  0  0  0  0  0  0  0  0  0
   37.2850   30.0130   50.8330 C   0  0  0  0  0  0  0  0  0  0  0  0
   37.2880   29.9680   52.5780 Cl  0  0  0  0  0  0  0  0  0  0  0  0
   36.2210   29.3940   50.1700 C   0  0  0  0  0  0  0  0  0  0  0  0
   39.0240   31.2380   48.3490 H   0  0  0  0  0  0  0  0  0  0  0  0
   39.0100   31.0910   50.6910 H   0  0  0  0  0  0  0  0  0  0  0  0
   35.4290   28.8660   50.6820 H   0  0  0  0  0  0  0  0  0  0  0  0
  1  2  1  0  0  0  0
  1  3  1  0  0  0  0
  1  4  1  1  0  0  0
  2  3  1  0  0  0  0
  2  5  1  0  0  0  0
  3  7  1  6  0  0  0
  3 23  1  0  0  0  0
  6  2  1  0  0  0  0
  8 15  1  0  0  0  0
  8  9  1  0  0  0  0
  9 10  2  0  0  0  0
  9  1  1  0  0  0  0
 10 18  1  0  0  0  0
 11 10  1  0  0  0  0
 12 11  2  0  0  0  0
 13 12  1  0  0  0  0
 13  8  2  0  0  0  0
 14 16  1  0  0  0  0
 14 12  1  0  0  0  0
 17 14  1  0  0  0  0
 18 20  1  0  0  0  0
 18 19  1  0  0  0  0
 21 22  1  0  0  0  0
 22 28  1  0  0  0  0
 23 24  1  0  0  0  0
 23 22  2  0  0  0  0
 24 25  2  0  0  0  0
 25 30  1  0  0  0  0
 25 26  1  0  0  0  0
 26 27  1  0  0  0  0
 28 31  1  0  0  0  0
 28 26  2  0  0  0  0
 29 24  1  0  0  0  0
M  END
>  <minimizedAffinity>
-5.00972033

>  <minimizedRMSD>
0.093181327

$$$$
