
 OpenBabel03272510313D

 26 27  0  0  0  0  0  0  0  0999 V2000
   36.5550   31.1430   49.2560 C   0  0  0  0  0  0  0  0  0  0  0  0
   36.9870   32.2270   49.9990 C   0  0  0  0  0  0  0  0  0  0  0  0
   37.9200   33.0170   49.3650 C   0  0  0  0  0  0  0  0  0  0  0  0
   38.3630   32.7300   48.1040 N   0  0  0  0  0  0  0  0  0  0  0  0
   37.9110   31.6600   47.4200 C   0  0  0  0  0  0  0  0  0  0  0  0
   36.9910   30.8580   48.0150 N   0  0  0  0  0  0  0  0  0  0  0  0
   36.6510   32.4650   50.9810 H   0  0  0  0  0  0  0  0  0  0  0  0
   38.3260   33.8930   49.8590 H   0  0  0  0  0  0  0  0  0  0  0  0
   35.5090   30.2340   49.8660 C   0  0  0  0  0  0  0  0  0  0  0  0
   35.4850   28.8270   49.6510 C   0  0  0  0  0  0  0  0  0  0  0  0
   36.1150   29.3130   50.9470 C   0  0  0  0  0  0  0  0  0  0  0  0
   34.5700   30.7670   50.2010 H   0  0  0  0  0  0  0  0  0  0  0  0
   36.2410   28.3370   48.9700 H   0  0  0  0  0  0  0  0  0  0  0  0
   34.5550   28.2600   49.7110 H   0  0  0  0  0  0  0  0  0  0  0  0
   35.4760   29.1570   51.8390 H   0  0  0  0  0  0  0  0  0  0  0  0
   37.2060   29.2840   51.0560 H   0  0  0  0  0  0  0  0  0  0  0  0
   38.3640   31.3470   46.0720 C   0  0  0  0  0  0  0  0  0  0  0  0
   37.7030   30.6230   45.5860 H   0  0  0  0  0  0  0  0  0  0  0  0
   38.3850   32.2580   45.4100 H   0  0  0  0  0  0  0  0  0  0  0  0
   40.8450   31.4310   45.7340 C   0  0  0  0  0  0  0  0  0  0  0  0
   40.8340   32.5750   45.1950 O   0  0  0  0  0  0  0  0  0  0  0  0
   39.6860   30.7550   46.1800 N   0  0  0  0  0  0  0  0  0  0  0  0
   39.7190   29.8070   46.6050 H   0  0  0  0  0  0  0  0  0  0  0  0
   42.1000   30.7590   45.9130 N   0  0  0  0  0  0  0  0  0  0  0  0
   42.4650   30.6320   46.8870 H   0  0  0  0  0  0  0  0  0  0  0  0
   42.6530   30.3980   45.1160 H   0  0  0  0  0  0  0  0  0  0  0  0
  1  9  1  0  0  0  0
  1  2  1  0  0  0  0
  2  7  1  0  0  0  0
  3  8  1  0  0  0  0
  3  2  2  0  0  0  0
  4  3  1  0  0  0  0
  5  6  1  0  0  0  0
  5  4  2  0  0  0  0
  6  1  2  0  0  0  0
  9 12  1  0  0  0  0
  9 11  1  0  0  0  0
 10 14  1  0  0  0  0
 10  9  1  0  0  0  0
 10 11  1  0  0  0  0
 11 16  1  0  0  0  0
 11 15  1  0  0  0  0
 13 10  1  0  0  0  0
 17 22  1  0  0  0  0
 17  5  1  0  0  0  0
 18 17  1  0  0  0  0
 19 17  1  0  0  0  0
 20 24  1  0  0  0  0
 20 22  1  0  0  0  0
 21 20  2  0  0  0  0
 22 23  1  0  0  0  0
 24 25  1  0  0  0  0
 26 24  1  0  0  0  0
M  END
>  <minimizedAffinity>
-5.05633497

>  <minimizedRMSD>
1.05428636

$$$$
