
 OpenBabel03272507273D

 33 34  0  0  1  0  0  0  0  0999 V2000
   35.5090   26.1520   31.2770 C   0  0  0  0  0  0  0  0  0  0  0  0
   36.4410   26.4290   32.2880 C   0  0  0  0  0  0  0  0  0  0  0  0
   37.3040   25.4030   32.6910 C   0  0  0  0  0  0  0  0  0  0  0  0
   37.1910   24.2170   32.0890 N   0  0  0  0  0  0  0  0  0  0  0  0
   36.2850   23.9800   31.1210 C   0  0  0  0  0  0  0  0  0  0  0  0
   35.4560   24.9410   30.7230 N   0  0  0  0  0  0  0  0  0  0  0  0
   38.2540   25.6310   33.7000 N   0  0  0  0  0  0  0  0  0  0  0  0
   38.8790   26.9230   34.0100 C   0  0  0  0  0  0  0  0  0  0  0  0
   39.9730   26.6560   34.9860 C   0  0  0  0  0  0  0  0  0  0  0  0
   40.2120   25.1960   34.8260 C   0  0  0  0  0  0  0  0  0  0  0  0
   38.8110   24.6900   34.6280 C   0  0  2  0  0  0  0  0  0  0  0  0
   34.8720   26.9950   31.0160 H   0  0  0  0  0  0  0  0  0  0  0  0
   36.5080   27.4120   32.7600 H   0  0  0  0  0  0  0  0  0  0  0  0
   36.2030   22.9990   30.6340 H   0  0  0  0  0  0  0  0  0  0  0  0
   38.0970   27.5180   34.5170 H   0  0  0  0  0  0  0  0  0  0  0  0
   39.2050   27.3970   33.0850 H   0  0  0  0  0  0  0  0  0  0  0  0
   39.7830   26.9850   36.0040 H   0  0  0  0  0  0  0  0  0  0  0  0
   40.8900   27.2250   34.6530 H   0  0  0  0  0  0  0  0  0  0  0  0
   40.5900   24.7920   35.7980 H   0  0  0  0  0  0  0  0  0  0  0  0
   40.8990   24.9280   34.0240 H   0  0  0  0  0  0  0  0  0  0  0  0
   38.7590   23.2440   34.2660 C   0  0  0  0  0  0  0  0  0  0  0  0
   39.6130   22.5840   35.1370 F   0  0  0  0  0  0  0  0  0  0  0  0
   39.1560   22.9340   32.9960 F   0  0  0  0  0  0  0  0  0  0  0  0
   37.4800   22.8100   34.5740 F   0  0  0  0  0  0  0  0  0  0  0  0
   38.0470   24.8740   35.8960 C   0  0  0  0  0  0  0  0  0  0  0  0
   38.0500   25.9880   36.1030 H   0  0  0  0  0  0  0  0  0  0  0  0
   36.9940   24.6470   35.6290 H   0  0  0  0  0  0  0  0  0  0  0  0
   38.7310   24.3590   36.7970 O   0  0  0  0  0  0  0  0  0  0  0  0
   38.5150   23.7850   38.0060 C   0  0  0  0  0  0  0  0  0  0  0  0
   37.9130   24.6060   38.7390 O   0  0  0  0  0  0  0  0  0  0  0  0
   38.6230   22.6970   38.8920 N   0  0  0  0  0  0  0  0  0  0  0  0
   39.4580   22.0600   38.9770 H   0  0  0  0  0  0  0  0  0  0  0  0
   37.8040   22.4880   39.5360 H   0  0  0  0  0  0  0  0  0  0  0  0
  1  2  1  0  0  0  0
  2  3  2  0  0  0  0
  2 13  1  0  0  0  0
  3  7  1  0  0  0  0
  4  3  1  0  0  0  0
  5  4  2  0  0  0  0
  6  5  1  0  0  0  0
  6  1  2  0  0  0  0
  7  8  1  0  0  0  0
  7 11  1  0  0  0  0
  8 15  1  0  0  0  0
  8  9  1  0  0  0  0
  9 17  1  0  0  0  0
 10  9  1  0  0  0  0
 10 19  1  0  0  0  0
 11 21  1  6  0  0  0
 11 10  1  0  0  0  0
 11 25  1  0  0  0  0
 12  1  1  0  0  0  0
 14  5  1  0  0  0  0
 16  8  1  0  0  0  0
 18  9  1  0  0  0  0
 20 10  1  0  0  0  0
 21 24  1  0  0  0  0
 21 22  1  0  0  0  0
 23 21  1  0  0  0  0
 25 26  1  0  0  0  0
 25 28  1  0  0  0  0
 27 25  1  0  0  0  0
 28 29  1  0  0  0  0
 29 30  2  0  0  0  0
 29 31  1  0  0  0  0
 31 32  1  0  0  0  0
 31 33  1  0  0  0  0
M  END
>  <minimizedAffinity>
-4.96269035

$$$$

 OpenBabel03272507273D

 33 34  0  0  1  0  0  0  0  0999 V2000
   39.1490   22.7030   37.3000 C   0  0  0  0  0  0  0  0  0  0  0  0
   39.4890   23.3320   36.0930 C   0  0  0  0  0  0  0  0  0  0  0  0
   39.0580   24.6480   35.8890 C   0  0  0  0  0  0  0  0  0  0  0  0
   38.3480   25.2310   36.8570 N   0  0  0  0  0  0  0  0  0  0  0  0
   38.0360   24.6010   38.0070 C   0  0  0  0  0  0  0  0  0  0  0  0
   38.4360   23.3510   38.2200 N   0  0  0  0  0  0  0  0  0  0  0  0
   39.3720   25.3200   34.6970 N   0  0  0  0  0  0  0  0  0  0  0  0
   40.5570   25.0760   33.8640 C   0  0  0  0  0  0  0  0  0  0  0  0
   40.5980   26.1540   32.8360 C   0  0  0  0  0  0  0  0  0  0  0  0
   39.7130   27.2010   33.4170 C   0  0  0  0  0  0  0  0  0  0  0  0
   38.6350   26.3590   34.0390 C   0  0  2  0  0  0  0  0  0  0  0  0
   39.5170   21.6820   37.3880 H   0  0  0  0  0  0  0  0  0  0  0  0
   40.0730   22.8250   35.3220 H   0  0  0  0  0  0  0  0  0  0  0  0
   37.4510   25.0940   38.7940 H   0  0  0  0  0  0  0  0  0  0  0  0
   40.3690   24.1140   33.3530 H   0  0  0  0  0  0  0  0  0  0  0  0
   41.4400   25.0250   34.5000 H   0  0  0  0  0  0  0  0  0  0  0  0
   40.3480   25.8470   31.8250 H   0  0  0  0  0  0  0  0  0  0  0  0
   41.6560   26.5480   32.7790 H   0  0  0  0  0  0  0  0  0  0  0  0
   39.2560   27.7810   32.5780 H   0  0  0  0  0  0  0  0  0  0  0  0
   40.2030   27.8820   34.1120 H   0  0  0  0  0  0  0  0  0  0  0  0
   37.6750   27.1540   34.8590 C   0  0  0  0  0  0  0  0  0  0  0  0
   37.2310   28.1930   34.0560 F   0  0  0  0  0  0  0  0  0  0  0  0
   38.1840   27.7100   35.9980 F   0  0  0  0  0  0  0  0  0  0  0  0
   36.5780   26.3370   35.0770 F   0  0  0  0  0  0  0  0  0  0  0  0
   37.8640   25.6830   32.9560 C   0  0  0  0  0  0  0  0  0  0  0  0
   38.5560   24.8950   32.5260 H   0  0  0  0  0  0  0  0  0  0  0  0
   37.0800   25.1030   33.4850 H   0  0  0  0  0  0  0  0  0  0  0  0
   37.7080   26.5260   32.0560 O   0  0  0  0  0  0  0  0  0  0  0  0
   36.8200   26.7670   31.0610 C   0  0  0  0  0  0  0  0  0  0  0  0
   35.9320   25.8810   31.0910 O   0  0  0  0  0  0  0  0  0  0  0  0
   36.3660   27.5330   29.9700 N   0  0  0  0  0  0  0  0  0  0  0  0
   36.9810   27.9790   29.2410 H   0  0  0  0  0  0  0  0  0  0  0  0
   35.3200   27.6830   29.8600 H   0  0  0  0  0  0  0  0  0  0  0  0
  1 12  1  0  0  0  0
  1  6  1  0  0  0  0
  2  1  2  0  0  0  0
  3  2  1  0  0  0  0
  3  4  2  0  0  0  0
  4  5  1  0  0  0  0
  5  6  2  0  0  0  0
  5 14  1  0  0  0  0
  7  3  1  0  0  0  0
  8 16  1  0  0  0  0
  8  7  1  0  0  0  0
  9 10  1  0  0  0  0
  9  8  1  0  0  0  0
 10 11  1  0  0  0  0
 10 20  1  0  0  0  0
 11 25  1  6  0  0  0
 11  7  1  0  0  0  0
 11 21  1  0  0  0  0
 13  2  1  0  0  0  0
 15  8  1  0  0  0  0
 17  9  1  0  0  0  0
 18  9  1  0  0  0  0
 19 10  1  0  0  0  0
 21 24  1  0  0  0  0
 21 23  1  0  0  0  0
 22 21  1  0  0  0  0
 25 27  1  0  0  0  0
 26 25  1  0  0  0  0
 28 25  1  0  0  0  0
 29 30  2  0  0  0  0
 29 28  1  0  0  0  0
 31 29  1  0  0  0  0
 32 31  1  0  0  0  0
 33 31  1  0  0  0  0
M  END
>  <minimizedAffinity>
-4.70765305

$$$$

 OpenBabel03272507273D

 33 34  0  0  1  0  0  0  0  0999 V2000
   38.3920   26.2420   30.7000 C   0  0  0  0  0  0  0  0  0  0  0  0
   38.4880   25.1370   31.5590 C   0  0  0  0  0  0  0  0  0  0  0  0
   38.1360   25.3120   32.9020 C   0  0  0  0  0  0  0  0  0  0  0  0
   37.7270   26.5210   33.2900 N   0  0  0  0  0  0  0  0  0  0  0  0
   37.6450   27.5650   32.4430 C   0  0  0  0  0  0  0  0  0  0  0  0
   37.9740   27.4210   31.1620 N   0  0  0  0  0  0  0  0  0  0  0  0
   38.2170   24.2360   33.8020 N   0  0  0  0  0  0  0  0  0  0  0  0
   38.0670   22.8160   33.4530 C   0  0  0  0  0  0  0  0  0  0  0  0
   38.0020   22.0580   34.7340 C   0  0  0  0  0  0  0  0  0  0  0  0
   37.6550   23.1100   35.7270 C   0  0  0  0  0  0  0  0  0  0  0  0
   38.4590   24.2720   35.2140 C   0  0  2  0  0  0  0  0  0  0  0  0
   38.6820   26.0330   29.6720 H   0  0  0  0  0  0  0  0  0  0  0  0
   38.8270   24.1600   31.2070 H   0  0  0  0  0  0  0  0  0  0  0  0
   37.3060   28.5540   32.7760 H   0  0  0  0  0  0  0  0  0  0  0  0
   39.0000   22.5380   32.9290 H   0  0  0  0  0  0  0  0  0  0  0  0
   37.1950   22.6940   32.8110 H   0  0  0  0  0  0  0  0  0  0  0  0
   38.8820   21.4670   34.9730 H   0  0  0  0  0  0  0  0  0  0  0  0
   37.1530   21.3160   34.6620 H   0  0  0  0  0  0  0  0  0  0  0  0
   38.0760   22.8110   36.7190 H   0  0  0  0  0  0  0  0  0  0  0  0
   36.5900   23.3150   35.8260 H   0  0  0  0  0  0  0  0  0  0  0  0
   38.1680   25.5450   35.9350 C   0  0  0  0  0  0  0  0  0  0  0  0
   38.1490   25.2410   37.2880 F   0  0  0  0  0  0  0  0  0  0  0  0
   36.9760   26.1400   35.6360 F   0  0  0  0  0  0  0  0  0  0  0  0
   39.2680   26.3640   35.7390 F   0  0  0  0  0  0  0  0  0  0  0  0
   39.9090   23.9680   35.3830 C   0  0  0  0  0  0  0  0  0  0  0  0
   40.1460   23.1520   34.6330 H   0  0  0  0  0  0  0  0  0  0  0  0
   40.4340   24.8640   34.9910 H   0  0  0  0  0  0  0  0  0  0  0  0
   40.0310   23.4460   36.5040 O   0  0  0  0  0  0  0  0  0  0  0  0
   40.8410   22.5330   37.0940 C   0  0  0  0  0  0  0  0  0  0  0  0
   42.0340   22.8460   36.8660 O   0  0  0  0  0  0  0  0  0  0  0  0
   41.0350   21.3700   37.8630 N   0  0  0  0  0  0  0  0  0  0  0  0
   40.4460   20.4980   37.8090 H   0  0  0  0  0  0  0  0  0  0  0  0
   41.8370   21.3540   38.5590 H   0  0  0  0  0  0  0  0  0  0  0  0
  1  6  2  0  0  0  0
  1  2  1  0  0  0  0
  2  3  2  0  0  0  0
  3  4  1  0  0  0  0
  3  7  1  0  0  0  0
  5 14  1  0  0  0  0
  5  4  2  0  0  0  0
  6  5  1  0  0  0  0
  7 11  1  0  0  0  0
  8  7  1  0  0  0  0
  8  9  1  0  0  0  0
  9 17  1  0  0  0  0
  9 10  1  0  0  0  0
 10 20  1  0  0  0  0
 10 19  1  0  0  0  0
 11 25  1  1  0  0  0
 11 10  1  0  0  0  0
 11 21  1  0  0  0  0
 12  1  1  0  0  0  0
 13  2  1  0  0  0  0
 15  8  1  0  0  0  0
 16  8  1  0  0  0  0
 18  9  1  0  0  0  0
 21 22  1  0  0  0  0
 23 21  1  0  0  0  0
 24 21  1  0  0  0  0
 25 28  1  0  0  0  0
 26 25  1  0  0  0  0
 27 25  1  0  0  0  0
 28 29  1  0  0  0  0
 29 31  1  0  0  0  0
 30 29  2  0  0  0  0
 31 33  1  0  0  0  0
 32 31  1  0  0  0  0
M  END
>  <minimizedAffinity>
-4.63727617

$$$$

 OpenBabel03272507273D

 33 34  0  0  1  0  0  0  0  0999 V2000
   37.3160   27.3810   32.3610 C   0  0  0  0  0  0  0  0  0  0  0  0
   37.7980   26.0910   32.6250 C   0  0  0  0  0  0  0  0  0  0  0  0
   37.6950   25.6010   33.9330 C   0  0  0  0  0  0  0  0  0  0  0  0
   37.1420   26.3910   34.8550 N   0  0  0  0  0  0  0  0  0  0  0  0
   36.6870   27.6270   34.5720 C   0  0  0  0  0  0  0  0  0  0  0  0
   36.7750   28.1110   33.3370 N   0  0  0  0  0  0  0  0  0  0  0  0
   38.1640   24.3150   34.2480 N   0  0  0  0  0  0  0  0  0  0  0  0
   38.2300   23.1780   33.3200 C   0  0  0  0  0  0  0  0  0  0  0  0
   38.5740   21.9750   34.1290 C   0  0  0  0  0  0  0  0  0  0  0  0
   38.2330   22.3970   35.5150 C   0  0  0  0  0  0  0  0  0  0  0  0
   38.6730   23.8340   35.4990 C   0  0  2  0  0  0  0  0  0  0  0  0
   37.4290   27.6950   31.3250 H   0  0  0  0  0  0  0  0  0  0  0  0
   38.2450   25.4700   31.8460 H   0  0  0  0  0  0  0  0  0  0  0  0
   36.2340   28.2660   35.3420 H   0  0  0  0  0  0  0  0  0  0  0  0
   39.0760   23.3960   32.6410 H   0  0  0  0  0  0  0  0  0  0  0  0
   37.2900   23.1030   32.7760 H   0  0  0  0  0  0  0  0  0  0  0  0
   39.5830   21.5950   33.9970 H   0  0  0  0  0  0  0  0  0  0  0  0
   37.8910   21.1320   33.8150 H   0  0  0  0  0  0  0  0  0  0  0  0
   38.8950   21.8420   36.2260 H   0  0  0  0  0  0  0  0  0  0  0  0
   37.1900   22.2540   35.7950 H   0  0  0  0  0  0  0  0  0  0  0  0
   38.2870   24.5750   36.7350 C   0  0  0  0  0  0  0  0  0  0  0  0
   36.9170   24.4200   36.8800 F   0  0  0  0  0  0  0  0  0  0  0  0
   38.5450   25.9160   36.7300 F   0  0  0  0  0  0  0  0  0  0  0  0
   38.8680   23.8970   37.7940 F   0  0  0  0  0  0  0  0  0  0  0  0
   40.1580   23.8840   35.3780 C   0  0  0  0  0  0  0  0  0  0  0  0
   40.5580   23.8670   36.4380 H   0  0  0  0  0  0  0  0  0  0  0  0
   40.4420   22.8950   34.9610 H   0  0  0  0  0  0  0  0  0  0  0  0
   40.4370   25.0070   34.9260 O   0  0  0  0  0  0  0  0  0  0  0  0
   41.5280   25.8080   34.8540 C   0  0  0  0  0  0  0  0  0  0  0  0
   41.1780   26.9270   34.4060 O   0  0  0  0  0  0  0  0  0  0  0  0
   42.9060   26.0360   35.0340 N   0  0  0  0  0  0  0  0  0  0  0  0
   43.6700   25.3370   34.8420 H   0  0  0  0  0  0  0  0  0  0  0  0
   43.2170   26.9870   35.3930 H   0  0  0  0  0  0  0  0  0  0  0  0
  1  2  2  0  0  0  0
  1  6  1  0  0  0  0
  2  3  1  0  0  0  0
  3  7  1  0  0  0  0
  3  4  2  0  0  0  0
  5  4  1  0  0  0  0
  5 14  1  0  0  0  0
  6  5  2  0  0  0  0
  7 11  1  0  0  0  0
  8  9  1  0  0  0  0
  8  7  1  0  0  0  0
  9 10  1  0  0  0  0
 10 20  1  0  0  0  0
 10 19  1  0  0  0  0
 11 25  1  6  0  0  0
 11 10  1  0  0  0  0
 11 21  1  0  0  0  0
 12  1  1  0  0  0  0
 13  2  1  0  0  0  0
 15  8  1  0  0  0  0
 16  8  1  0  0  0  0
 17  9  1  0  0  0  0
 18  9  1  0  0  0  0
 21 22  1  0  0  0  0
 21 24  1  0  0  0  0
 23 21  1  0  0  0  0
 25 26  1  0  0  0  0
 27 25  1  0  0  0  0
 28 25  1  0  0  0  0
 29 28  1  0  0  0  0
 29 31  1  0  0  0  0
 30 29  2  0  0  0  0
 31 33  1  0  0  0  0
 32 31  1  0  0  0  0
M  END
>  <minimizedAffinity>
-4.60714817

$$$$

 OpenBabel03272507273D

 33 34  0  0  1  0  0  0  0  0999 V2000
   42.3760   22.0100   36.3810 C   0  0  0  0  0  0  0  0  0  0  0  0
   42.1020   23.1520   35.6130 C   0  0  0  0  0  0  0  0  0  0  0  0
   40.9040   23.8360   35.8500 C   0  0  0  0  0  0  0  0  0  0  0  0
   40.0890   23.3620   36.7940 N   0  0  0  0  0  0  0  0  0  0  0  0
   40.3780   22.2620   37.5160 C   0  0  0  0  0  0  0  0  0  0  0  0
   41.5110   21.5980   37.3080 N   0  0  0  0  0  0  0  0  0  0  0  0
   40.5840   24.9840   35.1060 N   0  0  0  0  0  0  0  0  0  0  0  0
   41.5530   25.9160   34.5140 C   0  0  0  0  0  0  0  0  0  0  0  0
   40.7810   27.0900   34.0190 C   0  0  0  0  0  0  0  0  0  0  0  0
   39.4940   26.9790   34.7590 C   0  0  0  0  0  0  0  0  0  0  0  0
   39.2880   25.4910   34.7630 C   0  0  2  0  0  0  0  0  0  0  0  0
   43.3230   21.5310   36.1430 H   0  0  0  0  0  0  0  0  0  0  0  0
   42.7930   23.5130   34.8480 H   0  0  0  0  0  0  0  0  0  0  0  0
   39.6970   21.8840   38.2900 H   0  0  0  0  0  0  0  0  0  0  0  0
   41.9810   25.3870   33.6430 H   0  0  0  0  0  0  0  0  0  0  0  0
   42.3180   26.1570   35.2520 H   0  0  0  0  0  0  0  0  0  0  0  0
   40.6880   27.1680   32.9390 H   0  0  0  0  0  0  0  0  0  0  0  0
   41.3200   28.0290   34.3430 H   0  0  0  0  0  0  0  0  0  0  0  0
   38.6880   27.4370   34.1340 H   0  0  0  0  0  0  0  0  0  0  0  0
   39.4940   27.4320   35.7500 H   0  0  0  0  0  0  0  0  0  0  0  0
   38.1320   25.0650   35.6050 C   0  0  0  0  0  0  0  0  0  0  0  0
   37.0760   25.9040   35.2830 F   0  0  0  0  0  0  0  0  0  0  0  0
   38.3170   25.1460   36.9550 F   0  0  0  0  0  0  0  0  0  0  0  0
   37.7720   23.8020   35.1630 F   0  0  0  0  0  0  0  0  0  0  0  0
   39.0330   25.0340   33.3660 C   0  0  0  0  0  0  0  0  0  0  0  0
   40.0120   25.1660   32.8120 H   0  0  0  0  0  0  0  0  0  0  0  0
   38.9080   23.9340   33.4460 H   0  0  0  0  0  0  0  0  0  0  0  0
   38.2450   25.8550   32.8660 O   0  0  0  0  0  0  0  0  0  0  0  0
   37.2420   25.8430   31.9550 C   0  0  0  0  0  0  0  0  0  0  0  0
   36.4310   24.9350   32.2600 O   0  0  0  0  0  0  0  0  0  0  0  0
   36.6200   26.3490   30.7970 N   0  0  0  0  0  0  0  0  0  0  0  0
   37.1200   26.6710   29.9280 H   0  0  0  0  0  0  0  0  0  0  0  0
   35.5600   26.4170   30.7840 H   0  0  0  0  0  0  0  0  0  0  0  0
  1  6  1  0  0  0  0
  2  3  1  0  0  0  0
  2  1  2  0  0  0  0
  3  4  2  0  0  0  0
  4  5  1  0  0  0  0
  5 14  1  0  0  0  0
  6  5  2  0  0  0  0
  7  3  1  0  0  0  0
  8  7  1  0  0  0  0
  8 16  1  0  0  0  0
  9 18  1  0  0  0  0
  9  8  1  0  0  0  0
  9 10  1  0  0  0  0
 10 11  1  0  0  0  0
 10 20  1  0  0  0  0
 11 25  1  6  0  0  0
 11  7  1  0  0  0  0
 11 21  1  0  0  0  0
 12  1  1  0  0  0  0
 13  2  1  0  0  0  0
 15  8  1  0  0  0  0
 17  9  1  0  0  0  0
 19 10  1  0  0  0  0
 21 23  1  0  0  0  0
 22 21  1  0  0  0  0
 24 21  1  0  0  0  0
 25 27  1  0  0  0  0
 26 25  1  0  0  0  0
 28 25  1  0  0  0  0
 29 30  2  0  0  0  0
 29 28  1  0  0  0  0
 31 29  1  0  0  0  0
 32 31  1  0  0  0  0
 33 31  1  0  0  0  0
M  END
>  <minimizedAffinity>
-4.60361767

$$$$

 OpenBabel03272507273D

 33 34  0  0  1  0  0  0  0  0999 V2000
   36.5240   24.1500   31.0440 C   0  0  0  0  0  0  0  0  0  0  0  0
   36.6490   24.8800   32.2350 C   0  0  0  0  0  0  0  0  0  0  0  0
   37.9340   25.1040   32.7400 C   0  0  0  0  0  0  0  0  0  0  0  0
   38.9700   24.6110   32.0590 N   0  0  0  0  0  0  0  0  0  0  0  0
   38.8190   23.9130   30.9160 C   0  0  0  0  0  0  0  0  0  0  0  0
   37.6070   23.6890   30.4190 N   0  0  0  0  0  0  0  0  0  0  0  0
   38.1120   25.8290   33.9310 N   0  0  0  0  0  0  0  0  0  0  0  0
   37.2150   26.8770   34.4360 C   0  0  0  0  0  0  0  0  0  0  0  0
   37.9010   27.5170   35.5930 C   0  0  0  0  0  0  0  0  0  0  0  0
   39.3230   27.1220   35.3980 C   0  0  0  0  0  0  0  0  0  0  0  0
   39.1680   25.7150   34.8940 C   0  0  2  0  0  0  0  0  0  0  0  0
   35.4960   24.0140   30.7110 H   0  0  0  0  0  0  0  0  0  0  0  0
   35.7790   25.2700   32.7680 H   0  0  0  0  0  0  0  0  0  0  0  0
   39.6810   23.5140   30.3660 H   0  0  0  0  0  0  0  0  0  0  0  0
   36.3200   26.3470   34.8100 H   0  0  0  0  0  0  0  0  0  0  0  0
   36.9660   27.5590   33.6240 H   0  0  0  0  0  0  0  0  0  0  0  0
   37.4870   27.2850   36.5700 H   0  0  0  0  0  0  0  0  0  0  0  0
   37.8050   28.6380   35.4840 H   0  0  0  0  0  0  0  0  0  0  0  0
   39.8170   27.0770   36.4000 H   0  0  0  0  0  0  0  0  0  0  0  0
   39.8930   27.7720   34.7350 H   0  0  0  0  0  0  0  0  0  0  0  0
   40.4560   25.1120   34.4430 C   0  0  0  0  0  0  0  0  0  0  0  0
   40.1470   23.8770   33.8940 F   0  0  0  0  0  0  0  0  0  0  0  0
   41.3880   24.9010   35.4180 F   0  0  0  0  0  0  0  0  0  0  0  0
   40.9090   25.8990   33.3960 F   0  0  0  0  0  0  0  0  0  0  0  0
   38.6230   24.8660   35.9920 C   0  0  0  0  0  0  0  0  0  0  0  0
   39.5190   24.5150   36.5890 H   0  0  0  0  0  0  0  0  0  0  0  0
   38.1030   25.5760   36.6680 H   0  0  0  0  0  0  0  0  0  0  0  0
   38.1530   23.8500   35.4520 O   0  0  0  0  0  0  0  0  0  0  0  0
   37.8490   22.5800   35.8150 C   0  0  0  0  0  0  0  0  0  0  0  0
   38.9150   21.9270   35.9260 O   0  0  0  0  0  0  0  0  0  0  0  0
   36.9130   21.5820   36.1460 N   0  0  0  0  0  0  0  0  0  0  0  0
   35.9750   21.4480   35.6850 H   0  0  0  0  0  0  0  0  0  0  0  0
   37.1580   20.8980   36.9220 H   0  0  0  0  0  0  0  0  0  0  0  0
  1  2  1  0  0  0  0
  2  3  2  0  0  0  0
  2 13  1  0  0  0  0
  3  7  1  0  0  0  0
  4  3  1  0  0  0  0
  5  4  2  0  0  0  0
  6  5  1  0  0  0  0
  6  1  2  0  0  0  0
  7  8  1  0  0  0  0
  7 11  1  0  0  0  0
  8 15  1  0  0  0  0
  8  9  1  0  0  0  0
  9 17  1  0  0  0  0
 10  9  1  0  0  0  0
 10 19  1  0  0  0  0
 11 21  1  6  0  0  0
 11 10  1  0  0  0  0
 11 25  1  0  0  0  0
 12  1  1  0  0  0  0
 14  5  1  0  0  0  0
 16  8  1  0  0  0  0
 18  9  1  0  0  0  0
 20 10  1  0  0  0  0
 21 23  1  0  0  0  0
 22 21  1  0  0  0  0
 24 21  1  0  0  0  0
 25 26  1  0  0  0  0
 25 27  1  0  0  0  0
 28 29  1  0  0  0  0
 28 25  1  0  0  0  0
 29 30  2  0  0  0  0
 29 31  1  0  0  0  0
 31 33  1  0  0  0  0
 32 31  1  0  0  0  0
M  END
>  <minimizedAffinity>
-4.58160734

$$$$

 OpenBabel03272507273D

 33 34  0  0  1  0  0  0  0  0999 V2000
   41.1170   27.1690   33.4180 C   0  0  0  0  0  0  0  0  0  0  0  0
   40.0850   26.6010   34.1800 C   0  0  0  0  0  0  0  0  0  0  0  0
   40.3710   25.4530   34.9280 C   0  0  0  0  0  0  0  0  0  0  0  0
   41.6110   24.9630   34.8740 N   0  0  0  0  0  0  0  0  0  0  0  0
   42.5830   25.5310   34.1330 C   0  0  0  0  0  0  0  0  0  0  0  0
   42.3330   26.6220   33.4150 N   0  0  0  0  0  0  0  0  0  0  0  0
   39.3710   24.8460   35.7060 N   0  0  0  0  0  0  0  0  0  0  0  0
   38.2260   25.5350   36.3150 C   0  0  0  0  0  0  0  0  0  0  0  0
   37.5610   24.5580   37.2220 C   0  0  0  0  0  0  0  0  0  0  0  0
   38.6160   23.5300   37.4340 C   0  0  0  0  0  0  0  0  0  0  0  0
   39.2390   23.4650   36.0680 C   0  0  2  0  0  0  0  0  0  0  0  0
   40.8230   28.0580   32.8630 H   0  0  0  0  0  0  0  0  0  0  0  0
   39.0810   27.0280   34.2010 H   0  0  0  0  0  0  0  0  0  0  0  0
   43.5990   25.1170   34.0990 H   0  0  0  0  0  0  0  0  0  0  0  0
   37.5360   25.7620   35.4810 H   0  0  0  0  0  0  0  0  0  0  0  0
   38.5720   26.4440   36.8050 H   0  0  0  0  0  0  0  0  0  0  0  0
   36.6040   24.1750   36.8780 H   0  0  0  0  0  0  0  0  0  0  0  0
   37.3430   25.0780   38.2010 H   0  0  0  0  0  0  0  0  0  0  0  0
   38.1180   22.5480   37.6320 H   0  0  0  0  0  0  0  0  0  0  0  0
   39.3210   23.7530   38.2350 H   0  0  0  0  0  0  0  0  0  0  0  0
   40.4660   22.6170   36.0270 C   0  0  0  0  0  0  0  0  0  0  0  0
   40.1680   21.4530   36.7180 F   0  0  0  0  0  0  0  0  0  0  0  0
   41.5820   23.1560   36.6010 F   0  0  0  0  0  0  0  0  0  0  0  0
   40.6410   22.2480   34.7030 F   0  0  0  0  0  0  0  0  0  0  0  0
   38.2500   22.8890   35.1130 C   0  0  0  0  0  0  0  0  0  0  0  0
   37.4490   23.6800   34.9780 H   0  0  0  0  0  0  0  0  0  0  0  0
   38.7790   22.8650   34.1370 H   0  0  0  0  0  0  0  0  0  0  0  0
   37.6990   21.9440   35.7020 O   0  0  0  0  0  0  0  0  0  0  0  0
   36.5030   21.3080   35.6630 C   0  0  0  0  0  0  0  0  0  0  0  0
   35.9190   21.4820   36.7600 O   0  0  0  0  0  0  0  0  0  0  0  0
   35.5440   20.5230   34.9950 N   0  0  0  0  0  0  0  0  0  0  0  0
   35.7570   19.7100   34.3590 H   0  0  0  0  0  0  0  0  0  0  0  0
   34.5170   20.7560   35.1340 H   0  0  0  0  0  0  0  0  0  0  0  0
  1  2  1  0  0  0  0
  2 13  1  0  0  0  0
  2  3  2  0  0  0  0
  3  7  1  0  0  0  0
  4  3  1  0  0  0  0
  5  4  2  0  0  0  0
  6  1  2  0  0  0  0
  6  5  1  0  0  0  0
  7 11  1  0  0  0  0
  7  8  1  0  0  0  0
  8 16  1  0  0  0  0
  8  9  1  0  0  0  0
  9 10  1  0  0  0  0
  9 18  1  0  0  0  0
 10 19  1  0  0  0  0
 10 20  1  0  0  0  0
 11 25  1  6  0  0  0
 11 10  1  0  0  0  0
 12  1  1  0  0  0  0
 14  5  1  0  0  0  0
 15  8  1  0  0  0  0
 17  9  1  0  0  0  0
 21 11  1  0  0  0  0
 21 23  1  0  0  0  0
 21 22  1  0  0  0  0
 24 21  1  0  0  0  0
 25 28  1  0  0  0  0
 26 25  1  0  0  0  0
 27 25  1  0  0  0  0
 29 28  1  0  0  0  0
 29 30  2  0  0  0  0
 31 33  1  0  0  0  0
 31 29  1  0  0  0  0
 32 31  1  0  0  0  0
M  END
>  <minimizedAffinity>
-4.49442387

$$$$

 OpenBabel03272507273D

 33 34  0  0  1  0  0  0  0  0999 V2000
   36.2290   28.5780   30.7630 C   0  0  0  0  0  0  0  0  0  0  0  0
   36.4890   28.1530   32.0740 C   0  0  0  0  0  0  0  0  0  0  0  0
   37.7680   27.6700   32.3700 C   0  0  0  0  0  0  0  0  0  0  0  0
   38.6700   27.6430   31.3880 N   0  0  0  0  0  0  0  0  0  0  0  0
   38.3920   28.0580   30.1370 C   0  0  0  0  0  0  0  0  0  0  0  0
   37.1830   28.5200   29.8340 N   0  0  0  0  0  0  0  0  0  0  0  0
   38.0770   27.2320   33.6690 N   0  0  0  0  0  0  0  0  0  0  0  0
   37.4570   27.7210   34.9070 C   0  0  0  0  0  0  0  0  0  0  0  0
   38.2380   27.1500   36.0410 C   0  0  0  0  0  0  0  0  0  0  0  0
   39.5190   26.7520   35.3960 C   0  0  0  0  0  0  0  0  0  0  0  0
   39.0310   26.2390   34.0700 C   0  0  2  0  0  0  0  0  0  0  0  0
   35.2140   28.9400   30.6060 H   0  0  0  0  0  0  0  0  0  0  0  0
   35.7260   28.1900   32.8550 H   0  0  0  0  0  0  0  0  0  0  0  0
   39.1450   28.0300   29.3380 H   0  0  0  0  0  0  0  0  0  0  0  0
   36.4430   27.2820   34.9260 H   0  0  0  0  0  0  0  0  0  0  0  0
   37.4220   28.8100   34.8860 H   0  0  0  0  0  0  0  0  0  0  0  0
   37.7400   26.3660   36.6040 H   0  0  0  0  0  0  0  0  0  0  0  0
   38.4340   27.9770   36.7860 H   0  0  0  0  0  0  0  0  0  0  0  0
   39.9460   25.8890   35.9640 H   0  0  0  0  0  0  0  0  0  0  0  0
   40.2610   27.5460   35.3200 H   0  0  0  0  0  0  0  0  0  0  0  0
   40.1400   25.9210   33.1250 C   0  0  0  0  0  0  0  0  0  0  0  0
   41.0670   25.1720   33.8360 F   0  0  0  0  0  0  0  0  0  0  0  0
   40.8020   26.9940   32.6010 F   0  0  0  0  0  0  0  0  0  0  0  0
   39.6070   25.0710   32.1700 F   0  0  0  0  0  0  0  0  0  0  0  0
   38.2460   24.9920   34.2940 C   0  0  0  0  0  0  0  0  0  0  0  0
   37.3130   25.3070   34.8550 H   0  0  0  0  0  0  0  0  0  0  0  0
   37.8780   24.7030   33.2880 H   0  0  0  0  0  0  0  0  0  0  0  0
   38.9030   24.2990   35.0900 O   0  0  0  0  0  0  0  0  0  0  0  0
   38.6680   23.2810   35.9530 C   0  0  0  0  0  0  0  0  0  0  0  0
   37.7030   23.5930   36.6910 O   0  0  0  0  0  0  0  0  0  0  0  0
   38.9640   22.0020   36.4620 N   0  0  0  0  0  0  0  0  0  0  0  0
   39.9310   21.6050   36.5900 H   0  0  0  0  0  0  0  0  0  0  0  0
   38.1560   21.3730   36.7460 H   0  0  0  0  0  0  0  0  0  0  0  0
  1  2  1  0  0  0  0
  2  3  2  0  0  0  0
  2 13  1  0  0  0  0
  3  7  1  0  0  0  0
  4  3  1  0  0  0  0
  5  4  2  0  0  0  0
  6  5  1  0  0  0  0
  6  1  2  0  0  0  0
  7 11  1  0  0  0  0
  7  8  1  0  0  0  0
  8 15  1  0  0  0  0
  8  9  1  0  0  0  0
  9 17  1  0  0  0  0
  9 18  1  0  0  0  0
 10 19  1  0  0  0  0
 10  9  1  0  0  0  0
 11 21  1  6  0  0  0
 11 25  1  0  0  0  0
 11 10  1  0  0  0  0
 12  1  1  0  0  0  0
 14  5  1  0  0  0  0
 16  8  1  0  0  0  0
 20 10  1  0  0  0  0
 21 22  1  0  0  0  0
 23 21  1  0  0  0  0
 24 21  1  0  0  0  0
 25 26  1  0  0  0  0
 25 28  1  0  0  0  0
 27 25  1  0  0  0  0
 28 29  1  0  0  0  0
 29 31  1  0  0  0  0
 29 30  2  0  0  0  0
 31 32  1  0  0  0  0
 31 33  1  0  0  0  0
M  END
>  <minimizedAffinity>
-4.43172455

$$$$

 OpenBabel03272507273D

 33 34  0  0  1  0  0  0  0  0999 V2000
   38.7230   23.6810   37.1140 C   0  0  0  0  0  0  0  0  0  0  0  0
   38.3570   24.8610   36.4480 C   0  0  0  0  0  0  0  0  0  0  0  0
   38.1000   24.7910   35.0740 C   0  0  0  0  0  0  0  0  0  0  0  0
   38.2160   23.6050   34.4740 N   0  0  0  0  0  0  0  0  0  0  0  0
   38.5690   22.4880   35.1400 C   0  0  0  0  0  0  0  0  0  0  0  0
   38.8180   22.5320   36.4460 N   0  0  0  0  0  0  0  0  0  0  0  0
   37.7320   25.9450   34.3620 N   0  0  0  0  0  0  0  0  0  0  0  0
   37.0190   27.1020   34.9200 C   0  0  0  0  0  0  0  0  0  0  0  0
   36.6450   27.9770   33.7730 C   0  0  0  0  0  0  0  0  0  0  0  0
   36.7510   27.0600   32.6060 C   0  0  0  0  0  0  0  0  0  0  0  0
   37.9600   26.2500   32.9800 C   0  0  2  0  0  0  0  0  0  0  0  0
   38.9080   23.8110   38.1790 H   0  0  0  0  0  0  0  0  0  0  0  0
   38.2710   25.8160   36.9700 H   0  0  0  0  0  0  0  0  0  0  0  0
   38.6610   21.5180   34.6330 H   0  0  0  0  0  0  0  0  0  0  0  0
   37.7610   27.6380   35.5400 H   0  0  0  0  0  0  0  0  0  0  0  0
   36.1760   26.7530   35.5150 H   0  0  0  0  0  0  0  0  0  0  0  0
   37.2080   28.9030   33.6870 H   0  0  0  0  0  0  0  0  0  0  0  0
   35.5680   28.2920   33.9060 H   0  0  0  0  0  0  0  0  0  0  0  0
   37.0100   27.6670   31.7030 H   0  0  0  0  0  0  0  0  0  0  0  0
   35.8610   26.4650   32.4070 H   0  0  0  0  0  0  0  0  0  0  0  0
   38.2090   25.1100   32.0500 C   0  0  0  0  0  0  0  0  0  0  0  0
   38.2750   25.6460   30.7730 F   0  0  0  0  0  0  0  0  0  0  0  0
   37.2520   24.1370   32.0330 F   0  0  0  0  0  0  0  0  0  0  0  0
   39.4800   24.6410   32.3400 F   0  0  0  0  0  0  0  0  0  0  0  0
   39.1610   27.1340   32.9560 C   0  0  0  0  0  0  0  0  0  0  0  0
   39.7250   26.8680   32.0100 H   0  0  0  0  0  0  0  0  0  0  0  0
   38.7610   28.1510   32.7600 H   0  0  0  0  0  0  0  0  0  0  0  0
   39.8850   26.7710   33.8980 O   0  0  0  0  0  0  0  0  0  0  0  0
   41.2090   26.7570   34.1880 C   0  0  0  0  0  0  0  0  0  0  0  0
   41.4750   25.6970   34.8040 O   0  0  0  0  0  0  0  0  0  0  0  0
   42.4880   27.3460   34.1470 N   0  0  0  0  0  0  0  0  0  0  0  0
   42.6900   28.3730   34.2640 H   0  0  0  0  0  0  0  0  0  0  0  0
   43.3280   26.7160   33.9870 H   0  0  0  0  0  0  0  0  0  0  0  0
  1 12  1  0  0  0  0
  2 13  1  0  0  0  0
  2  1  1  0  0  0  0
  3  2  2  0  0  0  0
  4  3  1  0  0  0  0
  4  5  2  0  0  0  0
  5  6  1  0  0  0  0
  6  1  2  0  0  0  0
  7  8  1  0  0  0  0
  7  3  1  0  0  0  0
  8 16  1  0  0  0  0
  8 15  1  0  0  0  0
  9 18  1  0  0  0  0
  9  8  1  0  0  0  0
 10 11  1  0  0  0  0
 10  9  1  0  0  0  0
 11 21  1  6  0  0  0
 11  7  1  0  0  0  0
 14  5  1  0  0  0  0
 17  9  1  0  0  0  0
 19 10  1  0  0  0  0
 20 10  1  0  0  0  0
 21 24  1  0  0  0  0
 22 21  1  0  0  0  0
 23 21  1  0  0  0  0
 25 11  1  0  0  0  0
 25 28  1  0  0  0  0
 26 25  1  0  0  0  0
 27 25  1  0  0  0  0
 28 29  1  0  0  0  0
 29 30  2  0  0  0  0
 31 29  1  0  0  0  0
 31 32  1  0  0  0  0
 33 31  1  0  0  0  0
M  END
>  <minimizedAffinity>
-4.42688131

$$$$
