
 OpenBabel03272510313D

 26 27  0  0  0  0  0  0  0  0999 V2000
   36.4300   31.0910   49.2140 C   0  0  0  0  0  0  0  0  0  0  0  0
   36.8840   32.1350   49.9990 C   0  0  0  0  0  0  0  0  0  0  0  0
   37.8580   32.9090   49.4090 C   0  0  0  0  0  0  0  0  0  0  0  0
   38.3180   32.6450   48.1490 N   0  0  0  0  0  0  0  0  0  0  0  0
   37.8420   31.6140   47.4220 C   0  0  0  0  0  0  0  0  0  0  0  0
   36.8810   30.8280   47.9730 N   0  0  0  0  0  0  0  0  0  0  0  0
   36.5370   32.3550   50.9810 H   0  0  0  0  0  0  0  0  0  0  0  0
   38.2850   33.7540   49.9370 H   0  0  0  0  0  0  0  0  0  0  0  0
   35.3390   30.2030   49.7740 C   0  0  0  0  0  0  0  0  0  0  0  0
   35.3080   28.7930   49.5720 C   0  0  0  0  0  0  0  0  0  0  0  0
   35.8720   29.2850   50.8960 C   0  0  0  0  0  0  0  0  0  0  0  0
   34.3910   30.7510   50.0510 H   0  0  0  0  0  0  0  0  0  0  0  0
   36.0930   28.2860   48.9400 H   0  0  0  0  0  0  0  0  0  0  0  0
   34.3680   28.2400   49.5860 H   0  0  0  0  0  0  0  0  0  0  0  0
   35.1820   29.1470   51.7530 H   0  0  0  0  0  0  0  0  0  0  0  0
   36.9540   29.2430   51.0650 H   0  0  0  0  0  0  0  0  0  0  0  0
   38.3120   31.3250   46.0750 C   0  0  0  0  0  0  0  0  0  0  0  0
   37.6640   30.6010   45.5710 H   0  0  0  0  0  0  0  0  0  0  0  0
   38.3300   32.2460   45.4260 H   0  0  0  0  0  0  0  0  0  0  0  0
   40.7910   31.4230   45.7240 C   0  0  0  0  0  0  0  0  0  0  0  0
   40.7680   32.5570   45.1640 O   0  0  0  0  0  0  0  0  0  0  0  0
   39.6390   30.7460   46.1870 N   0  0  0  0  0  0  0  0  0  0  0  0
   39.6820   29.8060   46.6300 H   0  0  0  0  0  0  0  0  0  0  0  0
   42.0520   30.7650   45.9100 N   0  0  0  0  0  0  0  0  0  0  0  0
   42.7490   31.1960   46.5640 H   0  0  0  0  0  0  0  0  0  0  0  0
   42.2950   29.8860   45.4210 H   0  0  0  0  0  0  0  0  0  0  0  0
  1  9  1  0  0  0  0
  1  2  1  0  0  0  0
  2  7  1  0  0  0  0
  3  8  1  0  0  0  0
  3  2  2  0  0  0  0
  4  3  1  0  0  0  0
  5  6  1  0  0  0  0
  5  4  2  0  0  0  0
  6  1  2  0  0  0  0
  9 12  1  0  0  0  0
  9 11  1  0  0  0  0
 10 14  1  0  0  0  0
 10  9  1  0  0  0  0
 10 11  1  0  0  0  0
 11 16  1  0  0  0  0
 11 15  1  0  0  0  0
 13 10  1  0  0  0  0
 17 22  1  0  0  0  0
 17  5  1  0  0  0  0
 18 17  1  0  0  0  0
 19 17  1  0  0  0  0
 20 24  1  0  0  0  0
 20 22  1  0  0  0  0
 21 20  2  0  0  0  0
 22 23  1  0  0  0  0
 24 25  1  0  0  0  0
 26 24  1  0  0  0  0
M  END
>  <minimizedAffinity>
-5.09213686

>  <minimizedRMSD>
1.1538831

$$$$
