
 OpenBabel03272509313D

 32 33  0  0  1  0  0  0  0  0999 V2000
   36.1520   30.7010   49.0110 C   0  0  2  0  0  0  0  0  0  0  0  0
   37.0920   31.6130   49.7420 C   0  0  0  0  0  0  0  0  0  0  0  0
   38.0570   30.8680   50.6400 C   0  0  0  0  0  0  0  0  0  0  0  0
   37.2870   30.0130   51.6470 C   0  0  0  0  0  0  0  0  0  0  0  0
   36.0520   29.3640   51.0750 C   0  0  0  0  0  0  0  0  0  0  0  0
   36.1880   29.3110   49.5440 C   0  0  1  0  0  0  0  0  0  0  0  0
   35.0730   31.0250   49.0700 H   0  0  0  0  0  0  0  0  0  0  0  0
   36.4260   32.1730   50.4810 H   0  0  0  0  0  0  0  0  0  0  0  0
   37.5770   32.3840   49.1740 H   0  0  0  0  0  0  0  0  0  0  0  0
   38.6290   31.6100   51.1950 H   0  0  0  0  0  0  0  0  0  0  0  0
   38.6840   30.1610   50.0590 H   0  0  0  0  0  0  0  0  0  0  0  0
   38.0130   29.2580   52.0200 H   0  0  0  0  0  0  0  0  0  0  0  0
   37.0070   30.6190   52.5330 H   0  0  0  0  0  0  0  0  0  0  0  0
   35.9410   28.3130   51.4050 H   0  0  0  0  0  0  0  0  0  0  0  0
   35.1680   29.9820   51.3100 H   0  0  0  0  0  0  0  0  0  0  0  0
   37.1510   28.8760   49.4510 H   0  0  0  0  0  0  0  0  0  0  0  0
   36.4610   30.6690   47.5570 C   0  0  0  0  0  0  0  0  0  0  0  0
   37.7490   31.0960   47.2000 C   0  0  0  0  0  0  0  0  0  0  0  0
   38.0600   31.0720   45.8360 C   0  0  0  0  0  0  0  0  0  0  0  0
   37.1050   30.6390   44.9420 N   0  0  0  0  0  0  0  0  0  0  0  0
   35.8590   30.2320   45.3470 C   0  0  0  0  0  0  0  0  0  0  0  0
   35.5570   30.2540   46.6580 N   0  0  0  0  0  0  0  0  0  0  0  0
   38.5750   31.4430   47.7880 H   0  0  0  0  0  0  0  0  0  0  0  0
   38.9900   31.3650   45.4100 H   0  0  0  0  0  0  0  0  0  0  0  0
   35.1540   29.9020   44.5940 H   0  0  0  0  0  0  0  0  0  0  0  0
   33.9300   28.2610   49.0890 C   0  0  0  0  0  0  0  0  0  0  0  0
   33.1030   28.9090   49.7840 O   0  0  0  0  0  0  0  0  0  0  0  0
   35.3270   28.3890   48.8990 N   0  0  0  0  0  0  0  0  0  0  0  0
   35.6110   27.6580   48.1740 H   0  0  0  0  0  0  0  0  0  0  0  0
   33.0480   27.3050   48.5040 N   0  0  0  0  0  0  0  0  0  0  0  0
   32.3480   27.5920   47.7830 H   0  0  0  0  0  0  0  0  0  0  0  0
   33.0540   26.2930   48.7550 H   0  0  0  0  0  0  0  0  0  0  0  0
  1  7  1  1  0  0  0
  1  6  1  0  0  0  0
  1  2  1  0  0  0  0
  2  8  1  0  0  0  0
  2  3  1  0  0  0  0
  3 10  1  0  0  0  0
  3  4  1  0  0  0  0
  4 12  1  0  0  0  0
  4 13  1  0  0  0  0
  5 15  1  0  0  0  0
  5 14  1  0  0  0  0
  5  4  1  0  0  0  0
  6 16  1  6  0  0  0
  6  5  1  0  0  0  0
  9  2  1  0  0  0  0
 11  3  1  0  0  0  0
 17  1  1  0  0  0  0
 18 17  1  0  0  0  0
 18 23  1  0  0  0  0
 19 18  2  0  0  0  0
 20 21  2  0  0  0  0
 20 19  1  0  0  0  0
 21 22  1  0  0  0  0
 22 17  2  0  0  0  0
 24 19  1  0  0  0  0
 25 21  1  0  0  0  0
 26 27  2  0  0  0  0
 28 26  1  0  0  0  0
 28  6  1  0  0  0  0
 29 28  1  0  0  0  0
 30 32  1  0  0  0  0
 30 26  1  0  0  0  0
 31 30  1  0  0  0  0
M  END
>  <minimizedAffinity>
-5.36224794

>  <minimizedRMSD>
0.164943114

$$$$
