
 OpenBabel03272508243D

 45 47  0  0  1  0  0  0  0  0999 V2000
   36.7940   27.3260   34.7800 C   0  0  0  0  0  0  0  0  0  0  0  0
   36.6010   26.2370   34.5900 H   0  0  0  0  0  0  0  0  0  0  0  0
   35.9420   27.6650   35.4190 H   0  0  0  0  0  0  0  0  0  0  0  0
   36.0840   29.2410   33.4550 C   0  0  0  0  0  0  0  0  0  0  0  0
   36.7630   28.0480   33.5420 C   0  0  0  0  0  0  0  0  0  0  0  0
   37.3790   27.6620   32.4200 C   0  0  0  0  0  0  0  0  0  0  0  0
   37.3390   28.3820   31.2900 N   0  0  0  0  0  0  0  0  0  0  0  0
   36.6830   29.5550   31.1740 C   0  0  0  0  0  0  0  0  0  0  0  0
   36.0490   29.9940   32.2570 N   0  0  0  0  0  0  0  0  0  0  0  0
   37.9490   26.7460   32.3410 H   0  0  0  0  0  0  0  0  0  0  0  0
   36.6250   30.1660   30.2890 H   0  0  0  0  0  0  0  0  0  0  0  0
   35.2500   29.7960   34.5630 C   0  0  1  0  0  0  0  0  0  0  0  0
   35.7850   30.8710   35.3710 C   0  0  0  0  0  0  0  0  0  0  0  0
   34.7300   31.1740   34.2700 C   0  0  2  0  0  0  0  0  0  0  0  0
   34.6680   29.0560   35.1230 H   0  0  0  0  0  0  0  0  0  0  0  0
   36.8180   31.2200   35.1880 H   0  0  0  0  0  0  0  0  0  0  0  0
   35.4710   30.9990   36.4230 H   0  0  0  0  0  0  0  0  0  0  0  0
   35.2030   31.8140   33.4690 H   0  0  0  0  0  0  0  0  0  0  0  0
   33.4420   31.5980   34.8330 C   0  0  0  0  0  0  0  0  0  0  0  0
   32.6440   30.6990   35.0590 O   0  0  0  0  0  0  0  0  0  0  0  0
   33.2600   33.0040   35.0570 N   0  0  0  0  0  0  0  0  0  0  0  0
   33.6080   33.3860   35.9750 H   0  0  0  0  0  0  0  0  0  0  0  0
   32.8100   33.0960   34.1250 H   0  0  0  0  0  0  0  0  0  0  0  0
   38.0340   27.5030   35.6030 C   0  0  0  0  0  0  0  0  0  0  0  0
   37.6760   27.5710   36.6530 H   0  0  0  0  0  0  0  0  0  0  0  0
   38.4230   28.5400   35.3720 H   0  0  0  0  0  0  0  0  0  0  0  0
   37.6750   24.8710   36.3990 F   0  0  0  0  0  0  0  0  0  0  0  0
   38.8500   25.2770   35.8020 C   0  0  0  0  0  0  0  0  0  0  0  0
   39.0840   26.5910   35.3660 C   0  0  0  0  0  0  0  0  0  0  0  0
   40.2750   26.7670   34.8100 C   0  0  0  0  0  0  0  0  0  0  0  0
   41.2220   25.8030   34.6520 C   0  0  0  0  0  0  0  0  0  0  0  0
   40.9980   24.4980   35.0840 C   0  0  0  0  0  0  0  0  0  0  0  0
   39.7970   24.3220   35.6430 C   0  0  0  0  0  0  0  0  0  0  0  0
   40.5050   27.7960   34.4490 H   0  0  0  0  0  0  0  0  0  0  0  0
   42.1700   26.0910   34.1710 H   0  0  0  0  0  0  0  0  0  0  0  0
   42.0150   23.4640   34.9170 C   0  0  0  0  0  0  0  0  0  0  0  0
   41.7360   22.6940   34.1870 H   0  0  0  0  0  0  0  0  0  0  0  0
   42.9740   23.9040   34.5510 H   0  0  0  0  0  0  0  0  0  0  0  0
   42.2060   22.9150   35.8740 H   0  0  0  0  0  0  0  0  0  0  0  0
   39.5590   22.9670   36.1060 O   0  0  0  0  0  0  0  0  0  0  0  0
   39.7280   22.7640   37.4310 C   0  0  0  0  0  0  0  0  0  0  0  0
   40.8410   22.2050   37.7160 O   0  0  0  0  0  0  0  0  0  0  0  0
   38.9730   23.0180   38.5670 N   0  0  0  0  0  0  0  0  0  0  0  0
   39.3490   23.2300   39.5230 H   0  0  0  0  0  0  0  0  0  0  0  0
   38.4610   23.2170   39.4560 H   0  0  0  0  0  0  0  0  0  0  0  0
  1  3  1  0  0  0  0
  1 24  1  0  0  0  0
  2  1  1  0  0  0  0
  4  5  1  0  0  0  0
  4 12  1  0  0  0  0
  5  1  1  0  0  0  0
  6  5  2  0  0  0  0
  7  6  1  0  0  0  0
  8  7  2  0  0  0  0
  8  9  1  0  0  0  0
  9  4  2  0  0  0  0
 10  6  1  0  0  0  0
 11  8  1  0  0  0  0
 12 15  1  1  0  0  0
 12 13  1  0  0  0  0
 13 17  1  0  0  0  0
 14 18  1  6  0  0  0
 14 12  1  0  0  0  0
 14 19  1  0  0  0  0
 14 13  1  0  0  0  0
 16 13  1  0  0  0  0
 19 21  1  0  0  0  0
 19 20  2  0  0  0  0
 21 22  1  0  0  0  0
 23 21  1  0  0  0  0
 24 25  1  0  0  0  0
 26 24  1  0  0  0  0
 28 27  1  0  0  0  0
 29 24  1  0  0  0  0
 29 28  2  0  0  0  0
 30 29  1  0  0  0  0
 31 30  2  0  0  0  0
 31 32  1  0  0  0  0
 32 33  2  0  0  0  0
 33 28  1  0  0  0  0
 33 40  1  0  0  0  0
 34 30  1  0  0  0  0
 35 31  1  0  0  0  0
 36 32  1  0  0  0  0
 36 39  1  0  0  0  0
 37 36  1  0  0  0  0
 38 36  1  0  0  0  0
 40 41  1  0  0  0  0
 41 42  2  0  0  0  0
 41 43  1  0  0  0  0
 43 45  1  0  0  0  0
 43 44  1  0  0  0  0
M  END
>  <minimizedAffinity>
-5.9884882

$$$$

 OpenBabel03272508243D

 45 47  0  0  1  0  0  0  0  0999 V2000
   36.7200   27.3480   34.7420 C   0  0  0  0  0  0  0  0  0  0  0  0
   36.8770   26.5130   34.0080 H   0  0  0  0  0  0  0  0  0  0  0  0
   35.8680   27.0140   35.3840 H   0  0  0  0  0  0  0  0  0  0  0  0
   36.3750   28.5810   32.6710 C   0  0  0  0  0  0  0  0  0  0  0  0
   36.3360   28.5400   34.0450 C   0  0  0  0  0  0  0  0  0  0  0  0
   35.9040   29.6600   34.6340 C   0  0  0  0  0  0  0  0  0  0  0  0
   35.5350   30.7460   33.9390 N   0  0  0  0  0  0  0  0  0  0  0  0
   35.5620   30.8150   32.5910 C   0  0  0  0  0  0  0  0  0  0  0  0
   35.9830   29.7310   31.9470 N   0  0  0  0  0  0  0  0  0  0  0  0
   35.8220   29.7740   35.7070 H   0  0  0  0  0  0  0  0  0  0  0  0
   35.2750   31.6630   31.9930 H   0  0  0  0  0  0  0  0  0  0  0  0
   36.9210   27.4730   31.8310 C   0  0  1  0  0  0  0  0  0  0  0  0
   37.3950   27.7730   30.4970 C   0  0  0  0  0  0  0  0  0  0  0  0
   38.4110   27.5520   31.6530 C   0  0  2  0  0  0  0  0  0  0  0  0
   36.3910   26.5180   31.9180 H   0  0  0  0  0  0  0  0  0  0  0  0
   37.2920   28.8030   30.1080 H   0  0  0  0  0  0  0  0  0  0  0  0
   37.3610   27.0100   29.6980 H   0  0  0  0  0  0  0  0  0  0  0  0
   38.9670   28.5150   31.8470 H   0  0  0  0  0  0  0  0  0  0  0  0
   39.1870   26.3180   31.4840 C   0  0  0  0  0  0  0  0  0  0  0  0
   40.2280   26.4320   30.8520 O   0  0  0  0  0  0  0  0  0  0  0  0
   38.6480   25.1230   32.0710 N   0  0  0  0  0  0  0  0  0  0  0  0
   38.8840   24.9460   33.0820 H   0  0  0  0  0  0  0  0  0  0  0  0
   38.1910   24.8840   31.1700 H   0  0  0  0  0  0  0  0  0  0  0  0
   37.9050   27.4790   35.6490 C   0  0  0  0  0  0  0  0  0  0  0  0
   37.4860   27.4490   36.6770 H   0  0  0  0  0  0  0  0  0  0  0  0
   38.2800   28.5400   35.5290 H   0  0  0  0  0  0  0  0  0  0  0  0
   37.6260   24.8090   36.3450 F   0  0  0  0  0  0  0  0  0  0  0  0
   38.7950   25.2760   35.7830 C   0  0  0  0  0  0  0  0  0  0  0  0
   38.9910   26.6130   35.3980 C   0  0  0  0  0  0  0  0  0  0  0  0
   40.1830   26.8500   34.8700 C   0  0  0  0  0  0  0  0  0  0  0  0
   41.1660   25.9250   34.6940 C   0  0  0  0  0  0  0  0  0  0  0  0
   40.9810   24.5980   35.0760 C   0  0  0  0  0  0  0  0  0  0  0  0
   39.7780   24.3610   35.6070 C   0  0  0  0  0  0  0  0  0  0  0  0
   40.3830   27.8980   34.5490 H   0  0  0  0  0  0  0  0  0  0  0  0
   42.1110   26.2630   34.2410 H   0  0  0  0  0  0  0  0  0  0  0  0
   42.0360   23.6060   34.8910 C   0  0  0  0  0  0  0  0  0  0  0  0
   41.7960   22.8550   34.1290 H   0  0  0  0  0  0  0  0  0  0  0  0
   42.9840   24.0920   34.5570 H   0  0  0  0  0  0  0  0  0  0  0  0
   42.2310   23.0310   35.8310 H   0  0  0  0  0  0  0  0  0  0  0  0
   39.5800   22.9830   36.0180 O   0  0  0  0  0  0  0  0  0  0  0  0
   39.7630   22.7330   37.3330 C   0  0  0  0  0  0  0  0  0  0  0  0
   40.8500   22.1100   37.5800 O   0  0  0  0  0  0  0  0  0  0  0  0
   39.0430   22.9920   38.4900 N   0  0  0  0  0  0  0  0  0  0  0  0
   39.4460   23.1560   39.4440 H   0  0  0  0  0  0  0  0  0  0  0  0
   38.5570   23.1910   39.3940 H   0  0  0  0  0  0  0  0  0  0  0  0
  1  3  1  0  0  0  0
  1 24  1  0  0  0  0
  2  1  1  0  0  0  0
  4  5  1  0  0  0  0
  5  6  2  0  0  0  0
  5  1  1  0  0  0  0
  6 10  1  0  0  0  0
  7  6  1  0  0  0  0
  8  7  2  0  0  0  0
  9  8  1  0  0  0  0
  9  4  2  0  0  0  0
 11  8  1  0  0  0  0
 12 15  1  1  0  0  0
 12  4  1  0  0  0  0
 13 14  1  0  0  0  0
 13 12  1  0  0  0  0
 14 12  1  0  0  0  0
 14 18  1  1  0  0  0
 16 13  1  0  0  0  0
 17 13  1  0  0  0  0
 19 14  1  0  0  0  0
 19 21  1  0  0  0  0
 20 19  2  0  0  0  0
 21 22  1  0  0  0  0
 23 21  1  0  0  0  0
 24 25  1  0  0  0  0
 26 24  1  0  0  0  0
 28 27  1  0  0  0  0
 29 24  1  0  0  0  0
 29 28  2  0  0  0  0
 30 29  1  0  0  0  0
 31 30  2  0  0  0  0
 31 32  1  0  0  0  0
 32 33  2  0  0  0  0
 33 28  1  0  0  0  0
 33 40  1  0  0  0  0
 34 30  1  0  0  0  0
 35 31  1  0  0  0  0
 36 32  1  0  0  0  0
 36 39  1  0  0  0  0
 37 36  1  0  0  0  0
 38 36  1  0  0  0  0
 40 41  1  0  0  0  0
 41 42  2  0  0  0  0
 41 43  1  0  0  0  0
 43 45  1  0  0  0  0
 43 44  1  0  0  0  0
M  END
>  <minimizedAffinity>
-5.69583321

$$$$

 OpenBabel03272508243D

 45 47  0  0  1  0  0  0  0  0999 V2000
   36.6370   27.1900   34.7850 C   0  0  0  0  0  0  0  0  0  0  0  0
   36.4960   26.0840   34.6450 H   0  0  0  0  0  0  0  0  0  0  0  0
   35.7980   27.5070   35.4520 H   0  0  0  0  0  0  0  0  0  0  0  0
   36.6470   27.1550   32.3510 C   0  0  0  0  0  0  0  0  0  0  0  0
   36.5060   27.8580   33.5240 C   0  0  0  0  0  0  0  0  0  0  0  0
   36.2250   29.1570   33.3770 C   0  0  0  0  0  0  0  0  0  0  0  0
   36.0910   29.7360   32.1750 N   0  0  0  0  0  0  0  0  0  0  0  0
   36.2230   29.0720   31.0070 C   0  0  0  0  0  0  0  0  0  0  0  0
   36.5030   27.7750   31.0870 N   0  0  0  0  0  0  0  0  0  0  0  0
   36.0880   29.8330   34.2100 H   0  0  0  0  0  0  0  0  0  0  0  0
   36.1230   29.4940   30.0220 H   0  0  0  0  0  0  0  0  0  0  0  0
   37.0590   25.7200   32.2970 C   0  0  1  0  0  0  0  0  0  0  0  0
   36.1950   24.7680   31.6310 C   0  0  0  0  0  0  0  0  0  0  0  0
   37.4800   25.2840   30.9220 C   0  0  2  0  0  0  0  0  0  0  0  0
   37.5380   25.3390   33.2050 H   0  0  0  0  0  0  0  0  0  0  0  0
   35.2260   25.1120   31.2270 H   0  0  0  0  0  0  0  0  0  0  0  0
   36.1780   23.7070   31.9400 H   0  0  0  0  0  0  0  0  0  0  0  0
   37.1850   25.8800   30.0100 H   0  0  0  0  0  0  0  0  0  0  0  0
   38.4940   24.2330   30.7740 C   0  0  0  0  0  0  0  0  0  0  0  0
   38.5450   23.7010   29.6740 O   0  0  0  0  0  0  0  0  0  0  0  0
   39.3080   23.9470   31.9220 N   0  0  0  0  0  0  0  0  0  0  0  0
   40.1690   24.5400   32.0500 H   0  0  0  0  0  0  0  0  0  0  0  0
   38.6550   23.1880   32.1980 H   0  0  0  0  0  0  0  0  0  0  0  0
   37.9020   27.4660   35.5380 C   0  0  0  0  0  0  0  0  0  0  0  0
   37.5870   27.5920   36.5960 H   0  0  0  0  0  0  0  0  0  0  0  0
   38.2410   28.4980   35.2210 H   0  0  0  0  0  0  0  0  0  0  0  0
   37.6060   24.8350   36.3610 F   0  0  0  0  0  0  0  0  0  0  0  0
   38.7720   25.2630   35.7640 C   0  0  0  0  0  0  0  0  0  0  0  0
   38.9770   26.5780   35.3150 C   0  0  0  0  0  0  0  0  0  0  0  0
   40.1650   26.7780   34.7620 C   0  0  0  0  0  0  0  0  0  0  0  0
   41.1360   25.8350   34.6190 C   0  0  0  0  0  0  0  0  0  0  0  0
   40.9430   24.5300   35.0640 C   0  0  0  0  0  0  0  0  0  0  0  0
   39.7440   24.3310   35.6200 C   0  0  0  0  0  0  0  0  0  0  0  0
   40.3710   27.8080   34.3910 H   0  0  0  0  0  0  0  0  0  0  0  0
   42.0790   26.1420   34.1390 H   0  0  0  0  0  0  0  0  0  0  0  0
   41.9850   23.5200   34.9130 C   0  0  0  0  0  0  0  0  0  0  0  0
   41.7290   22.7360   34.1900 H   0  0  0  0  0  0  0  0  0  0  0  0
   42.9350   23.9790   34.5450 H   0  0  0  0  0  0  0  0  0  0  0  0
   42.1860   22.9860   35.8760 H   0  0  0  0  0  0  0  0  0  0  0  0
   39.5380   22.9750   36.0960 O   0  0  0  0  0  0  0  0  0  0  0  0
   39.7170   22.7880   37.4220 C   0  0  0  0  0  0  0  0  0  0  0  0
   40.8590   22.2950   37.7110 O   0  0  0  0  0  0  0  0  0  0  0  0
   38.9470   23.0040   38.5560 N   0  0  0  0  0  0  0  0  0  0  0  0
   39.3090   23.2410   39.5110 H   0  0  0  0  0  0  0  0  0  0  0  0
   38.4230   23.1770   39.4430 H   0  0  0  0  0  0  0  0  0  0  0  0
  1  3  1  0  0  0  0
  1 24  1  0  0  0  0
  2  1  1  0  0  0  0
  4  5  1  0  0  0  0
  5  1  1  0  0  0  0
  6  5  2  0  0  0  0
  6 10  1  0  0  0  0
  7  6  1  0  0  0  0
  8  9  1  0  0  0  0
  8  7  2  0  0  0  0
  9  4  2  0  0  0  0
 11  8  1  0  0  0  0
 12  4  1  0  0  0  0
 12 15  1  1  0  0  0
 13 17  1  0  0  0  0
 13 12  1  0  0  0  0
 14 18  1  6  0  0  0
 14 13  1  0  0  0  0
 14 12  1  0  0  0  0
 16 13  1  0  0  0  0
 19 14  1  0  0  0  0
 19 21  1  0  0  0  0
 20 19  2  0  0  0  0
 21 22  1  0  0  0  0
 21 23  1  0  0  0  0
 24 25  1  0  0  0  0
 26 24  1  0  0  0  0
 28 27  1  0  0  0  0
 29 24  1  0  0  0  0
 29 28  2  0  0  0  0
 30 29  1  0  0  0  0
 31 30  2  0  0  0  0
 31 32  1  0  0  0  0
 32 33  2  0  0  0  0
 33 28  1  0  0  0  0
 33 40  1  0  0  0  0
 34 30  1  0  0  0  0
 35 31  1  0  0  0  0
 36 32  1  0  0  0  0
 36 39  1  0  0  0  0
 37 36  1  0  0  0  0
 38 36  1  0  0  0  0
 40 41  1  0  0  0  0
 41 42  2  0  0  0  0
 41 43  1  0  0  0  0
 43 45  1  0  0  0  0
 43 44  1  0  0  0  0
M  END
>  <minimizedAffinity>
-5.6794467

$$$$

 OpenBabel03272508243D

 45 47  0  0  1  0  0  0  0  0999 V2000
   38.8860   22.3050   31.7620 C   0  0  0  0  0  0  0  0  0  0  0  0
   38.7670   23.2760   31.2120 H   0  0  0  0  0  0  0  0  0  0  0  0
   39.4750   21.6510   31.0740 H   0  0  0  0  0  0  0  0  0  0  0  0
   36.4610   22.3530   31.5540 C   0  0  0  0  0  0  0  0  0  0  0  0
   37.5990   21.7110   31.9800 C   0  0  0  0  0  0  0  0  0  0  0  0
   37.3980   20.5260   32.5660 C   0  0  0  0  0  0  0  0  0  0  0  0
   36.1750   19.9990   32.7280 N   0  0  0  0  0  0  0  0  0  0  0  0
   35.0400   20.6050   32.3210 C   0  0  0  0  0  0  0  0  0  0  0  0
   35.1750   21.7890   31.7300 N   0  0  0  0  0  0  0  0  0  0  0  0
   38.1990   19.9090   32.9500 H   0  0  0  0  0  0  0  0  0  0  0  0
   34.0400   20.2210   32.4290 H   0  0  0  0  0  0  0  0  0  0  0  0
   36.4620   23.7270   30.9690 C   0  0  1  0  0  0  0  0  0  0  0  0
   35.2380   24.5010   30.9940 C   0  0  0  0  0  0  0  0  0  0  0  0
   36.3750   24.8070   32.0100 C   0  0  2  0  0  0  0  0  0  0  0  0
   37.0500   23.8420   30.0520 H   0  0  0  0  0  0  0  0  0  0  0  0
   34.3170   24.0390   31.3940 H   0  0  0  0  0  0  0  0  0  0  0  0
   35.0330   25.2610   30.2180 H   0  0  0  0  0  0  0  0  0  0  0  0
   36.0110   24.5780   33.0530 H   0  0  0  0  0  0  0  0  0  0  0  0
   37.0100   26.1070   31.7600 C   0  0  0  0  0  0  0  0  0  0  0  0
   36.7280   26.9930   32.5550 O   0  0  0  0  0  0  0  0  0  0  0  0
   37.8820   26.1980   30.6230 N   0  0  0  0  0  0  0  0  0  0  0  0
   38.8850   25.9150   30.7740 H   0  0  0  0  0  0  0  0  0  0  0  0
   37.0930   26.5440   30.0420 H   0  0  0  0  0  0  0  0  0  0  0  0
   39.7280   22.4950   32.9870 C   0  0  0  0  0  0  0  0  0  0  0  0
   40.7740   22.3430   32.6440 H   0  0  0  0  0  0  0  0  0  0  0  0
   39.5200   21.6060   33.6560 H   0  0  0  0  0  0  0  0  0  0  0  0
   38.1630   22.2700   35.2640 F   0  0  0  0  0  0  0  0  0  0  0  0
   38.6780   23.4880   34.8770 C   0  0  0  0  0  0  0  0  0  0  0  0
   39.4880   23.6630   33.7430 C   0  0  0  0  0  0  0  0  0  0  0  0
   39.8870   24.9130   33.5550 C   0  0  0  0  0  0  0  0  0  0  0  0
   39.5710   25.9690   34.3520 C   0  0  0  0  0  0  0  0  0  0  0  0
   38.7670   25.8050   35.4780 C   0  0  0  0  0  0  0  0  0  0  0  0
   38.3670   24.5440   35.6660 C   0  0  0  0  0  0  0  0  0  0  0  0
   40.5320   25.0980   32.6650 H   0  0  0  0  0  0  0  0  0  0  0  0
   39.9730   26.9560   34.0760 H   0  0  0  0  0  0  0  0  0  0  0  0
   38.4250   26.9390   36.3320 C   0  0  0  0  0  0  0  0  0  0  0  0
   38.8900   26.8900   37.3240 H   0  0  0  0  0  0  0  0  0  0  0  0
   38.7700   27.8980   35.8770 H   0  0  0  0  0  0  0  0  0  0  0  0
   37.3230   26.9980   36.5190 H   0  0  0  0  0  0  0  0  0  0  0  0
   37.5200   24.3660   36.8310 O   0  0  0  0  0  0  0  0  0  0  0  0
   38.1510   23.9690   37.9580 C   0  0  0  0  0  0  0  0  0  0  0  0
   38.0100   24.7880   38.9280 O   0  0  0  0  0  0  0  0  0  0  0  0
   38.9230   22.8740   38.3150 N   0  0  0  0  0  0  0  0  0  0  0  0
   38.9870   22.4500   39.2730 H   0  0  0  0  0  0  0  0  0  0  0  0
   39.4830   22.0560   38.6460 H   0  0  0  0  0  0  0  0  0  0  0  0
  1  5  1  0  0  0  0
  1 24  1  0  0  0  0
  2  1  1  0  0  0  0
  3  1  1  0  0  0  0
  4  9  2  0  0  0  0
  4  5  1  0  0  0  0
  5  6  2  0  0  0  0
  6  7  1  0  0  0  0
  6 10  1  0  0  0  0
  8 11  1  0  0  0  0
  8  7  2  0  0  0  0
  9  8  1  0  0  0  0
 12 15  1  6  0  0  0
 12 13  1  0  0  0  0
 12  4  1  0  0  0  0
 12 14  1  0  0  0  0
 13 16  1  0  0  0  0
 13 14  1  0  0  0  0
 14 18  1  1  0  0  0
 17 13  1  0  0  0  0
 19 14  1  0  0  0  0
 19 20  2  0  0  0  0
 21 22  1  0  0  0  0
 21 19  1  0  0  0  0
 23 21  1  0  0  0  0
 24 26  1  0  0  0  0
 24 29  1  0  0  0  0
 25 24  1  0  0  0  0
 28 27  1  0  0  0  0
 28 33  1  0  0  0  0
 29 28  2  0  0  0  0
 30 29  1  0  0  0  0
 30 31  2  0  0  0  0
 31 32  1  0  0  0  0
 32 33  2  0  0  0  0
 32 36  1  0  0  0  0
 33 40  1  0  0  0  0
 34 30  1  0  0  0  0
 35 31  1  0  0  0  0
 36 39  1  0  0  0  0
 36 37  1  0  0  0  0
 38 36  1  0  0  0  0
 40 41  1  0  0  0  0
 41 43  1  0  0  0  0
 41 42  2  0  0  0  0
 43 45  1  0  0  0  0
 43 44  1  0  0  0  0
M  END
>  <minimizedAffinity>
-5.57320595

$$$$

 OpenBabel03272508243D

 45 47  0  0  1  0  0  0  0  0999 V2000
   39.2730   22.9380   32.0330 C   0  0  0  0  0  0  0  0  0  0  0  0
   40.0930   23.6610   32.2890 H   0  0  0  0  0  0  0  0  0  0  0  0
   39.5930   22.4630   31.0730 H   0  0  0  0  0  0  0  0  0  0  0  0
   37.9460   24.9750   32.1730 C   0  0  0  0  0  0  0  0  0  0  0  0
   38.0500   23.6530   31.8120 C   0  0  0  0  0  0  0  0  0  0  0  0
   36.9580   23.1330   31.2410 C   0  0  0  0  0  0  0  0  0  0  0  0
   35.8410   23.8470   31.0350 N   0  0  0  0  0  0  0  0  0  0  0  0
   35.7110   25.1460   31.3780 C   0  0  0  0  0  0  0  0  0  0  0  0
   36.7640   25.7200   31.9510 N   0  0  0  0  0  0  0  0  0  0  0  0
   36.8930   22.1070   30.9070 H   0  0  0  0  0  0  0  0  0  0  0  0
   34.8370   25.7570   31.2310 H   0  0  0  0  0  0  0  0  0  0  0  0
   39.0150   25.7110   32.9130 C   0  0  1  0  0  0  0  0  0  0  0  0
   39.1440   27.1400   32.7210 C   0  0  0  0  0  0  0  0  0  0  0  0
   38.4730   26.5850   34.0090 C   0  0  2  0  0  0  0  0  0  0  0  0
   39.9680   25.1800   33.0050 H   0  0  0  0  0  0  0  0  0  0  0  0
   38.4880   27.6460   31.9900 H   0  0  0  0  0  0  0  0  0  0  0  0
   40.1230   27.6410   32.8340 H   0  0  0  0  0  0  0  0  0  0  0  0
   37.3860   26.8900   34.0220 H   0  0  0  0  0  0  0  0  0  0  0  0
   39.2830   26.8290   35.2090 C   0  0  0  0  0  0  0  0  0  0  0  0
   40.3940   26.3180   35.2080 O   0  0  0  0  0  0  0  0  0  0  0  0
   38.6910   27.6320   36.2420 N   0  0  0  0  0  0  0  0  0  0  0  0
   38.8000   28.6760   36.1480 H   0  0  0  0  0  0  0  0  0  0  0  0
   38.3560   26.7740   36.7200 H   0  0  0  0  0  0  0  0  0  0  0  0
   39.2070   21.8380   33.0470 C   0  0  0  0  0  0  0  0  0  0  0  0
   40.0810   21.1890   32.8250 H   0  0  0  0  0  0  0  0  0  0  0  0
   38.3100   21.2050   32.7710 H   0  0  0  0  0  0  0  0  0  0  0  0
   36.6650   21.7360   34.1490 F   0  0  0  0  0  0  0  0  0  0  0  0
   37.7420   22.1690   34.8920 C   0  0  0  0  0  0  0  0  0  0  0  0
   39.0540   22.2290   34.3940 C   0  0  0  0  0  0  0  0  0  0  0  0
   39.9430   22.6650   35.2760 C   0  0  0  0  0  0  0  0  0  0  0  0
   39.6680   23.0350   36.5560 C   0  0  0  0  0  0  0  0  0  0  0  0
   38.3700   22.9800   37.0570 C   0  0  0  0  0  0  0  0  0  0  0  0
   37.4750   22.5400   36.1670 C   0  0  0  0  0  0  0  0  0  0  0  0
   40.9990   22.7300   34.9240 H   0  0  0  0  0  0  0  0  0  0  0  0
   40.5080   23.3790   37.1800 H   0  0  0  0  0  0  0  0  0  0  0  0
   38.0730   23.3790   38.4300 C   0  0  0  0  0  0  0  0  0  0  0  0
   37.7780   22.5410   39.0720 H   0  0  0  0  0  0  0  0  0  0  0  0
   38.9700   23.8370   38.9130 H   0  0  0  0  0  0  0  0  0  0  0  0
   37.2230   24.1060   38.4740 H   0  0  0  0  0  0  0  0  0  0  0  0
   36.1170   22.4900   36.6780 O   0  0  0  0  0  0  0  0  0  0  0  0
   35.6890   21.2730   37.0810 C   0  0  0  0  0  0  0  0  0  0  0  0
   35.5060   20.4590   36.1140 O   0  0  0  0  0  0  0  0  0  0  0  0
   35.3960   20.6930   38.3070 N   0  0  0  0  0  0  0  0  0  0  0  0
   35.5010   19.6790   38.5500 H   0  0  0  0  0  0  0  0  0  0  0  0
   35.1930   20.1990   39.2050 H   0  0  0  0  0  0  0  0  0  0  0  0
  1  2  1  0  0  0  0
  1 24  1  0  0  0  0
  3  1  1  0  0  0  0
  4 12  1  0  0  0  0
  5  1  1  0  0  0  0
  5  4  2  0  0  0  0
  6  5  1  0  0  0  0
  7  6  2  0  0  0  0
  7  8  1  0  0  0  0
  8  9  2  0  0  0  0
  9  4  1  0  0  0  0
 10  6  1  0  0  0  0
 11  8  1  0  0  0  0
 12 15  1  1  0  0  0
 12 14  1  0  0  0  0
 13 17  1  0  0  0  0
 13 12  1  0  0  0  0
 13 14  1  0  0  0  0
 14 18  1  1  0  0  0
 14 19  1  0  0  0  0
 16 13  1  0  0  0  0
 19 21  1  0  0  0  0
 20 19  2  0  0  0  0
 21 23  1  0  0  0  0
 22 21  1  0  0  0  0
 24 29  1  0  0  0  0
 25 24  1  0  0  0  0
 26 24  1  0  0  0  0
 27 28  1  0  0  0  0
 28 33  1  0  0  0  0
 29 28  2  0  0  0  0
 29 30  1  0  0  0  0
 30 31  2  0  0  0  0
 31 32  1  0  0  0  0
 31 35  1  0  0  0  0
 32 36  1  0  0  0  0
 33 40  1  0  0  0  0
 33 32  2  0  0  0  0
 34 30  1  0  0  0  0
 36 39  1  0  0  0  0
 36 38  1  0  0  0  0
 36 37  1  0  0  0  0
 40 41  1  0  0  0  0
 41 43  1  0  0  0  0
 42 41  2  0  0  0  0
 43 44  1  0  0  0  0
 43 45  1  0  0  0  0
M  END
>  <minimizedAffinity>
-5.56294441

$$$$

 OpenBabel03272508243D

 45 47  0  0  1  0  0  0  0  0999 V2000
   36.6570   28.2250   33.5960 C   0  0  0  0  0  0  0  0  0  0  0  0
   37.6430   28.7460   33.4600 H   0  0  0  0  0  0  0  0  0  0  0  0
   36.6100   27.9700   34.6830 H   0  0  0  0  0  0  0  0  0  0  0  0
   37.3900   25.9320   33.2360 C   0  0  0  0  0  0  0  0  0  0  0  0
   36.6400   27.0120   32.8330 C   0  0  0  0  0  0  0  0  0  0  0  0
   35.9130   26.8180   31.7280 C   0  0  0  0  0  0  0  0  0  0  0  0
   35.9120   25.6560   31.0580 N   0  0  0  0  0  0  0  0  0  0  0  0
   36.6360   24.5790   31.4290 C   0  0  0  0  0  0  0  0  0  0  0  0
   37.3810   24.7100   32.5230 N   0  0  0  0  0  0  0  0  0  0  0  0
   35.2770   27.5780   31.2940 H   0  0  0  0  0  0  0  0  0  0  0  0
   36.6660   23.6290   30.9250 H   0  0  0  0  0  0  0  0  0  0  0  0
   38.3440   25.9750   34.3840 C   0  0  1  0  0  0  0  0  0  0  0  0
   38.3450   24.8840   35.3360 C   0  0  0  0  0  0  0  0  0  0  0  0
   39.4600   24.9780   34.2560 C   0  0  2  0  0  0  0  0  0  0  0  0
   38.4900   26.9650   34.8310 H   0  0  0  0  0  0  0  0  0  0  0  0
   37.6040   24.0720   35.2250 H   0  0  0  0  0  0  0  0  0  0  0  0
   38.6420   25.0510   36.3870 H   0  0  0  0  0  0  0  0  0  0  0  0
   39.3720   24.0970   33.5560 H   0  0  0  0  0  0  0  0  0  0  0  0
   40.7740   25.2820   34.8360 C   0  0  0  0  0  0  0  0  0  0  0  0
   41.3990   24.3190   35.2590 O   0  0  0  0  0  0  0  0  0  0  0  0
   41.1790   26.6590   34.8460 N   0  0  0  0  0  0  0  0  0  0  0  0
   41.6560   27.0170   33.9770 H   0  0  0  0  0  0  0  0  0  0  0  0
   40.8000   26.7660   35.8070 H   0  0  0  0  0  0  0  0  0  0  0  0
   35.5250   29.1710   33.3360 C   0  0  0  0  0  0  0  0  0  0  0  0
   34.7020   28.5350   32.9430 H   0  0  0  0  0  0  0  0  0  0  0  0
   35.8370   29.8040   32.4510 H   0  0  0  0  0  0  0  0  0  0  0  0
   32.8450   29.4010   34.0120 F   0  0  0  0  0  0  0  0  0  0  0  0
   33.8080   30.1330   34.6740 C   0  0  0  0  0  0  0  0  0  0  0  0
   35.1810   30.0480   34.3870 C   0  0  0  0  0  0  0  0  0  0  0  0
   35.9370   30.8280   35.1460 C   0  0  0  0  0  0  0  0  0  0  0  0
   35.4820   31.6550   36.1270 C   0  0  0  0  0  0  0  0  0  0  0  0
   34.1230   31.7450   36.4170 C   0  0  0  0  0  0  0  0  0  0  0  0
   33.3620   30.9580   35.6510 C   0  0  0  0  0  0  0  0  0  0  0  0
   37.0340   30.7940   34.9520 H   0  0  0  0  0  0  0  0  0  0  0  0
   36.2260   32.2480   36.6810 H   0  0  0  0  0  0  0  0  0  0  0  0
   33.6340   32.6340   37.4670 C   0  0  0  0  0  0  0  0  0  0  0  0
   33.2310   32.0990   38.3360 H   0  0  0  0  0  0  0  0  0  0  0  0
   34.4570   33.2800   37.8580 H   0  0  0  0  0  0  0  0  0  0  0  0
   32.8000   33.2850   37.1020 H   0  0  0  0  0  0  0  0  0  0  0  0
   31.9430   31.0540   35.9390 O   0  0  0  0  0  0  0  0  0  0  0  0
   31.4240   30.0410   36.6670 C   0  0  0  0  0  0  0  0  0  0  0  0
   30.3980   29.5070   36.1240 O   0  0  0  0  0  0  0  0  0  0  0  0
   31.7420   29.4360   37.8740 N   0  0  0  0  0  0  0  0  0  0  0  0
   31.5740   28.4320   38.1240 H   0  0  0  0  0  0  0  0  0  0  0  0
   31.9570   28.9250   38.7600 H   0  0  0  0  0  0  0  0  0  0  0  0
  1  3  1  0  0  0  0
  2  1  1  0  0  0  0
  4 12  1  0  0  0  0
  5  4  1  0  0  0  0
  5  1  1  0  0  0  0
  6  5  2  0  0  0  0
  7  8  2  0  0  0  0
  7  6  1  0  0  0  0
  8  9  1  0  0  0  0
  9  4  2  0  0  0  0
 10  6  1  0  0  0  0
 11  8  1  0  0  0  0
 12 15  1  1  0  0  0
 12 13  1  0  0  0  0
 13 17  1  0  0  0  0
 14 18  1  6  0  0  0
 14 12  1  0  0  0  0
 14 19  1  0  0  0  0
 14 13  1  0  0  0  0
 16 13  1  0  0  0  0
 19 21  1  0  0  0  0
 19 20  2  0  0  0  0
 21 23  1  0  0  0  0
 22 21  1  0  0  0  0
 24  1  1  0  0  0  0
 24 29  1  0  0  0  0
 25 24  1  0  0  0  0
 26 24  1  0  0  0  0
 27 28  1  0  0  0  0
 28 33  1  0  0  0  0
 29 28  2  0  0  0  0
 29 30  1  0  0  0  0
 30 31  2  0  0  0  0
 31 32  1  0  0  0  0
 31 35  1  0  0  0  0
 32 36  1  0  0  0  0
 33 40  1  0  0  0  0
 33 32  2  0  0  0  0
 34 30  1  0  0  0  0
 36 38  1  0  0  0  0
 36 37  1  0  0  0  0
 39 36  1  0  0  0  0
 40 41  1  0  0  0  0
 41 43  1  0  0  0  0
 42 41  2  0  0  0  0
 43 44  1  0  0  0  0
 43 45  1  0  0  0  0
M  END
>  <minimizedAffinity>
-5.51713324

$$$$

 OpenBabel03272508243D

 45 47  0  0  1  0  0  0  0  0999 V2000
   39.0870   27.1520   32.5940 C   0  0  0  0  0  0  0  0  0  0  0  0
   39.1080   28.2180   32.2400 H   0  0  0  0  0  0  0  0  0  0  0  0
   40.0030   26.6830   32.1580 H   0  0  0  0  0  0  0  0  0  0  0  0
   36.7610   27.1870   31.8780 C   0  0  0  0  0  0  0  0  0  0  0  0
   37.9300   26.4890   32.0670 C   0  0  0  0  0  0  0  0  0  0  0  0
   37.8890   25.2020   31.7070 C   0  0  0  0  0  0  0  0  0  0  0  0
   36.7880   24.6300   31.1980 N   0  0  0  0  0  0  0  0  0  0  0  0
   35.6270   25.2880   31.0000 C   0  0  0  0  0  0  0  0  0  0  0  0
   35.6050   26.5740   31.3390 N   0  0  0  0  0  0  0  0  0  0  0  0
   38.7330   24.5320   31.8000 H   0  0  0  0  0  0  0  0  0  0  0  0
   34.7210   24.8710   30.5940 H   0  0  0  0  0  0  0  0  0  0  0  0
   36.5700   28.6040   32.3080 C   0  0  1  0  0  0  0  0  0  0  0  0
   36.0320   29.5580   31.3600 C   0  0  0  0  0  0  0  0  0  0  0  0
   35.1230   28.9740   32.4800 C   0  0  2  0  0  0  0  0  0  0  0  0
   37.3580   29.0050   32.9540 H   0  0  0  0  0  0  0  0  0  0  0  0
   35.8270   29.2310   30.3250 H   0  0  0  0  0  0  0  0  0  0  0  0
   36.2920   30.6300   31.4270 H   0  0  0  0  0  0  0  0  0  0  0  0
   34.3070   28.3540   32.0080 H   0  0  0  0  0  0  0  0  0  0  0  0
   34.7470   29.9850   33.4760 C   0  0  0  0  0  0  0  0  0  0  0  0
   33.6960   30.5720   33.2600 O   0  0  0  0  0  0  0  0  0  0  0  0
   35.6420   30.1750   34.5820 N   0  0  0  0  0  0  0  0  0  0  0  0
   35.5100   29.5380   35.4100 H   0  0  0  0  0  0  0  0  0  0  0  0
   36.1140   30.9460   34.0710 H   0  0  0  0  0  0  0  0  0  0  0  0
   39.2490   27.0900   34.0820 C   0  0  0  0  0  0  0  0  0  0  0  0
   38.2280   27.2470   34.4900 H   0  0  0  0  0  0  0  0  0  0  0  0
   39.8160   28.0240   34.3780 H   0  0  0  0  0  0  0  0  0  0  0  0
   37.7880   25.0340   35.2340 F   0  0  0  0  0  0  0  0  0  0  0  0
   39.1640   24.9790   35.1770 C   0  0  0  0  0  0  0  0  0  0  0  0
   39.9570   25.9820   34.5940 C   0  0  0  0  0  0  0  0  0  0  0  0
   41.2580   25.7290   34.6360 C   0  0  0  0  0  0  0  0  0  0  0  0
   41.8290   24.6200   35.1810 C   0  0  0  0  0  0  0  0  0  0  0  0
   41.0490   23.6220   35.7610 C   0  0  0  0  0  0  0  0  0  0  0  0
   39.7390   23.8790   35.7180 C   0  0  0  0  0  0  0  0  0  0  0  0
   41.9260   26.4990   34.1850 H   0  0  0  0  0  0  0  0  0  0  0  0
   42.9260   24.5400   35.1450 H   0  0  0  0  0  0  0  0  0  0  0  0
   41.6610   22.4340   36.3480 C   0  0  0  0  0  0  0  0  0  0  0  0
   41.4530   21.5160   35.7850 H   0  0  0  0  0  0  0  0  0  0  0  0
   42.7730   22.5320   36.3770 H   0  0  0  0  0  0  0  0  0  0  0  0
   41.2830   22.2430   37.3840 H   0  0  0  0  0  0  0  0  0  0  0  0
   38.9200   22.8490   36.3310 O   0  0  0  0  0  0  0  0  0  0  0  0
   38.5590   23.0740   37.6130 C   0  0  0  0  0  0  0  0  0  0  0  0
   37.3890   23.5720   37.7260 O   0  0  0  0  0  0  0  0  0  0  0  0
   39.1640   22.8930   38.8490 N   0  0  0  0  0  0  0  0  0  0  0  0
   38.6730   22.6830   39.7510 H   0  0  0  0  0  0  0  0  0  0  0  0
   39.5600   22.7480   39.8050 H   0  0  0  0  0  0  0  0  0  0  0  0
  1 24  1  0  0  0  0
  2  1  1  0  0  0  0
  3  1  1  0  0  0  0
  4  5  1  0  0  0  0
  4 12  1  0  0  0  0
  5  1  1  0  0  0  0
  6 10  1  0  0  0  0
  6  5  2  0  0  0  0
  7  6  1  0  0  0  0
  8  7  2  0  0  0  0
  8  9  1  0  0  0  0
  9  4  2  0  0  0  0
 11  8  1  0  0  0  0
 12 14  1  0  0  0  0
 12 15  1  1  0  0  0
 13 17  1  0  0  0  0
 13 12  1  0  0  0  0
 13 14  1  0  0  0  0
 14 18  1  6  0  0  0
 14 19  1  0  0  0  0
 16 13  1  0  0  0  0
 19 21  1  0  0  0  0
 20 19  2  0  0  0  0
 21 22  1  0  0  0  0
 23 21  1  0  0  0  0
 24 26  1  0  0  0  0
 24 25  1  0  0  0  0
 24 29  1  0  0  0  0
 28 27  1  0  0  0  0
 28 33  1  0  0  0  0
 29 30  1  0  0  0  0
 29 28  2  0  0  0  0
 30 31  2  0  0  0  0
 31 32  1  0  0  0  0
 32 36  1  0  0  0  0
 33 32  2  0  0  0  0
 33 40  1  0  0  0  0
 34 30  1  0  0  0  0
 35 31  1  0  0  0  0
 36 38  1  0  0  0  0
 36 39  1  0  0  0  0
 37 36  1  0  0  0  0
 40 41  1  0  0  0  0
 41 42  2  0  0  0  0
 41 43  1  0  0  0  0
 43 44  1  0  0  0  0
 43 45  1  0  0  0  0
M  END
>  <minimizedAffinity>
-5.49764872

$$$$

 OpenBabel03272508243D

 45 47  0  0  1  0  0  0  0  0999 V2000
   36.3590   28.3470   33.2400 C   0  0  0  0  0  0  0  0  0  0  0  0
   37.0860   28.6870   34.0260 H   0  0  0  0  0  0  0  0  0  0  0  0
   36.1120   27.2910   33.5090 H   0  0  0  0  0  0  0  0  0  0  0  0
   38.0700   27.5430   31.7060 C   0  0  0  0  0  0  0  0  0  0  0  0
   36.9940   28.3620   31.9550 C   0  0  0  0  0  0  0  0  0  0  0  0
   36.6050   29.1170   30.9220 C   0  0  0  0  0  0  0  0  0  0  0  0
   37.2170   29.0810   29.7300 N   0  0  0  0  0  0  0  0  0  0  0  0
   38.2740   28.2880   29.4550 C   0  0  0  0  0  0  0  0  0  0  0  0
   38.7080   27.5110   30.4440 N   0  0  0  0  0  0  0  0  0  0  0  0
   35.7750   29.8090   30.9720 H   0  0  0  0  0  0  0  0  0  0  0  0
   38.7940   28.2250   28.5150 H   0  0  0  0  0  0  0  0  0  0  0  0
   38.7190   26.6980   32.7520 C   0  0  1  0  0  0  0  0  0  0  0  0
   39.7900   25.8030   32.3660 C   0  0  0  0  0  0  0  0  0  0  0  0
   40.1150   27.1450   33.0820 C   0  0  2  0  0  0  0  0  0  0  0  0
   38.0400   26.2890   33.5090 H   0  0  0  0  0  0  0  0  0  0  0  0
   40.0660   25.7230   31.2990 H   0  0  0  0  0  0  0  0  0  0  0  0
   39.9790   24.8700   32.9270 H   0  0  0  0  0  0  0  0  0  0  0  0
   40.6920   27.8110   32.3770 H   0  0  0  0  0  0  0  0  0  0  0  0
   40.6410   26.9390   34.4370 C   0  0  0  0  0  0  0  0  0  0  0  0
   39.8060   26.9360   35.3310 O   0  0  0  0  0  0  0  0  0  0  0  0
   42.0600   26.7670   34.5670 N   0  0  0  0  0  0  0  0  0  0  0  0
   42.4300   25.7880   34.4460 H   0  0  0  0  0  0  0  0  0  0  0  0
   42.1700   27.7840   34.7470 H   0  0  0  0  0  0  0  0  0  0  0  0
   35.0790   29.1190   33.3400 C   0  0  0  0  0  0  0  0  0  0  0  0
   34.2770   28.3500   33.3200 H   0  0  0  0  0  0  0  0  0  0  0  0
   34.9630   29.6700   32.3580 H   0  0  0  0  0  0  0  0  0  0  0  0
   32.5570   29.9130   34.1770 F   0  0  0  0  0  0  0  0  0  0  0  0
   33.6940   30.4450   34.7480 C   0  0  0  0  0  0  0  0  0  0  0  0
   34.9960   30.0730   34.3760 C   0  0  0  0  0  0  0  0  0  0  0  0
   35.9470   30.6980   35.0560 C   0  0  0  0  0  0  0  0  0  0  0  0
   35.7410   31.6240   36.0310 C   0  0  0  0  0  0  0  0  0  0  0  0
   34.4530   32.0000   36.4040 C   0  0  0  0  0  0  0  0  0  0  0  0
   33.4950   31.3680   35.7190 C   0  0  0  0  0  0  0  0  0  0  0  0
   36.9980   30.4340   34.7930 H   0  0  0  0  0  0  0  0  0  0  0  0
   36.6270   32.0640   36.5140 H   0  0  0  0  0  0  0  0  0  0  0  0
   34.2300   32.9950   37.4490 C   0  0  0  0  0  0  0  0  0  0  0  0
   33.7900   32.5770   38.3610 H   0  0  0  0  0  0  0  0  0  0  0  0
   35.1940   33.4670   37.7610 H   0  0  0  0  0  0  0  0  0  0  0  0
   33.5240   33.7960   37.1130 H   0  0  0  0  0  0  0  0  0  0  0  0
   32.1490   31.7620   36.0940 O   0  0  0  0  0  0  0  0  0  0  0  0
   31.4460   30.8470   36.7960 C   0  0  0  0  0  0  0  0  0  0  0  0
   30.1930   30.8820   36.5540 O   0  0  0  0  0  0  0  0  0  0  0  0
   31.7650   29.8690   37.7280 N   0  0  0  0  0  0  0  0  0  0  0  0
   31.2560   28.9640   37.8700 H   0  0  0  0  0  0  0  0  0  0  0  0
   31.9530   29.0990   38.4080 H   0  0  0  0  0  0  0  0  0  0  0  0
  1 24  1  0  0  0  0
  1  3  1  0  0  0  0
  1  2  1  0  0  0  0
  4  5  1  0  0  0  0
  4 12  1  0  0  0  0
  5  1  1  0  0  0  0
  6 10  1  0  0  0  0
  6  5  2  0  0  0  0
  7  6  1  0  0  0  0
  8  7  2  0  0  0  0
  8  9  1  0  0  0  0
  9  4  2  0  0  0  0
 11  8  1  0  0  0  0
 12 14  1  0  0  0  0
 12 15  1  1  0  0  0
 13 12  1  0  0  0  0
 13 17  1  0  0  0  0
 13 14  1  0  0  0  0
 14 18  1  6  0  0  0
 14 19  1  0  0  0  0
 16 13  1  0  0  0  0
 19 21  1  0  0  0  0
 19 20  2  0  0  0  0
 21 23  1  0  0  0  0
 22 21  1  0  0  0  0
 24 29  1  0  0  0  0
 25 24  1  0  0  0  0
 26 24  1  0  0  0  0
 27 28  1  0  0  0  0
 28 33  1  0  0  0  0
 29 28  2  0  0  0  0
 29 30  1  0  0  0  0
 30 31  2  0  0  0  0
 31 32  1  0  0  0  0
 31 35  1  0  0  0  0
 32 36  1  0  0  0  0
 33 40  1  0  0  0  0
 33 32  2  0  0  0  0
 34 30  1  0  0  0  0
 36 38  1  0  0  0  0
 36 37  1  0  0  0  0
 39 36  1  0  0  0  0
 40 41  1  0  0  0  0
 41 43  1  0  0  0  0
 42 41  2  0  0  0  0
 43 44  1  0  0  0  0
 43 45  1  0  0  0  0
M  END
>  <minimizedAffinity>
-5.4961791

$$$$

 OpenBabel03272508243D

 45 47  0  0  1  0  0  0  0  0999 V2000
   38.3280   25.2520   32.6800 C   0  0  0  0  0  0  0  0  0  0  0  0
   39.3000   25.2290   32.1180 H   0  0  0  0  0  0  0  0  0  0  0  0
   38.5860   25.6490   33.6920 H   0  0  0  0  0  0  0  0  0  0  0  0
   37.9280   23.2600   34.0210 C   0  0  0  0  0  0  0  0  0  0  0  0
   37.8160   23.9210   32.8200 C   0  0  0  0  0  0  0  0  0  0  0  0
   37.1940   23.2390   31.8530 C   0  0  0  0  0  0  0  0  0  0  0  0
   36.7120   22.0010   32.0370 N   0  0  0  0  0  0  0  0  0  0  0  0
   36.8050   21.3280   33.2030 C   0  0  0  0  0  0  0  0  0  0  0  0
   37.4160   21.9540   34.2050 N   0  0  0  0  0  0  0  0  0  0  0  0
   37.0340   23.6310   30.8570 H   0  0  0  0  0  0  0  0  0  0  0  0
   36.4340   20.3370   33.3960 H   0  0  0  0  0  0  0  0  0  0  0  0
   38.6750   23.8060   35.1930 C   0  0  1  0  0  0  0  0  0  0  0  0
   37.9410   24.4980   36.2320 C   0  0  0  0  0  0  0  0  0  0  0  0
   38.4220   23.0370   36.4580 C   0  0  2  0  0  0  0  0  0  0  0  0
   39.6510   24.2460   34.9600 H   0  0  0  0  0  0  0  0  0  0  0  0
   36.8540   24.6570   36.1080 H   0  0  0  0  0  0  0  0  0  0  0  0
   38.4230   25.2900   36.8340 H   0  0  0  0  0  0  0  0  0  0  0  0
   37.5230   22.3620   36.5560 H   0  0  0  0  0  0  0  0  0  0  0  0
   39.4770   22.9490   37.4760 C   0  0  0  0  0  0  0  0  0  0  0  0
   40.6220   22.9300   37.0480 O   0  0  0  0  0  0  0  0  0  0  0  0
   39.0550   22.8960   38.8480 N   0  0  0  0  0  0  0  0  0  0  0  0
   38.8890   23.8200   39.3270 H   0  0  0  0  0  0  0  0  0  0  0  0
   39.0850   21.8580   38.8190 H   0  0  0  0  0  0  0  0  0  0  0  0
   37.3900   26.2460   32.0640 C   0  0  0  0  0  0  0  0  0  0  0  0
   36.6160   25.6340   31.5530 H   0  0  0  0  0  0  0  0  0  0  0  0
   37.9610   26.7380   31.2190 H   0  0  0  0  0  0  0  0  0  0  0  0
   35.8010   28.2210   30.9400 F   0  0  0  0  0  0  0  0  0  0  0  0
   36.1230   28.2480   32.2800 C   0  0  0  0  0  0  0  0  0  0  0  0
   36.9120   27.2700   32.9090 C   0  0  0  0  0  0  0  0  0  0  0  0
   37.0940   27.4790   34.2050 C   0  0  0  0  0  0  0  0  0  0  0  0
   36.5900   28.5270   34.9130 C   0  0  0  0  0  0  0  0  0  0  0  0
   35.8090   29.5020   34.2970 C   0  0  0  0  0  0  0  0  0  0  0  0
   35.6270   29.2890   32.9910 C   0  0  0  0  0  0  0  0  0  0  0  0
   37.7140   26.7270   34.7450 H   0  0  0  0  0  0  0  0  0  0  0  0
   36.8220   28.5750   35.9880 H   0  0  0  0  0  0  0  0  0  0  0  0
   35.2710   30.6270   35.0550 C   0  0  0  0  0  0  0  0  0  0  0  0
   34.1810   30.5940   35.1670 H   0  0  0  0  0  0  0  0  0  0  0  0
   35.6860   30.6430   36.0920 H   0  0  0  0  0  0  0  0  0  0  0  0
   35.4940   31.6050   34.5580 H   0  0  0  0  0  0  0  0  0  0  0  0
   34.8230   30.3060   32.3380 O   0  0  0  0  0  0  0  0  0  0  0  0
   33.4950   30.0610   32.2910 C   0  0  0  0  0  0  0  0  0  0  0  0
   32.8550   30.8980   31.5690 O   0  0  0  0  0  0  0  0  0  0  0  0
   32.6530   29.1080   32.8460 N   0  0  0  0  0  0  0  0  0  0  0  0
   31.7650   28.7460   32.4200 H   0  0  0  0  0  0  0  0  0  0  0  0
   31.9800   28.3970   33.2110 H   0  0  0  0  0  0  0  0  0  0  0  0
  1  5  1  0  0  0  0
  1  3  1  0  0  0  0
  2  1  1  0  0  0  0
  4  9  1  0  0  0  0
  4 12  1  0  0  0  0
  5  4  2  0  0  0  0
  6  7  2  0  0  0  0
  6  5  1  0  0  0  0
  7  8  1  0  0  0  0
  8 11  1  0  0  0  0
  8  9  2  0  0  0  0
 10  6  1  0  0  0  0
 12 15  1  6  0  0  0
 12 13  1  0  0  0  0
 12 14  1  0  0  0  0
 13 14  1  0  0  0  0
 13 17  1  0  0  0  0
 14 18  1  6  0  0  0
 14 19  1  0  0  0  0
 16 13  1  0  0  0  0
 19 21  1  0  0  0  0
 20 19  2  0  0  0  0
 21 22  1  0  0  0  0
 23 21  1  0  0  0  0
 24  1  1  0  0  0  0
 24 29  1  0  0  0  0
 25 24  1  0  0  0  0
 26 24  1  0  0  0  0
 27 28  1  0  0  0  0
 28 29  2  0  0  0  0
 28 33  1  0  0  0  0
 29 30  1  0  0  0  0
 30 34  1  0  0  0  0
 30 31  2  0  0  0  0
 31 35  1  0  0  0  0
 32 31  1  0  0  0  0
 32 36  1  0  0  0  0
 33 32  2  0  0  0  0
 36 37  1  0  0  0  0
 36 38  1  0  0  0  0
 39 36  1  0  0  0  0
 40 33  1  0  0  0  0
 41 40  1  0  0  0  0
 41 43  1  0  0  0  0
 42 41  2  0  0  0  0
 43 45  1  0  0  0  0
 44 43  1  0  0  0  0
M  END
>  <minimizedAffinity>
-5.47848034

$$$$
