
 OpenBabel03272506583D

 22 23  0  0  0  0  0  0  0  0999 V2000
   38.0570   23.2980   32.2920 C   0  0  0  0  0  0  0  0  0  0  0  0
   37.5980   24.5280   31.7950 C   0  0  0  0  0  0  0  0  0  0  0  0
   37.4350   25.5530   32.7590 C   0  0  0  0  0  0  0  0  0  0  0  0
   37.7180   25.3010   34.0560 N   0  0  0  0  0  0  0  0  0  0  0  0
   38.1530   24.1020   34.4630 C   0  0  0  0  0  0  0  0  0  0  0  0
   38.3400   23.0520   33.6010 N   0  0  0  0  0  0  0  0  0  0  0  0
   38.2100   22.4570   31.6220 H   0  0  0  0  0  0  0  0  0  0  0  0
   37.0850   26.5020   32.3990 H   0  0  0  0  0  0  0  0  0  0  0  0
   38.4650   23.8100   35.8680 C   0  0  0  0  0  0  0  0  0  0  0  0
   37.8020   24.4400   36.8870 C   0  0  0  0  0  0  0  0  0  0  0  0
   37.9990   24.2560   38.2360 C   0  0  0  0  0  0  0  0  0  0  0  0
   38.9660   23.3430   38.5550 N   0  0  0  0  0  0  0  0  0  0  0  0
   39.6460   22.6960   37.5650 C   0  0  0  0  0  0  0  0  0  0  0  0
   39.4060   22.9200   36.2570 N   0  0  0  0  0  0  0  0  0  0  0  0
   37.0380   25.1620   36.6270 H   0  0  0  0  0  0  0  0  0  0  0  0
   37.4390   24.7890   38.9910 H   0  0  0  0  0  0  0  0  0  0  0  0
   40.6600   21.7380   37.8510 N   0  0  0  0  0  0  0  0  0  0  0  0
   40.5920   20.7840   38.2240 H   0  0  0  0  0  0  0  0  0  0  0  0
   41.6470   22.0430   37.6530 H   0  0  0  0  0  0  0  0  0  0  0  0
   37.3310   24.6880   30.4170 N   0  0  0  0  0  0  0  0  0  0  0  0
   38.3200   24.9230   30.1110 H   0  0  0  0  0  0  0  0  0  0  0  0
   36.3000   24.5130   30.2740 H   0  0  0  0  0  0  0  0  0  0  0  0
  1  6  1  0  0  0  0
  2  1  2  0  0  0  0
  2  3  1  0  0  0  0
  3  4  2  0  0  0  0
  4  5  1  0  0  0  0
  5  9  1  0  0  0  0
  6  5  2  0  0  0  0
  7  1  1  0  0  0  0
  8  3  1  0  0  0  0
  9 14  2  0  0  0  0
  9 10  1  0  0  0  0
 10 11  2  0  0  0  0
 11 12  1  0  0  0  0
 11 16  1  0  0  0  0
 13 17  1  0  0  0  0
 13 12  2  0  0  0  0
 14 13  1  0  0  0  0
 15 10  1  0  0  0  0
 17 18  1  0  0  0  0
 19 17  1  0  0  0  0
 20  2  1  0  0  0  0
 21 20  1  0  0  0  0
 22 20  1  0  0  0  0
M  END
>  <minimizedAffinity>
-4.65926075

$$$$

 OpenBabel03272506583D

 22 23  0  0  0  0  0  0  0  0999 V2000
   39.9160   23.3870   35.8540 C   0  0  0  0  0  0  0  0  0  0  0  0
   39.4100   23.1480   37.1410 C   0  0  0  0  0  0  0  0  0  0  0  0
   38.2140   23.8360   37.4630 C   0  0  0  0  0  0  0  0  0  0  0  0
   37.6470   24.6540   36.5500 N   0  0  0  0  0  0  0  0  0  0  0  0
   38.1840   24.8370   35.3370 C   0  0  0  0  0  0  0  0  0  0  0  0
   39.3380   24.2140   34.9380 N   0  0  0  0  0  0  0  0  0  0  0  0
   40.8290   22.9000   35.5230 H   0  0  0  0  0  0  0  0  0  0  0  0
   37.8100   23.6670   38.4440 H   0  0  0  0  0  0  0  0  0  0  0  0
   37.5810   25.7220   34.3320 C   0  0  0  0  0  0  0  0  0  0  0  0
   37.2090   27.0020   34.6460 C   0  0  0  0  0  0  0  0  0  0  0  0
   36.6390   27.9250   33.8010 C   0  0  0  0  0  0  0  0  0  0  0  0
   36.4370   27.4840   32.5230 N   0  0  0  0  0  0  0  0  0  0  0  0
   36.7960   26.2140   32.1750 C   0  0  0  0  0  0  0  0  0  0  0  0
   37.3530   25.3540   33.0510 N   0  0  0  0  0  0  0  0  0  0  0  0
   37.3720   27.3440   35.6600 H   0  0  0  0  0  0  0  0  0  0  0  0
   36.3680   28.9230   34.1160 H   0  0  0  0  0  0  0  0  0  0  0  0
   36.6040   25.7130   30.8550 N   0  0  0  0  0  0  0  0  0  0  0  0
   37.0920   25.9340   29.9790 H   0  0  0  0  0  0  0  0  0  0  0  0
   35.8390   25.0000   30.7440 H   0  0  0  0  0  0  0  0  0  0  0  0
   40.0810   22.2720   38.0220 N   0  0  0  0  0  0  0  0  0  0  0  0
   39.6470   21.3670   37.6740 H   0  0  0  0  0  0  0  0  0  0  0  0
   40.7090   22.8600   38.6340 H   0  0  0  0  0  0  0  0  0  0  0  0
  1  2  1  0  0  0  0
  2  3  2  0  0  0  0
  2 20  1  0  0  0  0
  3  8  1  0  0  0  0
  4  3  1  0  0  0  0
  5  4  2  0  0  0  0
  6  5  1  0  0  0  0
  6  1  2  0  0  0  0
  7  1  1  0  0  0  0
  9 10  1  0  0  0  0
  9  5  1  0  0  0  0
 10 15  1  0  0  0  0
 11 16  1  0  0  0  0
 11 10  2  0  0  0  0
 12 11  1  0  0  0  0
 13 12  2  0  0  0  0
 13 14  1  0  0  0  0
 14  9  2  0  0  0  0
 17 13  1  0  0  0  0
 18 17  1  0  0  0  0
 19 17  1  0  0  0  0
 20 22  1  0  0  0  0
 21 20  1  0  0  0  0
M  END
>  <minimizedAffinity>
-4.53634977

$$$$

 OpenBabel03272506583D

 22 23  0  0  0  0  0  0  0  0999 V2000
   40.1040   23.2560   35.9150 C   0  0  0  0  0  0  0  0  0  0  0  0
   39.6160   22.9010   37.1820 C   0  0  0  0  0  0  0  0  0  0  0  0
   38.4100   23.5340   37.5700 C   0  0  0  0  0  0  0  0  0  0  0  0
   37.8160   24.4110   36.7320 N   0  0  0  0  0  0  0  0  0  0  0  0
   38.3370   24.7050   35.5340 C   0  0  0  0  0  0  0  0  0  0  0  0
   39.5000   24.1430   35.0760 N   0  0  0  0  0  0  0  0  0  0  0  0
   41.0240   22.8190   35.5380 H   0  0  0  0  0  0  0  0  0  0  0  0
   38.0190   23.2750   38.5370 H   0  0  0  0  0  0  0  0  0  0  0  0
   37.7060   25.6570   34.6110 C   0  0  0  0  0  0  0  0  0  0  0  0
   37.5690   25.3690   33.2790 C   0  0  0  0  0  0  0  0  0  0  0  0
   36.9990   26.1700   32.3170 C   0  0  0  0  0  0  0  0  0  0  0  0
   36.5340   27.3710   32.7740 N   0  0  0  0  0  0  0  0  0  0  0  0
   36.6540   27.6920   34.0950 C   0  0  0  0  0  0  0  0  0  0  0  0
   37.2230   26.8620   34.9920 N   0  0  0  0  0  0  0  0  0  0  0  0
   37.9410   24.4150   32.9250 H   0  0  0  0  0  0  0  0  0  0  0  0
   36.9240   25.8790   31.2790 H   0  0  0  0  0  0  0  0  0  0  0  0
   36.1820   28.9310   34.6140 N   0  0  0  0  0  0  0  0  0  0  0  0
   35.2260   29.2700   34.7700 H   0  0  0  0  0  0  0  0  0  0  0  0
   36.9250   29.6250   34.8850 H   0  0  0  0  0  0  0  0  0  0  0  0
   40.3140   21.9700   37.9830 N   0  0  0  0  0  0  0  0  0  0  0  0
   39.8960   21.0880   37.5650 H   0  0  0  0  0  0  0  0  0  0  0  0
   40.9360   22.5200   38.6360 H   0  0  0  0  0  0  0  0  0  0  0  0
  1  2  1  0  0  0  0
  2  3  2  0  0  0  0
  2 20  1  0  0  0  0
  3  8  1  0  0  0  0
  4  3  1  0  0  0  0
  5  4  2  0  0  0  0
  6  5  1  0  0  0  0
  6  1  2  0  0  0  0
  7  1  1  0  0  0  0
  9 14  1  0  0  0  0
  9  5  1  0  0  0  0
 10  9  2  0  0  0  0
 11 12  2  0  0  0  0
 11 10  1  0  0  0  0
 12 13  1  0  0  0  0
 13 17  1  0  0  0  0
 13 14  2  0  0  0  0
 15 10  1  0  0  0  0
 16 11  1  0  0  0  0
 17 18  1  0  0  0  0
 17 19  1  0  0  0  0
 20 22  1  0  0  0  0
 21 20  1  0  0  0  0
M  END
>  <minimizedAffinity>
-4.35383272

$$$$

 OpenBabel03272506583D

 22 23  0  0  0  0  0  0  0  0999 V2000
   37.6000   25.3580   32.7830 C   0  0  0  0  0  0  0  0  0  0  0  0
   37.0900   26.6650   32.8060 C   0  0  0  0  0  0  0  0  0  0  0  0
   36.9900   27.2580   34.0890 C   0  0  0  0  0  0  0  0  0  0  0  0
   37.3760   26.5600   35.1790 N   0  0  0  0  0  0  0  0  0  0  0  0
   37.8540   25.3130   35.0850 C   0  0  0  0  0  0  0  0  0  0  0  0
   37.9860   24.6610   33.8880 N   0  0  0  0  0  0  0  0  0  0  0  0
   37.7110   24.8280   31.8420 H   0  0  0  0  0  0  0  0  0  0  0  0
   36.6020   28.2590   34.1280 H   0  0  0  0  0  0  0  0  0  0  0  0
   38.2770   24.5390   36.2600 C   0  0  0  0  0  0  0  0  0  0  0  0
   37.8480   24.8670   37.5180 C   0  0  0  0  0  0  0  0  0  0  0  0
   38.1690   24.2260   38.6920 C   0  0  0  0  0  0  0  0  0  0  0  0
   39.0070   23.1560   38.5490 N   0  0  0  0  0  0  0  0  0  0  0  0
   39.4540   22.8000   37.3100 C   0  0  0  0  0  0  0  0  0  0  0  0
   39.1030   23.4700   36.1940 N   0  0  0  0  0  0  0  0  0  0  0  0
   37.1850   25.7170   37.6230 H   0  0  0  0  0  0  0  0  0  0  0  0
   37.7930   24.5400   39.6550 H   0  0  0  0  0  0  0  0  0  0  0  0
   40.3270   21.6920   37.1150 N   0  0  0  0  0  0  0  0  0  0  0  0
   40.1510   20.6830   37.1790 H   0  0  0  0  0  0  0  0  0  0  0  0
   41.3210   21.9310   36.8650 H   0  0  0  0  0  0  0  0  0  0  0  0
   36.7150   27.3090   31.6060 N   0  0  0  0  0  0  0  0  0  0  0  0
   37.6750   27.6780   31.3420 H   0  0  0  0  0  0  0  0  0  0  0  0
   35.6780   27.1580   31.4790 H   0  0  0  0  0  0  0  0  0  0  0  0
  1  2  2  0  0  0  0
  1  6  1  0  0  0  0
  2  3  1  0  0  0  0
  3  8  1  0  0  0  0
  3  4  2  0  0  0  0
  5  4  1  0  0  0  0
  5  9  1  0  0  0  0
  6  5  2  0  0  0  0
  7  1  1  0  0  0  0
  9 10  1  0  0  0  0
 10 15  1  0  0  0  0
 10 11  2  0  0  0  0
 11 16  1  0  0  0  0
 12 11  1  0  0  0  0
 13 12  2  0  0  0  0
 14  9  2  0  0  0  0
 14 13  1  0  0  0  0
 17 18  1  0  0  0  0
 17 13  1  0  0  0  0
 19 17  1  0  0  0  0
 20  2  1  0  0  0  0
 21 20  1  0  0  0  0
 22 20  1  0  0  0  0
M  END
>  <minimizedAffinity>
-4.34575415

$$$$

 OpenBabel03272506583D

 22 23  0  0  0  0  0  0  0  0999 V2000
   38.0670   24.6080   37.2740 C   0  0  0  0  0  0  0  0  0  0  0  0
   38.6550   23.3360   37.3500 C   0  0  0  0  0  0  0  0  0  0  0  0
   39.0080   22.7520   36.1090 C   0  0  0  0  0  0  0  0  0  0  0  0
   38.7680   23.4250   34.9620 N   0  0  0  0  0  0  0  0  0  0  0  0
   38.2020   24.6380   34.9620 C   0  0  0  0  0  0  0  0  0  0  0  0
   37.8280   25.2800   36.1130 N   0  0  0  0  0  0  0  0  0  0  0  0
   37.7650   25.1290   38.1780 H   0  0  0  0  0  0  0  0  0  0  0  0
   39.4600   21.7790   36.1450 H   0  0  0  0  0  0  0  0  0  0  0  0
   37.9330   25.3830   33.7250 C   0  0  0  0  0  0  0  0  0  0  0  0
   38.5090   26.6030   33.4920 C   0  0  0  0  0  0  0  0  0  0  0  0
   38.3400   27.3960   32.3810 C   0  0  0  0  0  0  0  0  0  0  0  0
   37.5020   26.8810   31.4320 N   0  0  0  0  0  0  0  0  0  0  0  0
   36.9100   25.6680   31.6300 C   0  0  0  0  0  0  0  0  0  0  0  0
   37.1160   24.9360   32.7430 N   0  0  0  0  0  0  0  0  0  0  0  0
   39.1710   27.0050   34.2490 H   0  0  0  0  0  0  0  0  0  0  0  0
   38.8270   28.3530   32.2620 H   0  0  0  0  0  0  0  0  0  0  0  0
   36.0320   25.0930   30.6680 N   0  0  0  0  0  0  0  0  0  0  0  0
   36.2250   24.6830   29.7470 H   0  0  0  0  0  0  0  0  0  0  0  0
   35.0130   25.0810   30.9290 H   0  0  0  0  0  0  0  0  0  0  0  0
   38.8640   22.7180   38.6030 N   0  0  0  0  0  0  0  0  0  0  0  0
   39.7960   23.1730   38.8280 H   0  0  0  0  0  0  0  0  0  0  0  0
   38.0360   22.0870   38.7840 H   0  0  0  0  0  0  0  0  0  0  0  0
  1  2  1  0  0  0  0
  1  7  1  0  0  0  0
  2 20  1  0  0  0  0
  3  8  1  0  0  0  0
  3  2  2  0  0  0  0
  4  3  1  0  0  0  0
  5  4  2  0  0  0  0
  5  6  1  0  0  0  0
  6  1  2  0  0  0  0
  9  5  1  0  0  0  0
 10  9  1  0  0  0  0
 10 15  1  0  0  0  0
 11 10  2  0  0  0  0
 12 13  2  0  0  0  0
 12 11  1  0  0  0  0
 13 14  1  0  0  0  0
 14  9  2  0  0  0  0
 16 11  1  0  0  0  0
 17 19  1  0  0  0  0
 17 13  1  0  0  0  0
 18 17  1  0  0  0  0
 20 22  1  0  0  0  0
 20 21  1  0  0  0  0
M  END
>  <minimizedAffinity>
-4.33860588

$$$$

 OpenBabel03272506583D

 22 23  0  0  0  0  0  0  0  0999 V2000
   37.1180   27.2080   34.6470 C   0  0  0  0  0  0  0  0  0  0  0  0
   36.8360   26.9290   33.3010 C   0  0  0  0  0  0  0  0  0  0  0  0
   37.3150   25.6840   32.8230 C   0  0  0  0  0  0  0  0  0  0  0  0
   37.9930   24.8650   33.6560 N   0  0  0  0  0  0  0  0  0  0  0  0
   38.2280   25.1940   34.9330 C   0  0  0  0  0  0  0  0  0  0  0  0
   37.8020   26.3760   35.4810 N   0  0  0  0  0  0  0  0  0  0  0  0
   36.7880   28.1400   35.0950 H   0  0  0  0  0  0  0  0  0  0  0  0
   37.1100   25.4510   31.7950 H   0  0  0  0  0  0  0  0  0  0  0  0
   38.9620   24.3160   35.8530 C   0  0  0  0  0  0  0  0  0  0  0  0
   40.2250   23.8770   35.5570 C   0  0  0  0  0  0  0  0  0  0  0  0
   41.0140   23.0560   36.3300 C   0  0  0  0  0  0  0  0  0  0  0  0
   40.4460   22.6580   37.5080 N   0  0  0  0  0  0  0  0  0  0  0  0
   39.1890   23.0780   37.8350 C   0  0  0  0  0  0  0  0  0  0  0  0
   38.4640   23.8840   37.0330 N   0  0  0  0  0  0  0  0  0  0  0  0
   40.6680   24.1950   34.6220 H   0  0  0  0  0  0  0  0  0  0  0  0
   42.0060   22.7460   36.0350 H   0  0  0  0  0  0  0  0  0  0  0  0
   38.5590   22.6880   39.0510 N   0  0  0  0  0  0  0  0  0  0  0  0
   38.7450   22.9700   40.0210 H   0  0  0  0  0  0  0  0  0  0  0  0
   37.7710   21.9980   38.9570 H   0  0  0  0  0  0  0  0  0  0  0  0
   36.1190   27.8550   32.5130 N   0  0  0  0  0  0  0  0  0  0  0  0
   35.1420   27.5460   32.7910 H   0  0  0  0  0  0  0  0  0  0  0  0
   36.8270   28.4460   31.9970 H   0  0  0  0  0  0  0  0  0  0  0  0
  1  7  1  0  0  0  0
  1  6  1  0  0  0  0
  2  1  2  0  0  0  0
  3  2  1  0  0  0  0
  3  4  2  0  0  0  0
  4  5  1  0  0  0  0
  5  6  2  0  0  0  0
  5  9  1  0  0  0  0
  8  3  1  0  0  0  0
  9 14  1  0  0  0  0
 10  9  2  0  0  0  0
 10 11  1  0  0  0  0
 11 12  2  0  0  0  0
 12 13  1  0  0  0  0
 13 17  1  0  0  0  0
 14 13  2  0  0  0  0
 15 10  1  0  0  0  0
 16 11  1  0  0  0  0
 17 18  1  0  0  0  0
 19 17  1  0  0  0  0
 20 21  1  0  0  0  0
 20  2  1  0  0  0  0
 22 20  1  0  0  0  0
M  END
>  <minimizedAffinity>
-4.32726336

$$$$

 OpenBabel03272506583D

 22 23  0  0  0  0  0  0  0  0999 V2000
   37.3300   20.2530   31.8570 C   0  0  0  0  0  0  0  0  0  0  0  0
   36.0880   19.6490   32.1030 C   0  0  0  0  0  0  0  0  0  0  0  0
   35.4610   20.0150   33.3200 C   0  0  0  0  0  0  0  0  0  0  0  0
   36.0700   20.8940   34.1460 N   0  0  0  0  0  0  0  0  0  0  0  0
   37.2590   21.4340   33.8490 C   0  0  0  0  0  0  0  0  0  0  0  0
   37.9380   21.1380   32.6960 N   0  0  0  0  0  0  0  0  0  0  0  0
   37.8800   20.0290   30.9480 H   0  0  0  0  0  0  0  0  0  0  0  0
   34.5100   19.5640   33.5270 H   0  0  0  0  0  0  0  0  0  0  0  0
   37.9360   22.3900   34.7360 C   0  0  0  0  0  0  0  0  0  0  0  0
   38.1380   23.6890   34.3550 C   0  0  0  0  0  0  0  0  0  0  0  0
   38.7550   24.6760   35.0890 C   0  0  0  0  0  0  0  0  0  0  0  0
   39.1980   24.2820   36.3210 N   0  0  0  0  0  0  0  0  0  0  0  0
   39.0120   22.9950   36.7330 C   0  0  0  0  0  0  0  0  0  0  0  0
   38.3990   22.0710   35.9660 N   0  0  0  0  0  0  0  0  0  0  0  0
   37.7850   23.9940   33.3780 H   0  0  0  0  0  0  0  0  0  0  0  0
   38.8830   25.6860   34.7270 H   0  0  0  0  0  0  0  0  0  0  0  0
   39.4570   22.5410   38.0080 N   0  0  0  0  0  0  0  0  0  0  0  0
   39.0990   22.7390   38.9500 H   0  0  0  0  0  0  0  0  0  0  0  0
   40.2900   21.8980   38.0000 H   0  0  0  0  0  0  0  0  0  0  0  0
   35.5370   18.7410   31.1720 N   0  0  0  0  0  0  0  0  0  0  0  0
   35.0730   19.4580   30.5400 H   0  0  0  0  0  0  0  0  0  0  0  0
   35.8070   17.7690   31.4820 H   0  0  0  0  0  0  0  0  0  0  0  0
  1  2  2  0  0  0  0
  1  6  1  0  0  0  0
  2  3  1  0  0  0  0
  3  8  1  0  0  0  0
  3  4  2  0  0  0  0
  5  4  1  0  0  0  0
  5  9  1  0  0  0  0
  6  5  2  0  0  0  0
  7  1  1  0  0  0  0
  9 14  1  0  0  0  0
 10  9  2  0  0  0  0
 10 11  1  0  0  0  0
 11 12  2  0  0  0  0
 12 13  1  0  0  0  0
 13 17  1  0  0  0  0
 14 13  2  0  0  0  0
 15 10  1  0  0  0  0
 16 11  1  0  0  0  0
 17 18  1  0  0  0  0
 19 17  1  0  0  0  0
 20 22  1  0  0  0  0
 20  2  1  0  0  0  0
 21 20  1  0  0  0  0
M  END
>  <minimizedAffinity>
-4.12708187

$$$$

 OpenBabel03272506583D

 22 23  0  0  0  0  0  0  0  0999 V2000
   37.6900   27.6930   31.8670 C   0  0  0  0  0  0  0  0  0  0  0  0
   36.8550   27.1430   30.8820 C   0  0  0  0  0  0  0  0  0  0  0  0
   36.3230   25.8640   31.1790 C   0  0  0  0  0  0  0  0  0  0  0  0
   36.6350   25.2650   32.3490 N   0  0  0  0  0  0  0  0  0  0  0  0
   37.4400   25.8490   33.2460 C   0  0  0  0  0  0  0  0  0  0  0  0
   38.0000   27.0830   33.0440 N   0  0  0  0  0  0  0  0  0  0  0  0
   38.1400   28.6710   31.7210 H   0  0  0  0  0  0  0  0  0  0  0  0
   35.6820   25.4250   30.4380 H   0  0  0  0  0  0  0  0  0  0  0  0
   37.7910   25.2130   34.5230 C   0  0  0  0  0  0  0  0  0  0  0  0
   37.9110   25.9480   35.6720 C   0  0  0  0  0  0  0  0  0  0  0  0
   38.2320   25.4750   36.9230 C   0  0  0  0  0  0  0  0  0  0  0  0
   38.4470   24.1270   36.9880 N   0  0  0  0  0  0  0  0  0  0  0  0
   38.3360   23.3630   35.8620 C   0  0  0  0  0  0  0  0  0  0  0  0
   38.0180   23.8870   34.6610 N   0  0  0  0  0  0  0  0  0  0  0  0
   37.7390   27.0160   35.6120 H   0  0  0  0  0  0  0  0  0  0  0  0
   38.3100   26.1130   37.7910 H   0  0  0  0  0  0  0  0  0  0  0  0
   38.5510   21.9550   35.8840 N   0  0  0  0  0  0  0  0  0  0  0  0
   37.9800   21.1980   36.2760 H   0  0  0  0  0  0  0  0  0  0  0  0
   39.4380   21.6210   35.4280 H   0  0  0  0  0  0  0  0  0  0  0  0
   36.5900   27.8520   29.6890 N   0  0  0  0  0  0  0  0  0  0  0  0
   35.7850   28.4400   30.0550 H   0  0  0  0  0  0  0  0  0  0  0  0
   37.2770   27.5140   28.9620 H   0  0  0  0  0  0  0  0  0  0  0  0
  1  6  1  0  0  0  0
  2  3  1  0  0  0  0
  2  1  2  0  0  0  0
  3  4  2  0  0  0  0
  4  5  1  0  0  0  0
  5  9  1  0  0  0  0
  6  5  2  0  0  0  0
  7  1  1  0  0  0  0
  8  3  1  0  0  0  0
  9 14  2  0  0  0  0
  9 10  1  0  0  0  0
 10 11  2  0  0  0  0
 11 12  1  0  0  0  0
 11 16  1  0  0  0  0
 13 17  1  0  0  0  0
 13 12  2  0  0  0  0
 14 13  1  0  0  0  0
 15 10  1  0  0  0  0
 17 18  1  0  0  0  0
 19 17  1  0  0  0  0
 20 21  1  0  0  0  0
 20  2  1  0  0  0  0
 22 20  1  0  0  0  0
M  END
>  <minimizedAffinity>
-4.0896101

$$$$

 OpenBabel03272506583D

 22 23  0  0  0  0  0  0  0  0999 V2000
   38.0330   25.5670   36.1480 C   0  0  0  0  0  0  0  0  0  0  0  0
   38.3890   24.2620   35.7740 C   0  0  0  0  0  0  0  0  0  0  0  0
   38.2220   23.9540   34.4010 C   0  0  0  0  0  0  0  0  0  0  0  0
   37.7460   24.8960   33.5580 N   0  0  0  0  0  0  0  0  0  0  0  0
   37.4240   26.1240   33.9830 C   0  0  0  0  0  0  0  0  0  0  0  0
   37.5530   26.5110   35.2920 N   0  0  0  0  0  0  0  0  0  0  0  0
   38.1300   25.8880   37.1810 H   0  0  0  0  0  0  0  0  0  0  0  0
   38.4890   22.9600   34.0940 H   0  0  0  0  0  0  0  0  0  0  0  0
   36.9050   27.1610   33.0820 C   0  0  0  0  0  0  0  0  0  0  0  0
   36.3070   28.2920   33.5700 C   0  0  0  0  0  0  0  0  0  0  0  0
   35.7830   29.3310   32.8360 C   0  0  0  0  0  0  0  0  0  0  0  0
   35.8880   29.1840   31.4810 N   0  0  0  0  0  0  0  0  0  0  0  0
   36.4790   28.0700   30.9590 C   0  0  0  0  0  0  0  0  0  0  0  0
   36.9740   27.0840   31.7330 N   0  0  0  0  0  0  0  0  0  0  0  0
   36.2270   28.4010   34.6450 H   0  0  0  0  0  0  0  0  0  0  0  0
   35.3230   30.1970   33.2880 H   0  0  0  0  0  0  0  0  0  0  0  0
   36.6100   27.8760   29.5540 N   0  0  0  0  0  0  0  0  0  0  0  0
   37.2180   28.3400   28.8690 H   0  0  0  0  0  0  0  0  0  0  0  0
   35.9860   27.1410   29.1330 H   0  0  0  0  0  0  0  0  0  0  0  0
   38.8790   23.3500   36.7350 N   0  0  0  0  0  0  0  0  0  0  0  0
   39.8980   23.6470   36.7010 H   0  0  0  0  0  0  0  0  0  0  0  0
   38.0580   22.7770   37.0720 H   0  0  0  0  0  0  0  0  0  0  0  0
  1  7  1  0  0  0  0
  2  1  1  0  0  0  0
  2 20  1  0  0  0  0
  3  2  2  0  0  0  0
  4  5  2  0  0  0  0
  4  3  1  0  0  0  0
  5  6  1  0  0  0  0
  6  1  2  0  0  0  0
  8  3  1  0  0  0  0
  9 10  1  0  0  0  0
  9  5  1  0  0  0  0
 10 15  1  0  0  0  0
 11 16  1  0  0  0  0
 11 10  2  0  0  0  0
 12 11  1  0  0  0  0
 13 12  2  0  0  0  0
 13 14  1  0  0  0  0
 14  9  2  0  0  0  0
 17 13  1  0  0  0  0
 18 17  1  0  0  0  0
 19 17  1  0  0  0  0
 20 22  1  0  0  0  0
 21 20  1  0  0  0  0
M  END
>  <minimizedAffinity>
-4.054636

$$$$
