
 OpenBabel03262522563D

 26 27  0  0  0  0  0  0  0  0999 V2000
   39.2600   22.9290   38.0950 C   0  0  0  0  0  0  0  0  0  0  0  0
   38.6180   23.9680   37.4170 C   0  0  0  0  0  0  0  0  0  0  0  0
   39.0580   24.4220   36.1760 C   0  0  0  0  0  0  0  0  0  0  0  0
   40.1490   23.7870   35.6740 N   0  0  0  0  0  0  0  0  0  0  0  0
   40.7530   22.7880   36.3420 C   0  0  0  0  0  0  0  0  0  0  0  0
   40.3210   22.3700   37.5210 N   0  0  0  0  0  0  0  0  0  0  0  0
   43.0690   23.0340   35.9180 C   0  0  0  0  0  0  0  0  0  0  0  0
   43.2200   23.9900   36.7640 O   0  0  0  0  0  0  0  0  0  0  0  0
   41.8820   22.3020   35.5740 N   0  0  0  0  0  0  0  0  0  0  0  0
   38.9170   22.5790   39.0550 H   0  0  0  0  0  0  0  0  0  0  0  0
   37.7570   24.4230   37.8790 H   0  0  0  0  0  0  0  0  0  0  0  0
   44.0030   22.7600   35.4020 H   0  0  0  0  0  0  0  0  0  0  0  0
   41.8450   21.5290   34.8680 H   0  0  0  0  0  0  0  0  0  0  0  0
   37.8780   23.5820   33.6050 Cl  0  0  0  0  0  0  0  0  0  0  0  0
   37.8160   25.2050   34.2550 C   0  0  0  0  0  0  0  0  0  0  0  0
   38.3890   25.5110   35.4580 C   0  0  0  0  0  0  0  0  0  0  0  0
   38.3030   26.8040   35.9090 C   0  0  0  0  0  0  0  0  0  0  0  0
   37.6580   27.7900   35.1860 C   0  0  0  0  0  0  0  0  0  0  0  0
   37.0830   27.4430   33.9610 C   0  0  0  0  0  0  0  0  0  0  0  0
   36.2870   28.7300   33.1000 Cl  0  0  0  0  0  0  0  0  0  0  0  0
   37.1580   26.1520   33.4900 C   0  0  0  0  0  0  0  0  0  0  0  0
   38.7620   27.0360   36.8660 H   0  0  0  0  0  0  0  0  0  0  0  0
   37.6130   28.8000   35.5800 H   0  0  0  0  0  0  0  0  0  0  0  0
   36.5610   25.8320   32.2350 N   0  0  0  0  0  0  0  0  0  0  0  0
   35.8110   26.3490   31.6950 H   0  0  0  0  0  0  0  0  0  0  0  0
   37.0920   24.9530   32.0420 H   0  0  0  0  0  0  0  0  0  0  0  0
  1 10  1  0  0  0  0
  2 11  1  0  0  0  0
  2  1  2  0  0  0  0
  3  2  1  0  0  0  0
  4  3  2  0  0  0  0
  4  5  1  0  0  0  0
  5  6  2  0  0  0  0
  6  1  1  0  0  0  0
  7  8  2  0  0  0  0
  9  7  1  0  0  0  0
  9  5  1  0  0  0  0
 12  7  1  0  0  0  0
 13  9  1  0  0  0  0
 14 15  1  0  0  0  0
 15 16  1  0  0  0  0
 16 17  2  0  0  0  0
 16  3  1  0  0  0  0
 17 22  1  0  0  0  0
 18 23  1  0  0  0  0
 18 17  1  0  0  0  0
 19 18  2  0  0  0  0
 20 19  1  0  0  0  0
 21 19  1  0  0  0  0
 21 15  2  0  0  0  0
 24 21  1  0  0  0  0
 25 24  1  0  0  0  0
 26 24  1  0  0  0  0
M  END
>  <minimizedAffinity>
-5.05361366

$$$$

 OpenBabel03262522563D

 26 27  0  0  0  0  0  0  0  0999 V2000
   38.4520   23.6670   38.0610 C   0  0  0  0  0  0  0  0  0  0  0  0
   37.7310   23.3270   36.9140 C   0  0  0  0  0  0  0  0  0  0  0  0
   38.2080   22.4000   35.9900 C   0  0  0  0  0  0  0  0  0  0  0  0
   39.4170   21.8530   36.2820 N   0  0  0  0  0  0  0  0  0  0  0  0
   40.0960   22.1930   37.3920 C   0  0  0  0  0  0  0  0  0  0  0  0
   39.6270   23.0770   38.2590 N   0  0  0  0  0  0  0  0  0  0  0  0
   42.3820   22.1950   36.7780 C   0  0  0  0  0  0  0  0  0  0  0  0
   42.3230   23.3390   36.1940 O   0  0  0  0  0  0  0  0  0  0  0  0
   41.3440   21.4590   37.4430 N   0  0  0  0  0  0  0  0  0  0  0  0
   38.0800   24.3840   38.7740 H   0  0  0  0  0  0  0  0  0  0  0  0
   36.7780   23.8030   36.7510 H   0  0  0  0  0  0  0  0  0  0  0  0
   43.3870   21.7430   36.7460 H   0  0  0  0  0  0  0  0  0  0  0  0
   41.4780   20.5250   37.8980 H   0  0  0  0  0  0  0  0  0  0  0  0
   39.0270   23.9190   33.5980 Cl  0  0  0  0  0  0  0  0  0  0  0  0
   37.7760   22.6980   33.6300 C   0  0  0  0  0  0  0  0  0  0  0  0
   37.4570   22.0370   34.7850 C   0  0  0  0  0  0  0  0  0  0  0  0
   36.4650   21.0900   34.7400 C   0  0  0  0  0  0  0  0  0  0  0  0
   35.7910   20.7920   33.5710 C   0  0  0  0  0  0  0  0  0  0  0  0
   36.1420   21.4850   32.4090 C   0  0  0  0  0  0  0  0  0  0  0  0
   35.2550   21.0610   30.9720 Cl  0  0  0  0  0  0  0  0  0  0  0  0
   37.1340   22.4380   32.4320 C   0  0  0  0  0  0  0  0  0  0  0  0
   36.2200   20.5720   35.6630 H   0  0  0  0  0  0  0  0  0  0  0  0
   35.0130   20.0350   33.5800 H   0  0  0  0  0  0  0  0  0  0  0  0
   37.4670   23.1270   31.2290 N   0  0  0  0  0  0  0  0  0  0  0  0
   37.2790   22.8540   30.2230 H   0  0  0  0  0  0  0  0  0  0  0  0
   37.9370   23.9540   31.6610 H   0  0  0  0  0  0  0  0  0  0  0  0
  1  6  1  0  0  0  0
  1 10  1  0  0  0  0
  2  1  2  0  0  0  0
  3  4  2  0  0  0  0
  3  2  1  0  0  0  0
  4  5  1  0  0  0  0
  5  9  1  0  0  0  0
  5  6  2  0  0  0  0
  7  9  1  0  0  0  0
  8  7  2  0  0  0  0
  9 13  1  0  0  0  0
 11  2  1  0  0  0  0
 12  7  1  0  0  0  0
 14 15  1  0  0  0  0
 15 16  1  0  0  0  0
 16  3  1  0  0  0  0
 17 16  2  0  0  0  0
 17 22  1  0  0  0  0
 18 23  1  0  0  0  0
 18 17  1  0  0  0  0
 19 21  1  0  0  0  0
 19 18  2  0  0  0  0
 20 19  1  0  0  0  0
 21 15  2  0  0  0  0
 24 26  1  0  0  0  0
 24 21  1  0  0  0  0
 25 24  1  0  0  0  0
M  END
>  <minimizedAffinity>
-4.98232174

$$$$

 OpenBabel03262522563D

 26 27  0  0  0  0  0  0  0  0999 V2000
   39.9580   27.6180   30.7880 C   0  0  0  0  0  0  0  0  0  0  0  0
   39.8260   27.0880   32.0730 C   0  0  0  0  0  0  0  0  0  0  0  0
   38.5880   26.9770   32.7020 C   0  0  0  0  0  0  0  0  0  0  0  0
   37.5240   27.4200   31.9830 N   0  0  0  0  0  0  0  0  0  0  0  0
   37.6720   27.9280   30.7460 C   0  0  0  0  0  0  0  0  0  0  0  0
   38.8560   28.0250   30.1630 N   0  0  0  0  0  0  0  0  0  0  0  0
   36.0890   29.6790   30.5730 C   0  0  0  0  0  0  0  0  0  0  0  0
   36.7990   30.5160   31.2430 O   0  0  0  0  0  0  0  0  0  0  0  0
   36.3780   28.3160   30.2220 N   0  0  0  0  0  0  0  0  0  0  0  0
   40.9170   27.7020   30.3030 H   0  0  0  0  0  0  0  0  0  0  0  0
   40.7170   26.7570   32.5820 H   0  0  0  0  0  0  0  0  0  0  0  0
   35.1290   30.1000   30.2320 H   0  0  0  0  0  0  0  0  0  0  0  0
   35.7390   27.6980   29.6680 H   0  0  0  0  0  0  0  0  0  0  0  0
   38.2110   24.0510   32.7300 Cl  0  0  0  0  0  0  0  0  0  0  0  0
   38.2620   25.0690   34.1510 C   0  0  0  0  0  0  0  0  0  0  0  0
   38.4420   26.4210   34.0510 C   0  0  0  0  0  0  0  0  0  0  0  0
   38.4720   27.1610   35.2070 C   0  0  0  0  0  0  0  0  0  0  0  0
   38.3280   26.5790   36.4520 C   0  0  0  0  0  0  0  0  0  0  0  0
   38.1460   25.1950   36.5180 C   0  0  0  0  0  0  0  0  0  0  0  0
   37.9710   24.5250   38.1160 Cl  0  0  0  0  0  0  0  0  0  0  0  0
   38.1130   24.4350   35.3720 C   0  0  0  0  0  0  0  0  0  0  0  0
   38.6150   28.2340   35.1150 H   0  0  0  0  0  0  0  0  0  0  0  0
   38.3580   27.2010   37.3400 H   0  0  0  0  0  0  0  0  0  0  0  0
   37.9250   23.0240   35.4750 N   0  0  0  0  0  0  0  0  0  0  0  0
   38.0780   22.3850   36.3050 H   0  0  0  0  0  0  0  0  0  0  0  0
   37.6010   22.8500   34.4970 H   0  0  0  0  0  0  0  0  0  0  0  0
  1  2  1  0  0  0  0
  2 11  1  0  0  0  0
  2  3  2  0  0  0  0
  3 16  1  0  0  0  0
  4  3  1  0  0  0  0
  5  4  2  0  0  0  0
  6  5  1  0  0  0  0
  6  1  2  0  0  0  0
  7  8  2  0  0  0  0
  9  7  1  0  0  0  0
  9  5  1  0  0  0  0
 10  1  1  0  0  0  0
 12  7  1  0  0  0  0
 13  9  1  0  0  0  0
 14 15  1  0  0  0  0
 15 21  1  0  0  0  0
 16 15  2  0  0  0  0
 16 17  1  0  0  0  0
 17 18  2  0  0  0  0
 18 19  1  0  0  0  0
 18 23  1  0  0  0  0
 19 20  1  0  0  0  0
 21 24  1  0  0  0  0
 21 19  2  0  0  0  0
 22 17  1  0  0  0  0
 24 25  1  0  0  0  0
 26 24  1  0  0  0  0
M  END
>  <minimizedAffinity>
-4.94022989

$$$$

 OpenBabel03262522563D

 26 27  0  0  0  0  0  0  0  0999 V2000
   38.1450   24.9000   35.7710 C   0  0  0  0  0  0  0  0  0  0  0  0
   37.8080   24.1350   34.6530 C   0  0  0  0  0  0  0  0  0  0  0  0
   38.0740   22.7690   34.5850 C   0  0  0  0  0  0  0  0  0  0  0  0
   38.6810   22.2370   35.6770 N   0  0  0  0  0  0  0  0  0  0  0  0
   38.9980   22.9900   36.7450 C   0  0  0  0  0  0  0  0  0  0  0  0
   38.7380   24.2870   36.7920 N   0  0  0  0  0  0  0  0  0  0  0  0
   41.0540   22.1380   37.5510 C   0  0  0  0  0  0  0  0  0  0  0  0
   41.7600   22.7220   36.6500 O   0  0  0  0  0  0  0  0  0  0  0  0
   39.6320   22.1640   37.7530 N   0  0  0  0  0  0  0  0  0  0  0  0
   37.9370   25.9560   35.8210 H   0  0  0  0  0  0  0  0  0  0  0  0
   37.3270   24.6280   33.8240 H   0  0  0  0  0  0  0  0  0  0  0  0
   41.6570   21.5410   38.2550 H   0  0  0  0  0  0  0  0  0  0  0  0
   39.1320   21.6550   38.5200 H   0  0  0  0  0  0  0  0  0  0  0  0
   35.8430   20.9020   35.0770 Cl  0  0  0  0  0  0  0  0  0  0  0  0
   36.6960   21.0670   33.5600 C   0  0  0  0  0  0  0  0  0  0  0  0
   37.7220   21.9600   33.4150 C   0  0  0  0  0  0  0  0  0  0  0  0
   38.3490   22.0370   32.1960 C   0  0  0  0  0  0  0  0  0  0  0  0
   37.9720   21.2460   31.1270 C   0  0  0  0  0  0  0  0  0  0  0  0
   36.9200   20.3450   31.3100 C   0  0  0  0  0  0  0  0  0  0  0  0
   36.4950   19.3780   29.9250 Cl  0  0  0  0  0  0  0  0  0  0  0  0
   36.2780   20.2510   32.5230 C   0  0  0  0  0  0  0  0  0  0  0  0
   39.1630   22.7500   32.0930 H   0  0  0  0  0  0  0  0  0  0  0  0
   38.4950   21.3410   30.1810 H   0  0  0  0  0  0  0  0  0  0  0  0
   35.2080   19.3200   32.6760 N   0  0  0  0  0  0  0  0  0  0  0  0
   34.6100   18.8560   31.9360 H   0  0  0  0  0  0  0  0  0  0  0  0
   35.2180   19.2580   33.7190 H   0  0  0  0  0  0  0  0  0  0  0  0
  1 10  1  0  0  0  0
  1  6  1  0  0  0  0
  2  1  2  0  0  0  0
  3  2  1  0  0  0  0
  3  4  2  0  0  0  0
  4  5  1  0  0  0  0
  5  6  2  0  0  0  0
  5  9  1  0  0  0  0
  7  9  1  0  0  0  0
  7 12  1  0  0  0  0
  8  7  2  0  0  0  0
  9 13  1  0  0  0  0
 11  2  1  0  0  0  0
 15 14  1  0  0  0  0
 16 15  1  0  0  0  0
 16  3  1  0  0  0  0
 17 16  2  0  0  0  0
 18 19  2  0  0  0  0
 18 17  1  0  0  0  0
 19 21  1  0  0  0  0
 20 19  1  0  0  0  0
 21 24  1  0  0  0  0
 21 15  2  0  0  0  0
 22 17  1  0  0  0  0
 23 18  1  0  0  0  0
 24 26  1  0  0  0  0
 25 24  1  0  0  0  0
M  END
>  <minimizedAffinity>
-4.92310619

$$$$

 OpenBabel03262522563D

 26 27  0  0  0  0  0  0  0  0999 V2000
   36.4550   29.4470   30.3270 C   0  0  0  0  0  0  0  0  0  0  0  0
   35.8960   30.0590   31.4500 C   0  0  0  0  0  0  0  0  0  0  0  0
   35.6810   29.3650   32.6390 C   0  0  0  0  0  0  0  0  0  0  0  0
   36.0510   28.0580   32.6280 N   0  0  0  0  0  0  0  0  0  0  0  0
   36.5880   27.4860   31.5350 C   0  0  0  0  0  0  0  0  0  0  0  0
   36.7850   28.1610   30.4140 N   0  0  0  0  0  0  0  0  0  0  0  0
   35.7490   25.2730   31.4850 C   0  0  0  0  0  0  0  0  0  0  0  0
   34.6030   25.6160   31.0150 O   0  0  0  0  0  0  0  0  0  0  0  0
   36.8820   26.0940   31.8100 N   0  0  0  0  0  0  0  0  0  0  0  0
   36.6210   29.9860   29.4090 H   0  0  0  0  0  0  0  0  0  0  0  0
   35.6280   31.1010   31.3830 H   0  0  0  0  0  0  0  0  0  0  0  0
   35.8440   24.1870   31.6480 H   0  0  0  0  0  0  0  0  0  0  0  0
   37.7880   25.7310   32.1910 H   0  0  0  0  0  0  0  0  0  0  0  0
   32.7610   28.9940   32.8460 Cl  0  0  0  0  0  0  0  0  0  0  0  0
   33.7440   29.8760   33.9920 C   0  0  0  0  0  0  0  0  0  0  0  0
   35.0950   30.0010   33.8220 C   0  0  0  0  0  0  0  0  0  0  0  0
   35.8070   30.7070   34.7600 C   0  0  0  0  0  0  0  0  0  0  0  0
   35.1970   31.2860   35.8580 C   0  0  0  0  0  0  0  0  0  0  0  0
   33.8150   31.1390   36.0010 C   0  0  0  0  0  0  0  0  0  0  0  0
   33.1100   31.8910   37.4040 Cl  0  0  0  0  0  0  0  0  0  0  0  0
   33.0830   30.4350   35.0720 C   0  0  0  0  0  0  0  0  0  0  0  0
   36.8800   30.8000   34.6140 H   0  0  0  0  0  0  0  0  0  0  0  0
   35.7980   31.8350   36.5750 H   0  0  0  0  0  0  0  0  0  0  0  0
   31.6740   30.3050   35.2490 N   0  0  0  0  0  0  0  0  0  0  0  0
   31.0920   30.4200   36.1260 H   0  0  0  0  0  0  0  0  0  0  0  0
   31.4260   30.0670   34.2620 H   0  0  0  0  0  0  0  0  0  0  0  0
  1  6  2  0  0  0  0
  1  2  1  0  0  0  0
  2  3  2  0  0  0  0
  3 16  1  0  0  0  0
  4  3  1  0  0  0  0
  5  9  1  0  0  0  0
  5  4  2  0  0  0  0
  6  5  1  0  0  0  0
  7 12  1  0  0  0  0
  7  9  1  0  0  0  0
  8  7  2  0  0  0  0
  9 13  1  0  0  0  0
 10  1  1  0  0  0  0
 11  2  1  0  0  0  0
 14 15  1  0  0  0  0
 15 21  1  0  0  0  0
 16 15  2  0  0  0  0
 16 17  1  0  0  0  0
 17 18  2  0  0  0  0
 18 19  1  0  0  0  0
 18 23  1  0  0  0  0
 19 20  1  0  0  0  0
 21 24  1  0  0  0  0
 21 19  2  0  0  0  0
 22 17  1  0  0  0  0
 24 25  1  0  0  0  0
 26 24  1  0  0  0  0
M  END
>  <minimizedAffinity>
-4.88372946

$$$$

 OpenBabel03262522563D

 26 27  0  0  0  0  0  0  0  0999 V2000
   40.5310   25.1950   34.9520 C   0  0  0  0  0  0  0  0  0  0  0  0
   39.7000   26.1290   34.3310 C   0  0  0  0  0  0  0  0  0  0  0  0
   38.3120   26.0350   34.3850 C   0  0  0  0  0  0  0  0  0  0  0  0
   37.8240   24.9740   35.0800 N   0  0  0  0  0  0  0  0  0  0  0  0
   38.6410   24.0840   35.6710 C   0  0  0  0  0  0  0  0  0  0  0  0
   39.9590   24.1900   35.6100 N   0  0  0  0  0  0  0  0  0  0  0  0
   37.5830   21.9790   35.4360 C   0  0  0  0  0  0  0  0  0  0  0  0
   37.9420   21.8290   34.2100 O   0  0  0  0  0  0  0  0  0  0  0  0
   37.8520   23.0660   36.3350 N   0  0  0  0  0  0  0  0  0  0  0  0
   41.6050   25.2710   34.9090 H   0  0  0  0  0  0  0  0  0  0  0  0
   40.1600   26.9460   33.7970 H   0  0  0  0  0  0  0  0  0  0  0  0
   36.9880   21.1350   35.8200 H   0  0  0  0  0  0  0  0  0  0  0  0
   37.5200   23.1100   37.3280 H   0  0  0  0  0  0  0  0  0  0  0  0
   38.0940   25.6610   31.4660 Cl  0  0  0  0  0  0  0  0  0  0  0  0
   37.2790   26.9090   32.3810 C   0  0  0  0  0  0  0  0  0  0  0  0
   37.4340   27.0120   33.7360 C   0  0  0  0  0  0  0  0  0  0  0  0
   36.7650   28.0160   34.3910 C   0  0  0  0  0  0  0  0  0  0  0  0
   35.9490   28.9100   33.7230 C   0  0  0  0  0  0  0  0  0  0  0  0
   35.8140   28.7750   32.3390 C   0  0  0  0  0  0  0  0  0  0  0  0
   34.7730   29.9320   31.5590 Cl  0  0  0  0  0  0  0  0  0  0  0  0
   36.4750   27.7760   31.6620 C   0  0  0  0  0  0  0  0  0  0  0  0
   36.8950   28.0880   35.4680 H   0  0  0  0  0  0  0  0  0  0  0  0
   35.4390   29.6880   34.2820 H   0  0  0  0  0  0  0  0  0  0  0  0
   36.3150   27.6670   30.2490 N   0  0  0  0  0  0  0  0  0  0  0  0
   35.5490   28.0520   29.6280 H   0  0  0  0  0  0  0  0  0  0  0  0
   37.1720   27.1040   30.0490 H   0  0  0  0  0  0  0  0  0  0  0  0
  1  6  1  0  0  0  0
  2  3  1  0  0  0  0
  2  1  2  0  0  0  0
  3  4  2  0  0  0  0
  4  5  1  0  0  0  0
  5  9  1  0  0  0  0
  6  5  2  0  0  0  0
  7 12  1  0  0  0  0
  7  9  1  0  0  0  0
  8  7  2  0  0  0  0
  9 13  1  0  0  0  0
 10  1  1  0  0  0  0
 11  2  1  0  0  0  0
 14 15  1  0  0  0  0
 15 16  1  0  0  0  0
 16  3  1  0  0  0  0
 16 17  2  0  0  0  0
 17 22  1  0  0  0  0
 18 23  1  0  0  0  0
 18 17  1  0  0  0  0
 19 18  2  0  0  0  0
 20 19  1  0  0  0  0
 21 19  1  0  0  0  0
 21 15  2  0  0  0  0
 24 21  1  0  0  0  0
 25 24  1  0  0  0  0
 26 24  1  0  0  0  0
M  END
>  <minimizedAffinity>
-4.84750414

$$$$

 OpenBabel03262522563D

 26 27  0  0  0  0  0  0  0  0999 V2000
   38.9850   23.2870   38.1430 C   0  0  0  0  0  0  0  0  0  0  0  0
   38.3500   23.8400   37.0290 C   0  0  0  0  0  0  0  0  0  0  0  0
   38.8520   23.6840   35.7390 C   0  0  0  0  0  0  0  0  0  0  0  0
   39.9970   22.9610   35.6410 N   0  0  0  0  0  0  0  0  0  0  0  0
   40.5950   22.4360   36.7250 C   0  0  0  0  0  0  0  0  0  0  0  0
   40.1030   22.5940   37.9440 N   0  0  0  0  0  0  0  0  0  0  0  0
   42.9220   22.6050   36.3270 C   0  0  0  0  0  0  0  0  0  0  0  0
   42.9800   23.8550   36.6250 O   0  0  0  0  0  0  0  0  0  0  0  0
   41.7900   21.7210   36.3240 N   0  0  0  0  0  0  0  0  0  0  0  0
   38.5940   23.4080   39.1390 H   0  0  0  0  0  0  0  0  0  0  0  0
   37.4430   24.4010   37.1860 H   0  0  0  0  0  0  0  0  0  0  0  0
   43.8990   22.1830   36.0390 H   0  0  0  0  0  0  0  0  0  0  0  0
   41.8300   20.7070   36.0670 H   0  0  0  0  0  0  0  0  0  0  0  0
   38.4330   26.5980   35.9430 Cl  0  0  0  0  0  0  0  0  0  0  0  0
   37.9570   25.6090   34.5820 C   0  0  0  0  0  0  0  0  0  0  0  0
   38.1900   24.2620   34.5660 C   0  0  0  0  0  0  0  0  0  0  0  0
   37.7900   23.5460   33.4650 C   0  0  0  0  0  0  0  0  0  0  0  0
   37.1690   24.1470   32.3870 C   0  0  0  0  0  0  0  0  0  0  0  0
   36.9470   25.5260   32.4360 C   0  0  0  0  0  0  0  0  0  0  0  0
   36.1610   26.2210   31.0460 Cl  0  0  0  0  0  0  0  0  0  0  0  0
   37.3400   26.2620   33.5300 C   0  0  0  0  0  0  0  0  0  0  0  0
   37.9800   22.4750   33.4640 H   0  0  0  0  0  0  0  0  0  0  0  0
   36.8700   23.5430   31.5370 H   0  0  0  0  0  0  0  0  0  0  0  0
   37.0980   27.6680   33.5470 N   0  0  0  0  0  0  0  0  0  0  0  0
   36.9080   28.3280   32.7410 H   0  0  0  0  0  0  0  0  0  0  0  0
   37.1690   27.8150   34.5790 H   0  0  0  0  0  0  0  0  0  0  0  0
  1 10  1  0  0  0  0
  2 11  1  0  0  0  0
  2  1  2  0  0  0  0
  3  2  1  0  0  0  0
  4  3  2  0  0  0  0
  4  5  1  0  0  0  0
  5  6  2  0  0  0  0
  6  1  1  0  0  0  0
  7  8  2  0  0  0  0
  9  7  1  0  0  0  0
  9  5  1  0  0  0  0
 12  7  1  0  0  0  0
 13  9  1  0  0  0  0
 15 14  1  0  0  0  0
 16 15  1  0  0  0  0
 16  3  1  0  0  0  0
 17 16  2  0  0  0  0
 18 19  2  0  0  0  0
 18 17  1  0  0  0  0
 19 21  1  0  0  0  0
 20 19  1  0  0  0  0
 21 24  1  0  0  0  0
 21 15  2  0  0  0  0
 22 17  1  0  0  0  0
 23 18  1  0  0  0  0
 24 26  1  0  0  0  0
 25 24  1  0  0  0  0
M  END
>  <minimizedAffinity>
-4.84305239

$$$$

 OpenBabel03262522563D

 26 27  0  0  0  0  0  0  0  0999 V2000
   32.2500   30.2520   36.2820 C   0  0  0  0  0  0  0  0  0  0  0  0
   32.9830   29.8450   35.1650 C   0  0  0  0  0  0  0  0  0  0  0  0
   34.2550   30.3460   34.8950 C   0  0  0  0  0  0  0  0  0  0  0  0
   34.7290   31.2530   35.7880 N   0  0  0  0  0  0  0  0  0  0  0  0
   34.0070   31.6320   36.8580 C   0  0  0  0  0  0  0  0  0  0  0  0
   32.8000   31.1450   37.0990 N   0  0  0  0  0  0  0  0  0  0  0  0
   34.4700   33.9320   37.1690 C   0  0  0  0  0  0  0  0  0  0  0  0
   33.6860   34.3160   36.2240 O   0  0  0  0  0  0  0  0  0  0  0  0
   34.7560   32.6030   37.6300 N   0  0  0  0  0  0  0  0  0  0  0  0
   31.2670   29.8620   36.4890 H   0  0  0  0  0  0  0  0  0  0  0  0
   32.5410   29.1210   34.5010 H   0  0  0  0  0  0  0  0  0  0  0  0
   34.9790   34.7680   37.6760 H   0  0  0  0  0  0  0  0  0  0  0  0
   35.4130   32.3750   38.4140 H   0  0  0  0  0  0  0  0  0  0  0  0
   33.8830   32.0930   32.5470 Cl  0  0  0  0  0  0  0  0  0  0  0  0
   34.9130   30.6810   32.5930 C   0  0  0  0  0  0  0  0  0  0  0  0
   35.0300   29.9230   33.7250 C   0  0  0  0  0  0  0  0  0  0  0  0
   35.8570   28.8280   33.6920 C   0  0  0  0  0  0  0  0  0  0  0  0
   36.5640   28.4780   32.5570 C   0  0  0  0  0  0  0  0  0  0  0  0
   36.4210   29.2740   31.4180 C   0  0  0  0  0  0  0  0  0  0  0  0
   37.3390   28.7800   30.0230 Cl  0  0  0  0  0  0  0  0  0  0  0  0
   35.5980   30.3770   31.4290 C   0  0  0  0  0  0  0  0  0  0  0  0
   35.9420   28.2330   34.5980 H   0  0  0  0  0  0  0  0  0  0  0  0
   37.2060   27.6040   32.5750 H   0  0  0  0  0  0  0  0  0  0  0  0
   35.4750   31.1680   30.2480 N   0  0  0  0  0  0  0  0  0  0  0  0
   36.1210   31.2320   29.4120 H   0  0  0  0  0  0  0  0  0  0  0  0
   34.5720   31.6390   30.4830 H   0  0  0  0  0  0  0  0  0  0  0  0
  1 10  1  0  0  0  0
  1  6  1  0  0  0  0
  2  1  2  0  0  0  0
  3  2  1  0  0  0  0
  3  4  2  0  0  0  0
  4  5  1  0  0  0  0
  5  6  2  0  0  0  0
  5  9  1  0  0  0  0
  7  9  1  0  0  0  0
  7 12  1  0  0  0  0
  8  7  2  0  0  0  0
  9 13  1  0  0  0  0
 11  2  1  0  0  0  0
 14 15  1  0  0  0  0
 15 16  1  0  0  0  0
 16  3  1  0  0  0  0
 17 16  2  0  0  0  0
 17 22  1  0  0  0  0
 18 23  1  0  0  0  0
 18 17  1  0  0  0  0
 19 21  1  0  0  0  0
 19 18  2  0  0  0  0
 20 19  1  0  0  0  0
 21 15  2  0  0  0  0
 24 26  1  0  0  0  0
 24 21  1  0  0  0  0
 25 24  1  0  0  0  0
M  END
>  <minimizedAffinity>
-4.84047937

$$$$

 OpenBabel03262522563D

 26 27  0  0  0  0  0  0  0  0999 V2000
   35.2590   32.0510   36.4120 C   0  0  0  0  0  0  0  0  0  0  0  0
   35.8810   31.1240   35.5750 C   0  0  0  0  0  0  0  0  0  0  0  0
   35.1530   30.2220   34.8020 C   0  0  0  0  0  0  0  0  0  0  0  0
   33.8030   30.3070   34.9210 N   0  0  0  0  0  0  0  0  0  0  0  0
   33.2220   31.2080   35.7340 C   0  0  0  0  0  0  0  0  0  0  0  0
   33.9300   32.0580   36.4610 N   0  0  0  0  0  0  0  0  0  0  0  0
   31.3210   30.1300   36.6420 C   0  0  0  0  0  0  0  0  0  0  0  0
   31.9960   29.4560   37.5040 O   0  0  0  0  0  0  0  0  0  0  0  0
   31.7810   31.0720   35.6600 N   0  0  0  0  0  0  0  0  0  0  0  0
   35.8250   32.7490   37.0080 H   0  0  0  0  0  0  0  0  0  0  0  0
   36.9590   31.1160   35.5330 H   0  0  0  0  0  0  0  0  0  0  0  0
   30.2370   29.9340   36.6910 H   0  0  0  0  0  0  0  0  0  0  0  0
   31.1590   31.5830   34.9900 H   0  0  0  0  0  0  0  0  0  0  0  0
   35.0260   30.9550   31.9470 Cl  0  0  0  0  0  0  0  0  0  0  0  0
   35.7830   29.5110   32.5790 C   0  0  0  0  0  0  0  0  0  0  0  0
   35.7990   29.2450   33.9200 C   0  0  0  0  0  0  0  0  0  0  0  0
   36.4110   28.0940   34.3480 C   0  0  0  0  0  0  0  0  0  0  0  0
   37.0040   27.2090   33.4670 C   0  0  0  0  0  0  0  0  0  0  0  0
   36.9700   27.5120   32.1030 C   0  0  0  0  0  0  0  0  0  0  0  0
   37.7350   26.3580   31.0470 Cl  0  0  0  0  0  0  0  0  0  0  0  0
   36.3620   28.6610   31.6530 C   0  0  0  0  0  0  0  0  0  0  0  0
   36.4170   27.8930   35.4160 H   0  0  0  0  0  0  0  0  0  0  0  0
   37.4770   26.3110   33.8480 H   0  0  0  0  0  0  0  0  0  0  0  0
   36.3450   28.9390   30.2540 N   0  0  0  0  0  0  0  0  0  0  0  0
   36.9630   28.5560   29.4840 H   0  0  0  0  0  0  0  0  0  0  0  0
   35.5510   29.6190   30.2510 H   0  0  0  0  0  0  0  0  0  0  0  0
  1  6  1  0  0  0  0
  1 10  1  0  0  0  0
  2  1  2  0  0  0  0
  3  4  2  0  0  0  0
  3  2  1  0  0  0  0
  4  5  1  0  0  0  0
  5  6  2  0  0  0  0
  7 12  1  0  0  0  0
  7  8  2  0  0  0  0
  9  5  1  0  0  0  0
  9  7  1  0  0  0  0
 11  2  1  0  0  0  0
 13  9  1  0  0  0  0
 14 15  1  0  0  0  0
 15 16  1  0  0  0  0
 16 17  2  0  0  0  0
 16  3  1  0  0  0  0
 17 22  1  0  0  0  0
 18 23  1  0  0  0  0
 18 17  1  0  0  0  0
 19 18  2  0  0  0  0
 20 19  1  0  0  0  0
 21 19  1  0  0  0  0
 21 15  2  0  0  0  0
 24 21  1  0  0  0  0
 25 24  1  0  0  0  0
 26 24  1  0  0  0  0
M  END
>  <minimizedAffinity>
-4.8323822

$$$$
