
 OpenBabel03272507253D

 27 28  0  0  1  0  0  0  0  0999 V2000
   37.0440   31.4590   50.0510 C   0  0  0  0  0  0  0  0  0  0  0  0
   38.0440   31.9490   49.1990 C   0  0  0  0  0  0  0  0  0  0  0  0
   37.9290   31.7140   47.8210 C   0  0  0  0  0  0  0  0  0  0  0  0
   36.8550   31.0260   47.3890 N   0  0  0  0  0  0  0  0  0  0  0  0
   35.8990   30.5610   48.2340 C   0  0  0  0  0  0  0  0  0  0  0  0
   36.0070   30.7840   49.5530 N   0  0  0  0  0  0  0  0  0  0  0  0
   38.8990   32.1740   46.9200 N   0  0  0  0  0  0  0  0  0  0  0  0
   39.7500   33.3480   47.1320 C   0  0  0  0  0  0  0  0  0  0  0  0
   40.4910   33.5760   45.8580 C   0  0  0  0  0  0  0  0  0  0  0  0
   39.6190   32.8710   44.8690 C   0  0  0  0  0  0  0  0  0  0  0  0
   39.2740   31.6240   45.6540 C   0  0  2  0  0  0  0  0  0  0  0  0
   37.1480   31.6480   51.1120 H   0  0  0  0  0  0  0  0  0  0  0  0
   38.8990   32.5030   49.5880 H   0  0  0  0  0  0  0  0  0  0  0  0
   35.0540   30.0080   47.7980 H   0  0  0  0  0  0  0  0  0  0  0  0
   40.4830   33.0250   47.9200 H   0  0  0  0  0  0  0  0  0  0  0  0
   39.1940   34.1940   47.5300 H   0  0  0  0  0  0  0  0  0  0  0  0
   40.4660   34.6810   45.6370 H   0  0  0  0  0  0  0  0  0  0  0  0
   41.5260   33.2330   45.8290 H   0  0  0  0  0  0  0  0  0  0  0  0
   40.1900   32.5510   43.9520 H   0  0  0  0  0  0  0  0  0  0  0  0
   38.7160   33.4520   44.6170 H   0  0  0  0  0  0  0  0  0  0  0  0
   38.3140   30.7540   44.9540 C   0  0  0  0  0  0  0  0  0  0  0  0
   37.1440   31.4890   44.8000 F   0  0  0  0  0  0  0  0  0  0  0  0
   37.9710   29.6050   45.6090 F   0  0  0  0  0  0  0  0  0  0  0  0
   38.8000   30.5550   43.6760 F   0  0  0  0  0  0  0  0  0  0  0  0
   40.5320   30.9060   45.9040 N   0  0  0  0  0  0  0  0  0  0  0  0
   40.4020   29.9110   45.5970 H   0  0  0  0  0  0  0  0  0  0  0  0
   40.6800   30.8940   46.9190 H   0  0  0  0  0  0  0  0  0  0  0  0
  1 12  1  0  0  0  0
  2 13  1  0  0  0  0
  2  1  2  0  0  0  0
  3  2  1  0  0  0  0
  4  3  2  0  0  0  0
  4  5  1  0  0  0  0
  5  6  2  0  0  0  0
  6  1  1  0  0  0  0
  7  8  1  0  0  0  0
  7  3  1  0  0  0  0
  8 16  1  0  0  0  0
  8 15  1  0  0  0  0
  9  8  1  0  0  0  0
 10 11  1  0  0  0  0
 10  9  1  0  0  0  0
 11 21  1  6  0  0  0
 11 25  1  0  0  0  0
 11  7  1  0  0  0  0
 14  5  1  0  0  0  0
 17  9  1  0  0  0  0
 18  9  1  0  0  0  0
 19 10  1  0  0  0  0
 20 10  1  0  0  0  0
 21 23  1  0  0  0  0
 22 21  1  0  0  0  0
 24 21  1  0  0  0  0
 25 27  1  0  0  0  0
 26 25  1  0  0  0  0
M  END
>  <minimizedAffinity>
-4.77324295

>  <minimizedRMSD>
2.20376205

$$$$
