
 OpenBabel03272505333D

 29 30  0  0  1  0  0  0  0  0999 V2000
   37.3220   31.0270   49.4610 C   0  0  0  0  0  0  0  0  0  0  0  0
   37.4710   32.3160   49.9660 C   0  0  0  0  0  0  0  0  0  0  0  0
   38.0930   33.2700   49.1570 C   0  0  0  0  0  0  0  0  0  0  0  0
   38.5170   32.8790   47.9120 N   0  0  0  0  0  0  0  0  0  0  0  0
   38.3500   31.6280   47.4710 C   0  0  0  0  0  0  0  0  0  0  0  0
   37.7640   30.7070   48.2210 N   0  0  0  0  0  0  0  0  0  0  0  0
   38.8290   31.3310   46.1630 N   0  0  0  0  0  0  0  0  0  0  0  0
   40.1870   30.8770   45.9770 C   0  0  0  0  0  0  0  0  0  0  0  0
   40.8650   31.5450   44.8070 C   0  0  0  0  0  0  0  0  0  0  0  0
   40.0430   31.5300   43.6410 N   0  0  0  0  0  0  0  0  0  0  0  0
   38.7590   30.9130   43.8030 C   0  0  0  0  0  0  0  0  0  0  0  0
   37.9830   31.4670   44.9740 C   0  0  2  0  0  0  0  0  0  0  0  0
   37.1150   32.5690   50.9610 H   0  0  0  0  0  0  0  0  0  0  0  0
   38.2210   34.2690   49.5190 H   0  0  0  0  0  0  0  0  0  0  0  0
   40.7820   31.0130   46.8980 H   0  0  0  0  0  0  0  0  0  0  0  0
   40.1030   29.7880   45.7220 H   0  0  0  0  0  0  0  0  0  0  0  0
   41.8640   31.1200   44.6870 H   0  0  0  0  0  0  0  0  0  0  0  0
   41.0360   32.6220   45.1020 H   0  0  0  0  0  0  0  0  0  0  0  0
   40.5640   30.9690   42.9210 H   0  0  0  0  0  0  0  0  0  0  0  0
   38.8290   29.8050   43.9700 H   0  0  0  0  0  0  0  0  0  0  0  0
   38.1920   31.0520   42.8670 H   0  0  0  0  0  0  0  0  0  0  0  0
   37.1290   30.7510   45.1560 H   0  0  0  0  0  0  0  0  0  0  0  0
   36.6560   29.9890   50.3180 C   0  0  0  0  0  0  0  0  0  0  0  0
   35.2730   30.1890   50.2740 F   0  0  0  0  0  0  0  0  0  0  0  0
   37.0550   28.7690   49.8930 F   0  0  0  0  0  0  0  0  0  0  0  0
   37.0500   30.2430   51.6240 F   0  0  0  0  0  0  0  0  0  0  0  0
   37.4840   32.7840   44.7660 N   0  0  0  0  0  0  0  0  0  0  0  0
   37.8260   33.2660   43.9300 H   0  0  0  0  0  0  0  0  0  0  0  0
   37.6040   33.3350   45.6640 H   0  0  0  0  0  0  0  0  0  0  0  0
  1  2  1  0  0  0  0
  1 23  1  0  0  0  0
  2 13  1  0  0  0  0
  3 14  1  0  0  0  0
  3  2  2  0  0  0  0
  4  3  1  0  0  0  0
  5  4  2  0  0  0  0
  5  6  1  0  0  0  0
  6  1  2  0  0  0  0
  7  5  1  0  0  0  0
  8  7  1  0  0  0  0
  8 15  1  0  0  0  0
  9 18  1  0  0  0  0
  9  8  1  0  0  0  0
 10 11  1  0  0  0  0
 10  9  1  0  0  0  0
 11 20  1  0  0  0  0
 11 12  1  0  0  0  0
 12 22  1  1  0  0  0
 12  7  1  0  0  0  0
 16  8  1  0  0  0  0
 17  9  1  0  0  0  0
 19 10  1  0  0  0  0
 21 11  1  0  0  0  0
 23 26  1  0  0  0  0
 24 23  1  0  0  0  0
 25 23  1  0  0  0  0
 27 12  1  0  0  0  0
 27 29  1  0  0  0  0
 28 27  1  0  0  0  0
M  END
>  <minimizedAffinity>
-6.14701176

>  <minimizedRMSD>
0.846481085

$$$$
