
 OpenBabel03272510103D

 21 22  0  0  0  0  0  0  0  0999 V2000
   38.5000   24.7940   35.6740 C   0  0  0  0  0  0  0  0  0  0  0  0
   38.0310   24.3970   36.9190 C   0  0  0  0  0  0  0  0  0  0  0  0
   38.6450   23.4220   37.6960 C   0  0  0  0  0  0  0  0  0  0  0  0
   39.7910   22.8010   37.2140 C   0  0  0  0  0  0  0  0  0  0  0  0
   40.2260   23.2140   35.9820 C   0  0  0  0  0  0  0  0  0  0  0  0
   39.6080   24.1590   35.2620 N   0  0  0  0  0  0  0  0  0  0  0  0
   37.1520   24.8410   37.3400 H   0  0  0  0  0  0  0  0  0  0  0  0
   38.2650   23.1260   38.6620 H   0  0  0  0  0  0  0  0  0  0  0  0
   41.1040   22.8000   35.5150 H   0  0  0  0  0  0  0  0  0  0  0  0
   37.5170   27.0960   35.3570 C   0  0  0  0  0  0  0  0  0  0  0  0
   37.8400   25.8100   34.8900 C   0  0  0  0  0  0  0  0  0  0  0  0
   37.4980   25.4900   33.5760 C   0  0  0  0  0  0  0  0  0  0  0  0
   36.8700   26.4410   32.8120 N   0  0  0  0  0  0  0  0  0  0  0  0
   36.5820   27.6680   33.3170 C   0  0  0  0  0  0  0  0  0  0  0  0
   36.9000   27.9950   34.5710 N   0  0  0  0  0  0  0  0  0  0  0  0
   37.7990   27.3040   36.3840 H   0  0  0  0  0  0  0  0  0  0  0  0
   37.6920   24.5310   33.0940 H   0  0  0  0  0  0  0  0  0  0  0  0
   36.0900   28.2980   32.5950 H   0  0  0  0  0  0  0  0  0  0  0  0
   40.5010   21.7980   37.9090 N   0  0  0  0  0  0  0  0  0  0  0  0
   40.2260   20.8030   37.7420 H   0  0  0  0  0  0  0  0  0  0  0  0
   41.2350   22.2400   38.5200 H   0  0  0  0  0  0  0  0  0  0  0  0
  1  2  1  0  0  0  0
  2  7  1  0  0  0  0
  2  3  2  0  0  0  0
  3  8  1  0  0  0  0
  4  3  1  0  0  0  0
  4 19  1  0  0  0  0
  5  4  2  0  0  0  0
  6  1  2  0  0  0  0
  6  5  1  0  0  0  0
  9  5  1  0  0  0  0
 10 16  1  0  0  0  0
 11 10  1  0  0  0  0
 11  1  1  0  0  0  0
 12 11  2  0  0  0  0
 13 14  2  0  0  0  0
 13 12  1  0  0  0  0
 14 15  1  0  0  0  0
 15 10  2  0  0  0  0
 17 12  1  0  0  0  0
 18 14  1  0  0  0  0
 19 21  1  0  0  0  0
 20 19  1  0  0  0  0
M  END
>  <minimizedAffinity>
-4.38330889

$$$$

 OpenBabel03272510103D

 21 22  0  0  0  0  0  0  0  0999 V2000
   38.4530   24.7790   35.5570 C   0  0  0  0  0  0  0  0  0  0  0  0
   38.0280   24.4910   36.8470 C   0  0  0  0  0  0  0  0  0  0  0  0
   38.6330   23.5430   37.6620 C   0  0  0  0  0  0  0  0  0  0  0  0
   39.7260   22.8350   37.1740 C   0  0  0  0  0  0  0  0  0  0  0  0
   40.1190   23.1420   35.8980 C   0  0  0  0  0  0  0  0  0  0  0  0
   39.5100   24.0640   35.1410 N   0  0  0  0  0  0  0  0  0  0  0  0
   37.1910   25.0050   37.2740 H   0  0  0  0  0  0  0  0  0  0  0  0
   38.2880   23.3320   38.6620 H   0  0  0  0  0  0  0  0  0  0  0  0
   40.9540   22.6550   35.4220 H   0  0  0  0  0  0  0  0  0  0  0  0
   37.4400   25.5800   33.3890 C   0  0  0  0  0  0  0  0  0  0  0  0
   37.8020   25.7700   34.7340 C   0  0  0  0  0  0  0  0  0  0  0  0
   37.5140   27.0030   35.3180 C   0  0  0  0  0  0  0  0  0  0  0  0
   36.8950   27.9610   34.5550 N   0  0  0  0  0  0  0  0  0  0  0  0
   36.5690   27.7210   33.2590 C   0  0  0  0  0  0  0  0  0  0  0  0
   36.8360   26.5500   32.6800 N   0  0  0  0  0  0  0  0  0  0  0  0
   37.6830   24.6080   32.9730 H   0  0  0  0  0  0  0  0  0  0  0  0
   37.7410   27.2770   36.3490 H   0  0  0  0  0  0  0  0  0  0  0  0
   36.0910   28.5700   32.7980 H   0  0  0  0  0  0  0  0  0  0  0  0
   40.4230   21.8490   37.9060 N   0  0  0  0  0  0  0  0  0  0  0  0
   40.0950   20.8590   37.8210 H   0  0  0  0  0  0  0  0  0  0  0  0
   41.2040   22.2960   38.4500 H   0  0  0  0  0  0  0  0  0  0  0  0
  1  2  1  0  0  0  0
  2  7  1  0  0  0  0
  2  3  2  0  0  0  0
  3  8  1  0  0  0  0
  4  3  1  0  0  0  0
  4 19  1  0  0  0  0
  5  4  2  0  0  0  0
  6  1  2  0  0  0  0
  6  5  1  0  0  0  0
  9  5  1  0  0  0  0
 10 11  1  0  0  0  0
 11 12  2  0  0  0  0
 11  1  1  0  0  0  0
 12 17  1  0  0  0  0
 13 12  1  0  0  0  0
 14 13  2  0  0  0  0
 15 14  1  0  0  0  0
 15 10  2  0  0  0  0
 16 10  1  0  0  0  0
 18 14  1  0  0  0  0
 19 21  1  0  0  0  0
 20 19  1  0  0  0  0
M  END
>  <minimizedAffinity>
-4.36212015

$$$$

 OpenBabel03272510103D

 21 22  0  0  0  0  0  0  0  0999 V2000
   38.5350   24.8620   35.6160 C   0  0  0  0  0  0  0  0  0  0  0  0
   39.7700   24.3500   35.2430 C   0  0  0  0  0  0  0  0  0  0  0  0
   40.4420   23.3650   35.9560 C   0  0  0  0  0  0  0  0  0  0  0  0
   39.8580   22.8530   37.1090 C   0  0  0  0  0  0  0  0  0  0  0  0
   38.6400   23.3800   37.4510 C   0  0  0  0  0  0  0  0  0  0  0  0
   38.0220   24.3310   36.7360 N   0  0  0  0  0  0  0  0  0  0  0  0
   40.2670   24.7070   34.3630 H   0  0  0  0  0  0  0  0  0  0  0  0
   41.4020   22.9790   35.6500 H   0  0  0  0  0  0  0  0  0  0  0  0
   38.0990   23.0570   38.3240 H   0  0  0  0  0  0  0  0  0  0  0  0
   37.5430   27.1660   35.3410 C   0  0  0  0  0  0  0  0  0  0  0  0
   37.8630   25.8860   34.8540 C   0  0  0  0  0  0  0  0  0  0  0  0
   37.5060   25.5820   33.5400 C   0  0  0  0  0  0  0  0  0  0  0  0
   36.8660   26.5400   32.7960 N   0  0  0  0  0  0  0  0  0  0  0  0
   36.5820   27.7610   33.3200 C   0  0  0  0  0  0  0  0  0  0  0  0
   36.9140   28.0730   34.5730 N   0  0  0  0  0  0  0  0  0  0  0  0
   37.8370   27.3610   36.3670 H   0  0  0  0  0  0  0  0  0  0  0  0
   37.6960   24.6300   33.0440 H   0  0  0  0  0  0  0  0  0  0  0  0
   36.0790   28.3990   32.6120 H   0  0  0  0  0  0  0  0  0  0  0  0
   40.4410   21.8530   37.9170 N   0  0  0  0  0  0  0  0  0  0  0  0
   41.0610   22.1610   38.7000 H   0  0  0  0  0  0  0  0  0  0  0  0
   40.1400   20.9020   37.5790 H   0  0  0  0  0  0  0  0  0  0  0  0
  1  6  1  0  0  0  0
  2  1  2  0  0  0  0
  2  3  1  0  0  0  0
  3  4  2  0  0  0  0
  4  5  1  0  0  0  0
  4 19  1  0  0  0  0
  5  9  1  0  0  0  0
  6  5  2  0  0  0  0
  7  2  1  0  0  0  0
  8  3  1  0  0  0  0
 10 16  1  0  0  0  0
 11 10  1  0  0  0  0
 11  1  1  0  0  0  0
 12 11  2  0  0  0  0
 13 14  2  0  0  0  0
 13 12  1  0  0  0  0
 14 15  1  0  0  0  0
 15 10  2  0  0  0  0
 17 12  1  0  0  0  0
 18 14  1  0  0  0  0
 19 20  1  0  0  0  0
 21 19  1  0  0  0  0
M  END
>  <minimizedAffinity>
-4.2398119

$$$$

 OpenBabel03272510103D

 21 22  0  0  0  0  0  0  0  0999 V2000
   36.0490   22.3700   31.5970 C   0  0  0  0  0  0  0  0  0  0  0  0
   35.0260   21.6630   32.2140 C   0  0  0  0  0  0  0  0  0  0  0  0
   34.8720   20.2860   32.1120 C   0  0  0  0  0  0  0  0  0  0  0  0
   35.7860   19.5620   31.3540 C   0  0  0  0  0  0  0  0  0  0  0  0
   36.7820   20.2890   30.7580 C   0  0  0  0  0  0  0  0  0  0  0  0
   36.8980   21.6180   30.8800 N   0  0  0  0  0  0  0  0  0  0  0  0
   34.2930   22.1690   32.8100 H   0  0  0  0  0  0  0  0  0  0  0  0
   34.0700   19.7540   32.5990 H   0  0  0  0  0  0  0  0  0  0  0  0
   37.5430   19.8290   30.1490 H   0  0  0  0  0  0  0  0  0  0  0  0
   37.1680   24.4500   32.4840 C   0  0  0  0  0  0  0  0  0  0  0  0
   36.1810   23.8010   31.7220 C   0  0  0  0  0  0  0  0  0  0  0  0
   35.2620   24.5950   31.0360 C   0  0  0  0  0  0  0  0  0  0  0  0
   35.3680   25.9590   31.1400 N   0  0  0  0  0  0  0  0  0  0  0  0
   36.3430   26.5310   31.8920 C   0  0  0  0  0  0  0  0  0  0  0  0
   37.2320   25.7910   32.5570 N   0  0  0  0  0  0  0  0  0  0  0  0
   37.8620   23.7960   33.0020 H   0  0  0  0  0  0  0  0  0  0  0  0
   34.4510   24.2190   30.4120 H   0  0  0  0  0  0  0  0  0  0  0  0
   36.2920   27.6070   31.8720 H   0  0  0  0  0  0  0  0  0  0  0  0
   35.7350   18.1620   31.1760 N   0  0  0  0  0  0  0  0  0  0  0  0
   35.1890   17.7950   30.3630 H   0  0  0  0  0  0  0  0  0  0  0  0
   36.2860   17.6860   31.9360 H   0  0  0  0  0  0  0  0  0  0  0  0
  1 11  1  0  0  0  0
  1  2  1  0  0  0  0
  2  7  1  0  0  0  0
  3  2  2  0  0  0  0
  3  8  1  0  0  0  0
  4  3  1  0  0  0  0
  5  6  1  0  0  0  0
  5  4  2  0  0  0  0
  6  1  2  0  0  0  0
  9  5  1  0  0  0  0
 10 15  1  0  0  0  0
 10 16  1  0  0  0  0
 11 10  2  0  0  0  0
 12 13  2  0  0  0  0
 12 11  1  0  0  0  0
 13 14  1  0  0  0  0
 14 15  2  0  0  0  0
 17 12  1  0  0  0  0
 18 14  1  0  0  0  0
 19  4  1  0  0  0  0
 19 21  1  0  0  0  0
 20 19  1  0  0  0  0
M  END
>  <minimizedAffinity>
-4.0551281

$$$$

 OpenBabel03272510103D

 21 22  0  0  0  0  0  0  0  0999 V2000
   38.3950   25.1680   35.3480 C   0  0  0  0  0  0  0  0  0  0  0  0
   39.5670   24.4640   35.1090 C   0  0  0  0  0  0  0  0  0  0  0  0
   40.0920   23.5240   35.9880 C   0  0  0  0  0  0  0  0  0  0  0  0
   39.4180   23.2630   37.1750 C   0  0  0  0  0  0  0  0  0  0  0  0
   38.2650   23.9750   37.3810 C   0  0  0  0  0  0  0  0  0  0  0  0
   37.7900   24.8740   36.5090 N   0  0  0  0  0  0  0  0  0  0  0  0
   40.1280   24.6250   34.2110 H   0  0  0  0  0  0  0  0  0  0  0  0
   41.0060   22.9880   35.7850 H   0  0  0  0  0  0  0  0  0  0  0  0
   37.6650   23.8510   38.2660 H   0  0  0  0  0  0  0  0  0  0  0  0
   38.1800   26.1720   33.0430 C   0  0  0  0  0  0  0  0  0  0  0  0
   37.8750   26.1380   34.4150 C   0  0  0  0  0  0  0  0  0  0  0  0
   37.0090   27.1110   34.9130 C   0  0  0  0  0  0  0  0  0  0  0  0
   36.5020   28.0440   34.0440 N   0  0  0  0  0  0  0  0  0  0  0  0
   36.8320   28.0280   32.7270 C   0  0  0  0  0  0  0  0  0  0  0  0
   37.6590   27.1070   32.2300 N   0  0  0  0  0  0  0  0  0  0  0  0
   38.8580   25.3980   32.6970 H   0  0  0  0  0  0  0  0  0  0  0  0
   36.6920   27.1960   35.9530 H   0  0  0  0  0  0  0  0  0  0  0  0
   36.3540   28.8240   32.1800 H   0  0  0  0  0  0  0  0  0  0  0  0
   39.8520   22.3330   38.1450 N   0  0  0  0  0  0  0  0  0  0  0  0
   40.4830   22.6810   38.9030 H   0  0  0  0  0  0  0  0  0  0  0  0
   39.4460   21.3850   37.9360 H   0  0  0  0  0  0  0  0  0  0  0  0
  1  6  1  0  0  0  0
  2  1  2  0  0  0  0
  2  3  1  0  0  0  0
  3  4  2  0  0  0  0
  4  5  1  0  0  0  0
  4 19  1  0  0  0  0
  5  9  1  0  0  0  0
  6  5  2  0  0  0  0
  7  2  1  0  0  0  0
  8  3  1  0  0  0  0
 10 11  1  0  0  0  0
 11 12  2  0  0  0  0
 11  1  1  0  0  0  0
 12 17  1  0  0  0  0
 13 12  1  0  0  0  0
 14 13  2  0  0  0  0
 15 14  1  0  0  0  0
 15 10  2  0  0  0  0
 16 10  1  0  0  0  0
 18 14  1  0  0  0  0
 19 20  1  0  0  0  0
 21 19  1  0  0  0  0
M  END
>  <minimizedAffinity>
-4.0381484

$$$$

 OpenBabel03272510103D

 21 22  0  0  0  0  0  0  0  0999 V2000
   38.2470   25.4140   35.3030 C   0  0  0  0  0  0  0  0  0  0  0  0
   38.0210   26.7120   35.7410 C   0  0  0  0  0  0  0  0  0  0  0  0
   37.3810   27.6810   34.9770 C   0  0  0  0  0  0  0  0  0  0  0  0
   36.9370   27.3470   33.7030 C   0  0  0  0  0  0  0  0  0  0  0  0
   37.1760   26.0590   33.3010 C   0  0  0  0  0  0  0  0  0  0  0  0
   37.7970   25.1520   34.0670 N   0  0  0  0  0  0  0  0  0  0  0  0
   38.3430   27.0250   36.7140 H   0  0  0  0  0  0  0  0  0  0  0  0
   37.2150   28.6850   35.3340 H   0  0  0  0  0  0  0  0  0  0  0  0
   36.8740   25.6930   32.3340 H   0  0  0  0  0  0  0  0  0  0  0  0
   38.4560   23.9850   37.3720 C   0  0  0  0  0  0  0  0  0  0  0  0
   38.9160   24.4310   36.1210 C   0  0  0  0  0  0  0  0  0  0  0  0
   40.1040   23.8870   35.6330 C   0  0  0  0  0  0  0  0  0  0  0  0
   40.7570   22.9500   36.3930 N   0  0  0  0  0  0  0  0  0  0  0  0
   40.2650   22.5560   37.5960 C   0  0  0  0  0  0  0  0  0  0  0  0
   39.1310   23.0640   38.0820 N   0  0  0  0  0  0  0  0  0  0  0  0
   37.5300   24.4340   37.7150 H   0  0  0  0  0  0  0  0  0  0  0  0
   40.5670   24.1460   34.6800 H   0  0  0  0  0  0  0  0  0  0  0  0
   40.8910   21.8180   38.0680 H   0  0  0  0  0  0  0  0  0  0  0  0
   36.2750   28.2420   32.8340 N   0  0  0  0  0  0  0  0  0  0  0  0
   36.8630   28.8070   32.1800 H   0  0  0  0  0  0  0  0  0  0  0  0
   35.2360   28.1920   32.9960 H   0  0  0  0  0  0  0  0  0  0  0  0
  1  2  1  0  0  0  0
  1 11  1  0  0  0  0
  2  7  1  0  0  0  0
  3  8  1  0  0  0  0
  3  2  2  0  0  0  0
  4  3  1  0  0  0  0
  5  4  2  0  0  0  0
  5  6  1  0  0  0  0
  6  1  2  0  0  0  0
  9  5  1  0  0  0  0
 10 16  1  0  0  0  0
 10 15  1  0  0  0  0
 11 10  2  0  0  0  0
 12 11  1  0  0  0  0
 12 13  2  0  0  0  0
 13 14  1  0  0  0  0
 14 18  1  0  0  0  0
 14 15  2  0  0  0  0
 17 12  1  0  0  0  0
 19 21  1  0  0  0  0
 19  4  1  0  0  0  0
 20 19  1  0  0  0  0
M  END
>  <minimizedAffinity>
-4.02814007

$$$$

 OpenBabel03272510103D

 21 22  0  0  0  0  0  0  0  0999 V2000
   38.1670   24.4670   34.9420 C   0  0  0  0  0  0  0  0  0  0  0  0
   37.8430   25.1130   36.1270 C   0  0  0  0  0  0  0  0  0  0  0  0
   38.0970   24.5830   37.3860 C   0  0  0  0  0  0  0  0  0  0  0  0
   38.7110   23.3390   37.4810 C   0  0  0  0  0  0  0  0  0  0  0  0
   39.0170   22.7280   36.2930 C   0  0  0  0  0  0  0  0  0  0  0  0
   38.7550   23.2710   35.0970 N   0  0  0  0  0  0  0  0  0  0  0  0
   37.3680   26.0730   36.1150 H   0  0  0  0  0  0  0  0  0  0  0  0
   37.8370   25.1000   38.2970 H   0  0  0  0  0  0  0  0  0  0  0  0
   39.4930   21.7630   36.2500 H   0  0  0  0  0  0  0  0  0  0  0  0
   37.1540   26.2240   33.4410 C   0  0  0  0  0  0  0  0  0  0  0  0
   37.8880   25.0430   33.6490 C   0  0  0  0  0  0  0  0  0  0  0  0
   38.3840   24.3790   32.5270 C   0  0  0  0  0  0  0  0  0  0  0  0
   38.1320   24.9100   31.2870 N   0  0  0  0  0  0  0  0  0  0  0  0
   37.4150   26.0550   31.1470 C   0  0  0  0  0  0  0  0  0  0  0  0
   36.9310   26.7050   32.2060 N   0  0  0  0  0  0  0  0  0  0  0  0
   36.7860   26.7080   34.3400 H   0  0  0  0  0  0  0  0  0  0  0  0
   38.9670   23.4580   32.5510 H   0  0  0  0  0  0  0  0  0  0  0  0
   37.3040   26.3390   30.1130 H   0  0  0  0  0  0  0  0  0  0  0  0
   39.0200   22.6980   38.7010 N   0  0  0  0  0  0  0  0  0  0  0  0
   38.2970   22.0650   39.1140 H   0  0  0  0  0  0  0  0  0  0  0  0
   39.9840   22.9790   39.0150 H   0  0  0  0  0  0  0  0  0  0  0  0
  1  6  2  0  0  0  0
  1  2  1  0  0  0  0
  2  3  2  0  0  0  0
  3  4  1  0  0  0  0
  3  8  1  0  0  0  0
  4 19  1  0  0  0  0
  5  4  2  0  0  0  0
  6  5  1  0  0  0  0
  7  2  1  0  0  0  0
  9  5  1  0  0  0  0
 10 11  1  0  0  0  0
 10 16  1  0  0  0  0
 11  1  1  0  0  0  0
 12 17  1  0  0  0  0
 12 11  2  0  0  0  0
 13 12  1  0  0  0  0
 14 13  2  0  0  0  0
 14 15  1  0  0  0  0
 15 10  2  0  0  0  0
 18 14  1  0  0  0  0
 19 21  1  0  0  0  0
 19 20  1  0  0  0  0
M  END
>  <minimizedAffinity>
-3.99163818

$$$$

 OpenBabel03272510103D

 21 22  0  0  0  0  0  0  0  0999 V2000
   35.9450   22.1960   31.6090 C   0  0  0  0  0  0  0  0  0  0  0  0
   36.4290   21.2140   30.7540 C   0  0  0  0  0  0  0  0  0  0  0  0
   36.0970   19.8700   30.8610 C   0  0  0  0  0  0  0  0  0  0  0  0
   35.2320   19.4690   31.8730 C   0  0  0  0  0  0  0  0  0  0  0  0
   34.7730   20.4610   32.6990 C   0  0  0  0  0  0  0  0  0  0  0  0
   35.1170   21.7490   32.5650 N   0  0  0  0  0  0  0  0  0  0  0  0
   37.0990   21.4660   29.9570 H   0  0  0  0  0  0  0  0  0  0  0  0
   36.4830   19.1210   30.1870 H   0  0  0  0  0  0  0  0  0  0  0  0
   34.0990   20.2620   33.5150 H   0  0  0  0  0  0  0  0  0  0  0  0
   37.6140   24.0880   31.6250 C   0  0  0  0  0  0  0  0  0  0  0  0
   36.3100   23.5850   31.4720 C   0  0  0  0  0  0  0  0  0  0  0  0
   35.2940   24.4910   31.1680 C   0  0  0  0  0  0  0  0  0  0  0  0
   35.6180   25.8180   31.0330 N   0  0  0  0  0  0  0  0  0  0  0  0
   36.8970   26.2470   31.1920 C   0  0  0  0  0  0  0  0  0  0  0  0
   37.8830   25.3980   31.4840 N   0  0  0  0  0  0  0  0  0  0  0  0
   38.3740   23.3500   31.8620 H   0  0  0  0  0  0  0  0  0  0  0  0
   34.2450   24.2320   31.0240 H   0  0  0  0  0  0  0  0  0  0  0  0
   36.9870   27.3120   31.0550 H   0  0  0  0  0  0  0  0  0  0  0  0
   34.8210   18.1340   32.0830 N   0  0  0  0  0  0  0  0  0  0  0  0
   35.4000   17.5430   32.7220 H   0  0  0  0  0  0  0  0  0  0  0  0
   33.9480   17.9400   31.5290 H   0  0  0  0  0  0  0  0  0  0  0  0
  1  6  1  0  0  0  0
  2  3  1  0  0  0  0
  2  1  2  0  0  0  0
  3  4  2  0  0  0  0
  4 19  1  0  0  0  0
  4  5  1  0  0  0  0
  5  9  1  0  0  0  0
  6  5  2  0  0  0  0
  7  2  1  0  0  0  0
  8  3  1  0  0  0  0
 10 16  1  0  0  0  0
 11  1  1  0  0  0  0
 11 10  2  0  0  0  0
 12 11  1  0  0  0  0
 13 12  2  0  0  0  0
 13 14  1  0  0  0  0
 14 15  2  0  0  0  0
 15 10  1  0  0  0  0
 17 12  1  0  0  0  0
 18 14  1  0  0  0  0
 19 20  1  0  0  0  0
 21 19  1  0  0  0  0
M  END
>  <minimizedAffinity>
-3.93141937

$$$$

 OpenBabel03272510103D

 21 22  0  0  0  0  0  0  0  0999 V2000
   35.0950   30.1300   34.8880 C   0  0  0  0  0  0  0  0  0  0  0  0
   35.9530   31.0240   35.5140 C   0  0  0  0  0  0  0  0  0  0  0  0
   35.5300   31.9910   36.4170 C   0  0  0  0  0  0  0  0  0  0  0  0
   34.1770   32.0820   36.7200 C   0  0  0  0  0  0  0  0  0  0  0  0
   33.3570   31.1870   36.0850 C   0  0  0  0  0  0  0  0  0  0  0  0
   33.8030   30.2660   35.2190 N   0  0  0  0  0  0  0  0  0  0  0  0
   37.0060   31.0000   35.3180 H   0  0  0  0  0  0  0  0  0  0  0  0
   36.2120   32.6780   36.8940 H   0  0  0  0  0  0  0  0  0  0  0  0
   32.2920   31.1680   36.2460 H   0  0  0  0  0  0  0  0  0  0  0  0
   36.5090   28.1380   34.2560 C   0  0  0  0  0  0  0  0  0  0  0  0
   35.5660   29.1360   33.9540 C   0  0  0  0  0  0  0  0  0  0  0  0
   35.0480   29.1710   32.6590 C   0  0  0  0  0  0  0  0  0  0  0  0
   35.4810   28.2360   31.7540 N   0  0  0  0  0  0  0  0  0  0  0  0
   36.3940   27.2930   32.1020 C   0  0  0  0  0  0  0  0  0  0  0  0
   36.9040   27.2420   33.3340 N   0  0  0  0  0  0  0  0  0  0  0  0
   36.8870   28.1460   35.2730 H   0  0  0  0  0  0  0  0  0  0  0  0
   34.3130   29.8910   32.2980 H   0  0  0  0  0  0  0  0  0  0  0  0
   36.6300   26.6350   31.2830 H   0  0  0  0  0  0  0  0  0  0  0  0
   33.6260   33.0220   37.6190 N   0  0  0  0  0  0  0  0  0  0  0  0
   33.3180   33.9430   37.2310 H   0  0  0  0  0  0  0  0  0  0  0  0
   33.6160   32.6200   38.5920 H   0  0  0  0  0  0  0  0  0  0  0  0
  1  6  2  0  0  0  0
  1  2  1  0  0  0  0
  2  3  2  0  0  0  0
  3  4  1  0  0  0  0
  3  8  1  0  0  0  0
  4 19  1  0  0  0  0
  5  9  1  0  0  0  0
  5  4  2  0  0  0  0
  6  5  1  0  0  0  0
  7  2  1  0  0  0  0
 10 16  1  0  0  0  0
 11 10  1  0  0  0  0
 11  1  1  0  0  0  0
 12 11  2  0  0  0  0
 13 14  2  0  0  0  0
 13 12  1  0  0  0  0
 14 15  1  0  0  0  0
 15 10  2  0  0  0  0
 17 12  1  0  0  0  0
 18 14  1  0  0  0  0
 19 21  1  0  0  0  0
 20 19  1  0  0  0  0
M  END
>  <minimizedAffinity>
-3.88543797

$$$$
