
 OpenBabel03262522443D

 29 31  0  0  1  0  0  0  0  0999 V2000
   37.9120   25.4050   35.7540 C   0  0  1  0  0  0  0  0  0  0  0  0
   38.1130   26.7530   36.3210 C   0  0  0  0  0  0  0  0  0  0  0  0
   38.6550   26.5390   34.9940 C   0  0  2  0  0  0  0  0  0  0  0  0
   37.0190   25.0840   35.2110 H   0  0  0  0  0  0  0  0  0  0  0  0
   38.8050   26.7690   37.2250 H   0  0  0  0  0  0  0  0  0  0  0  0
   37.1490   27.2030   36.6010 H   0  0  0  0  0  0  0  0  0  0  0  0
   39.6420   26.0440   34.7670 H   0  0  0  0  0  0  0  0  0  0  0  0
   39.7930   26.2850   32.1000 Cl  0  0  0  0  0  0  0  0  0  0  0  0
   38.4260   27.2910   32.5290 C   0  0  0  0  0  0  0  0  0  0  0  0
   38.0420   27.2030   33.8580 C   0  0  0  0  0  0  0  0  0  0  0  0
   36.9360   27.9170   34.2060 C   0  0  0  0  0  0  0  0  0  0  0  0
   36.2210   28.6980   33.2840 C   0  0  0  0  0  0  0  0  0  0  0  0
   36.6440   28.7580   31.9490 C   0  0  0  0  0  0  0  0  0  0  0  0
   35.8270   29.6700   30.6940 Cl  0  0  0  0  0  0  0  0  0  0  0  0
   37.7690   28.0340   31.5880 C   0  0  0  0  0  0  0  0  0  0  0  0
   36.4820   27.9790   35.1840 H   0  0  0  0  0  0  0  0  0  0  0  0
   35.3410   29.2770   33.5250 H   0  0  0  0  0  0  0  0  0  0  0  0
   38.1880   28.0040   30.5920 H   0  0  0  0  0  0  0  0  0  0  0  0
   38.7060   23.8970   37.6620 C   0  0  0  0  0  0  0  0  0  0  0  0
   38.7520   24.2850   36.2740 C   0  0  0  0  0  0  0  0  0  0  0  0
   39.6250   23.6020   35.4440 C   0  0  0  0  0  0  0  0  0  0  0  0
   40.4020   22.5940   35.9780 N   0  0  0  0  0  0  0  0  0  0  0  0
   40.3280   22.2590   37.2890 C   0  0  0  0  0  0  0  0  0  0  0  0
   39.4880   22.9070   38.1140 N   0  0  0  0  0  0  0  0  0  0  0  0
   38.0000   24.4640   38.2840 H   0  0  0  0  0  0  0  0  0  0  0  0
   39.7080   23.8450   34.3880 H   0  0  0  0  0  0  0  0  0  0  0  0
   41.1410   21.2150   37.8130 N   0  0  0  0  0  0  0  0  0  0  0  0
   41.1380   20.4610   37.0650 H   0  0  0  0  0  0  0  0  0  0  0  0
   41.6320   21.1970   38.7350 H   0  0  0  0  0  0  0  0  0  0  0  0
  1  4  1  6  0  0  0
  1 20  1  0  0  0  0
  1  2  1  0  0  0  0
  2  6  1  0  0  0  0
  2  5  1  0  0  0  0
  3  7  1  6  0  0  0
  3  1  1  0  0  0  0
  3  2  1  0  0  0  0
  8  9  1  0  0  0  0
  9 10  1  0  0  0  0
 10 11  2  0  0  0  0
 10  3  1  0  0  0  0
 11 16  1  0  0  0  0
 12 17  1  0  0  0  0
 12 11  1  0  0  0  0
 13 12  2  0  0  0  0
 14 13  1  0  0  0  0
 15 13  1  0  0  0  0
 15  9  2  0  0  0  0
 18 15  1  0  0  0  0
 19 24  1  0  0  0  0
 19 25  1  0  0  0  0
 20 19  2  0  0  0  0
 21 22  2  0  0  0  0
 21 20  1  0  0  0  0
 22 23  1  0  0  0  0
 23 27  1  0  0  0  0
 23 24  2  0  0  0  0
 26 21  1  0  0  0  0
 27 29  1  0  0  0  0
 28 27  1  0  0  0  0
M  END
>  <minimizedAffinity>
-5.5518837

$$$$

 OpenBabel03262522443D

 29 31  0  0  1  0  0  0  0  0999 V2000
   39.0080   26.2050   34.5960 C   0  0  1  0  0  0  0  0  0  0  0  0
   38.2340   26.3170   35.8470 C   0  0  0  0  0  0  0  0  0  0  0  0
   38.3420   24.9840   35.2900 C   0  0  2  0  0  0  0  0  0  0  0  0
   40.0940   26.0860   34.5440 H   0  0  0  0  0  0  0  0  0  0  0  0
   37.2660   26.9080   35.7330 H   0  0  0  0  0  0  0  0  0  0  0  0
   38.8420   26.7790   36.6390 H   0  0  0  0  0  0  0  0  0  0  0  0
   37.7040   24.5750   34.4540 H   0  0  0  0  0  0  0  0  0  0  0  0
   37.8220   24.1920   38.2620 Cl  0  0  0  0  0  0  0  0  0  0  0  0
   39.1350   23.5550   37.2950 C   0  0  0  0  0  0  0  0  0  0  0  0
   39.1420   23.9870   35.9780 C   0  0  0  0  0  0  0  0  0  0  0  0
   40.1070   23.4520   35.1810 C   0  0  0  0  0  0  0  0  0  0  0  0
   41.0440   22.5200   35.6540 C   0  0  0  0  0  0  0  0  0  0  0  0
   41.0010   22.1090   36.9930 C   0  0  0  0  0  0  0  0  0  0  0  0
   42.0920   20.9330   37.7020 Cl  0  0  0  0  0  0  0  0  0  0  0  0
   40.0210   22.6500   37.8100 C   0  0  0  0  0  0  0  0  0  0  0  0
   40.2760   23.6600   34.1350 H   0  0  0  0  0  0  0  0  0  0  0  0
   41.8230   22.0750   35.0500 H   0  0  0  0  0  0  0  0  0  0  0  0
   39.8910   22.4120   38.8560 H   0  0  0  0  0  0  0  0  0  0  0  0
   37.2350   27.5580   33.3420 C   0  0  0  0  0  0  0  0  0  0  0  0
   38.3790   26.6800   33.3270 C   0  0  0  0  0  0  0  0  0  0  0  0
   38.8570   26.2680   32.0950 C   0  0  0  0  0  0  0  0  0  0  0  0
   38.2230   26.7120   30.9510 N   0  0  0  0  0  0  0  0  0  0  0  0
   37.1500   27.5370   31.0090 C   0  0  0  0  0  0  0  0  0  0  0  0
   36.6680   27.9510   32.1940 N   0  0  0  0  0  0  0  0  0  0  0  0
   36.8890   27.8600   34.3410 H   0  0  0  0  0  0  0  0  0  0  0  0
   39.7150   25.6060   32.0130 H   0  0  0  0  0  0  0  0  0  0  0  0
   36.5160   27.9800   29.8140 N   0  0  0  0  0  0  0  0  0  0  0  0
   37.3100   28.1760   29.1370 H   0  0  0  0  0  0  0  0  0  0  0  0
   35.4910   28.0860   29.6440 H   0  0  0  0  0  0  0  0  0  0  0  0
  1  4  1  1  0  0  0
  1  3  1  0  0  0  0
  1  2  1  0  0  0  0
  2  6  1  0  0  0  0
  3  7  1  6  0  0  0
  3  2  1  0  0  0  0
  3 10  1  0  0  0  0
  5  2  1  0  0  0  0
  9 15  1  0  0  0  0
  9  8  1  0  0  0  0
 10  9  2  0  0  0  0
 11 12  2  0  0  0  0
 11 10  1  0  0  0  0
 12 13  1  0  0  0  0
 13 14  1  0  0  0  0
 13 15  2  0  0  0  0
 15 18  1  0  0  0  0
 16 11  1  0  0  0  0
 17 12  1  0  0  0  0
 19 25  1  0  0  0  0
 20 19  1  0  0  0  0
 20  1  1  0  0  0  0
 21 20  2  0  0  0  0
 22 23  2  0  0  0  0
 22 21  1  0  0  0  0
 23 24  1  0  0  0  0
 24 19  2  0  0  0  0
 26 21  1  0  0  0  0
 27 23  1  0  0  0  0
 28 27  1  0  0  0  0
 29 27  1  0  0  0  0
M  END
>  <minimizedAffinity>
-5.31659746

$$$$

 OpenBabel03262522443D

 29 31  0  0  1  0  0  0  0  0999 V2000
   37.7800   25.2740   34.7090 C   0  0  1  0  0  0  0  0  0  0  0  0
   37.3920   26.5740   35.2890 C   0  0  0  0  0  0  0  0  0  0  0  0
   38.4660   26.6120   34.3170 C   0  0  2  0  0  0  0  0  0  0  0  0
   37.2980   24.8090   33.8450 H   0  0  0  0  0  0  0  0  0  0  0  0
   37.6240   26.6650   36.4010 H   0  0  0  0  0  0  0  0  0  0  0  0
   36.3210   26.7640   35.1320 H   0  0  0  0  0  0  0  0  0  0  0  0
   39.5480   26.3780   34.5350 H   0  0  0  0  0  0  0  0  0  0  0  0
   36.1420   28.6330   33.8210 Cl  0  0  0  0  0  0  0  0  0  0  0  0
   37.2260   28.0610   32.5700 C   0  0  0  0  0  0  0  0  0  0  0  0
   38.2320   27.2210   33.0210 C   0  0  0  0  0  0  0  0  0  0  0  0
   39.1350   26.8180   32.0850 C   0  0  0  0  0  0  0  0  0  0  0  0
   39.0620   27.2240   30.7430 C   0  0  0  0  0  0  0  0  0  0  0  0
   38.0280   28.0750   30.3300 C   0  0  0  0  0  0  0  0  0  0  0  0
   37.8380   28.6760   28.6930 Cl  0  0  0  0  0  0  0  0  0  0  0  0
   37.1050   28.4880   31.2770 C   0  0  0  0  0  0  0  0  0  0  0  0
   39.9840   26.1690   32.2370 H   0  0  0  0  0  0  0  0  0  0  0  0
   39.7600   26.9240   29.9740 H   0  0  0  0  0  0  0  0  0  0  0  0
   36.2670   29.1410   31.0760 H   0  0  0  0  0  0  0  0  0  0  0  0
   39.6790   23.5820   34.9950 C   0  0  0  0  0  0  0  0  0  0  0  0
   38.5790   24.3320   35.5500 C   0  0  0  0  0  0  0  0  0  0  0  0
   38.2690   24.1270   36.8830 C   0  0  0  0  0  0  0  0  0  0  0  0
   39.0180   23.2240   37.6110 N   0  0  0  0  0  0  0  0  0  0  0  0
   40.0450   22.5390   37.0520 C   0  0  0  0  0  0  0  0  0  0  0  0
   40.3650   22.7220   35.7590 N   0  0  0  0  0  0  0  0  0  0  0  0
   39.8900   23.7760   33.9340 H   0  0  0  0  0  0  0  0  0  0  0  0
   37.4510   24.6600   37.3630 H   0  0  0  0  0  0  0  0  0  0  0  0
   40.8010   21.6150   37.8250 N   0  0  0  0  0  0  0  0  0  0  0  0
   40.9170   22.0790   38.7730 H   0  0  0  0  0  0  0  0  0  0  0  0
   41.1610   20.6830   37.5230 H   0  0  0  0  0  0  0  0  0  0  0  0
  1  4  1  6  0  0  0
  1  2  1  0  0  0  0
  1 20  1  0  0  0  0
  2  5  1  0  0  0  0
  3  7  1  1  0  0  0
  3  1  1  0  0  0  0
  3  2  1  0  0  0  0
  6  2  1  0  0  0  0
  9 10  1  0  0  0  0
  9  8  1  0  0  0  0
 10  3  1  0  0  0  0
 11 16  1  0  0  0  0
 11 10  2  0  0  0  0
 12 11  1  0  0  0  0
 13 12  2  0  0  0  0
 13 15  1  0  0  0  0
 14 13  1  0  0  0  0
 15  9  2  0  0  0  0
 17 12  1  0  0  0  0
 18 15  1  0  0  0  0
 19 20  2  0  0  0  0
 19 24  1  0  0  0  0
 20 21  1  0  0  0  0
 21 26  1  0  0  0  0
 21 22  2  0  0  0  0
 23 22  1  0  0  0  0
 23 27  1  0  0  0  0
 24 23  2  0  0  0  0
 25 19  1  0  0  0  0
 27 28  1  0  0  0  0
 29 27  1  0  0  0  0
M  END
>  <minimizedAffinity>
-5.19789743

$$$$

 OpenBabel03262522443D

 29 31  0  0  1  0  0  0  0  0999 V2000
   38.7480   26.8450   34.5560 C   0  0  1  0  0  0  0  0  0  0  0  0
   39.0000   26.7640   33.1040 C   0  0  0  0  0  0  0  0  0  0  0  0
   37.6060   26.7760   33.5030 C   0  0  2  0  0  0  0  0  0  0  0  0
   38.7010   27.7750   35.1280 H   0  0  0  0  0  0  0  0  0  0  0  0
   39.4930   25.7890   32.7800 H   0  0  0  0  0  0  0  0  0  0  0  0
   39.6220   27.6070   32.7710 H   0  0  0  0  0  0  0  0  0  0  0  0
   37.0270   25.8790   33.8650 H   0  0  0  0  0  0  0  0  0  0  0  0
   37.1290   27.7780   30.5870 Cl  0  0  0  0  0  0  0  0  0  0  0  0
   36.5230   28.5920   32.0140 C   0  0  0  0  0  0  0  0  0  0  0  0
   36.7910   27.9390   33.2070 C   0  0  0  0  0  0  0  0  0  0  0  0
   36.2690   28.5090   34.3280 C   0  0  0  0  0  0  0  0  0  0  0  0
   35.5050   29.6860   34.2890 C   0  0  0  0  0  0  0  0  0  0  0  0
   35.2570   30.3140   33.0610 C   0  0  0  0  0  0  0  0  0  0  0  0
   34.2980   31.7700   32.8720 Cl  0  0  0  0  0  0  0  0  0  0  0  0
   35.7860   29.7400   31.9170 C   0  0  0  0  0  0  0  0  0  0  0  0
   36.3660   28.1550   35.3430 H   0  0  0  0  0  0  0  0  0  0  0  0
   35.0760   30.1660   35.1580 H   0  0  0  0  0  0  0  0  0  0  0  0
   35.6630   30.1330   30.9170 H   0  0  0  0  0  0  0  0  0  0  0  0
   38.1070   25.3010   36.4930 C   0  0  0  0  0  0  0  0  0  0  0  0
   38.9720   25.6220   35.3840 C   0  0  0  0  0  0  0  0  0  0  0  0
   40.0350   24.7730   35.1300 C   0  0  0  0  0  0  0  0  0  0  0  0
   40.2170   23.6720   35.9430 N   0  0  0  0  0  0  0  0  0  0  0  0
   39.3810   23.4050   36.9750 C   0  0  0  0  0  0  0  0  0  0  0  0
   38.3410   24.2150   37.2400 N   0  0  0  0  0  0  0  0  0  0  0  0
   37.2770   26.0010   36.6580 H   0  0  0  0  0  0  0  0  0  0  0  0
   40.7240   24.9580   34.3100 H   0  0  0  0  0  0  0  0  0  0  0  0
   39.5920   22.2620   37.7960 N   0  0  0  0  0  0  0  0  0  0  0  0
   39.8820   21.4910   37.1260 H   0  0  0  0  0  0  0  0  0  0  0  0
   39.4840   22.1990   38.8330 H   0  0  0  0  0  0  0  0  0  0  0  0
  1  4  1  1  0  0  0
  1 20  1  0  0  0  0
  2  3  1  0  0  0  0
  2  1  1  0  0  0  0
  3  7  1  6  0  0  0
  3  1  1  0  0  0  0
  5  2  1  0  0  0  0
  6  2  1  0  0  0  0
  8  9  1  0  0  0  0
  9 10  1  0  0  0  0
 10  3  1  0  0  0  0
 10 11  2  0  0  0  0
 11 16  1  0  0  0  0
 12 11  1  0  0  0  0
 12 17  1  0  0  0  0
 13 12  2  0  0  0  0
 14 13  1  0  0  0  0
 15  9  2  0  0  0  0
 15 13  1  0  0  0  0
 18 15  1  0  0  0  0
 19 25  1  0  0  0  0
 19 24  1  0  0  0  0
 20 19  2  0  0  0  0
 21 20  1  0  0  0  0
 21 22  2  0  0  0  0
 22 23  1  0  0  0  0
 23 24  2  0  0  0  0
 23 27  1  0  0  0  0
 26 21  1  0  0  0  0
 27 29  1  0  0  0  0
 28 27  1  0  0  0  0
M  END
>  <minimizedAffinity>
-5.09381294

$$$$

 OpenBabel03262522443D

 29 31  0  0  1  0  0  0  0  0999 V2000
   38.6780   26.7800   34.5270 C   0  0  1  0  0  0  0  0  0  0  0  0
   38.7930   26.5890   33.0680 C   0  0  0  0  0  0  0  0  0  0  0  0
   37.4430   26.6910   33.5870 C   0  0  2  0  0  0  0  0  0  0  0  0
   38.7200   27.7480   35.0340 H   0  0  0  0  0  0  0  0  0  0  0  0
   39.2160   25.5730   32.7730 H   0  0  0  0  0  0  0  0  0  0  0  0
   39.4150   27.3780   32.6220 H   0  0  0  0  0  0  0  0  0  0  0  0
   36.8640   25.8480   34.0620 H   0  0  0  0  0  0  0  0  0  0  0  0
   36.7480   27.5180   30.6600 Cl  0  0  0  0  0  0  0  0  0  0  0  0
   36.3030   28.4510   32.0730 C   0  0  0  0  0  0  0  0  0  0  0  0
   36.6500   27.8670   33.2820 C   0  0  0  0  0  0  0  0  0  0  0  0
   36.2520   28.5330   34.4000 C   0  0  0  0  0  0  0  0  0  0  0  0
   35.5340   29.7380   34.3460 C   0  0  0  0  0  0  0  0  0  0  0  0
   35.2030   30.2940   33.1030 C   0  0  0  0  0  0  0  0  0  0  0  0
   34.2880   31.7750   32.8950 Cl  0  0  0  0  0  0  0  0  0  0  0  0
   35.6050   29.6220   31.9600 C   0  0  0  0  0  0  0  0  0  0  0  0
   36.4250   28.2430   35.4260 H   0  0  0  0  0  0  0  0  0  0  0  0
   35.2030   30.2930   35.2130 H   0  0  0  0  0  0  0  0  0  0  0  0
   35.4090   29.9530   30.9500 H   0  0  0  0  0  0  0  0  0  0  0  0
   40.0260   24.7040   35.1760 C   0  0  0  0  0  0  0  0  0  0  0  0
   38.9280   25.6070   35.4180 C   0  0  0  0  0  0  0  0  0  0  0  0
   38.0940   25.3330   36.4880 C   0  0  0  0  0  0  0  0  0  0  0  0
   38.3490   24.2200   37.2650 N   0  0  0  0  0  0  0  0  0  0  0  0
   39.3930   23.3960   37.0040 C   0  0  0  0  0  0  0  0  0  0  0  0
   40.2160   23.6420   35.9700 N   0  0  0  0  0  0  0  0  0  0  0  0
   40.6620   24.9590   34.3170 H   0  0  0  0  0  0  0  0  0  0  0  0
   37.2480   25.9730   36.7250 H   0  0  0  0  0  0  0  0  0  0  0  0
   39.6330   22.2560   37.8210 N   0  0  0  0  0  0  0  0  0  0  0  0
   39.4400   22.5830   38.8130 H   0  0  0  0  0  0  0  0  0  0  0  0
   39.9330   21.3060   37.5080 H   0  0  0  0  0  0  0  0  0  0  0  0
  1  4  1  1  0  0  0
  1 20  1  0  0  0  0
  2  3  1  0  0  0  0
  2  1  1  0  0  0  0
  3  7  1  1  0  0  0
  3  1  1  0  0  0  0
  5  2  1  0  0  0  0
  6  2  1  0  0  0  0
  8  9  1  0  0  0  0
  9 10  1  0  0  0  0
 10  3  1  0  0  0  0
 10 11  2  0  0  0  0
 11 16  1  0  0  0  0
 12 11  1  0  0  0  0
 12 17  1  0  0  0  0
 13 12  2  0  0  0  0
 14 13  1  0  0  0  0
 15  9  2  0  0  0  0
 15 13  1  0  0  0  0
 18 15  1  0  0  0  0
 19 20  2  0  0  0  0
 19 24  1  0  0  0  0
 20 21  1  0  0  0  0
 21 26  1  0  0  0  0
 21 22  2  0  0  0  0
 23 22  1  0  0  0  0
 23 27  1  0  0  0  0
 24 23  2  0  0  0  0
 25 19  1  0  0  0  0
 27 28  1  0  0  0  0
 29 27  1  0  0  0  0
M  END
>  <minimizedAffinity>
-5.05606174

$$$$

 OpenBabel03262522443D

 29 31  0  0  1  0  0  0  0  0999 V2000
   39.2510   25.7270   34.2690 C   0  0  1  0  0  0  0  0  0  0  0  0
   39.3820   25.0540   32.9620 C   0  0  0  0  0  0  0  0  0  0  0  0
   38.1150   25.7110   33.2090 C   0  0  2  0  0  0  0  0  0  0  0  0
   39.5820   26.7480   34.4790 H   0  0  0  0  0  0  0  0  0  0  0  0
   39.4630   23.9200   33.0390 H   0  0  0  0  0  0  0  0  0  0  0  0
   40.2560   25.4370   32.4150 H   0  0  0  0  0  0  0  0  0  0  0  0
   37.2620   25.2770   33.8050 H   0  0  0  0  0  0  0  0  0  0  0  0
   36.4110   28.0190   34.4360 Cl  0  0  0  0  0  0  0  0  0  0  0  0
   36.9750   27.9930   32.7790 C   0  0  0  0  0  0  0  0  0  0  0  0
   37.7750   26.9070   32.4590 C   0  0  0  0  0  0  0  0  0  0  0  0
   38.2890   26.8960   31.1990 C   0  0  0  0  0  0  0  0  0  0  0  0
   38.0310   27.9170   30.2710 C   0  0  0  0  0  0  0  0  0  0  0  0
   37.2170   28.9990   30.6350 C   0  0  0  0  0  0  0  0  0  0  0  0
   36.8390   30.3500   29.5830 Cl  0  0  0  0  0  0  0  0  0  0  0  0
   36.6900   29.0150   31.9160 C   0  0  0  0  0  0  0  0  0  0  0  0
   38.9300   26.1440   30.7640 H   0  0  0  0  0  0  0  0  0  0  0  0
   38.4220   27.9410   29.2630 H   0  0  0  0  0  0  0  0  0  0  0  0
   36.0500   29.7930   32.3080 H   0  0  0  0  0  0  0  0  0  0  0  0
   38.1100   25.2660   36.5120 C   0  0  0  0  0  0  0  0  0  0  0  0
   39.0460   24.8830   35.4840 C   0  0  0  0  0  0  0  0  0  0  0  0
   39.7720   23.7200   35.6760 C   0  0  0  0  0  0  0  0  0  0  0  0
   39.5680   22.9900   36.8300 N   0  0  0  0  0  0  0  0  0  0  0  0
   38.6770   23.3840   37.7720 C   0  0  0  0  0  0  0  0  0  0  0  0
   37.9610   24.5100   37.6070 N   0  0  0  0  0  0  0  0  0  0  0  0
   37.5560   26.1950   36.3180 H   0  0  0  0  0  0  0  0  0  0  0  0
   40.4940   23.3750   34.9410 H   0  0  0  0  0  0  0  0  0  0  0  0
   38.4860   22.6120   38.9520 N   0  0  0  0  0  0  0  0  0  0  0  0
   38.5130   21.6010   38.6270 H   0  0  0  0  0  0  0  0  0  0  0  0
   38.3500   22.9660   39.9250 H   0  0  0  0  0  0  0  0  0  0  0  0
  1  4  1  1  0  0  0
  1 20  1  0  0  0  0
  2  5  1  0  0  0  0
  2  3  1  0  0  0  0
  2  1  1  0  0  0  0
  3  7  1  1  0  0  0
  3  1  1  0  0  0  0
  6  2  1  0  0  0  0
  9  8  1  0  0  0  0
 10  9  1  0  0  0  0
 10  3  1  0  0  0  0
 11 10  2  0  0  0  0
 12 13  2  0  0  0  0
 12 11  1  0  0  0  0
 13 15  1  0  0  0  0
 14 13  1  0  0  0  0
 15 18  1  0  0  0  0
 15  9  2  0  0  0  0
 16 11  1  0  0  0  0
 17 12  1  0  0  0  0
 19 24  1  0  0  0  0
 20 21  1  0  0  0  0
 20 19  2  0  0  0  0
 21 22  2  0  0  0  0
 22 23  1  0  0  0  0
 23 27  1  0  0  0  0
 24 23  2  0  0  0  0
 25 19  1  0  0  0  0
 26 21  1  0  0  0  0
 27 29  1  0  0  0  0
 28 27  1  0  0  0  0
M  END
>  <minimizedAffinity>
-5.03198051

$$$$

 OpenBabel03262522443D

 29 31  0  0  1  0  0  0  0  0999 V2000
   37.5920   25.5470   34.0660 C   0  0  1  0  0  0  0  0  0  0  0  0
   37.0970   26.8710   34.4900 C   0  0  0  0  0  0  0  0  0  0  0  0
   38.3210   26.8740   33.7140 C   0  0  2  0  0  0  0  0  0  0  0  0
   37.2700   25.0220   33.1630 H   0  0  0  0  0  0  0  0  0  0  0  0
   37.1340   27.0330   35.6170 H   0  0  0  0  0  0  0  0  0  0  0  0
   36.0660   27.0290   34.1410 H   0  0  0  0  0  0  0  0  0  0  0  0
   39.3520   26.6760   34.1250 H   0  0  0  0  0  0  0  0  0  0  0  0
   40.4940   26.1160   31.6070 Cl  0  0  0  0  0  0  0  0  0  0  0  0
   39.2020   27.2610   31.3130 C   0  0  0  0  0  0  0  0  0  0  0  0
   38.3050   27.3990   32.3610 C   0  0  0  0  0  0  0  0  0  0  0  0
   37.2490   28.2260   32.1340 C   0  0  0  0  0  0  0  0  0  0  0  0
   37.0680   28.9040   30.9190 C   0  0  0  0  0  0  0  0  0  0  0  0
   37.9990   28.7360   29.8840 C   0  0  0  0  0  0  0  0  0  0  0  0
   37.8770   29.5010   28.3110 Cl  0  0  0  0  0  0  0  0  0  0  0  0
   39.0770   27.8960   30.1080 C   0  0  0  0  0  0  0  0  0  0  0  0
   36.4480   28.4630   32.8200 H   0  0  0  0  0  0  0  0  0  0  0  0
   36.2420   29.5680   30.7040 H   0  0  0  0  0  0  0  0  0  0  0  0
   39.8570   27.6900   29.3880 H   0  0  0  0  0  0  0  0  0  0  0  0
   37.8870   24.7560   36.4810 C   0  0  0  0  0  0  0  0  0  0  0  0
   38.2460   24.6740   35.0870 C   0  0  0  0  0  0  0  0  0  0  0  0
   39.2380   23.7780   34.7300 C   0  0  0  0  0  0  0  0  0  0  0  0
   39.8330   23.0140   35.7140 N   0  0  0  0  0  0  0  0  0  0  0  0
   39.4670   23.1210   37.0140 C   0  0  0  0  0  0  0  0  0  0  0  0
   38.5050   23.9840   37.3850 N   0  0  0  0  0  0  0  0  0  0  0  0
   37.0950   25.4800   36.7200 H   0  0  0  0  0  0  0  0  0  0  0  0
   39.5560   23.6670   33.6960 H   0  0  0  0  0  0  0  0  0  0  0  0
   40.0960   22.3210   38.0080 N   0  0  0  0  0  0  0  0  0  0  0  0
   40.2130   21.3650   37.5590 H   0  0  0  0  0  0  0  0  0  0  0  0
   40.3800   22.6140   38.9700 H   0  0  0  0  0  0  0  0  0  0  0  0
  1  4  1  6  0  0  0
  1  2  1  0  0  0  0
  1 20  1  0  0  0  0
  2  5  1  0  0  0  0
  3  1  1  0  0  0  0
  3  7  1  1  0  0  0
  3  2  1  0  0  0  0
  6  2  1  0  0  0  0
  9  8  1  0  0  0  0
  9 10  1  0  0  0  0
 10  3  1  0  0  0  0
 11 10  2  0  0  0  0
 11 16  1  0  0  0  0
 12 11  1  0  0  0  0
 13 15  1  0  0  0  0
 13 12  2  0  0  0  0
 14 13  1  0  0  0  0
 15  9  2  0  0  0  0
 17 12  1  0  0  0  0
 18 15  1  0  0  0  0
 19 25  1  0  0  0  0
 19 24  1  0  0  0  0
 20 19  2  0  0  0  0
 21 20  1  0  0  0  0
 21 22  2  0  0  0  0
 22 23  1  0  0  0  0
 23 24  2  0  0  0  0
 23 27  1  0  0  0  0
 26 21  1  0  0  0  0
 27 29  1  0  0  0  0
 28 27  1  0  0  0  0
M  END
>  <minimizedAffinity>
-4.92373562

$$$$

 OpenBabel03262522443D

 29 31  0  0  1  0  0  0  0  0999 V2000
   34.8250   30.2830   33.0000 C   0  0  1  0  0  0  0  0  0  0  0  0
   34.6840   29.4360   34.2000 C   0  0  0  0  0  0  0  0  0  0  0  0
   35.6250   30.5320   34.3100 C   0  0  2  0  0  0  0  0  0  0  0  0
   34.1840   31.1360   32.7610 H   0  0  0  0  0  0  0  0  0  0  0  0
   35.0610   28.3710   34.0540 H   0  0  0  0  0  0  0  0  0  0  0  0
   33.6340   29.4010   34.5280 H   0  0  0  0  0  0  0  0  0  0  0  0
   36.6860   30.5190   33.9270 H   0  0  0  0  0  0  0  0  0  0  0  0
   36.8290   33.3730   33.8500 Cl  0  0  0  0  0  0  0  0  0  0  0  0
   35.7940   32.9560   35.1980 C   0  0  0  0  0  0  0  0  0  0  0  0
   35.3130   31.6560   35.1740 C   0  0  0  0  0  0  0  0  0  0  0  0
   34.4460   31.3230   36.1690 C   0  0  0  0  0  0  0  0  0  0  0  0
   34.0570   32.2320   37.1650 C   0  0  0  0  0  0  0  0  0  0  0  0
   34.5670   33.5370   37.1530 C   0  0  0  0  0  0  0  0  0  0  0  0
   34.1410   34.7760   38.3200 Cl  0  0  0  0  0  0  0  0  0  0  0  0
   35.4500   33.8830   36.1430 C   0  0  0  0  0  0  0  0  0  0  0  0
   33.9660   30.3670   36.3220 H   0  0  0  0  0  0  0  0  0  0  0  0
   33.3720   32.0020   37.9700 H   0  0  0  0  0  0  0  0  0  0  0  0
   35.9080   34.8560   36.0310 H   0  0  0  0  0  0  0  0  0  0  0  0
   36.1480   30.6210   30.8360 C   0  0  0  0  0  0  0  0  0  0  0  0
   35.5940   29.7440   31.8380 C   0  0  0  0  0  0  0  0  0  0  0  0
   35.7720   28.3820   31.6700 C   0  0  0  0  0  0  0  0  0  0  0  0
   36.4640   27.9310   30.5640 N   0  0  0  0  0  0  0  0  0  0  0  0
   36.9700   28.7880   29.6450 C   0  0  0  0  0  0  0  0  0  0  0  0
   36.8100   30.1160   29.7870 N   0  0  0  0  0  0  0  0  0  0  0  0
   35.9830   31.6930   31.0080 H   0  0  0  0  0  0  0  0  0  0  0  0
   35.3790   27.6670   32.3890 H   0  0  0  0  0  0  0  0  0  0  0  0
   37.6800   28.2960   28.5140 N   0  0  0  0  0  0  0  0  0  0  0  0
   38.2710   27.4960   28.8860 H   0  0  0  0  0  0  0  0  0  0  0  0
   37.6270   28.6480   27.5320 H   0  0  0  0  0  0  0  0  0  0  0  0
  1  4  1  6  0  0  0
  1  2  1  0  0  0  0
  1  3  1  0  0  0  0
  2  3  1  0  0  0  0
  2  6  1  0  0  0  0
  3  7  1  6  0  0  0
  3 10  1  0  0  0  0
  5  2  1  0  0  0  0
  8  9  1  0  0  0  0
  9 15  1  0  0  0  0
 10  9  2  0  0  0  0
 10 11  1  0  0  0  0
 11 16  1  0  0  0  0
 11 12  2  0  0  0  0
 12 17  1  0  0  0  0
 13 12  1  0  0  0  0
 13 14  1  0  0  0  0
 15 13  2  0  0  0  0
 18 15  1  0  0  0  0
 19 25  1  0  0  0  0
 19 20  1  0  0  0  0
 20  1  1  0  0  0  0
 21 20  2  0  0  0  0
 21 26  1  0  0  0  0
 22 21  1  0  0  0  0
 23 24  1  0  0  0  0
 23 22  2  0  0  0  0
 24 19  2  0  0  0  0
 27 28  1  0  0  0  0
 27 23  1  0  0  0  0
 29 27  1  0  0  0  0
M  END
>  <minimizedAffinity>
-4.91617489

$$$$

 OpenBabel03262522443D

 29 31  0  0  1  0  0  0  0  0999 V2000
   38.9400   25.8520   34.0120 C   0  0  1  0  0  0  0  0  0  0  0  0
   38.7270   25.1450   32.7340 C   0  0  0  0  0  0  0  0  0  0  0  0
   37.6290   25.9760   33.1870 C   0  0  2  0  0  0  0  0  0  0  0  0
   39.4370   26.8200   34.1120 H   0  0  0  0  0  0  0  0  0  0  0  0
   38.6690   24.0120   32.8430 H   0  0  0  0  0  0  0  0  0  0  0  0
   39.5210   25.3940   32.0160 H   0  0  0  0  0  0  0  0  0  0  0  0
   36.8570   25.6730   33.9510 H   0  0  0  0  0  0  0  0  0  0  0  0
   38.7400   26.5540   30.3300 Cl  0  0  0  0  0  0  0  0  0  0  0  0
   37.7590   27.6790   31.2450 C   0  0  0  0  0  0  0  0  0  0  0  0
   37.3130   27.1940   32.4650 C   0  0  0  0  0  0  0  0  0  0  0  0
   36.4870   28.0180   33.1660 C   0  0  0  0  0  0  0  0  0  0  0  0
   36.1040   29.2830   32.6940 C   0  0  0  0  0  0  0  0  0  0  0  0
   36.5780   29.7350   31.4550 C   0  0  0  0  0  0  0  0  0  0  0  0
   36.1550   31.2790   30.7390 Cl  0  0  0  0  0  0  0  0  0  0  0  0
   37.4190   28.9020   30.7350 C   0  0  0  0  0  0  0  0  0  0  0  0
   36.0380   27.8230   34.1290 H   0  0  0  0  0  0  0  0  0  0  0  0
   35.4510   29.9630   33.2240 H   0  0  0  0  0  0  0  0  0  0  0  0
   37.8470   29.1420   29.7720 H   0  0  0  0  0  0  0  0  0  0  0  0
   39.4760   23.7640   35.3910 C   0  0  0  0  0  0  0  0  0  0  0  0
   38.8630   25.0640   35.2790 C   0  0  0  0  0  0  0  0  0  0  0  0
   38.1740   25.5470   36.3780 C   0  0  0  0  0  0  0  0  0  0  0  0
   38.1050   24.7700   37.5170 N   0  0  0  0  0  0  0  0  0  0  0  0
   38.6960   23.5520   37.5820 C   0  0  0  0  0  0  0  0  0  0  0  0
   39.3720   23.0630   36.5280 N   0  0  0  0  0  0  0  0  0  0  0  0
   40.0130   23.4210   34.4960 H   0  0  0  0  0  0  0  0  0  0  0  0
   37.6880   26.5200   36.3600 H   0  0  0  0  0  0  0  0  0  0  0  0
   38.6110   22.7720   38.7690 N   0  0  0  0  0  0  0  0  0  0  0  0
   38.7220   23.4670   39.5640 H   0  0  0  0  0  0  0  0  0  0  0  0
   38.4690   21.7400   38.8380 H   0  0  0  0  0  0  0  0  0  0  0  0
  1  4  1  6  0  0  0
  1 20  1  0  0  0  0
  2  5  1  0  0  0  0
  2  3  1  0  0  0  0
  2  1  1  0  0  0  0
  3  7  1  1  0  0  0
  3  1  1  0  0  0  0
  6  2  1  0  0  0  0
  8  9  1  0  0  0  0
  9 10  1  0  0  0  0
 10 11  2  0  0  0  0
 10  3  1  0  0  0  0
 11 16  1  0  0  0  0
 12 11  1  0  0  0  0
 12 17  1  0  0  0  0
 13 12  2  0  0  0  0
 14 13  1  0  0  0  0
 15  9  2  0  0  0  0
 15 13  1  0  0  0  0
 18 15  1  0  0  0  0
 19 24  1  0  0  0  0
 20 19  2  0  0  0  0
 20 21  1  0  0  0  0
 21 22  2  0  0  0  0
 22 23  1  0  0  0  0
 23 27  1  0  0  0  0
 24 23  2  0  0  0  0
 25 19  1  0  0  0  0
 26 21  1  0  0  0  0
 27 29  1  0  0  0  0
 27 28  1  0  0  0  0
M  END
>  <minimizedAffinity>
-4.85707855

$$$$
