
 OpenBabel03262522433D

 29 31  0  0  1  0  0  0  0  0999 V2000
   37.7260   31.5040   45.9490 C   0  0  1  0  0  0  0  0  0  0  0  0
   36.3020   31.1210   45.9050 C   0  0  0  0  0  0  0  0  0  0  0  0
   37.1860   30.1890   46.5770 C   0  0  2  0  0  0  0  0  0  0  0  0
   38.1740   32.1500   46.7090 H   0  0  0  0  0  0  0  0  0  0  0  0
   35.9230   30.8930   44.8550 H   0  0  0  0  0  0  0  0  0  0  0  0
   35.6750   31.9080   46.3480 H   0  0  0  0  0  0  0  0  0  0  0  0
   37.8290   29.4190   46.0630 H   0  0  0  0  0  0  0  0  0  0  0  0
   34.8250   28.6710   47.9370 Cl  0  0  0  0  0  0  0  0  0  0  0  0
   36.1060   29.4770   48.8160 C   0  0  0  0  0  0  0  0  0  0  0  0
   37.0940   30.0310   48.0160 C   0  0  0  0  0  0  0  0  0  0  0  0
   38.1410   30.6010   48.6720 C   0  0  0  0  0  0  0  0  0  0  0  0
   38.2270   30.6320   50.0730 C   0  0  0  0  0  0  0  0  0  0  0  0
   37.2070   30.0590   50.8450 C   0  0  0  0  0  0  0  0  0  0  0  0
   37.2050   30.0070   52.5980 Cl  0  0  0  0  0  0  0  0  0  0  0  0
   36.1370   29.4780   50.1840 C   0  0  0  0  0  0  0  0  0  0  0  0
   39.0020   31.0810   48.2300 H   0  0  0  0  0  0  0  0  0  0  0  0
   39.0430   31.0760   50.6260 H   0  0  0  0  0  0  0  0  0  0  0  0
   35.2940   29.0090   50.6710 H   0  0  0  0  0  0  0  0  0  0  0  0
   37.9300   31.4920   43.3980 C   0  0  0  0  0  0  0  0  0  0  0  0
   38.5360   31.3680   44.7010 C   0  0  0  0  0  0  0  0  0  0  0  0
   39.8910   31.0900   44.7560 C   0  0  0  0  0  0  0  0  0  0  0  0
   40.5910   30.9440   43.5750 N   0  0  0  0  0  0  0  0  0  0  0  0
   39.9840   31.0680   42.3700 C   0  0  0  0  0  0  0  0  0  0  0  0
   38.6690   31.3390   42.2910 N   0  0  0  0  0  0  0  0  0  0  0  0
   36.8540   31.7130   43.4010 H   0  0  0  0  0  0  0  0  0  0  0  0
   40.4090   30.9830   45.7060 H   0  0  0  0  0  0  0  0  0  0  0  0
   40.7290   30.9140   41.1680 N   0  0  0  0  0  0  0  0  0  0  0  0
   41.6570   31.3950   41.3550 H   0  0  0  0  0  0  0  0  0  0  0  0
   40.4260   30.4300   40.2940 H   0  0  0  0  0  0  0  0  0  0  0  0
  1  3  1  0  0  0  0
  1  4  1  1  0  0  0
  2  1  1  0  0  0  0
  2  6  1  0  0  0  0
  2  3  1  0  0  0  0
  3  7  1  6  0  0  0
  3 10  1  0  0  0  0
  5  2  1  0  0  0  0
  8  9  1  0  0  0  0
  9 15  1  0  0  0  0
 10 11  1  0  0  0  0
 10  9  2  0  0  0  0
 11 12  2  0  0  0  0
 12 17  1  0  0  0  0
 12 13  1  0  0  0  0
 13 14  1  0  0  0  0
 15 18  1  0  0  0  0
 15 13  2  0  0  0  0
 16 11  1  0  0  0  0
 19 25  1  0  0  0  0
 19 20  1  0  0  0  0
 20 21  2  0  0  0  0
 20  1  1  0  0  0  0
 21 26  1  0  0  0  0
 22 21  1  0  0  0  0
 23 22  2  0  0  0  0
 24 23  1  0  0  0  0
 24 19  2  0  0  0  0
 27 28  1  0  0  0  0
 27 23  1  0  0  0  0
 29 27  1  0  0  0  0
M  END
>  <minimizedAffinity>
-4.44394875

>  <minimizedRMSD>
1.2782439

$$$$
