
 OpenBabel03262522553D

 26 27  0  0  0  0  0  0  0  0999 V2000
   37.2360   29.5890   51.4230 C   0  0  0  0  0  0  0  0  0  0  0  0
   37.9730   30.1360   50.3700 C   0  0  0  0  0  0  0  0  0  0  0  0
   37.3700   30.5610   49.1890 C   0  0  0  0  0  0  0  0  0  0  0  0
   36.0220   30.4070   49.1330 N   0  0  0  0  0  0  0  0  0  0  0  0
   35.3290   29.8780   50.1580 C   0  0  0  0  0  0  0  0  0  0  0  0
   35.9200   29.4790   51.2730 N   0  0  0  0  0  0  0  0  0  0  0  0
   33.6010   28.5910   49.1760 C   0  0  0  0  0  0  0  0  0  0  0  0
   34.3700   27.6010   48.8910 O   0  0  0  0  0  0  0  0  0  0  0  0
   33.9200   29.8340   49.8220 N   0  0  0  0  0  0  0  0  0  0  0  0
   37.7060   29.2620   52.3360 H   0  0  0  0  0  0  0  0  0  0  0  0
   39.0410   30.2280   50.4890 H   0  0  0  0  0  0  0  0  0  0  0  0
   32.5560   28.4310   48.8670 H   0  0  0  0  0  0  0  0  0  0  0  0
   33.2280   30.5950   50.0180 H   0  0  0  0  0  0  0  0  0  0  0  0
   38.4690   33.2340   49.7870 Cl  0  0  0  0  0  0  0  0  0  0  0  0
   38.6800   32.3770   48.2770 C   0  0  0  0  0  0  0  0  0  0  0  0
   38.1370   31.1370   48.0810 C   0  0  0  0  0  0  0  0  0  0  0  0
   38.3410   30.5210   46.8720 C   0  0  0  0  0  0  0  0  0  0  0  0
   39.0750   31.1150   45.8620 C   0  0  0  0  0  0  0  0  0  0  0  0
   39.6160   32.3820   46.0960 C   0  0  0  0  0  0  0  0  0  0  0  0
   40.5290   33.0750   44.7850 Cl  0  0  0  0  0  0  0  0  0  0  0  0
   39.4230   33.0170   47.3010 C   0  0  0  0  0  0  0  0  0  0  0  0
   37.9040   29.5360   46.7270 H   0  0  0  0  0  0  0  0  0  0  0  0
   39.2120   30.5920   44.9220 H   0  0  0  0  0  0  0  0  0  0  0  0
   39.9900   34.3100   47.5060 N   0  0  0  0  0  0  0  0  0  0  0  0
   40.7840   34.7860   46.9930 H   0  0  0  0  0  0  0  0  0  0  0  0
   39.3800   34.6110   48.2990 H   0  0  0  0  0  0  0  0  0  0  0  0
  1 10  1  0  0  0  0
  2 11  1  0  0  0  0
  2  1  2  0  0  0  0
  3  2  1  0  0  0  0
  4  3  2  0  0  0  0
  4  5  1  0  0  0  0
  5  6  2  0  0  0  0
  6  1  1  0  0  0  0
  7  9  1  0  0  0  0
  8  7  2  0  0  0  0
  9 13  1  0  0  0  0
  9  5  1  0  0  0  0
 12  7  1  0  0  0  0
 15 14  1  0  0  0  0
 16 15  1  0  0  0  0
 16  3  1  0  0  0  0
 17 16  2  0  0  0  0
 18 19  2  0  0  0  0
 18 17  1  0  0  0  0
 19 21  1  0  0  0  0
 20 19  1  0  0  0  0
 21 24  1  0  0  0  0
 21 15  2  0  0  0  0
 22 17  1  0  0  0  0
 23 18  1  0  0  0  0
 24 26  1  0  0  0  0
 25 24  1  0  0  0  0
M  END
>  <minimizedAffinity>
-7.04618502

>  <minimizedRMSD>
0.157320127

$$$$
