
 OpenBabel03262520223D

 26 27  0  0  0  0  0  0  0  0999 V2000
   34.8010   30.1040   47.3300 C   0  0  0  0  0  0  0  0  0  0  0  0
   36.0720   30.4650   46.7790 C   0  0  0  0  0  0  0  0  0  0  0  0
   36.2260   30.3250   45.4270 C   0  0  0  0  0  0  0  0  0  0  0  0
   35.1560   29.8530   44.7160 N   0  0  0  0  0  0  0  0  0  0  0  0
   33.9710   29.5190   45.2420 C   0  0  0  0  0  0  0  0  0  0  0  0
   33.8200   29.6550   46.5650 N   0  0  0  0  0  0  0  0  0  0  0  0
   32.9920   29.0700   44.3450 N   0  0  0  0  0  0  0  0  0  0  0  0
   34.5440   30.1630   48.3670 H   0  0  0  0  0  0  0  0  0  0  0  0
   32.7940   28.1110   43.9890 H   0  0  0  0  0  0  0  0  0  0  0  0
   32.4730   29.9540   44.0940 H   0  0  0  0  0  0  0  0  0  0  0  0
   36.9580   30.9530   47.8270 C   0  0  0  0  0  0  0  0  0  0  0  0
   37.2220   30.1330   48.9450 C   0  0  0  0  0  0  0  0  0  0  0  0
   37.9960   30.4600   50.0060 C   0  0  0  0  0  0  0  0  0  0  0  0
   38.6000   31.6600   50.0640 C   0  0  0  0  0  0  0  0  0  0  0  0
   38.3520   32.4520   48.9900 C   0  0  0  0  0  0  0  0  0  0  0  0
   37.5900   32.0860   47.9840 N   0  0  0  0  0  0  0  0  0  0  0  0
   36.7370   29.1010   48.9530 H   0  0  0  0  0  0  0  0  0  0  0  0
   38.1060   29.6880   50.8230 H   0  0  0  0  0  0  0  0  0  0  0  0
   39.2170   31.9500   50.8870 H   0  0  0  0  0  0  0  0  0  0  0  0
   38.9510   33.7890   48.9290 N   0  0  0  0  0  0  0  0  0  0  0  0
   38.6820   34.4690   48.2120 H   0  0  0  0  0  0  0  0  0  0  0  0
   39.6820   34.0780   49.6330 H   0  0  0  0  0  0  0  0  0  0  0  0
   37.5020   30.6780   44.8070 C   0  0  0  0  0  0  0  0  0  0  0  0
   38.4820   30.1110   45.4810 F   0  0  0  0  0  0  0  0  0  0  0  0
   37.5960   30.3370   43.4690 F   0  0  0  0  0  0  0  0  0  0  0  0
   37.7060   32.0880   44.8400 F   0  0  0  0  0  0  0  0  0  0  0  0
  1  8  1  0  0  0  0
  2  1  1  0  0  0  0
  2 11  1  0  0  0  0
  3  2  2  0  0  0  0
  4  5  2  0  0  0  0
  4  3  1  0  0  0  0
  5  6  1  0  0  0  0
  6  1  2  0  0  0  0
  7  5  1  0  0  0  0
  9  7  1  0  0  0  0
 10  7  1  0  0  0  0
 11 16  2  0  0  0  0
 11 12  1  0  0  0  0
 12 17  1  0  0  0  0
 12 13  2  0  0  0  0
 13 14  1  0  0  0  0
 13 18  1  0  0  0  0
 14 19  1  0  0  0  0
 15 14  2  0  0  0  0
 16 15  1  0  0  0  0
 20 15  1  0  0  0  0
 20 22  1  0  0  0  0
 21 20  1  0  0  0  0
 23 26  1  0  0  0  0
 23  3  1  0  0  0  0
 23 24  1  0  0  0  0
 25 23  1  0  0  0  0
M  END
>  <minimizedAffinity>
-5.13137007

>  <minimizedRMSD>
1.54126465

$$$$
