
 OpenBabel03262520233D

 26 27  0  0  0  0  0  0  0  0999 V2000
   37.8610   23.8840   33.6260 C   0  0  0  0  0  0  0  0  0  0  0  0
   38.7200   24.6990   34.4300 C   0  0  0  0  0  0  0  0  0  0  0  0
   39.2570   25.8100   33.8400 C   0  0  0  0  0  0  0  0  0  0  0  0
   38.9270   26.0500   32.5330 N   0  0  0  0  0  0  0  0  0  0  0  0
   38.1210   25.2810   31.7900 C   0  0  0  0  0  0  0  0  0  0  0  0
   37.5980   24.1930   32.3670 N   0  0  0  0  0  0  0  0  0  0  0  0
   37.8920   25.7040   30.4730 N   0  0  0  0  0  0  0  0  0  0  0  0
   37.3760   22.9900   33.9580 H   0  0  0  0  0  0  0  0  0  0  0  0
   38.4270   25.5090   29.6000 H   0  0  0  0  0  0  0  0  0  0  0  0
   37.0200   26.2920   30.5590 H   0  0  0  0  0  0  0  0  0  0  0  0
   38.8190   24.1530   35.7780 C   0  0  0  0  0  0  0  0  0  0  0  0
   37.9780   24.6590   36.7910 C   0  0  0  0  0  0  0  0  0  0  0  0
   37.9760   24.2740   38.0890 C   0  0  0  0  0  0  0  0  0  0  0  0
   38.8290   23.3280   38.5200 C   0  0  0  0  0  0  0  0  0  0  0  0
   39.6400   22.8370   37.5490 C   0  0  0  0  0  0  0  0  0  0  0  0
   39.6010   23.2460   36.3010 N   0  0  0  0  0  0  0  0  0  0  0  0
   37.2310   25.4650   36.4870 H   0  0  0  0  0  0  0  0  0  0  0  0
   37.2360   24.7790   38.7770 H   0  0  0  0  0  0  0  0  0  0  0  0
   38.8550   23.0020   39.5370 H   0  0  0  0  0  0  0  0  0  0  0  0
   40.6180   21.7980   37.8860 N   0  0  0  0  0  0  0  0  0  0  0  0
   41.3390   21.4990   37.2240 H   0  0  0  0  0  0  0  0  0  0  0  0
   40.5950   21.3320   38.8330 H   0  0  0  0  0  0  0  0  0  0  0  0
   40.1420   26.6800   34.6120 C   0  0  0  0  0  0  0  0  0  0  0  0
   40.6540   27.5950   33.8140 F   0  0  0  0  0  0  0  0  0  0  0  0
   39.5320   27.2930   35.6930 F   0  0  0  0  0  0  0  0  0  0  0  0
   41.2190   25.9340   35.1740 F   0  0  0  0  0  0  0  0  0  0  0  0
  1  8  1  0  0  0  0
  1  2  1  0  0  0  0
  2 11  1  0  0  0  0
  3  2  2  0  0  0  0
  3 23  1  0  0  0  0
  4  3  1  0  0  0  0
  5  6  1  0  0  0  0
  5  4  2  0  0  0  0
  6  1  2  0  0  0  0
  7 10  1  0  0  0  0
  7  5  1  0  0  0  0
  9  7  1  0  0  0  0
 11 16  2  0  0  0  0
 11 12  1  0  0  0  0
 12 13  2  0  0  0  0
 13 14  1  0  0  0  0
 13 18  1  0  0  0  0
 14 19  1  0  0  0  0
 15 20  1  0  0  0  0
 15 14  2  0  0  0  0
 16 15  1  0  0  0  0
 17 12  1  0  0  0  0
 20 22  1  0  0  0  0
 21 20  1  0  0  0  0
 23 26  1  0  0  0  0
 23 25  1  0  0  0  0
 24 23  1  0  0  0  0
M  END
>  <minimizedAffinity>
-5.86993647

$$$$

 OpenBabel03262520233D

 26 27  0  0  0  0  0  0  0  0999 V2000
   40.5260   23.6150   35.4350 C   0  0  0  0  0  0  0  0  0  0  0  0
   39.3460   24.0200   36.1360 C   0  0  0  0  0  0  0  0  0  0  0  0
   39.0650   23.3720   37.3080 C   0  0  0  0  0  0  0  0  0  0  0  0
   39.9350   22.3950   37.7120 N   0  0  0  0  0  0  0  0  0  0  0  0
   41.0370   22.0260   37.0480 C   0  0  0  0  0  0  0  0  0  0  0  0
   41.3110   22.6580   35.9010 N   0  0  0  0  0  0  0  0  0  0  0  0
   41.8110   21.0140   37.6340 N   0  0  0  0  0  0  0  0  0  0  0  0
   40.8640   24.0350   34.5100 H   0  0  0  0  0  0  0  0  0  0  0  0
   41.7440   19.9780   37.5450 H   0  0  0  0  0  0  0  0  0  0  0  0
   42.5100   21.5520   38.2140 H   0  0  0  0  0  0  0  0  0  0  0  0
   38.6820   25.1050   35.4260 C   0  0  0  0  0  0  0  0  0  0  0  0
   38.7200   26.4080   35.9650 C   0  0  0  0  0  0  0  0  0  0  0  0
   38.1270   27.5050   35.4380 C   0  0  0  0  0  0  0  0  0  0  0  0
   37.4220   27.4150   34.2960 C   0  0  0  0  0  0  0  0  0  0  0  0
   37.3830   26.1640   33.7720 C   0  0  0  0  0  0  0  0  0  0  0  0
   37.9770   25.1310   34.3260 N   0  0  0  0  0  0  0  0  0  0  0  0
   39.3040   26.5490   36.9350 H   0  0  0  0  0  0  0  0  0  0  0  0
   38.2530   28.4800   35.9950 H   0  0  0  0  0  0  0  0  0  0  0  0
   36.9410   28.2600   33.8540 H   0  0  0  0  0  0  0  0  0  0  0  0
   36.6460   25.9280   32.5270 N   0  0  0  0  0  0  0  0  0  0  0  0
   36.4730   24.9840   32.1710 H   0  0  0  0  0  0  0  0  0  0  0  0
   36.2740   26.7420   31.9660 H   0  0  0  0  0  0  0  0  0  0  0  0
   37.8720   23.7420   38.0680 C   0  0  0  0  0  0  0  0  0  0  0  0
   38.1340   24.8130   38.7900 F   0  0  0  0  0  0  0  0  0  0  0  0
   36.7510   23.9670   37.2880 F   0  0  0  0  0  0  0  0  0  0  0  0
   37.4950   22.6940   38.9570 F   0  0  0  0  0  0  0  0  0  0  0  0
  1  6  2  0  0  0  0
  1  2  1  0  0  0  0
  2  3  2  0  0  0  0
  3  4  1  0  0  0  0
  3 23  1  0  0  0  0
  5  7  1  0  0  0  0
  5  4  2  0  0  0  0
  6  5  1  0  0  0  0
  7 10  1  0  0  0  0
  8  1  1  0  0  0  0
  9  7  1  0  0  0  0
 11 12  1  0  0  0  0
 11  2  1  0  0  0  0
 12 17  1  0  0  0  0
 13 12  2  0  0  0  0
 13 18  1  0  0  0  0
 14 13  1  0  0  0  0
 15 14  2  0  0  0  0
 15 16  1  0  0  0  0
 16 11  2  0  0  0  0
 19 14  1  0  0  0  0
 20 15  1  0  0  0  0
 21 20  1  0  0  0  0
 22 20  1  0  0  0  0
 23 24  1  0  0  0  0
 23 26  1  0  0  0  0
 25 23  1  0  0  0  0
M  END
>  <minimizedAffinity>
-5.79243612

$$$$

 OpenBabel03262520233D

 26 27  0  0  0  0  0  0  0  0999 V2000
   37.9550   23.7490   33.4520 C   0  0  0  0  0  0  0  0  0  0  0  0
   38.3150   24.6960   34.4640 C   0  0  0  0  0  0  0  0  0  0  0  0
   37.9420   25.9970   34.2590 C   0  0  0  0  0  0  0  0  0  0  0  0
   37.2580   26.2830   33.1090 N   0  0  0  0  0  0  0  0  0  0  0  0
   36.9250   25.3880   32.1700 C   0  0  0  0  0  0  0  0  0  0  0  0
   37.2910   24.1160   32.3690 N   0  0  0  0  0  0  0  0  0  0  0  0
   36.2080   25.8740   31.0680 N   0  0  0  0  0  0  0  0  0  0  0  0
   38.1830   22.7040   33.4830 H   0  0  0  0  0  0  0  0  0  0  0  0
   36.5460   26.2800   30.1700 H   0  0  0  0  0  0  0  0  0  0  0  0
   35.2020   25.7350   31.3570 H   0  0  0  0  0  0  0  0  0  0  0  0
   39.0110   24.0300   35.5560 C   0  0  0  0  0  0  0  0  0  0  0  0
   40.3670   23.6760   35.3970 C   0  0  0  0  0  0  0  0  0  0  0  0
   41.1330   23.0310   36.3080 C   0  0  0  0  0  0  0  0  0  0  0  0
   40.6170   22.6630   37.4940 C   0  0  0  0  0  0  0  0  0  0  0  0
   39.3130   23.0030   37.6530 C   0  0  0  0  0  0  0  0  0  0  0  0
   38.6130   23.6310   36.7360 N   0  0  0  0  0  0  0  0  0  0  0  0
   40.8630   23.9620   34.4100 H   0  0  0  0  0  0  0  0  0  0  0  0
   42.2070   22.8200   36.0250 H   0  0  0  0  0  0  0  0  0  0  0  0
   41.1930   22.1510   38.2340 H   0  0  0  0  0  0  0  0  0  0  0  0
   38.6280   22.6600   38.9040 N   0  0  0  0  0  0  0  0  0  0  0  0
   37.6160   22.7700   39.0140 H   0  0  0  0  0  0  0  0  0  0  0  0
   39.1760   22.2880   39.7260 H   0  0  0  0  0  0  0  0  0  0  0  0
   38.2830   27.0090   35.2580 C   0  0  0  0  0  0  0  0  0  0  0  0
   37.6480   28.1280   34.9730 F   0  0  0  0  0  0  0  0  0  0  0  0
   38.0070   26.6340   36.5610 F   0  0  0  0  0  0  0  0  0  0  0  0
   39.6810   27.2820   35.2440 F   0  0  0  0  0  0  0  0  0  0  0  0
  1  8  1  0  0  0  0
  1  2  1  0  0  0  0
  2 11  1  0  0  0  0
  3  2  2  0  0  0  0
  3 23  1  0  0  0  0
  4  3  1  0  0  0  0
  5  6  1  0  0  0  0
  5  4  2  0  0  0  0
  6  1  2  0  0  0  0
  7 10  1  0  0  0  0
  7  5  1  0  0  0  0
  9  7  1  0  0  0  0
 11 16  1  0  0  0  0
 12 11  2  0  0  0  0
 12 13  1  0  0  0  0
 13 14  2  0  0  0  0
 14 15  1  0  0  0  0
 14 19  1  0  0  0  0
 15 20  1  0  0  0  0
 16 15  2  0  0  0  0
 17 12  1  0  0  0  0
 18 13  1  0  0  0  0
 20 21  1  0  0  0  0
 20 22  1  0  0  0  0
 23 25  1  0  0  0  0
 24 23  1  0  0  0  0
 26 23  1  0  0  0  0
M  END
>  <minimizedAffinity>
-5.57528162

$$$$

 OpenBabel03262520233D

 26 27  0  0  0  0  0  0  0  0999 V2000
   38.3850   25.3660   34.0240 C   0  0  0  0  0  0  0  0  0  0  0  0
   38.1530   23.9810   34.3040 C   0  0  0  0  0  0  0  0  0  0  0  0
   37.7170   23.2010   33.2680 C   0  0  0  0  0  0  0  0  0  0  0  0
   37.5410   23.8080   32.0530 N   0  0  0  0  0  0  0  0  0  0  0  0
   37.7630   25.1040   31.8030 C   0  0  0  0  0  0  0  0  0  0  0  0
   38.1870   25.8680   32.8170 N   0  0  0  0  0  0  0  0  0  0  0  0
   37.5400   25.5340   30.4870 N   0  0  0  0  0  0  0  0  0  0  0  0
   38.7240   26.0870   34.7380 H   0  0  0  0  0  0  0  0  0  0  0  0
   36.6690   25.8780   30.0290 H   0  0  0  0  0  0  0  0  0  0  0  0
   38.4890   25.4290   30.0370 H   0  0  0  0  0  0  0  0  0  0  0  0
   38.4720   23.6850   35.6940 C   0  0  0  0  0  0  0  0  0  0  0  0
   37.7690   24.3500   36.7210 C   0  0  0  0  0  0  0  0  0  0  0  0
   37.9750   24.2020   38.0510 C   0  0  0  0  0  0  0  0  0  0  0  0
   38.9200   23.3600   38.5040 C   0  0  0  0  0  0  0  0  0  0  0  0
   39.5990   22.7160   37.5210 C   0  0  0  0  0  0  0  0  0  0  0  0
   39.3590   22.8970   36.2420 N   0  0  0  0  0  0  0  0  0  0  0  0
   36.9530   25.0790   36.3990 H   0  0  0  0  0  0  0  0  0  0  0  0
   37.3240   24.8110   38.7460 H   0  0  0  0  0  0  0  0  0  0  0  0
   39.1090   23.2200   39.5460 H   0  0  0  0  0  0  0  0  0  0  0  0
   40.6570   21.7680   37.8800 N   0  0  0  0  0  0  0  0  0  0  0  0
   41.2850   21.3670   37.1770 H   0  0  0  0  0  0  0  0  0  0  0  0
   40.7930   21.4770   38.8850 H   0  0  0  0  0  0  0  0  0  0  0  0
   37.4630   21.7800   33.4940 C   0  0  0  0  0  0  0  0  0  0  0  0
   38.6130   21.1460   33.6000 F   0  0  0  0  0  0  0  0  0  0  0  0
   36.6790   21.5140   34.6030 F   0  0  0  0  0  0  0  0  0  0  0  0
   36.7490   21.2140   32.3980 F   0  0  0  0  0  0  0  0  0  0  0  0
  1  2  1  0  0  0  0
  1  8  1  0  0  0  0
  2 11  1  0  0  0  0
  3 23  1  0  0  0  0
  3  2  2  0  0  0  0
  4  3  1  0  0  0  0
  5  4  2  0  0  0  0
  5  6  1  0  0  0  0
  6  1  2  0  0  0  0
  7  5  1  0  0  0  0
  9  7  1  0  0  0  0
 10  7  1  0  0  0  0
 11 16  2  0  0  0  0
 11 12  1  0  0  0  0
 12 13  2  0  0  0  0
 13 14  1  0  0  0  0
 13 18  1  0  0  0  0
 14 19  1  0  0  0  0
 15 20  1  0  0  0  0
 15 14  2  0  0  0  0
 16 15  1  0  0  0  0
 17 12  1  0  0  0  0
 20 22  1  0  0  0  0
 21 20  1  0  0  0  0
 23 24  1  0  0  0  0
 23 25  1  0  0  0  0
 26 23  1  0  0  0  0
M  END
>  <minimizedAffinity>
-5.34173822

$$$$

 OpenBabel03262520233D

 26 27  0  0  0  0  0  0  0  0999 V2000
   38.1970   23.0500   35.0280 C   0  0  0  0  0  0  0  0  0  0  0  0
   38.1950   24.4710   34.8580 C   0  0  0  0  0  0  0  0  0  0  0  0
   38.2740   25.2330   35.9920 C   0  0  0  0  0  0  0  0  0  0  0  0
   38.3500   24.5750   37.1900 N   0  0  0  0  0  0  0  0  0  0  0  0
   38.3520   23.2440   37.3360 C   0  0  0  0  0  0  0  0  0  0  0  0
   38.2730   22.4980   36.2280 N   0  0  0  0  0  0  0  0  0  0  0  0
   38.4530   22.7590   38.6470 N   0  0  0  0  0  0  0  0  0  0  0  0
   38.1400   22.3370   34.2310 H   0  0  0  0  0  0  0  0  0  0  0  0
   37.7110   22.5580   39.3510 H   0  0  0  0  0  0  0  0  0  0  0  0
   39.4930   22.6350   38.7780 H   0  0  0  0  0  0  0  0  0  0  0  0
   38.1320   24.8120   33.4440 C   0  0  0  0  0  0  0  0  0  0  0  0
   39.3300   24.9460   32.7110 C   0  0  0  0  0  0  0  0  0  0  0  0
   39.4300   25.2860   31.4050 C   0  0  0  0  0  0  0  0  0  0  0  0
   38.3260   25.5340   30.6790 C   0  0  0  0  0  0  0  0  0  0  0  0
   37.1700   25.4050   31.3780 C   0  0  0  0  0  0  0  0  0  0  0  0
   37.1280   25.0710   32.6480 N   0  0  0  0  0  0  0  0  0  0  0  0
   40.3030   24.7490   33.2730 H   0  0  0  0  0  0  0  0  0  0  0  0
   40.4690   25.3510   30.9650 H   0  0  0  0  0  0  0  0  0  0  0  0
   38.3690   25.8060   29.6460 H   0  0  0  0  0  0  0  0  0  0  0  0
   35.8910   25.6470   30.7030 N   0  0  0  0  0  0  0  0  0  0  0  0
   35.0080   25.6980   31.2190 H   0  0  0  0  0  0  0  0  0  0  0  0
   35.8570   25.7750   29.6560 H   0  0  0  0  0  0  0  0  0  0  0  0
   38.2750   26.6910   35.8810 C   0  0  0  0  0  0  0  0  0  0  0  0
   38.2650   27.2160   37.0900 F   0  0  0  0  0  0  0  0  0  0  0  0
   39.3390   27.2030   35.1580 F   0  0  0  0  0  0  0  0  0  0  0  0
   37.1130   27.1460   35.1940 F   0  0  0  0  0  0  0  0  0  0  0  0
  1  6  1  0  0  0  0
  2  1  2  0  0  0  0
  2  3  1  0  0  0  0
  3  4  2  0  0  0  0
  4  5  1  0  0  0  0
  5  7  1  0  0  0  0
  6  5  2  0  0  0  0
  7 10  1  0  0  0  0
  7  9  1  0  0  0  0
  8  1  1  0  0  0  0
 11  2  1  0  0  0  0
 12 17  1  0  0  0  0
 12 11  1  0  0  0  0
 13 12  2  0  0  0  0
 14 15  2  0  0  0  0
 14 13  1  0  0  0  0
 15 16  1  0  0  0  0
 16 11  2  0  0  0  0
 18 13  1  0  0  0  0
 19 14  1  0  0  0  0
 20 21  1  0  0  0  0
 20 15  1  0  0  0  0
 22 20  1  0  0  0  0
 23  3  1  0  0  0  0
 23 24  1  0  0  0  0
 25 23  1  0  0  0  0
 26 23  1  0  0  0  0
M  END
>  <minimizedAffinity>
-5.331604

$$$$

 OpenBabel03262520233D

 26 27  0  0  0  0  0  0  0  0999 V2000
   38.1340   23.8410   33.4540 C   0  0  0  0  0  0  0  0  0  0  0  0
   38.2390   25.2160   33.8360 C   0  0  0  0  0  0  0  0  0  0  0  0
   38.2600   25.4900   35.1770 C   0  0  0  0  0  0  0  0  0  0  0  0
   38.1790   24.4290   36.0380 N   0  0  0  0  0  0  0  0  0  0  0  0
   38.0820   23.1460   35.6680 C   0  0  0  0  0  0  0  0  0  0  0  0
   38.0610   22.8780   34.3570 N   0  0  0  0  0  0  0  0  0  0  0  0
   38.0270   22.2000   36.7020 N   0  0  0  0  0  0  0  0  0  0  0  0
   38.1070   23.4860   32.4450 H   0  0  0  0  0  0  0  0  0  0  0  0
   37.2100   21.8230   37.2280 H   0  0  0  0  0  0  0  0  0  0  0  0
   39.0400   21.9370   36.8410 H   0  0  0  0  0  0  0  0  0  0  0  0
   38.3330   26.0650   32.6560 C   0  0  0  0  0  0  0  0  0  0  0  0
   39.5910   26.5710   32.2670 C   0  0  0  0  0  0  0  0  0  0  0  0
   39.8280   27.3910   31.2160 C   0  0  0  0  0  0  0  0  0  0  0  0
   38.8170   27.8000   30.4290 C   0  0  0  0  0  0  0  0  0  0  0  0
   37.6040   27.3150   30.7980 C   0  0  0  0  0  0  0  0  0  0  0  0
   37.4280   26.5190   31.8290 N   0  0  0  0  0  0  0  0  0  0  0  0
   40.4890   26.2590   32.8960 H   0  0  0  0  0  0  0  0  0  0  0  0
   40.8980   27.7090   31.0390 H   0  0  0  0  0  0  0  0  0  0  0  0
   38.9690   28.4480   29.5940 H   0  0  0  0  0  0  0  0  0  0  0  0
   36.4160   27.6840   30.0230 N   0  0  0  0  0  0  0  0  0  0  0  0
   35.4700   27.4570   30.3420 H   0  0  0  0  0  0  0  0  0  0  0  0
   36.5170   28.1980   29.1060 H   0  0  0  0  0  0  0  0  0  0  0  0
   38.3650   26.8770   35.6270 C   0  0  0  0  0  0  0  0  0  0  0  0
   37.4480   27.6010   35.0180 F   0  0  0  0  0  0  0  0  0  0  0  0
   38.2530   27.0370   36.9980 F   0  0  0  0  0  0  0  0  0  0  0  0
   39.6420   27.4190   35.2990 F   0  0  0  0  0  0  0  0  0  0  0  0
  1  2  2  0  0  0  0
  1  6  1  0  0  0  0
  2  3  1  0  0  0  0
  3 23  1  0  0  0  0
  3  4  2  0  0  0  0
  5  4  1  0  0  0  0
  5  7  1  0  0  0  0
  6  5  2  0  0  0  0
  7 10  1  0  0  0  0
  7  9  1  0  0  0  0
  8  1  1  0  0  0  0
 11  2  1  0  0  0  0
 12 11  1  0  0  0  0
 12 17  1  0  0  0  0
 13 12  2  0  0  0  0
 14 15  2  0  0  0  0
 14 13  1  0  0  0  0
 15 16  1  0  0  0  0
 16 11  2  0  0  0  0
 18 13  1  0  0  0  0
 19 14  1  0  0  0  0
 20 21  1  0  0  0  0
 20 15  1  0  0  0  0
 22 20  1  0  0  0  0
 23 25  1  0  0  0  0
 24 23  1  0  0  0  0
 26 23  1  0  0  0  0
M  END
>  <minimizedAffinity>
-5.14162397

$$$$

 OpenBabel03262520233D

 26 27  0  0  0  0  0  0  0  0999 V2000
   41.8090   23.0050   35.5260 C   0  0  0  0  0  0  0  0  0  0  0  0
   40.5080   23.5550   35.7580 C   0  0  0  0  0  0  0  0  0  0  0  0
   39.7920   23.0400   36.8040 C   0  0  0  0  0  0  0  0  0  0  0  0
   40.3780   22.0450   37.5390 N   0  0  0  0  0  0  0  0  0  0  0  0
   41.5970   21.5390   37.3140 C   0  0  0  0  0  0  0  0  0  0  0  0
   42.2970   22.0420   36.2900 N   0  0  0  0  0  0  0  0  0  0  0  0
   42.0280   20.5330   38.1900 N   0  0  0  0  0  0  0  0  0  0  0  0
   42.4740   23.3130   34.7460 H   0  0  0  0  0  0  0  0  0  0  0  0
   41.8940   19.5010   38.1490 H   0  0  0  0  0  0  0  0  0  0  0  0
   42.5440   21.0720   38.9370 H   0  0  0  0  0  0  0  0  0  0  0  0
   40.2270   24.6140   34.7980 C   0  0  0  0  0  0  0  0  0  0  0  0
   40.8550   25.8680   34.9500 C   0  0  0  0  0  0  0  0  0  0  0  0
   40.6710   26.9520   34.1590 C   0  0  0  0  0  0  0  0  0  0  0  0
   39.8260   26.8960   33.1150 C   0  0  0  0  0  0  0  0  0  0  0  0
   39.2200   25.6910   32.9630 C   0  0  0  0  0  0  0  0  0  0  0  0
   39.4350   24.6700   33.7610 N   0  0  0  0  0  0  0  0  0  0  0  0
   41.5850   25.9780   35.8200 H   0  0  0  0  0  0  0  0  0  0  0  0
   41.2520   27.8860   34.4170 H   0  0  0  0  0  0  0  0  0  0  0  0
   39.6560   27.7330   32.4720 H   0  0  0  0  0  0  0  0  0  0  0  0
   38.2730   25.4970   31.8600 N   0  0  0  0  0  0  0  0  0  0  0  0
   37.6920   24.6570   31.7890 H   0  0  0  0  0  0  0  0  0  0  0  0
   38.1730   26.2310   31.1080 H   0  0  0  0  0  0  0  0  0  0  0  0
   38.4560   23.5620   37.0890 C   0  0  0  0  0  0  0  0  0  0  0  0
   38.5240   24.8700   37.2290 F   0  0  0  0  0  0  0  0  0  0  0  0
   37.5080   23.2430   36.1320 F   0  0  0  0  0  0  0  0  0  0  0  0
   37.9490   23.0150   38.3030 F   0  0  0  0  0  0  0  0  0  0  0  0
  1  2  2  0  0  0  0
  1  6  1  0  0  0  0
  2  3  1  0  0  0  0
  3 23  1  0  0  0  0
  3  4  2  0  0  0  0
  5  4  1  0  0  0  0
  5  7  1  0  0  0  0
  6  5  2  0  0  0  0
  7 10  1  0  0  0  0
  8  1  1  0  0  0  0
  9  7  1  0  0  0  0
 11 12  1  0  0  0  0
 11  2  1  0  0  0  0
 12 17  1  0  0  0  0
 13 18  1  0  0  0  0
 13 12  2  0  0  0  0
 14 13  1  0  0  0  0
 15 14  2  0  0  0  0
 15 16  1  0  0  0  0
 16 11  2  0  0  0  0
 19 14  1  0  0  0  0
 20 15  1  0  0  0  0
 21 20  1  0  0  0  0
 22 20  1  0  0  0  0
 23 24  1  0  0  0  0
 23 26  1  0  0  0  0
 25 23  1  0  0  0  0
M  END
>  <minimizedAffinity>
-5.03027964

$$$$

 OpenBabel03262520233D

 26 27  0  0  0  0  0  0  0  0999 V2000
   38.4590   24.0210   36.7330 C   0  0  0  0  0  0  0  0  0  0  0  0
   39.1990   24.6460   35.6790 C   0  0  0  0  0  0  0  0  0  0  0  0
   40.4590   24.1720   35.4380 C   0  0  0  0  0  0  0  0  0  0  0  0
   40.9060   23.1420   36.2210 N   0  0  0  0  0  0  0  0  0  0  0  0
   40.2040   22.5640   37.2030 C   0  0  0  0  0  0  0  0  0  0  0  0
   38.9720   23.0280   37.4410 N   0  0  0  0  0  0  0  0  0  0  0  0
   40.8300   21.5090   37.8830 N   0  0  0  0  0  0  0  0  0  0  0  0
   37.4670   24.2910   37.0290 H   0  0  0  0  0  0  0  0  0  0  0  0
   41.4590   21.5220   38.7140 H   0  0  0  0  0  0  0  0  0  0  0  0
   40.5140   20.6570   37.3460 H   0  0  0  0  0  0  0  0  0  0  0  0
   38.3980   25.6850   35.0450 C   0  0  0  0  0  0  0  0  0  0  0  0
   38.2090   26.9140   35.7120 C   0  0  0  0  0  0  0  0  0  0  0  0
   37.4710   27.9570   35.2640 C   0  0  0  0  0  0  0  0  0  0  0  0
   36.8310   27.8810   34.0830 C   0  0  0  0  0  0  0  0  0  0  0  0
   37.0110   26.7010   33.4370 C   0  0  0  0  0  0  0  0  0  0  0  0
   37.7400   25.7190   33.9170 N   0  0  0  0  0  0  0  0  0  0  0  0
   38.7270   27.0390   36.7200 H   0  0  0  0  0  0  0  0  0  0  0  0
   37.4200   28.8740   35.9210 H   0  0  0  0  0  0  0  0  0  0  0  0
   36.2390   28.6840   33.7020 H   0  0  0  0  0  0  0  0  0  0  0  0
   36.3680   26.4880   32.1370 N   0  0  0  0  0  0  0  0  0  0  0  0
   36.3600   25.5720   31.6810 H   0  0  0  0  0  0  0  0  0  0  0  0
   35.8930   27.2900   31.6400 H   0  0  0  0  0  0  0  0  0  0  0  0
   41.2630   24.7720   34.3740 C   0  0  0  0  0  0  0  0  0  0  0  0
   40.7150   24.4930   33.2080 F   0  0  0  0  0  0  0  0  0  0  0  0
   41.4330   26.1400   34.4940 F   0  0  0  0  0  0  0  0  0  0  0  0
   42.5840   24.2380   34.3770 F   0  0  0  0  0  0  0  0  0  0  0  0
  1  8  1  0  0  0  0
  1  6  1  0  0  0  0
  2  1  2  0  0  0  0
  3  2  1  0  0  0  0
  3  4  2  0  0  0  0
  4  5  1  0  0  0  0
  5  6  2  0  0  0  0
  5  7  1  0  0  0  0
  7  9  1  0  0  0  0
 10  7  1  0  0  0  0
 11  2  1  0  0  0  0
 11 12  1  0  0  0  0
 12 17  1  0  0  0  0
 13 12  2  0  0  0  0
 13 18  1  0  0  0  0
 14 13  1  0  0  0  0
 15 16  1  0  0  0  0
 15 14  2  0  0  0  0
 16 11  2  0  0  0  0
 19 14  1  0  0  0  0
 20 15  1  0  0  0  0
 21 20  1  0  0  0  0
 22 20  1  0  0  0  0
 23 26  1  0  0  0  0
 23 25  1  0  0  0  0
 23  3  1  0  0  0  0
 24 23  1  0  0  0  0
M  END
>  <minimizedAffinity>
-5.02134371

$$$$

 OpenBabel03262520233D

 26 27  0  0  0  0  0  0  0  0999 V2000
   38.0810   26.6570   35.4710 C   0  0  0  0  0  0  0  0  0  0  0  0
   38.1860   25.3420   34.9130 C   0  0  0  0  0  0  0  0  0  0  0  0
   37.6440   25.1470   33.6720 C   0  0  0  0  0  0  0  0  0  0  0  0
   37.0500   26.2230   33.0680 N   0  0  0  0  0  0  0  0  0  0  0  0
   36.9590   27.4490   33.5990 C   0  0  0  0  0  0  0  0  0  0  0  0
   37.4880   27.6390   34.8130 N   0  0  0  0  0  0  0  0  0  0  0  0
   36.3260   28.4240   32.8150 N   0  0  0  0  0  0  0  0  0  0  0  0
   38.4590   26.9480   36.4280 H   0  0  0  0  0  0  0  0  0  0  0  0
   35.3190   28.6810   32.7430 H   0  0  0  0  0  0  0  0  0  0  0  0
   37.1280   28.8640   32.2870 H   0  0  0  0  0  0  0  0  0  0  0  0
   38.9050   24.4620   35.8240 C   0  0  0  0  0  0  0  0  0  0  0  0
   40.2090   24.0400   35.4910 C   0  0  0  0  0  0  0  0  0  0  0  0
   40.9850   23.2030   36.2200 C   0  0  0  0  0  0  0  0  0  0  0  0
   40.5330   22.6900   37.3770 C   0  0  0  0  0  0  0  0  0  0  0  0
   39.2790   23.0940   37.7040 C   0  0  0  0  0  0  0  0  0  0  0  0
   38.5670   23.9100   36.9600 N   0  0  0  0  0  0  0  0  0  0  0  0
   40.6490   24.4420   34.5190 H   0  0  0  0  0  0  0  0  0  0  0  0
   42.0110   22.9630   35.8120 H   0  0  0  0  0  0  0  0  0  0  0  0
   41.1190   22.0260   37.9760 H   0  0  0  0  0  0  0  0  0  0  0  0
   38.6670   22.6070   38.9440 N   0  0  0  0  0  0  0  0  0  0  0  0
   37.6800   22.7710   39.1600 H   0  0  0  0  0  0  0  0  0  0  0  0
   39.2420   22.0690   39.6470 H   0  0  0  0  0  0  0  0  0  0  0  0
   37.7190   23.8250   33.0530 C   0  0  0  0  0  0  0  0  0  0  0  0
   38.9280   23.6480   32.5590 F   0  0  0  0  0  0  0  0  0  0  0  0
   37.4050   22.7810   33.9050 F   0  0  0  0  0  0  0  0  0  0  0  0
   36.7870   23.7160   31.9810 F   0  0  0  0  0  0  0  0  0  0  0  0
  1  8  1  0  0  0  0
  2  1  1  0  0  0  0
  2 11  1  0  0  0  0
  3  2  2  0  0  0  0
  4  5  2  0  0  0  0
  4  3  1  0  0  0  0
  5  6  1  0  0  0  0
  6  1  2  0  0  0  0
  7  5  1  0  0  0  0
  9  7  1  0  0  0  0
 10  7  1  0  0  0  0
 11 16  1  0  0  0  0
 12 11  2  0  0  0  0
 12 13  1  0  0  0  0
 13 14  2  0  0  0  0
 14 15  1  0  0  0  0
 14 19  1  0  0  0  0
 15 20  1  0  0  0  0
 16 15  2  0  0  0  0
 17 12  1  0  0  0  0
 18 13  1  0  0  0  0
 20 21  1  0  0  0  0
 20 22  1  0  0  0  0
 23  3  1  0  0  0  0
 23 25  1  0  0  0  0
 24 23  1  0  0  0  0
 26 23  1  0  0  0  0
M  END
>  <minimizedAffinity>
-4.94514179

$$$$
