
 OpenBabel03272505193D

 27 28  0  0  0  0  0  0  0  0999 V2000
   38.9320   24.2490   36.4960 C   0  0  0  0  0  0  0  0  0  0  0  0
   40.0710   24.1680   35.7490 C   0  0  0  0  0  0  0  0  0  0  0  0
   40.3730   25.2440   34.9550 C   0  0  0  0  0  0  0  0  0  0  0  0
   39.5910   26.3430   34.9020 C   0  0  0  0  0  0  0  0  0  0  0  0
   38.4320   26.4590   35.6430 C   0  0  0  0  0  0  0  0  0  0  0  0
   38.1240   25.3820   36.4420 C   0  0  0  0  0  0  0  0  0  0  0  0
   41.2780   25.1830   34.3590 H   0  0  0  0  0  0  0  0  0  0  0  0
   39.9080   27.1510   34.2440 H   0  0  0  0  0  0  0  0  0  0  0  0
   37.8370   27.3590   35.5690 H   0  0  0  0  0  0  0  0  0  0  0  0
   37.2010   25.5430   36.9950 H   0  0  0  0  0  0  0  0  0  0  0  0
   42.2470   21.3620   34.6130 C   0  0  0  0  0  0  0  0  0  0  0  0
   41.4450   22.5120   34.6610 C   0  0  0  0  0  0  0  0  0  0  0  0
   40.8740   22.9760   35.8270 C   0  0  0  0  0  0  0  0  0  0  0  0
   41.1660   22.2110   36.9070 N   0  0  0  0  0  0  0  0  0  0  0  0
   41.9230   21.1100   36.9060 C   0  0  0  0  0  0  0  0  0  0  0  0
   42.4670   20.6820   35.7520 N   0  0  0  0  0  0  0  0  0  0  0  0
   42.6930   21.0010   33.6990 H   0  0  0  0  0  0  0  0  0  0  0  0
   41.3220   22.9930   33.7030 H   0  0  0  0  0  0  0  0  0  0  0  0
   42.0300   20.5450   38.2070 N   0  0  0  0  0  0  0  0  0  0  0  0
   42.6820   19.8260   38.6030 H   0  0  0  0  0  0  0  0  0  0  0  0
   41.2630   21.0410   38.7150 H   0  0  0  0  0  0  0  0  0  0  0  0
   37.3640   22.5360   37.1070 N   0  0  0  0  0  0  0  0  0  0  0  0
   38.4070   23.2700   37.4160 C   0  0  0  0  0  0  0  0  0  0  0  0
   38.5920   22.7160   38.6890 N   0  0  0  0  0  0  0  0  0  0  0  0
   37.0010   21.8320   37.7870 H   0  0  0  0  0  0  0  0  0  0  0  0
   39.1930   21.9240   39.0140 H   0  0  0  0  0  0  0  0  0  0  0  0
   38.0880   23.0740   39.5550 H   0  0  0  0  0  0  0  0  0  0  0  0
  1 23  1  0  0  0  0
  2 13  1  0  0  0  0
  2  1  2  0  0  0  0
  3  2  1  0  0  0  0
  4  3  2  0  0  0  0
  4  5  1  0  0  0  0
  5  6  2  0  0  0  0
  6  1  1  0  0  0  0
  6 10  1  0  0  0  0
  7  3  1  0  0  0  0
  8  4  1  0  0  0  0
  9  5  1  0  0  0  0
 11 12  2  0  0  0  0
 11 16  1  0  0  0  0
 12 13  1  0  0  0  0
 13 14  2  0  0  0  0
 15 14  1  0  0  0  0
 15 19  1  0  0  0  0
 16 15  2  0  0  0  0
 17 11  1  0  0  0  0
 18 12  1  0  0  0  0
 19 20  1  0  0  0  0
 19 21  1  0  0  0  0
 22 23  2  0  0  0  0
 22 25  1  0  0  0  0
 23 24  1  0  0  0  0
 24 26  1  0  0  0  0
 24 27  1  0  0  0  0
M  END
>  <minimizedAffinity>
-5.17934752

$$$$

 OpenBabel03272505193D

 27 28  0  0  0  0  0  0  0  0999 V2000
   40.1180   22.8480   36.8690 C   0  0  0  0  0  0  0  0  0  0  0  0
   40.4610   23.6360   35.8090 C   0  0  0  0  0  0  0  0  0  0  0  0
   41.7050   23.4400   35.2640 C   0  0  0  0  0  0  0  0  0  0  0  0
   42.5630   22.5140   35.7420 C   0  0  0  0  0  0  0  0  0  0  0  0
   42.2500   21.7020   36.8130 C   0  0  0  0  0  0  0  0  0  0  0  0
   41.0030   21.8930   37.3630 C   0  0  0  0  0  0  0  0  0  0  0  0
   41.9820   24.0640   34.4210 H   0  0  0  0  0  0  0  0  0  0  0  0
   43.5300   22.4270   35.2480 H   0  0  0  0  0  0  0  0  0  0  0  0
   42.9700   20.9740   37.1620 H   0  0  0  0  0  0  0  0  0  0  0  0
   40.8250   21.2210   38.2000 H   0  0  0  0  0  0  0  0  0  0  0  0
   37.8240   25.1700   33.6660 C   0  0  0  0  0  0  0  0  0  0  0  0
   38.7710   24.2960   34.2210 C   0  0  0  0  0  0  0  0  0  0  0  0
   39.5210   24.6160   35.3330 C   0  0  0  0  0  0  0  0  0  0  0  0
   39.2490   25.8500   35.8240 N   0  0  0  0  0  0  0  0  0  0  0  0
   38.3580   26.7120   35.3280 C   0  0  0  0  0  0  0  0  0  0  0  0
   37.6410   26.3710   34.2420 N   0  0  0  0  0  0  0  0  0  0  0  0
   37.2390   24.9170   32.7950 H   0  0  0  0  0  0  0  0  0  0  0  0
   38.8520   23.3560   33.6960 H   0  0  0  0  0  0  0  0  0  0  0  0
   38.3200   27.9190   36.0800 N   0  0  0  0  0  0  0  0  0  0  0  0
   37.6250   28.7040   36.1030 H   0  0  0  0  0  0  0  0  0  0  0  0
   39.1960   27.8420   36.6450 H   0  0  0  0  0  0  0  0  0  0  0  0
   38.8540   22.9480   38.9080 N   0  0  0  0  0  0  0  0  0  0  0  0
   38.8740   22.8440   37.6000 C   0  0  0  0  0  0  0  0  0  0  0  0
   37.4850   22.7570   37.4480 N   0  0  0  0  0  0  0  0  0  0  0  0
   37.9430   22.9440   39.4180 H   0  0  0  0  0  0  0  0  0  0  0  0
   36.7660   23.4940   37.2660 H   0  0  0  0  0  0  0  0  0  0  0  0
   36.9530   21.8380   37.5090 H   0  0  0  0  0  0  0  0  0  0  0  0
  1  6  1  0  0  0  0
  1 23  1  0  0  0  0
  2  1  2  0  0  0  0
  3  4  2  0  0  0  0
  3  2  1  0  0  0  0
  4  5  1  0  0  0  0
  5  9  1  0  0  0  0
  5  6  2  0  0  0  0
  6 10  1  0  0  0  0
  7  3  1  0  0  0  0
  8  4  1  0  0  0  0
 11 12  2  0  0  0  0
 11 16  1  0  0  0  0
 12 13  1  0  0  0  0
 13  2  1  0  0  0  0
 13 14  2  0  0  0  0
 15 14  1  0  0  0  0
 15 19  1  0  0  0  0
 16 15  2  0  0  0  0
 17 11  1  0  0  0  0
 18 12  1  0  0  0  0
 19 20  1  0  0  0  0
 19 21  1  0  0  0  0
 22 25  1  0  0  0  0
 23 22  2  0  0  0  0
 24 27  1  0  0  0  0
 24 23  1  0  0  0  0
 26 24  1  0  0  0  0
M  END
>  <minimizedAffinity>
-5.12103844

$$$$

 OpenBabel03272505193D

 27 28  0  0  0  0  0  0  0  0999 V2000
   38.3740   25.8280   34.3560 C   0  0  0  0  0  0  0  0  0  0  0  0
   38.4620   24.4680   34.4090 C   0  0  0  0  0  0  0  0  0  0  0  0
   37.8480   23.7640   33.4040 C   0  0  0  0  0  0  0  0  0  0  0  0
   37.1830   24.3720   32.4010 C   0  0  0  0  0  0  0  0  0  0  0  0
   37.0730   25.7460   32.3150 C   0  0  0  0  0  0  0  0  0  0  0  0
   37.6870   26.4570   33.3200 C   0  0  0  0  0  0  0  0  0  0  0  0
   37.9170   22.6810   33.4430 H   0  0  0  0  0  0  0  0  0  0  0  0
   36.7260   23.7350   31.6450 H   0  0  0  0  0  0  0  0  0  0  0  0
   36.5300   26.1890   31.4920 H   0  0  0  0  0  0  0  0  0  0  0  0
   37.5590   27.5300   33.1890 H   0  0  0  0  0  0  0  0  0  0  0  0
   41.2870   22.9050   36.2750 C   0  0  0  0  0  0  0  0  0  0  0  0
   40.4920   23.5060   35.2870 C   0  0  0  0  0  0  0  0  0  0  0  0
   39.1740   23.8560   35.4990 C   0  0  0  0  0  0  0  0  0  0  0  0
   38.7360   23.5570   36.7470 N   0  0  0  0  0  0  0  0  0  0  0  0
   39.4580   22.9850   37.7150 C   0  0  0  0  0  0  0  0  0  0  0  0
   40.7400   22.6560   37.4780 N   0  0  0  0  0  0  0  0  0  0  0  0
   42.3170   22.6320   36.1060 H   0  0  0  0  0  0  0  0  0  0  0  0
   41.0100   23.6690   34.3550 H   0  0  0  0  0  0  0  0  0  0  0  0
   38.6960   22.8110   38.9040 N   0  0  0  0  0  0  0  0  0  0  0  0
   38.9820   22.5910   39.8880 H   0  0  0  0  0  0  0  0  0  0  0  0
   37.7230   22.9620   38.5540 H   0  0  0  0  0  0  0  0  0  0  0  0
   40.2030   27.1450   35.1860 N   0  0  0  0  0  0  0  0  0  0  0  0
   38.9430   26.7870   35.2710 C   0  0  0  0  0  0  0  0  0  0  0  0
   38.6450   27.5980   36.3730 N   0  0  0  0  0  0  0  0  0  0  0  0
   40.5940   27.8410   35.8570 H   0  0  0  0  0  0  0  0  0  0  0  0
   38.2560   28.5680   36.4280 H   0  0  0  0  0  0  0  0  0  0  0  0
   38.7980   27.2870   37.3790 H   0  0  0  0  0  0  0  0  0  0  0  0
  1  2  1  0  0  0  0
  1 23  1  0  0  0  0
  2 13  1  0  0  0  0
  3  7  1  0  0  0  0
  3  2  2  0  0  0  0
  4  3  1  0  0  0  0
  5  4  2  0  0  0  0
  5  6  1  0  0  0  0
  6  1  2  0  0  0  0
  8  4  1  0  0  0  0
  9  5  1  0  0  0  0
 10  6  1  0  0  0  0
 11 16  1  0  0  0  0
 12 13  1  0  0  0  0
 12 11  2  0  0  0  0
 13 14  2  0  0  0  0
 14 15  1  0  0  0  0
 15 19  1  0  0  0  0
 16 15  2  0  0  0  0
 17 11  1  0  0  0  0
 18 12  1  0  0  0  0
 19 20  1  0  0  0  0
 21 19  1  0  0  0  0
 22 23  2  0  0  0  0
 22 25  1  0  0  0  0
 23 24  1  0  0  0  0
 24 26  1  0  0  0  0
 24 27  1  0  0  0  0
M  END
>  <minimizedAffinity>
-5.11831331

$$$$

 OpenBabel03272505193D

 27 28  0  0  0  0  0  0  0  0999 V2000
   39.7800   23.2540   35.7410 C   0  0  0  0  0  0  0  0  0  0  0  0
   38.8970   23.1330   34.7080 C   0  0  0  0  0  0  0  0  0  0  0  0
   39.1630   23.8570   33.5740 C   0  0  0  0  0  0  0  0  0  0  0  0
   40.2440   24.6580   33.4660 C   0  0  0  0  0  0  0  0  0  0  0  0
   41.1570   24.8050   34.4910 C   0  0  0  0  0  0  0  0  0  0  0  0
   40.8960   24.0810   35.6310 C   0  0  0  0  0  0  0  0  0  0  0  0
   38.4630   23.7630   32.7500 H   0  0  0  0  0  0  0  0  0  0  0  0
   40.3760   25.1950   32.5280 H   0  0  0  0  0  0  0  0  0  0  0  0
   42.0090   25.4580   34.3590 H   0  0  0  0  0  0  0  0  0  0  0  0
   41.6540   24.2450   36.3940 H   0  0  0  0  0  0  0  0  0  0  0  0
   36.1010   20.8600   33.7520 C   0  0  0  0  0  0  0  0  0  0  0  0
   37.2150   21.7130   33.7260 C   0  0  0  0  0  0  0  0  0  0  0  0
   37.7530   22.2750   34.8640 C   0  0  0  0  0  0  0  0  0  0  0  0
   37.0960   21.9220   35.9960 N   0  0  0  0  0  0  0  0  0  0  0  0
   36.0330   21.1160   36.0670 C   0  0  0  0  0  0  0  0  0  0  0  0
   35.5320   20.5820   34.9390 N   0  0  0  0  0  0  0  0  0  0  0  0
   35.6820   20.4210   32.8600 H   0  0  0  0  0  0  0  0  0  0  0  0
   37.6070   21.8810   32.7340 H   0  0  0  0  0  0  0  0  0  0  0  0
   35.5870   20.9520   37.4080 N   0  0  0  0  0  0  0  0  0  0  0  0
   34.9330   20.2590   37.8440 H   0  0  0  0  0  0  0  0  0  0  0  0
   36.0910   21.7290   37.8930 H   0  0  0  0  0  0  0  0  0  0  0  0
   40.4940   21.5480   37.2730 N   0  0  0  0  0  0  0  0  0  0  0  0
   39.7380   22.5920   37.0220 C   0  0  0  0  0  0  0  0  0  0  0  0
   39.1210   22.6200   38.2780 N   0  0  0  0  0  0  0  0  0  0  0  0
   40.4490   21.0840   38.2070 H   0  0  0  0  0  0  0  0  0  0  0  0
   39.3620   23.1450   39.1510 H   0  0  0  0  0  0  0  0  0  0  0  0
   38.2520   22.0510   38.5090 H   0  0  0  0  0  0  0  0  0  0  0  0
  1 23  1  0  0  0  0
  2 13  1  0  0  0  0
  2  1  2  0  0  0  0
  3  2  1  0  0  0  0
  4  3  2  0  0  0  0
  4  5  1  0  0  0  0
  5  6  2  0  0  0  0
  6  1  1  0  0  0  0
  6 10  1  0  0  0  0
  7  3  1  0  0  0  0
  8  4  1  0  0  0  0
  9  5  1  0  0  0  0
 11 16  1  0  0  0  0
 12 11  2  0  0  0  0
 12 13  1  0  0  0  0
 13 14  2  0  0  0  0
 14 15  1  0  0  0  0
 15 19  1  0  0  0  0
 16 15  2  0  0  0  0
 17 11  1  0  0  0  0
 18 12  1  0  0  0  0
 19 20  1  0  0  0  0
 19 21  1  0  0  0  0
 22 25  1  0  0  0  0
 23 22  2  0  0  0  0
 23 24  1  0  0  0  0
 24 27  1  0  0  0  0
 24 26  1  0  0  0  0
M  END
>  <minimizedAffinity>
-5.02340698

$$$$

 OpenBabel03272505193D

 27 28  0  0  0  0  0  0  0  0999 V2000
   39.8370   26.0230   34.3000 C   0  0  0  0  0  0  0  0  0  0  0  0
   38.6850   25.5650   34.8710 C   0  0  0  0  0  0  0  0  0  0  0  0
   37.5050   25.9570   34.2930 C   0  0  0  0  0  0  0  0  0  0  0  0
   37.4650   26.7590   33.2090 C   0  0  0  0  0  0  0  0  0  0  0  0
   38.6090   27.2420   32.6060 C   0  0  0  0  0  0  0  0  0  0  0  0
   39.7970   26.8510   33.1810 C   0  0  0  0  0  0  0  0  0  0  0  0
   36.5860   25.5950   34.7440 H   0  0  0  0  0  0  0  0  0  0  0  0
   36.4830   27.0200   32.8150 H   0  0  0  0  0  0  0  0  0  0  0  0
   38.5290   27.8820   31.7380 H   0  0  0  0  0  0  0  0  0  0  0  0
   40.6540   27.2680   32.6570 H   0  0  0  0  0  0  0  0  0  0  0  0
   38.0520   24.3420   38.3360 C   0  0  0  0  0  0  0  0  0  0  0  0
   38.0490   25.0880   37.1470 C   0  0  0  0  0  0  0  0  0  0  0  0
   38.7690   24.7180   36.0310 C   0  0  0  0  0  0  0  0  0  0  0  0
   39.4720   23.5720   36.2040 N   0  0  0  0  0  0  0  0  0  0  0  0
   39.5040   22.8320   37.3170 C   0  0  0  0  0  0  0  0  0  0  0  0
   38.7910   23.2190   38.3890 N   0  0  0  0  0  0  0  0  0  0  0  0
   37.4880   24.6350   39.2080 H   0  0  0  0  0  0  0  0  0  0  0  0
   37.4310   25.9720   37.1930 H   0  0  0  0  0  0  0  0  0  0  0  0
   40.3410   21.6920   37.1650 N   0  0  0  0  0  0  0  0  0  0  0  0
   40.4390   20.8190   37.7370 H   0  0  0  0  0  0  0  0  0  0  0  0
   40.8700   21.9340   36.2970 H   0  0  0  0  0  0  0  0  0  0  0  0
   42.0750   26.7070   34.8390 N   0  0  0  0  0  0  0  0  0  0  0  0
   41.1940   25.7430   34.7020 C   0  0  0  0  0  0  0  0  0  0  0  0
   42.0690   24.7070   35.0490 N   0  0  0  0  0  0  0  0  0  0  0  0
   43.0510   26.4830   35.1320 H   0  0  0  0  0  0  0  0  0  0  0  0
   42.2610   24.2480   35.9700 H   0  0  0  0  0  0  0  0  0  0  0  0
   42.7020   24.2240   34.3440 H   0  0  0  0  0  0  0  0  0  0  0  0
  1 23  1  0  0  0  0
  1  2  1  0  0  0  0
  2 13  1  0  0  0  0
  3  7  1  0  0  0  0
  3  2  2  0  0  0  0
  4  3  1  0  0  0  0
  5  6  1  0  0  0  0
  5  4  2  0  0  0  0
  6  1  2  0  0  0  0
  8  4  1  0  0  0  0
  9  5  1  0  0  0  0
 10  6  1  0  0  0  0
 11 16  1  0  0  0  0
 11 17  1  0  0  0  0
 12 18  1  0  0  0  0
 12 11  2  0  0  0  0
 13 14  2  0  0  0  0
 13 12  1  0  0  0  0
 14 15  1  0  0  0  0
 15 16  2  0  0  0  0
 19 15  1  0  0  0  0
 19 20  1  0  0  0  0
 21 19  1  0  0  0  0
 22 25  1  0  0  0  0
 23 22  2  0  0  0  0
 23 24  1  0  0  0  0
 24 26  1  0  0  0  0
 27 24  1  0  0  0  0
M  END
>  <minimizedAffinity>
-4.88283873

$$$$

 OpenBabel03272505193D

 27 28  0  0  0  0  0  0  0  0999 V2000
   36.7920   28.2500   32.2150 C   0  0  0  0  0  0  0  0  0  0  0  0
   36.1440   28.5970   33.3640 C   0  0  0  0  0  0  0  0  0  0  0  0
   36.6470   28.0980   34.5390 C   0  0  0  0  0  0  0  0  0  0  0  0
   37.7340   27.2990   34.5750 C   0  0  0  0  0  0  0  0  0  0  0  0
   38.4140   26.9270   33.4330 C   0  0  0  0  0  0  0  0  0  0  0  0
   37.9140   27.4240   32.2510 C   0  0  0  0  0  0  0  0  0  0  0  0
   36.1340   28.3730   35.4550 H   0  0  0  0  0  0  0  0  0  0  0  0
   38.0650   26.9500   35.5520 H   0  0  0  0  0  0  0  0  0  0  0  0
   39.2800   26.2840   33.5110 H   0  0  0  0  0  0  0  0  0  0  0  0
   38.4960   27.0910   31.3960 H   0  0  0  0  0  0  0  0  0  0  0  0
   34.1080   31.7200   33.4500 C   0  0  0  0  0  0  0  0  0  0  0  0
   35.1630   30.7950   33.5030 C   0  0  0  0  0  0  0  0  0  0  0  0
   34.9840   29.4450   33.2830 C   0  0  0  0  0  0  0  0  0  0  0  0
   33.6980   29.1130   33.0170 N   0  0  0  0  0  0  0  0  0  0  0  0
   32.6650   29.9590   32.9580 C   0  0  0  0  0  0  0  0  0  0  0  0
   32.8710   31.2700   33.1760 N   0  0  0  0  0  0  0  0  0  0  0  0
   34.2510   32.7750   33.6230 H   0  0  0  0  0  0  0  0  0  0  0  0
   36.1190   31.2420   33.7290 H   0  0  0  0  0  0  0  0  0  0  0  0
   31.4500   29.2830   32.6560 N   0  0  0  0  0  0  0  0  0  0  0  0
   30.5150   29.6390   32.3440 H   0  0  0  0  0  0  0  0  0  0  0  0
   31.7160   28.2870   32.8250 H   0  0  0  0  0  0  0  0  0  0  0  0
   36.4820   27.7880   29.8790 N   0  0  0  0  0  0  0  0  0  0  0  0
   36.4760   28.6530   30.8670 C   0  0  0  0  0  0  0  0  0  0  0  0
   36.1200   29.7550   30.0800 N   0  0  0  0  0  0  0  0  0  0  0  0
   36.2500   28.1000   28.9110 H   0  0  0  0  0  0  0  0  0  0  0  0
   35.1850   30.1700   29.8610 H   0  0  0  0  0  0  0  0  0  0  0  0
   36.8340   30.3540   29.5660 H   0  0  0  0  0  0  0  0  0  0  0  0
  1  6  2  0  0  0  0
  1  2  1  0  0  0  0
  2  3  2  0  0  0  0
  3  4  1  0  0  0  0
  3  7  1  0  0  0  0
  4  8  1  0  0  0  0
  5  9  1  0  0  0  0
  5  4  2  0  0  0  0
  6  5  1  0  0  0  0
 10  6  1  0  0  0  0
 11 12  1  0  0  0  0
 11 17  1  0  0  0  0
 12 18  1  0  0  0  0
 13  2  1  0  0  0  0
 13 12  2  0  0  0  0
 14 13  1  0  0  0  0
 15 14  2  0  0  0  0
 15 16  1  0  0  0  0
 16 11  2  0  0  0  0
 19 21  1  0  0  0  0
 19 15  1  0  0  0  0
 20 19  1  0  0  0  0
 22 23  2  0  0  0  0
 23  1  1  0  0  0  0
 24 23  1  0  0  0  0
 25 22  1  0  0  0  0
 26 24  1  0  0  0  0
 27 24  1  0  0  0  0
M  END
>  <minimizedAffinity>
-4.79754448

$$$$

 OpenBabel03272505193D

 27 28  0  0  0  0  0  0  0  0999 V2000
   33.6290   30.3690   35.1690 C   0  0  0  0  0  0  0  0  0  0  0  0
   34.9710   30.4760   34.9480 C   0  0  0  0  0  0  0  0  0  0  0  0
   35.6730   31.3130   35.7760 C   0  0  0  0  0  0  0  0  0  0  0  0
   35.0810   32.0080   36.7700 C   0  0  0  0  0  0  0  0  0  0  0  0
   33.7260   31.9250   37.0210 C   0  0  0  0  0  0  0  0  0  0  0  0
   33.0160   31.0860   36.1940 C   0  0  0  0  0  0  0  0  0  0  0  0
   36.7420   31.4010   35.6040 H   0  0  0  0  0  0  0  0  0  0  0  0
   35.7170   32.6490   37.3800 H   0  0  0  0  0  0  0  0  0  0  0  0
   33.2950   32.5000   37.8300 H   0  0  0  0  0  0  0  0  0  0  0  0
   31.9590   31.0700   36.4490 H   0  0  0  0  0  0  0  0  0  0  0  0
   36.8770   27.7640   33.2410 C   0  0  0  0  0  0  0  0  0  0  0  0
   36.2570   28.5780   34.2020 C   0  0  0  0  0  0  0  0  0  0  0  0
   35.5640   29.7240   33.8740 C   0  0  0  0  0  0  0  0  0  0  0  0
   35.5490   29.9780   32.5420 N   0  0  0  0  0  0  0  0  0  0  0  0
   36.1260   29.2320   31.5960 C   0  0  0  0  0  0  0  0  0  0  0  0
   36.7940   28.1180   31.9460 N   0  0  0  0  0  0  0  0  0  0  0  0
   37.4180   26.8670   33.5010 H   0  0  0  0  0  0  0  0  0  0  0  0
   36.3730   28.2190   35.2120 H   0  0  0  0  0  0  0  0  0  0  0  0
   35.9210   29.7790   30.2990 N   0  0  0  0  0  0  0  0  0  0  0  0
   36.0510   29.3700   29.3420 H   0  0  0  0  0  0  0  0  0  0  0  0
   35.5890   30.7430   30.5280 H   0  0  0  0  0  0  0  0  0  0  0  0
   31.7290   28.9010   35.0900 N   0  0  0  0  0  0  0  0  0  0  0  0
   32.6790   29.5490   34.4570 C   0  0  0  0  0  0  0  0  0  0  0  0
   32.3180   29.1050   33.1790 N   0  0  0  0  0  0  0  0  0  0  0  0
   31.0510   28.3150   34.5560 H   0  0  0  0  0  0  0  0  0  0  0  0
   31.6980   29.5300   32.4520 H   0  0  0  0  0  0  0  0  0  0  0  0
   32.6710   28.1900   32.7640 H   0  0  0  0  0  0  0  0  0  0  0  0
  1  6  1  0  0  0  0
  2  1  2  0  0  0  0
  2  3  1  0  0  0  0
  3  4  2  0  0  0  0
  4  5  1  0  0  0  0
  4  8  1  0  0  0  0
  5  9  1  0  0  0  0
  6 10  1  0  0  0  0
  6  5  2  0  0  0  0
  7  3  1  0  0  0  0
 11 17  1  0  0  0  0
 11 12  1  0  0  0  0
 12 18  1  0  0  0  0
 13 12  2  0  0  0  0
 13  2  1  0  0  0  0
 14 13  1  0  0  0  0
 15 16  1  0  0  0  0
 15 14  2  0  0  0  0
 16 11  2  0  0  0  0
 19 21  1  0  0  0  0
 19 15  1  0  0  0  0
 20 19  1  0  0  0  0
 23 22  2  0  0  0  0
 23  1  1  0  0  0  0
 24 23  1  0  0  0  0
 25 22  1  0  0  0  0
 26 24  1  0  0  0  0
 27 24  1  0  0  0  0
M  END
>  <minimizedAffinity>
-4.78509903

$$$$

 OpenBabel03272505193D

 27 28  0  0  0  0  0  0  0  0999 V2000
   38.1550   24.0680   33.7750 C   0  0  0  0  0  0  0  0  0  0  0  0
   38.5010   24.8690   34.8240 C   0  0  0  0  0  0  0  0  0  0  0  0
   38.6620   26.2060   34.5600 C   0  0  0  0  0  0  0  0  0  0  0  0
   38.4890   26.7220   33.3260 C   0  0  0  0  0  0  0  0  0  0  0  0
   38.1400   25.9420   32.2420 C   0  0  0  0  0  0  0  0  0  0  0  0
   37.9770   24.6000   32.5000 C   0  0  0  0  0  0  0  0  0  0  0  0
   38.9370   26.8460   35.3920 H   0  0  0  0  0  0  0  0  0  0  0  0
   38.6370   27.7950   33.2080 H   0  0  0  0  0  0  0  0  0  0  0  0
   38.0120   26.4000   31.2710 H   0  0  0  0  0  0  0  0  0  0  0  0
   37.7040   24.0480   31.6040 H   0  0  0  0  0  0  0  0  0  0  0  0
   37.9840   24.2500   38.4640 C   0  0  0  0  0  0  0  0  0  0  0  0
   37.8970   24.7480   37.1550 C   0  0  0  0  0  0  0  0  0  0  0  0
   38.6830   24.2790   36.1240 C   0  0  0  0  0  0  0  0  0  0  0  0
   39.5390   23.3010   36.5070 N   0  0  0  0  0  0  0  0  0  0  0  0
   39.6550   22.7990   37.7400 C   0  0  0  0  0  0  0  0  0  0  0  0
   38.8740   23.2760   38.7250 N   0  0  0  0  0  0  0  0  0  0  0  0
   37.3670   24.6190   39.2690 H   0  0  0  0  0  0  0  0  0  0  0  0
   37.1590   25.5260   37.0370 H   0  0  0  0  0  0  0  0  0  0  0  0
   40.6490   21.7820   37.8010 N   0  0  0  0  0  0  0  0  0  0  0  0
   40.8600   21.0580   38.5290 H   0  0  0  0  0  0  0  0  0  0  0  0
   41.1550   21.9280   36.8980 H   0  0  0  0  0  0  0  0  0  0  0  0
   38.8890   21.7860   33.6300 N   0  0  0  0  0  0  0  0  0  0  0  0
   37.9110   22.6460   33.7930 C   0  0  0  0  0  0  0  0  0  0  0  0
   36.9030   21.6840   33.9290 N   0  0  0  0  0  0  0  0  0  0  0  0
   38.6910   20.7610   33.6480 H   0  0  0  0  0  0  0  0  0  0  0  0
   36.4960   21.2310   34.7790 H   0  0  0  0  0  0  0  0  0  0  0  0
   36.3890   21.2620   33.0980 H   0  0  0  0  0  0  0  0  0  0  0  0
  1 23  1  0  0  0  0
  1  2  1  0  0  0  0
  2 13  1  0  0  0  0
  3  2  2  0  0  0  0
  3  7  1  0  0  0  0
  4  3  1  0  0  0  0
  5  6  1  0  0  0  0
  5  4  2  0  0  0  0
  6  1  2  0  0  0  0
  8  4  1  0  0  0  0
  9  5  1  0  0  0  0
 10  6  1  0  0  0  0
 11 16  1  0  0  0  0
 11 17  1  0  0  0  0
 12 11  2  0  0  0  0
 13 14  2  0  0  0  0
 13 12  1  0  0  0  0
 14 15  1  0  0  0  0
 15 19  1  0  0  0  0
 15 16  2  0  0  0  0
 18 12  1  0  0  0  0
 19 20  1  0  0  0  0
 21 19  1  0  0  0  0
 22 25  1  0  0  0  0
 22 23  2  0  0  0  0
 23 24  1  0  0  0  0
 24 26  1  0  0  0  0
 27 24  1  0  0  0  0
M  END
>  <minimizedAffinity>
-4.73940945

$$$$

 OpenBabel03272505193D

 27 28  0  0  0  0  0  0  0  0999 V2000
   37.5590   25.7740   33.8100 C   0  0  0  0  0  0  0  0  0  0  0  0
   37.4050   27.1160   34.0020 C   0  0  0  0  0  0  0  0  0  0  0  0
   37.7810   27.6190   35.2210 C   0  0  0  0  0  0  0  0  0  0  0  0
   38.2850   26.8360   36.1980 C   0  0  0  0  0  0  0  0  0  0  0  0
   38.4540   25.4760   36.0400 C   0  0  0  0  0  0  0  0  0  0  0  0
   38.0780   24.9660   34.8180 C   0  0  0  0  0  0  0  0  0  0  0  0
   37.6600   28.6860   35.3770 H   0  0  0  0  0  0  0  0  0  0  0  0
   38.5580   27.3200   37.1350 H   0  0  0  0  0  0  0  0  0  0  0  0
   38.8620   24.8880   36.8520 H   0  0  0  0  0  0  0  0  0  0  0  0
   38.2380   23.8910   34.7650 H   0  0  0  0  0  0  0  0  0  0  0  0
   35.4560   29.8240   32.3370 C   0  0  0  0  0  0  0  0  0  0  0  0
   36.0460   28.9750   33.2850 C   0  0  0  0  0  0  0  0  0  0  0  0
   36.8580   27.9160   32.9380 C   0  0  0  0  0  0  0  0  0  0  0  0
   37.0200   27.7840   31.5980 N   0  0  0  0  0  0  0  0  0  0  0  0
   36.4780   28.5680   30.6620 C   0  0  0  0  0  0  0  0  0  0  0  0
   35.6910   29.5940   31.0320 N   0  0  0  0  0  0  0  0  0  0  0  0
   34.8220   30.6520   32.6120 H   0  0  0  0  0  0  0  0  0  0  0  0
   35.8050   29.2320   34.3050 H   0  0  0  0  0  0  0  0  0  0  0  0
   36.8500   28.1550   29.3520 N   0  0  0  0  0  0  0  0  0  0  0  0
   36.7790   28.6370   28.4240 H   0  0  0  0  0  0  0  0  0  0  0  0
   37.2360   27.2010   29.5340 H   0  0  0  0  0  0  0  0  0  0  0  0
   38.2080   24.6290   31.8020 N   0  0  0  0  0  0  0  0  0  0  0  0
   37.2590   25.0110   32.6230 C   0  0  0  0  0  0  0  0  0  0  0  0
   36.2090   24.4400   31.8940 N   0  0  0  0  0  0  0  0  0  0  0  0
   37.9700   24.0760   30.9490 H   0  0  0  0  0  0  0  0  0  0  0  0
   35.7460   23.5050   31.9730 H   0  0  0  0  0  0  0  0  0  0  0  0
   35.7170   24.9440   31.0960 H   0  0  0  0  0  0  0  0  0  0  0  0
  1  2  2  0  0  0  0
  1  6  1  0  0  0  0
  2  3  1  0  0  0  0
  3  7  1  0  0  0  0
  3  4  2  0  0  0  0
  4  8  1  0  0  0  0
  5  4  1  0  0  0  0
  5  9  1  0  0  0  0
  6  5  2  0  0  0  0
 10  6  1  0  0  0  0
 11 17  1  0  0  0  0
 11 12  1  0  0  0  0
 12 18  1  0  0  0  0
 13 12  2  0  0  0  0
 13  2  1  0  0  0  0
 14 13  1  0  0  0  0
 15 16  1  0  0  0  0
 15 14  2  0  0  0  0
 16 11  2  0  0  0  0
 19 21  1  0  0  0  0
 19 15  1  0  0  0  0
 20 19  1  0  0  0  0
 22 23  2  0  0  0  0
 23  1  1  0  0  0  0
 24 26  1  0  0  0  0
 24 23  1  0  0  0  0
 25 22  1  0  0  0  0
 27 24  1  0  0  0  0
M  END
>  <minimizedAffinity>
-4.73940277

$$$$
