
 OpenBabel03262522263D

 39 41  0  0  0  0  0  0  0  0999 V2000
   36.6500   28.2260   32.5110 C   0  0  0  0  0  0  0  0  0  0  0  0
   36.0920   28.6970   33.7030 C   0  0  0  0  0  0  0  0  0  0  0  0
   36.5330   28.1180   34.8690 C   0  0  0  0  0  0  0  0  0  0  0  0
   37.4750   27.1360   34.7880 N   0  0  0  0  0  0  0  0  0  0  0  0
   37.9690   26.7280   33.6520 C   0  0  0  0  0  0  0  0  0  0  0  0
   37.5680   27.2690   32.4460 N   0  0  0  0  0  0  0  0  0  0  0  0
   36.3370   28.6500   31.5480 H   0  0  0  0  0  0  0  0  0  0  0  0
   36.1400   28.4470   35.8300 H   0  0  0  0  0  0  0  0  0  0  0  0
   35.1630   29.6770   33.6320 O   0  0  0  0  0  0  0  0  0  0  0  0
   34.9640   30.5130   34.7200 C   0  0  0  0  0  0  0  0  0  0  0  0
   35.8610   31.4050   35.2670 C   0  0  0  0  0  0  0  0  0  0  0  0
   35.4910   32.1420   36.3330 C   0  0  0  0  0  0  0  0  0  0  0  0
   34.2420   31.9900   36.8450 C   0  0  0  0  0  0  0  0  0  0  0  0
   33.3380   31.0850   36.2850 C   0  0  0  0  0  0  0  0  0  0  0  0
   33.7290   30.3480   35.2090 N   0  0  0  0  0  0  0  0  0  0  0  0
   36.8340   31.4530   34.7980 H   0  0  0  0  0  0  0  0  0  0  0  0
   36.2000   32.8380   36.7550 H   0  0  0  0  0  0  0  0  0  0  0  0
   33.9520   32.5930   37.7090 H   0  0  0  0  0  0  0  0  0  0  0  0
   31.9490   30.9270   36.8740 C   0  0  0  0  0  0  0  0  0  0  0  0
   31.4970   30.0710   36.3740 H   0  0  0  0  0  0  0  0  0  0  0  0
   32.1440   30.6480   37.9340 H   0  0  0  0  0  0  0  0  0  0  0  0
   31.4150   31.8820   36.7860 H   0  0  0  0  0  0  0  0  0  0  0  0
   39.1940   25.4150   33.8700 S   0  0  0  0  0  0  0  0  0  0  0  0
   38.2220   23.9590   34.3430 C   0  0  0  0  0  0  0  0  0  0  0  0
   37.1630   24.1150   34.0990 H   0  0  0  0  0  0  0  0  0  0  0  0
   38.5730   23.0250   33.8590 H   0  0  0  0  0  0  0  0  0  0  0  0
   40.1780   22.2160   35.2040 F   0  0  0  0  0  0  0  0  0  0  0  0
   39.4310   22.8830   36.1380 C   0  0  0  0  0  0  0  0  0  0  0  0
   38.4200   23.7830   35.8150 C   0  0  0  0  0  0  0  0  0  0  0  0
   37.7050   24.4210   36.7880 C   0  0  0  0  0  0  0  0  0  0  0  0
   37.9760   24.1800   38.1490 C   0  0  0  0  0  0  0  0  0  0  0  0
   38.9840   23.2840   38.4820 C   0  0  0  0  0  0  0  0  0  0  0  0
   39.6910   22.6530   37.4780 C   0  0  0  0  0  0  0  0  0  0  0  0
   36.9450   25.0970   36.4370 H   0  0  0  0  0  0  0  0  0  0  0  0
   37.3720   24.7190   38.8570 H   0  0  0  0  0  0  0  0  0  0  0  0
   39.1710   23.1180   39.5370 H   0  0  0  0  0  0  0  0  0  0  0  0
   40.7200   21.7370   37.8330 N   0  0  0  0  0  0  0  0  0  0  0  0
   40.6960   21.0520   37.0280 H   0  0  0  0  0  0  0  0  0  0  0  0
   41.3040   21.8070   38.6980 H   0  0  0  0  0  0  0  0  0  0  0  0
  1  2  1  0  0  0  0
  2  3  2  0  0  0  0
  3  8  1  0  0  0  0
  4  3  1  0  0  0  0
  5 23  1  0  0  0  0
  5  4  2  0  0  0  0
  6  1  2  0  0  0  0
  6  5  1  0  0  0  0
  7  1  1  0  0  0  0
  9  2  1  0  0  0  0
  9 10  1  0  0  0  0
 10 15  2  0  0  0  0
 10 11  1  0  0  0  0
 11 12  2  0  0  0  0
 12 17  1  0  0  0  0
 12 13  1  0  0  0  0
 13 18  1  0  0  0  0
 14 13  2  0  0  0  0
 14 19  1  0  0  0  0
 15 14  1  0  0  0  0
 16 11  1  0  0  0  0
 19 21  1  0  0  0  0
 20 19  1  0  0  0  0
 22 19  1  0  0  0  0
 23 24  1  0  0  0  0
 24 29  1  0  0  0  0
 25 24  1  0  0  0  0
 26 24  1  0  0  0  0
 27 28  1  0  0  0  0
 28 33  1  0  0  0  0
 29 28  2  0  0  0  0
 29 30  1  0  0  0  0
 30 31  2  0  0  0  0
 31 32  1  0  0  0  0
 31 35  1  0  0  0  0
 32 36  1  0  0  0  0
 33 37  1  0  0  0  0
 33 32  2  0  0  0  0
 34 30  1  0  0  0  0
 37 39  1  0  0  0  0
 38 37  1  0  0  0  0
M  END
>  <minimizedAffinity>
-6.33182478

$$$$

 OpenBabel03262522263D

 39 41  0  0  0  0  0  0  0  0999 V2000
   36.7740   28.2850   32.4230 C   0  0  0  0  0  0  0  0  0  0  0  0
   36.1580   28.6170   33.6330 C   0  0  0  0  0  0  0  0  0  0  0  0
   36.6150   27.9780   34.7610 C   0  0  0  0  0  0  0  0  0  0  0  0
   37.6270   27.0740   34.6280 N   0  0  0  0  0  0  0  0  0  0  0  0
   38.1720   26.7940   33.4770 C   0  0  0  0  0  0  0  0  0  0  0  0
   37.7590   27.4020   32.3070 N   0  0  0  0  0  0  0  0  0  0  0  0
   36.4510   28.7630   31.4900 H   0  0  0  0  0  0  0  0  0  0  0  0
   36.1800   28.1990   35.7340 H   0  0  0  0  0  0  0  0  0  0  0  0
   35.1630   29.5330   33.6160 O   0  0  0  0  0  0  0  0  0  0  0  0
   34.9930   30.3810   34.7000 C   0  0  0  0  0  0  0  0  0  0  0  0
   35.9120   31.2640   35.2270 C   0  0  0  0  0  0  0  0  0  0  0  0
   35.5670   32.0150   36.2910 C   0  0  0  0  0  0  0  0  0  0  0  0
   34.3230   31.8860   36.8220 C   0  0  0  0  0  0  0  0  0  0  0  0
   33.3980   30.9900   36.2830 C   0  0  0  0  0  0  0  0  0  0  0  0
   33.7630   30.2380   35.2070 N   0  0  0  0  0  0  0  0  0  0  0  0
   36.8780   31.2930   34.7430 H   0  0  0  0  0  0  0  0  0  0  0  0
   36.2930   32.7030   36.6980 H   0  0  0  0  0  0  0  0  0  0  0  0
   34.0560   32.5000   37.6860 H   0  0  0  0  0  0  0  0  0  0  0  0
   32.0150   30.8580   36.8940 C   0  0  0  0  0  0  0  0  0  0  0  0
   31.5440   30.0050   36.4070 H   0  0  0  0  0  0  0  0  0  0  0  0
   32.2220   30.5850   37.9520 H   0  0  0  0  0  0  0  0  0  0  0  0
   31.4950   31.8190   36.8050 H   0  0  0  0  0  0  0  0  0  0  0  0
   39.4820   25.5560   33.6220 S   0  0  0  0  0  0  0  0  0  0  0  0
   38.6300   24.0520   34.1730 C   0  0  0  0  0  0  0  0  0  0  0  0
   37.6050   24.2920   34.4850 H   0  0  0  0  0  0  0  0  0  0  0  0
   38.5990   23.2610   33.3970 H   0  0  0  0  0  0  0  0  0  0  0  0
   37.4220   23.8390   36.6430 F   0  0  0  0  0  0  0  0  0  0  0  0
   38.7270   23.4450   36.5100 C   0  0  0  0  0  0  0  0  0  0  0  0
   39.4320   23.5100   35.3110 C   0  0  0  0  0  0  0  0  0  0  0  0
   40.7330   23.1030   35.2350 C   0  0  0  0  0  0  0  0  0  0  0  0
   41.3950   22.6050   36.3750 C   0  0  0  0  0  0  0  0  0  0  0  0
   40.7000   22.5360   37.5760 C   0  0  0  0  0  0  0  0  0  0  0  0
   39.3850   22.9540   37.6240 C   0  0  0  0  0  0  0  0  0  0  0  0
   41.1910   23.1920   34.2660 H   0  0  0  0  0  0  0  0  0  0  0  0
   42.4180   22.3050   36.2380 H   0  0  0  0  0  0  0  0  0  0  0  0
   41.2330   22.1490   38.4360 H   0  0  0  0  0  0  0  0  0  0  0  0
   38.6850   22.8780   38.8610 N   0  0  0  0  0  0  0  0  0  0  0  0
   38.0090   23.6880   38.7830 H   0  0  0  0  0  0  0  0  0  0  0  0
   38.8640   22.1610   39.6010 H   0  0  0  0  0  0  0  0  0  0  0  0
  1  2  1  0  0  0  0
  2  3  2  0  0  0  0
  3  8  1  0  0  0  0
  4  3  1  0  0  0  0
  5 23  1  0  0  0  0
  5  4  2  0  0  0  0
  6  1  2  0  0  0  0
  6  5  1  0  0  0  0
  7  1  1  0  0  0  0
  9  2  1  0  0  0  0
  9 10  1  0  0  0  0
 10 15  2  0  0  0  0
 10 11  1  0  0  0  0
 11 12  2  0  0  0  0
 12 17  1  0  0  0  0
 12 13  1  0  0  0  0
 13 18  1  0  0  0  0
 14 13  2  0  0  0  0
 14 19  1  0  0  0  0
 15 14  1  0  0  0  0
 16 11  1  0  0  0  0
 19 21  1  0  0  0  0
 20 19  1  0  0  0  0
 22 19  1  0  0  0  0
 23 24  1  0  0  0  0
 24 25  1  0  0  0  0
 24 29  1  0  0  0  0
 26 24  1  0  0  0  0
 28 27  1  0  0  0  0
 28 33  1  0  0  0  0
 29 28  2  0  0  0  0
 30 29  1  0  0  0  0
 30 31  2  0  0  0  0
 31 32  1  0  0  0  0
 32 33  2  0  0  0  0
 32 36  1  0  0  0  0
 33 37  1  0  0  0  0
 34 30  1  0  0  0  0
 35 31  1  0  0  0  0
 37 39  1  0  0  0  0
 38 37  1  0  0  0  0
M  END
>  <minimizedAffinity>
-6.07512522

$$$$

 OpenBabel03262522263D

 39 41  0  0  0  0  0  0  0  0999 V2000
   36.5240   28.1290   32.4560 C   0  0  0  0  0  0  0  0  0  0  0  0
   36.0030   28.6760   33.6320 C   0  0  0  0  0  0  0  0  0  0  0  0
   36.4900   28.1820   34.8190 C   0  0  0  0  0  0  0  0  0  0  0  0
   37.4380   27.2040   34.7730 N   0  0  0  0  0  0  0  0  0  0  0  0
   37.8960   26.7230   33.6510 C   0  0  0  0  0  0  0  0  0  0  0  0
   37.4490   27.1760   32.4260 N   0  0  0  0  0  0  0  0  0  0  0  0
   36.1740   28.4830   31.4790 H   0  0  0  0  0  0  0  0  0  0  0  0
   36.1270   28.5740   35.7680 H   0  0  0  0  0  0  0  0  0  0  0  0
   35.0620   29.6420   33.5270 O   0  0  0  0  0  0  0  0  0  0  0  0
   34.9300   30.5840   34.5360 C   0  0  0  0  0  0  0  0  0  0  0  0
   33.9610   30.6330   35.5150 C   0  0  0  0  0  0  0  0  0  0  0  0
   33.9900   31.6300   36.4210 C   0  0  0  0  0  0  0  0  0  0  0  0
   34.9740   32.5650   36.3500 C   0  0  0  0  0  0  0  0  0  0  0  0
   35.9520   32.5080   35.3550 C   0  0  0  0  0  0  0  0  0  0  0  0
   35.9070   31.4940   34.4480 N   0  0  0  0  0  0  0  0  0  0  0  0
   33.2140   29.8510   35.4890 H   0  0  0  0  0  0  0  0  0  0  0  0
   33.2270   31.6610   37.1850 H   0  0  0  0  0  0  0  0  0  0  0  0
   34.9880   33.3690   37.0900 H   0  0  0  0  0  0  0  0  0  0  0  0
   37.0400   33.5640   35.2910 C   0  0  0  0  0  0  0  0  0  0  0  0
   37.5780   33.3960   34.3580 H   0  0  0  0  0  0  0  0  0  0  0  0
   36.4740   34.5180   35.2000 H   0  0  0  0  0  0  0  0  0  0  0  0
   37.6340   33.5180   36.2120 H   0  0  0  0  0  0  0  0  0  0  0  0
   39.1410   25.4370   33.9160 S   0  0  0  0  0  0  0  0  0  0  0  0
   38.1880   23.9750   34.4120 C   0  0  0  0  0  0  0  0  0  0  0  0
   37.1230   24.1250   34.1910 H   0  0  0  0  0  0  0  0  0  0  0  0
   38.5340   23.0430   33.9210 H   0  0  0  0  0  0  0  0  0  0  0  0
   40.1170   22.1840   35.2330 F   0  0  0  0  0  0  0  0  0  0  0  0
   39.4130   22.8770   36.1820 C   0  0  0  0  0  0  0  0  0  0  0  0
   38.4190   23.8030   35.8790 C   0  0  0  0  0  0  0  0  0  0  0  0
   37.7480   24.4650   36.8660 C   0  0  0  0  0  0  0  0  0  0  0  0
   38.0480   24.2250   38.2210 C   0  0  0  0  0  0  0  0  0  0  0  0
   39.0380   23.3030   38.5340 C   0  0  0  0  0  0  0  0  0  0  0  0
   39.7020   22.6480   37.5160 C   0  0  0  0  0  0  0  0  0  0  0  0
   36.9980   25.1610   36.5310 H   0  0  0  0  0  0  0  0  0  0  0  0
   37.4780   24.7840   38.9410 H   0  0  0  0  0  0  0  0  0  0  0  0
   39.2490   23.1380   39.5840 H   0  0  0  0  0  0  0  0  0  0  0  0
   40.7140   21.7050   37.8500 N   0  0  0  0  0  0  0  0  0  0  0  0
   40.6500   21.0170   37.0500 H   0  0  0  0  0  0  0  0  0  0  0  0
   41.3220   21.7640   38.6990 H   0  0  0  0  0  0  0  0  0  0  0  0
  1  2  1  0  0  0  0
  2  3  2  0  0  0  0
  3  8  1  0  0  0  0
  4  3  1  0  0  0  0
  5 23  1  0  0  0  0
  5  4  2  0  0  0  0
  6  1  2  0  0  0  0
  6  5  1  0  0  0  0
  7  1  1  0  0  0  0
  9  2  1  0  0  0  0
  9 10  1  0  0  0  0
 10 11  1  0  0  0  0
 11 12  2  0  0  0  0
 12 17  1  0  0  0  0
 13 12  1  0  0  0  0
 13 18  1  0  0  0  0
 14 13  2  0  0  0  0
 15 10  2  0  0  0  0
 15 14  1  0  0  0  0
 16 11  1  0  0  0  0
 19 14  1  0  0  0  0
 19 22  1  0  0  0  0
 20 19  1  0  0  0  0
 21 19  1  0  0  0  0
 23 24  1  0  0  0  0
 24 29  1  0  0  0  0
 25 24  1  0  0  0  0
 26 24  1  0  0  0  0
 27 28  1  0  0  0  0
 28 33  1  0  0  0  0
 29 28  2  0  0  0  0
 29 30  1  0  0  0  0
 30 31  2  0  0  0  0
 31 32  1  0  0  0  0
 31 35  1  0  0  0  0
 32 36  1  0  0  0  0
 33 37  1  0  0  0  0
 33 32  2  0  0  0  0
 34 30  1  0  0  0  0
 37 39  1  0  0  0  0
 38 37  1  0  0  0  0
M  END
>  <minimizedAffinity>
-5.99074793

$$$$

 OpenBabel03262522263D

 39 41  0  0  0  0  0  0  0  0999 V2000
   36.2990   28.1090   32.5330 C   0  0  0  0  0  0  0  0  0  0  0  0
   35.9610   28.8190   33.6890 C   0  0  0  0  0  0  0  0  0  0  0  0
   36.6060   28.4630   34.8500 C   0  0  0  0  0  0  0  0  0  0  0  0
   37.5220   27.4540   34.7980 N   0  0  0  0  0  0  0  0  0  0  0  0
   37.8050   26.8190   33.6960 C   0  0  0  0  0  0  0  0  0  0  0  0
   37.1930   27.1280   32.4970 N   0  0  0  0  0  0  0  0  0  0  0  0
   35.8170   28.3490   31.5770 H   0  0  0  0  0  0  0  0  0  0  0  0
   36.3900   28.9840   35.7810 H   0  0  0  0  0  0  0  0  0  0  0  0
   35.0310   29.7960   33.5920 O   0  0  0  0  0  0  0  0  0  0  0  0
   33.6960   29.4970   33.8200 C   0  0  0  0  0  0  0  0  0  0  0  0
   32.7570   29.0940   32.8950 C   0  0  0  0  0  0  0  0  0  0  0  0
   31.4960   28.8460   33.3020 C   0  0  0  0  0  0  0  0  0  0  0  0
   31.1780   28.9990   34.6140 C   0  0  0  0  0  0  0  0  0  0  0  0
   32.1350   29.4080   35.5450 C   0  0  0  0  0  0  0  0  0  0  0  0
   33.4040   29.6550   35.1170 N   0  0  0  0  0  0  0  0  0  0  0  0
   33.0990   29.0070   31.8730 H   0  0  0  0  0  0  0  0  0  0  0  0
   30.7670   28.5310   32.5710 H   0  0  0  0  0  0  0  0  0  0  0  0
   30.1530   28.7950   34.9320 H   0  0  0  0  0  0  0  0  0  0  0  0
   31.7590   29.5760   37.0050 C   0  0  0  0  0  0  0  0  0  0  0  0
   32.6150   30.0410   37.4930 H   0  0  0  0  0  0  0  0  0  0  0  0
   30.9290   30.3170   36.9780 H   0  0  0  0  0  0  0  0  0  0  0  0
   31.4380   28.6060   37.4040 H   0  0  0  0  0  0  0  0  0  0  0  0
   39.0530   25.5340   33.9480 S   0  0  0  0  0  0  0  0  0  0  0  0
   38.1050   24.0650   34.4300 C   0  0  0  0  0  0  0  0  0  0  0  0
   37.0390   24.2160   34.2160 H   0  0  0  0  0  0  0  0  0  0  0  0
   38.4500   23.1400   33.9260 H   0  0  0  0  0  0  0  0  0  0  0  0
   40.0400   22.2660   35.2200 F   0  0  0  0  0  0  0  0  0  0  0  0
   39.3390   22.9460   36.1810 C   0  0  0  0  0  0  0  0  0  0  0  0
   38.3430   23.8750   35.8940 C   0  0  0  0  0  0  0  0  0  0  0  0
   37.6750   24.5240   36.8920 C   0  0  0  0  0  0  0  0  0  0  0  0
   37.9810   24.2670   38.2420 C   0  0  0  0  0  0  0  0  0  0  0  0
   38.9750   23.3420   38.5390 C   0  0  0  0  0  0  0  0  0  0  0  0
   39.6340   22.7010   37.5100 C   0  0  0  0  0  0  0  0  0  0  0  0
   36.9230   25.2220   36.5690 H   0  0  0  0  0  0  0  0  0  0  0  0
   37.4140   24.8170   38.9720 H   0  0  0  0  0  0  0  0  0  0  0  0
   39.1900   23.1640   39.5870 H   0  0  0  0  0  0  0  0  0  0  0  0
   40.6490   21.7550   37.8280 N   0  0  0  0  0  0  0  0  0  0  0  0
   40.5820   21.0770   37.0200 H   0  0  0  0  0  0  0  0  0  0  0  0
   41.2610   21.8040   38.6750 H   0  0  0  0  0  0  0  0  0  0  0  0
  1  2  1  0  0  0  0
  2  3  2  0  0  0  0
  3  8  1  0  0  0  0
  4  3  1  0  0  0  0
  5 23  1  0  0  0  0
  5  4  2  0  0  0  0
  6  1  2  0  0  0  0
  6  5  1  0  0  0  0
  7  1  1  0  0  0  0
  9  2  1  0  0  0  0
  9 10  1  0  0  0  0
 10 15  1  0  0  0  0
 11 12  1  0  0  0  0
 11 10  2  0  0  0  0
 12 13  2  0  0  0  0
 13 18  1  0  0  0  0
 13 14  1  0  0  0  0
 14 19  1  0  0  0  0
 15 14  2  0  0  0  0
 16 11  1  0  0  0  0
 17 12  1  0  0  0  0
 19 22  1  0  0  0  0
 19 20  1  0  0  0  0
 21 19  1  0  0  0  0
 23 24  1  0  0  0  0
 24 29  1  0  0  0  0
 25 24  1  0  0  0  0
 26 24  1  0  0  0  0
 27 28  1  0  0  0  0
 28 33  1  0  0  0  0
 29 28  2  0  0  0  0
 29 30  1  0  0  0  0
 30 31  2  0  0  0  0
 31 32  1  0  0  0  0
 31 35  1  0  0  0  0
 32 36  1  0  0  0  0
 33 37  1  0  0  0  0
 33 32  2  0  0  0  0
 34 30  1  0  0  0  0
 37 39  1  0  0  0  0
 38 37  1  0  0  0  0
M  END
>  <minimizedAffinity>
-5.94745445

$$$$

 OpenBabel03262522263D

 39 41  0  0  0  0  0  0  0  0999 V2000
   35.9790   27.2510   31.3760 C   0  0  0  0  0  0  0  0  0  0  0  0
   35.7880   28.2620   32.3220 C   0  0  0  0  0  0  0  0  0  0  0  0
   36.3140   28.0520   33.5750 C   0  0  0  0  0  0  0  0  0  0  0  0
   36.9800   26.8860   33.8100 N   0  0  0  0  0  0  0  0  0  0  0  0
   37.1340   25.9690   32.8960 C   0  0  0  0  0  0  0  0  0  0  0  0
   36.6310   26.1190   31.6190 N   0  0  0  0  0  0  0  0  0  0  0  0
   35.5820   27.3630   30.3600 H   0  0  0  0  0  0  0  0  0  0  0  0
   36.2030   28.8060   34.3520 H   0  0  0  0  0  0  0  0  0  0  0  0
   35.1040   29.3680   31.9490 O   0  0  0  0  0  0  0  0  0  0  0  0
   35.7040   30.6140   32.0550 C   0  0  0  0  0  0  0  0  0  0  0  0
   35.5930   31.5110   33.0960 C   0  0  0  0  0  0  0  0  0  0  0  0
   36.2530   32.6840   33.0270 C   0  0  0  0  0  0  0  0  0  0  0  0
   37.0130   32.9570   31.9330 C   0  0  0  0  0  0  0  0  0  0  0  0
   37.1200   32.0430   30.8830 C   0  0  0  0  0  0  0  0  0  0  0  0
   36.4460   30.8630   30.9700 N   0  0  0  0  0  0  0  0  0  0  0  0
   34.9610   31.2120   33.9210 H   0  0  0  0  0  0  0  0  0  0  0  0
   36.1610   33.3810   33.8460 H   0  0  0  0  0  0  0  0  0  0  0  0
   37.5430   33.9120   31.8880 H   0  0  0  0  0  0  0  0  0  0  0  0
   37.9700   32.3680   29.6700 C   0  0  0  0  0  0  0  0  0  0  0  0
   37.7740   31.5850   28.9370 H   0  0  0  0  0  0  0  0  0  0  0  0
   37.5310   33.3180   29.2900 H   0  0  0  0  0  0  0  0  0  0  0  0
   39.0130   32.4880   29.9880 H   0  0  0  0  0  0  0  0  0  0  0  0
   38.0560   24.5380   33.5100 S   0  0  0  0  0  0  0  0  0  0  0  0
   39.2750   25.2380   34.6560 C   0  0  0  0  0  0  0  0  0  0  0  0
   40.2920   25.0270   34.3010 H   0  0  0  0  0  0  0  0  0  0  0  0
   39.1600   26.3320   34.7980 H   0  0  0  0  0  0  0  0  0  0  0  0
   40.8330   23.0880   35.3990 F   0  0  0  0  0  0  0  0  0  0  0  0
   39.8600   23.5260   36.2570 C   0  0  0  0  0  0  0  0  0  0  0  0
   39.0180   24.6000   35.9830 C   0  0  0  0  0  0  0  0  0  0  0  0
   38.0630   24.9940   36.8750 C   0  0  0  0  0  0  0  0  0  0  0  0
   37.9070   24.3190   38.1010 C   0  0  0  0  0  0  0  0  0  0  0  0
   38.7430   23.2460   38.3850 C   0  0  0  0  0  0  0  0  0  0  0  0
   39.7000   22.8690   37.4650 C   0  0  0  0  0  0  0  0  0  0  0  0
   37.4630   25.8340   36.5710 H   0  0  0  0  0  0  0  0  0  0  0  0
   37.1350   24.6870   38.7530 H   0  0  0  0  0  0  0  0  0  0  0  0
   38.6010   22.7450   39.3360 H   0  0  0  0  0  0  0  0  0  0  0  0
   40.5490   21.7670   37.7680 N   0  0  0  0  0  0  0  0  0  0  0  0
   40.7480   21.3690   36.8090 H   0  0  0  0  0  0  0  0  0  0  0  0
   40.8490   21.4980   38.7330 H   0  0  0  0  0  0  0  0  0  0  0  0
  1  6  2  0  0  0  0
  1  2  1  0  0  0  0
  2  3  2  0  0  0  0
  3  4  1  0  0  0  0
  3  8  1  0  0  0  0
  5 23  1  0  0  0  0
  5  4  2  0  0  0  0
  6  5  1  0  0  0  0
  7  1  1  0  0  0  0
  9 10  1  0  0  0  0
  9  2  1  0  0  0  0
 10 11  1  0  0  0  0
 11 16  1  0  0  0  0
 12 11  2  0  0  0  0
 12 17  1  0  0  0  0
 13 12  1  0  0  0  0
 14 15  1  0  0  0  0
 14 13  2  0  0  0  0
 15 10  2  0  0  0  0
 18 13  1  0  0  0  0
 19 22  1  0  0  0  0
 19 14  1  0  0  0  0
 20 19  1  0  0  0  0
 21 19  1  0  0  0  0
 23 24  1  0  0  0  0
 24 26  1  0  0  0  0
 24 29  1  0  0  0  0
 25 24  1  0  0  0  0
 27 28  1  0  0  0  0
 28 33  1  0  0  0  0
 29 28  2  0  0  0  0
 29 30  1  0  0  0  0
 30 31  2  0  0  0  0
 31 32  1  0  0  0  0
 31 35  1  0  0  0  0
 32 36  1  0  0  0  0
 33 37  1  0  0  0  0
 33 32  2  0  0  0  0
 34 30  1  0  0  0  0
 37 39  1  0  0  0  0
 38 37  1  0  0  0  0
M  END
>  <minimizedAffinity>
-5.82163239

$$$$

 OpenBabel03262522263D

 39 41  0  0  0  0  0  0  0  0999 V2000
   37.4390   25.4120   33.0200 C   0  0  0  0  0  0  0  0  0  0  0  0
   37.0040   24.5930   31.9740 C   0  0  0  0  0  0  0  0  0  0  0  0
   36.0440   25.1110   31.1360 C   0  0  0  0  0  0  0  0  0  0  0  0
   35.5870   26.3720   31.3760 N   0  0  0  0  0  0  0  0  0  0  0  0
   36.0230   27.1010   32.3650 C   0  0  0  0  0  0  0  0  0  0  0  0
   36.9850   26.6400   33.2420 N   0  0  0  0  0  0  0  0  0  0  0  0
   38.2030   25.0540   33.7210 H   0  0  0  0  0  0  0  0  0  0  0  0
   35.6700   24.5230   30.2990 H   0  0  0  0  0  0  0  0  0  0  0  0
   37.5460   23.3600   31.8580 O   0  0  0  0  0  0  0  0  0  0  0  0
   36.7560   22.2400   32.0770 C   0  0  0  0  0  0  0  0  0  0  0  0
   36.1590   21.4370   31.1290 C   0  0  0  0  0  0  0  0  0  0  0  0
   35.4220   20.3830   31.5290 C   0  0  0  0  0  0  0  0  0  0  0  0
   35.2820   20.1350   32.8580 C   0  0  0  0  0  0  0  0  0  0  0  0
   35.8900   20.9530   33.8120 C   0  0  0  0  0  0  0  0  0  0  0  0
   36.6310   22.0140   33.3900 N   0  0  0  0  0  0  0  0  0  0  0  0
   36.3200   21.7160   30.0960 H   0  0  0  0  0  0  0  0  0  0  0  0
   34.9580   19.7590   30.7800 H   0  0  0  0  0  0  0  0  0  0  0  0
   34.6810   19.2770   33.1710 H   0  0  0  0  0  0  0  0  0  0  0  0
   35.7190   20.6610   35.2910 C   0  0  0  0  0  0  0  0  0  0  0  0
   36.1470   21.5090   35.8240 H   0  0  0  0  0  0  0  0  0  0  0  0
   34.6150   20.6810   35.4360 H   0  0  0  0  0  0  0  0  0  0  0  0
   36.1510   19.6770   35.5110 H   0  0  0  0  0  0  0  0  0  0  0  0
   35.2240   28.7230   32.4240 S   0  0  0  0  0  0  0  0  0  0  0  0
   36.0070   29.5660   33.8270 C   0  0  0  0  0  0  0  0  0  0  0  0
   36.6210   28.8580   34.3990 H   0  0  0  0  0  0  0  0  0  0  0  0
   36.6350   30.4270   33.5210 H   0  0  0  0  0  0  0  0  0  0  0  0
   36.6370   31.3020   35.8750 F   0  0  0  0  0  0  0  0  0  0  0  0
   35.3220   30.9810   35.6630 C   0  0  0  0  0  0  0  0  0  0  0  0
   34.8940   30.1160   34.6590 C   0  0  0  0  0  0  0  0  0  0  0  0
   33.5690   29.8300   34.4930 C   0  0  0  0  0  0  0  0  0  0  0  0
   32.6010   30.4070   35.3370 C   0  0  0  0  0  0  0  0  0  0  0  0
   33.0180   31.2710   36.3410 C   0  0  0  0  0  0  0  0  0  0  0  0
   34.3640   31.5430   36.4870 C   0  0  0  0  0  0  0  0  0  0  0  0
   33.3390   29.1510   33.6900 H   0  0  0  0  0  0  0  0  0  0  0  0
   31.5790   30.1340   35.1450 H   0  0  0  0  0  0  0  0  0  0  0  0
   32.2520   31.7010   36.9760 H   0  0  0  0  0  0  0  0  0  0  0  0
   34.7780   32.4300   37.5200 N   0  0  0  0  0  0  0  0  0  0  0  0
   35.7360   32.0550   37.7640 H   0  0  0  0  0  0  0  0  0  0  0  0
   34.2060   33.2280   37.8810 H   0  0  0  0  0  0  0  0  0  0  0  0
  1  6  1  0  0  0  0
  1  7  1  0  0  0  0
  2  1  2  0  0  0  0
  3  4  2  0  0  0  0
  3  2  1  0  0  0  0
  4  5  1  0  0  0  0
  5 23  1  0  0  0  0
  5  6  2  0  0  0  0
  8  3  1  0  0  0  0
  9  2  1  0  0  0  0
  9 10  1  0  0  0  0
 10 15  1  0  0  0  0
 11 12  1  0  0  0  0
 11 10  2  0  0  0  0
 12 13  2  0  0  0  0
 13 18  1  0  0  0  0
 13 14  1  0  0  0  0
 14 19  1  0  0  0  0
 15 14  2  0  0  0  0
 16 11  1  0  0  0  0
 17 12  1  0  0  0  0
 19 21  1  0  0  0  0
 19 22  1  0  0  0  0
 19 20  1  0  0  0  0
 23 24  1  0  0  0  0
 24 25  1  0  0  0  0
 24 29  1  0  0  0  0
 26 24  1  0  0  0  0
 28 27  1  0  0  0  0
 28 33  1  0  0  0  0
 29 28  2  0  0  0  0
 30 29  1  0  0  0  0
 30 31  2  0  0  0  0
 31 32  1  0  0  0  0
 32 33  2  0  0  0  0
 32 36  1  0  0  0  0
 33 37  1  0  0  0  0
 34 30  1  0  0  0  0
 35 31  1  0  0  0  0
 37 38  1  0  0  0  0
 37 39  1  0  0  0  0
M  END
>  <minimizedAffinity>
-5.76944113

$$$$

 OpenBabel03262522263D

 39 41  0  0  0  0  0  0  0  0999 V2000
   36.1560   28.2980   32.5330 C   0  0  0  0  0  0  0  0  0  0  0  0
   35.8280   28.8990   33.7520 C   0  0  0  0  0  0  0  0  0  0  0  0
   36.5150   28.4690   34.8630 C   0  0  0  0  0  0  0  0  0  0  0  0
   37.4590   27.4990   34.7050 N   0  0  0  0  0  0  0  0  0  0  0  0
   37.7330   26.9670   33.5470 C   0  0  0  0  0  0  0  0  0  0  0  0
   37.0790   27.3540   32.3930 N   0  0  0  0  0  0  0  0  0  0  0  0
   35.6420   28.6000   31.6120 H   0  0  0  0  0  0  0  0  0  0  0  0
   36.3080   28.9040   35.8390 H   0  0  0  0  0  0  0  0  0  0  0  0
   34.8660   29.8490   33.7590 O   0  0  0  0  0  0  0  0  0  0  0  0
   34.8450   30.7950   34.7740 C   0  0  0  0  0  0  0  0  0  0  0  0
   33.9720   30.8640   35.8380 C   0  0  0  0  0  0  0  0  0  0  0  0
   34.1030   31.8620   36.7340 C   0  0  0  0  0  0  0  0  0  0  0  0
   35.0920   32.7790   36.5680 C   0  0  0  0  0  0  0  0  0  0  0  0
   35.9730   32.7030   35.4870 C   0  0  0  0  0  0  0  0  0  0  0  0
   35.8250   31.6880   34.5920 N   0  0  0  0  0  0  0  0  0  0  0  0
   33.2120   30.0950   35.8840 H   0  0  0  0  0  0  0  0  0  0  0  0
   33.4140   31.9080   37.5640 H   0  0  0  0  0  0  0  0  0  0  0  0
   35.1880   33.5840   37.3010 H   0  0  0  0  0  0  0  0  0  0  0  0
   37.0680   33.7390   35.3190 C   0  0  0  0  0  0  0  0  0  0  0  0
   37.5140   33.5590   34.3410 H   0  0  0  0  0  0  0  0  0  0  0  0
   36.5120   34.7020   35.2770 H   0  0  0  0  0  0  0  0  0  0  0  0
   37.7440   33.6840   36.1810 H   0  0  0  0  0  0  0  0  0  0  0  0
   39.0260   25.7070   33.6600 S   0  0  0  0  0  0  0  0  0  0  0  0
   38.1860   24.2500   34.3390 C   0  0  0  0  0  0  0  0  0  0  0  0
   37.2310   24.5430   34.7950 H   0  0  0  0  0  0  0  0  0  0  0  0
   38.0010   23.4620   33.5810 H   0  0  0  0  0  0  0  0  0  0  0  0
   37.2600   23.8890   36.9110 F   0  0  0  0  0  0  0  0  0  0  0  0
   38.5470   23.5260   36.6170 C   0  0  0  0  0  0  0  0  0  0  0  0
   39.1150   23.6650   35.3530 C   0  0  0  0  0  0  0  0  0  0  0  0
   40.4050   23.2870   35.1150 C   0  0  0  0  0  0  0  0  0  0  0  0
   41.1950   22.7450   36.1470 C   0  0  0  0  0  0  0  0  0  0  0  0
   40.6370   22.6020   37.4120 C   0  0  0  0  0  0  0  0  0  0  0  0
   39.3300   22.9920   37.6250 C   0  0  0  0  0  0  0  0  0  0  0  0
   40.7530   23.4340   34.1070 H   0  0  0  0  0  0  0  0  0  0  0  0
   42.2010   22.4710   35.8840 H   0  0  0  0  0  0  0  0  0  0  0  0
   41.2670   22.1820   38.1870 H   0  0  0  0  0  0  0  0  0  0  0  0
   38.7710   22.8400   38.9250 N   0  0  0  0  0  0  0  0  0  0  0  0
   38.0800   23.6400   38.9640 H   0  0  0  0  0  0  0  0  0  0  0  0
   39.0400   22.0900   39.6020 H   0  0  0  0  0  0  0  0  0  0  0  0
  1  2  1  0  0  0  0
  2  9  1  0  0  0  0
  2  3  2  0  0  0  0
  3  8  1  0  0  0  0
  4  3  1  0  0  0  0
  5 23  1  0  0  0  0
  5  4  2  0  0  0  0
  6  1  2  0  0  0  0
  6  5  1  0  0  0  0
  7  1  1  0  0  0  0
  9 10  1  0  0  0  0
 10 11  1  0  0  0  0
 11 16  1  0  0  0  0
 11 12  2  0  0  0  0
 12 17  1  0  0  0  0
 13 12  1  0  0  0  0
 13 18  1  0  0  0  0
 14 13  2  0  0  0  0
 15 10  2  0  0  0  0
 15 14  1  0  0  0  0
 19 14  1  0  0  0  0
 19 22  1  0  0  0  0
 20 19  1  0  0  0  0
 21 19  1  0  0  0  0
 23 24  1  0  0  0  0
 24 25  1  0  0  0  0
 24 29  1  0  0  0  0
 26 24  1  0  0  0  0
 28 27  1  0  0  0  0
 28 33  1  0  0  0  0
 29 28  2  0  0  0  0
 30 29  1  0  0  0  0
 30 31  2  0  0  0  0
 31 32  1  0  0  0  0
 32 33  2  0  0  0  0
 32 36  1  0  0  0  0
 33 37  1  0  0  0  0
 34 30  1  0  0  0  0
 35 31  1  0  0  0  0
 37 38  1  0  0  0  0
 37 39  1  0  0  0  0
M  END
>  <minimizedAffinity>
-5.75592136

$$$$

 OpenBabel03262522263D

 39 41  0  0  0  0  0  0  0  0999 V2000
   37.6760   26.7950   30.8450 C   0  0  0  0  0  0  0  0  0  0  0  0
   37.0800   28.0480   30.6740 C   0  0  0  0  0  0  0  0  0  0  0  0
   36.6390   28.6880   31.8080 C   0  0  0  0  0  0  0  0  0  0  0  0
   36.8090   28.0670   33.0100 N   0  0  0  0  0  0  0  0  0  0  0  0
   37.3720   26.8960   33.1220 C   0  0  0  0  0  0  0  0  0  0  0  0
   37.8360   26.2010   32.0220 N   0  0  0  0  0  0  0  0  0  0  0  0
   38.0480   26.2360   29.9770 H   0  0  0  0  0  0  0  0  0  0  0  0
   36.1720   29.6690   31.7390 H   0  0  0  0  0  0  0  0  0  0  0  0
   36.9760   28.5410   29.4200 O   0  0  0  0  0  0  0  0  0  0  0  0
   38.0290   29.2620   28.8760 C   0  0  0  0  0  0  0  0  0  0  0  0
   38.4310   30.5380   29.2070 C   0  0  0  0  0  0  0  0  0  0  0  0
   39.4850   31.0830   28.5680 C   0  0  0  0  0  0  0  0  0  0  0  0
   40.1280   30.3630   27.6120 C   0  0  0  0  0  0  0  0  0  0  0  0
   39.7150   29.0710   27.2820 C   0  0  0  0  0  0  0  0  0  0  0  0
   38.6470   28.5360   27.9370 N   0  0  0  0  0  0  0  0  0  0  0  0
   37.8550   31.0370   29.9750 H   0  0  0  0  0  0  0  0  0  0  0  0
   39.7930   32.0830   28.8340 H   0  0  0  0  0  0  0  0  0  0  0  0
   40.9810   30.8160   27.1000 H   0  0  0  0  0  0  0  0  0  0  0  0
   40.4440   28.2850   26.2080 C   0  0  0  0  0  0  0  0  0  0  0  0
   39.8520   27.3880   26.0270 H   0  0  0  0  0  0  0  0  0  0  0  0
   40.3700   28.9390   25.3100 H   0  0  0  0  0  0  0  0  0  0  0  0
   41.4820   28.1290   26.5250 H   0  0  0  0  0  0  0  0  0  0  0  0
   37.4500   26.3360   34.8400 S   0  0  0  0  0  0  0  0  0  0  0  0
   38.4940   24.8540   34.7890 C   0  0  0  0  0  0  0  0  0  0  0  0
   38.0470   24.0990   34.1290 H   0  0  0  0  0  0  0  0  0  0  0  0
   39.5300   25.0630   34.4540 H   0  0  0  0  0  0  0  0  0  0  0  0
   40.2780   22.8270   35.3510 F   0  0  0  0  0  0  0  0  0  0  0  0
   39.5170   23.3370   36.3680 C   0  0  0  0  0  0  0  0  0  0  0  0
   38.5870   24.3580   36.1970 C   0  0  0  0  0  0  0  0  0  0  0  0
   37.8530   24.8280   37.2480 C   0  0  0  0  0  0  0  0  0  0  0  0
   38.0210   24.2870   38.5370 C   0  0  0  0  0  0  0  0  0  0  0  0
   38.9470   23.2670   38.7190 C   0  0  0  0  0  0  0  0  0  0  0  0
   39.6760   22.8110   37.6390 C   0  0  0  0  0  0  0  0  0  0  0  0
   37.1610   25.6180   37.0140 H   0  0  0  0  0  0  0  0  0  0  0  0
   37.4090   24.7080   39.3140 H   0  0  0  0  0  0  0  0  0  0  0  0
   39.0560   22.8690   39.7210 H   0  0  0  0  0  0  0  0  0  0  0  0
   40.6210   21.7660   37.8390 N   0  0  0  0  0  0  0  0  0  0  0  0
   40.6050   21.2700   36.9050 H   0  0  0  0  0  0  0  0  0  0  0  0
   41.1520   21.6090   38.7260 H   0  0  0  0  0  0  0  0  0  0  0  0
  1  6  1  0  0  0  0
  2  1  2  0  0  0  0
  2  3  1  0  0  0  0
  3  4  2  0  0  0  0
  4  5  1  0  0  0  0
  5 23  1  0  0  0  0
  6  5  2  0  0  0  0
  7  1  1  0  0  0  0
  8  3  1  0  0  0  0
  9  2  1  0  0  0  0
 10 11  1  0  0  0  0
 10  9  1  0  0  0  0
 11 16  1  0  0  0  0
 12 17  1  0  0  0  0
 12 11  2  0  0  0  0
 13 12  1  0  0  0  0
 14 13  2  0  0  0  0
 14 15  1  0  0  0  0
 15 10  2  0  0  0  0
 18 13  1  0  0  0  0
 19 22  1  0  0  0  0
 19 14  1  0  0  0  0
 20 19  1  0  0  0  0
 21 19  1  0  0  0  0
 24 23  1  0  0  0  0
 24 29  1  0  0  0  0
 25 24  1  0  0  0  0
 26 24  1  0  0  0  0
 27 28  1  0  0  0  0
 28 33  1  0  0  0  0
 29 28  2  0  0  0  0
 29 30  1  0  0  0  0
 30 31  2  0  0  0  0
 31 32  1  0  0  0  0
 31 35  1  0  0  0  0
 32 36  1  0  0  0  0
 33 37  1  0  0  0  0
 33 32  2  0  0  0  0
 34 30  1  0  0  0  0
 37 39  1  0  0  0  0
 38 37  1  0  0  0  0
M  END
>  <minimizedAffinity>
-5.59388685

$$$$

 OpenBabel03262522263D

 39 41  0  0  0  0  0  0  0  0999 V2000
   36.3000   28.6480   34.6840 C   0  0  0  0  0  0  0  0  0  0  0  0
   35.5400   28.9580   33.5520 C   0  0  0  0  0  0  0  0  0  0  0  0
   35.7210   28.1650   32.4430 C   0  0  0  0  0  0  0  0  0  0  0  0
   36.6170   27.1400   32.5200 N   0  0  0  0  0  0  0  0  0  0  0  0
   37.3050   26.8870   33.5980 C   0  0  0  0  0  0  0  0  0  0  0  0
   37.1690   27.6460   34.7450 N   0  0  0  0  0  0  0  0  0  0  0  0
   36.1980   29.2460   35.5980 H   0  0  0  0  0  0  0  0  0  0  0  0
   35.1530   28.3530   31.5340 H   0  0  0  0  0  0  0  0  0  0  0  0
   34.6900   30.0070   33.6190 O   0  0  0  0  0  0  0  0  0  0  0  0
   33.8480   30.1390   34.7130 C   0  0  0  0  0  0  0  0  0  0  0  0
   32.8140   29.3040   35.0810 C   0  0  0  0  0  0  0  0  0  0  0  0
   32.0970   29.5920   36.1850 C   0  0  0  0  0  0  0  0  0  0  0  0
   32.4080   30.6970   36.9110 C   0  0  0  0  0  0  0  0  0  0  0  0
   33.4560   31.5380   36.5320 C   0  0  0  0  0  0  0  0  0  0  0  0
   34.1700   31.2330   35.4130 N   0  0  0  0  0  0  0  0  0  0  0  0
   32.6350   28.4530   34.4390 H   0  0  0  0  0  0  0  0  0  0  0  0
   31.2890   28.9330   36.4660 H   0  0  0  0  0  0  0  0  0  0  0  0
   31.8190   30.9210   37.8040 H   0  0  0  0  0  0  0  0  0  0  0  0
   33.7840   32.7700   37.3540 C   0  0  0  0  0  0  0  0  0  0  0  0
   34.5210   33.3340   36.7830 H   0  0  0  0  0  0  0  0  0  0  0  0
   32.8310   33.3450   37.3560 H   0  0  0  0  0  0  0  0  0  0  0  0
   34.0840   32.4550   38.3610 H   0  0  0  0  0  0  0  0  0  0  0  0
   38.4100   25.4710   33.3900 S   0  0  0  0  0  0  0  0  0  0  0  0
   38.1510   24.4670   34.8780 C   0  0  0  0  0  0  0  0  0  0  0  0
   37.6270   25.0540   35.6430 H   0  0  0  0  0  0  0  0  0  0  0  0
   37.5830   23.5360   34.6810 H   0  0  0  0  0  0  0  0  0  0  0  0
   38.3300   22.5700   36.8720 F   0  0  0  0  0  0  0  0  0  0  0  0
   39.4840   23.0930   36.3530 C   0  0  0  0  0  0  0  0  0  0  0  0
   39.5100   24.0540   35.3460 C   0  0  0  0  0  0  0  0  0  0  0  0
   40.6910   24.5420   34.8660 C   0  0  0  0  0  0  0  0  0  0  0  0
   41.9180   24.0800   35.3800 C   0  0  0  0  0  0  0  0  0  0  0  0
   41.9040   23.1210   36.3850 C   0  0  0  0  0  0  0  0  0  0  0  0
   40.6950   22.6450   36.8530 C   0  0  0  0  0  0  0  0  0  0  0  0
   40.6050   25.2810   34.0880 H   0  0  0  0  0  0  0  0  0  0  0  0
   42.8060   24.5100   34.9530 H   0  0  0  0  0  0  0  0  0  0  0  0
   42.8620   22.7840   36.7630 H   0  0  0  0  0  0  0  0  0  0  0  0
   40.6940   21.6630   37.8820 N   0  0  0  0  0  0  0  0  0  0  0  0
   39.7960   21.8800   38.3960 H   0  0  0  0  0  0  0  0  0  0  0  0
   41.4430   20.9450   38.0170 H   0  0  0  0  0  0  0  0  0  0  0  0
  1  6  1  0  0  0  0
  1  7  1  0  0  0  0
  2  9  1  0  0  0  0
  2  1  2  0  0  0  0
  3  4  2  0  0  0  0
  3  2  1  0  0  0  0
  4  5  1  0  0  0  0
  5  6  2  0  0  0  0
  8  3  1  0  0  0  0
  9 10  1  0  0  0  0
 10 11  2  0  0  0  0
 10 15  1  0  0  0  0
 11 12  1  0  0  0  0
 12 17  1  0  0  0  0
 12 13  2  0  0  0  0
 13 18  1  0  0  0  0
 14 13  1  0  0  0  0
 14 19  1  0  0  0  0
 15 14  2  0  0  0  0
 16 11  1  0  0  0  0
 19 21  1  0  0  0  0
 19 22  1  0  0  0  0
 20 19  1  0  0  0  0
 23  5  1  0  0  0  0
 23 24  1  0  0  0  0
 24 29  1  0  0  0  0
 24 25  1  0  0  0  0
 26 24  1  0  0  0  0
 28 33  1  0  0  0  0
 28 27  1  0  0  0  0
 29 28  2  0  0  0  0
 30 29  1  0  0  0  0
 30 31  2  0  0  0  0
 31 32  1  0  0  0  0
 32 36  1  0  0  0  0
 32 33  2  0  0  0  0
 33 37  1  0  0  0  0
 34 30  1  0  0  0  0
 35 31  1  0  0  0  0
 37 39  1  0  0  0  0
 37 38  1  0  0  0  0
M  END
>  <minimizedAffinity>
-5.57527781

$$$$
