
 OpenBabel03272510293D

 22 23  0  0  0  0  0  0  0  0999 V2000
   37.4230   31.3720   49.2340 C   0  0  0  0  0  0  0  0  0  0  0  0
   37.8130   32.6600   49.6100 C   0  0  0  0  0  0  0  0  0  0  0  0
   38.6670   33.2940   48.7400 C   0  0  0  0  0  0  0  0  0  0  0  0
   39.0840   32.6770   47.5970 N   0  0  0  0  0  0  0  0  0  0  0  0
   38.6740   31.4130   47.2730 C   0  0  0  0  0  0  0  0  0  0  0  0
   37.8200   30.7470   48.1180 N   0  0  0  0  0  0  0  0  0  0  0  0
   37.4640   33.1230   50.5210 H   0  0  0  0  0  0  0  0  0  0  0  0
   39.0320   34.3010   48.9380 H   0  0  0  0  0  0  0  0  0  0  0  0
   36.4600   30.6390   50.1360 C   0  0  0  0  0  0  0  0  0  0  0  0
   36.3750   29.2030   50.1930 C   0  0  0  0  0  0  0  0  0  0  0  0
   37.1680   29.8970   51.2780 C   0  0  0  0  0  0  0  0  0  0  0  0
   35.5680   31.2500   50.4540 H   0  0  0  0  0  0  0  0  0  0  0  0
   35.4330   28.7090   50.4530 H   0  0  0  0  0  0  0  0  0  0  0  0
   37.0400   28.6020   49.5060 H   0  0  0  0  0  0  0  0  0  0  0  0
   36.6350   29.9570   52.2370 H   0  0  0  0  0  0  0  0  0  0  0  0
   38.2730   29.8560   51.2650 H   0  0  0  0  0  0  0  0  0  0  0  0
   39.0900   30.7330   46.0540 C   0  0  0  0  0  0  0  0  0  0  0  0
   39.1110   29.6240   46.2330 H   0  0  0  0  0  0  0  0  0  0  0  0
   40.1060   31.0290   45.7200 H   0  0  0  0  0  0  0  0  0  0  0  0
   38.0960   30.9820   45.0310 N   0  0  0  0  0  0  0  0  0  0  0  0
   38.1510   30.1730   44.3640 H   0  0  0  0  0  0  0  0  0  0  0  0
   38.3000   31.9060   44.5660 H   0  0  0  0  0  0  0  0  0  0  0  0
  1  2  1  0  0  0  0
  1  9  1  0  0  0  0
  2  7  1  0  0  0  0
  3  8  1  0  0  0  0
  3  2  2  0  0  0  0
  4  3  1  0  0  0  0
  5  4  2  0  0  0  0
  5  6  1  0  0  0  0
  6  1  2  0  0  0  0
  9 10  1  0  0  0  0
  9 12  1  0  0  0  0
  9 11  1  0  0  0  0
 10 13  1  0  0  0  0
 10 11  1  0  0  0  0
 11 15  1  0  0  0  0
 14 10  1  0  0  0  0
 16 11  1  0  0  0  0
 17 18  1  0  0  0  0
 17  5  1  0  0  0  0
 19 17  1  0  0  0  0
 20 17  1  0  0  0  0
 21 20  1  0  0  0  0
 22 20  1  0  0  0  0
M  END
>  <minimizedAffinity>
-4.30341673

>  <minimizedRMSD>
0.123455517

$$$$
