
 OpenBabel03272501553D

 18 18  0  0  0  0  0  0  0  0999 V2000
   38.8700   27.1850   35.6840 C   0  0  0  0  0  0  0  0  0  0  0  0
   39.9420   26.7300   34.9130 C   0  0  0  0  0  0  0  0  0  0  0  0
   40.2650   25.3420   34.8780 C   0  0  0  0  0  0  0  0  0  0  0  0
   39.4780   24.5290   35.6230 N   0  0  0  0  0  0  0  0  0  0  0  0
   38.4470   25.0050   36.3590 C   0  0  0  0  0  0  0  0  0  0  0  0
   38.1540   26.3100   36.3840 N   0  0  0  0  0  0  0  0  0  0  0  0
   38.7090   28.2540   35.6410 H   0  0  0  0  0  0  0  0  0  0  0  0
   40.5900   27.3770   34.3020 H   0  0  0  0  0  0  0  0  0  0  0  0
   41.0860   24.9690   34.2910 H   0  0  0  0  0  0  0  0  0  0  0  0
   37.6550   23.9980   37.1400 C   0  0  0  0  0  0  0  0  0  0  0  0
   36.6360   24.4280   37.3270 H   0  0  0  0  0  0  0  0  0  0  0  0
   37.5300   23.0560   36.5490 H   0  0  0  0  0  0  0  0  0  0  0  0
   38.2650   23.7600   38.4810 C   0  0  0  0  0  0  0  0  0  0  0  0
   37.5560   23.3280   39.2200 H   0  0  0  0  0  0  0  0  0  0  0  0
   38.6990   24.7300   38.8220 H   0  0  0  0  0  0  0  0  0  0  0  0
   39.3140   22.7560   38.3010 N   0  0  0  0  0  0  0  0  0  0  0  0
   40.0190   22.8380   39.0540 H   0  0  0  0  0  0  0  0  0  0  0  0
   38.9540   21.8130   38.1120 H   0  0  0  0  0  0  0  0  0  0  0  0
  1  6  1  0  0  0  0
  2  1  2  0  0  0  0
  3  2  1  0  0  0  0
  3  4  2  0  0  0  0
  4  5  1  0  0  0  0
  5  6  2  0  0  0  0
  5 10  1  0  0  0  0
  7  1  1  0  0  0  0
  8  2  1  0  0  0  0
  9  3  1  0  0  0  0
 10 11  1  0  0  0  0
 10 13  1  0  0  0  0
 12 10  1  0  0  0  0
 13 15  1  0  0  0  0
 13 14  1  0  0  0  0
 16 13  1  0  0  0  0
 16 17  1  0  0  0  0
 18 16  1  0  0  0  0
M  END
>  <minimizedAffinity>
-3.47430873

$$$$

 OpenBabel03272501553D

 18 18  0  0  0  0  0  0  0  0999 V2000
   40.1830   23.0330   36.6860 C   0  0  0  0  0  0  0  0  0  0  0  0
   39.4720   22.9280   37.8830 C   0  0  0  0  0  0  0  0  0  0  0  0
   38.3510   23.7730   38.1300 C   0  0  0  0  0  0  0  0  0  0  0  0
   38.0410   24.6520   37.1480 N   0  0  0  0  0  0  0  0  0  0  0  0
   38.7530   24.7270   35.9990 C   0  0  0  0  0  0  0  0  0  0  0  0
   39.8030   23.9290   35.7800 N   0  0  0  0  0  0  0  0  0  0  0  0
   41.0160   22.3470   36.5970 H   0  0  0  0  0  0  0  0  0  0  0  0
   39.7110   22.2190   38.6910 H   0  0  0  0  0  0  0  0  0  0  0  0
   37.7890   23.7090   39.0450 H   0  0  0  0  0  0  0  0  0  0  0  0
   38.3030   25.7450   34.9930 C   0  0  0  0  0  0  0  0  0  0  0  0
   38.5290   25.3440   33.9700 H   0  0  0  0  0  0  0  0  0  0  0  0
   37.1990   25.9050   35.0670 H   0  0  0  0  0  0  0  0  0  0  0  0
   39.0810   27.0110   35.1290 C   0  0  0  0  0  0  0  0  0  0  0  0
   38.9130   27.7260   34.2960 H   0  0  0  0  0  0  0  0  0  0  0  0
   40.1550   26.7280   35.2390 H   0  0  0  0  0  0  0  0  0  0  0  0
   38.5950   27.6840   36.3350 N   0  0  0  0  0  0  0  0  0  0  0  0
   39.3210   28.3190   36.7070 H   0  0  0  0  0  0  0  0  0  0  0  0
   37.6500   28.0760   36.2350 H   0  0  0  0  0  0  0  0  0  0  0  0
  1  2  1  0  0  0  0
  2  3  2  0  0  0  0
  2  8  1  0  0  0  0
  3  9  1  0  0  0  0
  4  3  1  0  0  0  0
  5  4  2  0  0  0  0
  6  5  1  0  0  0  0
  6  1  2  0  0  0  0
  7  1  1  0  0  0  0
 10 12  1  0  0  0  0
 10 13  1  0  0  0  0
 10  5  1  0  0  0  0
 11 10  1  0  0  0  0
 13 15  1  0  0  0  0
 13 16  1  0  0  0  0
 14 13  1  0  0  0  0
 16 17  1  0  0  0  0
 18 16  1  0  0  0  0
M  END
>  <minimizedAffinity>
-3.28165245

$$$$

 OpenBabel03272501553D

 18 18  0  0  0  0  0  0  0  0999 V2000
   38.1060   24.0180   38.2600 C   0  0  0  0  0  0  0  0  0  0  0  0
   39.1480   23.0950   38.1480 C   0  0  0  0  0  0  0  0  0  0  0  0
   39.9070   23.0090   36.9450 C   0  0  0  0  0  0  0  0  0  0  0  0
   39.5530   23.8630   35.9560 N   0  0  0  0  0  0  0  0  0  0  0  0
   38.5370   24.7460   36.0990 C   0  0  0  0  0  0  0  0  0  0  0  0
   37.8310   24.8170   37.2320 N   0  0  0  0  0  0  0  0  0  0  0  0
   37.5940   24.0030   39.2130 H   0  0  0  0  0  0  0  0  0  0  0  0
   39.4480   22.3940   38.9420 H   0  0  0  0  0  0  0  0  0  0  0  0
   40.7140   22.3050   36.8370 H   0  0  0  0  0  0  0  0  0  0  0  0
   38.2470   25.6350   34.9250 C   0  0  0  0  0  0  0  0  0  0  0  0
   39.2200   25.8570   34.4100 H   0  0  0  0  0  0  0  0  0  0  0  0
   37.5800   25.1130   34.1950 H   0  0  0  0  0  0  0  0  0  0  0  0
   37.6980   26.9490   35.3710 C   0  0  0  0  0  0  0  0  0  0  0  0
   36.7910   26.8580   36.0070 H   0  0  0  0  0  0  0  0  0  0  0  0
   37.5170   27.5590   34.4550 H   0  0  0  0  0  0  0  0  0  0  0  0
   38.7160   27.5720   36.2180 N   0  0  0  0  0  0  0  0  0  0  0  0
   38.5940   28.5990   36.2250 H   0  0  0  0  0  0  0  0  0  0  0  0
   38.8260   27.1170   37.1320 H   0  0  0  0  0  0  0  0  0  0  0  0
  1  7  1  0  0  0  0
  2  1  1  0  0  0  0
  2  8  1  0  0  0  0
  3  2  2  0  0  0  0
  4  5  2  0  0  0  0
  4  3  1  0  0  0  0
  5  6  1  0  0  0  0
  6  1  2  0  0  0  0
  9  3  1  0  0  0  0
 10 13  1  0  0  0  0
 10  5  1  0  0  0  0
 11 10  1  0  0  0  0
 12 10  1  0  0  0  0
 13 14  1  0  0  0  0
 13 16  1  0  0  0  0
 15 13  1  0  0  0  0
 16 17  1  0  0  0  0
 16 18  1  0  0  0  0
M  END
>  <minimizedAffinity>
-3.2701056

$$$$

 OpenBabel03272501553D

 18 18  0  0  0  0  0  0  0  0999 V2000
   35.6530   20.8520   35.5720 C   0  0  0  0  0  0  0  0  0  0  0  0
   35.7520   20.7090   34.1870 C   0  0  0  0  0  0  0  0  0  0  0  0
   36.8490   21.2830   33.4820 C   0  0  0  0  0  0  0  0  0  0  0  0
   37.7550   21.9540   34.2330 N   0  0  0  0  0  0  0  0  0  0  0  0
   37.6270   22.0730   35.5750 C   0  0  0  0  0  0  0  0  0  0  0  0
   36.5930   21.5300   36.2260 N   0  0  0  0  0  0  0  0  0  0  0  0
   34.7840   20.3790   36.0120 H   0  0  0  0  0  0  0  0  0  0  0  0
   35.0260   20.1670   33.5630 H   0  0  0  0  0  0  0  0  0  0  0  0
   36.9460   21.1850   32.4140 H   0  0  0  0  0  0  0  0  0  0  0  0
   38.7000   22.8420   36.2880 C   0  0  0  0  0  0  0  0  0  0  0  0
   39.4630   22.1080   36.6600 H   0  0  0  0  0  0  0  0  0  0  0  0
   39.2110   23.5450   35.5840 H   0  0  0  0  0  0  0  0  0  0  0  0
   38.1540   23.5300   37.4950 C   0  0  0  0  0  0  0  0  0  0  0  0
   37.0440   23.5840   37.5100 H   0  0  0  0  0  0  0  0  0  0  0  0
   38.6320   24.5370   37.5440 H   0  0  0  0  0  0  0  0  0  0  0  0
   38.5290   22.7200   38.6540 N   0  0  0  0  0  0  0  0  0  0  0  0
   38.5500   23.3050   39.5070 H   0  0  0  0  0  0  0  0  0  0  0  0
   38.0160   21.8320   38.7200 H   0  0  0  0  0  0  0  0  0  0  0  0
  1  7  1  0  0  0  0
  1  6  1  0  0  0  0
  2  1  2  0  0  0  0
  3  2  1  0  0  0  0
  3  4  2  0  0  0  0
  4  5  1  0  0  0  0
  5  6  2  0  0  0  0
  5 10  1  0  0  0  0
  8  2  1  0  0  0  0
  9  3  1  0  0  0  0
 10 11  1  0  0  0  0
 10 13  1  0  0  0  0
 12 10  1  0  0  0  0
 13 14  1  0  0  0  0
 13 15  1  0  0  0  0
 13 16  1  0  0  0  0
 16 18  1  0  0  0  0
 16 17  1  0  0  0  0
M  END
>  <minimizedAffinity>
-3.14342904

$$$$

 OpenBabel03272501553D

 18 18  0  0  0  0  0  0  0  0999 V2000
   40.1920   26.6910   34.8530 C   0  0  0  0  0  0  0  0  0  0  0  0
   38.9790   27.0140   35.4630 C   0  0  0  0  0  0  0  0  0  0  0  0
   38.2210   26.0110   36.1340 C   0  0  0  0  0  0  0  0  0  0  0  0
   38.7530   24.7650   36.1350 N   0  0  0  0  0  0  0  0  0  0  0  0
   39.9330   24.4870   35.5340 C   0  0  0  0  0  0  0  0  0  0  0  0
   40.6340   25.4370   34.9060 N   0  0  0  0  0  0  0  0  0  0  0  0
   40.6880   27.5240   34.3710 H   0  0  0  0  0  0  0  0  0  0  0  0
   38.5330   28.0210   35.4710 H   0  0  0  0  0  0  0  0  0  0  0  0
   37.2840   26.2380   36.6110 H   0  0  0  0  0  0  0  0  0  0  0  0
   40.4090   23.0660   35.6080 C   0  0  0  0  0  0  0  0  0  0  0  0
   40.3530   22.6280   34.5760 H   0  0  0  0  0  0  0  0  0  0  0  0
   41.4750   23.0290   35.9420 H   0  0  0  0  0  0  0  0  0  0  0  0
   39.5060   22.2430   36.4640 C   0  0  0  0  0  0  0  0  0  0  0  0
   39.5130   21.1630   36.2060 H   0  0  0  0  0  0  0  0  0  0  0  0
   38.4860   22.6920   36.3950 H   0  0  0  0  0  0  0  0  0  0  0  0
   40.0190   22.3290   37.8320 N   0  0  0  0  0  0  0  0  0  0  0  0
   39.2610   22.1410   38.5100 H   0  0  0  0  0  0  0  0  0  0  0  0
   40.8980   21.8170   37.9750 H   0  0  0  0  0  0  0  0  0  0  0  0
  1  6  2  0  0  0  0
  1  2  1  0  0  0  0
  2  8  1  0  0  0  0
  2  3  2  0  0  0  0
  3  4  1  0  0  0  0
  3  9  1  0  0  0  0
  5 10  1  0  0  0  0
  5  4  2  0  0  0  0
  6  5  1  0  0  0  0
  7  1  1  0  0  0  0
 10 12  1  0  0  0  0
 10 13  1  0  0  0  0
 11 10  1  0  0  0  0
 13 16  1  0  0  0  0
 14 13  1  0  0  0  0
 15 13  1  0  0  0  0
 16 18  1  0  0  0  0
 16 17  1  0  0  0  0
M  END
>  <minimizedAffinity>
-2.99669766

$$$$

 OpenBabel03272501553D

 18 18  0  0  0  0  0  0  0  0999 V2000
   41.7470   21.7770   37.1630 C   0  0  0  0  0  0  0  0  0  0  0  0
   42.4370   22.6760   36.3480 C   0  0  0  0  0  0  0  0  0  0  0  0
   41.7370   23.7160   35.6710 C   0  0  0  0  0  0  0  0  0  0  0  0
   40.3990   23.7640   35.8740 N   0  0  0  0  0  0  0  0  0  0  0  0
   39.7620   22.8750   36.6720 C   0  0  0  0  0  0  0  0  0  0  0  0
   40.4300   21.9030   37.3010 N   0  0  0  0  0  0  0  0  0  0  0  0
   42.3700   21.0260   37.6310 H   0  0  0  0  0  0  0  0  0  0  0  0
   43.5240   22.6510   36.1730 H   0  0  0  0  0  0  0  0  0  0  0  0
   42.2490   24.4210   35.0390 H   0  0  0  0  0  0  0  0  0  0  0  0
   38.2770   23.0390   36.8100 C   0  0  0  0  0  0  0  0  0  0  0  0
   37.9390   23.7900   36.0490 H   0  0  0  0  0  0  0  0  0  0  0  0
   37.7560   22.0720   36.5980 H   0  0  0  0  0  0  0  0  0  0  0  0
   37.9230   23.6040   38.1450 C   0  0  0  0  0  0  0  0  0  0  0  0
   36.8350   23.7910   38.2730 H   0  0  0  0  0  0  0  0  0  0  0  0
   38.5340   24.5270   38.2850 H   0  0  0  0  0  0  0  0  0  0  0  0
   38.2730   22.5930   39.1440 N   0  0  0  0  0  0  0  0  0  0  0  0
   38.4370   23.0400   40.0620 H   0  0  0  0  0  0  0  0  0  0  0  0
   37.6510   21.7750   39.1370 H   0  0  0  0  0  0  0  0  0  0  0  0
  1  6  1  0  0  0  0
  1  7  1  0  0  0  0
  2  1  2  0  0  0  0
  3  4  2  0  0  0  0
  3  2  1  0  0  0  0
  4  5  1  0  0  0  0
  5 10  1  0  0  0  0
  5  6  2  0  0  0  0
  8  2  1  0  0  0  0
  9  3  1  0  0  0  0
 10 13  1  0  0  0  0
 11 10  1  0  0  0  0
 12 10  1  0  0  0  0
 13 14  1  0  0  0  0
 13 15  1  0  0  0  0
 13 16  1  0  0  0  0
 16 17  1  0  0  0  0
 18 16  1  0  0  0  0
M  END
>  <minimizedAffinity>
-2.97747135

$$$$

 OpenBabel03272501553D

 18 18  0  0  0  0  0  0  0  0999 V2000
   37.9810   25.9860   35.9150 C   0  0  0  0  0  0  0  0  0  0  0  0
   37.6970   26.0370   34.5490 C   0  0  0  0  0  0  0  0  0  0  0  0
   37.9010   24.8890   33.7290 C   0  0  0  0  0  0  0  0  0  0  0  0
   38.3730   23.7850   34.3560 N   0  0  0  0  0  0  0  0  0  0  0  0
   38.6370   23.7710   35.6840 C   0  0  0  0  0  0  0  0  0  0  0  0
   38.4430   24.8550   36.4420 N   0  0  0  0  0  0  0  0  0  0  0  0
   37.7910   26.9090   36.4480 H   0  0  0  0  0  0  0  0  0  0  0  0
   37.3120   26.9250   34.0250 H   0  0  0  0  0  0  0  0  0  0  0  0
   37.6880   24.9060   32.6740 H   0  0  0  0  0  0  0  0  0  0  0  0
   39.1580   22.4850   36.2530 C   0  0  0  0  0  0  0  0  0  0  0  0
   38.2790   21.8810   36.6040 H   0  0  0  0  0  0  0  0  0  0  0  0
   39.6890   21.8950   35.4650 H   0  0  0  0  0  0  0  0  0  0  0  0
   40.0040   22.7350   37.4560 C   0  0  0  0  0  0  0  0  0  0  0  0
   40.5130   23.7220   37.4420 H   0  0  0  0  0  0  0  0  0  0  0  0
   40.7230   21.8850   37.5350 H   0  0  0  0  0  0  0  0  0  0  0  0
   39.1060   22.7650   38.6110 N   0  0  0  0  0  0  0  0  0  0  0  0
   39.6260   22.5310   39.4740 H   0  0  0  0  0  0  0  0  0  0  0  0
   38.5110   23.6020   38.6480 H   0  0  0  0  0  0  0  0  0  0  0  0
  1  6  1  0  0  0  0
  1  7  1  0  0  0  0
  2  1  2  0  0  0  0
  3  4  2  0  0  0  0
  3  2  1  0  0  0  0
  4  5  1  0  0  0  0
  5 10  1  0  0  0  0
  5  6  2  0  0  0  0
  8  2  1  0  0  0  0
  9  3  1  0  0  0  0
 10 11  1  0  0  0  0
 10 13  1  0  0  0  0
 12 10  1  0  0  0  0
 13 15  1  0  0  0  0
 13 16  1  0  0  0  0
 14 13  1  0  0  0  0
 16 18  1  0  0  0  0
 16 17  1  0  0  0  0
M  END
>  <minimizedAffinity>
-2.95274496

$$$$

 OpenBabel03272501553D

 18 18  0  0  0  0  0  0  0  0999 V2000
   39.2430   22.1140   34.3240 C   0  0  0  0  0  0  0  0  0  0  0  0
   40.0380   23.1860   33.9130 C   0  0  0  0  0  0  0  0  0  0  0  0
   40.0540   24.3980   34.6640 C   0  0  0  0  0  0  0  0  0  0  0  0
   39.2690   24.4250   35.7670 N   0  0  0  0  0  0  0  0  0  0  0  0
   38.5110   23.3660   36.1360 C   0  0  0  0  0  0  0  0  0  0  0  0
   38.5030   22.2350   35.4230 N   0  0  0  0  0  0  0  0  0  0  0  0
   39.3020   21.2420   33.6860 H   0  0  0  0  0  0  0  0  0  0  0  0
   40.6810   23.1800   33.0200 H   0  0  0  0  0  0  0  0  0  0  0  0
   40.6600   25.2370   34.3670 H   0  0  0  0  0  0  0  0  0  0  0  0
   37.6860   23.5280   37.3780 C   0  0  0  0  0  0  0  0  0  0  0  0
   37.2490   24.5620   37.3710 H   0  0  0  0  0  0  0  0  0  0  0  0
   36.8410   22.7950   37.3850 H   0  0  0  0  0  0  0  0  0  0  0  0
   38.5360   23.4400   38.6010 C   0  0  0  0  0  0  0  0  0  0  0  0
   38.0300   22.9470   39.4590 H   0  0  0  0  0  0  0  0  0  0  0  0
   38.8750   24.4750   38.8430 H   0  0  0  0  0  0  0  0  0  0  0  0
   39.6760   22.5850   38.2680 N   0  0  0  0  0  0  0  0  0  0  0  0
   40.4760   22.7980   38.8880 H   0  0  0  0  0  0  0  0  0  0  0  0
   39.4300   21.5930   38.1620 H   0  0  0  0  0  0  0  0  0  0  0  0
  1  6  1  0  0  0  0
  2  1  2  0  0  0  0
  2  3  1  0  0  0  0
  3  4  2  0  0  0  0
  4  5  1  0  0  0  0
  5 10  1  0  0  0  0
  6  5  2  0  0  0  0
  7  1  1  0  0  0  0
  8  2  1  0  0  0  0
  9  3  1  0  0  0  0
 10 12  1  0  0  0  0
 10 13  1  0  0  0  0
 11 10  1  0  0  0  0
 13 15  1  0  0  0  0
 13 14  1  0  0  0  0
 16 13  1  0  0  0  0
 16 17  1  0  0  0  0
 18 16  1  0  0  0  0
M  END
>  <minimizedAffinity>
-2.89843988

$$$$

 OpenBabel03272501553D

 18 18  0  0  0  0  0  0  0  0999 V2000
   38.0810   23.3970   37.9710 C   0  0  0  0  0  0  0  0  0  0  0  0
   37.2740   22.8390   36.9780 C   0  0  0  0  0  0  0  0  0  0  0  0
   37.8580   22.3100   35.7900 C   0  0  0  0  0  0  0  0  0  0  0  0
   39.2070   22.3860   35.7050 N   0  0  0  0  0  0  0  0  0  0  0  0
   39.9590   22.9330   36.6880 C   0  0  0  0  0  0  0  0  0  0  0  0
   39.4000   23.4280   37.7970 N   0  0  0  0  0  0  0  0  0  0  0  0
   37.5410   23.7700   38.8320 H   0  0  0  0  0  0  0  0  0  0  0  0
   36.1770   22.7700   37.0320 H   0  0  0  0  0  0  0  0  0  0  0  0
   37.2550   21.8750   35.0120 H   0  0  0  0  0  0  0  0  0  0  0  0
   41.4430   22.9560   36.4680 C   0  0  0  0  0  0  0  0  0  0  0  0
   41.6280   23.0640   35.3660 H   0  0  0  0  0  0  0  0  0  0  0  0
   41.9010   23.8370   36.9830 H   0  0  0  0  0  0  0  0  0  0  0  0
   42.0650   21.6620   36.8740 C   0  0  0  0  0  0  0  0  0  0  0  0
   43.0640   21.7790   37.3460 H   0  0  0  0  0  0  0  0  0  0  0  0
   42.0940   21.0120   35.9680 H   0  0  0  0  0  0  0  0  0  0  0  0
   41.2030   21.0790   37.9040 N   0  0  0  0  0  0  0  0  0  0  0  0
   41.3300   20.0530   37.9370 H   0  0  0  0  0  0  0  0  0  0  0  0
   41.2440   21.5750   38.8030 H   0  0  0  0  0  0  0  0  0  0  0  0
  1  7  1  0  0  0  0
  2  8  1  0  0  0  0
  2  1  2  0  0  0  0
  3  2  1  0  0  0  0
  4  3  2  0  0  0  0
  4  5  1  0  0  0  0
  5  6  2  0  0  0  0
  6  1  1  0  0  0  0
  9  3  1  0  0  0  0
 10  5  1  0  0  0  0
 10 13  1  0  0  0  0
 10 12  1  0  0  0  0
 11 10  1  0  0  0  0
 13 14  1  0  0  0  0
 13 16  1  0  0  0  0
 15 13  1  0  0  0  0
 16 17  1  0  0  0  0
 16 18  1  0  0  0  0
M  END
>  <minimizedAffinity>
-2.8736589

$$$$
