
 OpenBabel03262520523D

 19 20  0  0  1  0  0  0  0  0999 V2000
   36.8290   29.7050   49.3970 C   0  0  2  0  0  0  0  0  0  0  0  0
   35.5820   29.2890   48.7220 C   0  0  0  0  0  0  0  0  0  0  0  0
   35.5550   29.9120   50.1050 C   0  0  1  0  0  0  0  0  0  0  0  0
   37.4980   28.8960   49.7560 H   0  0  0  0  0  0  0  0  0  0  0  0
   35.3720   28.2080   48.5910 H   0  0  0  0  0  0  0  0  0  0  0  0
   35.2910   29.8960   47.8420 H   0  0  0  0  0  0  0  0  0  0  0  0
   35.1100   30.9350   50.1000 H   0  0  0  0  0  0  0  0  0  0  0  0
   38.2780   33.1300   49.2230 C   0  0  0  0  0  0  0  0  0  0  0  0
   39.0240   33.0760   48.0350 C   0  0  0  0  0  0  0  0  0  0  0  0
   39.0110   31.8530   47.3020 C   0  0  0  0  0  0  0  0  0  0  0  0
   38.2940   30.8120   47.7740 N   0  0  0  0  0  0  0  0  0  0  0  0
   37.5830   30.9080   48.9340 C   0  0  0  0  0  0  0  0  0  0  0  0
   37.5700   32.0500   49.6540 N   0  0  0  0  0  0  0  0  0  0  0  0
   38.2130   33.9880   49.8500 H   0  0  0  0  0  0  0  0  0  0  0  0
   39.5720   33.9570   47.7270 H   0  0  0  0  0  0  0  0  0  0  0  0
   39.5900   31.8250   46.3880 H   0  0  0  0  0  0  0  0  0  0  0  0
   35.1830   29.1330   51.2500 N   0  0  0  0  0  0  0  0  0  0  0  0
   35.9400   28.8430   51.8730 H   0  0  0  0  0  0  0  0  0  0  0  0
   34.2810   29.3830   51.6720 H   0  0  0  0  0  0  0  0  0  0  0  0
  1  4  1  1  0  0  0
  1  3  1  0  0  0  0
  2  1  1  0  0  0  0
  2  3  1  0  0  0  0
  3  7  1  1  0  0  0
  3 17  1  0  0  0  0
  5  2  1  0  0  0  0
  6  2  1  0  0  0  0
  8 13  1  0  0  0  0
  8 14  1  0  0  0  0
  9  8  2  0  0  0  0
 10 11  2  0  0  0  0
 10  9  1  0  0  0  0
 11 12  1  0  0  0  0
 12  1  1  0  0  0  0
 12 13  2  0  0  0  0
 15  9  1  0  0  0  0
 16 10  1  0  0  0  0
 17 19  1  0  0  0  0
 17 18  1  0  0  0  0
M  END
>  <minimizedAffinity>
-3.86188006

>  <minimizedRMSD>
0.984981716

$$$$
