
 OpenBabel03272504443D

 22 23  0  0  0  0  0  0  0  0999 V2000
   37.7370   33.2210   49.4480 Cl  0  0  0  0  0  0  0  0  0  0  0  0
   38.2900   32.2890   48.0840 C   0  0  0  0  0  0  0  0  0  0  0  0
   37.7700   31.0380   47.8150 C   0  0  0  0  0  0  0  0  0  0  0  0
   38.2640   30.3740   46.7190 C   0  0  0  0  0  0  0  0  0  0  0  0
   39.2380   30.9000   45.8960 C   0  0  0  0  0  0  0  0  0  0  0  0
   39.7380   32.1790   46.2120 C   0  0  0  0  0  0  0  0  0  0  0  0
   40.9680   32.8030   45.1460 Cl  0  0  0  0  0  0  0  0  0  0  0  0
   39.2730   32.8770   47.2970 C   0  0  0  0  0  0  0  0  0  0  0  0
   37.8530   29.3960   46.5150 H   0  0  0  0  0  0  0  0  0  0  0  0
   39.6080   30.3510   45.0380 H   0  0  0  0  0  0  0  0  0  0  0  0
   39.6730   33.8720   47.5270 H   0  0  0  0  0  0  0  0  0  0  0  0
   36.0620   29.4390   50.7960 C   0  0  0  0  0  0  0  0  0  0  0  0
   37.0340   29.9220   49.9200 C   0  0  0  0  0  0  0  0  0  0  0  0
   36.7480   30.5390   48.7150 C   0  0  0  0  0  0  0  0  0  0  0  0
   35.4270   30.6480   48.4340 N   0  0  0  0  0  0  0  0  0  0  0  0
   34.4800   30.1840   49.2740 C   0  0  0  0  0  0  0  0  0  0  0  0
   34.7790   29.5950   50.4250 N   0  0  0  0  0  0  0  0  0  0  0  0
   36.3560   28.9630   51.7260 H   0  0  0  0  0  0  0  0  0  0  0  0
   33.4560   30.3210   48.9530 H   0  0  0  0  0  0  0  0  0  0  0  0
   38.3930   29.7550   50.3150 N   0  0  0  0  0  0  0  0  0  0  0  0
   38.3910   28.7460   50.5880 H   0  0  0  0  0  0  0  0  0  0  0  0
   39.2330   30.3430   50.3740 H   0  0  0  0  0  0  0  0  0  0  0  0
  2  1  1  0  0  0  0
  3  2  1  0  0  0  0
  3 14  1  0  0  0  0
  4  3  2  0  0  0  0
  5  6  2  0  0  0  0
  5  4  1  0  0  0  0
  6  8  1  0  0  0  0
  7  6  1  0  0  0  0
  8 11  1  0  0  0  0
  8  2  2  0  0  0  0
  9  4  1  0  0  0  0
 10  5  1  0  0  0  0
 12 18  1  0  0  0  0
 13 20  1  0  0  0  0
 13 12  2  0  0  0  0
 14 13  1  0  0  0  0
 15 14  2  0  0  0  0
 15 16  1  0  0  0  0
 16 17  2  0  0  0  0
 17 12  1  0  0  0  0
 19 16  1  0  0  0  0
 20 22  1  0  0  0  0
 20 21  1  0  0  0  0
M  END
>  <minimizedAffinity>
-5.83657598

>  <minimizedRMSD>
0.584943116

$$$$
