
 OpenBabel03272504443D

 22 23  0  0  0  0  0  0  0  0999 V2000
   40.8110   25.5490   33.8390 Cl  0  0  0  0  0  0  0  0  0  0  0  0
   40.0710   24.6120   35.1080 C   0  0  0  0  0  0  0  0  0  0  0  0
   38.7520   24.8140   35.4690 C   0  0  0  0  0  0  0  0  0  0  0  0
   38.2500   24.0310   36.4790 C   0  0  0  0  0  0  0  0  0  0  0  0
   38.9980   23.0720   37.1310 C   0  0  0  0  0  0  0  0  0  0  0  0
   40.3370   22.9050   36.7280 C   0  0  0  0  0  0  0  0  0  0  0  0
   41.2430   21.6830   37.5790 Cl  0  0  0  0  0  0  0  0  0  0  0  0
   40.8800   23.6640   35.7230 C   0  0  0  0  0  0  0  0  0  0  0  0
   37.2190   24.1940   36.7560 H   0  0  0  0  0  0  0  0  0  0  0  0
   38.5730   22.4690   37.9250 H   0  0  0  0  0  0  0  0  0  0  0  0
   41.9240   23.5200   35.4220 H   0  0  0  0  0  0  0  0  0  0  0  0
   37.1890   28.1300   34.5110 C   0  0  0  0  0  0  0  0  0  0  0  0
   37.8910   27.1380   35.1950 C   0  0  0  0  0  0  0  0  0  0  0  0
   38.0190   25.8350   34.7470 C   0  0  0  0  0  0  0  0  0  0  0  0
   37.4020   25.5790   33.5680 N   0  0  0  0  0  0  0  0  0  0  0  0
   36.7210   26.5310   32.8990 C   0  0  0  0  0  0  0  0  0  0  0  0
   36.6120   27.7740   33.3490 N   0  0  0  0  0  0  0  0  0  0  0  0
   37.1270   29.1340   34.9200 H   0  0  0  0  0  0  0  0  0  0  0  0
   36.2660   26.2200   31.9680 H   0  0  0  0  0  0  0  0  0  0  0  0
   38.5010   27.5170   36.4260 N   0  0  0  0  0  0  0  0  0  0  0  0
   37.7050   28.0090   36.8910 H   0  0  0  0  0  0  0  0  0  0  0  0
   39.4230   27.4160   36.8660 H   0  0  0  0  0  0  0  0  0  0  0  0
  1  2  1  0  0  0  0
  2  3  2  0  0  0  0
  2  8  1  0  0  0  0
  3  4  1  0  0  0  0
  4  9  1  0  0  0  0
  4  5  2  0  0  0  0
  5 10  1  0  0  0  0
  6  5  1  0  0  0  0
  6  7  1  0  0  0  0
  8  6  2  0  0  0  0
 11  8  1  0  0  0  0
 12 18  1  0  0  0  0
 12 13  1  0  0  0  0
 13 20  1  0  0  0  0
 14 13  2  0  0  0  0
 14  3  1  0  0  0  0
 15 14  1  0  0  0  0
 16 17  1  0  0  0  0
 16 15  2  0  0  0  0
 17 12  2  0  0  0  0
 19 16  1  0  0  0  0
 20 22  1  0  0  0  0
 20 21  1  0  0  0  0
M  END
>  <minimizedAffinity>
-4.46829128

$$$$

 OpenBabel03272504443D

 22 23  0  0  0  0  0  0  0  0999 V2000
   37.8760   23.8540   33.3000 Cl  0  0  0  0  0  0  0  0  0  0  0  0
   37.8350   25.4000   34.1030 C   0  0  0  0  0  0  0  0  0  0  0  0
   38.5730   25.6290   35.2490 C   0  0  0  0  0  0  0  0  0  0  0  0
   38.4800   26.8760   35.8160 C   0  0  0  0  0  0  0  0  0  0  0  0
   37.6950   27.8840   35.2950 C   0  0  0  0  0  0  0  0  0  0  0  0
   36.9610   27.6010   34.1270 C   0  0  0  0  0  0  0  0  0  0  0  0
   35.9830   28.9040   33.5050 Cl  0  0  0  0  0  0  0  0  0  0  0  0
   37.0240   26.3700   33.5270 C   0  0  0  0  0  0  0  0  0  0  0  0
   39.0590   27.0490   36.7110 H   0  0  0  0  0  0  0  0  0  0  0  0
   37.6430   28.8590   35.7670 H   0  0  0  0  0  0  0  0  0  0  0  0
   36.4460   26.1670   32.6170 H   0  0  0  0  0  0  0  0  0  0  0  0
   39.7000   22.5830   37.2000 C   0  0  0  0  0  0  0  0  0  0  0  0
   38.9370   23.6430   36.7120 C   0  0  0  0  0  0  0  0  0  0  0  0
   39.3780   24.5320   35.7470 C   0  0  0  0  0  0  0  0  0  0  0  0
   40.6340   24.2990   35.2950 N   0  0  0  0  0  0  0  0  0  0  0  0
   41.3800   23.2770   35.7600 C   0  0  0  0  0  0  0  0  0  0  0  0
   40.9350   22.4370   36.6860 N   0  0  0  0  0  0  0  0  0  0  0  0
   39.2920   21.9230   37.9590 H   0  0  0  0  0  0  0  0  0  0  0  0
   42.3690   23.1800   35.3320 H   0  0  0  0  0  0  0  0  0  0  0  0
   37.6300   23.7960   37.2580 N   0  0  0  0  0  0  0  0  0  0  0  0
   37.8390   23.7310   38.2790 H   0  0  0  0  0  0  0  0  0  0  0  0
   36.6790   23.9340   36.8950 H   0  0  0  0  0  0  0  0  0  0  0  0
  1  2  1  0  0  0  0
  2  3  1  0  0  0  0
  3 14  1  0  0  0  0
  3  4  2  0  0  0  0
  4  9  1  0  0  0  0
  5 10  1  0  0  0  0
  5  4  1  0  0  0  0
  6  5  2  0  0  0  0
  7  6  1  0  0  0  0
  8  2  2  0  0  0  0
  8  6  1  0  0  0  0
 11  8  1  0  0  0  0
 12 18  1  0  0  0  0
 13 12  1  0  0  0  0
 13 20  1  0  0  0  0
 14 13  2  0  0  0  0
 15 14  1  0  0  0  0
 15 16  2  0  0  0  0
 16 17  1  0  0  0  0
 17 12  2  0  0  0  0
 19 16  1  0  0  0  0
 20 21  1  0  0  0  0
 22 20  1  0  0  0  0
M  END
>  <minimizedAffinity>
-4.40830803

$$$$

 OpenBabel03272504443D

 22 23  0  0  0  0  0  0  0  0999 V2000
   37.5420   23.7980   37.3690 Cl  0  0  0  0  0  0  0  0  0  0  0  0
   39.1450   23.5620   36.7280 C   0  0  0  0  0  0  0  0  0  0  0  0
   39.6420   24.3790   35.7300 C   0  0  0  0  0  0  0  0  0  0  0  0
   40.9150   24.1220   35.2840 C   0  0  0  0  0  0  0  0  0  0  0  0
   41.6970   23.1020   35.7850 C   0  0  0  0  0  0  0  0  0  0  0  0
   41.1450   22.2960   36.8000 C   0  0  0  0  0  0  0  0  0  0  0  0
   42.1690   21.0190   37.4020 Cl  0  0  0  0  0  0  0  0  0  0  0  0
   39.8780   22.5170   37.2760 C   0  0  0  0  0  0  0  0  0  0  0  0
   41.2970   24.7640   34.5040 H   0  0  0  0  0  0  0  0  0  0  0  0
   42.6990   22.9240   35.4110 H   0  0  0  0  0  0  0  0  0  0  0  0
   39.4650   21.8800   38.0680 H   0  0  0  0  0  0  0  0  0  0  0  0
   37.1370   26.3100   33.6440 C   0  0  0  0  0  0  0  0  0  0  0  0
   37.9770   25.3050   34.1210 C   0  0  0  0  0  0  0  0  0  0  0  0
   38.7730   25.4340   35.2450 C   0  0  0  0  0  0  0  0  0  0  0  0
   38.6810   26.6330   35.8700 N   0  0  0  0  0  0  0  0  0  0  0  0
   37.8710   27.6110   35.4170 C   0  0  0  0  0  0  0  0  0  0  0  0
   37.1160   27.4640   34.3360 N   0  0  0  0  0  0  0  0  0  0  0  0
   36.5380   26.1430   32.7540 H   0  0  0  0  0  0  0  0  0  0  0  0
   37.8730   28.5290   35.9900 H   0  0  0  0  0  0  0  0  0  0  0  0
   37.9970   24.0840   33.3870 N   0  0  0  0  0  0  0  0  0  0  0  0
   38.1170   24.4470   32.4140 H   0  0  0  0  0  0  0  0  0  0  0  0
   37.9250   23.0820   33.5990 H   0  0  0  0  0  0  0  0  0  0  0  0
  2  8  1  0  0  0  0
  2  1  1  0  0  0  0
  3  2  2  0  0  0  0
  4  3  1  0  0  0  0
  4  5  2  0  0  0  0
  5  6  1  0  0  0  0
  6  8  2  0  0  0  0
  6  7  1  0  0  0  0
  8 11  1  0  0  0  0
  9  4  1  0  0  0  0
 10  5  1  0  0  0  0
 12 13  2  0  0  0  0
 12 17  1  0  0  0  0
 13 14  1  0  0  0  0
 14  3  1  0  0  0  0
 14 15  2  0  0  0  0
 16 15  1  0  0  0  0
 16 19  1  0  0  0  0
 17 16  2  0  0  0  0
 18 12  1  0  0  0  0
 20 22  1  0  0  0  0
 20 13  1  0  0  0  0
 21 20  1  0  0  0  0
M  END
>  <minimizedAffinity>
-4.33610821

$$$$

 OpenBabel03272504443D

 22 23  0  0  0  0  0  0  0  0999 V2000
   38.7880   26.8860   32.3110 Cl  0  0  0  0  0  0  0  0  0  0  0  0
   37.4150   25.9370   31.8080 C   0  0  0  0  0  0  0  0  0  0  0  0
   36.2280   26.5400   31.4360 C   0  0  0  0  0  0  0  0  0  0  0  0
   35.1990   25.7170   31.0540 C   0  0  0  0  0  0  0  0  0  0  0  0
   35.3040   24.3410   31.0280 C   0  0  0  0  0  0  0  0  0  0  0  0
   36.5340   23.7740   31.4160 C   0  0  0  0  0  0  0  0  0  0  0  0
   36.6210   22.0340   31.3690 Cl  0  0  0  0  0  0  0  0  0  0  0  0
   37.5890   24.5590   31.8050 C   0  0  0  0  0  0  0  0  0  0  0  0
   34.2740   26.1930   30.7650 H   0  0  0  0  0  0  0  0  0  0  0  0
   34.4720   23.7170   30.7210 H   0  0  0  0  0  0  0  0  0  0  0  0
   38.5390   24.1000   32.1040 H   0  0  0  0  0  0  0  0  0  0  0  0
   36.4670   30.1880   30.4400 C   0  0  0  0  0  0  0  0  0  0  0  0
   36.5100   28.7940   30.4090 C   0  0  0  0  0  0  0  0  0  0  0  0
   36.1800   27.9880   31.4840 C   0  0  0  0  0  0  0  0  0  0  0  0
   35.8000   28.6580   32.5990 N   0  0  0  0  0  0  0  0  0  0  0  0
   35.7550   30.0050   32.6390 C   0  0  0  0  0  0  0  0  0  0  0  0
   36.0770   30.7580   31.5950 N   0  0  0  0  0  0  0  0  0  0  0  0
   36.7420   30.7610   29.5600 H   0  0  0  0  0  0  0  0  0  0  0  0
   35.4390   30.4400   33.5790 H   0  0  0  0  0  0  0  0  0  0  0  0
   36.9240   28.1940   29.1850 N   0  0  0  0  0  0  0  0  0  0  0  0
   37.7860   28.7470   28.9820 H   0  0  0  0  0  0  0  0  0  0  0  0
   36.5880   27.4440   28.5690 H   0  0  0  0  0  0  0  0  0  0  0  0
  2  1  1  0  0  0  0
  3 14  1  0  0  0  0
  3  2  2  0  0  0  0
  4  3  1  0  0  0  0
  5  4  2  0  0  0  0
  5  6  1  0  0  0  0
  6  8  2  0  0  0  0
  7  6  1  0  0  0  0
  8  2  1  0  0  0  0
  8 11  1  0  0  0  0
  9  4  1  0  0  0  0
 10  5  1  0  0  0  0
 12 17  1  0  0  0  0
 13 12  2  0  0  0  0
 13 14  1  0  0  0  0
 14 15  2  0  0  0  0
 15 16  1  0  0  0  0
 16 19  1  0  0  0  0
 17 16  2  0  0  0  0
 18 12  1  0  0  0  0
 20 13  1  0  0  0  0
 21 20  1  0  0  0  0
 22 20  1  0  0  0  0
M  END
>  <minimizedAffinity>
-4.3036356

$$$$

 OpenBabel03272504443D

 22 23  0  0  0  0  0  0  0  0999 V2000
   38.9340   27.2470   35.8830 Cl  0  0  0  0  0  0  0  0  0  0  0  0
   38.3800   26.3620   34.4880 C   0  0  0  0  0  0  0  0  0  0  0  0
   38.1910   24.9940   34.5390 C   0  0  0  0  0  0  0  0  0  0  0  0
   37.7530   24.3780   33.3930 C   0  0  0  0  0  0  0  0  0  0  0  0
   37.5010   25.0600   32.2200 C   0  0  0  0  0  0  0  0  0  0  0  0
   37.7090   26.4530   32.2180 C   0  0  0  0  0  0  0  0  0  0  0  0
   37.3780   27.2720   30.7160 Cl  0  0  0  0  0  0  0  0  0  0  0  0
   38.1460   27.1100   33.3400 C   0  0  0  0  0  0  0  0  0  0  0  0
   37.6080   23.3090   33.4380 H   0  0  0  0  0  0  0  0  0  0  0  0
   37.1560   24.5440   31.3310 H   0  0  0  0  0  0  0  0  0  0  0  0
   38.3010   28.1950   33.3210 H   0  0  0  0  0  0  0  0  0  0  0  0
   39.9430   23.0310   37.2650 C   0  0  0  0  0  0  0  0  0  0  0  0
   39.6580   23.6700   36.0590 C   0  0  0  0  0  0  0  0  0  0  0  0
   38.4730   24.3340   35.7980 C   0  0  0  0  0  0  0  0  0  0  0  0
   37.5830   24.3250   36.8200 N   0  0  0  0  0  0  0  0  0  0  0  0
   37.8480   23.7110   37.9900 C   0  0  0  0  0  0  0  0  0  0  0  0
   38.9930   23.0800   38.2170 N   0  0  0  0  0  0  0  0  0  0  0  0
   40.8940   22.5260   37.4030 H   0  0  0  0  0  0  0  0  0  0  0  0
   37.0680   23.7640   38.7390 H   0  0  0  0  0  0  0  0  0  0  0  0
   40.6660   23.6160   35.0530 N   0  0  0  0  0  0  0  0  0  0  0  0
   40.8930   22.5970   35.0630 H   0  0  0  0  0  0  0  0  0  0  0  0
   41.1330   24.2820   34.4260 H   0  0  0  0  0  0  0  0  0  0  0  0
  2  3  1  0  0  0  0
  2  1  1  0  0  0  0
  3 14  1  0  0  0  0
  4  9  1  0  0  0  0
  4  3  2  0  0  0  0
  5  4  1  0  0  0  0
  6  5  2  0  0  0  0
  6  8  1  0  0  0  0
  7  6  1  0  0  0  0
  8  2  2  0  0  0  0
 10  5  1  0  0  0  0
 11  8  1  0  0  0  0
 12 18  1  0  0  0  0
 12 17  1  0  0  0  0
 13 12  2  0  0  0  0
 14 13  1  0  0  0  0
 14 15  2  0  0  0  0
 15 16  1  0  0  0  0
 16 17  2  0  0  0  0
 16 19  1  0  0  0  0
 20 21  1  0  0  0  0
 20 13  1  0  0  0  0
 22 20  1  0  0  0  0
M  END
>  <minimizedAffinity>
-4.28077221

$$$$

 OpenBabel03272504443D

 22 23  0  0  0  0  0  0  0  0999 V2000
   38.3470   23.7100   35.4630 Cl  0  0  0  0  0  0  0  0  0  0  0  0
   39.9180   24.4350   35.2570 C   0  0  0  0  0  0  0  0  0  0  0  0
   40.0580   25.6800   34.6750 C   0  0  0  0  0  0  0  0  0  0  0  0
   41.3330   26.1760   34.5520 C   0  0  0  0  0  0  0  0  0  0  0  0
   42.4520   25.4890   34.9780 C   0  0  0  0  0  0  0  0  0  0  0  0
   42.2560   24.2230   35.5630 C   0  0  0  0  0  0  0  0  0  0  0  0
   43.6980   23.3930   36.0850 Cl  0  0  0  0  0  0  0  0  0  0  0  0
   41.0010   23.6900   35.7060 C   0  0  0  0  0  0  0  0  0  0  0  0
   41.4360   27.1490   34.0970 H   0  0  0  0  0  0  0  0  0  0  0  0
   43.4460   25.9070   34.8660 H   0  0  0  0  0  0  0  0  0  0  0  0
   40.8680   22.7030   36.1650 H   0  0  0  0  0  0  0  0  0  0  0  0
   36.9930   27.9070   34.6460 C   0  0  0  0  0  0  0  0  0  0  0  0
   38.1590   27.2540   35.0420 C   0  0  0  0  0  0  0  0  0  0  0  0
   38.8460   26.3520   34.2490 C   0  0  0  0  0  0  0  0  0  0  0  0
   38.2970   26.1380   33.0290 N   0  0  0  0  0  0  0  0  0  0  0  0
   37.1700   26.7650   32.6350 C   0  0  0  0  0  0  0  0  0  0  0  0
   36.5290   27.6270   33.4140 N   0  0  0  0  0  0  0  0  0  0  0  0
   36.5030   28.6030   35.3190 H   0  0  0  0  0  0  0  0  0  0  0  0
   36.8170   26.5230   31.6420 H   0  0  0  0  0  0  0  0  0  0  0  0
   38.6480   27.5520   36.3470 N   0  0  0  0  0  0  0  0  0  0  0  0
   37.7740   27.4460   36.9080 H   0  0  0  0  0  0  0  0  0  0  0  0
   39.5490   27.8100   36.7670 H   0  0  0  0  0  0  0  0  0  0  0  0
  2  1  1  0  0  0  0
  2  8  1  0  0  0  0
  3  2  2  0  0  0  0
  4  3  1  0  0  0  0
  4  5  2  0  0  0  0
  5  6  1  0  0  0  0
  6  8  2  0  0  0  0
  6  7  1  0  0  0  0
  8 11  1  0  0  0  0
  9  4  1  0  0  0  0
 10  5  1  0  0  0  0
 12 13  1  0  0  0  0
 12 18  1  0  0  0  0
 13 20  1  0  0  0  0
 14  3  1  0  0  0  0
 14 13  2  0  0  0  0
 15 14  1  0  0  0  0
 16 15  2  0  0  0  0
 16 17  1  0  0  0  0
 17 12  2  0  0  0  0
 19 16  1  0  0  0  0
 20 22  1  0  0  0  0
 20 21  1  0  0  0  0
M  END
>  <minimizedAffinity>
-4.2199316

$$$$

 OpenBabel03272504443D

 22 23  0  0  0  0  0  0  0  0999 V2000
   39.8690   25.5060   32.0330 Cl  0  0  0  0  0  0  0  0  0  0  0  0
   39.1460   26.3330   33.3860 C   0  0  0  0  0  0  0  0  0  0  0  0
   39.7200   26.2870   34.6420 C   0  0  0  0  0  0  0  0  0  0  0  0
   39.0820   26.9670   35.6490 C   0  0  0  0  0  0  0  0  0  0  0  0
   37.9160   27.6780   35.4570 C   0  0  0  0  0  0  0  0  0  0  0  0
   37.3680   27.6940   34.1590 C   0  0  0  0  0  0  0  0  0  0  0  0
   35.8940   28.6040   33.9640 Cl  0  0  0  0  0  0  0  0  0  0  0  0
   37.9720   27.0290   33.1230 C   0  0  0  0  0  0  0  0  0  0  0  0
   39.5360   26.9270   36.6280 H   0  0  0  0  0  0  0  0  0  0  0  0
   37.4350   28.2050   36.2740 H   0  0  0  0  0  0  0  0  0  0  0  0
   37.5320   27.0530   32.1190 H   0  0  0  0  0  0  0  0  0  0  0  0
   43.3860   25.3310   34.6620 C   0  0  0  0  0  0  0  0  0  0  0  0
   42.2000   26.0530   34.5320 C   0  0  0  0  0  0  0  0  0  0  0  0
   40.9450   25.5240   34.7800 C   0  0  0  0  0  0  0  0  0  0  0  0
   40.9440   24.2260   35.1680 N   0  0  0  0  0  0  0  0  0  0  0  0
   42.0860   23.5200   35.2970 C   0  0  0  0  0  0  0  0  0  0  0  0
   43.2780   24.0490   35.0530 N   0  0  0  0  0  0  0  0  0  0  0  0
   44.3390   25.8070   34.4500 H   0  0  0  0  0  0  0  0  0  0  0  0
   41.9720   22.4920   35.6130 H   0  0  0  0  0  0  0  0  0  0  0  0
   42.3180   27.4100   34.1170 N   0  0  0  0  0  0  0  0  0  0  0  0
   42.9570   27.3060   33.2970 H   0  0  0  0  0  0  0  0  0  0  0  0
   41.9530   28.3200   34.4230 H   0  0  0  0  0  0  0  0  0  0  0  0
  1  2  1  0  0  0  0
  2  3  1  0  0  0  0
  3 14  1  0  0  0  0
  3  4  2  0  0  0  0
  4  9  1  0  0  0  0
  5  4  1  0  0  0  0
  5 10  1  0  0  0  0
  6  5  2  0  0  0  0
  7  6  1  0  0  0  0
  8  2  2  0  0  0  0
  8  6  1  0  0  0  0
 11  8  1  0  0  0  0
 12 17  1  0  0  0  0
 13 12  2  0  0  0  0
 13 14  1  0  0  0  0
 14 15  2  0  0  0  0
 15 16  1  0  0  0  0
 16 19  1  0  0  0  0
 17 16  2  0  0  0  0
 18 12  1  0  0  0  0
 20 22  1  0  0  0  0
 20 13  1  0  0  0  0
 21 20  1  0  0  0  0
M  END
>  <minimizedAffinity>
-4.11601257

$$$$

 OpenBabel03272504443D

 22 23  0  0  0  0  0  0  0  0999 V2000
   38.9540   23.4920   33.7950 Cl  0  0  0  0  0  0  0  0  0  0  0  0
   37.5190   22.8500   33.0430 C   0  0  0  0  0  0  0  0  0  0  0  0
   36.7550   23.6220   32.1890 C   0  0  0  0  0  0  0  0  0  0  0  0
   35.6410   23.0360   31.6400 C   0  0  0  0  0  0  0  0  0  0  0  0
   35.2660   21.7340   31.9070 C   0  0  0  0  0  0  0  0  0  0  0  0
   36.0770   20.9890   32.7850 C   0  0  0  0  0  0  0  0  0  0  0  0
   35.5650   19.3510   33.0920 Cl  0  0  0  0  0  0  0  0  0  0  0  0
   37.1990   21.5340   33.3540 C   0  0  0  0  0  0  0  0  0  0  0  0
   35.0470   23.6440   30.9740 H   0  0  0  0  0  0  0  0  0  0  0  0
   34.3800   21.3000   31.4580 H   0  0  0  0  0  0  0  0  0  0  0  0
   37.8190   20.9390   34.0350 H   0  0  0  0  0  0  0  0  0  0  0  0
   38.3740   26.6540   30.5950 C   0  0  0  0  0  0  0  0  0  0  0  0
   37.9400   25.3510   30.8400 C   0  0  0  0  0  0  0  0  0  0  0  0
   37.2000   24.9800   31.9480 C   0  0  0  0  0  0  0  0  0  0  0  0
   36.9160   25.9920   32.8040 N   0  0  0  0  0  0  0  0  0  0  0  0
   37.3310   27.2540   32.5770 C   0  0  0  0  0  0  0  0  0  0  0  0
   38.0400   27.5860   31.5060 N   0  0  0  0  0  0  0  0  0  0  0  0
   38.9540   26.8760   29.7050 H   0  0  0  0  0  0  0  0  0  0  0  0
   37.0500   27.9850   33.3240 H   0  0  0  0  0  0  0  0  0  0  0  0
   38.2950   24.3660   29.8740 N   0  0  0  0  0  0  0  0  0  0  0  0
   39.3150   24.5640   29.7640 H   0  0  0  0  0  0  0  0  0  0  0  0
   37.8160   23.6220   29.3520 H   0  0  0  0  0  0  0  0  0  0  0  0
  2  8  1  0  0  0  0
  2  1  1  0  0  0  0
  3  2  2  0  0  0  0
  4  5  2  0  0  0  0
  4  3  1  0  0  0  0
  5  6  1  0  0  0  0
  6  7  1  0  0  0  0
  6  8  2  0  0  0  0
  8 11  1  0  0  0  0
  9  4  1  0  0  0  0
 10  5  1  0  0  0  0
 12 13  2  0  0  0  0
 12 17  1  0  0  0  0
 13 14  1  0  0  0  0
 14  3  1  0  0  0  0
 14 15  2  0  0  0  0
 16 15  1  0  0  0  0
 16 19  1  0  0  0  0
 17 16  2  0  0  0  0
 18 12  1  0  0  0  0
 20 13  1  0  0  0  0
 21 20  1  0  0  0  0
 22 20  1  0  0  0  0
M  END
>  <minimizedAffinity>
-4.10446692

$$$$

 OpenBabel03272504443D

 22 23  0  0  0  0  0  0  0  0999 V2000
   39.1330   27.0600   35.6700 Cl  0  0  0  0  0  0  0  0  0  0  0  0
   38.3220   26.1700   34.4100 C   0  0  0  0  0  0  0  0  0  0  0  0
   38.4460   24.7980   34.3120 C   0  0  0  0  0  0  0  0  0  0  0  0
   37.7740   24.1780   33.2880 C   0  0  0  0  0  0  0  0  0  0  0  0
   36.9970   24.8610   32.3750 C   0  0  0  0  0  0  0  0  0  0  0  0
   36.9030   26.2600   32.5160 C   0  0  0  0  0  0  0  0  0  0  0  0
   35.9120   27.0800   31.3400 Cl  0  0  0  0  0  0  0  0  0  0  0  0
   37.5580   26.9190   33.5240 C   0  0  0  0  0  0  0  0  0  0  0  0
   37.8740   23.1050   33.2160 H   0  0  0  0  0  0  0  0  0  0  0  0
   36.4780   24.3430   31.5760 H   0  0  0  0  0  0  0  0  0  0  0  0
   37.4720   28.0090   33.6190 H   0  0  0  0  0  0  0  0  0  0  0  0
   39.5700   23.0090   37.4570 C   0  0  0  0  0  0  0  0  0  0  0  0
   38.7840   23.6470   36.4980 C   0  0  0  0  0  0  0  0  0  0  0  0
   39.2760   24.1370   35.3000 C   0  0  0  0  0  0  0  0  0  0  0  0
   40.6050   23.9500   35.1150 N   0  0  0  0  0  0  0  0  0  0  0  0
   41.3730   23.3340   36.0360 C   0  0  0  0  0  0  0  0  0  0  0  0
   40.8790   22.8730   37.1780 N   0  0  0  0  0  0  0  0  0  0  0  0
   39.1200   22.6500   38.3780 H   0  0  0  0  0  0  0  0  0  0  0  0
   42.4220   23.2370   35.7880 H   0  0  0  0  0  0  0  0  0  0  0  0
   37.3990   23.7910   36.7960 N   0  0  0  0  0  0  0  0  0  0  0  0
   37.4500   24.1730   37.7670 H   0  0  0  0  0  0  0  0  0  0  0  0
   36.5080   23.6160   36.3160 H   0  0  0  0  0  0  0  0  0  0  0  0
  2  1  1  0  0  0  0
  3  2  1  0  0  0  0
  3 14  1  0  0  0  0
  4  3  2  0  0  0  0
  5  6  2  0  0  0  0
  5  4  1  0  0  0  0
  6  8  1  0  0  0  0
  7  6  1  0  0  0  0
  8 11  1  0  0  0  0
  8  2  2  0  0  0  0
  9  4  1  0  0  0  0
 10  5  1  0  0  0  0
 12 18  1  0  0  0  0
 13 20  1  0  0  0  0
 13 12  2  0  0  0  0
 14 13  1  0  0  0  0
 15 14  2  0  0  0  0
 15 16  1  0  0  0  0
 16 17  2  0  0  0  0
 17 12  1  0  0  0  0
 19 16  1  0  0  0  0
 20 21  1  0  0  0  0
 22 20  1  0  0  0  0
M  END
>  <minimizedAffinity>
-4.09267998

$$$$
