
 OpenBabel03262520533D

 19 20  0  0  1  0  0  0  0  0999 V2000
   38.9730   23.3150   36.8920 C   0  0  2  0  0  0  0  0  0  0  0  0
   38.7360   23.2390   38.3490 C   0  0  0  0  0  0  0  0  0  0  0  0
   40.0970   22.9230   37.7580 C   0  0  1  0  0  0  0  0  0  0  0  0
   38.5010   22.5290   36.2660 H   0  0  0  0  0  0  0  0  0  0  0  0
   38.0980   22.4270   38.7520 H   0  0  0  0  0  0  0  0  0  0  0  0
   38.5710   24.2110   38.8550 H   0  0  0  0  0  0  0  0  0  0  0  0
   40.8590   23.6970   38.0130 H   0  0  0  0  0  0  0  0  0  0  0  0
   38.2890   26.8350   35.8910 C   0  0  0  0  0  0  0  0  0  0  0  0
   39.2550   27.0520   34.8960 C   0  0  0  0  0  0  0  0  0  0  0  0
   40.1300   25.9740   34.5780 C   0  0  0  0  0  0  0  0  0  0  0  0
   39.9970   24.8030   35.2360 N   0  0  0  0  0  0  0  0  0  0  0  0
   39.0430   24.6340   36.1970 C   0  0  0  0  0  0  0  0  0  0  0  0
   38.1970   25.6340   36.5250 N   0  0  0  0  0  0  0  0  0  0  0  0
   37.5840   27.5660   36.2100 H   0  0  0  0  0  0  0  0  0  0  0  0
   39.2950   28.0220   34.4160 H   0  0  0  0  0  0  0  0  0  0  0  0
   40.8700   26.1540   33.8090 H   0  0  0  0  0  0  0  0  0  0  0  0
   40.6110   21.5850   37.7830 N   0  0  0  0  0  0  0  0  0  0  0  0
   40.5940   21.0700   36.8990 H   0  0  0  0  0  0  0  0  0  0  0  0
   41.4100   21.4370   38.4110 H   0  0  0  0  0  0  0  0  0  0  0  0
  1  4  1  6  0  0  0
  1  3  1  0  0  0  0
  1  2  1  0  0  0  0
  2  5  1  0  0  0  0
  2  6  1  0  0  0  0
  3 17  1  0  0  0  0
  3  7  1  1  0  0  0
  3  2  1  0  0  0  0
  8 14  1  0  0  0  0
  8 13  1  0  0  0  0
  9  8  2  0  0  0  0
 10  9  1  0  0  0  0
 10 11  2  0  0  0  0
 11 12  1  0  0  0  0
 12 13  2  0  0  0  0
 12  1  1  0  0  0  0
 15  9  1  0  0  0  0
 16 10  1  0  0  0  0
 17 19  1  0  0  0  0
 18 17  1  0  0  0  0
M  END
>  <minimizedAffinity>
-3.81482387

$$$$

 OpenBabel03262520533D

 19 20  0  0  1  0  0  0  0  0999 V2000
   38.9930   23.3150   36.8640 C   0  0  2  0  0  0  0  0  0  0  0  0
   38.7590   23.2630   38.3220 C   0  0  0  0  0  0  0  0  0  0  0  0
   40.1120   22.9140   37.7330 C   0  0  1  0  0  0  0  0  0  0  0  0
   38.5050   22.5310   36.2500 H   0  0  0  0  0  0  0  0  0  0  0  0
   38.1070   22.4690   38.7380 H   0  0  0  0  0  0  0  0  0  0  0  0
   38.6130   24.2450   38.8160 H   0  0  0  0  0  0  0  0  0  0  0  0
   40.8890   23.6760   37.9760 H   0  0  0  0  0  0  0  0  0  0  0  0
   40.0360   26.0000   34.5050 C   0  0  0  0  0  0  0  0  0  0  0  0
   39.1810   27.0550   34.8620 C   0  0  0  0  0  0  0  0  0  0  0  0
   38.2560   26.8270   35.9210 C   0  0  0  0  0  0  0  0  0  0  0  0
   38.2390   25.6230   36.5300 N   0  0  0  0  0  0  0  0  0  0  0  0
   39.0880   24.6240   36.1520 C   0  0  0  0  0  0  0  0  0  0  0  0
   39.9780   24.8040   35.1530 N   0  0  0  0  0  0  0  0  0  0  0  0
   40.7660   26.0560   33.7310 H   0  0  0  0  0  0  0  0  0  0  0  0
   39.2600   27.9900   34.3210 H   0  0  0  0  0  0  0  0  0  0  0  0
   37.6030   27.6480   36.1860 H   0  0  0  0  0  0  0  0  0  0  0  0
   40.6000   21.5660   37.7760 N   0  0  0  0  0  0  0  0  0  0  0  0
   40.5710   21.0400   36.8980 H   0  0  0  0  0  0  0  0  0  0  0  0
   41.3980   21.4110   38.4030 H   0  0  0  0  0  0  0  0  0  0  0  0
  1  4  1  6  0  0  0
  1  3  1  0  0  0  0
  1  2  1  0  0  0  0
  2  5  1  0  0  0  0
  2  6  1  0  0  0  0
  3 17  1  0  0  0  0
  3  7  1  1  0  0  0
  3  2  1  0  0  0  0
  8  9  2  0  0  0  0
  8 13  1  0  0  0  0
  9 10  1  0  0  0  0
 10 16  1  0  0  0  0
 10 11  2  0  0  0  0
 12 11  1  0  0  0  0
 12  1  1  0  0  0  0
 13 12  2  0  0  0  0
 14  8  1  0  0  0  0
 15  9  1  0  0  0  0
 17 19  1  0  0  0  0
 18 17  1  0  0  0  0
M  END
>  <minimizedAffinity>
-3.78916645

$$$$

 OpenBabel03262520533D

 19 20  0  0  1  0  0  0  0  0999 V2000
   35.1090   21.0880   32.3520 C   0  0  2  0  0  0  0  0  0  0  0  0
   35.5490   20.3310   33.5420 C   0  0  0  0  0  0  0  0  0  0  0  0
   35.4700   19.6710   32.1780 C   0  0  1  0  0  0  0  0  0  0  0  0
   34.0340   21.3600   32.3000 H   0  0  0  0  0  0  0  0  0  0  0  0
   34.8090   20.0820   34.3290 H   0  0  0  0  0  0  0  0  0  0  0  0
   36.5360   20.6230   33.9530 H   0  0  0  0  0  0  0  0  0  0  0  0
   36.4770   19.4310   31.7650 H   0  0  0  0  0  0  0  0  0  0  0  0
   38.0110   22.7550   30.7230 C   0  0  0  0  0  0  0  0  0  0  0  0
   37.5510   24.0730   30.5750 C   0  0  0  0  0  0  0  0  0  0  0  0
   36.2400   24.3720   31.0480 C   0  0  0  0  0  0  0  0  0  0  0  0
   35.5050   23.3900   31.6100 N   0  0  0  0  0  0  0  0  0  0  0  0
   35.9920   22.1210   31.7340 C   0  0  0  0  0  0  0  0  0  0  0  0
   37.2290   21.8020   31.2980 N   0  0  0  0  0  0  0  0  0  0  0  0
   38.9710   22.4180   30.4080 H   0  0  0  0  0  0  0  0  0  0  0  0
   38.2050   24.8010   30.1130 H   0  0  0  0  0  0  0  0  0  0  0  0
   35.8980   25.3910   30.9290 H   0  0  0  0  0  0  0  0  0  0  0  0
   34.4880   18.6600   31.9130 N   0  0  0  0  0  0  0  0  0  0  0  0
   33.6870   18.9380   31.3400 H   0  0  0  0  0  0  0  0  0  0  0  0
   34.8610   17.7110   31.7900 H   0  0  0  0  0  0  0  0  0  0  0  0
  1  4  1  6  0  0  0
  1  2  1  0  0  0  0
  2  6  1  0  0  0  0
  2  5  1  0  0  0  0
  3  7  1  6  0  0  0
  3  1  1  0  0  0  0
  3  2  1  0  0  0  0
  8 13  1  0  0  0  0
  9  8  2  0  0  0  0
  9 10  1  0  0  0  0
 10 11  2  0  0  0  0
 11 12  1  0  0  0  0
 12  1  1  0  0  0  0
 13 12  2  0  0  0  0
 14  8  1  0  0  0  0
 15  9  1  0  0  0  0
 16 10  1  0  0  0  0
 17  3  1  0  0  0  0
 18 17  1  0  0  0  0
 19 17  1  0  0  0  0
M  END
>  <minimizedAffinity>
-3.55244541

$$$$

 OpenBabel03262520533D

 19 20  0  0  1  0  0  0  0  0999 V2000
   38.4540   22.7460   36.4620 C   0  0  2  0  0  0  0  0  0  0  0  0
   39.5850   23.5610   35.9720 C   0  0  0  0  0  0  0  0  0  0  0  0
   39.8160   22.2170   36.6370 C   0  0  1  0  0  0  0  0  0  0  0  0
   37.9220   23.1180   37.3620 H   0  0  0  0  0  0  0  0  0  0  0  0
   39.8450   24.4990   36.5000 H   0  0  0  0  0  0  0  0  0  0  0  0
   39.6660   23.6480   34.8700 H   0  0  0  0  0  0  0  0  0  0  0  0
   40.1780   21.4450   35.9170 H   0  0  0  0  0  0  0  0  0  0  0  0
   36.9640   21.4020   33.3260 C   0  0  0  0  0  0  0  0  0  0  0  0
   35.8380   20.7130   33.8050 C   0  0  0  0  0  0  0  0  0  0  0  0
   35.6030   20.7280   35.2110 C   0  0  0  0  0  0  0  0  0  0  0  0
   36.4600   21.3930   36.0130 N   0  0  0  0  0  0  0  0  0  0  0  0
   37.5440   22.0490   35.5060 C   0  0  0  0  0  0  0  0  0  0  0  0
   37.7970   22.0570   34.1800 N   0  0  0  0  0  0  0  0  0  0  0  0
   37.2380   21.4590   32.2980 H   0  0  0  0  0  0  0  0  0  0  0  0
   35.2010   20.2050   33.0930 H   0  0  0  0  0  0  0  0  0  0  0  0
   34.7320   20.1940   35.5660 H   0  0  0  0  0  0  0  0  0  0  0  0
   40.4460   22.1380   37.9230 N   0  0  0  0  0  0  0  0  0  0  0  0
   39.8370   21.9350   38.7200 H   0  0  0  0  0  0  0  0  0  0  0  0
   41.3890   21.7310   37.9220 H   0  0  0  0  0  0  0  0  0  0  0  0
  1  3  1  0  0  0  0
  1  4  1  1  0  0  0
  2  1  1  0  0  0  0
  2  5  1  0  0  0  0
  2  3  1  0  0  0  0
  3  7  1  6  0  0  0
  3 17  1  0  0  0  0
  6  2  1  0  0  0  0
  8  9  2  0  0  0  0
  8 13  1  0  0  0  0
  9 10  1  0  0  0  0
 10 16  1  0  0  0  0
 10 11  2  0  0  0  0
 12 11  1  0  0  0  0
 12  1  1  0  0  0  0
 13 12  2  0  0  0  0
 14  8  1  0  0  0  0
 15  9  1  0  0  0  0
 17 18  1  0  0  0  0
 19 17  1  0  0  0  0
M  END
>  <minimizedAffinity>
-3.47721434

$$$$

 OpenBabel03262520533D

 19 20  0  0  1  0  0  0  0  0999 V2000
   38.4070   25.8600   35.1000 C   0  0  2  0  0  0  0  0  0  0  0  0
   39.2820   27.0440   34.9700 C   0  0  0  0  0  0  0  0  0  0  0  0
   37.8520   27.1760   35.4580 C   0  0  1  0  0  0  0  0  0  0  0  0
   38.0590   25.3890   34.1580 H   0  0  0  0  0  0  0  0  0  0  0  0
   39.5640   27.4000   33.9590 H   0  0  0  0  0  0  0  0  0  0  0  0
   40.1170   27.1010   35.6970 H   0  0  0  0  0  0  0  0  0  0  0  0
   37.7970   27.4480   36.5380 H   0  0  0  0  0  0  0  0  0  0  0  0
   39.7230   22.9860   37.0660 C   0  0  0  0  0  0  0  0  0  0  0  0
   38.9960   23.0880   38.2630 C   0  0  0  0  0  0  0  0  0  0  0  0
   38.0530   24.1500   38.3740 C   0  0  0  0  0  0  0  0  0  0  0  0
   37.8970   25.0020   37.3380 N   0  0  0  0  0  0  0  0  0  0  0  0
   38.6250   24.8660   36.1920 C   0  0  0  0  0  0  0  0  0  0  0  0
   39.5280   23.8720   36.0510 N   0  0  0  0  0  0  0  0  0  0  0  0
   40.4530   22.2350   36.8720 H   0  0  0  0  0  0  0  0  0  0  0  0
   39.1820   22.3630   39.0450 H   0  0  0  0  0  0  0  0  0  0  0  0
   37.4990   24.2180   39.3010 H   0  0  0  0  0  0  0  0  0  0  0  0
   36.8640   27.8330   34.6530 N   0  0  0  0  0  0  0  0  0  0  0  0
   36.1840   27.2320   34.1800 H   0  0  0  0  0  0  0  0  0  0  0  0
   36.5370   28.7370   35.0150 H   0  0  0  0  0  0  0  0  0  0  0  0
  1  4  1  6  0  0  0
  1  3  1  0  0  0  0
  1 12  1  0  0  0  0
  2  1  1  0  0  0  0
  2  3  1  0  0  0  0
  2  6  1  0  0  0  0
  3  7  1  1  0  0  0
  5  2  1  0  0  0  0
  8  9  1  0  0  0  0
  9 10  2  0  0  0  0
  9 15  1  0  0  0  0
 10 16  1  0  0  0  0
 11 10  1  0  0  0  0
 12 11  2  0  0  0  0
 13 12  1  0  0  0  0
 13  8  2  0  0  0  0
 14  8  1  0  0  0  0
 17 19  1  0  0  0  0
 17  3  1  0  0  0  0
 18 17  1  0  0  0  0
M  END
>  <minimizedAffinity>
-3.42260933

$$$$

 OpenBabel03262520533D

 19 20  0  0  1  0  0  0  0  0999 V2000
   38.2630   27.2750   33.8300 C   0  0  2  0  0  0  0  0  0  0  0  0
   39.6650   26.9080   34.1210 C   0  0  0  0  0  0  0  0  0  0  0  0
   38.5850   26.7800   35.1790 C   0  0  1  0  0  0  0  0  0  0  0  0
   38.0430   28.3560   33.7130 H   0  0  0  0  0  0  0  0  0  0  0  0
   40.4300   27.7060   34.1950 H   0  0  0  0  0  0  0  0  0  0  0  0
   40.0350   25.9990   33.6040 H   0  0  0  0  0  0  0  0  0  0  0  0
   38.3510   25.7160   35.4190 H   0  0  0  0  0  0  0  0  0  0  0  0
   36.7280   24.3110   32.1820 C   0  0  0  0  0  0  0  0  0  0  0  0
   35.7970   24.9040   31.3150 C   0  0  0  0  0  0  0  0  0  0  0  0
   35.7150   26.3270   31.3060 C   0  0  0  0  0  0  0  0  0  0  0  0
   36.5240   27.0360   32.1200 N   0  0  0  0  0  0  0  0  0  0  0  0
   37.4160   26.4190   32.9480 C   0  0  0  0  0  0  0  0  0  0  0  0
   37.5220   25.0740   32.9830 N   0  0  0  0  0  0  0  0  0  0  0  0
   36.8770   23.2600   32.2730 H   0  0  0  0  0  0  0  0  0  0  0  0
   35.1850   24.2610   30.6950 H   0  0  0  0  0  0  0  0  0  0  0  0
   34.9930   26.7710   30.6330 H   0  0  0  0  0  0  0  0  0  0  0  0
   38.5840   27.6380   36.3280 N   0  0  0  0  0  0  0  0  0  0  0  0
   37.8920   28.3910   36.3370 H   0  0  0  0  0  0  0  0  0  0  0  0
   38.8040   27.1750   37.2180 H   0  0  0  0  0  0  0  0  0  0  0  0
  1  4  1  6  0  0  0
  1  2  1  0  0  0  0
  1  3  1  0  0  0  0
  2  5  1  0  0  0  0
  2  3  1  0  0  0  0
  3  7  1  1  0  0  0
  3 17  1  0  0  0  0
  6  2  1  0  0  0  0
  8 14  1  0  0  0  0
  8 13  1  0  0  0  0
  9  8  2  0  0  0  0
 10  9  1  0  0  0  0
 10 11  2  0  0  0  0
 11 12  1  0  0  0  0
 12 13  2  0  0  0  0
 12  1  1  0  0  0  0
 15  9  1  0  0  0  0
 16 10  1  0  0  0  0
 17 18  1  0  0  0  0
 17 19  1  0  0  0  0
M  END
>  <minimizedAffinity>
-3.35205364

$$$$

 OpenBabel03262520533D

 19 20  0  0  1  0  0  0  0  0999 V2000
   36.5590   27.6760   32.1050 C   0  0  2  0  0  0  0  0  0  0  0  0
   35.8540   26.5370   31.4810 C   0  0  0  0  0  0  0  0  0  0  0  0
   36.9620   27.2690   30.7490 C   0  0  1  0  0  0  0  0  0  0  0  0
   35.9850   28.6200   32.2160 H   0  0  0  0  0  0  0  0  0  0  0  0
   34.7980   26.6600   31.1670 H   0  0  0  0  0  0  0  0  0  0  0  0
   36.0580   25.5460   31.9340 H   0  0  0  0  0  0  0  0  0  0  0  0
   37.8800   26.6460   30.6380 H   0  0  0  0  0  0  0  0  0  0  0  0
   39.6760   26.9550   34.0080 C   0  0  0  0  0  0  0  0  0  0  0  0
   39.2520   27.1030   35.3380 C   0  0  0  0  0  0  0  0  0  0  0  0
   37.8870   27.4450   35.5620 C   0  0  0  0  0  0  0  0  0  0  0  0
   37.0690   27.6110   34.5010 N   0  0  0  0  0  0  0  0  0  0  0  0
   37.5230   27.4580   33.2240 C   0  0  0  0  0  0  0  0  0  0  0  0
   38.8090   27.1340   32.9730 N   0  0  0  0  0  0  0  0  0  0  0  0
   40.6710   26.7020   33.7210 H   0  0  0  0  0  0  0  0  0  0  0  0
   39.9740   26.9520   36.1300 H   0  0  0  0  0  0  0  0  0  0  0  0
   37.5730   27.5550   36.5910 H   0  0  0  0  0  0  0  0  0  0  0  0
   36.6710   28.0680   29.5940 N   0  0  0  0  0  0  0  0  0  0  0  0
   36.6820   29.0830   29.7230 H   0  0  0  0  0  0  0  0  0  0  0  0
   37.0210   27.6920   28.7050 H   0  0  0  0  0  0  0  0  0  0  0  0
  1  4  1  1  0  0  0
  1 12  1  0  0  0  0
  2  6  1  0  0  0  0
  2  1  1  0  0  0  0
  3  7  1  6  0  0  0
  3  2  1  0  0  0  0
  3  1  1  0  0  0  0
  5  2  1  0  0  0  0
  8  9  1  0  0  0  0
  9 10  2  0  0  0  0
  9 15  1  0  0  0  0
 10 16  1  0  0  0  0
 11 10  1  0  0  0  0
 12 11  2  0  0  0  0
 13 12  1  0  0  0  0
 13  8  2  0  0  0  0
 14  8  1  0  0  0  0
 17 18  1  0  0  0  0
 17  3  1  0  0  0  0
 19 17  1  0  0  0  0
M  END
>  <minimizedAffinity>
-3.33776522

$$$$

 OpenBabel03262520533D

 19 20  0  0  1  0  0  0  0  0999 V2000
   38.7300   25.6160   34.9030 C   0  0  2  0  0  0  0  0  0  0  0  0
   38.7480   27.0910   34.9980 C   0  0  0  0  0  0  0  0  0  0  0  0
   37.4850   26.3460   34.6060 C   0  0  1  0  0  0  0  0  0  0  0  0
   39.2810   25.1620   34.0540 H   0  0  0  0  0  0  0  0  0  0  0  0
   39.3100   27.6750   34.2430 H   0  0  0  0  0  0  0  0  0  0  0  0
   38.8460   27.5010   36.0240 H   0  0  0  0  0  0  0  0  0  0  0  0
   36.7020   26.3940   35.3980 H   0  0  0  0  0  0  0  0  0  0  0  0
   38.0020   24.2310   38.2810 C   0  0  0  0  0  0  0  0  0  0  0  0
   38.8940   23.1490   38.3560 C   0  0  0  0  0  0  0  0  0  0  0  0
   39.7430   22.9150   37.2350 C   0  0  0  0  0  0  0  0  0  0  0  0
   39.6570   23.7310   36.1640 N   0  0  0  0  0  0  0  0  0  0  0  0
   38.7760   24.7710   36.1330 C   0  0  0  0  0  0  0  0  0  0  0  0
   37.9560   25.0240   37.1760 N   0  0  0  0  0  0  0  0  0  0  0  0
   37.3220   24.5000   39.0560 H   0  0  0  0  0  0  0  0  0  0  0  0
   38.8990   22.5430   39.2530 H   0  0  0  0  0  0  0  0  0  0  0  0
   40.4260   22.0780   37.3060 H   0  0  0  0  0  0  0  0  0  0  0  0
   36.9600   26.4490   33.2760 N   0  0  0  0  0  0  0  0  0  0  0  0
   37.1030   25.6430   32.6630 H   0  0  0  0  0  0  0  0  0  0  0  0
   36.0750   26.9640   33.1960 H   0  0  0  0  0  0  0  0  0  0  0  0
  1  4  1  6  0  0  0
  1  2  1  0  0  0  0
  1 12  1  0  0  0  0
  2  6  1  0  0  0  0
  3  1  1  0  0  0  0
  3  2  1  0  0  0  0
  3  7  1  1  0  0  0
  5  2  1  0  0  0  0
  8  9  1  0  0  0  0
  8 14  1  0  0  0  0
  9 15  1  0  0  0  0
 10 16  1  0  0  0  0
 10  9  2  0  0  0  0
 11 10  1  0  0  0  0
 12 11  2  0  0  0  0
 12 13  1  0  0  0  0
 13  8  2  0  0  0  0
 17  3  1  0  0  0  0
 18 17  1  0  0  0  0
 19 17  1  0  0  0  0
M  END
>  <minimizedAffinity>
-3.31582785

$$$$

 OpenBabel03262520533D

 19 20  0  0  1  0  0  0  0  0999 V2000
   38.1420   25.3300   36.0530 C   0  0  2  0  0  0  0  0  0  0  0  0
   37.8080   25.8360   34.7050 C   0  0  0  0  0  0  0  0  0  0  0  0
   38.7600   26.5920   35.6130 C   0  0  1  0  0  0  0  0  0  0  0  0
   37.3420   25.3830   36.8200 H   0  0  0  0  0  0  0  0  0  0  0  0
   36.7890   26.2280   34.5110 H   0  0  0  0  0  0  0  0  0  0  0  0
   38.2110   25.2420   33.8610 H   0  0  0  0  0  0  0  0  0  0  0  0
   39.8110   26.5620   35.2420 H   0  0  0  0  0  0  0  0  0  0  0  0
   40.0180   22.4980   37.5770 C   0  0  0  0  0  0  0  0  0  0  0  0
   40.6300   21.9130   36.4570 C   0  0  0  0  0  0  0  0  0  0  0  0
   40.3910   22.5100   35.1860 C   0  0  0  0  0  0  0  0  0  0  0  0
   39.5970   23.5990   35.1100 N   0  0  0  0  0  0  0  0  0  0  0  0
   39.0220   24.1360   36.2240 C   0  0  0  0  0  0  0  0  0  0  0  0
   39.2260   23.5970   37.4450 N   0  0  0  0  0  0  0  0  0  0  0  0
   40.1250   22.1390   38.5740 H   0  0  0  0  0  0  0  0  0  0  0  0
   41.2530   21.0400   36.6050 H   0  0  0  0  0  0  0  0  0  0  0  0
   40.8690   22.0490   34.3310 H   0  0  0  0  0  0  0  0  0  0  0  0
   38.3860   27.8600   36.1690 N   0  0  0  0  0  0  0  0  0  0  0  0
   38.1300   27.8680   37.1590 H   0  0  0  0  0  0  0  0  0  0  0  0
   38.9010   28.6670   35.7980 H   0  0  0  0  0  0  0  0  0  0  0  0
  1 12  1  0  0  0  0
  1  4  1  1  0  0  0
  2  3  1  0  0  0  0
  2  1  1  0  0  0  0
  3  7  1  6  0  0  0
  3  1  1  0  0  0  0
  3 17  1  0  0  0  0
  5  2  1  0  0  0  0
  6  2  1  0  0  0  0
  8 14  1  0  0  0  0
  9 15  1  0  0  0  0
  9  8  2  0  0  0  0
 10  9  1  0  0  0  0
 11 10  2  0  0  0  0
 11 12  1  0  0  0  0
 12 13  2  0  0  0  0
 13  8  1  0  0  0  0
 16 10  1  0  0  0  0
 17 18  1  0  0  0  0
 19 17  1  0  0  0  0
M  END
>  <minimizedAffinity>
-3.30000138

$$$$
