
 OpenBabel03272500523D

 39 43  0  0  1  0  0  0  0  0999 V2000
   38.2420   26.8400   34.3210 C   0  0  1  0  0  0  0  0  0  0  0  0
   38.1530   27.4120   35.7840 C   0  0  0  0  0  0  0  0  0  0  0  0
   37.6240   26.0620   35.3930 C   0  0  2  0  0  0  0  0  0  0  0  0
   39.2780   26.5820   34.0070 H   0  0  0  0  0  0  0  0  0  0  0  0
   37.4070   28.2000   35.9240 H   0  0  0  0  0  0  0  0  0  0  0  0
   39.0880   27.4070   36.3620 H   0  0  0  0  0  0  0  0  0  0  0  0
   36.5200   25.9410   35.3810 H   0  0  0  0  0  0  0  0  0  0  0  0
   35.7820   28.6980   32.4620 C   0  0  0  0  0  0  0  0  0  0  0  0
   36.5920   28.2500   31.4330 C   0  0  0  0  0  0  0  0  0  0  0  0
   37.6350   27.4830   31.9980 C   0  0  0  0  0  0  0  0  0  0  0  0
   37.4260   27.4940   33.3190 N   0  0  0  0  0  0  0  0  0  0  0  0
   36.3490   28.2050   33.5420 N   0  0  0  0  0  0  0  0  0  0  0  0
   36.5010   28.4180   30.3540 H   0  0  0  0  0  0  0  0  0  0  0  0
   38.4130   27.0090   31.4460 H   0  0  0  0  0  0  0  0  0  0  0  0
   33.3530   29.1970   32.8500 C   0  0  0  0  0  0  0  0  0  0  0  0
   34.6190   29.5100   32.2590 C   0  0  0  0  0  0  0  0  0  0  0  0
   34.6740   30.6370   31.4800 C   0  0  0  0  0  0  0  0  0  0  0  0
   33.5480   31.3870   31.3080 N   0  0  0  0  0  0  0  0  0  0  0  0
   32.3760   31.0550   31.8830 C   0  0  0  0  0  0  0  0  0  0  0  0
   32.2690   29.9510   32.6630 N   0  0  0  0  0  0  0  0  0  0  0  0
   33.3540   28.3010   33.4560 H   0  0  0  0  0  0  0  0  0  0  0  0
   35.6180   30.9150   31.0090 H   0  0  0  0  0  0  0  0  0  0  0  0
   31.4880   31.6590   31.7400 H   0  0  0  0  0  0  0  0  0  0  0  0
   38.3110   24.8330   35.9150 C   0  0  0  0  0  0  0  0  0  0  0  0
   37.7060   23.8380   36.6640 C   0  0  0  0  0  0  0  0  0  0  0  0
   38.6500   22.8960   36.9290 N   0  0  0  0  0  0  0  0  0  0  0  0
   39.8200   23.2810   36.3640 C   0  0  0  0  0  0  0  0  0  0  0  0
   39.6090   24.4620   35.7470 N   0  0  0  0  0  0  0  0  0  0  0  0
   36.6910   23.7580   37.0080 H   0  0  0  0  0  0  0  0  0  0  0  0
   38.5570   22.0040   37.4700 H   0  0  0  0  0  0  0  0  0  0  0  0
   41.1210   22.5480   36.4000 C   0  0  0  0  0  0  0  0  0  0  0  0
   42.2230   22.9700   35.6540 C   0  0  0  0  0  0  0  0  0  0  0  0
   43.5120   21.7390   36.0610 S   0  0  0  0  0  0  0  0  0  0  0  0
   42.3030   20.8280   37.2110 C   0  0  0  0  0  0  0  0  0  0  0  0
   41.3710   21.4600   37.1080 N   0  0  0  0  0  0  0  0  0  0  0  0
   42.2650   23.8380   34.9950 H   0  0  0  0  0  0  0  0  0  0  0  0
   42.5500   19.6350   37.9980 N   0  0  0  0  0  0  0  0  0  0  0  0
   43.2620   19.0470   37.4770 H   0  0  0  0  0  0  0  0  0  0  0  0
   42.1540   19.3270   38.9090 H   0  0  0  0  0  0  0  0  0  0  0  0
  1  4  1  6  0  0  0
  1  3  1  0  0  0  0
  1  2  1  0  0  0  0
  2  5  1  0  0  0  0
  2  6  1  0  0  0  0
  3  7  1  6  0  0  0
  3  2  1  0  0  0  0
  3 24  1  0  0  0  0
  8 12  2  0  0  0  0
  9 10  2  0  0  0  0
  9  8  1  0  0  0  0
 10 11  1  0  0  0  0
 11 12  1  0  0  0  0
 11  1  1  0  0  0  0
 13  9  1  0  0  0  0
 14 10  1  0  0  0  0
 15 21  1  0  0  0  0
 16  8  1  0  0  0  0
 16 15  2  0  0  0  0
 17 16  1  0  0  0  0
 18 17  2  0  0  0  0
 18 19  1  0  0  0  0
 19 20  2  0  0  0  0
 20 15  1  0  0  0  0
 22 17  1  0  0  0  0
 23 19  1  0  0  0  0
 24 25  2  0  0  0  0
 25 26  1  0  0  0  0
 25 29  1  0  0  0  0
 26 30  1  0  0  0  0
 27 31  1  0  0  0  0
 27 26  1  0  0  0  0
 28 24  1  0  0  0  0
 28 27  2  0  0  0  0
 31 35  1  0  0  0  0
 32 33  1  0  0  0  0
 32 31  2  0  0  0  0
 33 34  1  0  0  0  0
 34 37  1  0  0  0  0
 35 34  2  0  0  0  0
 36 32  1  0  0  0  0
 37 39  1  0  0  0  0
 38 37  1  0  0  0  0
M  END
>  <minimizedAffinity>
-5.98327112

$$$$

 OpenBabel03272500523D

 39 43  0  0  1  0  0  0  0  0999 V2000
   37.6990   25.9240   35.8000 C   0  0  1  0  0  0  0  0  0  0  0  0
   38.3930   27.3240   35.9840 C   0  0  0  0  0  0  0  0  0  0  0  0
   38.2870   26.6240   34.6600 C   0  0  2  0  0  0  0  0  0  0  0  0
   36.5940   25.9550   35.9300 H   0  0  0  0  0  0  0  0  0  0  0  0
   39.3720   27.2900   36.4710 H   0  0  0  0  0  0  0  0  0  0  0  0
   37.7200   28.1820   36.1240 H   0  0  0  0  0  0  0  0  0  0  0  0
   39.2280   26.2220   34.2300 H   0  0  0  0  0  0  0  0  0  0  0  0
   39.8150   23.1290   36.6170 C   0  0  0  0  0  0  0  0  0  0  0  0
   38.9840   23.1490   37.7230 C   0  0  0  0  0  0  0  0  0  0  0  0
   38.0680   24.2120   37.5640 C   0  0  0  0  0  0  0  0  0  0  0  0
   38.3690   24.7860   36.3940 N   0  0  0  0  0  0  0  0  0  0  0  0
   39.3800   24.1310   35.8820 N   0  0  0  0  0  0  0  0  0  0  0  0
   38.9790   22.4910   38.6000 H   0  0  0  0  0  0  0  0  0  0  0  0
   37.3060   24.4710   38.2610 H   0  0  0  0  0  0  0  0  0  0  0  0
   41.3860   21.8410   35.1430 C   0  0  0  0  0  0  0  0  0  0  0  0
   40.8720   22.1780   36.4350 C   0  0  0  0  0  0  0  0  0  0  0  0
   41.4410   21.5450   37.5110 C   0  0  0  0  0  0  0  0  0  0  0  0
   42.4450   20.6460   37.3020 N   0  0  0  0  0  0  0  0  0  0  0  0
   42.8990   20.3570   36.0670 C   0  0  0  0  0  0  0  0  0  0  0  0
   42.3700   20.9560   34.9720 N   0  0  0  0  0  0  0  0  0  0  0  0
   40.9100   22.3620   34.3240 H   0  0  0  0  0  0  0  0  0  0  0  0
   41.0810   21.7710   38.5150 H   0  0  0  0  0  0  0  0  0  0  0  0
   43.6970   19.6410   35.9140 H   0  0  0  0  0  0  0  0  0  0  0  0
   37.3950   27.2050   33.6010 C   0  0  0  0  0  0  0  0  0  0  0  0
   37.4350   26.8740   32.2560 C   0  0  0  0  0  0  0  0  0  0  0  0
   36.4680   27.5980   31.6300 N   0  0  0  0  0  0  0  0  0  0  0  0
   35.8340   28.3650   32.5500 C   0  0  0  0  0  0  0  0  0  0  0  0
   36.4020   28.1220   33.7490 N   0  0  0  0  0  0  0  0  0  0  0  0
   38.0760   26.1870   31.7360 H   0  0  0  0  0  0  0  0  0  0  0  0
   36.2060   27.6090   30.6170 H   0  0  0  0  0  0  0  0  0  0  0  0
   34.7060   29.3130   32.3070 C   0  0  0  0  0  0  0  0  0  0  0  0
   34.8930   30.5200   31.6280 C   0  0  0  0  0  0  0  0  0  0  0  0
   33.2250   31.2670   31.6190 S   0  0  0  0  0  0  0  0  0  0  0  0
   32.5300   29.7730   32.5660 C   0  0  0  0  0  0  0  0  0  0  0  0
   33.4540   29.1330   32.6900 N   0  0  0  0  0  0  0  0  0  0  0  0
   35.8310   30.8930   31.2160 H   0  0  0  0  0  0  0  0  0  0  0  0
   31.1640   29.5490   32.9980 N   0  0  0  0  0  0  0  0  0  0  0  0
   30.7300   30.4960   33.1980 H   0  0  0  0  0  0  0  0  0  0  0  0
   30.6250   28.6680   33.1200 H   0  0  0  0  0  0  0  0  0  0  0  0
  1  4  1  1  0  0  0
  1  2  1  0  0  0  0
  1 11  1  0  0  0  0
  2  6  1  0  0  0  0
  2  5  1  0  0  0  0
  3  7  1  6  0  0  0
  3  1  1  0  0  0  0
  3  2  1  0  0  0  0
  8  9  1  0  0  0  0
  9 13  1  0  0  0  0
 10  9  2  0  0  0  0
 10 14  1  0  0  0  0
 11 10  1  0  0  0  0
 12 11  1  0  0  0  0
 12  8  2  0  0  0  0
 15 16  1  0  0  0  0
 16  8  1  0  0  0  0
 16 17  2  0  0  0  0
 17 22  1  0  0  0  0
 18 17  1  0  0  0  0
 19 18  2  0  0  0  0
 20 15  2  0  0  0  0
 20 19  1  0  0  0  0
 21 15  1  0  0  0  0
 23 19  1  0  0  0  0
 24 28  1  0  0  0  0
 24  3  1  0  0  0  0
 25 24  2  0  0  0  0
 26 25  1  0  0  0  0
 26 27  1  0  0  0  0
 27 28  2  0  0  0  0
 29 25  1  0  0  0  0
 30 26  1  0  0  0  0
 31 27  1  0  0  0  0
 31 35  1  0  0  0  0
 32 31  2  0  0  0  0
 33 32  1  0  0  0  0
 33 34  1  0  0  0  0
 34 35  2  0  0  0  0
 34 37  1  0  0  0  0
 36 32  1  0  0  0  0
 37 39  1  0  0  0  0
 37 38  1  0  0  0  0
M  END
>  <minimizedAffinity>
-5.84872103

$$$$

 OpenBabel03272500523D

 39 43  0  0  1  0  0  0  0  0999 V2000
   37.2490   27.0070   33.6930 C   0  0  1  0  0  0  0  0  0  0  0  0
   38.6920   27.0820   33.0690 C   0  0  0  0  0  0  0  0  0  0  0  0
   38.4370   26.9220   34.5410 C   0  0  2  0  0  0  0  0  0  0  0  0
   36.7060   26.0680   33.4450 H   0  0  0  0  0  0  0  0  0  0  0  0
   38.9960   28.0790   32.7380 H   0  0  0  0  0  0  0  0  0  0  0  0
   39.0390   26.1790   32.5460 H   0  0  0  0  0  0  0  0  0  0  0  0
   38.6790   27.7920   35.1870 H   0  0  0  0  0  0  0  0  0  0  0  0
   35.4040   30.0230   34.3690 C   0  0  0  0  0  0  0  0  0  0  0  0
   35.2550   29.9380   32.9960 C   0  0  0  0  0  0  0  0  0  0  0  0
   35.9340   28.7820   32.5520 C   0  0  0  0  0  0  0  0  0  0  0  0
   36.4600   28.2200   33.6470 N   0  0  0  0  0  0  0  0  0  0  0  0
   36.1300   28.9670   34.6700 N   0  0  0  0  0  0  0  0  0  0  0  0
   34.7210   30.6080   32.3130 H   0  0  0  0  0  0  0  0  0  0  0  0
   35.9930   28.4580   31.5400 H   0  0  0  0  0  0  0  0  0  0  0  0
   35.5820   31.7270   36.2040 C   0  0  0  0  0  0  0  0  0  0  0  0
   34.8440   31.0760   35.1640 C   0  0  0  0  0  0  0  0  0  0  0  0
   33.5590   31.5080   34.9560 C   0  0  0  0  0  0  0  0  0  0  0  0
   33.0570   32.5120   35.7300 N   0  0  0  0  0  0  0  0  0  0  0  0
   33.7870   33.0970   36.7000 C   0  0  0  0  0  0  0  0  0  0  0  0
   35.0620   32.7070   36.9450 N   0  0  0  0  0  0  0  0  0  0  0  0
   36.5890   31.3560   36.3350 H   0  0  0  0  0  0  0  0  0  0  0  0
   32.9590   31.0410   34.1740 H   0  0  0  0  0  0  0  0  0  0  0  0
   33.3780   33.8940   37.3090 H   0  0  0  0  0  0  0  0  0  0  0  0
   38.7910   25.6210   35.2020 C   0  0  0  0  0  0  0  0  0  0  0  0
   37.9840   24.9370   36.0950 C   0  0  0  0  0  0  0  0  0  0  0  0
   38.6450   23.8040   36.4560 N   0  0  0  0  0  0  0  0  0  0  0  0
   39.8360   23.7710   35.8100 C   0  0  0  0  0  0  0  0  0  0  0  0
   39.9200   24.8800   35.0460 N   0  0  0  0  0  0  0  0  0  0  0  0
   37.0110   25.1890   36.4760 H   0  0  0  0  0  0  0  0  0  0  0  0
   38.3450   23.0470   37.1140 H   0  0  0  0  0  0  0  0  0  0  0  0
   40.8820   22.7100   35.9060 C   0  0  0  0  0  0  0  0  0  0  0  0
   41.7170   22.4010   34.8300 C   0  0  0  0  0  0  0  0  0  0  0  0
   42.7770   21.0610   35.4810 S   0  0  0  0  0  0  0  0  0  0  0  0
   41.8830   21.1450   37.1560 C   0  0  0  0  0  0  0  0  0  0  0  0
   41.1290   21.9670   36.9720 N   0  0  0  0  0  0  0  0  0  0  0  0
   41.7080   22.8730   33.8470 H   0  0  0  0  0  0  0  0  0  0  0  0
   42.1330   20.3450   38.3400 N   0  0  0  0  0  0  0  0  0  0  0  0
   42.4780   19.3940   38.0200 H   0  0  0  0  0  0  0  0  0  0  0  0
   42.0240   20.5710   39.3490 H   0  0  0  0  0  0  0  0  0  0  0  0
  1  4  1  6  0  0  0
  1  3  1  0  0  0  0
  2  1  1  0  0  0  0
  2  3  1  0  0  0  0
  3  7  1  1  0  0  0
  3 24  1  0  0  0  0
  5  2  1  0  0  0  0
  6  2  1  0  0  0  0
  8 12  2  0  0  0  0
  8 16  1  0  0  0  0
  9  8  1  0  0  0  0
 10  9  2  0  0  0  0
 10 11  1  0  0  0  0
 11  1  1  0  0  0  0
 11 12  1  0  0  0  0
 13  9  1  0  0  0  0
 14 10  1  0  0  0  0
 15 21  1  0  0  0  0
 15 20  1  0  0  0  0
 16 15  2  0  0  0  0
 17 16  1  0  0  0  0
 17 18  2  0  0  0  0
 18 19  1  0  0  0  0
 19 20  2  0  0  0  0
 19 23  1  0  0  0  0
 22 17  1  0  0  0  0
 24 25  2  0  0  0  0
 25 26  1  0  0  0  0
 25 29  1  0  0  0  0
 26 30  1  0  0  0  0
 27 31  1  0  0  0  0
 27 26  1  0  0  0  0
 28 24  1  0  0  0  0
 28 27  2  0  0  0  0
 31 35  1  0  0  0  0
 32 33  1  0  0  0  0
 32 31  2  0  0  0  0
 33 34  1  0  0  0  0
 34 37  1  0  0  0  0
 35 34  2  0  0  0  0
 36 32  1  0  0  0  0
 37 39  1  0  0  0  0
 38 37  1  0  0  0  0
M  END
>  <minimizedAffinity>
-5.69481421

$$$$

 OpenBabel03272500523D

 39 43  0  0  1  0  0  0  0  0999 V2000
   37.2150   26.8020   32.4350 C   0  0  1  0  0  0  0  0  0  0  0  0
   38.7610   26.7780   32.7310 C   0  0  0  0  0  0  0  0  0  0  0  0
   37.7570   25.9920   33.5250 C   0  0  2  0  0  0  0  0  0  0  0  0
   36.9360   26.2940   31.4850 H   0  0  0  0  0  0  0  0  0  0  0  0
   39.1500   27.6830   33.2060 H   0  0  0  0  0  0  0  0  0  0  0  0
   39.3770   26.1930   32.0320 H   0  0  0  0  0  0  0  0  0  0  0  0
   37.5700   26.3290   34.5670 H   0  0  0  0  0  0  0  0  0  0  0  0
   35.5460   29.6450   33.8800 C   0  0  0  0  0  0  0  0  0  0  0  0
   35.5020   29.9810   32.5380 C   0  0  0  0  0  0  0  0  0  0  0  0
   36.1280   28.9470   31.8070 C   0  0  0  0  0  0  0  0  0  0  0  0
   36.5220   28.0430   32.7110 N   0  0  0  0  0  0  0  0  0  0  0  0
   36.1670   28.4850   33.8910 N   0  0  0  0  0  0  0  0  0  0  0  0
   35.0740   30.8680   32.0580 H   0  0  0  0  0  0  0  0  0  0  0  0
   36.2440   28.9310   30.7490 H   0  0  0  0  0  0  0  0  0  0  0  0
   35.8170   31.3290   35.7210 C   0  0  0  0  0  0  0  0  0  0  0  0
   35.0020   30.4660   34.9220 C   0  0  0  0  0  0  0  0  0  0  0  0
   33.6590   30.4560   35.1970 C   0  0  0  0  0  0  0  0  0  0  0  0
   33.1740   31.2500   36.1940 N   0  0  0  0  0  0  0  0  0  0  0  0
   33.9780   32.0480   36.9240 C   0  0  0  0  0  0  0  0  0  0  0  0
   35.3130   32.0950   36.6910 N   0  0  0  0  0  0  0  0  0  0  0  0
   36.8690   31.3070   35.4720 H   0  0  0  0  0  0  0  0  0  0  0  0
   32.9990   29.8130   34.6130 H   0  0  0  0  0  0  0  0  0  0  0  0
   33.5820   32.6740   37.7140 H   0  0  0  0  0  0  0  0  0  0  0  0
   37.7550   24.4950   33.4150 C   0  0  0  0  0  0  0  0  0  0  0  0
   38.2870   23.6260   34.3530 C   0  0  0  0  0  0  0  0  0  0  0  0
   38.0770   22.3600   33.9010 N   0  0  0  0  0  0  0  0  0  0  0  0
   37.4300   22.4240   32.7120 C   0  0  0  0  0  0  0  0  0  0  0  0
   37.2350   23.7270   32.4200 N   0  0  0  0  0  0  0  0  0  0  0  0
   38.7850   23.8380   35.2820 H   0  0  0  0  0  0  0  0  0  0  0  0
   38.3430   21.4500   34.3450 H   0  0  0  0  0  0  0  0  0  0  0  0
   36.9970   21.2770   31.8610 C   0  0  0  0  0  0  0  0  0  0  0  0
   37.6020   21.0030   30.6320 C   0  0  0  0  0  0  0  0  0  0  0  0
   36.7010   19.5300   30.0300 S   0  0  0  0  0  0  0  0  0  0  0  0
   35.6190   19.5310   31.5930 C   0  0  0  0  0  0  0  0  0  0  0  0
   36.0300   20.4230   32.1540 N   0  0  0  0  0  0  0  0  0  0  0  0
   38.4190   21.5610   30.1740 H   0  0  0  0  0  0  0  0  0  0  0  0
   34.5550   18.6100   31.9410 N   0  0  0  0  0  0  0  0  0  0  0  0
   34.1040   18.2830   31.0380 H   0  0  0  0  0  0  0  0  0  0  0  0
   34.2220   18.2730   32.8660 H   0  0  0  0  0  0  0  0  0  0  0  0
  1  4  1  6  0  0  0
  1 11  1  0  0  0  0
  1  2  1  0  0  0  0
  1  3  1  0  0  0  0
  2  5  1  0  0  0  0
  2  3  1  0  0  0  0
  3  7  1  1  0  0  0
  6  2  1  0  0  0  0
  8 12  2  0  0  0  0
  8 16  1  0  0  0  0
  9  8  1  0  0  0  0
 10  9  2  0  0  0  0
 10 11  1  0  0  0  0
 11 12  1  0  0  0  0
 13  9  1  0  0  0  0
 14 10  1  0  0  0  0
 15 20  1  0  0  0  0
 16 17  1  0  0  0  0
 16 15  2  0  0  0  0
 17 18  2  0  0  0  0
 18 19  1  0  0  0  0
 19 23  1  0  0  0  0
 20 19  2  0  0  0  0
 21 15  1  0  0  0  0
 22 17  1  0  0  0  0
 24  3  1  0  0  0  0
 24 25  2  0  0  0  0
 25 29  1  0  0  0  0
 26 30  1  0  0  0  0
 26 25  1  0  0  0  0
 27 26  1  0  0  0  0
 28 27  2  0  0  0  0
 28 24  1  0  0  0  0
 31 35  1  0  0  0  0
 31 27  1  0  0  0  0
 32 31  2  0  0  0  0
 33 32  1  0  0  0  0
 33 34  1  0  0  0  0
 34 37  1  0  0  0  0
 34 35  2  0  0  0  0
 36 32  1  0  0  0  0
 37 39  1  0  0  0  0
 38 37  1  0  0  0  0
M  END
>  <minimizedAffinity>
-5.68335962

$$$$

 OpenBabel03272500523D

 39 43  0  0  1  0  0  0  0  0999 V2000
   36.5360   27.4800   32.7060 C   0  0  1  0  0  0  0  0  0  0  0  0
   37.5900   27.7060   31.5600 C   0  0  0  0  0  0  0  0  0  0  0  0
   37.9690   27.4450   32.9890 C   0  0  2  0  0  0  0  0  0  0  0  0
   35.9870   26.5150   32.6220 H   0  0  0  0  0  0  0  0  0  0  0  0
   37.6800   28.7410   31.2180 H   0  0  0  0  0  0  0  0  0  0  0  0
   37.7380   26.8650   30.8670 H   0  0  0  0  0  0  0  0  0  0  0  0
   38.4100   28.2940   33.5530 H   0  0  0  0  0  0  0  0  0  0  0  0
   35.0090   30.3230   34.3000 C   0  0  0  0  0  0  0  0  0  0  0  0
   34.2600   30.2520   33.1390 C   0  0  0  0  0  0  0  0  0  0  0  0
   34.7360   29.1630   32.3760 C   0  0  0  0  0  0  0  0  0  0  0  0
   35.7360   28.6260   33.0850 N   0  0  0  0  0  0  0  0  0  0  0  0
   35.8580   29.3240   34.1850 N   0  0  0  0  0  0  0  0  0  0  0  0
   33.4330   30.8890   32.8050 H   0  0  0  0  0  0  0  0  0  0  0  0
   34.3510   28.8650   31.4290 H   0  0  0  0  0  0  0  0  0  0  0  0
   33.7420   31.2200   36.2720 C   0  0  0  0  0  0  0  0  0  0  0  0
   34.8030   31.3120   35.3170 C   0  0  0  0  0  0  0  0  0  0  0  0
   35.6290   32.4030   35.4150 C   0  0  0  0  0  0  0  0  0  0  0  0
   35.4060   33.3250   36.3950 N   0  0  0  0  0  0  0  0  0  0  0  0
   34.3930   33.1990   37.2750 C   0  0  0  0  0  0  0  0  0  0  0  0
   33.5490   32.1390   37.2200 N   0  0  0  0  0  0  0  0  0  0  0  0
   33.1150   30.3460   36.1600 H   0  0  0  0  0  0  0  0  0  0  0  0
   36.4520   32.5150   34.7080 H   0  0  0  0  0  0  0  0  0  0  0  0
   34.2250   33.9380   38.0490 H   0  0  0  0  0  0  0  0  0  0  0  0
   38.6290   26.1430   33.3390 C   0  0  0  0  0  0  0  0  0  0  0  0
   39.1290   25.2310   32.4240 C   0  0  0  0  0  0  0  0  0  0  0  0
   39.6580   24.1940   33.1290 N   0  0  0  0  0  0  0  0  0  0  0  0
   39.4970   24.4410   34.4520 C   0  0  0  0  0  0  0  0  0  0  0  0
   38.8710   25.6290   34.5750 N   0  0  0  0  0  0  0  0  0  0  0  0
   39.1360   25.2680   31.3500 H   0  0  0  0  0  0  0  0  0  0  0  0
   40.1210   23.3260   32.7740 H   0  0  0  0  0  0  0  0  0  0  0  0
   39.9300   23.5730   35.5870 C   0  0  0  0  0  0  0  0  0  0  0  0
   41.0700   22.7700   35.5060 C   0  0  0  0  0  0  0  0  0  0  0  0
   41.1230   21.9380   37.1330 S   0  0  0  0  0  0  0  0  0  0  0  0
   39.5420   22.8450   37.6690 C   0  0  0  0  0  0  0  0  0  0  0  0
   39.3110   23.4630   36.7500 N   0  0  0  0  0  0  0  0  0  0  0  0
   41.7440   22.6870   34.6530 H   0  0  0  0  0  0  0  0  0  0  0  0
   38.8430   22.7450   38.9360 N   0  0  0  0  0  0  0  0  0  0  0  0
   38.9900   21.7630   39.3080 H   0  0  0  0  0  0  0  0  0  0  0  0
   38.2800   23.4450   39.4600 H   0  0  0  0  0  0  0  0  0  0  0  0
  1  4  1  6  0  0  0
  1  3  1  0  0  0  0
  1 11  1  0  0  0  0
  2  1  1  0  0  0  0
  2  3  1  0  0  0  0
  3 24  1  0  0  0  0
  3  7  1  1  0  0  0
  5  2  1  0  0  0  0
  6  2  1  0  0  0  0
  8 16  1  0  0  0  0
  9  8  1  0  0  0  0
 10 11  1  0  0  0  0
 10  9  2  0  0  0  0
 11 12  1  0  0  0  0
 12  8  2  0  0  0  0
 13  9  1  0  0  0  0
 14 10  1  0  0  0  0
 15 20  1  0  0  0  0
 16 17  1  0  0  0  0
 16 15  2  0  0  0  0
 17 18  2  0  0  0  0
 18 19  1  0  0  0  0
 19 23  1  0  0  0  0
 20 19  2  0  0  0  0
 21 15  1  0  0  0  0
 22 17  1  0  0  0  0
 24 28  1  0  0  0  0
 25 26  1  0  0  0  0
 25 24  2  0  0  0  0
 26 27  1  0  0  0  0
 27 28  2  0  0  0  0
 27 31  1  0  0  0  0
 29 25  1  0  0  0  0
 30 26  1  0  0  0  0
 31 35  1  0  0  0  0
 32 31  2  0  0  0  0
 32 33  1  0  0  0  0
 33 34  1  0  0  0  0
 34 37  1  0  0  0  0
 35 34  2  0  0  0  0
 36 32  1  0  0  0  0
 37 38  1  0  0  0  0
 37 39  1  0  0  0  0
M  END
>  <minimizedAffinity>
-5.610847

$$$$

 OpenBabel03272500523D

 39 43  0  0  1  0  0  0  0  0999 V2000
   36.6550   27.4580   31.6930 C   0  0  1  0  0  0  0  0  0  0  0  0
   38.1160   26.9750   32.0200 C   0  0  0  0  0  0  0  0  0  0  0  0
   36.8850   26.2830   32.5310 C   0  0  2  0  0  0  0  0  0  0  0  0
   36.3630   27.3030   30.6300 H   0  0  0  0  0  0  0  0  0  0  0  0
   38.6530   27.5980   32.7410 H   0  0  0  0  0  0  0  0  0  0  0  0
   38.6480   26.4600   31.2070 H   0  0  0  0  0  0  0  0  0  0  0  0
   36.6770   26.3690   33.6190 H   0  0  0  0  0  0  0  0  0  0  0  0
   35.4290   30.1240   33.7770 C   0  0  0  0  0  0  0  0  0  0  0  0
   35.8010   30.8350   32.6510 C   0  0  0  0  0  0  0  0  0  0  0  0
   36.3160   29.9210   31.7050 C   0  0  0  0  0  0  0  0  0  0  0  0
   36.2410   28.7150   32.2810 N   0  0  0  0  0  0  0  0  0  0  0  0
   35.7240   28.8780   33.4720 N   0  0  0  0  0  0  0  0  0  0  0  0
   35.7360   31.9120   32.4560 H   0  0  0  0  0  0  0  0  0  0  0  0
   36.6830   30.1810   30.7400 H   0  0  0  0  0  0  0  0  0  0  0  0
   33.4730   30.6160   35.2720 C   0  0  0  0  0  0  0  0  0  0  0  0
   34.8620   30.7300   34.9470 C   0  0  0  0  0  0  0  0  0  0  0  0
   35.6410   31.4540   35.8120 C   0  0  0  0  0  0  0  0  0  0  0  0
   35.0700   32.0160   36.9150 N   0  0  0  0  0  0  0  0  0  0  0  0
   33.7560   31.8850   37.1840 C   0  0  0  0  0  0  0  0  0  0  0  0
   32.9430   31.1790   36.3600 N   0  0  0  0  0  0  0  0  0  0  0  0
   32.8950   30.0370   34.5640 H   0  0  0  0  0  0  0  0  0  0  0  0
   36.7060   31.5680   35.6040 H   0  0  0  0  0  0  0  0  0  0  0  0
   33.3130   32.3360   38.0630 H   0  0  0  0  0  0  0  0  0  0  0  0
   36.5510   24.9160   32.0080 C   0  0  0  0  0  0  0  0  0  0  0  0
   35.3990   24.5900   31.3100 C   0  0  0  0  0  0  0  0  0  0  0  0
   35.4730   23.2670   30.9990 N   0  0  0  0  0  0  0  0  0  0  0  0
   36.6360   22.7700   31.4840 C   0  0  0  0  0  0  0  0  0  0  0  0
   37.2900   23.7780   32.0970 N   0  0  0  0  0  0  0  0  0  0  0  0
   34.5660   25.2080   31.0320 H   0  0  0  0  0  0  0  0  0  0  0  0
   34.7850   22.6750   30.4780 H   0  0  0  0  0  0  0  0  0  0  0  0
   37.1310   21.3650   31.3710 C   0  0  0  0  0  0  0  0  0  0  0  0
   38.2080   20.9020   32.1300 C   0  0  0  0  0  0  0  0  0  0  0  0
   38.3840   19.1600   31.6020 S   0  0  0  0  0  0  0  0  0  0  0  0
   36.9220   19.3570   30.4030 C   0  0  0  0  0  0  0  0  0  0  0  0
   36.6330   20.4360   30.5720 N   0  0  0  0  0  0  0  0  0  0  0  0
   38.7830   21.4760   32.8560 H   0  0  0  0  0  0  0  0  0  0  0  0
   36.3560   18.3580   29.5180 N   0  0  0  0  0  0  0  0  0  0  0  0
   37.1380   17.7030   29.2280 H   0  0  0  0  0  0  0  0  0  0  0  0
   35.3830   18.2250   29.1750 H   0  0  0  0  0  0  0  0  0  0  0  0
  1  4  1  6  0  0  0
  1  2  1  0  0  0  0
  1 11  1  0  0  0  0
  1  3  1  0  0  0  0
  2  3  1  0  0  0  0
  2  5  1  0  0  0  0
  3  7  1  1  0  0  0
  6  2  1  0  0  0  0
  8 16  1  0  0  0  0
  9  8  1  0  0  0  0
 10 11  1  0  0  0  0
 10  9  2  0  0  0  0
 11 12  1  0  0  0  0
 12  8  2  0  0  0  0
 13  9  1  0  0  0  0
 14 10  1  0  0  0  0
 15 20  1  0  0  0  0
 16 15  2  0  0  0  0
 16 17  1  0  0  0  0
 17 18  2  0  0  0  0
 18 19  1  0  0  0  0
 19 23  1  0  0  0  0
 20 19  2  0  0  0  0
 21 15  1  0  0  0  0
 22 17  1  0  0  0  0
 24 28  1  0  0  0  0
 24  3  1  0  0  0  0
 25 24  2  0  0  0  0
 26 25  1  0  0  0  0
 26 27  1  0  0  0  0
 27 28  2  0  0  0  0
 29 25  1  0  0  0  0
 30 26  1  0  0  0  0
 31 27  1  0  0  0  0
 31 32  2  0  0  0  0
 32 36  1  0  0  0  0
 33 32  1  0  0  0  0
 34 35  2  0  0  0  0
 34 33  1  0  0  0  0
 35 31  1  0  0  0  0
 37 34  1  0  0  0  0
 38 37  1  0  0  0  0
 39 37  1  0  0  0  0
M  END
>  <minimizedAffinity>
-5.59278631

$$$$

 OpenBabel03272500523D

 39 43  0  0  1  0  0  0  0  0999 V2000
   38.2050   26.6540   34.6300 C   0  0  1  0  0  0  0  0  0  0  0  0
   38.6940   27.2040   36.0210 C   0  0  0  0  0  0  0  0  0  0  0  0
   37.8120   25.9970   35.8750 C   0  0  2  0  0  0  0  0  0  0  0  0
   39.0180   26.1970   34.0220 H   0  0  0  0  0  0  0  0  0  0  0  0
   38.2020   28.1240   36.3490 H   0  0  0  0  0  0  0  0  0  0  0  0
   39.7420   26.9980   36.2810 H   0  0  0  0  0  0  0  0  0  0  0  0
   36.7580   26.1040   36.2110 H   0  0  0  0  0  0  0  0  0  0  0  0
   35.5570   28.8380   33.5440 C   0  0  0  0  0  0  0  0  0  0  0  0
   36.1630   28.5530   32.3330 C   0  0  0  0  0  0  0  0  0  0  0  0
   37.2500   27.6850   32.5790 C   0  0  0  0  0  0  0  0  0  0  0  0
   37.2650   27.4800   33.9020 N   0  0  0  0  0  0  0  0  0  0  0  0
   36.2740   28.1630   34.4180 N   0  0  0  0  0  0  0  0  0  0  0  0
   35.9010   28.9000   31.3270 H   0  0  0  0  0  0  0  0  0  0  0  0
   37.9030   27.2960   31.8340 H   0  0  0  0  0  0  0  0  0  0  0  0
   34.2920   30.6480   34.7360 C   0  0  0  0  0  0  0  0  0  0  0  0
   34.4150   29.6930   33.6780 C   0  0  0  0  0  0  0  0  0  0  0  0
   33.3780   29.6270   32.7820 C   0  0  0  0  0  0  0  0  0  0  0  0
   32.3060   30.4560   32.9390 N   0  0  0  0  0  0  0  0  0  0  0  0
   32.2310   31.3410   33.9510 C   0  0  0  0  0  0  0  0  0  0  0  0
   33.2300   31.4460   34.8630 N   0  0  0  0  0  0  0  0  0  0  0  0
   35.1310   30.6670   35.4190 H   0  0  0  0  0  0  0  0  0  0  0  0
   33.4280   28.9140   31.9590 H   0  0  0  0  0  0  0  0  0  0  0  0
   31.3740   31.9940   34.0660 H   0  0  0  0  0  0  0  0  0  0  0  0
   38.3690   24.6450   36.2130 C   0  0  0  0  0  0  0  0  0  0  0  0
   37.6830   23.6460   36.8840 C   0  0  0  0  0  0  0  0  0  0  0  0
   38.5170   22.5750   36.9830 N   0  0  0  0  0  0  0  0  0  0  0  0
   39.6970   22.8860   36.3930 C   0  0  0  0  0  0  0  0  0  0  0  0
   39.6020   24.1480   35.9240 N   0  0  0  0  0  0  0  0  0  0  0  0
   36.6840   23.6440   37.2790 H   0  0  0  0  0  0  0  0  0  0  0  0
   38.3420   21.6430   37.4260 H   0  0  0  0  0  0  0  0  0  0  0  0
   40.8980   22.0090   36.2660 C   0  0  0  0  0  0  0  0  0  0  0  0
   41.4890   21.4060   37.3790 C   0  0  0  0  0  0  0  0  0  0  0  0
   42.8890   20.4720   36.6660 S   0  0  0  0  0  0  0  0  0  0  0  0
   42.4260   21.0730   34.9240 C   0  0  0  0  0  0  0  0  0  0  0  0
   41.5200   21.7140   35.1370 N   0  0  0  0  0  0  0  0  0  0  0  0
   41.1610   21.4970   38.4150 H   0  0  0  0  0  0  0  0  0  0  0  0
   43.0880   20.7660   33.6700 N   0  0  0  0  0  0  0  0  0  0  0  0
   44.1190   20.6210   33.8770 H   0  0  0  0  0  0  0  0  0  0  0  0
   42.7120   20.6820   32.7050 H   0  0  0  0  0  0  0  0  0  0  0  0
  1  4  1  6  0  0  0
  1  3  1  0  0  0  0
  1  2  1  0  0  0  0
  2  6  1  0  0  0  0
  2  5  1  0  0  0  0
  3  2  1  0  0  0  0
  3  7  1  1  0  0  0
  3 24  1  0  0  0  0
  8 16  1  0  0  0  0
  8 12  2  0  0  0  0
  9 10  2  0  0  0  0
  9  8  1  0  0  0  0
 10 11  1  0  0  0  0
 11 12  1  0  0  0  0
 11  1  1  0  0  0  0
 13  9  1  0  0  0  0
 14 10  1  0  0  0  0
 15 20  1  0  0  0  0
 15 21  1  0  0  0  0
 16 15  2  0  0  0  0
 17 18  2  0  0  0  0
 17 16  1  0  0  0  0
 18 19  1  0  0  0  0
 19 23  1  0  0  0  0
 19 20  2  0  0  0  0
 22 17  1  0  0  0  0
 24 25  2  0  0  0  0
 25 26  1  0  0  0  0
 25 29  1  0  0  0  0
 26 30  1  0  0  0  0
 27 26  1  0  0  0  0
 28 24  1  0  0  0  0
 28 27  2  0  0  0  0
 31 27  1  0  0  0  0
 31 32  2  0  0  0  0
 32 36  1  0  0  0  0
 33 32  1  0  0  0  0
 34 35  2  0  0  0  0
 34 33  1  0  0  0  0
 35 31  1  0  0  0  0
 37 38  1  0  0  0  0
 37 34  1  0  0  0  0
 39 37  1  0  0  0  0
M  END
>  <minimizedAffinity>
-5.58092451

$$$$

 OpenBabel03272500523D

 39 43  0  0  1  0  0  0  0  0999 V2000
   35.0780   29.2570   34.6470 C   0  0  1  0  0  0  0  0  0  0  0  0
   35.0570   29.3080   33.0750 C   0  0  0  0  0  0  0  0  0  0  0  0
   36.2760   28.9400   33.8710 C   0  0  2  0  0  0  0  0  0  0  0  0
   34.4840   28.4180   35.0730 H   0  0  0  0  0  0  0  0  0  0  0  0
   35.0450   30.3150   32.6480 H   0  0  0  0  0  0  0  0  0  0  0  0
   34.5490   28.4730   32.5720 H   0  0  0  0  0  0  0  0  0  0  0  0
   37.1100   29.6740   33.8770 H   0  0  0  0  0  0  0  0  0  0  0  0
   34.0000   32.2680   36.2990 C   0  0  0  0  0  0  0  0  0  0  0  0
   35.3730   32.4240   36.3610 C   0  0  0  0  0  0  0  0  0  0  0  0
   35.9700   31.3040   35.7410 C   0  0  0  0  0  0  0  0  0  0  0  0
   34.9590   30.5250   35.3370 N   0  0  0  0  0  0  0  0  0  0  0  0
   33.8440   31.1180   35.6790 N   0  0  0  0  0  0  0  0  0  0  0  0
   35.9610   33.2420   36.7930 H   0  0  0  0  0  0  0  0  0  0  0  0
   37.0180   31.1480   35.6390 H   0  0  0  0  0  0  0  0  0  0  0  0
   33.4780   34.3090   37.6640 C   0  0  0  0  0  0  0  0  0  0  0  0
   33.0690   33.2190   36.8320 C   0  0  0  0  0  0  0  0  0  0  0  0
   31.7280   33.1190   36.5610 C   0  0  0  0  0  0  0  0  0  0  0  0
   30.8700   34.0410   37.0840 N   0  0  0  0  0  0  0  0  0  0  0  0
   31.2980   35.0530   37.8640 C   0  0  0  0  0  0  0  0  0  0  0  0
   32.6140   35.1960   38.1610 N   0  0  0  0  0  0  0  0  0  0  0  0
   34.5430   34.3510   37.8520 H   0  0  0  0  0  0  0  0  0  0  0  0
   31.3700   32.3040   35.9320 H   0  0  0  0  0  0  0  0  0  0  0  0
   30.6070   35.7790   38.2740 H   0  0  0  0  0  0  0  0  0  0  0  0
   36.7790   27.5270   33.8200 C   0  0  0  0  0  0  0  0  0  0  0  0
   36.8430   26.7450   32.6780 C   0  0  0  0  0  0  0  0  0  0  0  0
   37.3650   25.5410   33.0380 N   0  0  0  0  0  0  0  0  0  0  0  0
   37.6250   25.5590   34.3680 C   0  0  0  0  0  0  0  0  0  0  0  0
   37.2670   26.7710   34.8400 N   0  0  0  0  0  0  0  0  0  0  0  0
   36.5550   26.9760   31.6700 H   0  0  0  0  0  0  0  0  0  0  0  0
   37.5580   24.7030   32.4420 H   0  0  0  0  0  0  0  0  0  0  0  0
   38.2050   24.4530   35.1860 C   0  0  0  0  0  0  0  0  0  0  0  0
   39.2580   23.6640   34.7150 C   0  0  0  0  0  0  0  0  0  0  0  0
   39.5600   22.4930   36.0860 S   0  0  0  0  0  0  0  0  0  0  0  0
   38.1660   23.2920   37.1000 C   0  0  0  0  0  0  0  0  0  0  0  0
   37.8080   24.1020   36.3970 N   0  0  0  0  0  0  0  0  0  0  0  0
   39.7550   23.7580   33.7490 H   0  0  0  0  0  0  0  0  0  0  0  0
   37.7100   22.9290   38.4280 N   0  0  0  0  0  0  0  0  0  0  0  0
   37.8610   21.8860   38.5470 H   0  0  0  0  0  0  0  0  0  0  0  0
   37.2990   23.5070   39.1880 H   0  0  0  0  0  0  0  0  0  0  0  0
  1  4  1  1  0  0  0
  1 11  1  0  0  0  0
  2  3  1  0  0  0  0
  2  1  1  0  0  0  0
  3  7  1  1  0  0  0
  3  1  1  0  0  0  0
  5  2  1  0  0  0  0
  6  2  1  0  0  0  0
  8  9  1  0  0  0  0
  8 16  1  0  0  0  0
  9 13  1  0  0  0  0
 10  9  2  0  0  0  0
 11 12  1  0  0  0  0
 11 10  1  0  0  0  0
 12  8  2  0  0  0  0
 14 10  1  0  0  0  0
 15 21  1  0  0  0  0
 15 20  1  0  0  0  0
 16 15  2  0  0  0  0
 17 16  1  0  0  0  0
 17 18  2  0  0  0  0
 18 19  1  0  0  0  0
 19 20  2  0  0  0  0
 19 23  1  0  0  0  0
 22 17  1  0  0  0  0
 24  3  1  0  0  0  0
 24 28  1  0  0  0  0
 25 26  1  0  0  0  0
 25 24  2  0  0  0  0
 26 27  1  0  0  0  0
 27 28  2  0  0  0  0
 27 31  1  0  0  0  0
 29 25  1  0  0  0  0
 30 26  1  0  0  0  0
 31 35  1  0  0  0  0
 32 31  2  0  0  0  0
 32 33  1  0  0  0  0
 33 34  1  0  0  0  0
 34 37  1  0  0  0  0
 35 34  2  0  0  0  0
 36 32  1  0  0  0  0
 37 38  1  0  0  0  0
 37 39  1  0  0  0  0
M  END
>  <minimizedAffinity>
-5.58063126

$$$$

 OpenBabel03272500523D

 39 43  0  0  1  0  0  0  0  0999 V2000
   38.3160   26.5760   34.0300 C   0  0  1  0  0  0  0  0  0  0  0  0
   37.8470   27.1500   35.4180 C   0  0  0  0  0  0  0  0  0  0  0  0
   37.6200   25.7270   34.9960 C   0  0  2  0  0  0  0  0  0  0  0  0
   39.4210   26.4810   33.9390 H   0  0  0  0  0  0  0  0  0  0  0  0
   36.9780   27.8120   35.3700 H   0  0  0  0  0  0  0  0  0  0  0  0
   38.6360   27.3030   36.1690 H   0  0  0  0  0  0  0  0  0  0  0  0
   36.5730   25.4330   34.7720 H   0  0  0  0  0  0  0  0  0  0  0  0
   37.2160   28.3380   31.0900 C   0  0  0  0  0  0  0  0  0  0  0  0
   36.2060   27.4000   31.2150 C   0  0  0  0  0  0  0  0  0  0  0  0
   36.4850   26.6050   32.3480 C   0  0  0  0  0  0  0  0  0  0  0  0
   37.6290   27.0770   32.8570 N   0  0  0  0  0  0  0  0  0  0  0  0
   38.0150   28.0740   32.1020 N   0  0  0  0  0  0  0  0  0  0  0  0
   35.3210   27.2450   30.5890 H   0  0  0  0  0  0  0  0  0  0  0  0
   35.8810   25.7980   32.6930 H   0  0  0  0  0  0  0  0  0  0  0  0
   37.8650   29.0570   28.7750 C   0  0  0  0  0  0  0  0  0  0  0  0
   37.2620   29.3190   30.0460 C   0  0  0  0  0  0  0  0  0  0  0  0
   36.7220   30.5670   30.2280 C   0  0  0  0  0  0  0  0  0  0  0  0
   36.7830   31.4760   29.2130 N   0  0  0  0  0  0  0  0  0  0  0  0
   37.3610   31.1880   28.0310 C   0  0  0  0  0  0  0  0  0  0  0  0
   37.9100   29.9690   27.8010 N   0  0  0  0  0  0  0  0  0  0  0  0
   38.2790   28.0630   28.6740 H   0  0  0  0  0  0  0  0  0  0  0  0
   36.2520   30.8110   31.1810 H   0  0  0  0  0  0  0  0  0  0  0  0
   37.4040   31.9180   27.2330 H   0  0  0  0  0  0  0  0  0  0  0  0
   38.3670   24.6320   35.7010 C   0  0  0  0  0  0  0  0  0  0  0  0
   37.8430   23.8210   36.6940 C   0  0  0  0  0  0  0  0  0  0  0  0
   38.8190   22.9500   37.0650 N   0  0  0  0  0  0  0  0  0  0  0  0
   39.9290   23.2000   36.3300 C   0  0  0  0  0  0  0  0  0  0  0  0
   39.6490   24.2260   35.4990 N   0  0  0  0  0  0  0  0  0  0  0  0
   36.8630   23.8210   37.1350 H   0  0  0  0  0  0  0  0  0  0  0  0
   38.7850   22.1930   37.7880 H   0  0  0  0  0  0  0  0  0  0  0  0
   41.2370   22.4840   36.4030 C   0  0  0  0  0  0  0  0  0  0  0  0
   42.3730   22.9580   35.7420 C   0  0  0  0  0  0  0  0  0  0  0  0
   43.6560   21.7240   36.1600 S   0  0  0  0  0  0  0  0  0  0  0  0
   42.4000   20.7410   37.1940 C   0  0  0  0  0  0  0  0  0  0  0  0
   41.4650   21.3650   37.0700 N   0  0  0  0  0  0  0  0  0  0  0  0
   42.4380   23.8570   35.1300 H   0  0  0  0  0  0  0  0  0  0  0  0
   42.6210   19.5140   37.9340 N   0  0  0  0  0  0  0  0  0  0  0  0
   43.3710   18.9620   37.4260 H   0  0  0  0  0  0  0  0  0  0  0  0
   42.1800   19.1550   38.8050 H   0  0  0  0  0  0  0  0  0  0  0  0
  1  4  1  6  0  0  0
  1  3  1  0  0  0  0
  1  2  1  0  0  0  0
  2  6  1  0  0  0  0
  3  7  1  6  0  0  0
  3  2  1  0  0  0  0
  3 24  1  0  0  0  0
  5  2  1  0  0  0  0
  8  9  1  0  0  0  0
  8 12  2  0  0  0  0
  9 10  2  0  0  0  0
 10 14  1  0  0  0  0
 10 11  1  0  0  0  0
 11  1  1  0  0  0  0
 12 11  1  0  0  0  0
 13  9  1  0  0  0  0
 15 16  1  0  0  0  0
 16 17  2  0  0  0  0
 16  8  1  0  0  0  0
 17 22  1  0  0  0  0
 18 17  1  0  0  0  0
 19 18  2  0  0  0  0
 20 19  1  0  0  0  0
 20 15  2  0  0  0  0
 21 15  1  0  0  0  0
 23 19  1  0  0  0  0
 24 25  2  0  0  0  0
 25 26  1  0  0  0  0
 25 29  1  0  0  0  0
 26 30  1  0  0  0  0
 27 31  1  0  0  0  0
 27 26  1  0  0  0  0
 28 24  1  0  0  0  0
 28 27  2  0  0  0  0
 31 35  1  0  0  0  0
 32 33  1  0  0  0  0
 32 31  2  0  0  0  0
 33 34  1  0  0  0  0
 34 37  1  0  0  0  0
 35 34  2  0  0  0  0
 36 32  1  0  0  0  0
 37 39  1  0  0  0  0
 38 37  1  0  0  0  0
M  END
>  <minimizedAffinity>
-5.52277756

$$$$
