
 OpenBabel03272500493D

 39 43  0  0  1  0  0  0  0  0999 V2000
   31.7020   28.2300   47.3600 C   0  0  1  0  0  0  0  0  0  0  0  0
   32.4870   27.0370   46.6990 C   0  0  0  0  0  0  0  0  0  0  0  0
   32.5690   28.4530   46.2040 C   0  0  2  0  0  0  0  0  0  0  0  0
   32.0820   28.5070   48.3690 H   0  0  0  0  0  0  0  0  0  0  0  0
   31.8700   26.3540   46.1080 H   0  0  0  0  0  0  0  0  0  0  0  0
   33.3680   26.6750   47.2490 H   0  0  0  0  0  0  0  0  0  0  0  0
   32.0880   28.6690   45.2260 H   0  0  0  0  0  0  0  0  0  0  0  0
   28.1390   28.6580   47.6460 C   0  0  0  0  0  0  0  0  0  0  0  0
   28.2090   27.8610   46.5170 C   0  0  0  0  0  0  0  0  0  0  0  0
   29.5700   27.5890   46.2550 C   0  0  0  0  0  0  0  0  0  0  0  0
   30.2620   28.2180   47.2120 N   0  0  0  0  0  0  0  0  0  0  0  0
   29.3990   28.8200   47.9910 N   0  0  0  0  0  0  0  0  0  0  0  0
   27.3980   27.4720   45.8900 H   0  0  0  0  0  0  0  0  0  0  0  0
   29.9300   26.9990   45.4460 H   0  0  0  0  0  0  0  0  0  0  0  0
   25.9400   28.2510   48.7830 C   0  0  0  0  0  0  0  0  0  0  0  0
   26.9090   29.1320   48.2080 C   0  0  0  0  0  0  0  0  0  0  0  0
   26.6090   30.4710   48.2170 C   0  0  0  0  0  0  0  0  0  0  0  0
   25.4300   30.8880   48.7600 N   0  0  0  0  0  0  0  0  0  0  0  0
   24.5430   30.0230   49.2900 C   0  0  0  0  0  0  0  0  0  0  0  0
   24.7930   28.6900   49.3070 N   0  0  0  0  0  0  0  0  0  0  0  0
   26.2150   27.2060   48.7560 H   0  0  0  0  0  0  0  0  0  0  0  0
   27.3190   31.1800   47.7890 H   0  0  0  0  0  0  0  0  0  0  0  0
   23.6100   30.3660   49.7190 H   0  0  0  0  0  0  0  0  0  0  0  0
   33.8550   29.2080   46.3710 C   0  0  0  0  0  0  0  0  0  0  0  0
   34.5780   29.7890   45.3410 C   0  0  0  0  0  0  0  0  0  0  0  0
   35.6660   30.3880   45.8950 N   0  0  0  0  0  0  0  0  0  0  0  0
   35.6360   30.1930   47.2360 C   0  0  0  0  0  0  0  0  0  0  0  0
   34.5300   29.4740   47.5210 N   0  0  0  0  0  0  0  0  0  0  0  0
   34.3780   29.8040   44.2850 H   0  0  0  0  0  0  0  0  0  0  0  0
   36.4340   30.9220   45.4250 H   0  0  0  0  0  0  0  0  0  0  0  0
   36.6300   30.6780   48.2380 C   0  0  0  0  0  0  0  0  0  0  0  0
   36.9390   29.9410   49.3840 C   0  0  0  0  0  0  0  0  0  0  0  0
   38.1790   30.9780   50.2370 S   0  0  0  0  0  0  0  0  0  0  0  0
   38.0690   32.2790   48.8560 C   0  0  0  0  0  0  0  0  0  0  0  0
   37.3040   31.8140   48.1660 N   0  0  0  0  0  0  0  0  0  0  0  0
   36.5160   28.9770   49.6670 H   0  0  0  0  0  0  0  0  0  0  0  0
   38.7950   33.5300   48.7500 N   0  0  0  0  0  0  0  0  0  0  0  0
   38.9780   33.8800   49.7350 H   0  0  0  0  0  0  0  0  0  0  0  0
   39.1190   34.0600   47.9170 H   0  0  0  0  0  0  0  0  0  0  0  0
  1  4  1  1  0  0  0
  2  6  1  0  0  0  0
  2  1  1  0  0  0  0
  3  7  1  6  0  0  0
  3 24  1  0  0  0  0
  3  2  1  0  0  0  0
  3  1  1  0  0  0  0
  5  2  1  0  0  0  0
  8 12  2  0  0  0  0
  8 16  1  0  0  0  0
  9  8  1  0  0  0  0
 10  9  2  0  0  0  0
 10 11  1  0  0  0  0
 11  1  1  0  0  0  0
 11 12  1  0  0  0  0
 13  9  1  0  0  0  0
 14 10  1  0  0  0  0
 15 20  1  0  0  0  0
 16 17  1  0  0  0  0
 16 15  2  0  0  0  0
 17 18  2  0  0  0  0
 18 19  1  0  0  0  0
 19 20  2  0  0  0  0
 19 23  1  0  0  0  0
 21 15  1  0  0  0  0
 22 17  1  0  0  0  0
 24 28  1  0  0  0  0
 25 26  1  0  0  0  0
 25 24  2  0  0  0  0
 26 27  1  0  0  0  0
 27 28  2  0  0  0  0
 27 31  1  0  0  0  0
 29 25  1  0  0  0  0
 30 26  1  0  0  0  0
 31 32  2  0  0  0  0
 32 36  1  0  0  0  0
 32 33  1  0  0  0  0
 34 33  1  0  0  0  0
 35 31  1  0  0  0  0
 35 34  2  0  0  0  0
 37 34  1  0  0  0  0
 37 38  1  0  0  0  0
 39 37  1  0  0  0  0
M  END
>  <minimizedAffinity>
-6.14112711

>  <minimizedRMSD>
0.567616642

$$$$
