
 OpenBabel03272500593D

 35 37  0  0  0  0  0  0  0  0999 V2000
   37.1420   21.9850   33.2350 C   0  0  0  0  0  0  0  0  0  0  0  0
   36.3350   21.0240   33.7820 C   0  0  0  0  0  0  0  0  0  0  0  0
   35.2810   20.4350   33.0760 C   0  0  0  0  0  0  0  0  0  0  0  0
   35.0700   20.8880   31.7160 C   0  0  0  0  0  0  0  0  0  0  0  0
   35.9030   21.8420   31.2310 C   0  0  0  0  0  0  0  0  0  0  0  0
   36.9120   22.4010   31.9240 C   0  0  0  0  0  0  0  0  0  0  0  0
   36.4770   20.6650   34.8110 H   0  0  0  0  0  0  0  0  0  0  0  0
   34.6790   19.6790   33.5690 H   0  0  0  0  0  0  0  0  0  0  0  0
   34.2400   20.3590   31.2990 H   0  0  0  0  0  0  0  0  0  0  0  0
   35.5790   21.9960   30.2140 H   0  0  0  0  0  0  0  0  0  0  0  0
   39.4830   21.8950   33.9370 C   0  0  0  0  0  0  0  0  0  0  0  0
   38.1980   22.4770   34.0900 C   0  0  0  0  0  0  0  0  0  0  0  0
   38.1320   23.4570   35.0480 C   0  0  0  0  0  0  0  0  0  0  0  0
   39.2080   23.8090   35.7600 N   0  0  0  0  0  0  0  0  0  0  0  0
   40.3900   23.2590   35.6060 C   0  0  0  0  0  0  0  0  0  0  0  0
   40.5180   22.3060   34.6960 N   0  0  0  0  0  0  0  0  0  0  0  0
   39.6010   21.1040   33.1870 H   0  0  0  0  0  0  0  0  0  0  0  0
   37.1350   23.9090   35.1660 H   0  0  0  0  0  0  0  0  0  0  0  0
   41.2630   23.5400   36.1790 H   0  0  0  0  0  0  0  0  0  0  0  0
   37.0690   24.6870   31.3900 C   0  0  0  0  0  0  0  0  0  0  0  0
   35.8640   24.7810   31.8520 O   0  0  0  0  0  0  0  0  0  0  0  0
   37.7020   23.3810   31.3780 N   0  0  0  0  0  0  0  0  0  0  0  0
   38.6540   23.2220   30.9890 H   0  0  0  0  0  0  0  0  0  0  0  0
   37.6970   25.8130   30.9340 O   0  0  0  0  0  0  0  0  0  0  0  0
   37.7990   27.0060   31.6410 C   0  0  0  0  0  0  0  0  0  0  0  0
   37.5120   28.1680   31.0980 O   0  0  0  0  0  0  0  0  0  0  0  0
   38.2140   27.0990   33.0580 C   0  0  0  0  0  0  0  0  0  0  0  0
   39.5450   26.9250   33.3640 C   0  0  0  0  0  0  0  0  0  0  0  0
   40.3170   26.7240   32.6550 H   0  0  0  0  0  0  0  0  0  0  0  0
   39.9610   27.0080   34.6980 C   0  0  0  0  0  3  0  0  0  0  0  0
   38.9790   27.2690   35.6570 C   0  0  0  0  0  0  0  0  0  0  0  0
   39.3220   27.3300   36.6890 H   0  0  0  0  0  0  0  0  0  0  0  0
   37.6440   27.4450   35.3600 C   0  0  0  0  0  0  0  0  0  0  0  0
   36.9890   27.6400   36.1960 H   0  0  0  0  0  0  0  0  0  0  0  0
   37.2740   27.3550   34.0340 C   0  0  0  0  0  3  0  0  0  0  0  0
  1  2  1  0  0  0  0
  1 12  1  0  0  0  0
  2  7  1  0  0  0  0
  3  8  1  0  0  0  0
  3  2  2  0  0  0  0
  4  3  1  0  0  0  0
  5  4  2  0  0  0  0
  5  6  1  0  0  0  0
  6  1  2  0  0  0  0
  9  4  1  0  0  0  0
 10  5  1  0  0  0  0
 11 12  2  0  0  0  0
 11 16  1  0  0  0  0
 12 13  1  0  0  0  0
 13 18  1  0  0  0  0
 13 14  2  0  0  0  0
 15 14  1  0  0  0  0
 15 19  1  0  0  0  0
 16 15  2  0  0  0  0
 17 11  1  0  0  0  0
 20 21  2  0  0  0  0
 22 20  1  0  0  0  0
 22  6  1  0  0  0  0
 23 22  1  0  0  0  0
 24 20  1  0  0  0  0
 24 25  1  0  0  0  0
 25 27  1  0  0  0  0
 26 25  2  0  0  0  0
 27 28  2  0  0  0  0
 27 35  1  0  0  0  0
 28 30  1  0  0  0  0
 29 28  1  0  0  0  0
 30 31  2  0  0  0  0
 31 32  1  0  0  0  0
 33 31  1  0  0  0  0
 33 34  1  0  0  0  0
 35 33  2  0  0  0  0
M  END
>  <minimizedAffinity>
-5.66995525

$$$$

 OpenBabel03272500593D

 35 37  0  0  0  0  0  0  0  0999 V2000
   39.9260   25.1670   34.7050 C   0  0  0  0  0  0  0  0  0  0  0  0
   41.2550   24.9480   34.9540 C   0  0  0  0  0  0  0  0  0  0  0  0
   42.2550   25.8270   34.5250 C   0  0  0  0  0  0  0  0  0  0  0  0
   41.8250   27.0030   33.7960 C   0  0  0  0  0  0  0  0  0  0  0  0
   40.4950   27.1640   33.5830 C   0  0  0  0  0  0  0  0  0  0  0  0
   39.5450   26.3070   33.9990 C   0  0  0  0  0  0  0  0  0  0  0  0
   41.6030   24.0640   35.5050 H   0  0  0  0  0  0  0  0  0  0  0  0
   43.2890   25.5940   34.7550 H   0  0  0  0  0  0  0  0  0  0  0  0
   42.6850   27.5810   33.5320 H   0  0  0  0  0  0  0  0  0  0  0  0
   40.4140   28.1010   33.0560 H   0  0  0  0  0  0  0  0  0  0  0  0
   38.5210   24.3790   36.5460 C   0  0  0  0  0  0  0  0  0  0  0  0
   39.0180   24.1740   35.2330 C   0  0  0  0  0  0  0  0  0  0  0  0
   38.5550   23.0350   34.6250 C   0  0  0  0  0  0  0  0  0  0  0  0
   37.7050   22.2100   35.2470 N   0  0  0  0  0  0  0  0  0  0  0  0
   37.2550   22.4150   36.4630 C   0  0  0  0  0  0  0  0  0  0  0  0
   37.6660   23.4980   37.1020 N   0  0  0  0  0  0  0  0  0  0  0  0
   38.8550   25.2730   37.0860 H   0  0  0  0  0  0  0  0  0  0  0  0
   38.9410   22.8760   33.6060 H   0  0  0  0  0  0  0  0  0  0  0  0
   36.5690   21.7510   36.9690 H   0  0  0  0  0  0  0  0  0  0  0  0
   37.5840   27.4200   34.6740 C   0  0  0  0  0  0  0  0  0  0  0  0
   38.2920   27.8720   35.6580 O   0  0  0  0  0  0  0  0  0  0  0  0
   38.2170   26.5200   33.7260 N   0  0  0  0  0  0  0  0  0  0  0  0
   37.7020   26.0890   32.9320 H   0  0  0  0  0  0  0  0  0  0  0  0
   36.2760   27.8030   34.5630 O   0  0  0  0  0  0  0  0  0  0  0  0
   35.8480   29.0320   34.0760 C   0  0  0  0  0  0  0  0  0  0  0  0
   35.9540   29.3570   32.8070 O   0  0  0  0  0  0  0  0  0  0  0  0
   35.2200   30.0830   34.9070 C   0  0  0  0  0  0  0  0  0  0  0  0
   33.8460   30.1650   34.9320 C   0  0  0  0  0  0  0  0  0  0  0  0
   33.1830   29.5250   34.3930 H   0  0  0  0  0  0  0  0  0  0  0  0
   33.2290   31.1510   35.7110 C   0  0  0  0  0  3  0  0  0  0  0  0
   34.0630   32.0090   36.4300 C   0  0  0  0  0  0  0  0  0  0  0  0
   33.5640   32.7690   37.0310 H   0  0  0  0  0  0  0  0  0  0  0  0
   35.4400   31.9350   36.4120 C   0  0  0  0  0  0  0  0  0  0  0  0
   35.9660   32.6600   37.0140 H   0  0  0  0  0  0  0  0  0  0  0  0
   36.0090   30.9500   35.6320 C   0  0  0  0  0  3  0  0  0  0  0  0
  1  2  1  0  0  0  0
  1 12  1  0  0  0  0
  2  7  1  0  0  0  0
  3  8  1  0  0  0  0
  3  2  2  0  0  0  0
  4  3  1  0  0  0  0
  5  4  2  0  0  0  0
  5  6  1  0  0  0  0
  6  1  2  0  0  0  0
  9  4  1  0  0  0  0
 10  5  1  0  0  0  0
 11 17  1  0  0  0  0
 11 16  1  0  0  0  0
 12 11  2  0  0  0  0
 13 12  1  0  0  0  0
 13 14  2  0  0  0  0
 14 15  1  0  0  0  0
 15 19  1  0  0  0  0
 15 16  2  0  0  0  0
 18 13  1  0  0  0  0
 20 21  2  0  0  0  0
 22  6  1  0  0  0  0
 22 20  1  0  0  0  0
 23 22  1  0  0  0  0
 24 20  1  0  0  0  0
 25 24  1  0  0  0  0
 25 27  1  0  0  0  0
 26 25  2  0  0  0  0
 27 28  2  0  0  0  0
 27 35  1  0  0  0  0
 28 30  1  0  0  0  0
 29 28  1  0  0  0  0
 30 31  2  0  0  0  0
 31 32  1  0  0  0  0
 33 31  1  0  0  0  0
 33 34  1  0  0  0  0
 35 33  2  0  0  0  0
M  END
>  <minimizedAffinity>
-5.59216547

$$$$

 OpenBabel03272500593D

 35 37  0  0  0  0  0  0  0  0999 V2000
   36.0060   29.1340   31.7540 C   0  0  0  0  0  0  0  0  0  0  0  0
   36.2600   30.1120   30.8290 C   0  0  0  0  0  0  0  0  0  0  0  0
   37.0370   29.8840   29.6890 C   0  0  0  0  0  0  0  0  0  0  0  0
   37.5730   28.5490   29.5170 C   0  0  0  0  0  0  0  0  0  0  0  0
   37.2850   27.6250   30.4670 C   0  0  0  0  0  0  0  0  0  0  0  0
   36.5370   27.8600   31.5610 C   0  0  0  0  0  0  0  0  0  0  0  0
   35.8640   31.1310   30.9400 H   0  0  0  0  0  0  0  0  0  0  0  0
   37.2000   30.7030   28.9970 H   0  0  0  0  0  0  0  0  0  0  0  0
   38.1410   28.5170   28.6120 H   0  0  0  0  0  0  0  0  0  0  0  0
   37.7570   26.7200   30.1190 H   0  0  0  0  0  0  0  0  0  0  0  0
   33.7680   29.3640   32.7140 C   0  0  0  0  0  0  0  0  0  0  0  0
   35.1690   29.5260   32.8660 C   0  0  0  0  0  0  0  0  0  0  0  0
   35.5500   30.0410   34.0790 C   0  0  0  0  0  0  0  0  0  0  0  0
   34.6490   30.3510   35.0180 N   0  0  0  0  0  0  0  0  0  0  0  0
   33.3550   30.1950   34.8610 C   0  0  0  0  0  0  0  0  0  0  0  0
   32.9250   29.7020   33.7100 N   0  0  0  0  0  0  0  0  0  0  0  0
   33.3990   28.9570   31.7650 H   0  0  0  0  0  0  0  0  0  0  0  0
   36.6380   30.1670   34.1960 H   0  0  0  0  0  0  0  0  0  0  0  0
   32.6240   30.4450   35.6160 H   0  0  0  0  0  0  0  0  0  0  0  0
   37.3850   26.7570   33.4580 C   0  0  0  0  0  0  0  0  0  0  0  0
   38.4260   27.5120   33.3160 O   0  0  0  0  0  0  0  0  0  0  0  0
   36.3060   26.8830   32.4960 N   0  0  0  0  0  0  0  0  0  0  0  0
   35.4550   26.2850   32.5250 H   0  0  0  0  0  0  0  0  0  0  0  0
   37.3410   25.8730   34.5020 O   0  0  0  0  0  0  0  0  0  0  0  0
   38.2150   24.8060   34.6750 C   0  0  0  0  0  0  0  0  0  0  0  0
   38.8260   24.2310   33.6630 O   0  0  0  0  0  0  0  0  0  0  0  0
   38.5650   24.2220   35.9880 C   0  0  0  0  0  0  0  0  0  0  0  0
   37.8070   24.5720   37.0840 C   0  0  0  0  0  0  0  0  0  0  0  0
   36.9740   25.2390   37.0660 H   0  0  0  0  0  0  0  0  0  0  0  0
   38.1190   24.0330   38.3370 C   0  0  0  0  0  3  0  0  0  0  0  0
   39.2030   23.1550   38.4010 C   0  0  0  0  0  0  0  0  0  0  0  0
   39.4300   22.7460   39.3850 H   0  0  0  0  0  0  0  0  0  0  0  0
   39.9690   22.7990   37.3110 C   0  0  0  0  0  0  0  0  0  0  0  0
   40.7790   22.1110   37.4990 H   0  0  0  0  0  0  0  0  0  0  0  0
   39.6290   23.3520   36.0930 C   0  0  0  0  0  3  0  0  0  0  0  0
  1 12  1  0  0  0  0
  2  7  1  0  0  0  0
  2  1  2  0  0  0  0
  3  2  1  0  0  0  0
  4  3  2  0  0  0  0
  4  5  1  0  0  0  0
  5  6  2  0  0  0  0
  6  1  1  0  0  0  0
  6 22  1  0  0  0  0
  8  3  1  0  0  0  0
  9  4  1  0  0  0  0
 10  5  1  0  0  0  0
 11 12  2  0  0  0  0
 11 16  1  0  0  0  0
 12 13  1  0  0  0  0
 13 18  1  0  0  0  0
 13 14  2  0  0  0  0
 15 14  1  0  0  0  0
 15 19  1  0  0  0  0
 16 15  2  0  0  0  0
 17 11  1  0  0  0  0
 20 24  1  0  0  0  0
 21 20  2  0  0  0  0
 22 23  1  0  0  0  0
 22 20  1  0  0  0  0
 24 25  1  0  0  0  0
 25 27  1  0  0  0  0
 26 25  2  0  0  0  0
 27 35  2  0  0  0  0
 27 28  1  0  0  0  0
 28 30  2  0  0  0  0
 29 28  1  0  0  0  0
 30 31  1  0  0  0  0
 31 32  1  0  0  0  0
 33 34  1  0  0  0  0
 33 31  2  0  0  0  0
 35 33  1  0  0  0  0
M  END
>  <minimizedAffinity>
-5.47852707

$$$$

 OpenBabel03272500593D

 35 37  0  0  0  0  0  0  0  0999 V2000
   36.6420   28.9700   31.4480 C   0  0  0  0  0  0  0  0  0  0  0  0
   36.6550   29.3170   30.1230 C   0  0  0  0  0  0  0  0  0  0  0  0
   37.5960   28.8090   29.2220 C   0  0  0  0  0  0  0  0  0  0  0  0
   38.5760   27.8830   29.7510 C   0  0  0  0  0  0  0  0  0  0  0  0
   38.5110   27.5780   31.0710 C   0  0  0  0  0  0  0  0  0  0  0  0
   37.6000   28.0780   31.9270 C   0  0  0  0  0  0  0  0  0  0  0  0
   35.9210   30.0170   29.7010 H   0  0  0  0  0  0  0  0  0  0  0  0
   37.5510   29.1260   28.1860 H   0  0  0  0  0  0  0  0  0  0  0  0
   39.2270   27.5770   28.9600 H   0  0  0  0  0  0  0  0  0  0  0  0
   39.3050   26.8650   31.2260 H   0  0  0  0  0  0  0  0  0  0  0  0
   35.7900   30.8990   32.6860 C   0  0  0  0  0  0  0  0  0  0  0  0
   35.5920   29.5670   32.2420 C   0  0  0  0  0  0  0  0  0  0  0  0
   34.3980   29.0130   32.6290 C   0  0  0  0  0  0  0  0  0  0  0  0
   33.5170   29.7010   33.3640 N   0  0  0  0  0  0  0  0  0  0  0  0
   33.7170   30.9340   33.7680 C   0  0  0  0  0  0  0  0  0  0  0  0
   34.8510   31.5230   33.4260 N   0  0  0  0  0  0  0  0  0  0  0  0
   36.7260   31.3980   32.4090 H   0  0  0  0  0  0  0  0  0  0  0  0
   34.2450   27.9790   32.2840 H   0  0  0  0  0  0  0  0  0  0  0  0
   33.0080   31.4940   34.3620 H   0  0  0  0  0  0  0  0  0  0  0  0
   37.0540   26.4260   33.5120 C   0  0  0  0  0  0  0  0  0  0  0  0
   36.5900   25.7510   32.5100 O   0  0  0  0  0  0  0  0  0  0  0  0
   37.6080   27.7440   33.2580 N   0  0  0  0  0  0  0  0  0  0  0  0
   37.9650   28.3590   34.0170 H   0  0  0  0  0  0  0  0  0  0  0  0
   37.0050   25.8780   34.7640 O   0  0  0  0  0  0  0  0  0  0  0  0
   38.0080   25.9940   35.7200 C   0  0  0  0  0  0  0  0  0  0  0  0
   38.5120   27.1560   36.0680 O   0  0  0  0  0  0  0  0  0  0  0  0
   38.5940   24.8500   36.4530 C   0  0  0  0  0  0  0  0  0  0  0  0
   39.6130   24.1420   35.8560 C   0  0  0  0  0  0  0  0  0  0  0  0
   40.0240   24.3520   34.8940 H   0  0  0  0  0  0  0  0  0  0  0  0
   40.1830   23.0550   36.5300 C   0  0  0  0  0  3  0  0  0  0  0  0
   39.6710   22.7490   37.7930 C   0  0  0  0  0  0  0  0  0  0  0  0
   40.1280   21.9000   38.3010 H   0  0  0  0  0  0  0  0  0  0  0  0
   38.6510   23.4510   38.3990 C   0  0  0  0  0  0  0  0  0  0  0  0
   38.3490   23.1090   39.3770 H   0  0  0  0  0  0  0  0  0  0  0  0
   38.1160   24.5150   37.7020 C   0  0  0  0  0  3  0  0  0  0  0  0
  1  6  1  0  0  0  0
  1 12  1  0  0  0  0
  2  1  2  0  0  0  0
  3  4  2  0  0  0  0
  3  2  1  0  0  0  0
  4  5  1  0  0  0  0
  5 10  1  0  0  0  0
  5  6  2  0  0  0  0
  6 22  1  0  0  0  0
  7  2  1  0  0  0  0
  8  3  1  0  0  0  0
  9  4  1  0  0  0  0
 11 16  1  0  0  0  0
 12 13  1  0  0  0  0
 12 11  2  0  0  0  0
 13 14  2  0  0  0  0
 14 15  1  0  0  0  0
 15 19  1  0  0  0  0
 16 15  2  0  0  0  0
 17 11  1  0  0  0  0
 18 13  1  0  0  0  0
 20 24  1  0  0  0  0
 21 20  2  0  0  0  0
 22 20  1  0  0  0  0
 22 23  1  0  0  0  0
 24 25  1  0  0  0  0
 25 26  2  0  0  0  0
 25 27  1  0  0  0  0
 27 35  1  0  0  0  0
 28 27  2  0  0  0  0
 28 30  1  0  0  0  0
 29 28  1  0  0  0  0
 30 31  2  0  0  0  0
 31 32  1  0  0  0  0
 31 33  1  0  0  0  0
 33 34  1  0  0  0  0
 35 33  2  0  0  0  0
M  END
>  <minimizedAffinity>
-5.45925188

$$$$

 OpenBabel03272500593D

 35 37  0  0  0  0  0  0  0  0999 V2000
   36.5650   22.2240   32.0930 C   0  0  0  0  0  0  0  0  0  0  0  0
   35.4050   21.9260   31.4280 C   0  0  0  0  0  0  0  0  0  0  0  0
   34.7270   20.7150   31.6050 C   0  0  0  0  0  0  0  0  0  0  0  0
   35.3070   19.7700   32.5370 C   0  0  0  0  0  0  0  0  0  0  0  0
   36.4560   20.1240   33.1640 C   0  0  0  0  0  0  0  0  0  0  0  0
   37.0980   21.2930   32.9810 C   0  0  0  0  0  0  0  0  0  0  0  0
   34.9470   22.6280   30.7170 H   0  0  0  0  0  0  0  0  0  0  0  0
   33.8130   20.5420   31.0470 H   0  0  0  0  0  0  0  0  0  0  0  0
   34.6910   18.8970   32.5740 H   0  0  0  0  0  0  0  0  0  0  0  0
   36.6790   19.2940   33.8150 H   0  0  0  0  0  0  0  0  0  0  0  0
   37.8840   23.6640   30.6200 C   0  0  0  0  0  0  0  0  0  0  0  0
   37.1300   23.5250   31.8130 C   0  0  0  0  0  0  0  0  0  0  0  0
   37.0300   24.6740   32.5560 C   0  0  0  0  0  0  0  0  0  0  0  0
   37.6080   25.8130   32.1580 N   0  0  0  0  0  0  0  0  0  0  0  0
   38.3040   25.9240   31.0510 C   0  0  0  0  0  0  0  0  0  0  0  0
   38.4360   24.8490   30.2900 N   0  0  0  0  0  0  0  0  0  0  0  0
   38.0000   22.7800   29.9820 H   0  0  0  0  0  0  0  0  0  0  0  0
   36.4450   24.5660   33.4820 H   0  0  0  0  0  0  0  0  0  0  0  0
   38.7730   26.8420   30.7250 H   0  0  0  0  0  0  0  0  0  0  0  0
   38.0840   21.8300   35.0490 C   0  0  0  0  0  0  0  0  0  0  0  0
   36.8800   21.8100   35.5220 O   0  0  0  0  0  0  0  0  0  0  0  0
   38.2730   21.5760   33.6330 N   0  0  0  0  0  0  0  0  0  0  0  0
   39.2060   21.6110   33.1750 H   0  0  0  0  0  0  0  0  0  0  0  0
   39.1280   22.0900   35.8950 O   0  0  0  0  0  0  0  0  0  0  0  0
   39.2680   23.2500   36.6480 C   0  0  0  0  0  0  0  0  0  0  0  0
   39.4540   23.2220   37.9480 O   0  0  0  0  0  0  0  0  0  0  0  0
   39.2470   24.6170   36.0810 C   0  0  0  0  0  0  0  0  0  0  0  0
   38.2490   25.4770   36.4810 C   0  0  0  0  0  0  0  0  0  0  0  0
   37.4760   25.2380   37.1770 H   0  0  0  0  0  0  0  0  0  0  0  0
   38.2080   26.7750   35.9590 C   0  0  0  0  0  3  0  0  0  0  0  0
   39.2030   27.1250   35.0440 C   0  0  0  0  0  0  0  0  0  0  0  0
   39.1540   28.1390   34.6480 H   0  0  0  0  0  0  0  0  0  0  0  0
   40.2070   26.2710   34.6360 C   0  0  0  0  0  0  0  0  0  0  0  0
   40.9130   26.6680   33.9230 H   0  0  0  0  0  0  0  0  0  0  0  0
   40.2120   25.0010   35.1750 C   0  0  0  0  0  3  0  0  0  0  0  0
  1  6  1  0  0  0  0
  2  3  1  0  0  0  0
  2  1  2  0  0  0  0
  3  4  2  0  0  0  0
  4  9  1  0  0  0  0
  4  5  1  0  0  0  0
  5 10  1  0  0  0  0
  6  5  2  0  0  0  0
  6 22  1  0  0  0  0
  7  2  1  0  0  0  0
  8  3  1  0  0  0  0
 11 12  1  0  0  0  0
 12  1  1  0  0  0  0
 12 13  2  0  0  0  0
 13 18  1  0  0  0  0
 14 13  1  0  0  0  0
 15 14  2  0  0  0  0
 16 11  2  0  0  0  0
 16 15  1  0  0  0  0
 17 11  1  0  0  0  0
 19 15  1  0  0  0  0
 20 21  2  0  0  0  0
 20 24  1  0  0  0  0
 22 20  1  0  0  0  0
 23 22  1  0  0  0  0
 24 25  1  0  0  0  0
 25 26  2  0  0  0  0
 27 28  1  0  0  0  0
 27 25  1  0  0  0  0
 28 29  1  0  0  0  0
 30 28  2  0  0  0  0
 31 30  1  0  0  0  0
 32 31  1  0  0  0  0
 33 31  2  0  0  0  0
 33 35  1  0  0  0  0
 34 33  1  0  0  0  0
 35 27  2  0  0  0  0
M  END
>  <minimizedAffinity>
-5.44486475

$$$$

 OpenBabel03272500593D

 35 37  0  0  0  0  0  0  0  0999 V2000
   36.4020   22.2600   31.9850 C   0  0  0  0  0  0  0  0  0  0  0  0
   35.4690   21.6850   31.1630 C   0  0  0  0  0  0  0  0  0  0  0  0
   34.8330   20.4790   31.4750 C   0  0  0  0  0  0  0  0  0  0  0  0
   35.2040   19.8480   32.7250 C   0  0  0  0  0  0  0  0  0  0  0  0
   36.1320   20.4660   33.4950 C   0  0  0  0  0  0  0  0  0  0  0  0
   36.7380   21.6260   33.1800 C   0  0  0  0  0  0  0  0  0  0  0  0
   35.1730   22.1470   30.2110 H   0  0  0  0  0  0  0  0  0  0  0  0
   34.1040   20.0780   30.7790 H   0  0  0  0  0  0  0  0  0  0  0  0
   34.6460   18.9420   32.8350 H   0  0  0  0  0  0  0  0  0  0  0  0
   36.2240   19.8400   34.3680 H   0  0  0  0  0  0  0  0  0  0  0  0
   36.2770   24.7020   31.9210 C   0  0  0  0  0  0  0  0  0  0  0  0
   36.9500   23.5170   31.5280 C   0  0  0  0  0  0  0  0  0  0  0  0
   38.0610   23.7290   30.7520 C   0  0  0  0  0  0  0  0  0  0  0  0
   38.4490   24.9640   30.4140 N   0  0  0  0  0  0  0  0  0  0  0  0
   37.8140   26.0510   30.7870 C   0  0  0  0  0  0  0  0  0  0  0  0
   36.7330   25.9100   31.5370 N   0  0  0  0  0  0  0  0  0  0  0  0
   35.3800   24.5990   32.5430 H   0  0  0  0  0  0  0  0  0  0  0  0
   38.5830   22.8090   30.4460 H   0  0  0  0  0  0  0  0  0  0  0  0
   38.1230   27.0500   30.5160 H   0  0  0  0  0  0  0  0  0  0  0  0
   39.0290   21.7010   33.7140 C   0  0  0  0  0  0  0  0  0  0  0  0
   39.1760   20.8030   32.7950 O   0  0  0  0  0  0  0  0  0  0  0  0
   37.6890   22.1850   33.9970 N   0  0  0  0  0  0  0  0  0  0  0  0
   37.4890   22.8790   34.7450 H   0  0  0  0  0  0  0  0  0  0  0  0
   40.1320   22.1590   34.3810 O   0  0  0  0  0  0  0  0  0  0  0  0
   40.2100   23.3820   35.0390 C   0  0  0  0  0  0  0  0  0  0  0  0
   40.9750   24.3590   34.6090 O   0  0  0  0  0  0  0  0  0  0  0  0
   39.4420   23.7200   36.2570 C   0  0  0  0  0  0  0  0  0  0  0  0
   39.6230   22.9470   37.3820 C   0  0  0  0  0  0  0  0  0  0  0  0
   40.2810   22.1100   37.4520 H   0  0  0  0  0  0  0  0  0  0  0  0
   38.9070   23.2480   38.5470 C   0  0  0  0  0  3  0  0  0  0  0  0
   38.0340   24.3380   38.4950 C   0  0  0  0  0  0  0  0  0  0  0  0
   37.4870   24.5560   39.4110 H   0  0  0  0  0  0  0  0  0  0  0  0
   37.8460   25.1180   37.3730 C   0  0  0  0  0  0  0  0  0  0  0  0
   37.1410   25.9300   37.4680 H   0  0  0  0  0  0  0  0  0  0  0  0
   38.5700   24.7880   36.2460 C   0  0  0  0  0  3  0  0  0  0  0  0
  1  6  1  0  0  0  0
  2  3  1  0  0  0  0
  2  1  2  0  0  0  0
  3  4  2  0  0  0  0
  4  9  1  0  0  0  0
  4  5  1  0  0  0  0
  5 10  1  0  0  0  0
  6  5  2  0  0  0  0
  6 22  1  0  0  0  0
  7  2  1  0  0  0  0
  8  3  1  0  0  0  0
 11 17  1  0  0  0  0
 12 11  2  0  0  0  0
 12  1  1  0  0  0  0
 13 12  1  0  0  0  0
 14 13  2  0  0  0  0
 14 15  1  0  0  0  0
 15 16  2  0  0  0  0
 16 11  1  0  0  0  0
 18 13  1  0  0  0  0
 19 15  1  0  0  0  0
 20 22  1  0  0  0  0
 20 24  1  0  0  0  0
 21 20  2  0  0  0  0
 22 23  1  0  0  0  0
 24 25  1  0  0  0  0
 25 27  1  0  0  0  0
 26 25  2  0  0  0  0
 27 28  1  0  0  0  0
 28 29  1  0  0  0  0
 28 30  2  0  0  0  0
 31 30  1  0  0  0  0
 31 32  1  0  0  0  0
 33 34  1  0  0  0  0
 33 31  2  0  0  0  0
 35 27  2  0  0  0  0
 35 33  1  0  0  0  0
M  END
>  <minimizedAffinity>
-5.43967342

$$$$

 OpenBabel03272500593D

 35 37  0  0  0  0  0  0  0  0999 V2000
   41.4170   22.3870   36.4820 C   0  0  0  0  0  0  0  0  0  0  0  0
   41.6930   21.1640   37.0330 C   0  0  0  0  0  0  0  0  0  0  0  0
   42.9490   20.5590   36.9290 C   0  0  0  0  0  0  0  0  0  0  0  0
   43.9690   21.2890   36.2040 C   0  0  0  0  0  0  0  0  0  0  0  0
   43.6350   22.4940   35.6820 C   0  0  0  0  0  0  0  0  0  0  0  0
   42.4190   23.0630   35.7880 C   0  0  0  0  0  0  0  0  0  0  0  0
   40.9350   20.5940   37.5880 H   0  0  0  0  0  0  0  0  0  0  0  0
   43.1010   19.5890   37.3890 H   0  0  0  0  0  0  0  0  0  0  0  0
   44.8720   20.7150   36.2030 H   0  0  0  0  0  0  0  0  0  0  0  0
   44.5410   22.8540   35.2210 H   0  0  0  0  0  0  0  0  0  0  0  0
   39.6750   23.1160   38.0360 C   0  0  0  0  0  0  0  0  0  0  0  0
   40.0760   22.8820   36.6960 C   0  0  0  0  0  0  0  0  0  0  0  0
   39.1150   23.1700   35.7600 C   0  0  0  0  0  0  0  0  0  0  0  0
   37.9110   23.6320   36.1180 N   0  0  0  0  0  0  0  0  0  0  0  0
   37.5560   23.8420   37.3640 C   0  0  0  0  0  0  0  0  0  0  0  0
   38.4410   23.5830   38.3130 N   0  0  0  0  0  0  0  0  0  0  0  0
   40.4000   22.9050   38.8320 H   0  0  0  0  0  0  0  0  0  0  0  0
   39.4260   22.9880   34.7200 H   0  0  0  0  0  0  0  0  0  0  0  0
   36.5850   24.2150   37.6580 H   0  0  0  0  0  0  0  0  0  0  0  0
   41.8530   24.1760   33.7930 C   0  0  0  0  0  0  0  0  0  0  0  0
   41.9280   23.0120   33.2330 O   0  0  0  0  0  0  0  0  0  0  0  0
   42.1420   24.2770   35.2130 N   0  0  0  0  0  0  0  0  0  0  0  0
   42.1370   25.1840   35.7230 H   0  0  0  0  0  0  0  0  0  0  0  0
   41.5090   25.2600   33.0340 O   0  0  0  0  0  0  0  0  0  0  0  0
   41.0160   26.4580   33.5390 C   0  0  0  0  0  0  0  0  0  0  0  0
   41.7470   27.5480   33.5930 O   0  0  0  0  0  0  0  0  0  0  0  0
   39.6370   26.6420   34.0430 C   0  0  0  0  0  0  0  0  0  0  0  0
   38.5870   26.3780   33.1910 C   0  0  0  0  0  0  0  0  0  0  0  0
   38.6850   26.0460   32.1810 H   0  0  0  0  0  0  0  0  0  0  0  0
   37.2740   26.5450   33.6450 C   0  0  0  0  0  3  0  0  0  0  0  0
   37.1050   26.9790   34.9610 C   0  0  0  0  0  0  0  0  0  0  0  0
   36.0750   27.1030   35.2960 H   0  0  0  0  0  0  0  0  0  0  0  0
   38.1490   27.2460   35.8220 C   0  0  0  0  0  0  0  0  0  0  0  0
   37.8790   27.5760   36.8140 H   0  0  0  0  0  0  0  0  0  0  0  0
   39.4280   27.0690   35.3370 C   0  0  0  0  0  3  0  0  0  0  0  0
  1 12  1  0  0  0  0
  1  2  1  0  0  0  0
  2  7  1  0  0  0  0
  3  2  2  0  0  0  0
  3  8  1  0  0  0  0
  4  3  1  0  0  0  0
  5  6  1  0  0  0  0
  5  4  2  0  0  0  0
  6  1  2  0  0  0  0
  9  4  1  0  0  0  0
 10  5  1  0  0  0  0
 11 16  1  0  0  0  0
 11 17  1  0  0  0  0
 12 11  2  0  0  0  0
 13 14  2  0  0  0  0
 13 12  1  0  0  0  0
 14 15  1  0  0  0  0
 15 19  1  0  0  0  0
 15 16  2  0  0  0  0
 18 13  1  0  0  0  0
 20 22  1  0  0  0  0
 21 20  2  0  0  0  0
 22 23  1  0  0  0  0
 22  6  1  0  0  0  0
 24 25  1  0  0  0  0
 24 20  1  0  0  0  0
 25 26  2  0  0  0  0
 25 27  1  0  0  0  0
 27 35  1  0  0  0  0
 28 30  1  0  0  0  0
 28 27  2  0  0  0  0
 29 28  1  0  0  0  0
 30 31  2  0  0  0  0
 31 32  1  0  0  0  0
 31 33  1  0  0  0  0
 33 34  1  0  0  0  0
 35 33  2  0  0  0  0
M  END
>  <minimizedAffinity>
-5.43385124

$$$$

 OpenBabel03272500593D

 35 37  0  0  0  0  0  0  0  0999 V2000
   39.6810   25.6620   34.2660 C   0  0  0  0  0  0  0  0  0  0  0  0
   40.8370   26.2050   34.7610 C   0  0  0  0  0  0  0  0  0  0  0  0
   41.6310   27.0860   34.0200 C   0  0  0  0  0  0  0  0  0  0  0  0
   41.1760   27.4110   32.6840 C   0  0  0  0  0  0  0  0  0  0  0  0
   40.0240   26.8430   32.2520 C   0  0  0  0  0  0  0  0  0  0  0  0
   39.2710   25.9940   32.9760 C   0  0  0  0  0  0  0  0  0  0  0  0
   41.2000   25.9720   35.7720 H   0  0  0  0  0  0  0  0  0  0  0  0
   42.5350   27.4790   34.4720 H   0  0  0  0  0  0  0  0  0  0  0  0
   41.8720   28.0890   32.2360 H   0  0  0  0  0  0  0  0  0  0  0  0
   39.8740   27.2450   31.2630 H   0  0  0  0  0  0  0  0  0  0  0  0
   39.2960   23.4070   35.1310 C   0  0  0  0  0  0  0  0  0  0  0  0
   38.9650   24.7860   35.1660 C   0  0  0  0  0  0  0  0  0  0  0  0
   37.9920   25.1110   36.0760 C   0  0  0  0  0  0  0  0  0  0  0  0
   37.4240   24.1790   36.8510 N   0  0  0  0  0  0  0  0  0  0  0  0
   37.7410   22.9060   36.8050 C   0  0  0  0  0  0  0  0  0  0  0  0
   38.6750   22.5300   35.9450 N   0  0  0  0  0  0  0  0  0  0  0  0
   40.0680   23.0830   34.4220 H   0  0  0  0  0  0  0  0  0  0  0  0
   37.7360   26.1810   36.1040 H   0  0  0  0  0  0  0  0  0  0  0  0
   37.2840   22.1500   37.4270 H   0  0  0  0  0  0  0  0  0  0  0  0
   38.3940   24.3830   31.5020 C   0  0  0  0  0  0  0  0  0  0  0  0
   39.6260   24.1230   31.2020 O   0  0  0  0  0  0  0  0  0  0  0  0
   38.1260   25.4350   32.4660 N   0  0  0  0  0  0  0  0  0  0  0  0
   37.1620   25.7240   32.7280 H   0  0  0  0  0  0  0  0  0  0  0  0
   37.3970   23.6640   30.9030 O   0  0  0  0  0  0  0  0  0  0  0  0
   36.1880   23.3320   31.5040 C   0  0  0  0  0  0  0  0  0  0  0  0
   35.1860   24.1790   31.5730 O   0  0  0  0  0  0  0  0  0  0  0  0
   35.8910   22.0110   32.1000 C   0  0  0  0  0  0  0  0  0  0  0  0
   35.3210   21.0440   31.3020 C   0  0  0  0  0  0  0  0  0  0  0  0
   35.0700   21.1690   30.2720 H   0  0  0  0  0  0  0  0  0  0  0  0
   35.0310   19.7870   31.8440 C   0  0  0  0  0  3  0  0  0  0  0  0
   35.3450   19.5850   33.1900 C   0  0  0  0  0  0  0  0  0  0  0  0
   35.1130   18.6000   33.5940 H   0  0  0  0  0  0  0  0  0  0  0  0
   35.9170   20.5460   33.9980 C   0  0  0  0  0  0  0  0  0  0  0  0
   36.1080   20.2600   35.0200 H   0  0  0  0  0  0  0  0  0  0  0  0
   36.1860   21.7730   33.4260 C   0  0  0  0  0  3  0  0  0  0  0  0
  1  2  1  0  0  0  0
  1 12  1  0  0  0  0
  2  7  1  0  0  0  0
  3  8  1  0  0  0  0
  3  2  2  0  0  0  0
  4  3  1  0  0  0  0
  5  4  2  0  0  0  0
  5  6  1  0  0  0  0
  6  1  2  0  0  0  0
  9  4  1  0  0  0  0
 10  5  1  0  0  0  0
 11 12  2  0  0  0  0
 11 16  1  0  0  0  0
 12 13  1  0  0  0  0
 13 18  1  0  0  0  0
 13 14  2  0  0  0  0
 15 14  1  0  0  0  0
 15 19  1  0  0  0  0
 16 15  2  0  0  0  0
 17 11  1  0  0  0  0
 20 22  1  0  0  0  0
 21 20  2  0  0  0  0
 22 23  1  0  0  0  0
 22  6  1  0  0  0  0
 24 20  1  0  0  0  0
 24 25  1  0  0  0  0
 25 26  2  0  0  0  0
 25 27  1  0  0  0  0
 27 35  1  0  0  0  0
 28 30  1  0  0  0  0
 28 27  2  0  0  0  0
 29 28  1  0  0  0  0
 30 31  2  0  0  0  0
 31 32  1  0  0  0  0
 31 33  1  0  0  0  0
 33 34  1  0  0  0  0
 35 33  2  0  0  0  0
M  END
>  <minimizedAffinity>
-5.40876055

$$$$

 OpenBabel03272500593D

 35 37  0  0  0  0  0  0  0  0999 V2000
   38.5240   25.4400   35.3060 C   0  0  0  0  0  0  0  0  0  0  0  0
   38.6360   26.6700   35.8990 C   0  0  0  0  0  0  0  0  0  0  0  0
   37.9830   27.8040   35.4080 C   0  0  0  0  0  0  0  0  0  0  0  0
   37.1640   27.6280   34.2260 C   0  0  0  0  0  0  0  0  0  0  0  0
   37.0920   26.3870   33.6850 C   0  0  0  0  0  0  0  0  0  0  0  0
   37.7300   25.3040   34.1680 C   0  0  0  0  0  0  0  0  0  0  0  0
   39.2510   26.8260   36.7970 H   0  0  0  0  0  0  0  0  0  0  0  0
   38.1150   28.7480   35.9260 H   0  0  0  0  0  0  0  0  0  0  0  0
   36.7270   28.5690   33.9630 H   0  0  0  0  0  0  0  0  0  0  0  0
   36.4190   26.4910   32.8490 H   0  0  0  0  0  0  0  0  0  0  0  0
   40.5390   24.0620   35.4500 C   0  0  0  0  0  0  0  0  0  0  0  0
   39.2460   24.3660   35.9490 C   0  0  0  0  0  0  0  0  0  0  0  0
   38.8490   23.5850   37.0040 C   0  0  0  0  0  0  0  0  0  0  0  0
   39.6400   22.6260   37.4970 N   0  0  0  0  0  0  0  0  0  0  0  0
   40.8350   22.3570   37.0230 C   0  0  0  0  0  0  0  0  0  0  0  0
   41.2740   23.0770   36.0030 N   0  0  0  0  0  0  0  0  0  0  0  0
   40.9140   24.6510   34.6050 H   0  0  0  0  0  0  0  0  0  0  0  0
   37.8460   23.8220   37.3910 H   0  0  0  0  0  0  0  0  0  0  0  0
   41.4770   21.5820   37.4170 H   0  0  0  0  0  0  0  0  0  0  0  0
   38.4350   23.9890   32.3490 C   0  0  0  0  0  0  0  0  0  0  0  0
   39.0940   25.0350   31.9690 O   0  0  0  0  0  0  0  0  0  0  0  0
   37.6320   24.0800   33.5550 N   0  0  0  0  0  0  0  0  0  0  0  0
   37.0480   23.2930   33.9020 H   0  0  0  0  0  0  0  0  0  0  0  0
   38.5170   22.8430   31.6060 O   0  0  0  0  0  0  0  0  0  0  0  0
   38.4060   21.5560   32.1190 C   0  0  0  0  0  0  0  0  0  0  0  0
   39.4140   20.9460   32.7020 O   0  0  0  0  0  0  0  0  0  0  0  0
   37.1640   20.7520   32.0870 C   0  0  0  0  0  0  0  0  0  0  0  0
   37.2720   19.3800   32.0530 C   0  0  0  0  0  0  0  0  0  0  0  0
   38.1910   18.8370   32.0470 H   0  0  0  0  0  0  0  0  0  0  0  0
   36.1110   18.5990   32.0220 C   0  0  0  0  0  3  0  0  0  0  0  0
   34.8880   19.2740   32.0280 C   0  0  0  0  0  0  0  0  0  0  0  0
   33.9960   18.6490   32.0040 H   0  0  0  0  0  0  0  0  0  0  0  0
   34.7700   20.6470   32.0620 C   0  0  0  0  0  0  0  0  0  0  0  0
   33.7650   21.0410   32.0620 H   0  0  0  0  0  0  0  0  0  0  0  0
   35.9380   21.3820   32.0920 C   0  0  0  0  0  3  0  0  0  0  0  0
  1  2  1  0  0  0  0
  1 12  1  0  0  0  0
  2  7  1  0  0  0  0
  3  2  2  0  0  0  0
  3  8  1  0  0  0  0
  4  3  1  0  0  0  0
  5  6  1  0  0  0  0
  5  4  2  0  0  0  0
  6  1  2  0  0  0  0
  9  4  1  0  0  0  0
 10  5  1  0  0  0  0
 11 12  2  0  0  0  0
 11 16  1  0  0  0  0
 12 13  1  0  0  0  0
 13 18  1  0  0  0  0
 13 14  2  0  0  0  0
 15 19  1  0  0  0  0
 15 14  1  0  0  0  0
 16 15  2  0  0  0  0
 17 11  1  0  0  0  0
 20 22  1  0  0  0  0
 21 20  2  0  0  0  0
 22 23  1  0  0  0  0
 22  6  1  0  0  0  0
 24 25  1  0  0  0  0
 24 20  1  0  0  0  0
 25 26  2  0  0  0  0
 27 35  1  0  0  0  0
 27 25  1  0  0  0  0
 28 27  2  0  0  0  0
 29 28  1  0  0  0  0
 30 31  2  0  0  0  0
 30 28  1  0  0  0  0
 31 33  1  0  0  0  0
 32 31  1  0  0  0  0
 33 35  2  0  0  0  0
 34 33  1  0  0  0  0
M  END
>  <minimizedAffinity>
-5.33209753

$$$$
