
 OpenBabel03272508583D

 40 43  0  0  1  0  0  0  0  0999 V2000
   38.3530   31.8860   44.5090 C   0  0  0  0  0  0  0  0  0  0  0  0
   37.2680   32.4510   44.4000 O   0  0  0  0  0  0  0  0  0  0  0  0
   38.9280   31.5890   45.8070 N   0  0  0  0  0  0  0  0  0  0  0  0
   39.8970   31.3090   45.9730 H   0  0  0  0  0  0  0  0  0  0  0  0
   39.1360   31.4760   43.3090 C   0  0  0  0  0  0  0  0  0  0  0  0
   40.1270   30.5280   43.4600 C   0  0  0  0  0  0  0  0  0  0  0  0
   40.8540   30.1760   42.3370 C   0  0  0  0  0  0  0  0  0  0  0  0
   40.5390   30.7920   41.1450 C   0  0  0  0  0  0  0  0  0  0  0  0
   39.5460   31.7390   40.9910 C   0  0  0  0  0  0  0  0  0  0  0  0
   38.8810   32.0360   42.1200 N   0  0  0  0  0  0  0  0  0  0  0  0
   40.3350   30.0640   44.4220 H   0  0  0  0  0  0  0  0  0  0  0  0
   41.6100   29.4360   42.4860 H   0  0  0  0  0  0  0  0  0  0  0  0
   41.1930   30.4460   40.3720 H   0  0  0  0  0  0  0  0  0  0  0  0
   39.2290   32.3600   39.7050 C   0  0  2  0  0  3  0  0  0  0  0  0
   38.6160   33.4910   39.7540 O   0  0  0  0  0  1  0  0  0  0  0  0
   39.4560   31.9780   38.3220 C   0  0  0  0  0  0  0  0  0  0  0  0
   38.8030   30.9940   37.6100 C   0  0  0  0  0  0  0  0  0  0  0  0
   38.0510   30.3710   38.0480 H   0  0  0  0  0  0  0  0  0  0  0  0
   39.0310   30.6960   36.2890 C   0  0  0  0  0  3  0  0  0  0  0  0
   39.9740   31.4210   35.6050 C   0  0  0  0  0  0  0  0  0  0  0  0
   40.1670   31.1950   34.5430 H   0  0  0  0  0  0  0  0  0  0  0  0
   40.6740   32.4210   36.2350 C   0  0  0  0  0  0  0  0  0  0  0  0
   41.4270   33.0260   35.7140 H   0  0  0  0  0  0  0  0  0  0  0  0
   40.4120   32.6840   37.5640 C   0  0  0  0  0  3  0  0  0  0  0  0
   38.4230   31.0880   48.1940 C   0  0  2  0  0  0  0  0  0  0  0  0
   38.6790   32.5530   48.1030 C   0  0  0  0  0  0  0  0  0  0  0  0
   38.0670   31.7010   46.9560 C   0  0  1  0  0  0  0  0  0  0  0  0
   39.3900   30.5100   48.2840 H   0  0  0  0  0  0  0  0  0  0  0  0
   39.6970   32.9310   47.9800 H   0  0  0  0  0  0  0  0  0  0  0  0
   37.9690   33.1590   48.7120 H   0  0  0  0  0  0  0  0  0  0  0  0
   36.9900   31.9410   46.7660 H   0  0  0  0  0  0  0  0  0  0  0  0
   35.0800   30.2310   49.5260 C   0  0  0  0  0  0  0  0  0  0  0  0
   35.3880   29.5500   50.7300 C   0  0  0  0  0  0  0  0  0  0  0  0
   36.7720   29.4060   51.0610 C   0  0  0  0  0  0  0  0  0  0  0  0
   37.7460   29.9180   50.2280 N   0  0  0  0  0  0  0  0  0  0  0  0
   37.3440   30.5590   49.0910 C   0  0  0  0  0  0  0  0  0  0  0  0
   36.0340   30.7290   48.7200 N   0  0  0  0  0  0  0  0  0  0  0  0
   34.0620   30.3870   49.1900 H   0  0  0  0  0  0  0  0  0  0  0  0
   34.6060   29.1790   51.3400 H   0  0  0  0  0  0  0  0  0  0  0  0
   37.0200   28.8830   51.9900 H   0  0  0  0  0  0  0  0  0  0  0  0
  1  3  1  0  0  0  0
  2  1  2  0  0  0  0
  3  4  1  0  0  0  0
  3 27  1  0  0  0  0
  5  6  1  0  0  0  0
  5  1  1  0  0  0  0
  6 11  1  0  0  0  0
  7 12  1  0  0  0  0
  7  6  2  0  0  0  0
  8  7  1  0  0  0  0
  9  8  2  0  0  0  0
  9 10  1  0  0  0  0
 10  5  2  0  0  0  0
 13  8  1  0  0  0  0
 14 15  1  6  0  0  0
 14  9  1  0  0  0  0
 16 14  1  0  0  0  0
 17 18  1  0  0  0  0
 17 16  1  0  0  0  0
 19 17  2  0  0  0  0
 20 22  2  0  0  0  0
 20 19  1  0  0  0  0
 21 20  1  0  0  0  0
 22 24  1  0  0  0  0
 23 22  1  0  0  0  0
 24 16  2  0  0  0  0
 25 28  1  6  0  0  0
 25 36  1  0  0  0  0
 26 25  1  0  0  0  0
 26 30  1  0  0  0  0
 27 31  1  6  0  0  0
 27 26  1  0  0  0  0
 27 25  1  0  0  0  0
 29 26  1  0  0  0  0
 32 33  1  0  0  0  0
 33 34  2  0  0  0  0
 33 39  1  0  0  0  0
 34 40  1  0  0  0  0
 35 34  1  0  0  0  0
 36 35  2  0  0  0  0
 37 36  1  0  0  0  0
 37 32  2  0  0  0  0
 38 32  1  0  0  0  0
M  END
>  <minimizedAffinity>
-4.92474413

>  <minimizedRMSD>
0.510117948

$$$$
