
 OpenBabel03272508583D

 40 43  0  0  1  0  0  0  0  0999 V2000
   38.3560   31.8770   44.5160 C   0  0  0  0  0  0  0  0  0  0  0  0
   37.2720   32.4430   44.4040 O   0  0  0  0  0  0  0  0  0  0  0  0
   38.9290   31.5810   45.8160 N   0  0  0  0  0  0  0  0  0  0  0  0
   39.8960   31.3000   45.9840 H   0  0  0  0  0  0  0  0  0  0  0  0
   39.1410   31.4650   43.3190 C   0  0  0  0  0  0  0  0  0  0  0  0
   40.1310   30.5160   43.4720 C   0  0  0  0  0  0  0  0  0  0  0  0
   40.8590   30.1610   42.3510 C   0  0  0  0  0  0  0  0  0  0  0  0
   40.5480   30.7770   41.1570 C   0  0  0  0  0  0  0  0  0  0  0  0
   39.5570   31.7260   41.0010 C   0  0  0  0  0  0  0  0  0  0  0  0
   38.8900   32.0250   42.1280 N   0  0  0  0  0  0  0  0  0  0  0  0
   40.3360   30.0520   44.4350 H   0  0  0  0  0  0  0  0  0  0  0  0
   41.6140   29.4200   42.5020 H   0  0  0  0  0  0  0  0  0  0  0  0
   41.2030   30.4300   40.3860 H   0  0  0  0  0  0  0  0  0  0  0  0
   39.2440   32.3460   39.7140 C   0  0  2  0  0  0  0  0  0  0  0  0
   38.5810   33.4490   39.7590 O   0  0  0  0  0  0  0  0  0  0  0  0
   39.5190   31.9900   38.3340 C   0  0  0  0  0  0  0  0  0  0  0  0
   39.0660   30.8820   37.6510 C   0  0  0  0  0  0  0  0  0  0  0  0
   38.4600   30.1300   38.1130 H   0  0  0  0  0  0  0  0  0  0  0  0
   39.3270   30.6080   36.3300 C   0  0  0  0  0  0  0  0  0  0  0  0
   40.0950   31.4960   35.6160 C   0  0  0  0  0  0  0  0  0  0  0  0
   40.3110   31.2910   34.5540 H   0  0  0  0  0  0  0  0  0  0  0  0
   40.5900   32.6260   36.2150 C   0  0  0  0  0  0  0  0  0  0  0  0
   41.1980   33.3600   35.6700 H   0  0  0  0  0  0  0  0  0  0  0  0
   40.3020   32.8580   37.5440 C   0  0  0  0  0  0  0  0  0  0  0  0
   38.4210   31.0860   48.2030 C   0  0  2  0  0  0  0  0  0  0  0  0
   38.6730   32.5510   48.1080 C   0  0  0  0  0  0  0  0  0  0  0  0
   38.0660   31.6940   46.9630 C   0  0  1  0  0  0  0  0  0  0  0  0
   39.3880   30.5100   48.2970 H   0  0  0  0  0  0  0  0  0  0  0  0
   39.6910   32.9300   47.9860 H   0  0  0  0  0  0  0  0  0  0  0  0
   37.9620   33.1580   48.7140 H   0  0  0  0  0  0  0  0  0  0  0  0
   36.9880   31.9330   46.7710 H   0  0  0  0  0  0  0  0  0  0  0  0
   35.0770   30.2300   49.5340 C   0  0  0  0  0  0  0  0  0  0  0  0
   35.3840   29.5500   50.7390 C   0  0  0  0  0  0  0  0  0  0  0  0
   36.7680   29.4070   51.0710 C   0  0  0  0  0  0  0  0  0  0  0  0
   37.7420   29.9180   50.2380 N   0  0  0  0  0  0  0  0  0  0  0  0
   37.3410   30.5580   49.1010 C   0  0  0  0  0  0  0  0  0  0  0  0
   36.0310   30.7270   48.7280 N   0  0  0  0  0  0  0  0  0  0  0  0
   34.0580   30.3850   49.1970 H   0  0  0  0  0  0  0  0  0  0  0  0
   34.6010   29.1790   51.3480 H   0  0  0  0  0  0  0  0  0  0  0  0
   37.0140   28.8860   52.0010 H   0  0  0  0  0  0  0  0  0  0  0  0
  1  3  1  0  0  0  0
  2  1  2  0  0  0  0
  3  4  1  0  0  0  0
  3 27  1  0  0  0  0
  5  6  1  0  0  0  0
  5  1  1  0  0  0  0
  6 11  1  0  0  0  0
  7 12  1  0  0  0  0
  7  6  2  0  0  0  0
  8  7  1  0  0  0  0
  9  8  2  0  0  0  0
  9 10  1  0  0  0  0
 10  5  2  0  0  0  0
 13  8  1  0  0  0  0
 14 15  1  6  0  0  0
 14  9  1  0  0  0  0
 16 14  1  0  0  0  0
 17 18  1  0  0  0  0
 17 16  1  0  0  0  0
 19 17  2  0  0  0  0
 20 22  2  0  0  0  0
 20 19  1  0  0  0  0
 21 20  1  0  0  0  0
 22 24  1  0  0  0  0
 23 22  1  0  0  0  0
 24 16  2  0  0  0  0
 25 28  1  6  0  0  0
 25 36  1  0  0  0  0
 26 25  1  0  0  0  0
 26 30  1  0  0  0  0
 27 31  1  6  0  0  0
 27 26  1  0  0  0  0
 27 25  1  0  0  0  0
 29 26  1  0  0  0  0
 32 33  1  0  0  0  0
 33 34  2  0  0  0  0
 33 39  1  0  0  0  0
 34 40  1  0  0  0  0
 35 34  1  0  0  0  0
 36 35  2  0  0  0  0
 37 36  1  0  0  0  0
 37 32  2  0  0  0  0
 38 32  1  0  0  0  0
M  END
>  <minimizedAffinity>
-4.93375444

>  <minimizedRMSD>
0.560225725

$$$$
