
 OpenBabel03272508573D

 40 43  0  0  1  0  0  0  0  0999 V2000
   38.3690   31.8550   44.5510 C   0  0  0  0  0  0  0  0  0  0  0  0
   37.2980   32.4440   44.4320 O   0  0  0  0  0  0  0  0  0  0  0  0
   38.9230   31.5400   45.8540 N   0  0  0  0  0  0  0  0  0  0  0  0
   39.8830   31.2390   46.0300 H   0  0  0  0  0  0  0  0  0  0  0  0
   39.1550   31.4320   43.3590 C   0  0  0  0  0  0  0  0  0  0  0  0
   40.1430   30.4820   43.5210 C   0  0  0  0  0  0  0  0  0  0  0  0
   40.8740   30.1170   42.4050 C   0  0  0  0  0  0  0  0  0  0  0  0
   40.5660   30.7240   41.2060 C   0  0  0  0  0  0  0  0  0  0  0  0
   39.5780   31.6740   41.0400 C   0  0  0  0  0  0  0  0  0  0  0  0
   38.9090   31.9830   42.1630 N   0  0  0  0  0  0  0  0  0  0  0  0
   40.3450   30.0250   44.4880 H   0  0  0  0  0  0  0  0  0  0  0  0
   41.6260   29.3760   42.5640 H   0  0  0  0  0  0  0  0  0  0  0  0
   41.2220   30.3690   40.4390 H   0  0  0  0  0  0  0  0  0  0  0  0
   39.2690   32.2850   39.7470 C   0  0  2  0  0  3  0  0  0  0  0  0
   38.5660   33.3630   39.7800 O   0  0  0  0  0  1  0  0  0  0  0  0
   39.5850   31.9400   38.3720 C   0  0  0  0  0  0  0  0  0  0  0  0
   39.2410   30.7880   37.7000 C   0  0  0  0  0  0  0  0  0  0  0  0
   38.7060   29.9870   38.1670 H   0  0  0  0  0  0  0  0  0  0  0  0
   39.5350   30.5260   36.3830 C   0  0  0  0  0  3  0  0  0  0  0  0
   40.2210   31.4740   35.6640 C   0  0  0  0  0  0  0  0  0  0  0  0
   40.4630   31.2790   34.6050 H   0  0  0  0  0  0  0  0  0  0  0  0
   40.6040   32.6520   36.2530 C   0  0  0  0  0  0  0  0  0  0  0  0
   41.1450   33.4340   35.7020 H   0  0  0  0  0  0  0  0  0  0  0  0
   40.2890   32.8690   37.5780 C   0  0  0  0  0  3  0  0  0  0  0  0
   38.4050   31.0840   48.2470 C   0  0  2  0  0  0  0  0  0  0  0  0
   38.6460   32.5490   48.1270 C   0  0  0  0  0  0  0  0  0  0  0  0
   38.0520   31.6670   46.9940 C   0  0  1  0  0  0  0  0  0  0  0  0
   39.3770   30.5170   48.3560 H   0  0  0  0  0  0  0  0  0  0  0  0
   39.6610   32.9350   48.0040 H   0  0  0  0  0  0  0  0  0  0  0  0
   37.9260   33.1600   48.7190 H   0  0  0  0  0  0  0  0  0  0  0  0
   36.9740   31.8930   46.7910 H   0  0  0  0  0  0  0  0  0  0  0  0
   35.0620   30.1880   49.5550 C   0  0  0  0  0  0  0  0  0  0  0  0
   35.3660   29.5670   50.7930 C   0  0  0  0  0  0  0  0  0  0  0  0
   36.7470   29.4790   51.1540 C   0  0  0  0  0  0  0  0  0  0  0  0
   37.7220   29.9820   50.3170 N   0  0  0  0  0  0  0  0  0  0  0  0
   37.3230   30.5630   49.1470 C   0  0  0  0  0  0  0  0  0  0  0  0
   36.0170   30.6780   48.7450 N   0  0  0  0  0  0  0  0  0  0  0  0
   34.0460   30.2990   49.1940 H   0  0  0  0  0  0  0  0  0  0  0  0
   34.5830   29.2000   51.4040 H   0  0  0  0  0  0  0  0  0  0  0  0
   36.9910   29.0040   52.1090 H   0  0  0  0  0  0  0  0  0  0  0  0
  1  3  1  0  0  0  0
  2  1  2  0  0  0  0
  3  4  1  0  0  0  0
  3 27  1  0  0  0  0
  5  6  1  0  0  0  0
  5  1  1  0  0  0  0
  6 11  1  0  0  0  0
  7 12  1  0  0  0  0
  7  6  2  0  0  0  0
  8  7  1  0  0  0  0
  9  8  2  0  0  0  0
  9 10  1  0  0  0  0
 10  5  2  0  0  0  0
 13  8  1  0  0  0  0
 14 15  1  6  0  0  0
 14  9  1  0  0  0  0
 16 14  1  0  0  0  0
 17 18  1  0  0  0  0
 17 16  1  0  0  0  0
 19 17  2  0  0  0  0
 20 22  2  0  0  0  0
 20 19  1  0  0  0  0
 21 20  1  0  0  0  0
 22 24  1  0  0  0  0
 23 22  1  0  0  0  0
 24 16  2  0  0  0  0
 25 28  1  6  0  0  0
 25 36  1  0  0  0  0
 26 25  1  0  0  0  0
 26 30  1  0  0  0  0
 27 31  1  6  0  0  0
 27 26  1  0  0  0  0
 27 25  1  0  0  0  0
 29 26  1  0  0  0  0
 32 33  1  0  0  0  0
 33 34  2  0  0  0  0
 33 39  1  0  0  0  0
 34 40  1  0  0  0  0
 35 34  1  0  0  0  0
 36 35  2  0  0  0  0
 37 36  1  0  0  0  0
 37 32  2  0  0  0  0
 38 32  1  0  0  0  0
M  END
>  <minimizedAffinity>
-4.92671442

>  <minimizedRMSD>
0.660595179

$$$$
