
 OpenBabel03272508583D

 40 43  0  0  1  0  0  0  0  0999 V2000
   38.2760   31.9030   44.5320 C   0  0  0  0  0  0  0  0  0  0  0  0
   37.1330   32.3380   44.4280 O   0  0  0  0  0  0  0  0  0  0  0  0
   38.9140   31.7420   45.8250 N   0  0  0  0  0  0  0  0  0  0  0  0
   39.9110   31.5800   45.9750 H   0  0  0  0  0  0  0  0  0  0  0  0
   39.0680   31.5160   43.3320 C   0  0  0  0  0  0  0  0  0  0  0  0
   40.0620   30.5690   43.4730 C   0  0  0  0  0  0  0  0  0  0  0  0
   40.7980   30.2380   42.3490 C   0  0  0  0  0  0  0  0  0  0  0  0
   40.4900   30.8740   41.1650 C   0  0  0  0  0  0  0  0  0  0  0  0
   39.4950   31.8210   41.0210 C   0  0  0  0  0  0  0  0  0  0  0  0
   38.8210   32.0960   42.1500 N   0  0  0  0  0  0  0  0  0  0  0  0
   40.2640   30.0880   44.4280 H   0  0  0  0  0  0  0  0  0  0  0  0
   41.5550   29.4980   42.4910 H   0  0  0  0  0  0  0  0  0  0  0  0
   41.1500   30.5430   40.3920 H   0  0  0  0  0  0  0  0  0  0  0  0
   39.1860   32.4630   39.7440 C   0  0  2  0  0  3  0  0  0  0  0  0
   38.6970   33.6520   39.8080 O   0  0  0  0  0  1  0  0  0  0  0  0
   39.3060   32.0500   38.3570 C   0  0  0  0  0  0  0  0  0  0  0  0
   38.3440   31.4390   37.5810 C   0  0  0  0  0  0  0  0  0  0  0  0
   37.3800   31.1750   37.9630 H   0  0  0  0  0  0  0  0  0  0  0  0
   38.4980   31.0990   36.2580 C   0  0  0  0  0  3  0  0  0  0  0  0
   39.6920   31.3830   35.6430 C   0  0  0  0  0  0  0  0  0  0  0  0
   39.8290   31.1190   34.5810 H   0  0  0  0  0  0  0  0  0  0  0  0
   40.7070   31.9900   36.3390 C   0  0  0  0  0  0  0  0  0  0  0  0
   41.6690   32.2400   35.8730 H   0  0  0  0  0  0  0  0  0  0  0  0
   40.5070   32.3120   37.6650 C   0  0  0  0  0  3  0  0  0  0  0  0
   38.4380   31.1460   48.1960 C   0  0  2  0  0  0  0  0  0  0  0  0
   38.7250   32.6080   48.1650 C   0  0  0  0  0  0  0  0  0  0  0  0
   38.0750   31.8210   46.9940 C   0  0  1  0  0  0  0  0  0  0  0  0
   39.3930   30.5430   48.2430 H   0  0  0  0  0  0  0  0  0  0  0  0
   39.7500   32.9680   48.0410 H   0  0  0  0  0  0  0  0  0  0  0  0
   38.0400   33.2020   48.8140 H   0  0  0  0  0  0  0  0  0  0  0  0
   37.0010   32.0940   46.8340 H   0  0  0  0  0  0  0  0  0  0  0  0
   35.1010   30.2450   49.5150 C   0  0  0  0  0  0  0  0  0  0  0  0
   35.4140   29.5640   50.7190 C   0  0  0  0  0  0  0  0  0  0  0  0
   36.7990   29.4360   51.0530 C   0  0  0  0  0  0  0  0  0  0  0  0
   37.7680   29.9620   50.2250 N   0  0  0  0  0  0  0  0  0  0  0  0
   37.3620   30.6020   49.0890 C   0  0  0  0  0  0  0  0  0  0  0  0
   36.0520   30.7570   48.7140 N   0  0  0  0  0  0  0  0  0  0  0  0
   34.0820   30.3890   49.1770 H   0  0  0  0  0  0  0  0  0  0  0  0
   34.6340   29.1820   51.3250 H   0  0  0  0  0  0  0  0  0  0  0  0
   37.0490   28.9140   51.9820 H   0  0  0  0  0  0  0  0  0  0  0  0
  1  3  1  0  0  0  0
  2  1  2  0  0  0  0
  3  4  1  0  0  0  0
  3 27  1  0  0  0  0
  5  6  1  0  0  0  0
  5  1  1  0  0  0  0
  6 11  1  0  0  0  0
  7 12  1  0  0  0  0
  7  6  2  0  0  0  0
  8  7  1  0  0  0  0
  9  8  2  0  0  0  0
  9 10  1  0  0  0  0
 10  5  2  0  0  0  0
 13  8  1  0  0  0  0
 14 15  1  1  0  0  0
 14  9  1  0  0  0  0
 16 14  1  0  0  0  0
 17 18  1  0  0  0  0
 17 16  2  0  0  0  0
 19 17  1  0  0  0  0
 20 19  2  0  0  0  0
 20 22  1  0  0  0  0
 21 20  1  0  0  0  0
 22 24  2  0  0  0  0
 23 22  1  0  0  0  0
 24 16  1  0  0  0  0
 25 28  1  6  0  0  0
 25 36  1  0  0  0  0
 26 25  1  0  0  0  0
 26 30  1  0  0  0  0
 27 31  1  6  0  0  0
 27 26  1  0  0  0  0
 27 25  1  0  0  0  0
 29 26  1  0  0  0  0
 32 33  1  0  0  0  0
 33 34  2  0  0  0  0
 33 39  1  0  0  0  0
 34 40  1  0  0  0  0
 35 34  1  0  0  0  0
 36 35  2  0  0  0  0
 37 36  1  0  0  0  0
 37 32  2  0  0  0  0
 38 32  1  0  0  0  0
M  END
>  <minimizedAffinity>
-4.92004442

>  <minimizedRMSD>
0.660434902

$$$$
