
 OpenBabel03272500583D

 35 37  0  0  0  0  0  0  0  0999 V2000
   38.2250   31.9150   47.3950 C   0  0  0  0  0  0  0  0  0  0  0  0
   38.7940   32.7890   48.2840 C   0  0  0  0  0  0  0  0  0  0  0  0
   38.3720   32.8910   49.6130 C   0  0  0  0  0  0  0  0  0  0  0  0
   37.2900   32.0200   50.0250 C   0  0  0  0  0  0  0  0  0  0  0  0
   36.7690   31.1770   49.1000 C   0  0  0  0  0  0  0  0  0  0  0  0
   37.1850   31.0920   47.8220 C   0  0  0  0  0  0  0  0  0  0  0  0
   39.6160   33.4580   47.9930 H   0  0  0  0  0  0  0  0  0  0  0  0
   38.8650   33.6040   50.2650 H   0  0  0  0  0  0  0  0  0  0  0  0
   37.0710   32.2020   51.0560 H   0  0  0  0  0  0  0  0  0  0  0  0
   36.0130   30.6200   49.6310 H   0  0  0  0  0  0  0  0  0  0  0  0
   40.0220   31.2400   45.8800 C   0  0  0  0  0  0  0  0  0  0  0  0
   38.7900   31.9190   46.0650 C   0  0  0  0  0  0  0  0  0  0  0  0
   38.2860   32.4960   44.9280 C   0  0  0  0  0  0  0  0  0  0  0  0
   38.9290   32.4060   43.7570 N   0  0  0  0  0  0  0  0  0  0  0  0
   40.0690   31.7740   43.6030 C   0  0  0  0  0  0  0  0  0  0  0  0
   40.6070   31.1970   44.6660 N   0  0  0  0  0  0  0  0  0  0  0  0
   40.4780   30.7580   46.7530 H   0  0  0  0  0  0  0  0  0  0  0  0
   37.3300   33.0220   45.0710 H   0  0  0  0  0  0  0  0  0  0  0  0
   40.5920   31.6990   42.6610 H   0  0  0  0  0  0  0  0  0  0  0  0
   35.1760   30.0500   47.1780 C   0  0  0  0  0  0  0  0  0  0  0  0
   34.6470   30.6540   48.1920 O   0  0  0  0  0  0  0  0  0  0  0  0
   36.5950   30.2310   46.9310 N   0  0  0  0  0  0  0  0  0  0  0  0
   37.0960   29.7490   46.1570 H   0  0  0  0  0  0  0  0  0  0  0  0
   34.3850   29.2680   46.3810 O   0  0  0  0  0  0  0  0  0  0  0  0
   33.0150   29.4350   46.2160 C   0  0  0  0  0  0  0  0  0  0  0  0
   32.5130   30.3360   45.4020 O   0  0  0  0  0  0  0  0  0  0  0  0
   31.9890   28.6210   46.9060 C   0  0  0  0  0  0  0  0  0  0  0  0
   32.4050   27.6810   47.8210 C   0  0  0  0  0  0  0  0  0  0  0  0
   33.4220   27.4840   48.0800 H   0  0  0  0  0  0  0  0  0  0  0  0
   31.4530   26.8990   48.4860 C   0  0  0  0  0  0  0  0  0  0  0  0
   30.1110   27.1270   48.1740 C   0  0  0  0  0  0  0  0  0  0  0  0
   29.3860   26.5090   48.7020 H   0  0  0  0  0  0  0  0  0  0  0  0
   29.6840   28.0660   47.2590 C   0  0  0  0  0  0  0  0  0  0  0  0
   28.6180   28.1400   47.1110 H   0  0  0  0  0  0  0  0  0  0  0  0
   30.6530   28.8160   46.6250 C   0  0  0  0  0  0  0  0  0  0  0  0
  1  6  2  0  0  0  0
  1  2  1  0  0  0  0
  2  3  2  0  0  0  0
  3  4  1  0  0  0  0
  3  8  1  0  0  0  0
  4  9  1  0  0  0  0
  5 10  1  0  0  0  0
  5  4  2  0  0  0  0
  6  5  1  0  0  0  0
  7  2  1  0  0  0  0
 11 12  1  0  0  0  0
 11 17  1  0  0  0  0
 12  1  1  0  0  0  0
 13 18  1  0  0  0  0
 13 12  2  0  0  0  0
 14 13  1  0  0  0  0
 15 14  2  0  0  0  0
 15 16  1  0  0  0  0
 16 11  2  0  0  0  0
 19 15  1  0  0  0  0
 20 21  2  0  0  0  0
 22 20  1  0  0  0  0
 22  6  1  0  0  0  0
 23 22  1  0  0  0  0
 24 20  1  0  0  0  0
 25 24  1  0  0  0  0
 25 27  1  0  0  0  0
 26 25  2  0  0  0  0
 27 28  1  0  0  0  0
 28 29  1  0  0  0  0
 28 30  2  0  0  0  0
 31 30  1  0  0  0  0
 31 32  1  0  0  0  0
 33 31  2  0  0  0  0
 34 33  1  0  0  0  0
 35 27  2  0  0  0  0
 35 33  1  0  0  0  0
M  END
>  <minimizedAffinity>
-5.95202875

>  <minimizedRMSD>
1.44550455

$$$$
