
 OpenBabel03272508583D

 40 43  0  0  1  0  0  0  0  0999 V2000
   38.3730   31.8440   44.5750 C   0  0  0  0  0  0  0  0  0  0  0  0
   37.3220   32.4680   44.4500 O   0  0  0  0  0  0  0  0  0  0  0  0
   38.9000   31.4970   45.8810 N   0  0  0  0  0  0  0  0  0  0  0  0
   39.8480   31.1630   46.0650 H   0  0  0  0  0  0  0  0  0  0  0  0
   39.1610   31.4120   43.3870 C   0  0  0  0  0  0  0  0  0  0  0  0
   40.1470   30.4610   43.5590 C   0  0  0  0  0  0  0  0  0  0  0  0
   40.8790   30.0880   42.4460 C   0  0  0  0  0  0  0  0  0  0  0  0
   40.5760   30.6870   41.2430 C   0  0  0  0  0  0  0  0  0  0  0  0
   39.5890   31.6370   41.0680 C   0  0  0  0  0  0  0  0  0  0  0  0
   38.9180   31.9550   42.1880 N   0  0  0  0  0  0  0  0  0  0  0  0
   40.3460   30.0110   44.5290 H   0  0  0  0  0  0  0  0  0  0  0  0
   41.6300   29.3470   42.6120 H   0  0  0  0  0  0  0  0  0  0  0  0
   41.2320   30.3260   40.4800 H   0  0  0  0  0  0  0  0  0  0  0  0
   39.2840   32.2400   39.7710 C   0  0  2  0  0  3  0  0  0  0  0  0
   38.5770   33.3160   39.7940 O   0  0  0  0  0  1  0  0  0  0  0  0
   39.6070   31.8890   38.3990 C   0  0  0  0  0  0  0  0  0  0  0  0
   39.2420   30.7470   37.7200 C   0  0  0  0  0  0  0  0  0  0  0  0
   38.6800   29.9600   38.1800 H   0  0  0  0  0  0  0  0  0  0  0  0
   39.5450   30.4790   36.4070 C   0  0  0  0  0  3  0  0  0  0  0  0
   40.2640   31.4090   35.6980 C   0  0  0  0  0  0  0  0  0  0  0  0
   40.5130   31.2100   34.6420 H   0  0  0  0  0  0  0  0  0  0  0  0
   40.6710   32.5770   36.2930 C   0  0  0  0  0  0  0  0  0  0  0  0
   41.2370   33.3440   35.7500 H   0  0  0  0  0  0  0  0  0  0  0  0
   40.3440   32.8010   37.6150 C   0  0  0  0  0  3  0  0  0  0  0  0
   38.2740   30.9290   48.2240 C   0  0  2  0  0  0  0  0  0  0  0  0
   38.6760   32.3640   48.2180 C   0  0  0  0  0  0  0  0  0  0  0  0
   38.0190   31.6360   47.0120 C   0  0  1  0  0  0  0  0  0  0  0  0
   39.1760   30.2520   48.3080 H   0  0  0  0  0  0  0  0  0  0  0  0
   39.7300   32.6430   48.1420 H   0  0  0  0  0  0  0  0  0  0  0  0
   38.0110   33.0060   48.8400 H   0  0  0  0  0  0  0  0  0  0  0  0
   36.9780   31.9930   46.8070 H   0  0  0  0  0  0  0  0  0  0  0  0
   34.8270   30.1500   49.3200 C   0  0  0  0  0  0  0  0  0  0  0  0
   35.0280   29.5790   50.6020 C   0  0  0  0  0  0  0  0  0  0  0  0
   36.3770   29.4810   51.0660 C   0  0  0  0  0  0  0  0  0  0  0  0
   37.4200   29.9300   50.2830 N   0  0  0  0  0  0  0  0  0  0  0  0
   37.1200   30.4660   49.0630 C   0  0  0  0  0  0  0  0  0  0  0  0
   35.8490   30.5880   48.5630 N   0  0  0  0  0  0  0  0  0  0  0  0
   33.8430   30.2640   48.8820 H   0  0  0  0  0  0  0  0  0  0  0  0
   34.1950   29.2520   51.1680 H   0  0  0  0  0  0  0  0  0  0  0  0
   36.5420   29.0430   52.0560 H   0  0  0  0  0  0  0  0  0  0  0  0
  1  3  1  0  0  0  0
  2  1  2  0  0  0  0
  3  4  1  0  0  0  0
  3 27  1  0  0  0  0
  5  6  1  0  0  0  0
  5  1  1  0  0  0  0
  6 11  1  0  0  0  0
  7 12  1  0  0  0  0
  7  6  2  0  0  0  0
  8  7  1  0  0  0  0
  9  8  2  0  0  0  0
  9 10  1  0  0  0  0
 10  5  2  0  0  0  0
 13  8  1  0  0  0  0
 14 15  1  6  0  0  0
 14  9  1  0  0  0  0
 16 14  1  0  0  0  0
 17 18  1  0  0  0  0
 17 16  1  0  0  0  0
 19 17  2  0  0  0  0
 20 22  2  0  0  0  0
 20 19  1  0  0  0  0
 21 20  1  0  0  0  0
 22 24  1  0  0  0  0
 23 22  1  0  0  0  0
 24 16  2  0  0  0  0
 25 28  1  6  0  0  0
 25 36  1  0  0  0  0
 26 25  1  0  0  0  0
 26 30  1  0  0  0  0
 27 31  1  6  0  0  0
 27 26  1  0  0  0  0
 27 25  1  0  0  0  0
 29 26  1  0  0  0  0
 32 33  1  0  0  0  0
 33 34  2  0  0  0  0
 33 39  1  0  0  0  0
 34 40  1  0  0  0  0
 35 34  1  0  0  0  0
 36 35  2  0  0  0  0
 37 36  1  0  0  0  0
 37 32  2  0  0  0  0
 38 32  1  0  0  0  0
M  END
>  <minimizedAffinity>
-4.92737341

>  <minimizedRMSD>
0.750238419

$$$$
