
 OpenBabel03272508583D

 40 43  0  0  1  0  0  0  0  0999 V2000
   38.3550   31.8860   44.5090 C   0  0  0  0  0  0  0  0  0  0  0  0
   37.2710   32.4540   44.4000 O   0  0  0  0  0  0  0  0  0  0  0  0
   38.9280   31.5850   45.8070 N   0  0  0  0  0  0  0  0  0  0  0  0
   39.8950   31.3020   45.9730 H   0  0  0  0  0  0  0  0  0  0  0  0
   39.1370   31.4760   43.3100 C   0  0  0  0  0  0  0  0  0  0  0  0
   40.1280   30.5280   43.4600 C   0  0  0  0  0  0  0  0  0  0  0  0
   40.8550   30.1750   42.3370 C   0  0  0  0  0  0  0  0  0  0  0  0
   40.5400   30.7910   41.1440 C   0  0  0  0  0  0  0  0  0  0  0  0
   39.5470   31.7380   40.9910 C   0  0  0  0  0  0  0  0  0  0  0  0
   38.8820   32.0350   42.1200 N   0  0  0  0  0  0  0  0  0  0  0  0
   40.3360   30.0640   44.4220 H   0  0  0  0  0  0  0  0  0  0  0  0
   41.6100   29.4350   42.4860 H   0  0  0  0  0  0  0  0  0  0  0  0
   41.1930   30.4450   40.3720 H   0  0  0  0  0  0  0  0  0  0  0  0
   39.2300   32.3590   39.7050 C   0  0  2  0  0  3  0  0  0  0  0  0
   38.6150   33.4890   39.7540 O   0  0  0  0  0  1  0  0  0  0  0  0
   39.4560   31.9770   38.3220 C   0  0  0  0  0  0  0  0  0  0  0  0
   38.8030   30.9940   37.6110 C   0  0  0  0  0  0  0  0  0  0  0  0
   38.0490   30.3720   38.0470 H   0  0  0  0  0  0  0  0  0  0  0  0
   39.0330   30.6940   36.2890 C   0  0  0  0  0  3  0  0  0  0  0  0
   39.9780   31.4200   35.6060 C   0  0  0  0  0  0  0  0  0  0  0  0
   40.1710   31.1920   34.5440 H   0  0  0  0  0  0  0  0  0  0  0  0
   40.6770   32.4180   36.2360 C   0  0  0  0  0  0  0  0  0  0  0  0
   41.4320   33.0220   35.7160 H   0  0  0  0  0  0  0  0  0  0  0  0
   40.4140   32.6810   37.5650 C   0  0  0  0  0  3  0  0  0  0  0  0
   38.4230   31.0860   48.1950 C   0  0  2  0  0  0  0  0  0  0  0  0
   38.6770   32.5510   48.1020 C   0  0  0  0  0  0  0  0  0  0  0  0
   38.0670   31.6970   46.9560 C   0  0  1  0  0  0  0  0  0  0  0  0
   39.3900   30.5090   48.2850 H   0  0  0  0  0  0  0  0  0  0  0  0
   39.6950   32.9300   47.9790 H   0  0  0  0  0  0  0  0  0  0  0  0
   37.9670   33.1570   48.7100 H   0  0  0  0  0  0  0  0  0  0  0  0
   36.9890   31.9370   46.7660 H   0  0  0  0  0  0  0  0  0  0  0  0
   35.0800   30.2300   49.5280 C   0  0  0  0  0  0  0  0  0  0  0  0
   35.3880   29.5480   50.7320 C   0  0  0  0  0  0  0  0  0  0  0  0
   36.7720   29.4040   51.0620 C   0  0  0  0  0  0  0  0  0  0  0  0
   37.7460   29.9150   50.2280 N   0  0  0  0  0  0  0  0  0  0  0  0
   37.3430   30.5570   49.0920 C   0  0  0  0  0  0  0  0  0  0  0  0
   36.0340   30.7270   48.7210 N   0  0  0  0  0  0  0  0  0  0  0  0
   34.0610   30.3860   49.1920 H   0  0  0  0  0  0  0  0  0  0  0  0
   34.6060   29.1770   51.3410 H   0  0  0  0  0  0  0  0  0  0  0  0
   37.0200   28.8810   51.9910 H   0  0  0  0  0  0  0  0  0  0  0  0
  1  3  1  0  0  0  0
  2  1  2  0  0  0  0
  3  4  1  0  0  0  0
  3 27  1  0  0  0  0
  5  6  1  0  0  0  0
  5  1  1  0  0  0  0
  6 11  1  0  0  0  0
  7 12  1  0  0  0  0
  7  6  2  0  0  0  0
  8  7  1  0  0  0  0
  9  8  2  0  0  0  0
  9 10  1  0  0  0  0
 10  5  2  0  0  0  0
 13  8  1  0  0  0  0
 14 15  1  6  0  0  0
 14  9  1  0  0  0  0
 16 14  1  0  0  0  0
 17 18  1  0  0  0  0
 17 16  1  0  0  0  0
 19 17  2  0  0  0  0
 20 22  2  0  0  0  0
 20 19  1  0  0  0  0
 21 20  1  0  0  0  0
 22 24  1  0  0  0  0
 23 22  1  0  0  0  0
 24 16  2  0  0  0  0
 25 28  1  6  0  0  0
 25 36  1  0  0  0  0
 26 25  1  0  0  0  0
 26 30  1  0  0  0  0
 27 31  1  6  0  0  0
 27 26  1  0  0  0  0
 27 25  1  0  0  0  0
 29 26  1  0  0  0  0
 32 33  1  0  0  0  0
 33 34  2  0  0  0  0
 33 39  1  0  0  0  0
 34 40  1  0  0  0  0
 35 34  1  0  0  0  0
 36 35  2  0  0  0  0
 37 36  1  0  0  0  0
 37 32  2  0  0  0  0
 38 32  1  0  0  0  0
M  END
>  <minimizedAffinity>
-4.92465115

>  <minimizedRMSD>
0.754766822

$$$$
