
 OpenBabel03272508573D

 40 43  0  0  1  0  0  0  0  0999 V2000
   38.3540   31.8920   44.5000 C   0  0  0  0  0  0  0  0  0  0  0  0
   37.2690   32.4580   44.3930 O   0  0  0  0  0  0  0  0  0  0  0  0
   38.9300   31.5930   45.7980 N   0  0  0  0  0  0  0  0  0  0  0  0
   39.8980   31.3120   45.9630 H   0  0  0  0  0  0  0  0  0  0  0  0
   39.1350   31.4830   43.3000 C   0  0  0  0  0  0  0  0  0  0  0  0
   40.1320   30.5400   43.4500 C   0  0  0  0  0  0  0  0  0  0  0  0
   40.8570   30.1870   42.3260 C   0  0  0  0  0  0  0  0  0  0  0  0
   40.5360   30.7990   41.1330 C   0  0  0  0  0  0  0  0  0  0  0  0
   39.5380   31.7420   40.9800 C   0  0  0  0  0  0  0  0  0  0  0  0
   38.8750   32.0380   42.1100 N   0  0  0  0  0  0  0  0  0  0  0  0
   40.3440   30.0790   44.4130 H   0  0  0  0  0  0  0  0  0  0  0  0
   41.6160   29.4510   42.4750 H   0  0  0  0  0  0  0  0  0  0  0  0
   41.1890   30.4540   40.3590 H   0  0  0  0  0  0  0  0  0  0  0  0
   39.2150   32.3580   39.6930 C   0  0  2  0  0  3  0  0  0  0  0  0
   38.6470   33.5120   39.7410 O   0  0  0  0  0  1  0  0  0  0  0  0
   39.3940   31.9500   38.3110 C   0  0  0  0  0  0  0  0  0  0  0  0
   38.5320   31.1920   37.5470 C   0  0  0  0  0  0  0  0  0  0  0  0
   37.6190   30.7920   37.9350 H   0  0  0  0  0  0  0  0  0  0  0  0
   38.7330   30.8620   36.2280 C   0  0  0  0  0  3  0  0  0  0  0  0
   39.8690   31.3140   35.6030 C   0  0  0  0  0  0  0  0  0  0  0  0
   40.0430   31.0590   34.5440 H   0  0  0  0  0  0  0  0  0  0  0  0
   40.7830   32.0750   36.2890 C   0  0  0  0  0  0  0  0  0  0  0  0
   41.6960   32.4590   35.8150 H   0  0  0  0  0  0  0  0  0  0  0  0
   40.5400   32.3790   37.6110 C   0  0  0  0  0  3  0  0  0  0  0  0
   38.4270   31.0880   48.1840 C   0  0  2  0  0  0  0  0  0  0  0  0
   38.6840   32.5530   48.0950 C   0  0  0  0  0  0  0  0  0  0  0  0
   38.0710   31.7040   46.9480 C   0  0  1  0  0  0  0  0  0  0  0  0
   39.3920   30.5080   48.2720 H   0  0  0  0  0  0  0  0  0  0  0  0
   39.7030   32.9290   47.9720 H   0  0  0  0  0  0  0  0  0  0  0  0
   37.9770   33.1590   48.7070 H   0  0  0  0  0  0  0  0  0  0  0  0
   36.9940   31.9470   46.7590 H   0  0  0  0  0  0  0  0  0  0  0  0
   35.0830   30.2330   49.5170 C   0  0  0  0  0  0  0  0  0  0  0  0
   35.3900   29.5510   50.7200 C   0  0  0  0  0  0  0  0  0  0  0  0
   36.7750   29.4070   51.0510 C   0  0  0  0  0  0  0  0  0  0  0  0
   37.7480   29.9180   50.2180 N   0  0  0  0  0  0  0  0  0  0  0  0
   37.3470   30.5600   49.0820 C   0  0  0  0  0  0  0  0  0  0  0  0
   36.0370   30.7310   48.7110 N   0  0  0  0  0  0  0  0  0  0  0  0
   34.0640   30.3900   49.1810 H   0  0  0  0  0  0  0  0  0  0  0  0
   34.6080   29.1800   51.3300 H   0  0  0  0  0  0  0  0  0  0  0  0
   37.0220   28.8830   51.9800 H   0  0  0  0  0  0  0  0  0  0  0  0
  1  3  1  0  0  0  0
  2  1  2  0  0  0  0
  3  4  1  0  0  0  0
  3 27  1  0  0  0  0
  5  6  1  0  0  0  0
  5  1  1  0  0  0  0
  6 11  1  0  0  0  0
  7 12  1  0  0  0  0
  7  6  2  0  0  0  0
  8  7  1  0  0  0  0
  9  8  2  0  0  0  0
  9 10  1  0  0  0  0
 10  5  2  0  0  0  0
 13  8  1  0  0  0  0
 14 15  1  1  0  0  0
 14  9  1  0  0  0  0
 16 14  1  0  0  0  0
 17 18  1  0  0  0  0
 17 16  2  0  0  0  0
 19 17  1  0  0  0  0
 20 19  2  0  0  0  0
 20 22  1  0  0  0  0
 21 20  1  0  0  0  0
 22 24  2  0  0  0  0
 23 22  1  0  0  0  0
 24 16  1  0  0  0  0
 25 28  1  6  0  0  0
 25 36  1  0  0  0  0
 26 25  1  0  0  0  0
 26 30  1  0  0  0  0
 27 31  1  6  0  0  0
 27 26  1  0  0  0  0
 27 25  1  0  0  0  0
 29 26  1  0  0  0  0
 32 33  1  0  0  0  0
 33 34  2  0  0  0  0
 33 39  1  0  0  0  0
 34 40  1  0  0  0  0
 35 34  1  0  0  0  0
 36 35  2  0  0  0  0
 37 36  1  0  0  0  0
 37 32  2  0  0  0  0
 38 32  1  0  0  0  0
M  END
>  <minimizedAffinity>
-4.92602921

>  <minimizedRMSD>
0.495577842

$$$$
