
 OpenBabel03272508583D

 40 43  0  0  1  0  0  0  0  0999 V2000
   38.3580   31.8760   44.5170 C   0  0  0  0  0  0  0  0  0  0  0  0
   37.2760   32.4460   44.4050 O   0  0  0  0  0  0  0  0  0  0  0  0
   38.9290   31.5760   45.8160 N   0  0  0  0  0  0  0  0  0  0  0  0
   39.8950   31.2920   45.9850 H   0  0  0  0  0  0  0  0  0  0  0  0
   39.1420   31.4640   43.3190 C   0  0  0  0  0  0  0  0  0  0  0  0
   40.1320   30.5150   43.4720 C   0  0  0  0  0  0  0  0  0  0  0  0
   40.8600   30.1600   42.3510 C   0  0  0  0  0  0  0  0  0  0  0  0
   40.5490   30.7760   41.1580 C   0  0  0  0  0  0  0  0  0  0  0  0
   39.5580   31.7250   41.0020 C   0  0  0  0  0  0  0  0  0  0  0  0
   38.8910   32.0240   42.1290 N   0  0  0  0  0  0  0  0  0  0  0  0
   40.3370   30.0510   44.4350 H   0  0  0  0  0  0  0  0  0  0  0  0
   41.6140   29.4190   42.5020 H   0  0  0  0  0  0  0  0  0  0  0  0
   41.2030   30.4280   40.3860 H   0  0  0  0  0  0  0  0  0  0  0  0
   39.2450   32.3450   39.7140 C   0  0  2  0  0  3  0  0  0  0  0  0
   38.5820   33.4480   39.7590 O   0  0  0  0  0  1  0  0  0  0  0  0
   39.5200   31.9890   38.3340 C   0  0  0  0  0  0  0  0  0  0  0  0
   39.0660   30.8810   37.6520 C   0  0  0  0  0  0  0  0  0  0  0  0
   38.4600   30.1290   38.1130 H   0  0  0  0  0  0  0  0  0  0  0  0
   39.3280   30.6080   36.3300 C   0  0  0  0  0  3  0  0  0  0  0  0
   40.0960   31.4940   35.6160 C   0  0  0  0  0  0  0  0  0  0  0  0
   40.3120   31.2890   34.5550 H   0  0  0  0  0  0  0  0  0  0  0  0
   40.5900   32.6250   36.2160 C   0  0  0  0  0  0  0  0  0  0  0  0
   41.1990   33.3580   35.6700 H   0  0  0  0  0  0  0  0  0  0  0  0
   40.3030   32.8560   37.5450 C   0  0  0  0  0  3  0  0  0  0  0  0
   38.4200   31.0840   48.2040 C   0  0  2  0  0  0  0  0  0  0  0  0
   38.6720   32.5490   48.1070 C   0  0  0  0  0  0  0  0  0  0  0  0
   38.0650   31.6910   46.9630 C   0  0  1  0  0  0  0  0  0  0  0  0
   39.3880   30.5090   48.2980 H   0  0  0  0  0  0  0  0  0  0  0  0
   39.6890   32.9290   47.9850 H   0  0  0  0  0  0  0  0  0  0  0  0
   37.9600   33.1560   48.7130 H   0  0  0  0  0  0  0  0  0  0  0  0
   36.9880   31.9280   46.7700 H   0  0  0  0  0  0  0  0  0  0  0  0
   35.0760   30.2290   49.5360 C   0  0  0  0  0  0  0  0  0  0  0  0
   35.3830   29.5490   50.7410 C   0  0  0  0  0  0  0  0  0  0  0  0
   36.7670   29.4050   51.0720 C   0  0  0  0  0  0  0  0  0  0  0  0
   37.7410   29.9160   50.2390 N   0  0  0  0  0  0  0  0  0  0  0  0
   37.3400   30.5560   49.1020 C   0  0  0  0  0  0  0  0  0  0  0  0
   36.0310   30.7250   48.7290 N   0  0  0  0  0  0  0  0  0  0  0  0
   34.0580   30.3840   49.1990 H   0  0  0  0  0  0  0  0  0  0  0  0
   34.6010   29.1780   51.3500 H   0  0  0  0  0  0  0  0  0  0  0  0
   37.0140   28.8840   52.0020 H   0  0  0  0  0  0  0  0  0  0  0  0
  1  3  1  0  0  0  0
  2  1  2  0  0  0  0
  3  4  1  0  0  0  0
  3 27  1  0  0  0  0
  5  6  1  0  0  0  0
  5  1  1  0  0  0  0
  6 11  1  0  0  0  0
  7 12  1  0  0  0  0
  7  6  2  0  0  0  0
  8  7  1  0  0  0  0
  9  8  2  0  0  0  0
  9 10  1  0  0  0  0
 10  5  2  0  0  0  0
 13  8  1  0  0  0  0
 14 15  1  6  0  0  0
 14  9  1  0  0  0  0
 16 14  1  0  0  0  0
 17 18  1  0  0  0  0
 17 16  1  0  0  0  0
 19 17  2  0  0  0  0
 20 22  2  0  0  0  0
 20 19  1  0  0  0  0
 21 20  1  0  0  0  0
 22 24  1  0  0  0  0
 23 22  1  0  0  0  0
 24 16  2  0  0  0  0
 25 28  1  6  0  0  0
 25 36  1  0  0  0  0
 26 25  1  0  0  0  0
 26 30  1  0  0  0  0
 27 31  1  6  0  0  0
 27 26  1  0  0  0  0
 27 25  1  0  0  0  0
 29 26  1  0  0  0  0
 32 33  1  0  0  0  0
 33 34  2  0  0  0  0
 33 39  1  0  0  0  0
 34 40  1  0  0  0  0
 35 34  1  0  0  0  0
 36 35  2  0  0  0  0
 37 36  1  0  0  0  0
 37 32  2  0  0  0  0
 38 32  1  0  0  0  0
M  END
>  <minimizedAffinity>
-4.93368435

>  <minimizedRMSD>
0.561967134

$$$$
