
 OpenBabel03272507313D

 29 31  0  0  0  0  0  0  0  0999 V2000
   35.8820   29.2570   49.7550 C   0  0  0  0  0  0  0  0  0  0  0  0
   34.8910   29.8280   50.4820 C   0  0  0  0  0  0  0  0  0  0  0  0
   33.6770   29.2690   50.0540 C   0  0  0  0  0  0  0  0  0  0  0  0
   34.0270   28.3590   49.0540 C   0  0  0  0  0  0  0  0  0  0  0  0
   35.3100   28.4220   48.9540 O   0  0  0  0  0  0  0  0  0  0  0  0
   34.8480   30.5740   51.2700 H   0  0  0  0  0  0  0  0  0  0  0  0
   32.6790   29.4570   50.3800 H   0  0  0  0  0  0  0  0  0  0  0  0
   37.2800   29.5930   49.9270 C   0  0  0  0  0  0  0  0  0  0  0  0
   37.9360   29.0190   50.8000 O   0  0  0  0  0  0  0  0  0  0  0  0
   37.8290   30.6090   49.0370 C   0  0  0  0  0  0  0  0  0  0  0  0
   38.1780   31.8260   49.6150 C   0  0  0  0  0  0  0  0  0  0  0  0
   38.7030   32.8210   48.8080 C   0  0  0  0  0  0  0  0  0  0  0  0
   38.8530   32.5610   47.4770 N   0  0  0  0  0  0  0  0  0  0  0  0
   38.5090   31.3800   46.9440 C   0  0  0  0  0  0  0  0  0  0  0  0
   38.0020   30.4150   47.7200 N   0  0  0  0  0  0  0  0  0  0  0  0
   38.0700   32.0600   50.6710 H   0  0  0  0  0  0  0  0  0  0  0  0
   38.9980   33.7930   49.1810 H   0  0  0  0  0  0  0  0  0  0  0  0
   38.6020   31.1130   45.9000 H   0  0  0  0  0  0  0  0  0  0  0  0
   33.0810   27.5200   48.2970 C   0  0  0  0  0  0  0  0  0  0  0  0
   31.8670   27.5240   48.6350 O   0  0  0  0  0  0  0  0  0  0  0  0
   33.5370   26.7150   47.1970 C   0  0  0  0  0  0  0  0  0  0  0  0
   33.6870   27.2340   45.9230 C   0  0  0  0  0  0  0  0  0  0  0  0
   33.4620   28.2670   45.7120 H   0  0  0  0  0  0  0  0  0  0  0  0
   34.1270   26.4380   44.8900 C   0  0  0  0  0  3  0  0  0  0  0  0
   34.4420   25.1060   45.0480 C   0  0  0  0  0  0  0  0  0  0  0  0
   34.7890   24.4600   44.2510 H   0  0  0  0  0  0  0  0  0  0  0  0
   34.3020   24.5590   46.3120 C   0  0  0  0  0  0  0  0  0  0  0  0
   34.5430   23.5220   46.4470 H   0  0  0  0  0  0  0  0  0  0  0  0
   33.8600   25.3670   47.3330 C   0  0  0  0  0  3  0  0  0  0  0  0
  1  8  1  0  0  0  0
  1  2  2  0  0  0  0
  2  6  1  0  0  0  0
  3  7  1  0  0  0  0
  3  2  1  0  0  0  0
  4  3  2  0  0  0  0
  5  4  1  0  0  0  0
  5  1  1  0  0  0  0
  8  9  2  0  0  0  0
 10 11  1  0  0  0  0
 10  8  1  0  0  0  0
 11 16  1  0  0  0  0
 12 17  1  0  0  0  0
 12 11  2  0  0  0  0
 13 12  1  0  0  0  0
 14 13  2  0  0  0  0
 14 15  1  0  0  0  0
 15 10  2  0  0  0  0
 18 14  1  0  0  0  0
 19 20  2  0  0  0  0
 19  4  1  0  0  0  0
 21 29  1  0  0  0  0
 21 19  1  0  0  0  0
 22 21  2  0  0  0  0
 23 22  1  0  0  0  0
 24 25  2  0  0  0  0
 24 22  1  0  0  0  0
 25 27  1  0  0  0  0
 26 25  1  0  0  0  0
 27 28  1  0  0  0  0
 27 29  2  0  0  0  0
M  END
>  <minimizedAffinity>
-5.4624157

>  <minimizedRMSD>
1.13133192

$$$$
