
 OpenBabel03272507423D

 41 44  0  0  0  0  0  0  0  0999 V2000
   36.7600   31.2010   50.0960 C   0  0  0  0  0  0  0  0  0  0  0  0
   35.7240   30.2980   49.8550 C   0  0  0  0  0  0  0  0  0  0  0  0
   35.5500   29.1730   50.6420 C   0  0  0  0  0  0  0  0  0  0  0  0
   36.4320   28.9860   51.6620 N   0  0  0  0  0  0  0  0  0  0  0  0
   37.4410   29.8750   51.8870 C   0  0  0  0  0  0  0  0  0  0  0  0
   37.5820   30.9440   51.1160 N   0  0  0  0  0  0  0  0  0  0  0  0
   34.7750   28.4320   50.5170 H   0  0  0  0  0  0  0  0  0  0  0  0
   38.1590   29.7490   52.6950 H   0  0  0  0  0  0  0  0  0  0  0  0
   34.3200   29.2450   48.1300 C   0  0  0  0  0  0  0  0  0  0  0  0
   34.7190   28.0190   48.1540 O   0  0  0  0  0  0  0  0  0  0  0  0
   34.7720   30.3840   48.8340 N   0  0  0  0  0  0  0  0  0  0  0  0
   34.4860   31.3690   48.7010 H   0  0  0  0  0  0  0  0  0  0  0  0
   33.2050   29.4330   47.2010 C   0  0  0  0  0  0  0  0  0  0  0  0
   33.0640   30.5270   46.3730 C   0  0  0  0  0  0  0  0  0  0  0  0
   33.7970   31.3190   46.3790 H   0  0  0  0  0  0  0  0  0  0  0  0
   32.0270   30.7240   45.4920 C   0  0  0  0  0  3  0  0  0  0  0  0
   31.0400   29.7760   45.4090 C   0  0  0  0  0  0  0  0  0  0  0  0
   30.2040   29.8790   44.7350 H   0  0  0  0  0  0  0  0  0  0  0  0
   31.1050   28.6510   46.2010 C   0  0  0  0  0  0  0  0  0  0  0  0
   30.3310   27.8980   46.1410 H   0  0  0  0  0  0  0  0  0  0  0  0
   32.1670   28.5370   47.0440 C   0  0  0  0  0  3  0  0  0  0  0  0
   36.7650   32.2310   49.2270 O   0  0  0  0  0  0  0  0  0  0  0  0
   38.2370   32.2260   47.2420 C   0  0  0  0  0  0  0  0  0  0  0  0
   37.8660   32.6530   48.5130 C   0  0  0  0  0  0  0  0  0  0  0  0
   38.6330   33.5920   49.1750 C   0  0  0  0  0  0  0  0  0  0  0  0
   39.7720   34.1090   48.5780 C   0  0  0  0  0  0  0  0  0  0  0  0
   40.1360   33.6760   47.3090 C   0  0  0  0  0  0  0  0  0  0  0  0
   39.3530   32.7450   46.6790 C   0  0  0  0  0  0  0  0  0  0  0  0
   38.4030   33.9680   50.1620 H   0  0  0  0  0  0  0  0  0  0  0  0
   40.3930   34.8470   49.0760 H   0  0  0  0  0  0  0  0  0  0  0  0
   41.0220   34.0680   46.8240 H   0  0  0  0  0  0  0  0  0  0  0  0
   39.7530   32.2910   45.3230 C   0  0  0  0  0  0  0  0  0  0  0  0
   40.5860   31.2560   44.9560 C   0  0  0  0  0  0  0  0  0  0  0  0
   40.6370   31.2430   43.5650 C   0  0  0  0  0  0  0  0  0  0  0  0
   39.8210   32.2870   43.1650 C   0  0  0  0  0  0  0  0  0  0  0  0
   39.3110   32.8900   44.2260 O   0  0  0  0  0  0  0  0  0  0  0  0
   41.0580   30.6310   45.6960 H   0  0  0  0  0  0  0  0  0  0  0  0
   41.2230   30.5240   43.0290 H   0  0  0  0  0  0  0  0  0  0  0  0
   39.6570   32.5360   42.1150 H   0  0  0  0  0  0  0  0  0  0  0  0
   36.7290   30.4760   46.1020 N   0  0  0  0  0  0  0  0  0  0  0  0
   37.3980   31.2570   46.6210 C   0  0  0  0  0  0  0  0  0  0  0  0
  1  6  1  0  0  0  0
  2  1  2  0  0  0  0
  2  3  1  0  0  0  0
  3  4  2  0  0  0  0
  4  5  1  0  0  0  0
  5  8  1  0  0  0  0
  6  5  2  0  0  0  0
  7  3  1  0  0  0  0
  9 10  2  0  0  0  0
  9 11  1  0  0  0  0
 11  2  1  0  0  0  0
 12 11  1  0  0  0  0
 13  9  1  0  0  0  0
 14 15  1  0  0  0  0
 14 13  2  0  0  0  0
 16 14  1  0  0  0  0
 17 16  2  0  0  0  0
 17 19  1  0  0  0  0
 18 17  1  0  0  0  0
 19 21  2  0  0  0  0
 20 19  1  0  0  0  0
 21 13  1  0  0  0  0
 22  1  1  0  0  0  0
 23 24  1  0  0  0  0
 24 25  2  0  0  0  0
 24 22  1  0  0  0  0
 25 29  1  0  0  0  0
 26 30  1  0  0  0  0
 26 25  1  0  0  0  0
 27 26  2  0  0  0  0
 28 23  2  0  0  0  0
 28 27  1  0  0  0  0
 31 27  1  0  0  0  0
 32 28  1  0  0  0  0
 33 32  2  0  0  0  0
 33 37  1  0  0  0  0
 34 33  1  0  0  0  0
 35 34  2  0  0  0  0
 35 36  1  0  0  0  0
 36 32  1  0  0  0  0
 38 34  1  0  0  0  0
 39 35  1  0  0  0  0
 40 41  3  0  0  0  0
 41 23  1  0  0  0  0
M  END
>  <minimizedAffinity>
-6.12377071

>  <minimizedRMSD>
0.660178065

$$$$
