
 OpenBabel03272507423D

 41 44  0  0  0  0  0  0  0  0999 V2000
   36.7720   31.2140   50.0450 C   0  0  0  0  0  0  0  0  0  0  0  0
   35.7290   30.3160   49.8190 C   0  0  0  0  0  0  0  0  0  0  0  0
   35.5500   29.2020   50.6200 C   0  0  0  0  0  0  0  0  0  0  0  0
   36.4340   29.0210   51.6390 N   0  0  0  0  0  0  0  0  0  0  0  0
   37.4510   29.9050   51.8490 C   0  0  0  0  0  0  0  0  0  0  0  0
   37.5960   30.9640   51.0640 N   0  0  0  0  0  0  0  0  0  0  0  0
   34.7680   28.4660   50.5080 H   0  0  0  0  0  0  0  0  0  0  0  0
   38.1710   29.7830   52.6550 H   0  0  0  0  0  0  0  0  0  0  0  0
   34.3170   29.2530   48.1060 C   0  0  0  0  0  0  0  0  0  0  0  0
   34.7150   28.0270   48.1360 O   0  0  0  0  0  0  0  0  0  0  0  0
   34.7730   30.3970   48.8010 N   0  0  0  0  0  0  0  0  0  0  0  0
   34.4870   31.3810   48.6630 H   0  0  0  0  0  0  0  0  0  0  0  0
   33.1990   29.4360   47.1800 C   0  0  0  0  0  0  0  0  0  0  0  0
   33.0520   30.5280   46.3510 C   0  0  0  0  0  0  0  0  0  0  0  0
   33.7820   31.3240   46.3540 H   0  0  0  0  0  0  0  0  0  0  0  0
   32.0110   30.7220   45.4730 C   0  0  0  0  0  3  0  0  0  0  0  0
   31.0280   29.7690   45.3930 C   0  0  0  0  0  0  0  0  0  0  0  0
   30.1900   29.8700   44.7220 H   0  0  0  0  0  0  0  0  0  0  0  0
   31.1000   28.6460   46.1860 C   0  0  0  0  0  0  0  0  0  0  0  0
   30.3270   27.8890   46.1280 H   0  0  0  0  0  0  0  0  0  0  0  0
   32.1630   28.5370   47.0260 C   0  0  0  0  0  3  0  0  0  0  0  0
   36.7810   32.2330   49.1630 O   0  0  0  0  0  0  0  0  0  0  0  0
   38.2450   32.2060   47.1720 C   0  0  0  0  0  0  0  0  0  0  0  0
   37.8840   32.6420   48.4430 C   0  0  0  0  0  0  0  0  0  0  0  0
   38.6620   33.5750   49.0980 C   0  0  0  0  0  0  0  0  0  0  0  0
   39.8040   34.0780   48.4950 C   0  0  0  0  0  0  0  0  0  0  0  0
   40.1590   33.6370   47.2260 C   0  0  0  0  0  0  0  0  0  0  0  0
   39.3640   32.7110   46.6030 C   0  0  0  0  0  0  0  0  0  0  0  0
   38.4400   33.9570   50.0850 H   0  0  0  0  0  0  0  0  0  0  0  0
   40.4340   34.8130   48.9880 H   0  0  0  0  0  0  0  0  0  0  0  0
   41.0460   34.0180   46.7370 H   0  0  0  0  0  0  0  0  0  0  0  0
   39.7550   32.2480   45.2470 C   0  0  0  0  0  0  0  0  0  0  0  0
   40.5960   31.2200   44.8810 C   0  0  0  0  0  0  0  0  0  0  0  0
   40.6320   31.1930   43.4900 C   0  0  0  0  0  0  0  0  0  0  0  0
   39.7980   32.2220   43.0890 C   0  0  0  0  0  0  0  0  0  0  0  0
   39.2920   32.8300   44.1490 O   0  0  0  0  0  0  0  0  0  0  0  0
   41.0850   30.6090   45.6220 H   0  0  0  0  0  0  0  0  0  0  0  0
   41.2210   30.4750   42.9550 H   0  0  0  0  0  0  0  0  0  0  0  0
   39.6180   32.4580   42.0380 H   0  0  0  0  0  0  0  0  0  0  0  0
   36.7160   30.4660   46.0450 N   0  0  0  0  0  0  0  0  0  0  0  0
   37.3940   31.2420   46.5580 C   0  0  0  0  0  0  0  0  0  0  0  0
  1  6  1  0  0  0  0
  2  1  2  0  0  0  0
  2  3  1  0  0  0  0
  3  4  2  0  0  0  0
  4  5  1  0  0  0  0
  5  8  1  0  0  0  0
  6  5  2  0  0  0  0
  7  3  1  0  0  0  0
  9 10  2  0  0  0  0
  9 11  1  0  0  0  0
 11  2  1  0  0  0  0
 12 11  1  0  0  0  0
 13  9  1  0  0  0  0
 14 15  1  0  0  0  0
 14 13  2  0  0  0  0
 16 14  1  0  0  0  0
 17 16  2  0  0  0  0
 17 19  1  0  0  0  0
 18 17  1  0  0  0  0
 19 21  2  0  0  0  0
 20 19  1  0  0  0  0
 21 13  1  0  0  0  0
 22  1  1  0  0  0  0
 23 24  1  0  0  0  0
 24 25  2  0  0  0  0
 24 22  1  0  0  0  0
 25 29  1  0  0  0  0
 26 30  1  0  0  0  0
 26 25  1  0  0  0  0
 27 26  2  0  0  0  0
 28 23  2  0  0  0  0
 28 27  1  0  0  0  0
 31 27  1  0  0  0  0
 32 28  1  0  0  0  0
 33 32  2  0  0  0  0
 33 37  1  0  0  0  0
 34 33  1  0  0  0  0
 35 34  2  0  0  0  0
 35 36  1  0  0  0  0
 36 32  1  0  0  0  0
 38 34  1  0  0  0  0
 39 35  1  0  0  0  0
 40 41  3  0  0  0  0
 41 23  1  0  0  0  0
M  END
>  <minimizedAffinity>
-6.11369228

>  <minimizedRMSD>
0.550831556

$$$$
