
 OpenBabel03272507423D

 41 44  0  0  0  0  0  0  0  0999 V2000
   36.6340   31.1780   50.0780 C   0  0  0  0  0  0  0  0  0  0  0  0
   35.5620   30.3130   49.8580 C   0  0  0  0  0  0  0  0  0  0  0  0
   35.3590   29.2000   50.6540 C   0  0  0  0  0  0  0  0  0  0  0  0
   36.2490   28.9850   51.6610 N   0  0  0  0  0  0  0  0  0  0  0  0
   37.2940   29.8370   51.8650 C   0  0  0  0  0  0  0  0  0  0  0  0
   37.4620   30.8960   51.0850 N   0  0  0  0  0  0  0  0  0  0  0  0
   34.5540   28.4880   50.5460 H   0  0  0  0  0  0  0  0  0  0  0  0
   38.0200   29.6880   52.6620 H   0  0  0  0  0  0  0  0  0  0  0  0
   34.2360   29.3400   48.0270 C   0  0  0  0  0  0  0  0  0  0  0  0
   34.7380   28.1570   47.9160 O   0  0  0  0  0  0  0  0  0  0  0  0
   34.5970   30.4300   48.8520 N   0  0  0  0  0  0  0  0  0  0  0  0
   34.2280   31.3960   48.8280 H   0  0  0  0  0  0  0  0  0  0  0  0
   33.1020   29.5330   47.1230 C   0  0  0  0  0  0  0  0  0  0  0  0
   32.9260   30.6480   46.3300 C   0  0  0  0  0  0  0  0  0  0  0  0
   33.6450   31.4540   46.3460 H   0  0  0  0  0  0  0  0  0  0  0  0
   31.8700   30.8510   45.4730 C   0  0  0  0  0  3  0  0  0  0  0  0
   30.9000   29.8870   45.3790 C   0  0  0  0  0  0  0  0  0  0  0  0
   30.0510   29.9950   44.7230 H   0  0  0  0  0  0  0  0  0  0  0  0
   30.9990   28.7420   46.1370 C   0  0  0  0  0  0  0  0  0  0  0  0
   30.2380   27.9750   46.0690 H   0  0  0  0  0  0  0  0  0  0  0  0
   32.0780   28.6240   46.9580 C   0  0  0  0  0  3  0  0  0  0  0  0
   36.6630   32.2020   49.2030 O   0  0  0  0  0  0  0  0  0  0  0  0
   38.1740   32.1790   47.2470 C   0  0  0  0  0  0  0  0  0  0  0  0
   37.7820   32.6140   48.5090 C   0  0  0  0  0  0  0  0  0  0  0  0
   38.5430   33.5490   49.1820 C   0  0  0  0  0  0  0  0  0  0  0  0
   39.6970   34.0540   48.6060 C   0  0  0  0  0  0  0  0  0  0  0  0
   40.0830   33.6140   47.3460 C   0  0  0  0  0  0  0  0  0  0  0  0
   39.3050   32.6870   46.7040 C   0  0  0  0  0  0  0  0  0  0  0  0
   38.2970   33.9300   50.1640 H   0  0  0  0  0  0  0  0  0  0  0  0
   40.3140   34.7900   49.1130 H   0  0  0  0  0  0  0  0  0  0  0  0
   40.9810   33.9970   46.8770 H   0  0  0  0  0  0  0  0  0  0  0  0
   39.7280   32.2250   45.3580 C   0  0  0  0  0  0  0  0  0  0  0  0
   40.5760   31.1960   45.0110 C   0  0  0  0  0  0  0  0  0  0  0  0
   40.6460   31.1710   43.6210 C   0  0  0  0  0  0  0  0  0  0  0  0
   39.8240   32.2010   43.2010 C   0  0  0  0  0  0  0  0  0  0  0  0
   39.2930   32.8090   44.2490 O   0  0  0  0  0  0  0  0  0  0  0  0
   41.0460   30.5830   45.7630 H   0  0  0  0  0  0  0  0  0  0  0  0
   41.2470   30.4530   43.0990 H   0  0  0  0  0  0  0  0  0  0  0  0
   39.6700   32.4390   42.1460 H   0  0  0  0  0  0  0  0  0  0  0  0
   36.6750   30.4360   46.0840 N   0  0  0  0  0  0  0  0  0  0  0  0
   37.3390   31.2140   46.6130 C   0  0  0  0  0  0  0  0  0  0  0  0
  1  6  1  0  0  0  0
  2  1  2  0  0  0  0
  2  3  1  0  0  0  0
  3  4  2  0  0  0  0
  4  5  1  0  0  0  0
  5  8  1  0  0  0  0
  6  5  2  0  0  0  0
  7  3  1  0  0  0  0
  9 11  1  0  0  0  0
 10  9  2  0  0  0  0
 11  2  1  0  0  0  0
 12 11  1  0  0  0  0
 13  9  1  0  0  0  0
 14 15  1  0  0  0  0
 14 13  2  0  0  0  0
 16 14  1  0  0  0  0
 17 16  2  0  0  0  0
 17 19  1  0  0  0  0
 18 17  1  0  0  0  0
 19 21  2  0  0  0  0
 20 19  1  0  0  0  0
 21 13  1  0  0  0  0
 22  1  1  0  0  0  0
 23 24  1  0  0  0  0
 24 25  2  0  0  0  0
 24 22  1  0  0  0  0
 25 29  1  0  0  0  0
 26 30  1  0  0  0  0
 26 25  1  0  0  0  0
 27 26  2  0  0  0  0
 28 23  2  0  0  0  0
 28 27  1  0  0  0  0
 31 27  1  0  0  0  0
 32 28  1  0  0  0  0
 33 32  2  0  0  0  0
 33 37  1  0  0  0  0
 34 33  1  0  0  0  0
 35 34  2  0  0  0  0
 35 36  1  0  0  0  0
 36 32  1  0  0  0  0
 38 34  1  0  0  0  0
 39 35  1  0  0  0  0
 40 41  3  0  0  0  0
 41 23  1  0  0  0  0
M  END
>  <minimizedAffinity>
-6.04731321

>  <minimizedRMSD>
0.46854645

$$$$
