
 OpenBabel03272501313D

 20 21  0  0  0  0  0  0  0  0999 V2000
   38.9360   22.9100   36.0950 C   0  0  0  0  0  0  0  0  0  0  0  0
   39.8620   22.3320   36.7350 O   0  0  0  0  0  0  0  0  0  0  0  0
   36.6370   21.2560   33.6630 C   0  0  0  0  0  0  0  0  0  0  0  0
   37.7280   21.9810   34.1490 C   0  0  0  0  0  0  0  0  0  0  0  0
   37.8260   22.1880   35.5100 C   0  0  0  0  0  0  0  0  0  0  0  0
   36.8290   21.6600   36.2950 N   0  0  0  0  0  0  0  0  0  0  0  0
   35.8050   20.9750   35.8180 C   0  0  0  0  0  0  0  0  0  0  0  0
   35.6860   20.7600   34.5070 N   0  0  0  0  0  0  0  0  0  0  0  0
   36.4910   21.0590   32.6100 H   0  0  0  0  0  0  0  0  0  0  0  0
   38.4660   22.3770   33.4570 H   0  0  0  0  0  0  0  0  0  0  0  0
   35.1530   20.6560   36.6120 H   0  0  0  0  0  0  0  0  0  0  0  0
   38.9160   24.3810   35.8950 C   0  0  0  0  0  0  0  0  0  0  0  0
   38.0350   25.3390   36.3130 C   0  0  0  0  0  0  0  0  0  0  0  0
   37.2080   24.8900   36.8690 H   0  0  0  0  0  0  0  0  0  0  0  0
   38.2190   26.6780   36.0410 C   0  0  0  0  0  3  0  0  0  0  0  0
   39.3380   27.0670   35.3180 C   0  0  0  0  0  0  0  0  0  0  0  0
   39.4100   28.1540   35.1530 H   0  0  0  0  0  0  0  0  0  0  0  0
   40.2760   26.1640   34.8570 C   0  0  0  0  0  0  0  0  0  0  0  0
   41.1440   26.5360   34.3010 H   0  0  0  0  0  0  0  0  0  0  0  0
   40.0370   24.8360   35.1620 C   0  0  0  0  0  3  0  0  0  0  0  0
  1  2  2  0  0  0  0
  3  4  2  0  0  0  0
  3  8  1  0  0  0  0
  4  5  1  0  0  0  0
  5  1  1  0  0  0  0
  5  6  2  0  0  0  0
  7  6  1  0  0  0  0
  7 11  1  0  0  0  0
  8  7  2  0  0  0  0
  9  3  1  0  0  0  0
 10  4  1  0  0  0  0
 12  1  1  0  0  0  0
 12 13  1  0  0  0  0
 13 14  1  0  0  0  0
 15 13  2  0  0  0  0
 16 15  1  0  0  0  0
 17 16  1  0  0  0  0
 18 20  1  0  0  0  0
 18 16  2  0  0  0  0
 19 18  1  0  0  0  0
 20 12  2  0  0  0  0
M  END
>  <minimizedAffinity>
-4.37200212

$$$$

 OpenBabel03272501313D

 20 21  0  0  0  0  0  0  0  0999 V2000
   37.8810   27.1590   31.7520 C   0  0  0  0  0  0  0  0  0  0  0  0
   38.1520   28.0980   30.9490 O   0  0  0  0  0  0  0  0  0  0  0  0
   36.5670   23.7480   30.9960 C   0  0  0  0  0  0  0  0  0  0  0  0
   37.4730   24.7590   31.3230 C   0  0  0  0  0  0  0  0  0  0  0  0
   37.0110   26.0580   31.3990 C   0  0  0  0  0  0  0  0  0  0  0  0
   35.6760   26.2600   31.1430 N   0  0  0  0  0  0  0  0  0  0  0  0
   34.8320   25.2910   30.8370 C   0  0  0  0  0  0  0  0  0  0  0  0
   35.2530   24.0270   30.7560 N   0  0  0  0  0  0  0  0  0  0  0  0
   36.8580   22.7100   30.9120 H   0  0  0  0  0  0  0  0  0  0  0  0
   38.5180   24.5150   31.4970 H   0  0  0  0  0  0  0  0  0  0  0  0
   33.8400   25.6790   30.6820 H   0  0  0  0  0  0  0  0  0  0  0  0
   38.4390   27.1140   33.1270 C   0  0  0  0  0  0  0  0  0  0  0  0
   39.7070   26.8780   33.5820 C   0  0  0  0  0  0  0  0  0  0  0  0
   40.3860   26.6730   32.7500 H   0  0  0  0  0  0  0  0  0  0  0  0
   40.0270   26.9110   34.9220 C   0  0  0  0  0  3  0  0  0  0  0  0
   39.0270   27.1940   35.8420 C   0  0  0  0  0  0  0  0  0  0  0  0
   39.3720   27.2080   36.8900 H   0  0  0  0  0  0  0  0  0  0  0  0
   37.7210   27.4420   35.4690 C   0  0  0  0  0  0  0  0  0  0  0  0
   36.9800   27.6690   36.2440 H   0  0  0  0  0  0  0  0  0  0  0  0
   37.4620   27.3950   34.1110 C   0  0  0  0  0  3  0  0  0  0  0  0
  1 12  1  0  0  0  0
  2  1  2  0  0  0  0
  3  4  1  0  0  0  0
  4  5  2  0  0  0  0
  4 10  1  0  0  0  0
  5  1  1  0  0  0  0
  6  5  1  0  0  0  0
  7  6  2  0  0  0  0
  8  7  1  0  0  0  0
  8  3  2  0  0  0  0
  9  3  1  0  0  0  0
 11  7  1  0  0  0  0
 12 13  2  0  0  0  0
 12 20  1  0  0  0  0
 13 15  1  0  0  0  0
 14 13  1  0  0  0  0
 15 16  2  0  0  0  0
 16 17  1  0  0  0  0
 18 16  1  0  0  0  0
 18 19  1  0  0  0  0
 20 18  2  0  0  0  0
M  END
>  <minimizedAffinity>
-4.2665062

$$$$

 OpenBabel03272501313D

 20 21  0  0  0  0  0  0  0  0999 V2000
   39.0500   26.3560   34.9590 C   0  0  0  0  0  0  0  0  0  0  0  0
   40.2290   26.7740   35.1420 O   0  0  0  0  0  0  0  0  0  0  0  0
   37.6650   23.6410   37.1140 C   0  0  0  0  0  0  0  0  0  0  0  0
   38.1060   24.9080   36.7260 C   0  0  0  0  0  0  0  0  0  0  0  0
   38.5940   25.0710   35.4460 C   0  0  0  0  0  0  0  0  0  0  0  0
   38.6110   23.9590   34.6380 N   0  0  0  0  0  0  0  0  0  0  0  0
   38.1880   22.7680   35.0220 C   0  0  0  0  0  0  0  0  0  0  0  0
   37.7120   22.5820   36.2540 N   0  0  0  0  0  0  0  0  0  0  0  0
   37.2760   23.4360   38.1020 H   0  0  0  0  0  0  0  0  0  0  0  0
   38.0720   25.7330   37.4320 H   0  0  0  0  0  0  0  0  0  0  0  0
   38.2910   22.0490   34.2270 H   0  0  0  0  0  0  0  0  0  0  0  0
   38.0350   27.1570   34.2300 C   0  0  0  0  0  0  0  0  0  0  0  0
   36.9280   27.8320   34.6670 C   0  0  0  0  0  0  0  0  0  0  0  0
   36.8020   27.7120   35.7460 H   0  0  0  0  0  0  0  0  0  0  0  0
   36.1200   28.5520   33.8140 C   0  0  0  0  0  3  0  0  0  0  0  0
   36.4390   28.5930   32.4640 C   0  0  0  0  0  0  0  0  0  0  0  0
   35.7450   29.1970   31.8570 H   0  0  0  0  0  0  0  0  0  0  0  0
   37.5370   27.9400   31.9390 C   0  0  0  0  0  0  0  0  0  0  0  0
   37.7410   28.0210   30.8660 H   0  0  0  0  0  0  0  0  0  0  0  0
   38.3110   27.2350   32.8440 C   0  0  0  0  0  3  0  0  0  0  0  0
  1  2  2  0  0  0  0
  1  5  1  0  0  0  0
  3  9  1  0  0  0  0
  4  3  1  0  0  0  0
  4 10  1  0  0  0  0
  5  4  2  0  0  0  0
  6  7  2  0  0  0  0
  6  5  1  0  0  0  0
  7  8  1  0  0  0  0
  8  3  2  0  0  0  0
 11  7  1  0  0  0  0
 12 13  1  0  0  0  0
 12  1  1  0  0  0  0
 13 14  1  0  0  0  0
 15 13  2  0  0  0  0
 16 15  1  0  0  0  0
 17 16  1  0  0  0  0
 18 16  2  0  0  0  0
 18 20  1  0  0  0  0
 19 18  1  0  0  0  0
 20 12  2  0  0  0  0
M  END
>  <minimizedAffinity>
-4.21024656

$$$$

 OpenBabel03272501313D

 20 21  0  0  0  0  0  0  0  0999 V2000
   38.2210   23.6860   34.5320 C   0  0  0  0  0  0  0  0  0  0  0  0
   38.0560   22.6060   33.8940 O   0  0  0  0  0  0  0  0  0  0  0  0
   39.3530   27.0210   33.2990 C   0  0  0  0  0  0  0  0  0  0  0  0
   39.3730   25.8010   33.9770 C   0  0  0  0  0  0  0  0  0  0  0  0
   38.2700   24.9760   33.8780 C   0  0  0  0  0  0  0  0  0  0  0  0
   37.2220   25.4250   33.1110 N   0  0  0  0  0  0  0  0  0  0  0  0
   37.2220   26.5830   32.4750 C   0  0  0  0  0  0  0  0  0  0  0  0
   38.2740   27.3990   32.5540 N   0  0  0  0  0  0  0  0  0  0  0  0
   40.1770   27.7210   33.3340 H   0  0  0  0  0  0  0  0  0  0  0  0
   40.2380   25.5270   34.5740 H   0  0  0  0  0  0  0  0  0  0  0  0
   36.3010   26.7250   31.9350 H   0  0  0  0  0  0  0  0  0  0  0  0
   38.3730   23.7130   36.0080 C   0  0  0  0  0  0  0  0  0  0  0  0
   37.6250   24.3100   36.9850 C   0  0  0  0  0  0  0  0  0  0  0  0
   36.7920   24.8680   36.5490 H   0  0  0  0  0  0  0  0  0  0  0  0
   37.9270   24.1850   38.3240 C   0  0  0  0  0  3  0  0  0  0  0  0
   39.0290   23.4280   38.6940 C   0  0  0  0  0  0  0  0  0  0  0  0
   39.1920   23.3750   39.7830 H   0  0  0  0  0  0  0  0  0  0  0  0
   39.8380   22.7930   37.7720 C   0  0  0  0  0  0  0  0  0  0  0  0
   40.6880   22.2000   38.1300 H   0  0  0  0  0  0  0  0  0  0  0  0
   39.4850   22.9540   36.4450 C   0  0  0  0  0  3  0  0  0  0  0  0
  1 12  1  0  0  0  0
  2  1  2  0  0  0  0
  3  9  1  0  0  0  0
  3  4  1  0  0  0  0
  4 10  1  0  0  0  0
  5  4  2  0  0  0  0
  5  1  1  0  0  0  0
  6  5  1  0  0  0  0
  7  8  1  0  0  0  0
  7  6  2  0  0  0  0
  8  3  2  0  0  0  0
 11  7  1  0  0  0  0
 12 20  2  0  0  0  0
 12 13  1  0  0  0  0
 13 15  2  0  0  0  0
 14 13  1  0  0  0  0
 15 16  1  0  0  0  0
 16 17  1  0  0  0  0
 18 19  1  0  0  0  0
 18 16  2  0  0  0  0
 20 18  1  0  0  0  0
M  END
>  <minimizedAffinity>
-4.14838362

$$$$

 OpenBabel03272501313D

 20 21  0  0  0  0  0  0  0  0999 V2000
   36.3780   27.2430   32.3310 C   0  0  0  0  0  0  0  0  0  0  0  0
   36.0930   26.1880   31.6940 O   0  0  0  0  0  0  0  0  0  0  0  0
   35.7900   30.5920   30.7910 C   0  0  0  0  0  0  0  0  0  0  0  0
   36.4090   29.3730   31.0780 C   0  0  0  0  0  0  0  0  0  0  0  0
   35.8130   28.5330   31.9950 C   0  0  0  0  0  0  0  0  0  0  0  0
   34.6390   28.9640   32.5670 N   0  0  0  0  0  0  0  0  0  0  0  0
   34.0670   30.1210   32.2830 C   0  0  0  0  0  0  0  0  0  0  0  0
   34.6230   30.9520   31.3990 N   0  0  0  0  0  0  0  0  0  0  0  0
   36.2010   31.3040   30.0880 H   0  0  0  0  0  0  0  0  0  0  0  0
   37.3450   29.1140   30.5910 H   0  0  0  0  0  0  0  0  0  0  0  0
   33.1580   30.2480   32.8440 H   0  0  0  0  0  0  0  0  0  0  0  0
   37.3190   27.2390   33.4790 C   0  0  0  0  0  0  0  0  0  0  0  0
   37.1090   27.3900   34.8220 C   0  0  0  0  0  0  0  0  0  0  0  0
   36.0500   27.5600   35.0330 H   0  0  0  0  0  0  0  0  0  0  0  0
   38.1350   27.3230   35.7400 C   0  0  0  0  0  3  0  0  0  0  0  0
   39.4260   27.0950   35.2860 C   0  0  0  0  0  0  0  0  0  0  0  0
   40.1830   27.0490   36.0870 H   0  0  0  0  0  0  0  0  0  0  0  0
   39.7260   26.9330   33.9470 C   0  0  0  0  0  0  0  0  0  0  0  0
   40.7650   26.7460   33.6540 H   0  0  0  0  0  0  0  0  0  0  0  0
   38.6550   27.0110   33.0750 C   0  0  0  0  0  3  0  0  0  0  0  0
  1 12  1  0  0  0  0
  2  1  2  0  0  0  0
  3  4  2  0  0  0  0
  3  8  1  0  0  0  0
  4  5  1  0  0  0  0
  5  1  1  0  0  0  0
  5  6  2  0  0  0  0
  7  6  1  0  0  0  0
  7 11  1  0  0  0  0
  8  7  2  0  0  0  0
  9  3  1  0  0  0  0
 10  4  1  0  0  0  0
 12 13  1  0  0  0  0
 13 14  1  0  0  0  0
 13 15  2  0  0  0  0
 16 15  1  0  0  0  0
 16 17  1  0  0  0  0
 18 16  2  0  0  0  0
 19 18  1  0  0  0  0
 20 12  2  0  0  0  0
 20 18  1  0  0  0  0
M  END
>  <minimizedAffinity>
-4.14426517

$$$$

 OpenBabel03272501313D

 20 21  0  0  0  0  0  0  0  0999 V2000
   38.4000   23.9220   36.3760 C   0  0  0  0  0  0  0  0  0  0  0  0
   37.5000   23.3010   37.0120 O   0  0  0  0  0  0  0  0  0  0  0  0
   38.0400   27.5270   35.4770 C   0  0  0  0  0  0  0  0  0  0  0  0
   38.2910   26.3880   36.2450 C   0  0  0  0  0  0  0  0  0  0  0  0
   38.1380   25.1500   35.6550 C   0  0  0  0  0  0  0  0  0  0  0  0
   37.7430   25.1300   34.3390 N   0  0  0  0  0  0  0  0  0  0  0  0
   37.5100   26.2190   33.6270 C   0  0  0  0  0  0  0  0  0  0  0  0
   37.6510   27.4280   34.1730 N   0  0  0  0  0  0  0  0  0  0  0  0
   38.1330   28.5290   35.8720 H   0  0  0  0  0  0  0  0  0  0  0  0
   38.5870   26.4910   37.2850 H   0  0  0  0  0  0  0  0  0  0  0  0
   37.2170   25.9660   32.6230 H   0  0  0  0  0  0  0  0  0  0  0  0
   39.8020   23.4390   36.3220 C   0  0  0  0  0  0  0  0  0  0  0  0
   40.8640   23.8250   35.5510 C   0  0  0  0  0  0  0  0  0  0  0  0
   40.5720   24.6160   34.8560 H   0  0  0  0  0  0  0  0  0  0  0  0
   42.1130   23.2570   35.6810 C   0  0  0  0  0  3  0  0  0  0  0  0
   42.3010   22.2590   36.6260 C   0  0  0  0  0  0  0  0  0  0  0  0
   43.3300   21.8670   36.6680 H   0  0  0  0  0  0  0  0  0  0  0  0
   41.2820   21.8090   37.4440 C   0  0  0  0  0  0  0  0  0  0  0  0
   41.4980   21.0240   38.1790 H   0  0  0  0  0  0  0  0  0  0  0  0
   40.0520   22.4160   37.2680 C   0  0  0  0  0  3  0  0  0  0  0  0
  1  2  2  0  0  0  0
  3  9  1  0  0  0  0
  3  4  1  0  0  0  0
  4 10  1  0  0  0  0
  5  4  2  0  0  0  0
  5  1  1  0  0  0  0
  6  5  1  0  0  0  0
  7  8  1  0  0  0  0
  7  6  2  0  0  0  0
  8  3  2  0  0  0  0
 11  7  1  0  0  0  0
 12  1  1  0  0  0  0
 12 20  1  0  0  0  0
 13 15  1  0  0  0  0
 13 12  2  0  0  0  0
 14 13  1  0  0  0  0
 15 16  2  0  0  0  0
 16 17  1  0  0  0  0
 16 18  1  0  0  0  0
 18 19  1  0  0  0  0
 20 18  2  0  0  0  0
M  END
>  <minimizedAffinity>
-4.14335346

$$$$

 OpenBabel03272501313D

 20 21  0  0  0  0  0  0  0  0999 V2000
   39.4240   24.4270   34.4410 C   0  0  0  0  0  0  0  0  0  0  0  0
   40.6050   24.6800   34.0650 O   0  0  0  0  0  0  0  0  0  0  0  0
   36.7510   23.1560   32.1670 C   0  0  0  0  0  0  0  0  0  0  0  0
   37.8430   23.1470   33.0370 C   0  0  0  0  0  0  0  0  0  0  0  0
   38.3120   24.3530   33.5180 C   0  0  0  0  0  0  0  0  0  0  0  0
   37.6610   25.4870   33.0970 N   0  0  0  0  0  0  0  0  0  0  0  0
   36.6280   25.4780   32.2730 C   0  0  0  0  0  0  0  0  0  0  0  0
   36.1550   24.3260   31.7930 N   0  0  0  0  0  0  0  0  0  0  0  0
   36.3330   22.2520   31.7460 H   0  0  0  0  0  0  0  0  0  0  0  0
   38.3090   22.2040   33.3100 H   0  0  0  0  0  0  0  0  0  0  0  0
   36.2780   26.4780   32.0840 H   0  0  0  0  0  0  0  0  0  0  0  0
   39.0870   24.1820   35.8660 C   0  0  0  0  0  0  0  0  0  0  0  0
   38.0990   24.6900   36.6630 C   0  0  0  0  0  0  0  0  0  0  0  0
   37.4900   25.4130   36.1130 H   0  0  0  0  0  0  0  0  0  0  0  0
   37.9380   24.3020   37.9750 C   0  0  0  0  0  3  0  0  0  0  0  0
   38.8100   23.3630   38.5070 C   0  0  0  0  0  0  0  0  0  0  0  0
   38.6050   23.1040   39.5590 H   0  0  0  0  0  0  0  0  0  0  0  0
   39.8360   22.8000   37.7730 C   0  0  0  0  0  0  0  0  0  0  0  0
   40.4840   22.0550   38.2480 H   0  0  0  0  0  0  0  0  0  0  0  0
   39.9460   23.2290   36.4620 C   0  0  0  0  0  3  0  0  0  0  0  0
  1 12  1  0  0  0  0
  2  1  2  0  0  0  0
  3  4  1  0  0  0  0
  4 10  1  0  0  0  0
  4  5  2  0  0  0  0
  5  1  1  0  0  0  0
  6  5  1  0  0  0  0
  7  6  2  0  0  0  0
  8  3  2  0  0  0  0
  8  7  1  0  0  0  0
  9  3  1  0  0  0  0
 11  7  1  0  0  0  0
 12 20  2  0  0  0  0
 12 13  1  0  0  0  0
 13 15  2  0  0  0  0
 14 13  1  0  0  0  0
 15 16  1  0  0  0  0
 16 17  1  0  0  0  0
 18 19  1  0  0  0  0
 18 16  2  0  0  0  0
 20 18  1  0  0  0  0
M  END
>  <minimizedAffinity>
-4.13340187

$$$$

 OpenBabel03272501313D

 20 21  0  0  0  0  0  0  0  0999 V2000
   38.8150   22.3560   34.2700 C   0  0  0  0  0  0  0  0  0  0  0  0
   39.9300   22.1740   33.7020 O   0  0  0  0  0  0  0  0  0  0  0  0
   35.9340   22.6390   31.9130 C   0  0  0  0  0  0  0  0  0  0  0  0
   37.1570   22.9220   32.5270 C   0  0  0  0  0  0  0  0  0  0  0  0
   37.5530   22.1420   33.5940 C   0  0  0  0  0  0  0  0  0  0  0  0
   36.7020   21.1330   33.9790 N   0  0  0  0  0  0  0  0  0  0  0  0
   35.5490   20.8800   33.3860 C   0  0  0  0  0  0  0  0  0  0  0  0
   35.1430   21.6180   32.3520 N   0  0  0  0  0  0  0  0  0  0  0  0
   35.5560   23.2100   31.0760 H   0  0  0  0  0  0  0  0  0  0  0  0
   37.7640   23.7480   32.1680 H   0  0  0  0  0  0  0  0  0  0  0  0
   35.0530   20.0450   33.8510 H   0  0  0  0  0  0  0  0  0  0  0  0
   38.7140   22.8020   35.6820 C   0  0  0  0  0  0  0  0  0  0  0  0
   37.7350   23.4860   36.3480 C   0  0  0  0  0  0  0  0  0  0  0  0
   36.9140   23.7430   35.6730 H   0  0  0  0  0  0  0  0  0  0  0  0
   37.8250   23.7810   37.6910 C   0  0  0  0  0  3  0  0  0  0  0  0
   38.9490   23.3680   38.3930 C   0  0  0  0  0  0  0  0  0  0  0  0
   38.9350   23.6380   39.4620 H   0  0  0  0  0  0  0  0  0  0  0  0
   39.9840   22.6740   37.7980 C   0  0  0  0  0  0  0  0  0  0  0  0
   40.8400   22.3680   38.4100 H   0  0  0  0  0  0  0  0  0  0  0  0
   39.8360   22.4080   36.4480 C   0  0  0  0  0  3  0  0  0  0  0  0
  1 12  1  0  0  0  0
  2  1  2  0  0  0  0
  3  8  2  0  0  0  0
  3  4  1  0  0  0  0
  4  5  2  0  0  0  0
  5  6  1  0  0  0  0
  5  1  1  0  0  0  0
  7 11  1  0  0  0  0
  7  6  2  0  0  0  0
  8  7  1  0  0  0  0
  9  3  1  0  0  0  0
 10  4  1  0  0  0  0
 12 13  2  0  0  0  0
 12 20  1  0  0  0  0
 13 15  1  0  0  0  0
 14 13  1  0  0  0  0
 15 16  2  0  0  0  0
 16 17  1  0  0  0  0
 18 16  1  0  0  0  0
 18 19  1  0  0  0  0
 20 18  2  0  0  0  0
M  END
>  <minimizedAffinity>
-4.10876942

$$$$

 OpenBabel03272501313D

 20 21  0  0  0  0  0  0  0  0999 V2000
   35.5390   29.9100   33.2870 C   0  0  0  0  0  0  0  0  0  0  0  0
   35.3920   30.4740   32.1650 O   0  0  0  0  0  0  0  0  0  0  0  0
   37.1900   26.8620   34.6720 C   0  0  0  0  0  0  0  0  0  0  0  0
   36.6730   28.1580   34.6120 C   0  0  0  0  0  0  0  0  0  0  0  0
   36.1160   28.5890   33.4250 C   0  0  0  0  0  0  0  0  0  0  0  0
   36.1130   27.7000   32.3770 N   0  0  0  0  0  0  0  0  0  0  0  0
   36.6060   26.4760   32.4530 C   0  0  0  0  0  0  0  0  0  0  0  0
   37.1500   26.0340   33.5870 N   0  0  0  0  0  0  0  0  0  0  0  0
   37.6460   26.4570   35.5650 H   0  0  0  0  0  0  0  0  0  0  0  0
   36.7270   28.8030   35.4840 H   0  0  0  0  0  0  0  0  0  0  0  0
   36.4940   25.9580   31.5160 H   0  0  0  0  0  0  0  0  0  0  0  0
   35.1320   30.5630   34.5560 C   0  0  0  0  0  0  0  0  0  0  0  0
   35.8270   31.3470   35.4350 C   0  0  0  0  0  0  0  0  0  0  0  0
   36.8640   31.4670   35.1110 H   0  0  0  0  0  0  0  0  0  0  0  0
   35.2430   31.8880   36.5600 C   0  0  0  0  0  3  0  0  0  0  0  0
   33.9030   31.6280   36.8100 C   0  0  0  0  0  0  0  0  0  0  0  0
   33.5160   32.1060   37.7250 H   0  0  0  0  0  0  0  0  0  0  0  0
   33.1290   30.8460   35.9760 C   0  0  0  0  0  0  0  0  0  0  0  0
   32.0740   30.6870   36.2240 H   0  0  0  0  0  0  0  0  0  0  0  0
   33.7700   30.3310   34.8630 C   0  0  0  0  0  3  0  0  0  0  0  0
  1  5  1  0  0  0  0
  1 12  1  0  0  0  0
  2  1  2  0  0  0  0
  3  9  1  0  0  0  0
  4  3  1  0  0  0  0
  4 10  1  0  0  0  0
  5  4  2  0  0  0  0
  6  7  2  0  0  0  0
  6  5  1  0  0  0  0
  7  8  1  0  0  0  0
  8  3  2  0  0  0  0
 11  7  1  0  0  0  0
 12 20  2  0  0  0  0
 12 13  1  0  0  0  0
 13 15  2  0  0  0  0
 14 13  1  0  0  0  0
 15 16  1  0  0  0  0
 16 17  1  0  0  0  0
 18 19  1  0  0  0  0
 18 16  2  0  0  0  0
 20 18  1  0  0  0  0
M  END
>  <minimizedAffinity>
-4.10375738

$$$$
