
 OpenBabel03262522013D

 20 21  0  0  0  0  0  0  0  0999 V2000
   38.8670   22.9450   36.0410 C   0  0  0  0  0  0  0  0  0  0  0  0
   39.8260   22.4100   36.6860 O   0  0  0  0  0  0  0  0  0  0  0  0
   37.7310   22.1770   35.5770 C   0  0  0  0  0  0  0  0  0  0  0  0
   37.6830   21.9650   34.1930 C   0  0  0  0  0  0  0  0  0  0  0  0
   36.6180   21.2260   33.6270 C   0  0  0  0  0  0  0  0  0  0  0  0
   35.6690   20.7540   34.5040 N   0  0  0  0  0  0  0  0  0  0  0  0
   35.7510   20.9800   35.8250 C   0  0  0  0  0  0  0  0  0  0  0  0
   36.7730   21.6860   36.3570 N   0  0  0  0  0  0  0  0  0  0  0  0
   38.4520   22.3530   33.5290 H   0  0  0  0  0  0  0  0  0  0  0  0
   36.6130   21.0820   32.5670 H   0  0  0  0  0  0  0  0  0  0  0  0
   34.9630   20.5730   36.4450 H   0  0  0  0  0  0  0  0  0  0  0  0
   39.0030   24.3830   35.8100 C   0  0  0  0  0  0  0  0  0  0  0  0
   38.0760   25.2850   36.2950 C   0  0  0  0  0  0  0  0  0  0  0  0
   37.2100   24.9280   36.8690 H   0  0  0  0  0  0  0  0  0  0  0  0
   38.2080   26.6420   36.0730 C   0  0  0  0  0  3  0  0  0  0  0  0
   39.3210   27.0530   35.3390 C   0  0  0  0  0  0  0  0  0  0  0  0
   39.3870   28.1330   35.1870 H   0  0  0  0  0  0  0  0  0  0  0  0
   40.2610   26.1790   34.8430 C   0  0  0  0  0  0  0  0  0  0  0  0
   41.1150   26.5450   34.2740 H   0  0  0  0  0  0  0  0  0  0  0  0
   40.0940   24.8290   35.0850 C   0  0  0  0  0  3  0  0  0  0  0  0
  1  2  2  0  0  0  0
  3  1  1  0  0  0  0
  3  8  1  0  0  0  0
  4  3  2  0  0  0  0
  5  4  1  0  0  0  0
  5  6  2  0  0  0  0
  6  7  1  0  0  0  0
  7  8  2  0  0  0  0
  7 11  1  0  0  0  0
  9  4  1  0  0  0  0
 10  5  1  0  0  0  0
 12  1  1  0  0  0  0
 12 13  1  0  0  0  0
 13 14  1  0  0  0  0
 15 13  2  0  0  0  0
 16 15  1  0  0  0  0
 17 16  1  0  0  0  0
 18 20  1  0  0  0  0
 18 16  2  0  0  0  0
 19 18  1  0  0  0  0
 20 12  2  0  0  0  0
M  END
>  <minimizedAffinity>
-4.37830591

$$$$

 OpenBabel03262522013D

 20 21  0  0  0  0  0  0  0  0999 V2000
   38.8200   26.3470   34.8990 C   0  0  0  0  0  0  0  0  0  0  0  0
   39.9400   26.8730   35.1990 O   0  0  0  0  0  0  0  0  0  0  0  0
   38.4460   25.0240   35.3550 C   0  0  0  0  0  0  0  0  0  0  0  0
   38.0460   24.9500   36.6960 C   0  0  0  0  0  0  0  0  0  0  0  0
   37.6570   23.7090   37.2510 C   0  0  0  0  0  0  0  0  0  0  0  0
   37.7040   22.6220   36.4070 N   0  0  0  0  0  0  0  0  0  0  0  0
   38.0950   22.7350   35.1270 C   0  0  0  0  0  0  0  0  0  0  0  0
   38.4630   23.9270   34.6060 N   0  0  0  0  0  0  0  0  0  0  0  0
   38.0210   25.8300   37.3340 H   0  0  0  0  0  0  0  0  0  0  0  0
   37.3570   23.6870   38.2760 H   0  0  0  0  0  0  0  0  0  0  0  0
   38.1020   21.8320   34.5320 H   0  0  0  0  0  0  0  0  0  0  0  0
   37.9500   27.1770   34.0650 C   0  0  0  0  0  0  0  0  0  0  0  0
   36.8720   27.8560   34.5980 C   0  0  0  0  0  0  0  0  0  0  0  0
   36.6500   27.7810   35.6710 H   0  0  0  0  0  0  0  0  0  0  0  0
   36.0520   28.6370   33.8070 C   0  0  0  0  0  3  0  0  0  0  0  0
   36.3680   28.7060   32.4490 C   0  0  0  0  0  0  0  0  0  0  0  0
   35.6960   29.3340   31.8610 H   0  0  0  0  0  0  0  0  0  0  0  0
   37.4360   28.0400   31.8910 C   0  0  0  0  0  0  0  0  0  0  0  0
   37.6450   28.1220   30.8240 H   0  0  0  0  0  0  0  0  0  0  0  0
   38.2320   27.2680   32.7140 C   0  0  0  0  0  3  0  0  0  0  0  0
  1  2  2  0  0  0  0
  1  3  1  0  0  0  0
  3  4  1  0  0  0  0
  4  5  2  0  0  0  0
  4  9  1  0  0  0  0
  5 10  1  0  0  0  0
  6  5  1  0  0  0  0
  7  6  2  0  0  0  0
  8  7  1  0  0  0  0
  8  3  2  0  0  0  0
 11  7  1  0  0  0  0
 12 13  1  0  0  0  0
 12  1  1  0  0  0  0
 13 14  1  0  0  0  0
 15 13  2  0  0  0  0
 16 15  1  0  0  0  0
 17 16  1  0  0  0  0
 18 16  2  0  0  0  0
 18 20  1  0  0  0  0
 19 18  1  0  0  0  0
 20 12  2  0  0  0  0
M  END
>  <minimizedAffinity>
-4.21132708

$$$$

 OpenBabel03262522013D

 20 21  0  0  0  0  0  0  0  0999 V2000
   38.7990   26.3480   34.9080 C   0  0  0  0  0  0  0  0  0  0  0  0
   39.9040   26.8830   35.2440 O   0  0  0  0  0  0  0  0  0  0  0  0
   38.4270   25.0170   35.3420 C   0  0  0  0  0  0  0  0  0  0  0  0
   38.0450   24.9160   36.6860 C   0  0  0  0  0  0  0  0  0  0  0  0
   37.6600   23.6650   37.2210 C   0  0  0  0  0  0  0  0  0  0  0  0
   37.6920   22.5960   36.3540 N   0  0  0  0  0  0  0  0  0  0  0  0
   38.0650   22.7340   35.0710 C   0  0  0  0  0  0  0  0  0  0  0  0
   38.4300   23.9350   34.5700 N   0  0  0  0  0  0  0  0  0  0  0  0
   38.0320   25.7830   37.3420 H   0  0  0  0  0  0  0  0  0  0  0  0
   37.3740   23.6230   38.2500 H   0  0  0  0  0  0  0  0  0  0  0  0
   38.0610   21.8440   34.4580 H   0  0  0  0  0  0  0  0  0  0  0  0
   37.9430   27.1750   34.0570 C   0  0  0  0  0  0  0  0  0  0  0  0
   38.1720   27.2960   32.7010 C   0  0  0  0  0  0  0  0  0  0  0  0
   39.0130   26.7640   32.2350 H   0  0  0  0  0  0  0  0  0  0  0  0
   37.3630   28.0790   31.9010 C   0  0  0  0  0  3  0  0  0  0  0  0
   36.3060   28.7390   32.5320 C   0  0  0  0  0  0  0  0  0  0  0  0
   35.6920   29.3460   31.8640 H   0  0  0  0  0  0  0  0  0  0  0  0
   36.0540   28.6380   33.8810 C   0  0  0  0  0  0  0  0  0  0  0  0
   35.2170   29.1710   34.3310 H   0  0  0  0  0  0  0  0  0  0  0  0
   36.8860   27.8450   34.6470 C   0  0  0  0  0  3  0  0  0  0  0  0
  1  2  2  0  0  0  0
  1  3  1  0  0  0  0
  3  4  1  0  0  0  0
  4  5  2  0  0  0  0
  4  9  1  0  0  0  0
  5 10  1  0  0  0  0
  6  5  1  0  0  0  0
  7  6  2  0  0  0  0
  8  7  1  0  0  0  0
  8  3  2  0  0  0  0
 11  7  1  0  0  0  0
 12 20  1  0  0  0  0
 12  1  1  0  0  0  0
 13 12  2  0  0  0  0
 14 13  1  0  0  0  0
 15 16  2  0  0  0  0
 15 13  1  0  0  0  0
 16 18  1  0  0  0  0
 17 16  1  0  0  0  0
 18 19  1  0  0  0  0
 18 20  2  0  0  0  0
M  END
>  <minimizedAffinity>
-4.20679188

$$$$

 OpenBabel03262522013D

 20 21  0  0  0  0  0  0  0  0999 V2000
   39.1020   24.6210   34.5790 C   0  0  0  0  0  0  0  0  0  0  0  0
   40.1750   25.2420   34.2910 O   0  0  0  0  0  0  0  0  0  0  0  0
   38.0720   24.3700   33.5940 C   0  0  0  0  0  0  0  0  0  0  0  0
   37.8170   23.0160   33.3340 C   0  0  0  0  0  0  0  0  0  0  0  0
   36.8300   22.6510   32.3890 C   0  0  0  0  0  0  0  0  0  0  0  0
   36.1670   23.6860   31.7670 N   0  0  0  0  0  0  0  0  0  0  0  0
   36.4420   24.9710   32.0450 C   0  0  0  0  0  0  0  0  0  0  0  0
   37.3870   25.3090   32.9500 N   0  0  0  0  0  0  0  0  0  0  0  0
   38.3600   22.2250   33.8440 H   0  0  0  0  0  0  0  0  0  0  0  0
   36.6600   21.6110   32.2140 H   0  0  0  0  0  0  0  0  0  0  0  0
   35.8750   25.7230   31.5130 H   0  0  0  0  0  0  0  0  0  0  0  0
   38.9950   24.1860   35.9720 C   0  0  0  0  0  0  0  0  0  0  0  0
   38.0180   24.6840   36.8120 C   0  0  0  0  0  0  0  0  0  0  0  0
   37.2970   25.4250   36.4400 H   0  0  0  0  0  0  0  0  0  0  0  0
   37.9200   24.2710   38.1260 C   0  0  0  0  0  3  0  0  0  0  0  0
   38.8540   23.3290   38.5600 C   0  0  0  0  0  0  0  0  0  0  0  0
   38.7410   23.0300   39.6040 H   0  0  0  0  0  0  0  0  0  0  0  0
   39.8380   22.8150   37.7470 C   0  0  0  0  0  0  0  0  0  0  0  0
   40.5470   22.0810   38.1290 H   0  0  0  0  0  0  0  0  0  0  0  0
   39.9040   23.2530   36.4390 C   0  0  0  0  0  3  0  0  0  0  0  0
  1 12  1  0  0  0  0
  2  1  2  0  0  0  0
  3  1  1  0  0  0  0
  4  3  1  0  0  0  0
  4  9  1  0  0  0  0
  5  4  2  0  0  0  0
  6  7  2  0  0  0  0
  6  5  1  0  0  0  0
  7  8  1  0  0  0  0
  8  3  2  0  0  0  0
 10  5  1  0  0  0  0
 11  7  1  0  0  0  0
 12 20  2  0  0  0  0
 12 13  1  0  0  0  0
 13 15  2  0  0  0  0
 14 13  1  0  0  0  0
 15 16  1  0  0  0  0
 16 17  1  0  0  0  0
 18 19  1  0  0  0  0
 18 16  2  0  0  0  0
 20 18  1  0  0  0  0
M  END
>  <minimizedAffinity>
-4.18921661

$$$$

 OpenBabel03262522013D

 20 21  0  0  0  0  0  0  0  0999 V2000
   38.3100   26.4400   35.1990 C   0  0  0  0  0  0  0  0  0  0  0  0
   38.7230   27.5120   35.7460 O   0  0  0  0  0  0  0  0  0  0  0  0
   37.5170   26.4520   33.9870 C   0  0  0  0  0  0  0  0  0  0  0  0
   36.9710   27.6980   33.6480 C   0  0  0  0  0  0  0  0  0  0  0  0
   36.1790   27.8300   32.4840 C   0  0  0  0  0  0  0  0  0  0  0  0
   35.9910   26.6860   31.7410 N   0  0  0  0  0  0  0  0  0  0  0  0
   36.5320   25.5110   32.1010 C   0  0  0  0  0  0  0  0  0  0  0  0
   37.2880   25.3960   33.2150 N   0  0  0  0  0  0  0  0  0  0  0  0
   37.1410   28.5810   34.2590 H   0  0  0  0  0  0  0  0  0  0  0  0
   35.7780   28.7940   32.2540 H   0  0  0  0  0  0  0  0  0  0  0  0
   36.3360   24.6610   31.4610 H   0  0  0  0  0  0  0  0  0  0  0  0
   38.6960   25.2060   35.8840 C   0  0  0  0  0  0  0  0  0  0  0  0
   37.9650   24.7100   36.9460 C   0  0  0  0  0  0  0  0  0  0  0  0
   37.0700   25.2430   37.2950 H   0  0  0  0  0  0  0  0  0  0  0  0
   38.3330   23.5450   37.5910 C   0  0  0  0  0  3  0  0  0  0  0  0
   39.4760   22.8990   37.1170 C   0  0  0  0  0  0  0  0  0  0  0  0
   39.7310   21.9830   37.6540 H   0  0  0  0  0  0  0  0  0  0  0  0
   40.2230   23.3690   36.0620 C   0  0  0  0  0  0  0  0  0  0  0  0
   41.1090   22.8310   35.7250 H   0  0  0  0  0  0  0  0  0  0  0  0
   39.8230   24.5380   35.4430 C   0  0  0  0  0  3  0  0  0  0  0  0
  1  2  2  0  0  0  0
  1 12  1  0  0  0  0
  3  1  1  0  0  0  0
  4  3  1  0  0  0  0
  4  9  1  0  0  0  0
  5  4  2  0  0  0  0
  6  7  2  0  0  0  0
  6  5  1  0  0  0  0
  7  8  1  0  0  0  0
  8  3  2  0  0  0  0
 10  5  1  0  0  0  0
 11  7  1  0  0  0  0
 12 13  1  0  0  0  0
 13 14  1  0  0  0  0
 13 15  2  0  0  0  0
 16 15  1  0  0  0  0
 16 17  1  0  0  0  0
 18 16  2  0  0  0  0
 19 18  1  0  0  0  0
 20 12  2  0  0  0  0
 20 18  1  0  0  0  0
M  END
>  <minimizedAffinity>
-4.1840024

$$$$

 OpenBabel03262522013D

 20 21  0  0  0  0  0  0  0  0999 V2000
   38.4940   22.8290   34.1790 C   0  0  0  0  0  0  0  0  0  0  0  0
   39.3920   23.1980   33.3580 O   0  0  0  0  0  0  0  0  0  0  0  0
   38.6430   23.0020   35.6090 C   0  0  0  0  0  0  0  0  0  0  0  0
   39.8040   22.4400   36.1580 C   0  0  0  0  0  0  0  0  0  0  0  0
   40.0550   22.5490   37.5450 C   0  0  0  0  0  0  0  0  0  0  0  0
   39.1080   23.2190   38.2860 N   0  0  0  0  0  0  0  0  0  0  0  0
   38.0080   23.7440   37.7220 C   0  0  0  0  0  0  0  0  0  0  0  0
   37.7770   23.6350   36.3940 N   0  0  0  0  0  0  0  0  0  0  0  0
   40.5300   21.9170   35.5410 H   0  0  0  0  0  0  0  0  0  0  0  0
   40.9500   22.1100   37.9310 H   0  0  0  0  0  0  0  0  0  0  0  0
   37.3140   24.2560   38.3750 H   0  0  0  0  0  0  0  0  0  0  0  0
   37.3100   22.2210   33.5710 C   0  0  0  0  0  0  0  0  0  0  0  0
   36.6630   21.1520   34.1580 C   0  0  0  0  0  0  0  0  0  0  0  0
   37.0340   20.7360   35.1050 H   0  0  0  0  0  0  0  0  0  0  0  0
   35.5460   20.5810   33.5800 C   0  0  0  0  0  3  0  0  0  0  0  0
   35.1070   21.1370   32.3770 C   0  0  0  0  0  0  0  0  0  0  0  0
   34.2230   20.6560   31.9540 H   0  0  0  0  0  0  0  0  0  0  0  0
   35.7310   22.2020   31.7690 C   0  0  0  0  0  0  0  0  0  0  0  0
   35.3540   22.6040   30.8290 H   0  0  0  0  0  0  0  0  0  0  0  0
   36.8460   22.7450   32.3780 C   0  0  0  0  0  3  0  0  0  0  0  0
  1  3  1  0  0  0  0
  2  1  2  0  0  0  0
  3  4  2  0  0  0  0
  3  8  1  0  0  0  0
  4  5  1  0  0  0  0
  5 10  1  0  0  0  0
  5  6  2  0  0  0  0
  7  6  1  0  0  0  0
  7 11  1  0  0  0  0
  8  7  2  0  0  0  0
  9  4  1  0  0  0  0
 12 13  1  0  0  0  0
 12  1  1  0  0  0  0
 13 14  1  0  0  0  0
 15 13  2  0  0  0  0
 16 15  1  0  0  0  0
 17 16  1  0  0  0  0
 18 16  2  0  0  0  0
 18 20  1  0  0  0  0
 19 18  1  0  0  0  0
 20 12  2  0  0  0  0
M  END
>  <minimizedAffinity>
-4.18170452

$$$$

 OpenBabel03262522013D

 20 21  0  0  0  0  0  0  0  0999 V2000
   39.2140   23.0400   35.8890 C   0  0  0  0  0  0  0  0  0  0  0  0
   38.0640   22.4980   35.9460 O   0  0  0  0  0  0  0  0  0  0  0  0
   40.4330   22.2630   35.9750 C   0  0  0  0  0  0  0  0  0  0  0  0
   40.8410   21.9400   37.2760 C   0  0  0  0  0  0  0  0  0  0  0  0
   42.0180   21.1830   37.4810 C   0  0  0  0  0  0  0  0  0  0  0  0
   42.7060   20.8060   36.3500 N   0  0  0  0  0  0  0  0  0  0  0  0
   42.2810   21.1360   35.1190 C   0  0  0  0  0  0  0  0  0  0  0  0
   41.1550   21.8600   34.9340 N   0  0  0  0  0  0  0  0  0  0  0  0
   40.2720   22.2550   38.1470 H   0  0  0  0  0  0  0  0  0  0  0  0
   42.3010   20.9530   38.4860 H   0  0  0  0  0  0  0  0  0  0  0  0
   42.8800   20.8000   34.2840 H   0  0  0  0  0  0  0  0  0  0  0  0
   39.2070   24.4940   35.7310 C   0  0  0  0  0  0  0  0  0  0  0  0
   40.1630   25.1450   34.9760 C   0  0  0  0  0  0  0  0  0  0  0  0
   40.9550   24.5690   34.4760 H   0  0  0  0  0  0  0  0  0  0  0  0
   40.1540   26.5180   34.8310 C   0  0  0  0  0  3  0  0  0  0  0  0
   39.1320   27.2120   35.4820 C   0  0  0  0  0  0  0  0  0  0  0  0
   39.1610   28.2940   35.3410 H   0  0  0  0  0  0  0  0  0  0  0  0
   38.1660   26.5910   36.2400 C   0  0  0  0  0  0  0  0  0  0  0  0
   37.3870   27.1740   36.7320 H   0  0  0  0  0  0  0  0  0  0  0  0
   38.2100   25.2160   36.3630 C   0  0  0  0  0  3  0  0  0  0  0  0
  1  2  2  0  0  0  0
  1  3  1  0  0  0  0
  3  4  1  0  0  0  0
  4  5  2  0  0  0  0
  4  9  1  0  0  0  0
  5 10  1  0  0  0  0
  6  5  1  0  0  0  0
  7  6  2  0  0  0  0
  8  7  1  0  0  0  0
  8  3  2  0  0  0  0
 11  7  1  0  0  0  0
 12  1  1  0  0  0  0
 12 20  1  0  0  0  0
 13 12  2  0  0  0  0
 14 13  1  0  0  0  0
 15 13  1  0  0  0  0
 15 16  2  0  0  0  0
 16 18  1  0  0  0  0
 17 16  1  0  0  0  0
 18 20  2  0  0  0  0
 18 19  1  0  0  0  0
M  END
>  <minimizedAffinity>
-4.17507553

$$$$

 OpenBabel03262522013D

 20 21  0  0  0  0  0  0  0  0999 V2000
   36.3620   27.3830   32.4060 C   0  0  0  0  0  0  0  0  0  0  0  0
   36.0750   26.2940   31.8130 O   0  0  0  0  0  0  0  0  0  0  0  0
   35.6760   28.6230   32.1070 C   0  0  0  0  0  0  0  0  0  0  0  0
   36.3360   29.4620   31.1990 C   0  0  0  0  0  0  0  0  0  0  0  0
   35.7590   30.7000   30.8320 C   0  0  0  0  0  0  0  0  0  0  0  0
   34.5500   31.0070   31.4130 N   0  0  0  0  0  0  0  0  0  0  0  0
   33.9500   30.1740   32.2800 C   0  0  0  0  0  0  0  0  0  0  0  0
   34.5090   28.9920   32.6240 N   0  0  0  0  0  0  0  0  0  0  0  0
   37.2920   29.1880   30.7590 H   0  0  0  0  0  0  0  0  0  0  0  0
   36.2890   31.3160   30.1370 H   0  0  0  0  0  0  0  0  0  0  0  0
   33.0000   30.4900   32.6900 H   0  0  0  0  0  0  0  0  0  0  0  0
   37.4270   27.2840   33.4030 C   0  0  0  0  0  0  0  0  0  0  0  0
   38.7370   27.0370   33.0400 C   0  0  0  0  0  0  0  0  0  0  0  0
   39.0000   26.9100   31.9810 H   0  0  0  0  0  0  0  0  0  0  0  0
   39.7400   26.9430   33.9850 C   0  0  0  0  0  3  0  0  0  0  0  0
   39.3640   27.1090   35.3190 C   0  0  0  0  0  0  0  0  0  0  0  0
   40.1860   27.0280   36.0330 H   0  0  0  0  0  0  0  0  0  0  0  0
   38.0680   27.3560   35.7110 C   0  0  0  0  0  0  0  0  0  0  0  0
   37.8200   27.4780   36.7650 H   0  0  0  0  0  0  0  0  0  0  0  0
   37.0930   27.4420   34.7360 C   0  0  0  0  0  3  0  0  0  0  0  0
  1 12  1  0  0  0  0
  2  1  2  0  0  0  0
  3  1  1  0  0  0  0
  3  8  1  0  0  0  0
  4  3  2  0  0  0  0
  5  4  1  0  0  0  0
  5  6  2  0  0  0  0
  6  7  1  0  0  0  0
  7  8  2  0  0  0  0
  7 11  1  0  0  0  0
  9  4  1  0  0  0  0
 10  5  1  0  0  0  0
 12 20  1  0  0  0  0
 13 12  2  0  0  0  0
 13 15  1  0  0  0  0
 14 13  1  0  0  0  0
 15 16  2  0  0  0  0
 16 18  1  0  0  0  0
 16 17  1  0  0  0  0
 18 19  1  0  0  0  0
 20 18  2  0  0  0  0
M  END
>  <minimizedAffinity>
-4.14368963

$$$$

 OpenBabel03262522013D

 20 21  0  0  0  0  0  0  0  0999 V2000
   38.4630   23.8860   36.2400 C   0  0  0  0  0  0  0  0  0  0  0  0
   37.5700   23.2230   36.8590 O   0  0  0  0  0  0  0  0  0  0  0  0
   38.1460   25.0790   35.4840 C   0  0  0  0  0  0  0  0  0  0  0  0
   38.2940   26.2840   36.1860 C   0  0  0  0  0  0  0  0  0  0  0  0
   38.0130   27.5140   35.5470 C   0  0  0  0  0  0  0  0  0  0  0  0
   37.5980   27.4410   34.2370 N   0  0  0  0  0  0  0  0  0  0  0  0
   37.4700   26.2650   33.5990 C   0  0  0  0  0  0  0  0  0  0  0  0
   37.7410   25.0950   34.2190 N   0  0  0  0  0  0  0  0  0  0  0  0
   38.6240   26.3030   37.2220 H   0  0  0  0  0  0  0  0  0  0  0  0
   38.1360   28.4130   36.1110 H   0  0  0  0  0  0  0  0  0  0  0  0
   37.1390   26.2960   32.5700 H   0  0  0  0  0  0  0  0  0  0  0  0
   39.8210   23.3520   36.3530 C   0  0  0  0  0  0  0  0  0  0  0  0
   40.8380   23.7820   35.5240 C   0  0  0  0  0  0  0  0  0  0  0  0
   40.6380   24.5410   34.7560 H   0  0  0  0  0  0  0  0  0  0  0  0
   42.1180   23.2750   35.6330 C   0  0  0  0  0  3  0  0  0  0  0  0
   42.3300   22.3110   36.6210 C   0  0  0  0  0  0  0  0  0  0  0  0
   43.3540   21.9370   36.6740 H   0  0  0  0  0  0  0  0  0  0  0  0
   41.3360   21.8640   37.4620 C   0  0  0  0  0  0  0  0  0  0  0  0
   41.5470   21.1090   38.2190 H   0  0  0  0  0  0  0  0  0  0  0  0
   40.0690   22.3950   37.3210 C   0  0  0  0  0  3  0  0  0  0  0  0
  1 12  1  0  0  0  0
  1  2  2  0  0  0  0
  3  4  1  0  0  0  0
  3  1  1  0  0  0  0
  4  9  1  0  0  0  0
  5 10  1  0  0  0  0
  5  4  2  0  0  0  0
  6  5  1  0  0  0  0
  7  8  1  0  0  0  0
  7  6  2  0  0  0  0
  8  3  2  0  0  0  0
 11  7  1  0  0  0  0
 12 20  1  0  0  0  0
 13 15  1  0  0  0  0
 13 12  2  0  0  0  0
 14 13  1  0  0  0  0
 15 16  2  0  0  0  0
 16 17  1  0  0  0  0
 16 18  1  0  0  0  0
 18 19  1  0  0  0  0
 20 18  2  0  0  0  0
M  END
>  <minimizedAffinity>
-4.09727383

$$$$
