
 OpenBabel03272507423D

 41 44  0  0  0  0  0  0  0  0999 V2000
   36.7800   31.2160   50.0570 C   0  0  0  0  0  0  0  0  0  0  0  0
   35.7340   30.3240   49.8250 C   0  0  0  0  0  0  0  0  0  0  0  0
   35.5540   29.2020   50.6140 C   0  0  0  0  0  0  0  0  0  0  0  0
   36.4410   29.0070   51.6280 N   0  0  0  0  0  0  0  0  0  0  0  0
   37.4610   29.8850   51.8440 C   0  0  0  0  0  0  0  0  0  0  0  0
   37.6070   30.9520   51.0710 N   0  0  0  0  0  0  0  0  0  0  0  0
   34.7690   28.4690   50.4970 H   0  0  0  0  0  0  0  0  0  0  0  0
   38.1830   29.7520   52.6470 H   0  0  0  0  0  0  0  0  0  0  0  0
   34.3230   29.2870   48.0960 C   0  0  0  0  0  0  0  0  0  0  0  0
   34.7270   28.0620   48.1020 O   0  0  0  0  0  0  0  0  0  0  0  0
   34.7750   30.4190   48.8110 N   0  0  0  0  0  0  0  0  0  0  0  0
   34.4850   31.4050   48.6920 H   0  0  0  0  0  0  0  0  0  0  0  0
   33.2020   29.4810   47.1760 C   0  0  0  0  0  0  0  0  0  0  0  0
   32.1720   28.5790   47.0090 C   0  0  0  0  0  0  0  0  0  0  0  0
   32.1510   27.6570   47.5720 H   0  0  0  0  0  0  0  0  0  0  0  0
   31.1090   28.7400   46.1510 C   0  0  0  0  0  3  0  0  0  0  0  0
   31.0410   29.8780   45.3890 C   0  0  0  0  0  0  0  0  0  0  0  0
   30.2300   30.0550   44.7000 H   0  0  0  0  0  0  0  0  0  0  0  0
   32.0290   30.8300   45.4950 C   0  0  0  0  0  0  0  0  0  0  0  0
   31.9830   31.7320   44.8970 H   0  0  0  0  0  0  0  0  0  0  0  0
   33.0430   30.5890   46.3680 C   0  0  0  0  0  3  0  0  0  0  0  0
   36.7900   32.2450   49.1870 O   0  0  0  0  0  0  0  0  0  0  0  0
   38.2510   32.2220   47.1940 C   0  0  0  0  0  0  0  0  0  0  0  0
   37.8910   32.6560   48.4650 C   0  0  0  0  0  0  0  0  0  0  0  0
   38.6690   33.5910   49.1200 C   0  0  0  0  0  0  0  0  0  0  0  0
   39.8080   34.0960   48.5150 C   0  0  0  0  0  0  0  0  0  0  0  0
   40.1630   33.6570   47.2460 C   0  0  0  0  0  0  0  0  0  0  0  0
   39.3690   32.7300   46.6230 C   0  0  0  0  0  0  0  0  0  0  0  0
   38.4470   33.9720   50.1080 H   0  0  0  0  0  0  0  0  0  0  0  0
   40.4380   34.8320   49.0080 H   0  0  0  0  0  0  0  0  0  0  0  0
   41.0490   34.0390   46.7560 H   0  0  0  0  0  0  0  0  0  0  0  0
   39.7580   32.2690   45.2670 C   0  0  0  0  0  0  0  0  0  0  0  0
   40.5990   31.2400   44.8990 C   0  0  0  0  0  0  0  0  0  0  0  0
   40.6340   31.2150   43.5080 C   0  0  0  0  0  0  0  0  0  0  0  0
   39.8000   32.2450   43.1090 C   0  0  0  0  0  0  0  0  0  0  0  0
   39.2950   32.8520   44.1700 O   0  0  0  0  0  0  0  0  0  0  0  0
   41.0880   30.6280   45.6390 H   0  0  0  0  0  0  0  0  0  0  0  0
   41.2220   30.4980   42.9710 H   0  0  0  0  0  0  0  0  0  0  0  0
   39.6200   32.4820   42.0580 H   0  0  0  0  0  0  0  0  0  0  0  0
   36.7240   30.4800   46.0680 N   0  0  0  0  0  0  0  0  0  0  0  0
   37.4010   31.2570   46.5810 C   0  0  0  0  0  0  0  0  0  0  0  0
  1  6  1  0  0  0  0
  2  1  2  0  0  0  0
  2  3  1  0  0  0  0
  3  4  2  0  0  0  0
  4  5  1  0  0  0  0
  5  8  1  0  0  0  0
  6  5  2  0  0  0  0
  7  3  1  0  0  0  0
  9 10  2  0  0  0  0
  9 11  1  0  0  0  0
 11  2  1  0  0  0  0
 12 11  1  0  0  0  0
 13  9  1  0  0  0  0
 14 13  1  0  0  0  0
 14 15  1  0  0  0  0
 16 14  2  0  0  0  0
 17 19  2  0  0  0  0
 17 16  1  0  0  0  0
 18 17  1  0  0  0  0
 19 21  1  0  0  0  0
 20 19  1  0  0  0  0
 21 13  2  0  0  0  0
 22  1  1  0  0  0  0
 23 24  1  0  0  0  0
 24 25  2  0  0  0  0
 24 22  1  0  0  0  0
 25 29  1  0  0  0  0
 26 30  1  0  0  0  0
 26 25  1  0  0  0  0
 27 26  2  0  0  0  0
 28 23  2  0  0  0  0
 28 27  1  0  0  0  0
 31 27  1  0  0  0  0
 32 28  1  0  0  0  0
 33 32  2  0  0  0  0
 33 37  1  0  0  0  0
 34 33  1  0  0  0  0
 35 34  2  0  0  0  0
 35 36  1  0  0  0  0
 36 32  1  0  0  0  0
 38 34  1  0  0  0  0
 39 35  1  0  0  0  0
 40 41  3  0  0  0  0
 41 23  1  0  0  0  0
M  END
>  <minimizedAffinity>
-6.11243296

>  <minimizedRMSD>
0.52315861

$$$$
