
 OpenBabel03262521533D

 23 24  0  0  0  0  0  0  0  0999 V2000
   35.7720   29.5260   50.9550 C   0  0  0  0  0  0  0  0  0  0  0  0
   35.6710   30.1020   51.8930 H   0  0  0  0  0  0  0  0  0  0  0  0
   35.3390   28.5170   51.1250 H   0  0  0  0  0  0  0  0  0  0  0  0
   37.4770   29.2690   50.4370 S   0  0  0  0  0  0  0  0  0  0  0  0
   37.9050   30.5210   49.2420 C   0  0  0  0  0  0  0  0  0  0  0  0
   38.2600   31.7510   49.8120 C   0  0  0  0  0  0  0  0  0  0  0  0
   38.6070   32.7750   48.9300 C   0  0  0  0  0  0  0  0  0  0  0  0
   38.5910   32.5530   47.5820 N   0  0  0  0  0  0  0  0  0  0  0  0
   38.2360   31.3360   47.1020 C   0  0  0  0  0  0  0  0  0  0  0  0
   37.9020   30.3450   47.9190 N   0  0  0  0  0  0  0  0  0  0  0  0
   38.2780   31.9390   50.8790 H   0  0  0  0  0  0  0  0  0  0  0  0
   38.8840   33.7310   49.3560 H   0  0  0  0  0  0  0  0  0  0  0  0
   38.2030   31.0970   46.0480 H   0  0  0  0  0  0  0  0  0  0  0  0
   34.7580   30.2890   49.6460 S   0  0  0  0  0  0  0  0  0  0  0  0
   34.3910   29.1160   48.3560 C   0  0  0  0  0  0  0  0  0  0  0  0
   34.1190   27.8070   48.6940 C   0  0  0  0  0  0  0  0  0  0  0  0
   34.1300   27.5060   49.7260 H   0  0  0  0  0  0  0  0  0  0  0  0
   33.8460   26.9750   47.6390 C   0  0  0  0  0  3  0  0  0  0  0  0
   33.8180   27.3040   46.3160 C   0  0  0  0  0  0  0  0  0  0  0  0
   33.6010   26.6260   45.5160 H   0  0  0  0  0  0  0  0  0  0  0  0
   34.1080   28.6470   46.0920 C   0  0  0  0  0  0  0  0  0  0  0  0
   34.1120   29.0170   45.0530 H   0  0  0  0  0  0  0  0  0  0  0  0
   34.3990   29.5960   47.0480 C   0  0  0  0  0  3  0  0  0  0  0  0
  1  3  1  0  0  0  0
  1  2  1  0  0  0  0
  4  1  1  0  0  0  0
  5  6  1  0  0  0  0
  5  4  1  0  0  0  0
  6 11  1  0  0  0  0
  7 12  1  0  0  0  0
  7  6  2  0  0  0  0
  8  7  1  0  0  0  0
  9  8  2  0  0  0  0
  9 10  1  0  0  0  0
 10  5  2  0  0  0  0
 13  9  1  0  0  0  0
 14  1  1  0  0  0  0
 15 16  1  0  0  0  0
 15 14  1  0  0  0  0
 16 17  1  0  0  0  0
 18 16  2  0  0  0  0
 19 18  1  0  0  0  0
 20 19  1  0  0  0  0
 21 19  2  0  0  0  0
 21 23  1  0  0  0  0
 22 21  1  0  0  0  0
 23 15  2  0  0  0  0
M  END
>  <minimizedAffinity>
-4.47326374

>  <minimizedRMSD>
2.66046214

$$$$
