
 OpenBabel03262521533D

 23 24  0  0  0  0  0  0  0  0999 V2000
   35.7580   29.5010   50.9710 C   0  0  0  0  0  0  0  0  0  0  0  0
   35.6550   30.0700   51.9120 H   0  0  0  0  0  0  0  0  0  0  0  0
   35.3240   28.4910   51.1350 H   0  0  0  0  0  0  0  0  0  0  0  0
   37.4630   29.2470   50.4530 S   0  0  0  0  0  0  0  0  0  0  0  0
   37.8980   30.5180   49.2810 C   0  0  0  0  0  0  0  0  0  0  0  0
   38.2510   31.7380   49.8740 C   0  0  0  0  0  0  0  0  0  0  0  0
   38.6040   32.7760   49.0100 C   0  0  0  0  0  0  0  0  0  0  0  0
   38.5950   32.5770   47.6590 N   0  0  0  0  0  0  0  0  0  0  0  0
   38.2420   31.3680   47.1570 C   0  0  0  0  0  0  0  0  0  0  0  0
   37.9020   30.3640   47.9560 N   0  0  0  0  0  0  0  0  0  0  0  0
   38.2630   31.9090   50.9440 H   0  0  0  0  0  0  0  0  0  0  0  0
   38.8780   33.7250   49.4540 H   0  0  0  0  0  0  0  0  0  0  0  0
   38.2150   31.1460   46.0990 H   0  0  0  0  0  0  0  0  0  0  0  0
   34.7440   30.2710   49.6650 S   0  0  0  0  0  0  0  0  0  0  0  0
   34.3830   29.1080   48.3650 C   0  0  0  0  0  0  0  0  0  0  0  0
   34.1110   27.7960   48.6930 C   0  0  0  0  0  0  0  0  0  0  0  0
   34.1180   27.4870   49.7220 H   0  0  0  0  0  0  0  0  0  0  0  0
   33.8430   26.9720   47.6300 C   0  0  0  0  0  3  0  0  0  0  0  0
   33.8190   27.3100   46.3100 C   0  0  0  0  0  0  0  0  0  0  0  0
   33.6070   26.6380   45.5040 H   0  0  0  0  0  0  0  0  0  0  0  0
   34.1100   28.6550   46.0960 C   0  0  0  0  0  0  0  0  0  0  0  0
   34.1170   29.0320   45.0610 H   0  0  0  0  0  0  0  0  0  0  0  0
   34.3960   29.5980   47.0610 C   0  0  0  0  0  3  0  0  0  0  0  0
  1  3  1  0  0  0  0
  1  2  1  0  0  0  0
  4  1  1  0  0  0  0
  5  6  1  0  0  0  0
  5  4  1  0  0  0  0
  6 11  1  0  0  0  0
  7 12  1  0  0  0  0
  7  6  2  0  0  0  0
  8  7  1  0  0  0  0
  9  8  2  0  0  0  0
  9 10  1  0  0  0  0
 10  5  2  0  0  0  0
 13  9  1  0  0  0  0
 14  1  1  0  0  0  0
 15 16  1  0  0  0  0
 15 14  1  0  0  0  0
 16 17  1  0  0  0  0
 18 16  2  0  0  0  0
 19 18  1  0  0  0  0
 20 19  1  0  0  0  0
 21 19  2  0  0  0  0
 21 23  1  0  0  0  0
 22 21  1  0  0  0  0
 23 15  2  0  0  0  0
M  END
>  <minimizedAffinity>
-4.4707098

>  <minimizedRMSD>
2.68737698

$$$$
