
 OpenBabel03262521533D

 23 24  0  0  0  0  0  0  0  0999 V2000
   35.7530   29.4980   50.9590 C   0  0  0  0  0  0  0  0  0  0  0  0
   35.6440   30.0510   51.9090 H   0  0  0  0  0  0  0  0  0  0  0  0
   35.3140   28.4860   51.1010 H   0  0  0  0  0  0  0  0  0  0  0  0
   37.4610   29.2480   50.4500 S   0  0  0  0  0  0  0  0  0  0  0  0
   37.9000   30.5190   49.2800 C   0  0  0  0  0  0  0  0  0  0  0  0
   38.2520   31.7390   49.8740 C   0  0  0  0  0  0  0  0  0  0  0  0
   38.6070   32.7780   49.0120 C   0  0  0  0  0  0  0  0  0  0  0  0
   38.6000   32.5790   47.6610 N   0  0  0  0  0  0  0  0  0  0  0  0
   38.2480   31.3710   47.1570 C   0  0  0  0  0  0  0  0  0  0  0  0
   37.9060   30.3670   47.9550 N   0  0  0  0  0  0  0  0  0  0  0  0
   38.2620   31.9090   50.9440 H   0  0  0  0  0  0  0  0  0  0  0  0
   38.8820   33.7260   49.4570 H   0  0  0  0  0  0  0  0  0  0  0  0
   38.2220   31.1500   46.0990 H   0  0  0  0  0  0  0  0  0  0  0  0
   34.7520   30.2940   49.6590 S   0  0  0  0  0  0  0  0  0  0  0  0
   34.3910   29.1530   48.3390 C   0  0  0  0  0  0  0  0  0  0  0  0
   34.4020   29.6060   47.0370 C   0  0  0  0  0  0  0  0  0  0  0  0
   34.6260   30.6360   46.8280 H   0  0  0  0  0  0  0  0  0  0  0  0
   34.1140   28.6590   46.0870 C   0  0  0  0  0  0  0  0  0  0  0  0
   33.8230   27.3430   46.2960 C   0  0  0  0  0  0  0  0  0  0  0  0
   33.6020   26.6300   45.5280 H   0  0  0  0  0  0  0  0  0  0  0  0
   33.8410   26.9980   47.6450 C   0  0  0  0  0  0  0  0  0  0  0  0
   33.6200   25.9550   47.9230 H   0  0  0  0  0  0  0  0  0  0  0  0
   34.1130   27.8370   48.7050 C   0  0  0  0  0  0  0  0  0  0  0  0
  1  3  1  0  0  0  0
  1  2  1  0  0  0  0
  4  1  1  0  0  0  0
  5  6  1  0  0  0  0
  5  4  1  0  0  0  0
  6 11  1  0  0  0  0
  7 12  1  0  0  0  0
  7  6  2  0  0  0  0
  8  7  1  0  0  0  0
  9  8  2  0  0  0  0
  9 10  1  0  0  0  0
 10  5  2  0  0  0  0
 13  9  1  0  0  0  0
 14  1  1  0  0  0  0
 15 23  1  0  0  0  0
 15 14  1  0  0  0  0
 16 15  2  0  0  0  0
 17 16  1  0  0  0  0
 18 19  2  0  0  0  0
 18 16  1  0  0  0  0
 19 21  1  0  0  0  0
 20 19  1  0  0  0  0
 21 22  1  0  0  0  0
 21 23  2  0  0  0  0
M  END
>  <minimizedAffinity>
-4.47872257

>  <minimizedRMSD>
2.71511626

$$$$
