
 OpenBabel03272509313D

 38 40  0  0  1  0  0  0  0  0999 V2000
   36.4530   30.7600   49.0220 C   0  0  2  0  0  0  0  0  0  0  0  0
   37.4580   31.5880   49.7670 C   0  0  0  0  0  0  0  0  0  0  0  0
   38.3030   30.7720   50.7200 C   0  0  0  0  0  0  0  0  0  0  0  0
   37.4210   30.0130   51.7080 C   0  0  0  0  0  0  0  0  0  0  0  0
   36.1400   29.4950   51.1110 C   0  0  0  0  0  0  0  0  0  0  0  0
   36.3290   29.3830   49.5870 C   0  0  1  0  0  0  0  0  0  0  0  0
   35.4090   31.1820   49.0380 H   0  0  0  0  0  0  0  0  0  0  0  0
   38.0490   32.2810   49.2020 H   0  0  0  0  0  0  0  0  0  0  0  0
   36.8240   32.2370   50.4610 H   0  0  0  0  0  0  0  0  0  0  0  0
   38.9170   31.4710   51.2870 H   0  0  0  0  0  0  0  0  0  0  0  0
   38.9380   30.0330   50.2210 H   0  0  0  0  0  0  0  0  0  0  0  0
   37.9940   29.1420   52.0910 H   0  0  0  0  0  0  0  0  0  0  0  0
   37.1980   30.6520   52.5940 H   0  0  0  0  0  0  0  0  0  0  0  0
   35.8350   28.5210   51.5220 H   0  0  0  0  0  0  0  0  0  0  0  0
   35.3390   30.2200   51.2940 H   0  0  0  0  0  0  0  0  0  0  0  0
   37.2590   28.8690   49.5510 H   0  0  0  0  0  0  0  0  0  0  0  0
   36.8070   30.6560   47.5810 C   0  0  0  0  0  0  0  0  0  0  0  0
   38.1710   30.8210   47.2790 C   0  0  0  0  0  0  0  0  0  0  0  0
   38.5330   30.7240   45.9300 C   0  0  0  0  0  0  0  0  0  0  0  0
   37.5490   30.4750   44.9980 N   0  0  0  0  0  0  0  0  0  0  0  0
   36.2350   30.3210   45.3470 C   0  0  0  0  0  0  0  0  0  0  0  0
   35.8840   30.4150   46.6450 N   0  0  0  0  0  0  0  0  0  0  0  0
   39.0280   31.0060   47.8960 H   0  0  0  0  0  0  0  0  0  0  0  0
   39.5300   30.8280   45.5470 H   0  0  0  0  0  0  0  0  0  0  0  0
   35.5150   30.1260   44.5540 H   0  0  0  0  0  0  0  0  0  0  0  0
   34.0000   28.4630   49.1490 C   0  0  0  0  0  0  0  0  0  0  0  0
   33.2300   29.1670   49.9040 O   0  0  0  0  0  0  0  0  0  0  0  0
   35.3940   28.5500   48.9260 N   0  0  0  0  0  0  0  0  0  0  0  0
   35.7310   27.8990   48.1590 H   0  0  0  0  0  0  0  0  0  0  0  0
   33.1660   27.4530   48.4750 C   0  0  0  0  0  0  0  0  0  0  0  0
   31.7980   27.4250   48.5720 C   0  0  0  0  0  0  0  0  0  0  0  0
   31.2520   28.1520   49.1540 H   0  0  0  0  0  0  0  0  0  0  0  0
   30.9820   26.4890   47.9560 C   0  0  0  0  0  0  0  0  0  0  0  0
   31.5410   25.5140   47.1920 C   0  0  0  0  0  0  0  0  0  0  0  0
   30.9120   24.7810   46.7090 H   0  0  0  0  0  0  0  0  0  0  0  0
   32.9080   25.4930   47.0590 C   0  0  0  0  0  0  0  0  0  0  0  0
   33.3150   24.7020   46.4430 H   0  0  0  0  0  0  0  0  0  0  0  0
   33.6730   26.4440   47.6900 C   0  0  0  0  0  0  0  0  0  0  0  0
  1  7  1  1  0  0  0
  1  6  1  0  0  0  0
  1  2  1  0  0  0  0
  2  9  1  0  0  0  0
  2  3  1  0  0  0  0
  3 10  1  0  0  0  0
  3  4  1  0  0  0  0
  4 12  1  0  0  0  0
  4 13  1  0  0  0  0
  5 15  1  0  0  0  0
  5 14  1  0  0  0  0
  5  4  1  0  0  0  0
  6 16  1  6  0  0  0
  6  5  1  0  0  0  0
  8  2  1  0  0  0  0
 11  3  1  0  0  0  0
 17  1  1  0  0  0  0
 18 17  1  0  0  0  0
 18 23  1  0  0  0  0
 19 18  2  0  0  0  0
 20 21  2  0  0  0  0
 20 19  1  0  0  0  0
 21 22  1  0  0  0  0
 22 17  2  0  0  0  0
 24 19  1  0  0  0  0
 25 21  1  0  0  0  0
 26 27  2  0  0  0  0
 28 26  1  0  0  0  0
 28  6  1  0  0  0  0
 29 28  1  0  0  0  0
 30 31  1  0  0  0  0
 30 26  1  0  0  0  0
 31 32  1  0  0  0  0
 33 31  2  0  0  0  0
 34 33  1  0  0  0  0
 35 34  1  0  0  0  0
 36 34  2  0  0  0  0
 36 38  1  0  0  0  0
 37 36  1  0  0  0  0
 38 30  2  0  0  0  0
M  END
>  <minimizedAffinity>
-6.29012537

>  <minimizedRMSD>
0.509644508

$$$$
