
 OpenBabel03262520333D

 23 24  0  0  0  0  0  0  0  0999 V2000
   36.3110   28.0750   33.3140 C   0  0  0  0  0  0  0  0  0  0  0  0
   35.6800   27.1490   33.2190 H   0  0  0  0  0  0  0  0  0  0  0  0
   36.4490   28.5160   32.2970 H   0  0  0  0  0  0  0  0  0  0  0  0
   37.6340   27.5770   33.7900 C   0  0  0  0  0  0  0  0  0  0  0  0
   38.6860   27.1770   32.9930 C   0  0  0  0  0  0  0  0  0  0  0  0
   38.5280   27.2320   31.9290 H   0  0  0  0  0  0  0  0  0  0  0  0
   39.8660   26.7340   33.5540 C   0  0  0  0  0  3  0  0  0  0  0  0
   40.0320   26.6770   34.9400 C   0  0  0  0  0  0  0  0  0  0  0  0
   40.9470   26.3330   35.4120 H   0  0  0  0  0  0  0  0  0  0  0  0
   38.9930   27.0730   35.7490 C   0  0  0  0  0  0  0  0  0  0  0  0
   39.1060   27.0350   36.8270 H   0  0  0  0  0  0  0  0  0  0  0  0
   37.8140   27.5160   35.1770 C   0  0  0  0  0  3  0  0  0  0  0  0
   35.5420   30.2780   34.2480 C   0  0  0  0  0  3  0  0  0  0  0  0
   35.6470   28.9880   34.2420 C   0  0  0  0  0  3  0  0  0  0  0  0
   34.6610   32.4040   37.0990 C   0  0  0  0  0  0  0  0  0  0  0  0
   33.2990   32.0460   37.2940 C   0  0  0  0  0  0  0  0  0  0  0  0
   32.7190   31.0760   36.4330 C   0  0  0  0  0  0  0  0  0  0  0  0
   33.5330   30.5540   35.4650 N   0  0  0  0  0  0  0  0  0  0  0  0
   34.8090   30.9210   35.3180 C   0  0  0  0  0  0  0  0  0  0  0  0
   35.3640   31.8340   36.1260 N   0  0  0  0  0  0  0  0  0  0  0  0
   35.0590   33.1470   37.7780 H   0  0  0  0  0  0  0  0  0  0  0  0
   32.7070   32.4930   38.0760 H   0  0  0  0  0  0  0  0  0  0  0  0
   31.6920   30.7810   36.5520 H   0  0  0  0  0  0  0  0  0  0  0  0
  1  4  1  0  0  0  0
  1 14  1  0  0  0  0
  2  1  1  0  0  0  0
  3  1  1  0  0  0  0
  4 12  1  0  0  0  0
  5  7  1  0  0  0  0
  5  4  2  0  0  0  0
  6  5  1  0  0  0  0
  7  8  2  0  0  0  0
  8  9  1  0  0  0  0
  8 10  1  0  0  0  0
 10 11  1  0  0  0  0
 12 10  2  0  0  0  0
 13 19  1  0  0  0  0
 14 13  2  0  0  0  0
 15 16  1  0  0  0  0
 15 21  1  0  0  0  0
 16 22  1  0  0  0  0
 17 23  1  0  0  0  0
 17 16  2  0  0  0  0
 18 17  1  0  0  0  0
 19 18  2  0  0  0  0
 19 20  1  0  0  0  0
 20 15  2  0  0  0  0
M  END
>  <minimizedAffinity>
-4.65374565

$$$$

 OpenBabel03262520333D

 23 24  0  0  0  0  0  0  0  0999 V2000
   36.3000   28.1000   33.4530 C   0  0  0  0  0  0  0  0  0  0  0  0
   35.6620   27.1790   33.3530 H   0  0  0  0  0  0  0  0  0  0  0  0
   36.4730   28.5250   32.4350 H   0  0  0  0  0  0  0  0  0  0  0  0
   37.6030   27.5960   33.9770 C   0  0  0  0  0  0  0  0  0  0  0  0
   37.9490   27.4680   35.3060 C   0  0  0  0  0  0  0  0  0  0  0  0
   37.2010   27.7620   36.0250 H   0  0  0  0  0  0  0  0  0  0  0  0
   39.1890   26.9870   35.6670 C   0  0  0  0  0  3  0  0  0  0  0  0
   40.1310   26.6160   34.7030 C   0  0  0  0  0  0  0  0  0  0  0  0
   41.1150   26.2350   34.9550 H   0  0  0  0  0  0  0  0  0  0  0  0
   39.8020   26.7380   33.3750 C   0  0  0  0  0  0  0  0  0  0  0  0
   40.5210   26.4550   32.6140 H   0  0  0  0  0  0  0  0  0  0  0  0
   38.5550   27.2210   33.0220 C   0  0  0  0  0  3  0  0  0  0  0  0
   35.6320   30.3260   34.4100 C   0  0  0  0  0  3  0  0  0  0  0  0
   35.6170   29.0340   34.3480 C   0  0  0  0  0  3  0  0  0  0  0  0
   34.5840   32.5340   37.1400 C   0  0  0  0  0  0  0  0  0  0  0  0
   33.2210   32.1560   37.2870 C   0  0  0  0  0  0  0  0  0  0  0  0
   32.6990   31.1450   36.4360 C   0  0  0  0  0  0  0  0  0  0  0  0
   33.5650   30.6050   35.5260 N   0  0  0  0  0  0  0  0  0  0  0  0
   34.8390   30.9920   35.4230 C   0  0  0  0  0  0  0  0  0  0  0  0
   35.3410   31.9440   36.2210 N   0  0  0  0  0  0  0  0  0  0  0  0
   34.9380   33.3080   37.8090 H   0  0  0  0  0  0  0  0  0  0  0  0
   32.5860   32.6180   38.0250 H   0  0  0  0  0  0  0  0  0  0  0  0
   31.6730   30.8340   36.5200 H   0  0  0  0  0  0  0  0  0  0  0  0
  1  4  1  0  0  0  0
  1 14  1  0  0  0  0
  2  1  1  0  0  0  0
  3  1  1  0  0  0  0
  4  5  1  0  0  0  0
  5  7  2  0  0  0  0
  5  6  1  0  0  0  0
  8  9  1  0  0  0  0
  8  7  1  0  0  0  0
 10  8  2  0  0  0  0
 11 10  1  0  0  0  0
 12 10  1  0  0  0  0
 12  4  2  0  0  0  0
 13 19  1  0  0  0  0
 14 13  2  0  0  0  0
 15 16  1  0  0  0  0
 15 21  1  0  0  0  0
 16 22  1  0  0  0  0
 17 23  1  0  0  0  0
 17 16  2  0  0  0  0
 18 17  1  0  0  0  0
 19 18  2  0  0  0  0
 19 20  1  0  0  0  0
 20 15  2  0  0  0  0
M  END
>  <minimizedAffinity>
-4.56208658

$$$$

 OpenBabel03262520333D

 23 24  0  0  0  0  0  0  0  0999 V2000
   35.6490   29.6480   33.8190 C   0  0  0  0  0  0  0  0  0  0  0  0
   36.4460   30.2860   33.3490 H   0  0  0  0  0  0  0  0  0  0  0  0
   34.8350   29.4880   33.0720 H   0  0  0  0  0  0  0  0  0  0  0  0
   35.1070   30.4860   34.9280 C   0  0  0  0  0  0  0  0  0  0  0  0
   35.8310   31.3500   35.7220 C   0  0  0  0  0  0  0  0  0  0  0  0
   36.8870   31.4190   35.5140 H   0  0  0  0  0  0  0  0  0  0  0  0
   35.2150   32.0740   36.7200 C   0  0  0  0  0  3  0  0  0  0  0  0
   33.8420   31.9570   36.9580 C   0  0  0  0  0  0  0  0  0  0  0  0
   33.3280   32.5120   37.7360 H   0  0  0  0  0  0  0  0  0  0  0  0
   33.1060   31.1000   36.1760 C   0  0  0  0  0  0  0  0  0  0  0  0
   32.0400   30.9960   36.3470 H   0  0  0  0  0  0  0  0  0  0  0  0
   33.7340   30.3780   35.1770 C   0  0  0  0  0  3  0  0  0  0  0  0
   37.0710   27.5820   33.6630 C   0  0  0  0  0  3  0  0  0  0  0  0
   36.2660   28.3980   34.2620 C   0  0  0  0  0  3  0  0  0  0  0  0
   38.1580   25.2800   36.2990 C   0  0  0  0  0  0  0  0  0  0  0  0
   38.3830   24.0940   35.5480 C   0  0  0  0  0  0  0  0  0  0  0  0
   38.1520   24.1210   34.1470 C   0  0  0  0  0  0  0  0  0  0  0  0
   37.7240   25.3080   33.6200 N   0  0  0  0  0  0  0  0  0  0  0  0
   37.5250   26.3990   34.3650 C   0  0  0  0  0  0  0  0  0  0  0  0
   37.7410   26.3840   35.6880 N   0  0  0  0  0  0  0  0  0  0  0  0
   38.3470   25.2120   37.3630 H   0  0  0  0  0  0  0  0  0  0  0  0
   38.7220   23.1860   36.0200 H   0  0  0  0  0  0  0  0  0  0  0  0
   38.3110   23.2420   33.5480 H   0  0  0  0  0  0  0  0  0  0  0  0
  1 14  1  0  0  0  0
  1  4  1  0  0  0  0
  2  1  1  0  0  0  0
  3  1  1  0  0  0  0
  4 12  2  0  0  0  0
  4  5  1  0  0  0  0
  5  7  2  0  0  0  0
  6  5  1  0  0  0  0
  7  8  1  0  0  0  0
  8  9  1  0  0  0  0
 10 11  1  0  0  0  0
 10  8  2  0  0  0  0
 12 10  1  0  0  0  0
 13 14  2  0  0  0  0
 13 19  1  0  0  0  0
 15 21  1  0  0  0  0
 16 22  1  0  0  0  0
 16 15  2  0  0  0  0
 17 16  1  0  0  0  0
 18 17  2  0  0  0  0
 18 19  1  0  0  0  0
 19 20  2  0  0  0  0
 20 15  1  0  0  0  0
 23 17  1  0  0  0  0
M  END
>  <minimizedAffinity>
-4.50588274

$$$$

 OpenBabel03262520333D

 23 24  0  0  0  0  0  0  0  0999 V2000
   34.5540   29.7660   33.9760 C   0  0  0  0  0  0  0  0  0  0  0  0
   34.6790   30.5300   33.1610 H   0  0  0  0  0  0  0  0  0  0  0  0
   33.7210   29.0790   33.6940 H   0  0  0  0  0  0  0  0  0  0  0  0
   34.1240   30.5580   35.1660 C   0  0  0  0  0  0  0  0  0  0  0  0
   32.8720   30.5400   35.7440 C   0  0  0  0  0  0  0  0  0  0  0  0
   32.1430   29.8910   35.2860 H   0  0  0  0  0  0  0  0  0  0  0  0
   32.5940   31.3200   36.8460 C   0  0  0  0  0  3  0  0  0  0  0  0
   33.5680   32.1490   37.4100 C   0  0  0  0  0  0  0  0  0  0  0  0
   33.3800   32.7750   38.2770 H   0  0  0  0  0  0  0  0  0  0  0  0
   34.8200   32.1790   36.8460 C   0  0  0  0  0  0  0  0  0  0  0  0
   35.5880   32.8170   37.2710 H   0  0  0  0  0  0  0  0  0  0  0  0
   35.0900   31.3920   35.7410 C   0  0  0  0  0  3  0  0  0  0  0  0
   36.3360   28.0490   33.5420 C   0  0  0  0  0  3  0  0  0  0  0  0
   35.8280   29.0710   34.1510 C   0  0  0  0  0  3  0  0  0  0  0  0
   39.7740   26.7830   33.4490 C   0  0  0  0  0  0  0  0  0  0  0  0
   40.0660   26.6900   34.8370 C   0  0  0  0  0  0  0  0  0  0  0  0
   39.0660   27.0690   35.7710 C   0  0  0  0  0  0  0  0  0  0  0  0
   37.8760   27.5000   35.2520 N   0  0  0  0  0  0  0  0  0  0  0  0
   37.6450   27.5720   33.9380 C   0  0  0  0  0  0  0  0  0  0  0  0
   38.5830   27.2170   33.0490 N   0  0  0  0  0  0  0  0  0  0  0  0
   40.5670   26.4850   32.7750 H   0  0  0  0  0  0  0  0  0  0  0  0
   41.0240   26.3410   35.1870 H   0  0  0  0  0  0  0  0  0  0  0  0
   39.2530   27.0110   36.8290 H   0  0  0  0  0  0  0  0  0  0  0  0
  1 14  1  0  0  0  0
  1  4  1  0  0  0  0
  2  1  1  0  0  0  0
  3  1  1  0  0  0  0
  4 12  2  0  0  0  0
  4  5  1  0  0  0  0
  5  7  2  0  0  0  0
  6  5  1  0  0  0  0
  7  8  1  0  0  0  0
  8  9  1  0  0  0  0
 10 11  1  0  0  0  0
 10  8  2  0  0  0  0
 12 10  1  0  0  0  0
 13 19  1  0  0  0  0
 13 14  2  0  0  0  0
 15 16  1  0  0  0  0
 16 22  1  0  0  0  0
 16 17  2  0  0  0  0
 17 23  1  0  0  0  0
 18 17  1  0  0  0  0
 19 18  2  0  0  0  0
 20 15  2  0  0  0  0
 20 19  1  0  0  0  0
 21 15  1  0  0  0  0
M  END
>  <minimizedAffinity>
-4.44208574

$$$$

 OpenBabel03262520333D

 23 24  0  0  0  0  0  0  0  0999 V2000
   38.5890   24.2870   34.5230 C   0  0  0  0  0  0  0  0  0  0  0  0
   38.0470   23.3990   34.0950 H   0  0  0  0  0  0  0  0  0  0  0  0
   39.6330   24.2900   34.1270 H   0  0  0  0  0  0  0  0  0  0  0  0
   38.6450   24.0190   35.9890 C   0  0  0  0  0  0  0  0  0  0  0  0
   37.7970   24.5390   36.9430 C   0  0  0  0  0  0  0  0  0  0  0  0
   37.0240   25.2000   36.5860 H   0  0  0  0  0  0  0  0  0  0  0  0
   37.9500   24.2150   38.2740 C   0  0  0  0  0  3  0  0  0  0  0  0
   38.9650   23.3520   38.6970 C   0  0  0  0  0  0  0  0  0  0  0  0
   39.1130   23.0790   39.7370 H   0  0  0  0  0  0  0  0  0  0  0  0
   39.8200   22.8260   37.7590 C   0  0  0  0  0  0  0  0  0  0  0  0
   40.6140   22.1550   38.0700 H   0  0  0  0  0  0  0  0  0  0  0  0
   39.6580   23.1560   36.4260 C   0  0  0  0  0  3  0  0  0  0  0  0
   38.2380   26.6440   33.7240 C   0  0  0  0  0  3  0  0  0  0  0  0
   37.8440   25.4930   34.1650 C   0  0  0  0  0  3  0  0  0  0  0  0
   35.5300   29.0830   34.1060 C   0  0  0  0  0  0  0  0  0  0  0  0
   35.4460   29.6030   32.7860 C   0  0  0  0  0  0  0  0  0  0  0  0
   36.3290   29.0960   31.7950 C   0  0  0  0  0  0  0  0  0  0  0  0
   37.2080   28.1290   32.1980 N   0  0  0  0  0  0  0  0  0  0  0  0
   37.2520   27.6690   33.4510 C   0  0  0  0  0  0  0  0  0  0  0  0
   36.4230   28.1410   34.3920 N   0  0  0  0  0  0  0  0  0  0  0  0
   34.8380   29.5000   34.8260 H   0  0  0  0  0  0  0  0  0  0  0  0
   34.7300   30.3670   32.5270 H   0  0  0  0  0  0  0  0  0  0  0  0
   36.2920   29.4670   30.7860 H   0  0  0  0  0  0  0  0  0  0  0  0
  1  4  1  0  0  0  0
  2  1  1  0  0  0  0
  3  1  1  0  0  0  0
  4 12  2  0  0  0  0
  4  5  1  0  0  0  0
  5  7  2  0  0  0  0
  6  5  1  0  0  0  0
  7  8  1  0  0  0  0
  8  9  1  0  0  0  0
 10 11  1  0  0  0  0
 10  8  2  0  0  0  0
 12 10  1  0  0  0  0
 13 14  2  0  0  0  0
 14  1  1  0  0  0  0
 15 20  1  0  0  0  0
 15 21  1  0  0  0  0
 16 15  2  0  0  0  0
 17 18  2  0  0  0  0
 17 16  1  0  0  0  0
 18 19  1  0  0  0  0
 19 13  1  0  0  0  0
 19 20  2  0  0  0  0
 22 16  1  0  0  0  0
 23 17  1  0  0  0  0
M  END
>  <minimizedAffinity>
-4.42956734

$$$$

 OpenBabel03262520333D

 23 24  0  0  0  0  0  0  0  0999 V2000
   38.0480   26.2550   32.9400 C   0  0  0  0  0  0  0  0  0  0  0  0
   39.0550   26.6080   32.5830 H   0  0  0  0  0  0  0  0  0  0  0  0
   37.6100   25.5860   32.1620 H   0  0  0  0  0  0  0  0  0  0  0  0
   37.2220   27.4950   33.0100 C   0  0  0  0  0  0  0  0  0  0  0  0
   36.9270   28.3350   31.9570 C   0  0  0  0  0  0  0  0  0  0  0  0
   37.3360   28.0610   30.9980 H   0  0  0  0  0  0  0  0  0  0  0  0
   36.1490   29.4570   32.1470 C   0  0  0  0  0  3  0  0  0  0  0  0
   35.6360   29.7770   33.4070 C   0  0  0  0  0  0  0  0  0  0  0  0
   35.0210   30.6530   33.5900 H   0  0  0  0  0  0  0  0  0  0  0  0
   35.9210   28.9510   34.4680 C   0  0  0  0  0  0  0  0  0  0  0  0
   35.5310   29.1850   35.4530 H   0  0  0  0  0  0  0  0  0  0  0  0
   36.7030   27.8280   34.2670 C   0  0  0  0  0  3  0  0  0  0  0  0
   39.1000   24.7150   34.6250 C   0  0  0  0  0  3  0  0  0  0  0  0
   38.2290   25.5850   34.2270 C   0  0  0  0  0  3  0  0  0  0  0  0
   39.7580   22.8340   37.7000 C   0  0  0  0  0  0  0  0  0  0  0  0
   38.7770   23.3840   38.5700 C   0  0  0  0  0  0  0  0  0  0  0  0
   37.9120   24.3930   38.0690 C   0  0  0  0  0  0  0  0  0  0  0  0
   38.0930   24.7630   36.7650 N   0  0  0  0  0  0  0  0  0  0  0  0
   39.0300   24.2190   35.9840 C   0  0  0  0  0  0  0  0  0  0  0  0
   39.8510   23.2660   36.4470 N   0  0  0  0  0  0  0  0  0  0  0  0
   40.3960   22.0700   38.1250 H   0  0  0  0  0  0  0  0  0  0  0  0
   38.6810   23.0510   39.5900 H   0  0  0  0  0  0  0  0  0  0  0  0
   37.1580   24.8310   38.6990 H   0  0  0  0  0  0  0  0  0  0  0  0
  1  4  1  0  0  0  0
  1 14  1  0  0  0  0
  2  1  1  0  0  0  0
  3  1  1  0  0  0  0
  4 12  1  0  0  0  0
  5  7  1  0  0  0  0
  5  4  2  0  0  0  0
  6  5  1  0  0  0  0
  7  8  2  0  0  0  0
  8  9  1  0  0  0  0
  8 10  1  0  0  0  0
 10 11  1  0  0  0  0
 12 10  2  0  0  0  0
 13 19  1  0  0  0  0
 14 13  2  0  0  0  0
 15 21  1  0  0  0  0
 15 16  1  0  0  0  0
 16 22  1  0  0  0  0
 17 16  2  0  0  0  0
 17 23  1  0  0  0  0
 18 17  1  0  0  0  0
 19 20  1  0  0  0  0
 19 18  2  0  0  0  0
 20 15  2  0  0  0  0
M  END
>  <minimizedAffinity>
-4.37972784

$$$$

 OpenBabel03262520333D

 23 24  0  0  0  0  0  0  0  0999 V2000
   36.0390   23.0080   31.2500 C   0  0  0  0  0  0  0  0  0  0  0  0
   34.9930   23.3370   31.0000 H   0  0  0  0  0  0  0  0  0  0  0  0
   36.6430   23.0030   30.3110 H   0  0  0  0  0  0  0  0  0  0  0  0
   35.8850   21.5980   31.7120 C   0  0  0  0  0  0  0  0  0  0  0  0
   35.5260   21.1940   32.9810 C   0  0  0  0  0  0  0  0  0  0  0  0
   35.3420   21.9780   33.6980 H   0  0  0  0  0  0  0  0  0  0  0  0
   35.4160   19.8550   33.2900 C   0  0  0  0  0  3  0  0  0  0  0  0
   35.6630   18.8680   32.3300 C   0  0  0  0  0  0  0  0  0  0  0  0
   35.5850   17.8070   32.5410 H   0  0  0  0  0  0  0  0  0  0  0  0
   36.0220   19.2540   31.0610 C   0  0  0  0  0  0  0  0  0  0  0  0
   36.2170   18.5010   30.3050 H   0  0  0  0  0  0  0  0  0  0  0  0
   36.1290   20.6000   30.7610 C   0  0  0  0  0  3  0  0  0  0  0  0
   36.8230   25.1830   32.2330 C   0  0  0  0  0  3  0  0  0  0  0  0
   36.5740   23.9140   32.2640 C   0  0  0  0  0  3  0  0  0  0  0  0
   37.4390   27.5690   34.9460 C   0  0  0  0  0  0  0  0  0  0  0  0
   38.4770   26.9080   35.6580 C   0  0  0  0  0  0  0  0  0  0  0  0
   38.9380   25.6520   35.1810 C   0  0  0  0  0  0  0  0  0  0  0  0
   38.3360   25.1690   34.0520 N   0  0  0  0  0  0  0  0  0  0  0  0
   37.3620   25.8250   33.4150 C   0  0  0  0  0  0  0  0  0  0  0  0
   36.9210   27.0100   33.8580 N   0  0  0  0  0  0  0  0  0  0  0  0
   37.1190   28.5220   35.3470 H   0  0  0  0  0  0  0  0  0  0  0  0
   38.9140   27.3410   36.5440 H   0  0  0  0  0  0  0  0  0  0  0  0
   39.7220   25.1250   35.6950 H   0  0  0  0  0  0  0  0  0  0  0  0
  1  4  1  0  0  0  0
  1 14  1  0  0  0  0
  2  1  1  0  0  0  0
  3  1  1  0  0  0  0
  4  5  1  0  0  0  0
  5  7  2  0  0  0  0
  5  6  1  0  0  0  0
  8  9  1  0  0  0  0
  8  7  1  0  0  0  0
 10  8  2  0  0  0  0
 11 10  1  0  0  0  0
 12 10  1  0  0  0  0
 12  4  2  0  0  0  0
 13 14  2  0  0  0  0
 13 19  1  0  0  0  0
 15 21  1  0  0  0  0
 15 16  1  0  0  0  0
 16 22  1  0  0  0  0
 17 16  2  0  0  0  0
 17 23  1  0  0  0  0
 18 17  1  0  0  0  0
 19 20  1  0  0  0  0
 19 18  2  0  0  0  0
 20 15  2  0  0  0  0
M  END
>  <minimizedAffinity>
-4.36160564

$$$$

 OpenBabel03262520333D

 23 24  0  0  0  0  0  0  0  0999 V2000
   36.4390   28.2560   34.4040 C   0  0  0  0  0  0  0  0  0  0  0  0
   35.3380   28.1420   34.5980 H   0  0  0  0  0  0  0  0  0  0  0  0
   36.8050   29.1580   34.9520 H   0  0  0  0  0  0  0  0  0  0  0  0
   36.5330   28.5290   32.9400 C   0  0  0  0  0  0  0  0  0  0  0  0
   35.8020   29.4650   32.2400 C   0  0  0  0  0  0  0  0  0  0  0  0
   35.1000   30.0490   32.8120 H   0  0  0  0  0  0  0  0  0  0  0  0
   35.9790   29.6250   30.8820 C   0  0  0  0  0  3  0  0  0  0  0  0
   36.9010   28.8470   30.1750 C   0  0  0  0  0  0  0  0  0  0  0  0
   37.0630   28.9480   29.1080 H   0  0  0  0  0  0  0  0  0  0  0  0
   37.6380   27.9100   30.8590 C   0  0  0  0  0  0  0  0  0  0  0  0
   38.3570   27.2970   30.3260 H   0  0  0  0  0  0  0  0  0  0  0  0
   37.4530   27.7570   32.2210 C   0  0  0  0  0  3  0  0  0  0  0  0
   38.0120   26.8100   35.7260 C   0  0  0  0  0  3  0  0  0  0  0  0
   37.1080   27.0270   34.8270 C   0  0  0  0  0  3  0  0  0  0  0  0
   40.0220   23.7500   35.5460 C   0  0  0  0  0  0  0  0  0  0  0  0
   39.2830   22.8900   36.4020 C   0  0  0  0  0  0  0  0  0  0  0  0
   38.1060   23.3900   37.0210 C   0  0  0  0  0  0  0  0  0  0  0  0
   37.7700   24.6850   36.7390 N   0  0  0  0  0  0  0  0  0  0  0  0
   38.4960   25.4590   35.9270 C   0  0  0  0  0  0  0  0  0  0  0  0
   39.6070   24.9960   35.3390 N   0  0  0  0  0  0  0  0  0  0  0  0
   40.9110   23.3260   35.0970 H   0  0  0  0  0  0  0  0  0  0  0  0
   39.5970   21.8750   36.5870 H   0  0  0  0  0  0  0  0  0  0  0  0
   37.5230   22.7660   37.6750 H   0  0  0  0  0  0  0  0  0  0  0  0
  1  2  1  0  0  0  0
  1 14  1  0  0  0  0
  1  3  1  0  0  0  0
  4  1  1  0  0  0  0
  5  6  1  0  0  0  0
  5  4  1  0  0  0  0
  7  5  2  0  0  0  0
  8 10  2  0  0  0  0
  8  7  1  0  0  0  0
  9  8  1  0  0  0  0
 10 12  1  0  0  0  0
 11 10  1  0  0  0  0
 12  4  2  0  0  0  0
 13 19  1  0  0  0  0
 14 13  2  0  0  0  0
 15 16  1  0  0  0  0
 16 22  1  0  0  0  0
 16 17  2  0  0  0  0
 17 23  1  0  0  0  0
 18 17  1  0  0  0  0
 19 18  2  0  0  0  0
 20 15  2  0  0  0  0
 20 19  1  0  0  0  0
 21 15  1  0  0  0  0
M  END
>  <minimizedAffinity>
-4.34565258

$$$$

 OpenBabel03262520333D

 23 24  0  0  0  0  0  0  0  0999 V2000
   38.8760   23.0360   36.1050 C   0  0  0  0  0  0  0  0  0  0  0  0
   38.4240   23.0150   37.1340 H   0  0  0  0  0  0  0  0  0  0  0  0
   39.8770   22.5430   36.1460 H   0  0  0  0  0  0  0  0  0  0  0  0
   39.0810   24.4850   35.8170 C   0  0  0  0  0  0  0  0  0  0  0  0
   40.0920   25.0260   35.0500 C   0  0  0  0  0  0  0  0  0  0  0  0
   40.7940   24.3280   34.6240 H   0  0  0  0  0  0  0  0  0  0  0  0
   40.1760   26.3880   34.8550 C   0  0  0  0  0  3  0  0  0  0  0  0
   39.2440   27.2600   35.4250 C   0  0  0  0  0  0  0  0  0  0  0  0
   39.2840   28.3360   35.2920 H   0  0  0  0  0  0  0  0  0  0  0  0
   38.2310   26.7370   36.1920 C   0  0  0  0  0  0  0  0  0  0  0  0
   37.4990   27.4000   36.6420 H   0  0  0  0  0  0  0  0  0  0  0  0
   38.1540   25.3690   36.3810 C   0  0  0  0  0  3  0  0  0  0  0  0
   37.7890   22.4790   33.9080 C   0  0  0  0  0  3  0  0  0  0  0  0
   37.9540   22.3690   35.1870 C   0  0  0  0  0  3  0  0  0  0  0  0
   35.2380   19.9350   33.2400 C   0  0  0  0  0  0  0  0  0  0  0  0
   34.8890   20.2470   31.8970 C   0  0  0  0  0  0  0  0  0  0  0  0
   35.5460   21.3310   31.2560 C   0  0  0  0  0  0  0  0  0  0  0  0
   36.4810   22.0020   31.9960 N   0  0  0  0  0  0  0  0  0  0  0  0
   36.7770   21.6730   33.2560 C   0  0  0  0  0  0  0  0  0  0  0  0
   36.1620   20.6520   33.8690 N   0  0  0  0  0  0  0  0  0  0  0  0
   34.7110   19.1020   33.6870 H   0  0  0  0  0  0  0  0  0  0  0  0
   34.1430   19.6800   31.3640 H   0  0  0  0  0  0  0  0  0  0  0  0
   35.3070   21.5940   30.2420 H   0  0  0  0  0  0  0  0  0  0  0  0
  1  3  1  0  0  0  0
  1  2  1  0  0  0  0
  4  1  1  0  0  0  0
  4 12  1  0  0  0  0
  5  4  2  0  0  0  0
  6  5  1  0  0  0  0
  7  5  1  0  0  0  0
  7  8  2  0  0  0  0
  8 10  1  0  0  0  0
  9  8  1  0  0  0  0
 10 12  2  0  0  0  0
 10 11  1  0  0  0  0
 13 14  2  0  0  0  0
 14  1  1  0  0  0  0
 15 21  1  0  0  0  0
 15 20  1  0  0  0  0
 16 15  2  0  0  0  0
 17 16  1  0  0  0  0
 17 18  2  0  0  0  0
 18 19  1  0  0  0  0
 19 20  2  0  0  0  0
 19 13  1  0  0  0  0
 22 16  1  0  0  0  0
 23 17  1  0  0  0  0
M  END
>  <minimizedAffinity>
-4.3242054

$$$$
