
 OpenBabel03272503313D

 34 36  0  0  1  0  0  0  0  0999 V2000
   36.7880   24.5160   31.8690 C   0  0  0  0  0  0  0  0  0  0  0  0
   35.6810   23.7830   31.3890 C   0  0  0  0  0  0  0  0  0  0  0  0
   35.5700   22.4550   31.8010 C   0  0  0  0  0  0  0  0  0  0  0  0
   36.5450   21.9960   32.6310 N   0  0  0  0  0  0  0  0  0  0  0  0
   37.5830   22.6950   33.0770 C   0  0  0  0  0  0  0  0  0  0  0  0
   37.6950   23.9840   32.6800 N   0  0  0  0  0  0  0  0  0  0  0  0
   34.9240   24.1880   30.7270 H   0  0  0  0  0  0  0  0  0  0  0  0
   34.7510   21.8310   31.4750 H   0  0  0  0  0  0  0  0  0  0  0  0
   36.8710   25.8850   31.4200 N   0  0  0  0  0  0  0  0  0  0  0  0
   35.8300   26.8640   31.3600 C   0  0  0  0  0  0  0  0  0  0  0  0
   36.5930   28.1700   31.5500 C   0  0  2  0  0  0  0  0  0  0  0  0
   38.0370   27.7770   31.8080 C   0  0  0  0  0  0  0  0  0  0  0  0
   38.0670   26.5310   30.9320 C   0  0  0  0  0  0  0  0  0  0  0  0
   35.0650   26.7180   32.1510 H   0  0  0  0  0  0  0  0  0  0  0  0
   35.3060   26.8240   30.3870 H   0  0  0  0  0  0  0  0  0  0  0  0
   36.5640   28.7090   30.5740 H   0  0  0  0  0  0  0  0  0  0  0  0
   38.2320   27.5040   32.8550 H   0  0  0  0  0  0  0  0  0  0  0  0
   38.7140   28.5570   31.3990 H   0  0  0  0  0  0  0  0  0  0  0  0
   38.9620   25.9470   31.1870 H   0  0  0  0  0  0  0  0  0  0  0  0
   38.0250   26.8100   29.8720 H   0  0  0  0  0  0  0  0  0  0  0  0
   36.0100   29.0200   32.6320 C   0  0  0  0  0  0  0  0  0  0  0  0
   36.5610   28.5640   33.8160 F   0  0  0  0  0  0  0  0  0  0  0  0
   34.6640   28.7480   32.6980 F   0  0  0  0  0  0  0  0  0  0  0  0
   36.2140   30.3520   32.4590 F   0  0  0  0  0  0  0  0  0  0  0  0
   38.8130   22.0110   34.1370 S   0  0  0  0  0  0  0  0  0  0  0  0
   38.6710   22.5870   35.7930 C   0  0  0  0  0  0  0  0  0  0  0  0
   37.6740   23.1850   36.5240 C   0  0  0  0  0  0  0  0  0  0  0  0
   36.7940   23.3190   35.9240 H   0  0  0  0  0  0  0  0  0  0  0  0
   37.8400   23.5410   37.8430 C   0  0  0  0  0  3  0  0  0  0  0  0
   39.0260   23.3160   38.5090 C   0  0  0  0  0  0  0  0  0  0  0  0
   39.0330   23.6400   39.5420 H   0  0  0  0  0  0  0  0  0  0  0  0
   40.0590   22.7170   37.8180 C   0  0  0  0  0  0  0  0  0  0  0  0
   40.9450   22.5760   38.3990 H   0  0  0  0  0  0  0  0  0  0  0  0
   39.8780   22.3590   36.4750 C   0  0  0  0  0  3  0  0  0  0  0  0
  1  6  1  0  0  0  0
  2  3  1  0  0  0  0
  2  1  2  0  0  0  0
  3  4  2  0  0  0  0
  4  5  1  0  0  0  0
  5 25  1  0  0  0  0
  6  5  2  0  0  0  0
  7  2  1  0  0  0  0
  8  3  1  0  0  0  0
  9  1  1  0  0  0  0
 10  9  1  0  0  0  0
 10 11  1  0  0  0  0
 10 14  1  0  0  0  0
 11 16  1  6  0  0  0
 11 12  1  0  0  0  0
 11 21  1  0  0  0  0
 12 17  1  0  0  0  0
 13 19  1  0  0  0  0
 13  9  1  0  0  0  0
 13 12  1  0  0  0  0
 15 10  1  0  0  0  0
 18 12  1  0  0  0  0
 20 13  1  0  0  0  0
 21 23  1  0  0  0  0
 21 22  1  0  0  0  0
 24 21  1  0  0  0  0
 25 26  1  0  0  0  0
 26 34  2  0  0  0  0
 26 27  1  0  0  0  0
 27 29  2  0  0  0  0
 28 27  1  0  0  0  0
 29 30  1  0  0  0  0
 30 31  1  0  0  0  0
 32 33  1  0  0  0  0
 32 30  2  0  0  0  0
 34 32  1  0  0  0  0
M  END
>  <minimizedAffinity>
-5.62933254

$$$$

 OpenBabel03272503313D

 34 36  0  0  1  0  0  0  0  0999 V2000
   37.8830   22.8280   34.0740 C   0  0  0  0  0  0  0  0  0  0  0  0
   38.1350   21.9920   35.1840 C   0  0  0  0  0  0  0  0  0  0  0  0
   38.6540   22.5940   36.3300 C   0  0  0  0  0  0  0  0  0  0  0  0
   38.8670   23.9350   36.2640 N   0  0  0  0  0  0  0  0  0  0  0  0
   38.6270   24.7130   35.2140 C   0  0  0  0  0  0  0  0  0  0  0  0
   38.1220   24.1330   34.0990 N   0  0  0  0  0  0  0  0  0  0  0  0
   37.9490   20.9230   35.1950 H   0  0  0  0  0  0  0  0  0  0  0  0
   38.8720   22.0200   37.2180 H   0  0  0  0  0  0  0  0  0  0  0  0
   37.3480   22.1690   32.9070 N   0  0  0  0  0  0  0  0  0  0  0  0
   37.3020   20.7690   32.6210 C   0  0  0  0  0  0  0  0  0  0  0  0
   36.0610   20.6500   31.7440 C   0  0  2  0  0  0  0  0  0  0  0  0
   35.4460   22.0380   31.7000 C   0  0  0  0  0  0  0  0  0  0  0  0
   36.7420   22.8350   31.7780 C   0  0  0  0  0  0  0  0  0  0  0  0
   37.2140   20.1510   33.5400 H   0  0  0  0  0  0  0  0  0  0  0  0
   38.2180   20.4430   32.0950 H   0  0  0  0  0  0  0  0  0  0  0  0
   36.4120   20.4100   30.7140 H   0  0  0  0  0  0  0  0  0  0  0  0
   34.8150   22.2620   32.5720 H   0  0  0  0  0  0  0  0  0  0  0  0
   34.9510   22.1950   30.7190 H   0  0  0  0  0  0  0  0  0  0  0  0
   36.4950   23.8780   32.0220 H   0  0  0  0  0  0  0  0  0  0  0  0
   37.3060   22.7360   30.8430 H   0  0  0  0  0  0  0  0  0  0  0  0
   35.1140   19.6010   32.2310 C   0  0  0  0  0  0  0  0  0  0  0  0
   35.3300   19.4920   33.5930 F   0  0  0  0  0  0  0  0  0  0  0  0
   35.4990   18.4020   31.6790 F   0  0  0  0  0  0  0  0  0  0  0  0
   33.8110   19.8560   31.9430 F   0  0  0  0  0  0  0  0  0  0  0  0
   38.9530   26.4450   35.2100 S   0  0  0  0  0  0  0  0  0  0  0  0
   37.9830   27.3110   34.0260 C   0  0  0  0  0  0  0  0  0  0  0  0
   38.0570   27.4930   32.6660 C   0  0  0  0  0  0  0  0  0  0  0  0
   38.9080   26.9780   32.2620 H   0  0  0  0  0  0  0  0  0  0  0  0
   37.1350   28.2420   31.9730 C   0  0  0  0  0  3  0  0  0  0  0  0
   36.0770   28.8580   32.6080 C   0  0  0  0  0  0  0  0  0  0  0  0
   35.4220   29.4180   31.9550 H   0  0  0  0  0  0  0  0  0  0  0  0
   35.9600   28.7050   33.9740 C   0  0  0  0  0  0  0  0  0  0  0  0
   35.1180   29.2110   34.3960 H   0  0  0  0  0  0  0  0  0  0  0  0
   36.9050   27.9390   34.6710 C   0  0  0  0  0  3  0  0  0  0  0  0
  1  6  2  0  0  0  0
  1  2  1  0  0  0  0
  2  7  1  0  0  0  0
  2  3  2  0  0  0  0
  3  8  1  0  0  0  0
  4  3  1  0  0  0  0
  5  4  2  0  0  0  0
  6  5  1  0  0  0  0
  9  1  1  0  0  0  0
 10  9  1  0  0  0  0
 10 14  1  0  0  0  0
 11 16  1  6  0  0  0
 11 21  1  0  0  0  0
 11 10  1  0  0  0  0
 12 11  1  0  0  0  0
 12 13  1  0  0  0  0
 12 17  1  0  0  0  0
 13 19  1  0  0  0  0
 13  9  1  0  0  0  0
 15 10  1  0  0  0  0
 18 12  1  0  0  0  0
 20 13  1  0  0  0  0
 21 22  1  0  0  0  0
 23 21  1  0  0  0  0
 24 21  1  0  0  0  0
 25  5  1  0  0  0  0
 26 34  1  0  0  0  0
 26 25  1  0  0  0  0
 27 26  2  0  0  0  0
 28 27  1  0  0  0  0
 29 30  2  0  0  0  0
 29 27  1  0  0  0  0
 30 32  1  0  0  0  0
 31 30  1  0  0  0  0
 32 33  1  0  0  0  0
 32 34  2  0  0  0  0
M  END
>  <minimizedAffinity>
-5.60906553

$$$$

 OpenBabel03272503313D

 34 36  0  0  1  0  0  0  0  0999 V2000
   37.2440   25.7860   33.4200 C   0  0  0  0  0  0  0  0  0  0  0  0
   37.9650   25.6860   34.6300 C   0  0  0  0  0  0  0  0  0  0  0  0
   37.9600   26.8010   35.4680 C   0  0  0  0  0  0  0  0  0  0  0  0
   37.2560   27.8800   35.0340 N   0  0  0  0  0  0  0  0  0  0  0  0
   36.5810   27.9640   33.8920 C   0  0  0  0  0  0  0  0  0  0  0  0
   36.5830   26.8850   33.0760 N   0  0  0  0  0  0  0  0  0  0  0  0
   38.5150   24.8030   34.9390 H   0  0  0  0  0  0  0  0  0  0  0  0
   38.4890   26.7990   36.4100 H   0  0  0  0  0  0  0  0  0  0  0  0
   37.2740   24.6140   32.5780 N   0  0  0  0  0  0  0  0  0  0  0  0
   37.5940   23.2690   32.9410 C   0  0  0  0  0  0  0  0  0  0  0  0
   36.7730   22.4530   31.9490 C   0  0  2  0  0  0  0  0  0  0  0  0
   35.9590   23.4590   31.1550 C   0  0  0  0  0  0  0  0  0  0  0  0
   36.9750   24.5950   31.1650 C   0  0  0  0  0  0  0  0  0  0  0  0
   37.3180   23.0350   33.9910 H   0  0  0  0  0  0  0  0  0  0  0  0
   38.6800   23.0800   32.8400 H   0  0  0  0  0  0  0  0  0  0  0  0
   37.4930   21.9780   31.2430 H   0  0  0  0  0  0  0  0  0  0  0  0
   35.0380   23.7750   31.6660 H   0  0  0  0  0  0  0  0  0  0  0  0
   35.8070   23.0830   30.1210 H   0  0  0  0  0  0  0  0  0  0  0  0
   36.4660   25.5200   30.8580 H   0  0  0  0  0  0  0  0  0  0  0  0
   37.8310   24.3450   30.5280 H   0  0  0  0  0  0  0  0  0  0  0  0
   35.9340   21.4140   32.6190 C   0  0  0  0  0  0  0  0  0  0  0  0
   36.3540   21.3740   33.9370 F   0  0  0  0  0  0  0  0  0  0  0  0
   36.2590   20.1960   32.0700 F   0  0  0  0  0  0  0  0  0  0  0  0
   34.5970   21.6340   32.5200 F   0  0  0  0  0  0  0  0  0  0  0  0
   35.7100   29.4150   33.4000 S   0  0  0  0  0  0  0  0  0  0  0  0
   35.2230   30.4050   34.7680 C   0  0  0  0  0  0  0  0  0  0  0  0
   35.8780   31.2560   35.6250 C   0  0  0  0  0  0  0  0  0  0  0  0
   36.9220   31.3090   35.3800 H   0  0  0  0  0  0  0  0  0  0  0  0
   35.2310   31.9220   36.6400 C   0  0  0  0  0  3  0  0  0  0  0  0
   33.8770   31.7720   36.8560 C   0  0  0  0  0  0  0  0  0  0  0  0
   33.4850   32.3480   37.6830 H   0  0  0  0  0  0  0  0  0  0  0  0
   33.1740   30.9280   36.0210 C   0  0  0  0  0  0  0  0  0  0  0  0
   32.1310   30.8620   36.2490 H   0  0  0  0  0  0  0  0  0  0  0  0
   33.8440   30.2550   34.9900 C   0  0  0  0  0  3  0  0  0  0  0  0
  1  2  1  0  0  0  0
  2  7  1  0  0  0  0
  2  3  2  0  0  0  0
  3  8  1  0  0  0  0
  4  3  1  0  0  0  0
  5  4  2  0  0  0  0
  6  1  2  0  0  0  0
  6  5  1  0  0  0  0
  9 10  1  0  0  0  0
  9  1  1  0  0  0  0
 10 14  1  0  0  0  0
 11 16  1  6  0  0  0
 11 21  1  0  0  0  0
 11 10  1  0  0  0  0
 12 13  1  0  0  0  0
 12 17  1  0  0  0  0
 12 11  1  0  0  0  0
 13  9  1  0  0  0  0
 15 10  1  0  0  0  0
 18 12  1  0  0  0  0
 19 13  1  0  0  0  0
 20 13  1  0  0  0  0
 21 22  1  0  0  0  0
 23 21  1  0  0  0  0
 24 21  1  0  0  0  0
 25  5  1  0  0  0  0
 25 26  1  0  0  0  0
 26 34  2  0  0  0  0
 26 27  1  0  0  0  0
 27 29  2  0  0  0  0
 28 27  1  0  0  0  0
 29 30  1  0  0  0  0
 30 31  1  0  0  0  0
 32 33  1  0  0  0  0
 32 30  2  0  0  0  0
 34 32  1  0  0  0  0
M  END
>  <minimizedAffinity>
-5.55176592

$$$$

 OpenBabel03272503313D

 34 36  0  0  1  0  0  0  0  0999 V2000
   38.1860   24.8600   35.5060 C   0  0  0  0  0  0  0  0  0  0  0  0
   38.2530   26.1480   36.0800 C   0  0  0  0  0  0  0  0  0  0  0  0
   37.9310   27.2290   35.2590 C   0  0  0  0  0  0  0  0  0  0  0  0
   37.5820   26.9320   33.9790 N   0  0  0  0  0  0  0  0  0  0  0  0
   37.5230   25.7150   33.4480 C   0  0  0  0  0  0  0  0  0  0  0  0
   37.8340   24.6630   34.2410 N   0  0  0  0  0  0  0  0  0  0  0  0
   38.5360   26.3410   37.1100 H   0  0  0  0  0  0  0  0  0  0  0  0
   37.9590   28.2430   35.6280 H   0  0  0  0  0  0  0  0  0  0  0  0
   38.5280   23.7670   36.3850 N   0  0  0  0  0  0  0  0  0  0  0  0
   39.1730   22.5340   36.0590 C   0  0  0  0  0  0  0  0  0  0  0  0
   39.9000   22.1860   37.3530 C   0  0  2  0  0  0  0  0  0  0  0  0
   39.6650   23.3570   38.2910 C   0  0  0  0  0  0  0  0  0  0  0  0
   38.2690   23.7280   37.8050 C   0  0  0  0  0  0  0  0  0  0  0  0
   39.8790   22.6360   35.2070 H   0  0  0  0  0  0  0  0  0  0  0  0
   38.4310   21.7630   35.7760 H   0  0  0  0  0  0  0  0  0  0  0  0
   39.3810   21.3010   37.7900 H   0  0  0  0  0  0  0  0  0  0  0  0
   40.3550   24.1950   38.1210 H   0  0  0  0  0  0  0  0  0  0  0  0
   39.6280   22.9930   39.3390 H   0  0  0  0  0  0  0  0  0  0  0  0
   38.0210   24.7280   38.1890 H   0  0  0  0  0  0  0  0  0  0  0  0
   37.5450   22.9620   38.1080 H   0  0  0  0  0  0  0  0  0  0  0  0
   41.3470   21.8880   37.1330 C   0  0  0  0  0  0  0  0  0  0  0  0
   41.9950   23.1100   37.1340 F   0  0  0  0  0  0  0  0  0  0  0  0
   41.4810   21.3770   35.8640 F   0  0  0  0  0  0  0  0  0  0  0  0
   41.8790   21.0310   38.0440 F   0  0  0  0  0  0  0  0  0  0  0  0
   37.0780   25.4240   31.7680 S   0  0  0  0  0  0  0  0  0  0  0  0
   36.7110   23.7340   31.4510 C   0  0  0  0  0  0  0  0  0  0  0  0
   35.5780   22.9610   31.5340 C   0  0  0  0  0  0  0  0  0  0  0  0
   34.7440   23.5480   31.8700 H   0  0  0  0  0  0  0  0  0  0  0  0
   35.5740   21.6230   31.2140 C   0  0  0  0  0  3  0  0  0  0  0  0
   36.7170   20.9770   30.7910 C   0  0  0  0  0  0  0  0  0  0  0  0
   36.5860   19.9260   30.5700 H   0  0  0  0  0  0  0  0  0  0  0  0
   37.8810   21.7110   30.6920 C   0  0  0  0  0  0  0  0  0  0  0  0
   38.7240   21.1430   30.3580 H   0  0  0  0  0  0  0  0  0  0  0  0
   37.8730   23.0740   31.0190 C   0  0  0  0  0  3  0  0  0  0  0  0
  1  2  1  0  0  0  0
  1  9  1  0  0  0  0
  2  7  1  0  0  0  0
  3  8  1  0  0  0  0
  3  2  2  0  0  0  0
  4  3  1  0  0  0  0
  5  4  2  0  0  0  0
  5  6  1  0  0  0  0
  6  1  2  0  0  0  0
  9 13  1  0  0  0  0
 10  9  1  0  0  0  0
 10 11  1  0  0  0  0
 11 16  1  1  0  0  0
 11 12  1  0  0  0  0
 12 18  1  0  0  0  0
 13 20  1  0  0  0  0
 13 19  1  0  0  0  0
 13 12  1  0  0  0  0
 14 10  1  0  0  0  0
 15 10  1  0  0  0  0
 17 12  1  0  0  0  0
 21 22  1  0  0  0  0
 21 11  1  0  0  0  0
 21 24  1  0  0  0  0
 23 21  1  0  0  0  0
 25  5  1  0  0  0  0
 26 27  1  0  0  0  0
 26 25  1  0  0  0  0
 27 28  1  0  0  0  0
 29 27  2  0  0  0  0
 30 29  1  0  0  0  0
 31 30  1  0  0  0  0
 32 30  2  0  0  0  0
 32 34  1  0  0  0  0
 33 32  1  0  0  0  0
 34 26  2  0  0  0  0
M  END
>  <minimizedAffinity>
-5.54135942

$$$$

 OpenBabel03272503313D

 34 36  0  0  1  0  0  0  0  0999 V2000
   37.6570   24.1050   32.9820 C   0  0  0  0  0  0  0  0  0  0  0  0
   36.8680   23.0830   32.4110 C   0  0  0  0  0  0  0  0  0  0  0  0
   36.0400   23.4370   31.3460 C   0  0  0  0  0  0  0  0  0  0  0  0
   36.0760   24.7400   30.9600 N   0  0  0  0  0  0  0  0  0  0  0  0
   36.8230   25.6950   31.5050 C   0  0  0  0  0  0  0  0  0  0  0  0
   37.6280   25.3560   32.5390 N   0  0  0  0  0  0  0  0  0  0  0  0
   36.8700   22.0520   32.7500 H   0  0  0  0  0  0  0  0  0  0  0  0
   35.4080   22.7090   30.8590 H   0  0  0  0  0  0  0  0  0  0  0  0
   38.4990   23.7010   34.0830 N   0  0  0  0  0  0  0  0  0  0  0  0
   38.9410   24.4830   35.1950 C   0  0  0  0  0  0  0  0  0  0  0  0
   39.1020   23.4370   36.2920 C   0  0  2  0  0  0  0  0  0  0  0  0
   38.6200   22.1270   35.6940 C   0  0  0  0  0  0  0  0  0  0  0  0
   39.0650   22.3840   34.2600 C   0  0  0  0  0  0  0  0  0  0  0  0
   38.2070   25.2660   35.4810 H   0  0  0  0  0  0  0  0  0  0  0  0
   39.8930   24.9960   34.9640 H   0  0  0  0  0  0  0  0  0  0  0  0
   40.1950   23.3330   36.4840 H   0  0  0  0  0  0  0  0  0  0  0  0
   37.5290   22.0070   35.7330 H   0  0  0  0  0  0  0  0  0  0  0  0
   39.1940   21.2830   36.1340 H   0  0  0  0  0  0  0  0  0  0  0  0
   38.5710   21.6520   33.6060 H   0  0  0  0  0  0  0  0  0  0  0  0
   40.1590   22.3520   34.1890 H   0  0  0  0  0  0  0  0  0  0  0  0
   38.3850   23.8110   37.5490 C   0  0  0  0  0  0  0  0  0  0  0  0
   37.1570   23.1750   37.4930 F   0  0  0  0  0  0  0  0  0  0  0  0
   38.1270   25.1600   37.4980 F   0  0  0  0  0  0  0  0  0  0  0  0
   39.0630   23.5040   38.6850 F   0  0  0  0  0  0  0  0  0  0  0  0
   36.7920   27.3670   30.9510 S   0  0  0  0  0  0  0  0  0  0  0  0
   36.3190   28.4890   32.2200 C   0  0  0  0  0  0  0  0  0  0  0  0
   36.1290   28.3860   33.5770 C   0  0  0  0  0  0  0  0  0  0  0  0
   36.3180   27.3830   33.9100 H   0  0  0  0  0  0  0  0  0  0  0  0
   35.7470   29.4570   34.3510 C   0  0  0  0  0  3  0  0  0  0  0  0
   35.5330   30.7050   33.8040 C   0  0  0  0  0  0  0  0  0  0  0  0
   35.2370   31.4650   34.5140 H   0  0  0  0  0  0  0  0  0  0  0  0
   35.7110   30.8600   32.4450 C   0  0  0  0  0  0  0  0  0  0  0  0
   35.5270   31.8530   32.0930 H   0  0  0  0  0  0  0  0  0  0  0  0
   36.1010   29.7610   31.6660 C   0  0  0  0  0  3  0  0  0  0  0  0
  1  9  1  0  0  0  0
  2  7  1  0  0  0  0
  2  1  2  0  0  0  0
  3  2  1  0  0  0  0
  4  3  2  0  0  0  0
  4  5  1  0  0  0  0
  5  6  2  0  0  0  0
  6  1  1  0  0  0  0
  8  3  1  0  0  0  0
  9 13  1  0  0  0  0
  9 10  1  0  0  0  0
 10 14  1  0  0  0  0
 10 11  1  0  0  0  0
 11 16  1  1  0  0  0
 11 21  1  0  0  0  0
 12 17  1  0  0  0  0
 12 18  1  0  0  0  0
 12 11  1  0  0  0  0
 13 12  1  0  0  0  0
 15 10  1  0  0  0  0
 19 13  1  0  0  0  0
 20 13  1  0  0  0  0
 21 24  1  0  0  0  0
 22 21  1  0  0  0  0
 23 21  1  0  0  0  0
 25  5  1  0  0  0  0
 25 26  1  0  0  0  0
 26 27  1  0  0  0  0
 27 28  1  0  0  0  0
 27 29  2  0  0  0  0
 30 29  1  0  0  0  0
 30 31  1  0  0  0  0
 32 30  2  0  0  0  0
 33 32  1  0  0  0  0
 34 26  2  0  0  0  0
 34 32  1  0  0  0  0
M  END
>  <minimizedAffinity>
-5.49204159

$$$$

 OpenBabel03272503313D

 34 36  0  0  1  0  0  0  0  0999 V2000
   38.1400   25.1130   35.5630 C   0  0  0  0  0  0  0  0  0  0  0  0
   38.3570   26.3100   36.2800 C   0  0  0  0  0  0  0  0  0  0  0  0
   38.0820   27.5080   35.6190 C   0  0  0  0  0  0  0  0  0  0  0  0
   37.6290   27.4020   34.3410 N   0  0  0  0  0  0  0  0  0  0  0  0
   37.4290   26.2700   33.6750 C   0  0  0  0  0  0  0  0  0  0  0  0
   37.6930   25.1060   34.3120 N   0  0  0  0  0  0  0  0  0  0  0  0
   38.7200   26.3500   37.3010 H   0  0  0  0  0  0  0  0  0  0  0  0
   38.2240   28.4620   36.1030 H   0  0  0  0  0  0  0  0  0  0  0  0
   38.4370   23.8960   36.2780 N   0  0  0  0  0  0  0  0  0  0  0  0
   39.1710   22.7560   35.8240 C   0  0  0  0  0  0  0  0  0  0  0  0
   39.7690   22.2110   37.1160 C   0  0  2  0  0  0  0  0  0  0  0  0
   39.3790   23.1950   38.2050 C   0  0  0  0  0  0  0  0  0  0  0  0
   38.0270   23.6040   37.6320 C   0  0  0  0  0  0  0  0  0  0  0  0
   39.9590   23.0250   35.0890 H   0  0  0  0  0  0  0  0  0  0  0  0
   38.5020   22.0250   35.3320 H   0  0  0  0  0  0  0  0  0  0  0  0
   39.2490   21.2490   37.3340 H   0  0  0  0  0  0  0  0  0  0  0  0
   40.0430   24.0690   38.2590 H   0  0  0  0  0  0  0  0  0  0  0  0
   39.2460   22.6540   39.1650 H   0  0  0  0  0  0  0  0  0  0  0  0
   37.6920   24.5140   38.1470 H   0  0  0  0  0  0  0  0  0  0  0  0
   37.3120   22.7760   37.7160 H   0  0  0  0  0  0  0  0  0  0  0  0
   41.2450   21.9960   37.0160 C   0  0  0  0  0  0  0  0  0  0  0  0
   41.8220   23.2490   37.1220 F   0  0  0  0  0  0  0  0  0  0  0  0
   41.5170   21.5470   35.7460 F   0  0  0  0  0  0  0  0  0  0  0  0
   41.7410   21.1300   37.9380 F   0  0  0  0  0  0  0  0  0  0  0  0
   36.8560   26.2290   32.0090 S   0  0  0  0  0  0  0  0  0  0  0  0
   36.7010   27.8350   31.3100 C   0  0  0  0  0  0  0  0  0  0  0  0
   35.8600   28.9010   31.5200 C   0  0  0  0  0  0  0  0  0  0  0  0
   35.1480   28.6740   32.2910 H   0  0  0  0  0  0  0  0  0  0  0  0
   35.9660   30.0740   30.8090 C   0  0  0  0  0  3  0  0  0  0  0  0
   36.9300   30.2460   29.8370 C   0  0  0  0  0  0  0  0  0  0  0  0
   36.9110   31.2110   29.3480 H   0  0  0  0  0  0  0  0  0  0  0  0
   37.7980   29.2030   29.5890 C   0  0  0  0  0  0  0  0  0  0  0  0
   38.5160   29.4100   28.8230 H   0  0  0  0  0  0  0  0  0  0  0  0
   37.6810   28.0130   30.3200 C   0  0  0  0  0  3  0  0  0  0  0  0
  1  9  1  0  0  0  0
  1  2  1  0  0  0  0
  2  7  1  0  0  0  0
  3  8  1  0  0  0  0
  3  2  2  0  0  0  0
  4  3  1  0  0  0  0
  5  6  1  0  0  0  0
  5  4  2  0  0  0  0
  6  1  2  0  0  0  0
  9 13  1  0  0  0  0
 10  9  1  0  0  0  0
 10 11  1  0  0  0  0
 11 16  1  1  0  0  0
 11 12  1  0  0  0  0
 12 17  1  0  0  0  0
 12 18  1  0  0  0  0
 13 20  1  0  0  0  0
 13 19  1  0  0  0  0
 13 12  1  0  0  0  0
 14 10  1  0  0  0  0
 15 10  1  0  0  0  0
 21 11  1  0  0  0  0
 21 22  1  0  0  0  0
 21 24  1  0  0  0  0
 23 21  1  0  0  0  0
 25  5  1  0  0  0  0
 26 27  1  0  0  0  0
 26 25  1  0  0  0  0
 27 28  1  0  0  0  0
 29 27  2  0  0  0  0
 30 29  1  0  0  0  0
 31 30  1  0  0  0  0
 32 30  2  0  0  0  0
 32 34  1  0  0  0  0
 33 32  1  0  0  0  0
 34 26  2  0  0  0  0
M  END
>  <minimizedAffinity>
-5.46024561

$$$$

 OpenBabel03272503313D

 34 36  0  0  1  0  0  0  0  0999 V2000
   36.3570   27.6540   32.6890 C   0  0  0  0  0  0  0  0  0  0  0  0
   35.8900   26.8980   31.5910 C   0  0  0  0  0  0  0  0  0  0  0  0
   36.5870   25.7300   31.2790 C   0  0  0  0  0  0  0  0  0  0  0  0
   37.6530   25.4340   32.0680 N   0  0  0  0  0  0  0  0  0  0  0  0
   38.0850   26.1530   33.1000 C   0  0  0  0  0  0  0  0  0  0  0  0
   37.4120   27.2860   33.4070 N   0  0  0  0  0  0  0  0  0  0  0  0
   35.0320   27.1710   30.9860 H   0  0  0  0  0  0  0  0  0  0  0  0
   36.2880   25.1010   30.4530 H   0  0  0  0  0  0  0  0  0  0  0  0
   35.6130   28.8550   32.9800 N   0  0  0  0  0  0  0  0  0  0  0  0
   35.0560   29.2740   34.2280 C   0  0  0  0  0  0  0  0  0  0  0  0
   35.0930   30.7930   34.1150 C   0  0  2  0  0  0  0  0  0  0  0  0
   35.7890   31.0980   32.8000 C   0  0  0  0  0  0  0  0  0  0  0  0
   35.2880   29.8860   32.0220 C   0  0  0  0  0  0  0  0  0  0  0  0
   35.6450   28.9130   35.0980 H   0  0  0  0  0  0  0  0  0  0  0  0
   34.0260   28.8890   34.3490 H   0  0  0  0  0  0  0  0  0  0  0  0
   34.0370   31.1390   34.0200 H   0  0  0  0  0  0  0  0  0  0  0  0
   36.8850   31.0700   32.8710 H   0  0  0  0  0  0  0  0  0  0  0  0
   35.3760   32.0340   32.3680 H   0  0  0  0  0  0  0  0  0  0  0  0
   35.8940   29.7830   31.1110 H   0  0  0  0  0  0  0  0  0  0  0  0
   34.2160   29.9840   31.8150 H   0  0  0  0  0  0  0  0  0  0  0  0
   35.7500   31.4380   35.2920 C   0  0  0  0  0  0  0  0  0  0  0  0
   34.7250   31.8800   36.1090 F   0  0  0  0  0  0  0  0  0  0  0  0
   36.4030   32.5620   34.8430 F   0  0  0  0  0  0  0  0  0  0  0  0
   36.6140   30.6270   35.9570 F   0  0  0  0  0  0  0  0  0  0  0  0
   39.4930   25.7010   34.0580 S   0  0  0  0  0  0  0  0  0  0  0  0
   39.0550   24.9230   35.5730 C   0  0  0  0  0  0  0  0  0  0  0  0
   38.1030   25.1540   36.5370 C   0  0  0  0  0  0  0  0  0  0  0  0
   37.5060   26.0090   36.2800 H   0  0  0  0  0  0  0  0  0  0  0  0
   37.9800   24.3630   37.6550 C   0  0  0  0  0  3  0  0  0  0  0  0
   38.8120   23.2850   37.8750 C   0  0  0  0  0  0  0  0  0  0  0  0
   38.6160   22.7420   38.7890 H   0  0  0  0  0  0  0  0  0  0  0  0
   39.7850   23.0120   36.9350 C   0  0  0  0  0  0  0  0  0  0  0  0
   40.3900   22.1630   37.1730 H   0  0  0  0  0  0  0  0  0  0  0  0
   39.9000   23.8240   35.7990 C   0  0  0  0  0  3  0  0  0  0  0  0
  1  9  1  0  0  0  0
  1  6  1  0  0  0  0
  2  1  2  0  0  0  0
  3  2  1  0  0  0  0
  3  4  2  0  0  0  0
  4  5  1  0  0  0  0
  5  6  2  0  0  0  0
  5 25  1  0  0  0  0
  7  2  1  0  0  0  0
  8  3  1  0  0  0  0
  9 10  1  0  0  0  0
 10 15  1  0  0  0  0
 10 14  1  0  0  0  0
 11 16  1  6  0  0  0
 11 10  1  0  0  0  0
 11 21  1  0  0  0  0
 12 17  1  0  0  0  0
 12 11  1  0  0  0  0
 13 12  1  0  0  0  0
 13  9  1  0  0  0  0
 18 12  1  0  0  0  0
 19 13  1  0  0  0  0
 20 13  1  0  0  0  0
 21 24  1  0  0  0  0
 21 22  1  0  0  0  0
 23 21  1  0  0  0  0
 25 26  1  0  0  0  0
 26 34  2  0  0  0  0
 26 27  1  0  0  0  0
 27 29  2  0  0  0  0
 28 27  1  0  0  0  0
 29 30  1  0  0  0  0
 30 31  1  0  0  0  0
 32 33  1  0  0  0  0
 32 30  2  0  0  0  0
 34 32  1  0  0  0  0
M  END
>  <minimizedAffinity>
-5.45771313

$$$$

 OpenBabel03272503313D

 34 36  0  0  1  0  0  0  0  0999 V2000
   36.6370   28.1890   32.1190 C   0  0  0  0  0  0  0  0  0  0  0  0
   36.9100   28.9850   30.9850 C   0  0  0  0  0  0  0  0  0  0  0  0
   36.0110   30.0120   30.6960 C   0  0  0  0  0  0  0  0  0  0  0  0
   34.9550   30.1460   31.5430 N   0  0  0  0  0  0  0  0  0  0  0  0
   34.7080   29.3910   32.6080 C   0  0  0  0  0  0  0  0  0  0  0  0
   35.5770   28.3940   32.8920 N   0  0  0  0  0  0  0  0  0  0  0  0
   37.7660   28.8440   30.3340 H   0  0  0  0  0  0  0  0  0  0  0  0
   36.1530   30.6620   29.8460 H   0  0  0  0  0  0  0  0  0  0  0  0
   37.5880   27.1360   32.3840 N   0  0  0  0  0  0  0  0  0  0  0  0
   39.0130   27.2210   32.4460 C   0  0  0  0  0  0  0  0  0  0  0  0
   39.3700   26.1140   33.4310 C   0  0  2  0  0  0  0  0  0  0  0  0
   38.0480   25.5540   33.9260 C   0  0  0  0  0  0  0  0  0  0  0  0
   37.2500   25.7560   32.6420 C   0  0  0  0  0  0  0  0  0  0  0  0
   39.3640   28.2140   32.8000 H   0  0  0  0  0  0  0  0  0  0  0  0
   39.4620   27.0540   31.4480 H   0  0  0  0  0  0  0  0  0  0  0  0
   39.8740   25.3090   32.8480 H   0  0  0  0  0  0  0  0  0  0  0  0
   37.6030   26.1430   34.7400 H   0  0  0  0  0  0  0  0  0  0  0  0
   38.1610   24.4720   34.1470 H   0  0  0  0  0  0  0  0  0  0  0  0
   36.1820   25.6480   32.8760 H   0  0  0  0  0  0  0  0  0  0  0  0
   37.5920   25.0570   31.8690 H   0  0  0  0  0  0  0  0  0  0  0  0
   40.2560   26.5940   34.5340 C   0  0  0  0  0  0  0  0  0  0  0  0
   39.4580   27.3650   35.3590 F   0  0  0  0  0  0  0  0  0  0  0  0
   41.1850   27.4460   33.9840 F   0  0  0  0  0  0  0  0  0  0  0  0
   40.8780   25.5980   35.2170 F   0  0  0  0  0  0  0  0  0  0  0  0
   33.3000   29.6260   33.6410 S   0  0  0  0  0  0  0  0  0  0  0  0
   33.6590   30.6030   35.0590 C   0  0  0  0  0  0  0  0  0  0  0  0
   32.9400   31.0140   36.1540 C   0  0  0  0  0  0  0  0  0  0  0  0
   31.9350   30.6390   36.1090 H   0  0  0  0  0  0  0  0  0  0  0  0
   33.4870   31.7980   37.1430 C   0  0  0  0  0  3  0  0  0  0  0  0
   34.8000   32.2200   37.0890 C   0  0  0  0  0  0  0  0  0  0  0  0
   35.1120   32.8310   37.9250 H   0  0  0  0  0  0  0  0  0  0  0  0
   35.5640   31.8330   36.0080 C   0  0  0  0  0  0  0  0  0  0  0  0
   36.5690   32.1970   36.0350 H   0  0  0  0  0  0  0  0  0  0  0  0
   34.9950   31.0330   35.0070 C   0  0  0  0  0  3  0  0  0  0  0  0
  1  9  1  0  0  0  0
  1  6  1  0  0  0  0
  2  1  2  0  0  0  0
  3  2  1  0  0  0  0
  3  4  2  0  0  0  0
  4  5  1  0  0  0  0
  5  6  2  0  0  0  0
  5 25  1  0  0  0  0
  7  2  1  0  0  0  0
  8  3  1  0  0  0  0
  9 10  1  0  0  0  0
  9 13  1  0  0  0  0
 10 14  1  0  0  0  0
 10 11  1  0  0  0  0
 11 16  1  6  0  0  0
 11 12  1  0  0  0  0
 11 21  1  0  0  0  0
 12 18  1  0  0  0  0
 12 17  1  0  0  0  0
 13 19  1  0  0  0  0
 13 12  1  0  0  0  0
 15 10  1  0  0  0  0
 20 13  1  0  0  0  0
 21 24  1  0  0  0  0
 21 22  1  0  0  0  0
 23 21  1  0  0  0  0
 25 26  1  0  0  0  0
 26 27  1  0  0  0  0
 27 29  2  0  0  0  0
 28 27  1  0  0  0  0
 30 29  1  0  0  0  0
 30 31  1  0  0  0  0
 32 33  1  0  0  0  0
 32 30  2  0  0  0  0
 34 26  2  0  0  0  0
 34 32  1  0  0  0  0
M  END
>  <minimizedAffinity>
-5.45703983

$$$$

 OpenBabel03272503313D

 34 36  0  0  1  0  0  0  0  0999 V2000
   37.7240   24.2500   33.2840 C   0  0  0  0  0  0  0  0  0  0  0  0
   38.5670   24.5570   34.3740 C   0  0  0  0  0  0  0  0  0  0  0  0
   38.6450   25.8950   34.7630 C   0  0  0  0  0  0  0  0  0  0  0  0
   37.8960   26.7760   34.0480 N   0  0  0  0  0  0  0  0  0  0  0  0
   37.1060   26.4770   33.0220 C   0  0  0  0  0  0  0  0  0  0  0  0
   37.0270   25.1800   32.6410 N   0  0  0  0  0  0  0  0  0  0  0  0
   39.1490   23.8210   34.9190 H   0  0  0  0  0  0  0  0  0  0  0  0
   39.2680   26.2050   35.5880 H   0  0  0  0  0  0  0  0  0  0  0  0
   37.6710   22.8570   32.9090 N   0  0  0  0  0  0  0  0  0  0  0  0
   37.4830   21.7190   33.7530 C   0  0  0  0  0  0  0  0  0  0  0  0
   36.7940   20.7270   32.8220 C   0  0  2  0  0  0  0  0  0  0  0  0
   36.5620   21.4700   31.5180 C   0  0  0  0  0  0  0  0  0  0  0  0
   37.8050   22.3510   31.5640 C   0  0  0  0  0  0  0  0  0  0  0  0
   36.8580   21.9480   34.6420 H   0  0  0  0  0  0  0  0  0  0  0  0
   38.4520   21.3380   34.1250 H   0  0  0  0  0  0  0  0  0  0  0  0
   37.5270   19.9130   32.6150 H   0  0  0  0  0  0  0  0  0  0  0  0
   35.6590   22.0960   31.5290 H   0  0  0  0  0  0  0  0  0  0  0  0
   36.6210   20.7580   30.6680 H   0  0  0  0  0  0  0  0  0  0  0  0
   37.6880   23.1560   30.8260 H   0  0  0  0  0  0  0  0  0  0  0  0
   38.7050   21.7460   31.3990 H   0  0  0  0  0  0  0  0  0  0  0  0
   35.5410   20.1660   33.4110 C   0  0  0  0  0  0  0  0  0  0  0  0
   35.6470   18.7910   33.2980 F   0  0  0  0  0  0  0  0  0  0  0  0
   34.4930   20.5440   32.6050 F   0  0  0  0  0  0  0  0  0  0  0  0
   35.3110   20.5520   34.6930 F   0  0  0  0  0  0  0  0  0  0  0  0
   36.1840   27.6910   32.1380 S   0  0  0  0  0  0  0  0  0  0  0  0
   35.9090   29.1480   33.0830 C   0  0  0  0  0  0  0  0  0  0  0  0
   35.6400   29.4040   34.4060 C   0  0  0  0  0  0  0  0  0  0  0  0
   35.5930   28.4880   34.9650 H   0  0  0  0  0  0  0  0  0  0  0  0
   35.4660   30.6800   34.8880 C   0  0  0  0  0  3  0  0  0  0  0  0
   35.5510   31.7830   34.0650 C   0  0  0  0  0  0  0  0  0  0  0  0
   35.3950   32.7310   34.5630 H   0  0  0  0  0  0  0  0  0  0  0  0
   35.8200   31.5780   32.7280 C   0  0  0  0  0  0  0  0  0  0  0  0
   35.8710   32.4790   32.1530 H   0  0  0  0  0  0  0  0  0  0  0  0
   35.9960   30.2730   32.2470 C   0  0  0  0  0  3  0  0  0  0  0  0
  1  2  1  0  0  0  0
  2  3  2  0  0  0  0
  2  7  1  0  0  0  0
  3  8  1  0  0  0  0
  4  3  1  0  0  0  0
  5  4  2  0  0  0  0
  6  5  1  0  0  0  0
  6  1  2  0  0  0  0
  9  1  1  0  0  0  0
  9 10  1  0  0  0  0
 10 15  1  0  0  0  0
 10 14  1  0  0  0  0
 11 16  1  6  0  0  0
 11 21  1  0  0  0  0
 11 10  1  0  0  0  0
 12 17  1  0  0  0  0
 12 13  1  0  0  0  0
 12 11  1  0  0  0  0
 13  9  1  0  0  0  0
 18 12  1  0  0  0  0
 19 13  1  0  0  0  0
 20 13  1  0  0  0  0
 21 24  1  0  0  0  0
 22 21  1  0  0  0  0
 23 21  1  0  0  0  0
 25  5  1  0  0  0  0
 25 26  1  0  0  0  0
 26 27  1  0  0  0  0
 27 29  2  0  0  0  0
 27 28  1  0  0  0  0
 30 31  1  0  0  0  0
 30 29  1  0  0  0  0
 32 30  2  0  0  0  0
 33 32  1  0  0  0  0
 34 32  1  0  0  0  0
 34 26  2  0  0  0  0
M  END
>  <minimizedAffinity>
-5.35257387

$$$$
