
 OpenBabel03272508513D

 29 31  0  0  1  0  0  0  0  0999 V2000
   38.0810   30.6070   46.8500 C   0  0  2  0  0  0  0  0  0  0  0  0
   39.2020   31.5300   46.9640 C   0  0  0  0  0  0  0  0  0  0  0  0
   38.1710   31.6400   45.8250 C   0  0  1  0  0  0  0  0  0  0  0  0
   38.2320   29.5580   46.4490 H   0  0  0  0  0  0  0  0  0  0  0  0
   40.1890   31.1670   46.6290 H   0  0  0  0  0  0  0  0  0  0  0  0
   39.2180   32.3370   47.7200 H   0  0  0  0  0  0  0  0  0  0  0  0
   37.6990   32.6380   45.7930 H   0  0  0  0  0  0  0  0  0  0  0  0
   34.6520   30.2430   48.2050 C   0  0  0  0  0  0  0  0  0  0  0  0
   34.8350   30.6170   49.5620 C   0  0  0  0  0  0  0  0  0  0  0  0
   36.1470   30.9940   50.0000 C   0  0  0  0  0  0  0  0  0  0  0  0
   37.1590   30.9750   49.0850 N   0  0  0  0  0  0  0  0  0  0  0  0
   36.9230   30.6080   47.7970 C   0  0  0  0  0  0  0  0  0  0  0  0
   35.7130   30.2450   47.3320 N   0  0  0  0  0  0  0  0  0  0  0  0
   33.6360   29.9800   47.9810 H   0  0  0  0  0  0  0  0  0  0  0  0
   34.0290   30.6240   50.2600 H   0  0  0  0  0  0  0  0  0  0  0  0
   36.3110   31.2820   51.0260 H   0  0  0  0  0  0  0  0  0  0  0  0
   39.1750   32.2720   43.6610 C   0  0  0  0  0  0  0  0  0  0  0  0
   39.3100   33.4440   44.0890 O   0  0  0  0  0  0  0  0  0  0  0  0
   38.6950   31.2230   44.5200 N   0  0  0  0  0  0  0  0  0  0  0  0
   38.6920   30.2230   44.2880 H   0  0  0  0  0  0  0  0  0  0  0  0
   39.5000   31.9260   42.2720 C   0  0  0  0  0  0  0  0  0  0  0  0
   40.3750   30.9500   41.8400 C   0  0  0  0  0  0  0  0  0  0  0  0
   40.8630   30.3930   42.6130 H   0  0  0  0  0  0  0  0  0  0  0  0
   40.5780   30.7410   40.4950 C   0  0  0  0  0  3  0  0  0  0  0  0
   39.9310   31.4810   39.5280 C   0  0  0  0  0  0  0  0  0  0  0  0
   40.1140   31.2900   38.4800 H   0  0  0  0  0  0  0  0  0  0  0  0
   39.0440   32.4700   39.9000 C   0  0  0  0  0  0  0  0  0  0  0  0
   38.5090   33.0790   39.1980 H   0  0  0  0  0  0  0  0  0  0  0  0
   38.8650   32.6530   41.2570 C   0  0  0  0  0  3  0  0  0  0  0  0
  1  4  1  6  0  0  0
  1  2  1  0  0  0  0
  1 12  1  0  0  0  0
  2  6  1  0  0  0  0
  3  7  1  1  0  0  0
  3  1  1  0  0  0  0
  3  2  1  0  0  0  0
  5  2  1  0  0  0  0
  8  9  1  0  0  0  0
  9 10  2  0  0  0  0
  9 15  1  0  0  0  0
 10 16  1  0  0  0  0
 11 10  1  0  0  0  0
 12 11  2  0  0  0  0
 13 12  1  0  0  0  0
 13  8  2  0  0  0  0
 14  8  1  0  0  0  0
 17 18  2  0  0  0  0
 17 19  1  0  0  0  0
 19  3  1  0  0  0  0
 20 19  1  0  0  0  0
 21 17  1  0  0  0  0
 22 21  1  0  0  0  0
 22 23  1  0  0  0  0
 24 22  2  0  0  0  0
 25 27  2  0  0  0  0
 25 24  1  0  0  0  0
 26 25  1  0  0  0  0
 27 29  1  0  0  0  0
 28 27  1  0  0  0  0
 29 21  2  0  0  0  0
M  END
>  <minimizedAffinity>
-4.43476915

>  <minimizedRMSD>
8.62402344

$$$$
