
 OpenBabel03272509313D

 38 40  0  0  1  0  0  0  0  0999 V2000
   36.3370   30.7410   49.0070 C   0  0  2  0  0  0  0  0  0  0  0  0
   37.3050   31.5960   49.7680 C   0  0  0  0  0  0  0  0  0  0  0  0
   38.1770   30.8000   50.7140 C   0  0  0  0  0  0  0  0  0  0  0  0
   37.3210   29.9940   51.6870 C   0  0  0  0  0  0  0  0  0  0  0  0
   36.0630   29.4360   51.0760 C   0  0  0  0  0  0  0  0  0  0  0  0
   36.2630   29.3530   49.5520 C   0  0  1  0  0  0  0  0  0  0  0  0
   35.2770   31.1230   49.0240 H   0  0  0  0  0  0  0  0  0  0  0  0
   37.8720   32.3200   49.2160 H   0  0  0  0  0  0  0  0  0  0  0  0
   36.6440   32.2110   50.4680 H   0  0  0  0  0  0  0  0  0  0  0  0
   38.7610   31.5140   51.2940 H   0  0  0  0  0  0  0  0  0  0  0  0
   38.8420   30.0930   50.2080 H   0  0  0  0  0  0  0  0  0  0  0  0
   37.9250   29.1400   52.0600 H   0  0  0  0  0  0  0  0  0  0  0  0
   37.0700   30.6110   52.5810 H   0  0  0  0  0  0  0  0  0  0  0  0
   35.7940   28.4450   51.4720 H   0  0  0  0  0  0  0  0  0  0  0  0
   35.2340   30.1270   51.2660 H   0  0  0  0  0  0  0  0  0  0  0  0
   37.2120   28.8750   49.5130 H   0  0  0  0  0  0  0  0  0  0  0  0
   36.7000   30.6710   47.5670 C   0  0  0  0  0  0  0  0  0  0  0  0
   38.0500   30.9330   47.2690 C   0  0  0  0  0  0  0  0  0  0  0  0
   38.4210   30.8700   45.9210 C   0  0  0  0  0  0  0  0  0  0  0  0
   37.4590   30.5600   44.9840 N   0  0  0  0  0  0  0  0  0  0  0  0
   36.1580   30.3130   45.3280 C   0  0  0  0  0  0  0  0  0  0  0  0
   35.7990   30.3740   46.6270 N   0  0  0  0  0  0  0  0  0  0  0  0
   38.8900   31.1730   47.8900 H   0  0  0  0  0  0  0  0  0  0  0  0
   39.4090   31.0450   45.5410 H   0  0  0  0  0  0  0  0  0  0  0  0
   35.4560   30.0730   44.5330 H   0  0  0  0  0  0  0  0  0  0  0  0
   33.9690   28.3640   49.0770 C   0  0  0  0  0  0  0  0  0  0  0  0
   33.1670   29.0410   49.8230 O   0  0  0  0  0  0  0  0  0  0  0  0
   35.3630   28.4940   48.8750 N   0  0  0  0  0  0  0  0  0  0  0  0
   35.7310   27.8560   48.1100 H   0  0  0  0  0  0  0  0  0  0  0  0
   33.1770   27.3310   48.3880 C   0  0  0  0  0  0  0  0  0  0  0  0
   33.7390   26.3410   47.6210 C   0  0  0  0  0  0  0  0  0  0  0  0
   34.8070   26.2640   47.4830 H   0  0  0  0  0  0  0  0  0  0  0  0
   33.0270   25.3550   46.9580 C   0  0  0  0  0  3  0  0  0  0  0  0
   31.6700   25.3360   47.0490 C   0  0  0  0  0  0  0  0  0  0  0  0
   31.1080   24.5710   46.5350 H   0  0  0  0  0  0  0  0  0  0  0  0
   31.0520   26.3030   47.8030 C   0  0  0  0  0  0  0  0  0  0  0  0
   29.9720   26.2540   47.8500 H   0  0  0  0  0  0  0  0  0  0  0  0
   31.8050   27.2580   48.4410 C   0  0  0  0  0  3  0  0  0  0  0  0
  1  7  1  1  0  0  0
  1  6  1  0  0  0  0
  1  2  1  0  0  0  0
  2  9  1  0  0  0  0
  2  3  1  0  0  0  0
  3 10  1  0  0  0  0
  3  4  1  0  0  0  0
  4 12  1  0  0  0  0
  4 13  1  0  0  0  0
  5 15  1  0  0  0  0
  5 14  1  0  0  0  0
  5  4  1  0  0  0  0
  6 16  1  6  0  0  0
  6  5  1  0  0  0  0
  8  2  1  0  0  0  0
 11  3  1  0  0  0  0
 17  1  1  0  0  0  0
 18 17  1  0  0  0  0
 18 23  1  0  0  0  0
 19 18  2  0  0  0  0
 20 21  2  0  0  0  0
 20 19  1  0  0  0  0
 21 22  1  0  0  0  0
 22 17  2  0  0  0  0
 24 19  1  0  0  0  0
 25 21  1  0  0  0  0
 26 27  2  0  0  0  0
 28 26  1  0  0  0  0
 28  6  1  0  0  0  0
 29 28  1  0  0  0  0
 30 38  1  0  0  0  0
 30 26  1  0  0  0  0
 31 30  2  0  0  0  0
 32 31  1  0  0  0  0
 33 34  2  0  0  0  0
 33 31  1  0  0  0  0
 34 36  1  0  0  0  0
 35 34  1  0  0  0  0
 36 37  1  0  0  0  0
 36 38  2  0  0  0  0
M  END
>  <minimizedAffinity>
-6.25815964

>  <minimizedRMSD>
0.513571799

$$$$
