
 OpenBabel03262520303D

 44 47  0  0  1  0  0  0  0  0999 V2000
   37.2690   28.1990   35.1350 C   0  0  0  0  0  0  0  0  0  0  0  0
   36.5240   28.0460   33.9930 C   0  0  0  0  0  0  0  0  0  0  0  0
   36.8830   26.9730   33.2050 C   0  0  0  0  0  0  0  0  0  0  0  0
   37.9070   26.1810   33.6000 N   0  0  0  0  0  0  0  0  0  0  0  0
   38.6030   26.3660   34.7170 C   0  0  0  0  0  0  0  0  0  0  0  0
   38.2270   27.3890   35.4260 N   0  0  0  0  0  0  0  0  0  0  0  0
   36.1190   26.7730   31.9960 N   0  0  0  0  0  0  0  0  0  0  0  0
   37.1220   28.9900   35.8690 H   0  0  0  0  0  0  0  0  0  0  0  0
   35.1570   26.4000   32.2130 H   0  0  0  0  0  0  0  0  0  0  0  0
   36.4960   26.9780   31.0350 H   0  0  0  0  0  0  0  0  0  0  0  0
   39.4880   25.2530   34.6280 C   0  0  1  0  0  0  0  0  0  0  0  0
   40.5960   24.6650   34.7800 N   0  0  0  0  0  0  0  0  0  0  0  0
   41.0030   23.5540   34.2780 C   0  0  0  0  0  0  0  0  0  0  0  0
   41.0020   23.0140   35.5350 N   0  0  0  0  0  0  0  0  0  0  0  0
   39.9870   23.4880   36.3140 C   0  0  0  0  0  0  0  0  0  0  0  0
   39.7640   22.7840   37.5370 C   0  0  0  0  0  0  0  0  0  0  0  0
   38.7720   23.2010   38.3410 C   0  0  0  0  0  0  0  0  0  0  0  0
   37.9510   24.2590   38.0770 C   0  0  0  0  0  0  0  0  0  0  0  0
   38.2370   24.8720   36.8870 C   0  0  0  0  0  0  0  0  0  0  0  0
   39.1950   24.6230   35.9070 C   0  0  0  0  0  0  0  0  0  0  0  0
   38.8870   24.6120   33.8780 H   0  0  0  0  0  0  0  0  0  0  0  0
   41.4030   25.2930   35.0830 H   0  0  0  0  0  0  0  0  0  0  0  0
   41.9910   23.5250   33.7720 H   0  0  0  0  0  0  0  0  0  0  0  0
   40.2900   23.0210   33.5970 H   0  0  0  0  0  0  0  0  0  0  0  0
   41.7230   22.3140   35.8270 H   0  0  0  0  0  0  0  0  0  0  0  0
   40.3550   21.9400   37.8370 H   0  0  0  0  0  0  0  0  0  0  0  0
   38.5910   22.6700   39.2810 H   0  0  0  0  0  0  0  0  0  0  0  0
   37.1460   24.6400   38.6730 H   0  0  0  0  0  0  0  0  0  0  0  0
   37.6120   25.7390   36.6090 H   0  0  0  0  0  0  0  0  0  0  0  0
   35.4370   28.9810   33.6760 C   0  0  0  0  0  0  0  0  0  0  0  0
   34.4830   28.6590   34.0900 H   0  0  0  0  0  0  0  0  0  0  0  0
   35.3420   28.9580   32.5500 H   0  0  0  0  0  0  0  0  0  0  0  0
   35.7700   30.3960   34.0250 C   0  0  0  0  0  0  0  0  0  0  0  0
   36.8240   30.4760   34.3650 H   0  0  0  0  0  0  0  0  0  0  0  0
   35.5800   31.0650   33.1620 H   0  0  0  0  0  0  0  0  0  0  0  0
   34.9330   30.9030   35.1530 C   0  0  0  0  0  0  0  0  0  0  0  0
   33.6080   30.5290   35.2560 C   0  0  0  0  0  0  0  0  0  0  0  0
   33.2310   29.8660   34.4900 H   0  0  0  0  0  0  0  0  0  0  0  0
   32.7920   30.9690   36.2790 C   0  0  0  0  0  3  0  0  0  0  0  0
   33.3480   31.8210   37.2290 C   0  0  0  0  0  0  0  0  0  0  0  0
   32.6560   32.1280   38.0000 H   0  0  0  0  0  0  0  0  0  0  0  0
   34.6840   32.1940   37.1180 C   0  0  0  0  0  0  0  0  0  0  0  0
   35.0280   32.8660   37.9120 H   0  0  0  0  0  0  0  0  0  0  0  0
   35.4720   31.7470   36.0990 C   0  0  0  0  0  3  0  0  0  0  0  0
  1  6  1  0  0  0  0
  1  8  1  0  0  0  0
  2  1  2  0  0  0  0
  3  4  2  0  0  0  0
  3  2  1  0  0  0  0
  4  5  1  0  0  0  0
  5  6  2  0  0  0  0
  7  9  1  0  0  0  0
  7  3  1  0  0  0  0
 10  7  1  0  0  0  0
 11 21  1  6  0  0  0
 11  5  1  0  0  0  0
 11 12  1  0  0  0  0
 11 20  1  0  0  0  0
 12 22  1  0  0  0  0
 13 12  1  0  0  0  0
 13 14  1  0  0  0  0
 14 25  1  0  0  0  0
 14 15  1  0  0  0  0
 15 16  1  0  0  0  0
 16 26  1  0  0  0  0
 16 17  2  0  0  0  0
 17 27  1  0  0  0  0
 18 17  1  0  0  0  0
 18 28  1  0  0  0  0
 19 18  2  0  0  0  0
 20 15  2  0  0  0  0
 20 19  1  0  0  0  0
 23 13  1  0  0  0  0
 24 13  1  0  0  0  0
 29 19  1  0  0  0  0
 30  2  1  0  0  0  0
 30 33  1  0  0  0  0
 30 31  1  0  0  0  0
 32 30  1  0  0  0  0
 33 34  1  0  0  0  0
 33 36  1  0  0  0  0
 35 33  1  0  0  0  0
 36 37  2  0  0  0  0
 36 44  1  0  0  0  0
 37 39  1  0  0  0  0
 38 37  1  0  0  0  0
 39 40  2  0  0  0  0
 40 41  1  0  0  0  0
 42 40  1  0  0  0  0
 42 43  1  0  0  0  0
 44 42  2  0  0  0  0
M  END
>  <minimizedAffinity>
-6.62044334

$$$$

 OpenBabel03262520303D

 44 47  0  0  1  0  0  0  0  0999 V2000
   38.3980   26.8620   33.0930 C   0  0  0  0  0  0  0  0  0  0  0  0
   37.9410   27.2630   34.3240 C   0  0  0  0  0  0  0  0  0  0  0  0
   38.8770   27.2100   35.3350 C   0  0  0  0  0  0  0  0  0  0  0  0
   40.1280   26.7810   35.0500 N   0  0  0  0  0  0  0  0  0  0  0  0
   40.5280   26.4020   33.8420 C   0  0  0  0  0  0  0  0  0  0  0  0
   39.6120   26.4700   32.9210 N   0  0  0  0  0  0  0  0  0  0  0  0
   38.4380   27.6300   36.6450 N   0  0  0  0  0  0  0  0  0  0  0  0
   37.7950   26.8410   32.1850 H   0  0  0  0  0  0  0  0  0  0  0  0
   38.3250   28.6770   36.6900 H   0  0  0  0  0  0  0  0  0  0  0  0
   38.2630   26.9590   37.4370 H   0  0  0  0  0  0  0  0  0  0  0  0
   41.8910   26.1010   34.1300 C   0  0  1  0  0  0  0  0  0  0  0  0
   42.9480   26.1570   34.8200 N   0  0  0  0  0  0  0  0  0  0  0  0
   44.1490   25.8310   34.4970 C   0  0  0  0  0  0  0  0  0  0  0  0
   44.0890   24.8110   35.4060 N   0  0  0  0  0  0  0  0  0  0  0  0
   42.8500   24.2460   35.4890 C   0  0  0  0  0  0  0  0  0  0  0  0
   42.7760   23.0180   36.2140 C   0  0  0  0  0  0  0  0  0  0  0  0
   41.5820   22.4110   36.3220 C   0  0  0  0  0  0  0  0  0  0  0  0
   40.4200   22.8850   35.7850 C   0  0  0  0  0  0  0  0  0  0  0  0
   40.5860   24.0640   35.1090 C   0  0  0  0  0  0  0  0  0  0  0  0
   41.7020   24.8610   34.8690 C   0  0  0  0  0  0  0  0  0  0  0  0
   42.2130   25.7340   33.0830 H   0  0  0  0  0  0  0  0  0  0  0  0
   42.9190   26.8440   35.6350 H   0  0  0  0  0  0  0  0  0  0  0  0
   44.9680   26.5570   34.6820 H   0  0  0  0  0  0  0  0  0  0  0  0
   44.3010   25.4500   33.4540 H   0  0  0  0  0  0  0  0  0  0  0  0
   44.9300   24.5260   35.9600 H   0  0  0  0  0  0  0  0  0  0  0  0
   43.6320   22.5620   36.6750 H   0  0  0  0  0  0  0  0  0  0  0  0
   41.5120   21.4700   36.8750 H   0  0  0  0  0  0  0  0  0  0  0  0
   39.4410   22.4520   35.8340 H   0  0  0  0  0  0  0  0  0  0  0  0
   39.6840   24.5070   34.6500 H   0  0  0  0  0  0  0  0  0  0  0  0
   36.5520   27.7050   34.5000 C   0  0  0  0  0  0  0  0  0  0  0  0
   36.2540   27.7140   35.5480 H   0  0  0  0  0  0  0  0  0  0  0  0
   35.9220   26.9270   33.9760 H   0  0  0  0  0  0  0  0  0  0  0  0
   36.2610   28.9960   33.8070 C   0  0  0  0  0  0  0  0  0  0  0  0
   37.2050   29.5360   33.5780 H   0  0  0  0  0  0  0  0  0  0  0  0
   35.6720   28.8200   32.8850 H   0  0  0  0  0  0  0  0  0  0  0  0
   35.4550   29.9190   34.6610 C   0  0  0  0  0  0  0  0  0  0  0  0
   36.0830   30.8810   35.4260 C   0  0  0  0  0  0  0  0  0  0  0  0
   37.1610   30.9200   35.3660 H   0  0  0  0  0  0  0  0  0  0  0  0
   35.3850   31.7580   36.2310 C   0  0  0  0  0  3  0  0  0  0  0  0
   33.9970   31.6480   36.2570 C   0  0  0  0  0  0  0  0  0  0  0  0
   33.5130   32.3620   36.9070 H   0  0  0  0  0  0  0  0  0  0  0  0
   33.3720   30.6750   35.4840 C   0  0  0  0  0  0  0  0  0  0  0  0
   32.2800   30.6680   35.5710 H   0  0  0  0  0  0  0  0  0  0  0  0
   34.0820   29.8190   34.6940 C   0  0  0  0  0  3  0  0  0  0  0  0
  1  2  1  0  0  0  0
  2 30  1  0  0  0  0
  2  3  2  0  0  0  0
  3  7  1  0  0  0  0
  4  3  1  0  0  0  0
  5 11  1  0  0  0  0
  5  4  2  0  0  0  0
  6  1  2  0  0  0  0
  6  5  1  0  0  0  0
  7  9  1  0  0  0  0
  7 10  1  0  0  0  0
  8  1  1  0  0  0  0
 11 21  1  6  0  0  0
 11 12  1  0  0  0  0
 11 20  1  0  0  0  0
 12 22  1  0  0  0  0
 13 23  1  0  0  0  0
 13 12  1  0  0  0  0
 13 14  1  0  0  0  0
 14 15  1  0  0  0  0
 14 25  1  0  0  0  0
 15 16  1  0  0  0  0
 16 17  2  0  0  0  0
 16 26  1  0  0  0  0
 17 27  1  0  0  0  0
 18 28  1  0  0  0  0
 18 17  1  0  0  0  0
 19 18  2  0  0  0  0
 20 19  1  0  0  0  0
 20 15  2  0  0  0  0
 24 13  1  0  0  0  0
 29 19  1  0  0  0  0
 30 31  1  0  0  0  0
 32 30  1  0  0  0  0
 33 30  1  0  0  0  0
 33 36  1  0  0  0  0
 34 33  1  0  0  0  0
 35 33  1  0  0  0  0
 36 44  2  0  0  0  0
 36 37  1  0  0  0  0
 37 39  2  0  0  0  0
 38 37  1  0  0  0  0
 39 40  1  0  0  0  0
 40 41  1  0  0  0  0
 42 43  1  0  0  0  0
 42 40  2  0  0  0  0
 44 42  1  0  0  0  0
M  END
>  <minimizedAffinity>
-6.24480486

$$$$

 OpenBabel03262520303D

 44 47  0  0  1  0  0  0  0  0999 V2000
   38.5160   26.8560   33.5540 C   0  0  0  0  0  0  0  0  0  0  0  0
   37.9750   25.9830   32.6420 C   0  0  0  0  0  0  0  0  0  0  0  0
   37.6060   24.7590   33.1600 C   0  0  0  0  0  0  0  0  0  0  0  0
   37.7990   24.5180   34.4780 N   0  0  0  0  0  0  0  0  0  0  0  0
   38.3270   25.3940   35.3250 C   0  0  0  0  0  0  0  0  0  0  0  0
   38.6580   26.5320   34.7920 N   0  0  0  0  0  0  0  0  0  0  0  0
   37.0270   23.8140   32.2360 N   0  0  0  0  0  0  0  0  0  0  0  0
   38.8600   27.8620   33.3190 H   0  0  0  0  0  0  0  0  0  0  0  0
   36.0450   24.0940   31.9730 H   0  0  0  0  0  0  0  0  0  0  0  0
   37.5370   22.9630   31.8850 H   0  0  0  0  0  0  0  0  0  0  0  0
   38.2520   24.6310   36.5270 C   0  0  1  0  0  0  0  0  0  0  0  0
   37.9230   23.6260   37.2190 N   0  0  0  0  0  0  0  0  0  0  0  0
   37.9070   23.4880   38.4960 C   0  0  0  0  0  0  0  0  0  0  0  0
   38.9200   22.5760   38.3860 N   0  0  0  0  0  0  0  0  0  0  0  0
   39.8010   22.8790   37.3900 C   0  0  0  0  0  0  0  0  0  0  0  0
   41.0150   22.1270   37.3850 C   0  0  0  0  0  0  0  0  0  0  0  0
   41.9230   22.3890   36.4300 C   0  0  0  0  0  0  0  0  0  0  0  0
   41.7740   23.3290   35.4520 C   0  0  0  0  0  0  0  0  0  0  0  0
   40.5830   23.9990   35.5350 C   0  0  0  0  0  0  0  0  0  0  0  0
   39.5090   23.9050   36.4170 C   0  0  0  0  0  0  0  0  0  0  0  0
   38.5010   25.4700   37.2810 H   0  0  0  0  0  0  0  0  0  0  0  0
   37.2830   22.9290   36.7270 H   0  0  0  0  0  0  0  0  0  0  0  0
   36.9890   23.0920   38.9800 H   0  0  0  0  0  0  0  0  0  0  0  0
   38.2160   24.3810   39.1010 H   0  0  0  0  0  0  0  0  0  0  0  0
   38.9760   21.7460   39.0210 H   0  0  0  0  0  0  0  0  0  0  0  0
   41.2290   21.3650   38.1100 H   0  0  0  0  0  0  0  0  0  0  0  0
   42.8580   21.8190   36.4160 H   0  0  0  0  0  0  0  0  0  0  0  0
   42.4560   23.5850   34.6670 H   0  0  0  0  0  0  0  0  0  0  0  0
   40.3930   24.7750   34.7720 H   0  0  0  0  0  0  0  0  0  0  0  0
   37.8230   26.3690   31.2340 C   0  0  0  0  0  0  0  0  0  0  0  0
   38.0800   25.5560   30.5560 H   0  0  0  0  0  0  0  0  0  0  0  0
   38.5730   27.1980   31.0690 H   0  0  0  0  0  0  0  0  0  0  0  0
   36.4860   26.9670   30.9380 C   0  0  0  0  0  0  0  0  0  0  0  0
   36.1180   26.6250   29.9470 H   0  0  0  0  0  0  0  0  0  0  0  0
   35.7610   26.7170   31.7380 H   0  0  0  0  0  0  0  0  0  0  0  0
   36.5460   28.4570   30.8630 C   0  0  0  0  0  0  0  0  0  0  0  0
   36.0780   29.2230   31.9130 C   0  0  0  0  0  0  0  0  0  0  0  0
   35.6790   28.6870   32.7620 H   0  0  0  0  0  0  0  0  0  0  0  0
   36.1110   30.6020   31.8940 C   0  0  0  0  0  3  0  0  0  0  0  0
   36.6390   31.2220   30.7650 C   0  0  0  0  0  0  0  0  0  0  0  0
   36.6340   32.3010   30.8160 H   0  0  0  0  0  0  0  0  0  0  0  0
   37.1080   30.4440   29.7120 C   0  0  0  0  0  0  0  0  0  0  0  0
   37.5050   31.0230   28.8700 H   0  0  0  0  0  0  0  0  0  0  0  0
   37.0670   29.0820   29.7510 C   0  0  0  0  0  3  0  0  0  0  0  0
  1  6  1  0  0  0  0
  2  3  1  0  0  0  0
  2  1  2  0  0  0  0
  3  4  2  0  0  0  0
  4  5  1  0  0  0  0
  5 11  1  0  0  0  0
  6  5  2  0  0  0  0
  7  3  1  0  0  0  0
  8  1  1  0  0  0  0
  9  7  1  0  0  0  0
 10  7  1  0  0  0  0
 11 12  1  0  0  0  0
 11 21  1  1  0  0  0
 12 13  1  0  0  0  0
 13 23  1  0  0  0  0
 13 24  1  0  0  0  0
 14 13  1  0  0  0  0
 14 25  1  0  0  0  0
 15 14  1  0  0  0  0
 16 15  1  0  0  0  0
 16 26  1  0  0  0  0
 17 16  2  0  0  0  0
 18 19  2  0  0  0  0
 18 17  1  0  0  0  0
 19 20  1  0  0  0  0
 20 11  1  0  0  0  0
 20 15  2  0  0  0  0
 22 12  1  0  0  0  0
 27 17  1  0  0  0  0
 28 18  1  0  0  0  0
 29 19  1  0  0  0  0
 30  2  1  0  0  0  0
 31 30  1  0  0  0  0
 32 30  1  0  0  0  0
 33 30  1  0  0  0  0
 33 35  1  0  0  0  0
 34 33  1  0  0  0  0
 36 33  1  0  0  0  0
 36 37  1  0  0  0  0
 37 38  1  0  0  0  0
 39 37  2  0  0  0  0
 40 41  1  0  0  0  0
 40 39  1  0  0  0  0
 42 44  1  0  0  0  0
 42 40  2  0  0  0  0
 43 42  1  0  0  0  0
 44 36  2  0  0  0  0
M  END
>  <minimizedAffinity>
-6.20332146

$$$$

 OpenBabel03262520303D

 44 47  0  0  1  0  0  0  0  0999 V2000
   39.1960   24.6530   33.3630 C   0  0  0  0  0  0  0  0  0  0  0  0
   38.4250   23.5910   32.9620 C   0  0  0  0  0  0  0  0  0  0  0  0
   37.5300   23.8740   31.9510 C   0  0  0  0  0  0  0  0  0  0  0  0
   37.4810   25.1300   31.4490 N   0  0  0  0  0  0  0  0  0  0  0  0
   38.2480   26.1300   31.8690 C   0  0  0  0  0  0  0  0  0  0  0  0
   39.0750   25.8160   32.8220 N   0  0  0  0  0  0  0  0  0  0  0  0
   36.7040   22.7820   31.4940 N   0  0  0  0  0  0  0  0  0  0  0  0
   39.9510   24.6090   34.1470 H   0  0  0  0  0  0  0  0  0  0  0  0
   37.2640   22.0960   30.9220 H   0  0  0  0  0  0  0  0  0  0  0  0
   35.6780   22.7040   31.7150 H   0  0  0  0  0  0  0  0  0  0  0  0
   37.7960   27.1570   30.9910 C   0  0  1  0  0  0  0  0  0  0  0  0
   37.0000   27.6710   30.1540 N   0  0  0  0  0  0  0  0  0  0  0  0
   37.1690   28.6910   29.3910 C   0  0  0  0  0  0  0  0  0  0  0  0
   36.2080   29.3520   30.1050 N   0  0  0  0  0  0  0  0  0  0  0  0
   36.2240   29.0400   31.4330 C   0  0  0  0  0  0  0  0  0  0  0  0
   35.4340   29.8780   32.2770 C   0  0  0  0  0  0  0  0  0  0  0  0
   35.4170   29.6210   33.5960 C   0  0  0  0  0  0  0  0  0  0  0  0
   36.1060   28.6080   34.1980 C   0  0  0  0  0  0  0  0  0  0  0  0
   36.8340   27.8580   33.3140 C   0  0  0  0  0  0  0  0  0  0  0  0
   37.0030   27.9330   31.9340 C   0  0  0  0  0  0  0  0  0  0  0  0
   38.7760   27.7630   30.9130 H   0  0  0  0  0  0  0  0  0  0  0  0
   36.2390   27.0160   29.7950 H   0  0  0  0  0  0  0  0  0  0  0  0
   36.9430   28.5920   28.3080 H   0  0  0  0  0  0  0  0  0  0  0  0
   38.1630   29.2050   29.4560 H   0  0  0  0  0  0  0  0  0  0  0  0
   35.5500   30.0210   29.6420 H   0  0  0  0  0  0  0  0  0  0  0  0
   34.8550   30.7000   31.9010 H   0  0  0  0  0  0  0  0  0  0  0  0
   34.8160   30.2560   34.2530 H   0  0  0  0  0  0  0  0  0  0  0  0
   36.1350   28.3520   35.2380 H   0  0  0  0  0  0  0  0  0  0  0  0
   37.4160   27.0180   33.7330 H   0  0  0  0  0  0  0  0  0  0  0  0
   38.5750   22.2740   33.5920 C   0  0  0  0  0  0  0  0  0  0  0  0
   39.6110   22.0600   33.8560 H   0  0  0  0  0  0  0  0  0  0  0  0
   38.2660   21.5280   32.8030 H   0  0  0  0  0  0  0  0  0  0  0  0
   37.6350   22.0680   34.7350 C   0  0  0  0  0  0  0  0  0  0  0  0
   36.7150   22.6750   34.5980 H   0  0  0  0  0  0  0  0  0  0  0  0
   37.3860   20.9930   34.8460 H   0  0  0  0  0  0  0  0  0  0  0  0
   38.2290   22.5060   36.0330 C   0  0  0  0  0  0  0  0  0  0  0  0
   39.5480   22.2210   36.3230 C   0  0  0  0  0  0  0  0  0  0  0  0
   40.1020   21.6760   35.5720 H   0  0  0  0  0  0  0  0  0  0  0  0
   40.1450   22.6030   37.5070 C   0  0  0  0  0  3  0  0  0  0  0  0
   39.3680   23.3020   38.4270 C   0  0  0  0  0  0  0  0  0  0  0  0
   39.8960   23.5700   39.3310 H   0  0  0  0  0  0  0  0  0  0  0  0
   38.0400   23.5860   38.1280 C   0  0  0  0  0  0  0  0  0  0  0  0
   37.5130   24.1380   38.9140 H   0  0  0  0  0  0  0  0  0  0  0  0
   37.4700   23.1980   36.9510 C   0  0  0  0  0  3  0  0  0  0  0  0
  1  8  1  0  0  0  0
  2  1  1  0  0  0  0
  2 30  1  0  0  0  0
  3  2  2  0  0  0  0
  4  5  2  0  0  0  0
  4  3  1  0  0  0  0
  5  6  1  0  0  0  0
  6  1  2  0  0  0  0
  7 10  1  0  0  0  0
  7  3  1  0  0  0  0
  9  7  1  0  0  0  0
 11 21  1  6  0  0  0
 11  5  1  0  0  0  0
 11 20  1  0  0  0  0
 12 11  1  0  0  0  0
 13 24  1  0  0  0  0
 13 14  1  0  0  0  0
 13 12  1  0  0  0  0
 14 15  1  0  0  0  0
 15 20  2  0  0  0  0
 15 16  1  0  0  0  0
 16 17  2  0  0  0  0
 17 18  1  0  0  0  0
 17 27  1  0  0  0  0
 18 28  1  0  0  0  0
 19 29  1  0  0  0  0
 19 18  2  0  0  0  0
 20 19  1  0  0  0  0
 22 12  1  0  0  0  0
 23 13  1  0  0  0  0
 25 14  1  0  0  0  0
 26 16  1  0  0  0  0
 30 31  1  0  0  0  0
 30 33  1  0  0  0  0
 32 30  1  0  0  0  0
 33 35  1  0  0  0  0
 33 36  1  0  0  0  0
 34 33  1  0  0  0  0
 36 37  2  0  0  0  0
 36 44  1  0  0  0  0
 37 39  1  0  0  0  0
 38 37  1  0  0  0  0
 39 40  2  0  0  0  0
 40 41  1  0  0  0  0
 42 40  1  0  0  0  0
 42 43  1  0  0  0  0
 44 42  2  0  0  0  0
M  END
>  <minimizedAffinity>
-6.18601751

$$$$

 OpenBabel03262520303D

 44 47  0  0  1  0  0  0  0  0999 V2000
   36.9990   27.5420   34.3170 C   0  0  0  0  0  0  0  0  0  0  0  0
   36.6110   27.4830   33.0020 C   0  0  0  0  0  0  0  0  0  0  0  0
   37.0820   26.3870   32.3080 C   0  0  0  0  0  0  0  0  0  0  0  0
   37.8620   25.4870   32.9510 N   0  0  0  0  0  0  0  0  0  0  0  0
   38.2130   25.5850   34.2280 C   0  0  0  0  0  0  0  0  0  0  0  0
   37.7460   26.6320   34.8410 N   0  0  0  0  0  0  0  0  0  0  0  0
   36.6910   26.2830   30.9230 N   0  0  0  0  0  0  0  0  0  0  0  0
   36.7200   28.3350   35.0100 H   0  0  0  0  0  0  0  0  0  0  0  0
   35.6770   26.0110   30.8330 H   0  0  0  0  0  0  0  0  0  0  0  0
   37.3520   26.4600   30.1220 H   0  0  0  0  0  0  0  0  0  0  0  0
   38.9730   24.3860   34.3540 C   0  0  1  0  0  0  0  0  0  0  0  0
   40.0370   23.7250   34.5250 N   0  0  0  0  0  0  0  0  0  0  0  0
   40.2590   22.4760   34.3220 C   0  0  0  0  0  0  0  0  0  0  0  0
   40.4170   22.3100   35.6700 N   0  0  0  0  0  0  0  0  0  0  0  0
   39.5870   23.1080   36.4030 C   0  0  0  0  0  0  0  0  0  0  0  0
   39.5070   22.8050   37.7960 C   0  0  0  0  0  0  0  0  0  0  0  0
   38.6990   23.5530   38.5660 C   0  0  0  0  0  0  0  0  0  0  0  0
   37.9390   24.5930   38.1140 C   0  0  0  0  0  0  0  0  0  0  0  0
   38.0790   24.8100   36.7690 C   0  0  0  0  0  0  0  0  0  0  0  0
   38.8390   24.1780   35.7890 C   0  0  0  0  0  0  0  0  0  0  0  0
   38.2060   23.6460   33.9110 H   0  0  0  0  0  0  0  0  0  0  0  0
   40.9330   24.3030   34.5220 H   0  0  0  0  0  0  0  0  0  0  0  0
   41.1460   22.1810   33.7220 H   0  0  0  0  0  0  0  0  0  0  0  0
   39.4020   21.8720   33.9270 H   0  0  0  0  0  0  0  0  0  0  0  0
   41.1130   21.6320   36.0580 H   0  0  0  0  0  0  0  0  0  0  0  0
   40.0640   22.0080   38.2510 H   0  0  0  0  0  0  0  0  0  0  0  0
   38.6280   23.3310   39.6360 H   0  0  0  0  0  0  0  0  0  0  0  0
   37.2780   25.2240   38.6730 H   0  0  0  0  0  0  0  0  0  0  0  0
   37.4940   25.6400   36.3350 H   0  0  0  0  0  0  0  0  0  0  0  0
   35.7620   28.5300   32.4230 C   0  0  0  0  0  0  0  0  0  0  0  0
   34.9050   28.1180   31.8920 H   0  0  0  0  0  0  0  0  0  0  0  0
   36.4120   29.0540   31.6600 H   0  0  0  0  0  0  0  0  0  0  0  0
   35.3770   29.5790   33.4150 C   0  0  0  0  0  0  0  0  0  0  0  0
   35.9460   29.4490   34.3600 H   0  0  0  0  0  0  0  0  0  0  0  0
   35.5360   30.5920   32.9930 H   0  0  0  0  0  0  0  0  0  0  0  0
   33.9340   29.4920   33.7870 C   0  0  0  0  0  0  0  0  0  0  0  0
   33.5310   29.7830   35.0750 C   0  0  0  0  0  0  0  0  0  0  0  0
   34.3060   30.0680   35.7720 H   0  0  0  0  0  0  0  0  0  0  0  0
   32.2100   29.7170   35.4700 C   0  0  0  0  0  3  0  0  0  0  0  0
   31.2670   29.3420   34.5160 C   0  0  0  0  0  0  0  0  0  0  0  0
   30.2550   29.3100   34.8920 H   0  0  0  0  0  0  0  0  0  0  0  0
   31.6810   29.0500   33.2210 C   0  0  0  0  0  0  0  0  0  0  0  0
   30.8670   28.7660   32.5450 H   0  0  0  0  0  0  0  0  0  0  0  0
   32.9920   29.1220   32.8520 C   0  0  0  0  0  3  0  0  0  0  0  0
  1  6  1  0  0  0  0
  1  8  1  0  0  0  0
  2  1  2  0  0  0  0
  3  4  2  0  0  0  0
  3  2  1  0  0  0  0
  4  5  1  0  0  0  0
  5 11  1  0  0  0  0
  5  6  2  0  0  0  0
  7  3  1  0  0  0  0
  9  7  1  0  0  0  0
 10  7  1  0  0  0  0
 11 21  1  6  0  0  0
 11 12  1  0  0  0  0
 11 20  1  0  0  0  0
 13 12  1  0  0  0  0
 13 14  1  0  0  0  0
 14 25  1  0  0  0  0
 14 15  1  0  0  0  0
 15 16  1  0  0  0  0
 16 26  1  0  0  0  0
 16 17  2  0  0  0  0
 17 27  1  0  0  0  0
 18 17  1  0  0  0  0
 18 28  1  0  0  0  0
 19 18  2  0  0  0  0
 20 15  2  0  0  0  0
 20 19  1  0  0  0  0
 22 12  1  0  0  0  0
 23 13  1  0  0  0  0
 24 13  1  0  0  0  0
 29 19  1  0  0  0  0
 30  2  1  0  0  0  0
 30 33  1  0  0  0  0
 31 30  1  0  0  0  0
 32 30  1  0  0  0  0
 33 36  1  0  0  0  0
 33 34  1  0  0  0  0
 35 33  1  0  0  0  0
 36 37  1  0  0  0  0
 37 39  2  0  0  0  0
 37 38  1  0  0  0  0
 40 41  1  0  0  0  0
 40 39  1  0  0  0  0
 42 40  2  0  0  0  0
 43 42  1  0  0  0  0
 44 42  1  0  0  0  0
 44 36  2  0  0  0  0
M  END
>  <minimizedAffinity>
-6.16642809

$$$$

 OpenBabel03262520303D

 44 47  0  0  1  0  0  0  0  0999 V2000
   37.2320   26.6250   33.0480 C   0  0  0  0  0  0  0  0  0  0  0  0
   38.0520   26.6210   34.1490 C   0  0  0  0  0  0  0  0  0  0  0  0
   37.8000   27.6220   35.0640 C   0  0  0  0  0  0  0  0  0  0  0  0
   36.8020   28.5020   34.8170 N   0  0  0  0  0  0  0  0  0  0  0  0
   36.0310   28.4690   33.7350 C   0  0  0  0  0  0  0  0  0  0  0  0
   36.3060   27.5080   32.9030 N   0  0  0  0  0  0  0  0  0  0  0  0
   38.6360   27.6480   36.2400 N   0  0  0  0  0  0  0  0  0  0  0  0
   37.2910   25.9090   32.2290 H   0  0  0  0  0  0  0  0  0  0  0  0
   38.3870   26.8650   36.9000 H   0  0  0  0  0  0  0  0  0  0  0  0
   39.3900   28.3670   36.3960 H   0  0  0  0  0  0  0  0  0  0  0  0
   35.1740   29.5690   34.0260 C   0  0  1  0  0  0  0  0  0  0  0  0
   34.8730   30.6610   34.5860 N   0  0  0  0  0  0  0  0  0  0  0  0
   33.7250   31.2290   34.6980 C   0  0  0  0  0  0  0  0  0  0  0  0
   34.1700   32.2330   33.8840 N   0  0  0  0  0  0  0  0  0  0  0  0
   35.0150   31.7910   32.9080 C   0  0  0  0  0  0  0  0  0  0  0  0
   35.3080   32.7270   31.8700 C   0  0  0  0  0  0  0  0  0  0  0  0
   36.1290   32.3430   30.8780 C   0  0  0  0  0  0  0  0  0  0  0  0
   36.7100   31.1120   30.7840 C   0  0  0  0  0  0  0  0  0  0  0  0
   36.3730   30.2820   31.8190 C   0  0  0  0  0  0  0  0  0  0  0  0
   35.5580   30.4540   32.9350 C   0  0  0  0  0  0  0  0  0  0  0  0
   34.1780   29.1160   33.6550 H   0  0  0  0  0  0  0  0  0  0  0  0
   35.5650   30.9950   35.3250 H   0  0  0  0  0  0  0  0  0  0  0  0
   33.3930   31.5710   35.7010 H   0  0  0  0  0  0  0  0  0  0  0  0
   32.8520   30.6870   34.2500 H   0  0  0  0  0  0  0  0  0  0  0  0
   33.8700   33.2250   34.0290 H   0  0  0  0  0  0  0  0  0  0  0  0
   34.9030   33.7200   31.8520 H   0  0  0  0  0  0  0  0  0  0  0  0
   36.3620   33.0510   30.0770 H   0  0  0  0  0  0  0  0  0  0  0  0
   37.3690   30.7450   30.0230 H   0  0  0  0  0  0  0  0  0  0  0  0
   36.8100   29.2680   31.8090 H   0  0  0  0  0  0  0  0  0  0  0  0
   39.1040   25.6080   34.2950 C   0  0  0  0  0  0  0  0  0  0  0  0
   39.8800   25.9190   34.9940 H   0  0  0  0  0  0  0  0  0  0  0  0
   39.5820   25.5240   33.2750 H   0  0  0  0  0  0  0  0  0  0  0  0
   38.5630   24.2490   34.6020 C   0  0  0  0  0  0  0  0  0  0  0  0
   37.4750   24.2050   34.3830 H   0  0  0  0  0  0  0  0  0  0  0  0
   39.1130   23.4730   34.0340 H   0  0  0  0  0  0  0  0  0  0  0  0
   38.7070   23.9050   36.0480 C   0  0  0  0  0  0  0  0  0  0  0  0
   37.7540   24.3180   36.9570 C   0  0  0  0  0  0  0  0  0  0  0  0
   36.9250   24.8890   36.5640 H   0  0  0  0  0  0  0  0  0  0  0  0
   37.8400   24.0270   38.3030 C   0  0  0  0  0  3  0  0  0  0  0  0
   38.9370   23.2870   38.7370 C   0  0  0  0  0  0  0  0  0  0  0  0
   38.9430   23.0950   39.8000 H   0  0  0  0  0  0  0  0  0  0  0  0
   39.8930   22.8750   37.8150 C   0  0  0  0  0  0  0  0  0  0  0  0
   40.7170   22.2990   38.2520 H   0  0  0  0  0  0  0  0  0  0  0  0
   39.7880   23.1740   36.4890 C   0  0  0  0  0  3  0  0  0  0  0  0
  1  2  1  0  0  0  0
  2 30  1  0  0  0  0
  2  3  2  0  0  0  0
  3  7  1  0  0  0  0
  4  3  1  0  0  0  0
  5 11  1  0  0  0  0
  5  4  2  0  0  0  0
  6  1  2  0  0  0  0
  6  5  1  0  0  0  0
  7 10  1  0  0  0  0
  7  9  1  0  0  0  0
  8  1  1  0  0  0  0
 11 21  1  6  0  0  0
 11 12  1  0  0  0  0
 12 13  1  0  0  0  0
 12 22  1  0  0  0  0
 13 23  1  0  0  0  0
 14 25  1  0  0  0  0
 14 13  1  0  0  0  0
 15 20  1  0  0  0  0
 15 14  1  0  0  0  0
 16 15  2  0  0  0  0
 17 16  1  0  0  0  0
 18 17  2  0  0  0  0
 18 19  1  0  0  0  0
 19 20  2  0  0  0  0
 20 11  1  0  0  0  0
 24 13  1  0  0  0  0
 26 16  1  0  0  0  0
 27 17  1  0  0  0  0
 28 18  1  0  0  0  0
 29 19  1  0  0  0  0
 30 33  1  0  0  0  0
 30 31  1  0  0  0  0
 32 30  1  0  0  0  0
 33 36  1  0  0  0  0
 34 33  1  0  0  0  0
 35 33  1  0  0  0  0
 36 44  2  0  0  0  0
 36 37  1  0  0  0  0
 37 39  2  0  0  0  0
 38 37  1  0  0  0  0
 39 40  1  0  0  0  0
 40 41  1  0  0  0  0
 42 43  1  0  0  0  0
 42 40  2  0  0  0  0
 44 42  1  0  0  0  0
M  END
>  <minimizedAffinity>
-6.15505028

$$$$

 OpenBabel03262520303D

 44 47  0  0  1  0  0  0  0  0999 V2000
   37.6420   25.3260   33.6290 C   0  0  0  0  0  0  0  0  0  0  0  0
   38.1800   25.8800   34.7630 C   0  0  0  0  0  0  0  0  0  0  0  0
   37.8830   27.2130   34.9550 C   0  0  0  0  0  0  0  0  0  0  0  0
   37.1130   27.8520   34.0440 N   0  0  0  0  0  0  0  0  0  0  0  0
   36.6110   27.2750   32.9570 C   0  0  0  0  0  0  0  0  0  0  0  0
   36.9180   26.0190   32.8200 N   0  0  0  0  0  0  0  0  0  0  0  0
   38.4240   27.8330   36.1410 N   0  0  0  0  0  0  0  0  0  0  0  0
   37.7750   24.2890   33.3230 H   0  0  0  0  0  0  0  0  0  0  0  0
   37.9160   27.5070   37.0050 H   0  0  0  0  0  0  0  0  0  0  0  0
   39.2230   28.5180   36.1200 H   0  0  0  0  0  0  0  0  0  0  0  0
   35.8880   28.3780   32.4190 C   0  0  1  0  0  0  0  0  0  0  0  0
   35.5960   29.6030   32.3070 N   0  0  0  0  0  0  0  0  0  0  0  0
   34.5760   30.1480   31.7470 C   0  0  0  0  0  0  0  0  0  0  0  0
   35.4090   30.6740   30.7990 N   0  0  0  0  0  0  0  0  0  0  0  0
   36.4430   29.8420   30.4810 C   0  0  0  0  0  0  0  0  0  0  0  0
   37.1970   30.2040   29.3230 C   0  0  0  0  0  0  0  0  0  0  0  0
   38.2220   29.4170   28.9580 C   0  0  0  0  0  0  0  0  0  0  0  0
   38.6050   28.2840   29.6160 C   0  0  0  0  0  0  0  0  0  0  0  0
   37.8270   28.0150   30.7110 C   0  0  0  0  0  0  0  0  0  0  0  0
   36.7350   28.6710   31.2720 C   0  0  0  0  0  0  0  0  0  0  0  0
   35.0060   27.7970   31.9510 H   0  0  0  0  0  0  0  0  0  0  0  0
   36.0570   30.2440   33.0240 H   0  0  0  0  0  0  0  0  0  0  0  0
   33.9960   30.9070   32.3130 H   0  0  0  0  0  0  0  0  0  0  0  0
   33.8210   29.4530   31.2960 H   0  0  0  0  0  0  0  0  0  0  0  0
   35.2360   31.6200   30.3860 H   0  0  0  0  0  0  0  0  0  0  0  0
   36.9780   31.0760   28.7360 H   0  0  0  0  0  0  0  0  0  0  0  0
   38.8080   29.6830   28.0720 H   0  0  0  0  0  0  0  0  0  0  0  0
   39.4080   27.6160   29.3780 H   0  0  0  0  0  0  0  0  0  0  0  0
   38.0820   27.1130   31.2940 H   0  0  0  0  0  0  0  0  0  0  0  0
   39.0050   25.0750   35.6720 C   0  0  0  0  0  0  0  0  0  0  0  0
   38.4540   24.2340   36.0910 H   0  0  0  0  0  0  0  0  0  0  0  0
   39.2700   25.7650   36.5260 H   0  0  0  0  0  0  0  0  0  0  0  0
   40.3080   24.6650   35.0640 C   0  0  0  0  0  0  0  0  0  0  0  0
   40.1540   24.2920   34.0290 H   0  0  0  0  0  0  0  0  0  0  0  0
   41.0260   25.5080   35.0780 H   0  0  0  0  0  0  0  0  0  0  0  0
   40.9470   23.5450   35.8160 C   0  0  0  0  0  0  0  0  0  0  0  0
   42.2510   23.1830   35.5450 C   0  0  0  0  0  0  0  0  0  0  0  0
   42.7610   23.7480   34.7770 H   0  0  0  0  0  0  0  0  0  0  0  0
   42.8880   22.1560   36.2110 C   0  0  0  0  0  3  0  0  0  0  0  0
   42.1670   21.4730   37.1870 C   0  0  0  0  0  0  0  0  0  0  0  0
   42.7240   20.6810   37.6680 H   0  0  0  0  0  0  0  0  0  0  0  0
   40.8530   21.8420   37.4530 C   0  0  0  0  0  0  0  0  0  0  0  0
   40.3710   21.2470   38.2370 H   0  0  0  0  0  0  0  0  0  0  0  0
   40.2440   22.8610   36.7840 C   0  0  0  0  0  3  0  0  0  0  0  0
  1  2  1  0  0  0  0
  2  3  2  0  0  0  0
  2 30  1  0  0  0  0
  3  7  1  0  0  0  0
  4  3  1  0  0  0  0
  5  4  2  0  0  0  0
  6  5  1  0  0  0  0
  6  1  2  0  0  0  0
  7  9  1  0  0  0  0
  8  1  1  0  0  0  0
 10  7  1  0  0  0  0
 11 21  1  6  0  0  0
 11  5  1  0  0  0  0
 12 11  1  0  0  0  0
 12 22  1  0  0  0  0
 13 12  1  0  0  0  0
 13 23  1  0  0  0  0
 14 13  1  0  0  0  0
 15 14  1  0  0  0  0
 15 20  1  0  0  0  0
 16 15  2  0  0  0  0
 17 16  1  0  0  0  0
 17 18  2  0  0  0  0
 18 19  1  0  0  0  0
 19 20  2  0  0  0  0
 19 29  1  0  0  0  0
 20 11  1  0  0  0  0
 24 13  1  0  0  0  0
 25 14  1  0  0  0  0
 26 16  1  0  0  0  0
 27 17  1  0  0  0  0
 28 18  1  0  0  0  0
 30 31  1  0  0  0  0
 30 32  1  0  0  0  0
 33 35  1  0  0  0  0
 33 30  1  0  0  0  0
 33 36  1  0  0  0  0
 34 33  1  0  0  0  0
 36 44  1  0  0  0  0
 37 36  2  0  0  0  0
 37 39  1  0  0  0  0
 38 37  1  0  0  0  0
 39 40  2  0  0  0  0
 40 42  1  0  0  0  0
 40 41  1  0  0  0  0
 42 43  1  0  0  0  0
 44 42  2  0  0  0  0
M  END
>  <minimizedAffinity>
-6.13256216

$$$$

 OpenBabel03262520303D

 44 47  0  0  1  0  0  0  0  0999 V2000
   37.7270   25.5570   33.0450 C   0  0  0  0  0  0  0  0  0  0  0  0
   37.4590   26.8670   33.3550 C   0  0  0  0  0  0  0  0  0  0  0  0
   37.3540   27.1340   34.7040 C   0  0  0  0  0  0  0  0  0  0  0  0
   37.5150   26.1230   35.5880 N   0  0  0  0  0  0  0  0  0  0  0  0
   37.7740   24.8660   35.2440 C   0  0  0  0  0  0  0  0  0  0  0  0
   37.8640   24.6630   33.9630 N   0  0  0  0  0  0  0  0  0  0  0  0
   37.0790   28.5020   35.0730 N   0  0  0  0  0  0  0  0  0  0  0  0
   37.8420   25.1700   32.0330 H   0  0  0  0  0  0  0  0  0  0  0  0
   37.9280   29.1110   34.9320 H   0  0  0  0  0  0  0  0  0  0  0  0
   36.1450   28.8260   35.4340 H   0  0  0  0  0  0  0  0  0  0  0  0
   37.8700   24.2830   36.5400 C   0  0  1  0  0  0  0  0  0  0  0  0
   37.7270   23.3520   37.3840 N   0  0  0  0  0  0  0  0  0  0  0  0
   37.7910   23.4000   38.6660 C   0  0  0  0  0  0  0  0  0  0  0  0
   38.9220   22.6340   38.6140 N   0  0  0  0  0  0  0  0  0  0  0  0
   39.7010   22.9120   37.5280 C   0  0  0  0  0  0  0  0  0  0  0  0
   41.0130   22.3470   37.5450 C   0  0  0  0  0  0  0  0  0  0  0  0
   41.8270   22.5940   36.5050 C   0  0  0  0  0  0  0  0  0  0  0  0
   41.4930   23.3510   35.4200 C   0  0  0  0  0  0  0  0  0  0  0  0
   40.2200   23.8510   35.4900 C   0  0  0  0  0  0  0  0  0  0  0  0
   39.2150   23.7340   36.4460 C   0  0  0  0  0  0  0  0  0  0  0  0
   38.0240   25.2490   37.1540 H   0  0  0  0  0  0  0  0  0  0  0  0
   37.1770   22.5080   37.0350 H   0  0  0  0  0  0  0  0  0  0  0  0
   36.9660   22.9520   39.2600 H   0  0  0  0  0  0  0  0  0  0  0  0
   37.9900   24.4050   39.1210 H   0  0  0  0  0  0  0  0  0  0  0  0
   39.1320   21.9210   39.3510 H   0  0  0  0  0  0  0  0  0  0  0  0
   41.3720   21.7360   38.3510 H   0  0  0  0  0  0  0  0  0  0  0  0
   42.8350   22.1670   36.5060 H   0  0  0  0  0  0  0  0  0  0  0  0
   42.0920   23.5850   34.5630 H   0  0  0  0  0  0  0  0  0  0  0  0
   39.8810   24.4730   34.6430 H   0  0  0  0  0  0  0  0  0  0  0  0
   37.3030   27.8710   32.2950 C   0  0  0  0  0  0  0  0  0  0  0  0
   38.0270   27.7380   31.4930 H   0  0  0  0  0  0  0  0  0  0  0  0
   37.5230   28.8630   32.7890 H   0  0  0  0  0  0  0  0  0  0  0  0
   35.8990   27.9710   31.7940 C   0  0  0  0  0  0  0  0  0  0  0  0
   35.8710   27.8600   30.6890 H   0  0  0  0  0  0  0  0  0  0  0  0
   35.2550   27.2140   32.2830 H   0  0  0  0  0  0  0  0  0  0  0  0
   35.2940   29.3040   32.0900 C   0  0  0  0  0  0  0  0  0  0  0  0
   34.0450   29.3840   32.6720 C   0  0  0  0  0  0  0  0  0  0  0  0
   33.5510   28.4480   32.8910 H   0  0  0  0  0  0  0  0  0  0  0  0
   33.4420   30.5900   32.9670 C   0  0  0  0  0  3  0  0  0  0  0  0
   34.1390   31.7550   32.6560 C   0  0  0  0  0  0  0  0  0  0  0  0
   33.6100   32.6620   32.9120 H   0  0  0  0  0  0  0  0  0  0  0  0
   35.3970   31.6660   32.0690 C   0  0  0  0  0  0  0  0  0  0  0  0
   35.8640   32.6350   31.8630 H   0  0  0  0  0  0  0  0  0  0  0  0
   35.9740   30.4630   31.7870 C   0  0  0  0  0  3  0  0  0  0  0  0
  1  2  2  0  0  0  0
  1  6  1  0  0  0  0
  2  3  1  0  0  0  0
  3  7  1  0  0  0  0
  3  4  2  0  0  0  0
  5  4  1  0  0  0  0
  5 11  1  0  0  0  0
  6  5  2  0  0  0  0
  7 10  1  0  0  0  0
  8  1  1  0  0  0  0
  9  7  1  0  0  0  0
 11 21  1  1  0  0  0
 11 12  1  0  0  0  0
 12 13  1  0  0  0  0
 13 24  1  0  0  0  0
 13 23  1  0  0  0  0
 14 13  1  0  0  0  0
 14 25  1  0  0  0  0
 15 16  1  0  0  0  0
 15 14  1  0  0  0  0
 16 26  1  0  0  0  0
 17 27  1  0  0  0  0
 17 16  2  0  0  0  0
 18 19  2  0  0  0  0
 18 17  1  0  0  0  0
 19 20  1  0  0  0  0
 20 11  1  0  0  0  0
 20 15  2  0  0  0  0
 22 12  1  0  0  0  0
 28 18  1  0  0  0  0
 29 19  1  0  0  0  0
 30 32  1  0  0  0  0
 30  2  1  0  0  0  0
 31 30  1  0  0  0  0
 33 36  1  0  0  0  0
 33 35  1  0  0  0  0
 33 30  1  0  0  0  0
 34 33  1  0  0  0  0
 36 37  1  0  0  0  0
 37 38  1  0  0  0  0
 37 39  2  0  0  0  0
 40 41  1  0  0  0  0
 40 39  1  0  0  0  0
 42 40  2  0  0  0  0
 43 42  1  0  0  0  0
 44 42  1  0  0  0  0
 44 36  2  0  0  0  0
M  END
>  <minimizedAffinity>
-6.09327745

$$$$

 OpenBabel03262520303D

 44 47  0  0  1  0  0  0  0  0999 V2000
   35.9000   25.1300   31.4390 C   0  0  0  0  0  0  0  0  0  0  0  0
   37.2160   24.7470   31.5160 C   0  0  0  0  0  0  0  0  0  0  0  0
   38.1270   25.7460   31.2440 C   0  0  0  0  0  0  0  0  0  0  0  0
   37.6730   26.9820   30.9330 N   0  0  0  0  0  0  0  0  0  0  0  0
   36.3870   27.3090   30.8700 C   0  0  0  0  0  0  0  0  0  0  0  0
   35.5660   26.3360   31.1340 N   0  0  0  0  0  0  0  0  0  0  0  0
   39.5230   25.3870   31.3210 N   0  0  0  0  0  0  0  0  0  0  0  0
   35.0520   24.4710   31.6210 H   0  0  0  0  0  0  0  0  0  0  0  0
   39.8280   25.2630   32.3220 H   0  0  0  0  0  0  0  0  0  0  0  0
   40.1360   25.2710   30.4740 H   0  0  0  0  0  0  0  0  0  0  0  0
   36.5120   28.6910   30.5470 C   0  0  1  0  0  0  0  0  0  0  0  0
   36.0900   29.8040   30.1220 N   0  0  0  0  0  0  0  0  0  0  0  0
   36.7540   30.8550   29.7950 C   0  0  0  0  0  0  0  0  0  0  0  0
   36.1980   31.5070   30.8600 N   0  0  0  0  0  0  0  0  0  0  0  0
   36.0120   30.6950   31.9410 C   0  0  0  0  0  0  0  0  0  0  0  0
   35.6840   31.3560   33.1640 C   0  0  0  0  0  0  0  0  0  0  0  0
   35.4970   30.6070   34.2640 C   0  0  0  0  0  0  0  0  0  0  0  0
   35.5960   29.2460   34.3030 C   0  0  0  0  0  0  0  0  0  0  0  0
   35.9130   28.7000   33.0880 C   0  0  0  0  0  0  0  0  0  0  0  0
   36.1500   29.2630   31.8360 C   0  0  0  0  0  0  0  0  0  0  0  0
   37.6650   28.7650   30.5440 H   0  0  0  0  0  0  0  0  0  0  0  0
   35.1240   29.7780   29.6720 H   0  0  0  0  0  0  0  0  0  0  0  0
   36.5500   31.3330   28.8140 H   0  0  0  0  0  0  0  0  0  0  0  0
   37.8700   30.7910   29.8840 H   0  0  0  0  0  0  0  0  0  0  0  0
   35.9550   32.5240   30.8100 H   0  0  0  0  0  0  0  0  0  0  0  0
   35.5820   32.4220   33.2400 H   0  0  0  0  0  0  0  0  0  0  0  0
   35.2460   31.1010   35.2070 H   0  0  0  0  0  0  0  0  0  0  0  0
   35.4600   28.5940   35.1420 H   0  0  0  0  0  0  0  0  0  0  0  0
   36.0070   27.6000   33.0450 H   0  0  0  0  0  0  0  0  0  0  0  0
   37.5760   23.3670   31.8620 C   0  0  0  0  0  0  0  0  0  0  0  0
   37.3560   23.1330   32.9030 H   0  0  0  0  0  0  0  0  0  0  0  0
   38.6970   23.3090   31.7320 H   0  0  0  0  0  0  0  0  0  0  0  0
   37.0070   22.3630   30.9120 C   0  0  0  0  0  0  0  0  0  0  0  0
   36.1670   22.8050   30.3360 H   0  0  0  0  0  0  0  0  0  0  0  0
   37.7940   21.9790   30.2330 H   0  0  0  0  0  0  0  0  0  0  0  0
   36.4410   21.1790   31.6250 C   0  0  0  0  0  0  0  0  0  0  0  0
   36.0470   21.2870   32.9440 C   0  0  0  0  0  0  0  0  0  0  0  0
   36.1730   22.2550   33.4090 H   0  0  0  0  0  0  0  0  0  0  0  0
   35.5180   20.2250   33.6470 C   0  0  0  0  0  3  0  0  0  0  0  0
   35.3870   19.0090   32.9820 C   0  0  0  0  0  0  0  0  0  0  0  0
   34.9680   18.2200   33.5900 H   0  0  0  0  0  0  0  0  0  0  0  0
   35.7860   18.9080   31.6530 C   0  0  0  0  0  0  0  0  0  0  0  0
   35.6430   17.9120   31.2180 H   0  0  0  0  0  0  0  0  0  0  0  0
   36.3060   19.9710   30.9770 C   0  0  0  0  0  3  0  0  0  0  0  0
  1  2  1  0  0  0  0
  1  8  1  0  0  0  0
  2 30  1  0  0  0  0
  3  7  1  0  0  0  0
  3  2  2  0  0  0  0
  4  3  1  0  0  0  0
  5  4  2  0  0  0  0
  5  6  1  0  0  0  0
  6  1  2  0  0  0  0
  7  9  1  0  0  0  0
 10  7  1  0  0  0  0
 11 21  1  6  0  0  0
 11  5  1  0  0  0  0
 11 20  1  0  0  0  0
 12 11  1  0  0  0  0
 13 24  1  0  0  0  0
 13 12  1  0  0  0  0
 13 14  1  0  0  0  0
 14 15  1  0  0  0  0
 15 16  1  0  0  0  0
 16 26  1  0  0  0  0
 16 17  2  0  0  0  0
 17 18  1  0  0  0  0
 17 27  1  0  0  0  0
 18 28  1  0  0  0  0
 19 18  2  0  0  0  0
 20 15  2  0  0  0  0
 20 19  1  0  0  0  0
 22 12  1  0  0  0  0
 23 13  1  0  0  0  0
 25 14  1  0  0  0  0
 29 19  1  0  0  0  0
 30 31  1  0  0  0  0
 32 30  1  0  0  0  0
 33 36  1  0  0  0  0
 33 30  1  0  0  0  0
 34 33  1  0  0  0  0
 35 33  1  0  0  0  0
 36 37  1  0  0  0  0
 37 38  1  0  0  0  0
 37 39  2  0  0  0  0
 40 41  1  0  0  0  0
 40 39  1  0  0  0  0
 42 40  2  0  0  0  0
 43 42  1  0  0  0  0
 44 36  2  0  0  0  0
 44 42  1  0  0  0  0
M  END
>  <minimizedAffinity>
-6.01955223

$$$$
