
 OpenBabel03272505493D

 40 44  0  0  0  0  0  0  0  0999 V2000
   36.2030   30.3780   45.9070 C   0  0  0  0  0  0  0  0  0  0  0  0
   36.7330   30.6760   47.1160 C   0  0  0  0  0  0  0  0  0  0  0  0
   36.0600   30.3330   48.2810 C   0  0  0  0  0  0  0  0  0  0  0  0
   34.8410   29.6820   48.1620 C   0  0  0  0  0  0  0  0  0  0  0  0
   34.2950   29.3740   46.9160 C   0  0  0  0  0  0  0  0  0  0  0  0
   35.0110   29.7420   45.8180 N   0  0  0  0  0  0  0  0  0  0  0  0
   37.6800   31.1820   47.2190 H   0  0  0  0  0  0  0  0  0  0  0  0
   36.4500   30.5540   49.2670 H   0  0  0  0  0  0  0  0  0  0  0  0
   34.2400   29.3720   49.0100 H   0  0  0  0  0  0  0  0  0  0  0  0
   36.9260   30.7450   44.6280 C   0  0  0  0  0  0  0  0  0  0  0  0
   36.6720   29.9250   43.4220 C   0  0  0  0  0  0  0  0  0  0  0  0
   36.1240   31.3170   43.5110 C   0  0  0  0  0  0  0  0  0  0  0  0
   37.5730   29.7900   42.7570 H   0  0  0  0  0  0  0  0  0  0  0  0
   36.0250   29.0450   43.4100 H   0  0  0  0  0  0  0  0  0  0  0  0
   36.5740   32.1210   42.8880 H   0  0  0  0  0  0  0  0  0  0  0  0
   35.0190   31.3700   43.6730 H   0  0  0  0  0  0  0  0  0  0  0  0
   39.6220   33.2320   45.0110 C   0  0  0  0  0  0  0  0  0  0  0  0
   40.7100   32.4520   45.4170 C   0  0  0  0  0  0  0  0  0  0  0  0
   40.5160   31.0680   45.5600 C   0  0  0  0  0  0  0  0  0  0  0  0
   39.2910   30.5750   45.2960 N   0  0  0  0  0  0  0  0  0  0  0  0
   38.2490   31.3450   44.9030 C   0  0  0  0  0  0  0  0  0  0  0  0
   38.4150   32.6810   44.7600 N   0  0  0  0  0  0  0  0  0  0  0  0
   39.8130   34.2930   44.9130 H   0  0  0  0  0  0  0  0  0  0  0  0
   41.6920   32.8020   45.6350 H   0  0  0  0  0  0  0  0  0  0  0  0
   41.2580   30.3580   45.8620 H   0  0  0  0  0  0  0  0  0  0  0  0
   33.0230   28.6940   46.7380 C   0  0  0  0  0  0  0  0  0  0  0  0
   32.4520   28.1470   45.6300 N   0  0  0  0  0  0  0  0  0  0  0  0
   31.2460   27.6280   45.9960 C   0  0  0  0  0  0  0  0  0  0  0  0
   31.0670   27.8470   47.3170 N   0  0  0  0  0  0  0  0  0  0  0  0
   32.1420   28.4900   47.7570 N   0  0  0  0  0  0  0  0  0  0  0  0
   30.4940   27.1130   45.4120 H   0  0  0  0  0  0  0  0  0  0  0  0
   30.0360   27.5450   48.2330 C   0  0  0  0  0  0  0  0  0  0  0  0
   30.1970   27.6080   49.6080 C   0  0  0  0  0  0  0  0  0  0  0  0
   31.1540   27.9020   50.0180 H   0  0  0  0  0  0  0  0  0  0  0  0
   29.1750   27.3070   50.4860 C   0  0  0  0  0  0  0  0  0  0  0  0
   27.9330   26.9240   49.9700 C   0  0  0  0  0  0  0  0  0  0  0  0
   27.1080   26.6810   50.6270 H   0  0  0  0  0  0  0  0  0  0  0  0
   27.8100   26.8730   48.5960 C   0  0  0  0  0  0  0  0  0  0  0  0
   26.8150   26.5670   48.2370 H   0  0  0  0  0  0  0  0  0  0  0  0
   28.8060   27.1650   47.6880 C   0  0  0  0  0  0  0  0  0  0  0  0
  1  2  1  0  0  0  0
  2  7  1  0  0  0  0
  2  3  2  0  0  0  0
  3  8  1  0  0  0  0
  4  3  1  0  0  0  0
  4  9  1  0  0  0  0
  5  4  2  0  0  0  0
  6  1  2  0  0  0  0
  6  5  1  0  0  0  0
 10 21  1  0  0  0  0
 10  1  1  0  0  0  0
 11 12  1  0  0  0  0
 11 10  1  0  0  0  0
 12 16  1  0  0  0  0
 12 10  1  0  0  0  0
 13 11  1  0  0  0  0
 14 11  1  0  0  0  0
 15 12  1  0  0  0  0
 17 18  1  0  0  0  0
 18 19  2  0  0  0  0
 18 24  1  0  0  0  0
 19 25  1  0  0  0  0
 20 19  1  0  0  0  0
 21 20  2  0  0  0  0
 22 21  1  0  0  0  0
 22 17  2  0  0  0  0
 23 17  1  0  0  0  0
 26  5  1  0  0  0  0
 26 30  2  0  0  0  0
 27 28  2  0  0  0  0
 27 26  1  0  0  0  0
 28 29  1  0  0  0  0
 29 30  1  0  0  0  0
 29 32  1  0  0  0  0
 31 28  1  0  0  0  0
 32 33  1  0  0  0  0
 33 34  1  0  0  0  0
 33 35  2  0  0  0  0
 36 35  1  0  0  0  0
 36 37  1  0  0  0  0
 38 36  2  0  0  0  0
 39 38  1  0  0  0  0
 40 32  2  0  0  0  0
 40 38  1  0  0  0  0
M  END
>  <minimizedAffinity>
-6.12856817

>  <minimizedRMSD>
1.29466605

$$$$
