
 OpenBabel03262521353D

 37 40  0  0  1  0  0  0  0  0999 V2000
   38.4610   31.5290   45.3660 C   0  0  1  0  0  0  0  0  0  0  0  0
   38.8690   32.4770   46.4090 C   0  0  2  0  0  0  0  0  0  0  0  0
   40.3320   32.7970   46.0610 C   0  0  0  0  0  0  0  0  0  0  0  0
   40.7920   31.5740   45.6740 O   0  0  0  0  0  0  0  0  0  0  0  0
   39.8090   30.8840   45.0110 C   0  0  0  0  0  0  0  0  0  0  0  0
   38.0720   32.0750   44.4910 H   0  0  0  0  0  0  0  0  0  0  0  0
   38.3410   33.4500   46.2740 H   0  0  0  0  0  0  0  0  0  0  0  0
   40.3900   33.5820   45.2870 H   0  0  0  0  0  0  0  0  0  0  0  0
   40.8350   33.0810   47.0100 H   0  0  0  0  0  0  0  0  0  0  0  0
   39.9660   30.9370   43.9100 H   0  0  0  0  0  0  0  0  0  0  0  0
   39.7750   29.8110   45.2670 H   0  0  0  0  0  0  0  0  0  0  0  0
   37.6020   32.4120   48.6890 C   0  0  1  0  0  0  0  0  0  0  0  0
   38.8350   33.1430   48.8520 C   0  0  0  0  0  0  0  0  0  0  0  0
   38.7940   31.9830   47.8350 C   0  0  2  0  0  0  0  0  0  0  0  0
   36.7900   32.8050   48.0380 H   0  0  0  0  0  0  0  0  0  0  0  0
   39.4050   32.9570   49.7990 H   0  0  0  0  0  0  0  0  0  0  0  0
   38.9400   34.1710   48.4880 H   0  0  0  0  0  0  0  0  0  0  0  0
   39.3490   31.0740   48.0970 H   0  0  0  0  0  0  0  0  0  0  0  0
   35.5280   29.8010   50.3870 C   0  0  0  0  0  0  0  0  0  0  0  0
   35.9160   30.7790   49.4820 C   0  0  0  0  0  0  0  0  0  0  0  0
   37.1630   31.3610   49.6280 C   0  0  0  0  0  0  0  0  0  0  0  0
   37.9540   30.9350   50.6720 N   0  0  0  0  0  0  0  0  0  0  0  0
   37.5610   29.9830   51.5460 C   0  0  0  0  0  0  0  0  0  0  0  0
   36.3280   29.4020   51.4060 N   0  0  0  0  0  0  0  0  0  0  0  0
   34.5500   29.3560   50.2580 H   0  0  0  0  0  0  0  0  0  0  0  0
   35.3280   31.1460   48.6650 H   0  0  0  0  0  0  0  0  0  0  0  0
   38.2740   29.7340   52.3260 H   0  0  0  0  0  0  0  0  0  0  0  0
   37.5790   30.5370   45.7650 O   0  0  0  0  0  0  0  0  0  0  0  0
   36.2530   30.4320   45.3480 C   0  0  0  0  0  0  0  0  0  0  0  0
   35.8390   30.7790   44.0780 C   0  0  0  0  0  0  0  0  0  0  0  0
   36.5510   31.1640   43.3510 H   0  0  0  0  0  0  0  0  0  0  0  0
   34.5500   30.6980   43.6010 C   0  0  0  0  0  0  0  0  0  0  0  0
   33.5690   30.2420   44.4190 C   0  0  0  0  0  0  0  0  0  0  0  0
   32.5590   30.1720   44.0670 H   0  0  0  0  0  0  0  0  0  0  0  0
   33.9090   29.8780   45.7030 C   0  0  0  0  0  0  0  0  0  0  0  0
   33.1040   29.5200   46.3280 H   0  0  0  0  0  0  0  0  0  0  0  0
   35.2060   29.9790   46.1230 C   0  0  0  0  0  0  0  0  0  0  0  0
  1  6  1  6  0  0  0
  1 28  1  0  0  0  0
  1  2  1  0  0  0  0
  2  7  1  6  0  0  0
  2 14  1  0  0  0  0
  3  2  1  0  0  0  0
  3  9  1  0  0  0  0
  4  3  1  0  0  0  0
  5 11  1  0  0  0  0
  5  1  1  0  0  0  0
  5  4  1  0  0  0  0
  8  3  1  0  0  0  0
 10  5  1  0  0  0  0
 12 15  1  6  0  0  0
 12 13  1  0  0  0  0
 12 21  1  0  0  0  0
 13 16  1  0  0  0  0
 14 18  1  1  0  0  0
 14 12  1  0  0  0  0
 14 13  1  0  0  0  0
 17 13  1  0  0  0  0
 19 24  1  0  0  0  0
 20 21  1  0  0  0  0
 20 19  2  0  0  0  0
 21 22  2  0  0  0  0
 22 23  1  0  0  0  0
 23 27  1  0  0  0  0
 24 23  2  0  0  0  0
 25 19  1  0  0  0  0
 26 20  1  0  0  0  0
 29 28  1  0  0  0  0
 29 37  1  0  0  0  0
 30 29  2  0  0  0  0
 31 30  1  0  0  0  0
 32 30  1  0  0  0  0
 32 33  2  0  0  0  0
 33 35  1  0  0  0  0
 34 33  1  0  0  0  0
 35 37  2  0  0  0  0
 35 36  1  0  0  0  0
M  END
>  <minimizedAffinity>
-5.59450197

>  <minimizedRMSD>
0.952684999

$$$$
