
 OpenBabel03272510133D

 41 44  0  0  0  0  0  0  0  0999 V2000
   38.4360   31.4250   48.8010 C   0  0  0  0  0  0  0  0  0  0  0  0
   38.4610   32.6270   49.4640 C   0  0  0  0  0  0  0  0  0  0  0  0
   39.0360   33.5610   48.6060 C   0  0  0  0  0  0  0  0  0  0  0  0
   39.3390   32.9260   47.4770 N   0  0  0  0  0  0  0  0  0  0  0  0
   38.9830   31.6960   47.6140 N   0  0  0  0  0  0  0  0  0  0  0  0
   38.1540   32.9840   50.4380 H   0  0  0  0  0  0  0  0  0  0  0  0
   39.2430   34.6280   48.7400 H   0  0  0  0  0  0  0  0  0  0  0  0
   39.9660   33.4660   46.3000 C   0  0  0  0  0  0  0  0  0  0  0  0
   40.6230   34.3110   46.5580 H   0  0  0  0  0  0  0  0  0  0  0  0
   39.1560   33.9160   45.6610 H   0  0  0  0  0  0  0  0  0  0  0  0
   40.6660   32.3750   45.5580 C   0  0  0  0  0  0  0  0  0  0  0  0
   41.7680   32.6530   45.5950 H   0  0  0  0  0  0  0  0  0  0  0  0
   40.6700   31.4100   46.1640 H   0  0  0  0  0  0  0  0  0  0  0  0
   40.2340   32.1150   44.1820 C   0  0  0  0  0  0  0  0  0  0  0  0
   39.5570   32.8530   43.2390 C   0  0  0  0  0  0  0  0  0  0  0  0
   39.2310   33.8190   43.6020 H   0  0  0  0  0  0  0  0  0  0  0  0
   39.3070   32.3730   41.9740 C   0  0  0  0  0  3  0  0  0  0  0  0
   39.7160   31.1220   41.5690 C   0  0  0  0  0  0  0  0  0  0  0  0
   39.4470   30.8850   40.5500 H   0  0  0  0  0  0  0  0  0  0  0  0
   40.3960   30.3550   42.4910 C   0  0  0  0  0  0  0  0  0  0  0  0
   40.7010   29.3810   42.1390 H   0  0  0  0  0  0  0  0  0  0  0  0
   40.6460   30.8450   43.7640 C   0  0  0  0  0  3  0  0  0  0  0  0
   37.8930   30.3730   49.5130 O   0  0  0  0  0  0  0  0  0  0  0  0
   34.1540   28.8610   48.3180 C   0  0  0  0  0  0  0  0  0  0  0  0
   34.7680   28.4160   49.4540 C   0  0  0  0  0  0  0  0  0  0  0  0
   35.9890   28.8640   49.9070 C   0  0  0  0  0  0  0  0  0  0  0  0
   36.6690   29.8120   49.2130 C   0  0  0  0  0  0  0  0  0  0  0  0
   36.0540   30.2750   48.0500 C   0  0  0  0  0  0  0  0  0  0  0  0
   34.8530   29.8170   47.6290 N   0  0  0  0  0  0  0  0  0  0  0  0
   34.2810   27.6590   50.0570 H   0  0  0  0  0  0  0  0  0  0  0  0
   36.4630   28.5000   50.8100 H   0  0  0  0  0  0  0  0  0  0  0  0
   36.4600   31.0300   47.3810 H   0  0  0  0  0  0  0  0  0  0  0  0
   32.0230   27.6000   48.5880 C   0  0  0  0  0  0  0  0  0  0  0  0
   32.8880   28.4070   47.8320 C   0  0  0  0  0  0  0  0  0  0  0  0
   32.4690   28.7550   46.5740 C   0  0  0  0  0  0  0  0  0  0  0  0
   31.2580   28.3180   46.1090 N   0  0  0  0  0  0  0  0  0  0  0  0
   30.4580   27.5330   46.8920 C   0  0  0  0  0  0  0  0  0  0  0  0
   30.8310   27.1660   48.1390 N   0  0  0  0  0  0  0  0  0  0  0  0
   32.3090   27.2990   49.5840 H   0  0  0  0  0  0  0  0  0  0  0  0
   33.0750   29.3800   45.9120 H   0  0  0  0  0  0  0  0  0  0  0  0
   29.5040   27.1880   46.5300 H   0  0  0  0  0  0  0  0  0  0  0  0
  1  2  1  0  0  0  0
  1 23  1  0  0  0  0
  2  6  1  0  0  0  0
  3  7  1  0  0  0  0
  3  2  2  0  0  0  0
  4  5  1  0  0  0  0
  4  3  1  0  0  0  0
  5  1  2  0  0  0  0
  8  9  1  0  0  0  0
  8  4  1  0  0  0  0
 10  8  1  0  0  0  0
 11 12  1  0  0  0  0
 11 13  1  0  0  0  0
 11  8  1  0  0  0  0
 14 11  1  0  0  0  0
 15 16  1  0  0  0  0
 15 14  2  0  0  0  0
 17 15  1  0  0  0  0
 18 17  2  0  0  0  0
 18 20  1  0  0  0  0
 19 18  1  0  0  0  0
 20 22  2  0  0  0  0
 21 20  1  0  0  0  0
 22 14  1  0  0  0  0
 24 25  1  0  0  0  0
 25 26  2  0  0  0  0
 25 30  1  0  0  0  0
 26 31  1  0  0  0  0
 27 23  1  0  0  0  0
 27 26  1  0  0  0  0
 28 27  2  0  0  0  0
 29 28  1  0  0  0  0
 29 24  2  0  0  0  0
 32 28  1  0  0  0  0
 33 39  1  0  0  0  0
 34 24  1  0  0  0  0
 34 33  2  0  0  0  0
 35 34  1  0  0  0  0
 36 35  2  0  0  0  0
 36 37  1  0  0  0  0
 37 38  2  0  0  0  0
 38 33  1  0  0  0  0
 40 35  1  0  0  0  0
 41 37  1  0  0  0  0
M  END
>  <minimizedAffinity>
-6.40797329

>  <minimizedRMSD>
1.45027053

$$$$
