
 OpenBabel03272503143D

 46 50  0  0  0  0  0  0  0  0999 V2000
   37.9630   26.3360   34.9340 C   0  0  0  0  0  0  0  0  0  0  0  0
   38.7070   26.8040   35.8600 O   0  0  0  0  0  0  0  0  0  0  0  0
   37.7570   24.9260   34.9500 N   0  0  0  0  0  0  0  0  0  0  0  0
   37.1620   24.5200   34.1920 H   0  0  0  0  0  0  0  0  0  0  0  0
   36.2930   27.9600   34.3640 C   0  0  0  0  0  0  0  0  0  0  0  0
   37.3990   27.2550   33.9600 C   0  0  0  0  0  0  0  0  0  0  0  0
   37.9600   27.3890   32.7170 C   0  0  0  0  0  0  0  0  0  0  0  0
   37.4000   28.2750   31.8010 C   0  0  0  0  0  0  0  0  0  0  0  0
   37.7220   28.6040   30.5550 N   0  0  0  0  0  0  0  0  0  0  0  0
   36.8420   29.5140   30.1400 C   0  0  0  0  0  0  0  0  0  0  0  0
   35.9610   29.7580   31.1350 N   0  0  0  0  0  0  0  0  0  0  0  0
   36.2850   28.9900   32.2020 C   0  0  0  0  0  0  0  0  0  0  0  0
   35.7230   28.8540   33.4520 C   0  0  0  0  0  0  0  0  0  0  0  0
   35.8660   27.8390   35.3550 H   0  0  0  0  0  0  0  0  0  0  0  0
   38.8300   26.8130   32.4390 H   0  0  0  0  0  0  0  0  0  0  0  0
   38.5470   28.1760   30.0430 H   0  0  0  0  0  0  0  0  0  0  0  0
   36.8610   29.9670   29.1510 H   0  0  0  0  0  0  0  0  0  0  0  0
   34.5970   29.5860   33.8370 O   0  0  0  0  0  0  0  0  0  0  0  0
   34.6770   30.5110   34.8660 C   0  0  0  0  0  0  0  0  0  0  0  0
   35.7540   31.3380   35.1640 C   0  0  0  0  0  0  0  0  0  0  0  0
   36.6010   31.2230   34.5080 H   0  0  0  0  0  0  0  0  0  0  0  0
   35.6690   32.2090   36.2320 C   0  0  0  0  0  3  0  0  0  0  0  0
   34.4960   32.2400   36.9930 C   0  0  0  0  0  0  0  0  0  0  0  0
   34.4310   32.9270   37.8340 H   0  0  0  0  0  0  0  0  0  0  0  0
   33.4140   31.4270   36.7130 C   0  0  0  0  0  0  0  0  0  0  0  0
   32.5310   31.4980   37.3410 H   0  0  0  0  0  0  0  0  0  0  0  0
   33.5300   30.5660   35.6380 C   0  0  0  0  0  3  0  0  0  0  0  0
   40.2320   23.8400   34.6550 F   0  0  0  0  0  0  0  0  0  0  0  0
   39.6710   23.7300   35.8790 C   0  0  0  0  0  0  0  0  0  0  0  0
   40.3360   23.1030   36.8940 C   0  0  0  0  0  0  0  0  0  0  0  0
   39.7140   23.0260   38.1070 C   0  0  0  0  0  0  0  0  0  0  0  0
   38.4630   23.5520   38.3290 C   0  0  0  0  0  0  0  0  0  0  0  0
   37.7980   24.1890   37.2850 C   0  0  0  0  0  0  0  0  0  0  0  0
   38.4260   24.2720   36.0420 C   0  0  0  0  0  0  0  0  0  0  0  0
   40.2310   22.5300   38.9170 H   0  0  0  0  0  0  0  0  0  0  0  0
   38.0340   23.4510   39.3180 H   0  0  0  0  0  0  0  0  0  0  0  0
   36.8220   24.5960   37.4690 H   0  0  0  0  0  0  0  0  0  0  0  0
   44.0530   22.8180   36.2040 C   0  0  0  0  0  0  0  0  0  0  0  0
   42.7830   23.3710   36.4840 C   0  0  0  0  0  0  0  0  0  0  0  0
   41.6680   22.5590   36.6030 C   0  0  0  0  0  0  0  0  0  0  0  0
   41.8540   21.2040   36.4370 N   0  0  0  0  0  0  0  0  0  0  0  0
   43.0620   20.6850   36.1700 C   0  0  0  0  0  0  0  0  0  0  0  0
   44.1380   21.4680   36.0560 N   0  0  0  0  0  0  0  0  0  0  0  0
   44.9090   23.4710   36.1160 H   0  0  0  0  0  0  0  0  0  0  0  0
   42.6960   24.4250   36.6030 H   0  0  0  0  0  0  0  0  0  0  0  0
   43.1560   19.6200   36.0490 H   0  0  0  0  0  0  0  0  0  0  0  0
  1  3  1  0  0  0  0
  1  2  2  0  0  0  0
  3 34  1  0  0  0  0
  4  3  1  0  0  0  0
  5 14  1  0  0  0  0
  6  5  1  0  0  0  0
  6  1  1  0  0  0  0
  7  6  2  0  0  0  0
  8 12  2  0  0  0  0
  8  7  1  0  0  0  0
  9  8  1  0  0  0  0
 10  9  1  0  0  0  0
 10 11  2  0  0  0  0
 11 12  1  0  0  0  0
 12 13  1  0  0  0  0
 13 18  1  0  0  0  0
 13  5  2  0  0  0  0
 15  7  1  0  0  0  0
 16  9  1  0  0  0  0
 17 10  1  0  0  0  0
 18 19  1  0  0  0  0
 19 20  2  0  0  0  0
 19 27  1  0  0  0  0
 20 22  1  0  0  0  0
 21 20  1  0  0  0  0
 22 23  2  0  0  0  0
 23 24  1  0  0  0  0
 25 23  1  0  0  0  0
 25 26  1  0  0  0  0
 27 25  2  0  0  0  0
 28 29  1  0  0  0  0
 29 34  2  0  0  0  0
 29 30  1  0  0  0  0
 30 31  2  0  0  0  0
 31 32  1  0  0  0  0
 31 35  1  0  0  0  0
 32 36  1  0  0  0  0
 33 37  1  0  0  0  0
 33 32  2  0  0  0  0
 34 33  1  0  0  0  0
 38 39  1  0  0  0  0
 39 45  1  0  0  0  0
 39 40  2  0  0  0  0
 40 30  1  0  0  0  0
 41 40  1  0  0  0  0
 42 41  2  0  0  0  0
 43 42  1  0  0  0  0
 43 38  2  0  0  0  0
 44 38  1  0  0  0  0
 46 42  1  0  0  0  0
M  END
>  <minimizedAffinity>
-7.52065945

$$$$

 OpenBabel03272503143D

 46 50  0  0  0  0  0  0  0  0999 V2000
   36.6040   25.5920   32.1960 C   0  0  0  0  0  0  0  0  0  0  0  0
   35.5540   25.9980   31.5950 O   0  0  0  0  0  0  0  0  0  0  0  0
   37.4310   26.6040   32.7630 N   0  0  0  0  0  0  0  0  0  0  0  0
   38.3040   26.2930   33.2490 H   0  0  0  0  0  0  0  0  0  0  0  0
   37.7760   23.7550   33.1980 C   0  0  0  0  0  0  0  0  0  0  0  0
   36.8670   24.1640   32.2540 C   0  0  0  0  0  0  0  0  0  0  0  0
   36.2300   23.2990   31.4030 C   0  0  0  0  0  0  0  0  0  0  0  0
   36.5000   21.9360   31.4780 C   0  0  0  0  0  0  0  0  0  0  0  0
   36.0440   20.8890   30.7980 N   0  0  0  0  0  0  0  0  0  0  0  0
   36.6420   19.8030   31.2850 C   0  0  0  0  0  0  0  0  0  0  0  0
   37.4800   20.1710   32.2790 N   0  0  0  0  0  0  0  0  0  0  0  0
   37.4150   21.5150   32.4280 C   0  0  0  0  0  0  0  0  0  0  0  0
   38.0540   22.3860   33.2830 C   0  0  0  0  0  0  0  0  0  0  0  0
   38.2680   24.4570   33.8630 H   0  0  0  0  0  0  0  0  0  0  0  0
   35.5230   23.6640   30.6740 H   0  0  0  0  0  0  0  0  0  0  0  0
   35.3310   20.9780   30.0180 H   0  0  0  0  0  0  0  0  0  0  0  0
   36.4600   18.7950   30.9170 H   0  0  0  0  0  0  0  0  0  0  0  0
   38.9740   21.9410   34.2350 O   0  0  0  0  0  0  0  0  0  0  0  0
   38.8880   22.3690   35.5500 C   0  0  0  0  0  0  0  0  0  0  0  0
   37.7470   22.8060   36.2130 C   0  0  0  0  0  0  0  0  0  0  0  0
   36.8510   22.8000   35.6140 H   0  0  0  0  0  0  0  0  0  0  0  0
   37.8360   23.2000   37.5340 C   0  0  0  0  0  3  0  0  0  0  0  0
   39.0760   23.1510   38.1770 C   0  0  0  0  0  0  0  0  0  0  0  0
   39.1440   23.4620   39.2180 H   0  0  0  0  0  0  0  0  0  0  0  0
   40.2220   22.7190   37.5360 C   0  0  0  0  0  0  0  0  0  0  0  0
   41.1560   22.7030   38.0900 H   0  0  0  0  0  0  0  0  0  0  0  0
   40.1010   22.3320   36.2150 C   0  0  0  0  0  3  0  0  0  0  0  0
   36.1640   27.9440   34.7600 F   0  0  0  0  0  0  0  0  0  0  0  0
   36.2770   28.5920   33.5800 C   0  0  0  0  0  0  0  0  0  0  0  0
   35.7720   29.8530   33.4290 C   0  0  0  0  0  0  0  0  0  0  0  0
   35.9200   30.4530   32.2120 C   0  0  0  0  0  0  0  0  0  0  0  0
   36.5490   29.8360   31.1570 C   0  0  0  0  0  0  0  0  0  0  0  0
   37.0590   28.5510   31.3260 C   0  0  0  0  0  0  0  0  0  0  0  0
   36.9120   27.9300   32.5660 C   0  0  0  0  0  0  0  0  0  0  0  0
   35.5230   31.4500   32.0810 H   0  0  0  0  0  0  0  0  0  0  0  0
   36.6270   30.3750   30.2210 H   0  0  0  0  0  0  0  0  0  0  0  0
   37.5480   28.0790   30.4960 H   0  0  0  0  0  0  0  0  0  0  0  0
   35.1290   31.8420   36.5920 C   0  0  0  0  0  0  0  0  0  0  0  0
   35.7950   31.2650   35.4860 C   0  0  0  0  0  0  0  0  0  0  0  0
   35.1100   30.4650   34.5880 C   0  0  0  0  0  0  0  0  0  0  0  0
   33.7680   30.2610   34.8200 N   0  0  0  0  0  0  0  0  0  0  0  0
   33.1410   30.8110   35.8720 C   0  0  0  0  0  0  0  0  0  0  0  0
   33.8010   31.5830   36.7380 N   0  0  0  0  0  0  0  0  0  0  0  0
   35.6840   32.4630   37.2810 H   0  0  0  0  0  0  0  0  0  0  0  0
   36.8330   31.4570   35.3550 H   0  0  0  0  0  0  0  0  0  0  0  0
   32.0920   30.6210   36.0100 H   0  0  0  0  0  0  0  0  0  0  0  0
  1  6  1  0  0  0  0
  1  3  1  0  0  0  0
  2  1  2  0  0  0  0
  3  4  1  0  0  0  0
  5 13  1  0  0  0  0
  5 14  1  0  0  0  0
  6  5  2  0  0  0  0
  7  8  2  0  0  0  0
  7  6  1  0  0  0  0
  8 12  1  0  0  0  0
  9 10  1  0  0  0  0
  9  8  1  0  0  0  0
 10 11  2  0  0  0  0
 11 12  1  0  0  0  0
 12 13  2  0  0  0  0
 13 18  1  0  0  0  0
 15  7  1  0  0  0  0
 16  9  1  0  0  0  0
 17 10  1  0  0  0  0
 18 19  1  0  0  0  0
 19 20  2  0  0  0  0
 19 27  1  0  0  0  0
 20 22  1  0  0  0  0
 21 20  1  0  0  0  0
 22 23  2  0  0  0  0
 23 24  1  0  0  0  0
 25 26  1  0  0  0  0
 25 23  1  0  0  0  0
 27 25  2  0  0  0  0
 29 28  1  0  0  0  0
 30 29  1  0  0  0  0
 30 40  1  0  0  0  0
 31 30  2  0  0  0  0
 32 33  2  0  0  0  0
 32 31  1  0  0  0  0
 33 34  1  0  0  0  0
 34  3  1  0  0  0  0
 34 29  2  0  0  0  0
 35 31  1  0  0  0  0
 36 32  1  0  0  0  0
 37 33  1  0  0  0  0
 38 43  1  0  0  0  0
 38 44  1  0  0  0  0
 39 38  2  0  0  0  0
 40 41  2  0  0  0  0
 40 39  1  0  0  0  0
 41 42  1  0  0  0  0
 42 46  1  0  0  0  0
 42 43  2  0  0  0  0
 45 39  1  0  0  0  0
M  END
>  <minimizedAffinity>
-7.39769459

$$$$

 OpenBabel03272503143D

 46 50  0  0  0  0  0  0  0  0999 V2000
   36.9420   25.6800   31.8330 C   0  0  0  0  0  0  0  0  0  0  0  0
   37.6950   26.4410   32.5270 O   0  0  0  0  0  0  0  0  0  0  0  0
   36.2600   26.2980   30.7440 N   0  0  0  0  0  0  0  0  0  0  0  0
   35.6280   25.6950   30.1700 H   0  0  0  0  0  0  0  0  0  0  0  0
   37.7700   23.8160   33.0930 C   0  0  0  0  0  0  0  0  0  0  0  0
   36.8400   24.2770   32.1960 C   0  0  0  0  0  0  0  0  0  0  0  0
   35.8610   23.4830   31.6580 C   0  0  0  0  0  0  0  0  0  0  0  0
   35.7850   22.1420   32.0220 C   0  0  0  0  0  0  0  0  0  0  0  0
   34.9620   21.1600   31.6710 N   0  0  0  0  0  0  0  0  0  0  0  0
   35.3430   20.0640   32.3260 C   0  0  0  0  0  0  0  0  0  0  0  0
   36.4130   20.3620   33.0950 N   0  0  0  0  0  0  0  0  0  0  0  0
   36.7190   21.6700   32.9270 C   0  0  0  0  0  0  0  0  0  0  0  0
   37.7020   22.4690   33.4670 C   0  0  0  0  0  0  0  0  0  0  0  0
   38.5370   24.4630   33.5080 H   0  0  0  0  0  0  0  0  0  0  0  0
   35.1490   23.8860   30.9540 H   0  0  0  0  0  0  0  0  0  0  0  0
   34.1660   21.2950   30.9830 H   0  0  0  0  0  0  0  0  0  0  0  0
   34.8470   19.1000   32.2320 H   0  0  0  0  0  0  0  0  0  0  0  0
   38.6360   21.9730   34.3800 O   0  0  0  0  0  0  0  0  0  0  0  0
   38.6440   22.4200   35.6910 C   0  0  0  0  0  0  0  0  0  0  0  0
   37.5620   22.9110   36.4140 C   0  0  0  0  0  0  0  0  0  0  0  0
   36.6330   22.9340   35.8670 H   0  0  0  0  0  0  0  0  0  0  0  0
   37.7430   23.3170   37.7210 C   0  0  0  0  0  3  0  0  0  0  0  0
   39.0160   23.2260   38.2910 C   0  0  0  0  0  0  0  0  0  0  0  0
   39.1570   23.5460   39.3220 H   0  0  0  0  0  0  0  0  0  0  0  0
   40.1050   22.7400   37.5920 C   0  0  0  0  0  0  0  0  0  0  0  0
   41.0680   22.6940   38.0910 H   0  0  0  0  0  0  0  0  0  0  0  0
   39.8920   22.3420   36.2850 C   0  0  0  0  0  3  0  0  0  0  0  0
   34.8440   28.1930   32.0830 F   0  0  0  0  0  0  0  0  0  0  0  0
   35.8440   28.6400   31.2920 C   0  0  0  0  0  0  0  0  0  0  0  0
   36.1050   29.9770   31.1910 C   0  0  0  0  0  0  0  0  0  0  0  0
   37.1300   30.3620   30.3740 C   0  0  0  0  0  0  0  0  0  0  0  0
   37.8880   29.4600   29.6670 C   0  0  0  0  0  0  0  0  0  0  0  0
   37.6100   28.1000   29.7800 C   0  0  0  0  0  0  0  0  0  0  0  0
   36.5650   27.6970   30.6120 C   0  0  0  0  0  0  0  0  0  0  0  0
   37.3450   31.4170   30.2860 H   0  0  0  0  0  0  0  0  0  0  0  0
   38.6840   29.8410   29.0390 H   0  0  0  0  0  0  0  0  0  0  0  0
   38.2080   27.4050   29.2240 H   0  0  0  0  0  0  0  0  0  0  0  0
   33.3010   32.3030   32.2350 C   0  0  0  0  0  0  0  0  0  0  0  0
   34.0880   31.4200   31.4620 C   0  0  0  0  0  0  0  0  0  0  0  0
   35.2660   30.8960   31.9680 C   0  0  0  0  0  0  0  0  0  0  0  0
   35.6270   31.2720   33.2430 N   0  0  0  0  0  0  0  0  0  0  0  0
   34.8750   32.1110   33.9720 C   0  0  0  0  0  0  0  0  0  0  0  0
   33.7390   32.6160   33.4840 N   0  0  0  0  0  0  0  0  0  0  0  0
   32.3850   32.7000   31.8200 H   0  0  0  0  0  0  0  0  0  0  0  0
   33.7620   31.1640   30.4820 H   0  0  0  0  0  0  0  0  0  0  0  0
   35.2000   32.3740   34.9630 H   0  0  0  0  0  0  0  0  0  0  0  0
  1  6  1  0  0  0  0
  1  2  2  0  0  0  0
  3  1  1  0  0  0  0
  4  3  1  0  0  0  0
  5 13  1  0  0  0  0
  5 14  1  0  0  0  0
  6  5  2  0  0  0  0
  7  8  2  0  0  0  0
  7  6  1  0  0  0  0
  8 12  1  0  0  0  0
  9  8  1  0  0  0  0
  9 10  1  0  0  0  0
 10 11  2  0  0  0  0
 12 11  1  0  0  0  0
 12 13  2  0  0  0  0
 13 18  1  0  0  0  0
 15  7  1  0  0  0  0
 16  9  1  0  0  0  0
 17 10  1  0  0  0  0
 18 19  1  0  0  0  0
 19 27  2  0  0  0  0
 19 20  1  0  0  0  0
 20 22  2  0  0  0  0
 21 20  1  0  0  0  0
 22 23  1  0  0  0  0
 23 24  1  0  0  0  0
 25 26  1  0  0  0  0
 25 23  2  0  0  0  0
 27 25  1  0  0  0  0
 29 28  1  0  0  0  0
 30 29  1  0  0  0  0
 30 40  1  0  0  0  0
 31 30  2  0  0  0  0
 32 33  2  0  0  0  0
 32 31  1  0  0  0  0
 33 34  1  0  0  0  0
 34  3  1  0  0  0  0
 34 29  2  0  0  0  0
 35 31  1  0  0  0  0
 36 32  1  0  0  0  0
 37 33  1  0  0  0  0
 38 43  1  0  0  0  0
 39 40  1  0  0  0  0
 39 38  2  0  0  0  0
 40 41  2  0  0  0  0
 41 42  1  0  0  0  0
 42 46  1  0  0  0  0
 43 42  2  0  0  0  0
 44 38  1  0  0  0  0
 45 39  1  0  0  0  0
M  END
>  <minimizedAffinity>
-6.7667551

$$$$

 OpenBabel03272503143D

 46 50  0  0  0  0  0  0  0  0999 V2000
   36.6940   27.0980   31.6330 C   0  0  0  0  0  0  0  0  0  0  0  0
   37.2700   26.6880   32.6960 O   0  0  0  0  0  0  0  0  0  0  0  0
   36.7620   26.2260   30.5080 N   0  0  0  0  0  0  0  0  0  0  0  0
   36.3070   26.5490   29.6230 H   0  0  0  0  0  0  0  0  0  0  0  0
   35.1460   28.5990   32.6840 C   0  0  0  0  0  0  0  0  0  0  0  0
   36.0280   28.3900   31.6530 C   0  0  0  0  0  0  0  0  0  0  0  0
   36.2850   29.3250   30.6860 C   0  0  0  0  0  0  0  0  0  0  0  0
   35.6350   30.5550   30.7260 C   0  0  0  0  0  0  0  0  0  0  0  0
   35.6860   31.6260   29.9430 N   0  0  0  0  0  0  0  0  0  0  0  0
   34.8500   32.5330   30.4480 C   0  0  0  0  0  0  0  0  0  0  0  0
   34.2700   32.0250   31.5570 N   0  0  0  0  0  0  0  0  0  0  0  0
   34.7440   30.7740   31.7630 C   0  0  0  0  0  0  0  0  0  0  0  0
   34.4870   29.8330   32.7350 C   0  0  0  0  0  0  0  0  0  0  0  0
   34.9580   27.8440   33.4410 H   0  0  0  0  0  0  0  0  0  0  0  0
   36.9870   29.1190   29.8910 H   0  0  0  0  0  0  0  0  0  0  0  0
   36.3050   31.6800   29.0830 H   0  0  0  0  0  0  0  0  0  0  0  0
   34.6850   33.5150   30.0090 H   0  0  0  0  0  0  0  0  0  0  0  0
   33.5850   30.0740   33.7740 O   0  0  0  0  0  0  0  0  0  0  0  0
   33.9810   30.7740   34.9020 C   0  0  0  0  0  0  0  0  0  0  0  0
   35.2520   31.2690   35.1750 C   0  0  0  0  0  0  0  0  0  0  0  0
   35.9830   31.0690   34.4080 H   0  0  0  0  0  0  0  0  0  0  0  0
   35.4790   31.9500   36.3540 C   0  0  0  0  0  3  0  0  0  0  0  0
   34.4220   32.1270   37.2520 C   0  0  0  0  0  0  0  0  0  0  0  0
   34.6030   32.6650   38.1810 H   0  0  0  0  0  0  0  0  0  0  0  0
   33.1520   31.6450   37.0000 C   0  0  0  0  0  0  0  0  0  0  0  0
   32.3720   31.8150   37.7360 H   0  0  0  0  0  0  0  0  0  0  0  0
   32.9560   30.9670   35.8110 C   0  0  0  0  0  3  0  0  0  0  0  0
   35.4710   24.0020   31.3880 F   0  0  0  0  0  0  0  0  0  0  0  0
   36.8080   23.8950   31.2270 C   0  0  0  0  0  0  0  0  0  0  0  0
   37.4480   22.7190   31.4990 C   0  0  0  0  0  0  0  0  0  0  0  0
   38.8000   22.6770   31.3140 C   0  0  0  0  0  0  0  0  0  0  0  0
   39.5190   23.7620   30.8720 C   0  0  0  0  0  0  0  0  0  0  0  0
   38.8520   24.9530   30.5990 C   0  0  0  0  0  0  0  0  0  0  0  0
   37.4710   25.0060   30.7840 C   0  0  0  0  0  0  0  0  0  0  0  0
   39.3170   21.7510   31.5270 H   0  0  0  0  0  0  0  0  0  0  0  0
   40.5890   23.6510   30.7500 H   0  0  0  0  0  0  0  0  0  0  0  0
   39.4220   25.7940   30.2540 H   0  0  0  0  0  0  0  0  0  0  0  0
   35.3350   19.5730   31.5810 C   0  0  0  0  0  0  0  0  0  0  0  0
   36.1150   20.6480   31.0980 C   0  0  0  0  0  0  0  0  0  0  0  0
   36.6330   21.5920   31.9680 C   0  0  0  0  0  0  0  0  0  0  0  0
   36.3550   21.4350   33.3090 N   0  0  0  0  0  0  0  0  0  0  0  0
   35.6130   20.4120   33.7610 C   0  0  0  0  0  0  0  0  0  0  0  0
   35.1130   19.5010   32.9220 N   0  0  0  0  0  0  0  0  0  0  0  0
   34.9400   18.8470   30.8830 H   0  0  0  0  0  0  0  0  0  0  0  0
   36.2990   20.7200   30.0530 H   0  0  0  0  0  0  0  0  0  0  0  0
   35.4230   20.3330   34.8160 H   0  0  0  0  0  0  0  0  0  0  0  0
  1  6  1  0  0  0  0
  1  2  2  0  0  0  0
  3 34  1  0  0  0  0
  3  1  1  0  0  0  0
  4  3  1  0  0  0  0
  5 13  1  0  0  0  0
  5 14  1  0  0  0  0
  6  5  2  0  0  0  0
  7  8  2  0  0  0  0
  7  6  1  0  0  0  0
  8 12  1  0  0  0  0
  9 10  1  0  0  0  0
  9  8  1  0  0  0  0
 10 11  2  0  0  0  0
 11 12  1  0  0  0  0
 12 13  2  0  0  0  0
 13 18  1  0  0  0  0
 15  7  1  0  0  0  0
 16  9  1  0  0  0  0
 17 10  1  0  0  0  0
 18 19  1  0  0  0  0
 19 20  2  0  0  0  0
 19 27  1  0  0  0  0
 20 22  1  0  0  0  0
 21 20  1  0  0  0  0
 22 23  2  0  0  0  0
 23 24  1  0  0  0  0
 25 23  1  0  0  0  0
 25 26  1  0  0  0  0
 27 25  2  0  0  0  0
 29 28  1  0  0  0  0
 29 30  1  0  0  0  0
 30 40  1  0  0  0  0
 31 30  2  0  0  0  0
 31 35  1  0  0  0  0
 32 31  1  0  0  0  0
 33 34  1  0  0  0  0
 33 32  2  0  0  0  0
 34 29  2  0  0  0  0
 36 32  1  0  0  0  0
 37 33  1  0  0  0  0
 38 43  1  0  0  0  0
 39 38  2  0  0  0  0
 39 40  1  0  0  0  0
 40 41  2  0  0  0  0
 41 42  1  0  0  0  0
 42 46  1  0  0  0  0
 43 42  2  0  0  0  0
 44 38  1  0  0  0  0
 45 39  1  0  0  0  0
M  END
>  <minimizedAffinity>
-6.71039295

$$$$

 OpenBabel03272503143D

 46 50  0  0  0  0  0  0  0  0999 V2000
   37.8420   26.3610   35.0950 C   0  0  0  0  0  0  0  0  0  0  0  0
   38.5520   26.8230   36.0490 O   0  0  0  0  0  0  0  0  0  0  0  0
   37.6770   24.9460   35.0660 N   0  0  0  0  0  0  0  0  0  0  0  0
   37.1090   24.5450   34.2850 H   0  0  0  0  0  0  0  0  0  0  0  0
   37.6610   27.1300   32.8310 C   0  0  0  0  0  0  0  0  0  0  0  0
   37.2700   27.2910   34.1360 C   0  0  0  0  0  0  0  0  0  0  0  0
   36.3920   28.2630   34.5410 C   0  0  0  0  0  0  0  0  0  0  0  0
   35.8580   29.1410   33.6030 C   0  0  0  0  0  0  0  0  0  0  0  0
   35.0060   30.1550   33.7030 N   0  0  0  0  0  0  0  0  0  0  0  0
   34.8350   30.6590   32.4810 C   0  0  0  0  0  0  0  0  0  0  0  0
   35.5870   29.9530   31.6070 N   0  0  0  0  0  0  0  0  0  0  0  0
   36.2480   28.9850   32.2840 C   0  0  0  0  0  0  0  0  0  0  0  0
   37.1300   28.0070   31.8790 C   0  0  0  0  0  0  0  0  0  0  0  0
   38.3580   26.3520   32.5320 H   0  0  0  0  0  0  0  0  0  0  0  0
   36.1110   28.3550   35.5790 H   0  0  0  0  0  0  0  0  0  0  0  0
   34.5770   30.4560   34.6250 H   0  0  0  0  0  0  0  0  0  0  0  0
   34.1860   31.5030   32.2590 H   0  0  0  0  0  0  0  0  0  0  0  0
   37.5100   27.8660   30.5430 O   0  0  0  0  0  0  0  0  0  0  0  0
   38.6850   28.4380   30.0810 C   0  0  0  0  0  0  0  0  0  0  0  0
   39.9730   27.9320   30.2220 C   0  0  0  0  0  0  0  0  0  0  0  0
   40.0290   26.9950   30.7500 H   0  0  0  0  0  0  0  0  0  0  0  0
   41.0410   28.6340   29.6980 C   0  0  0  0  0  3  0  0  0  0  0  0
   40.8030   29.8420   29.0370 C   0  0  0  0  0  0  0  0  0  0  0  0
   41.6460   30.3930   28.6250 H   0  0  0  0  0  0  0  0  0  0  0  0
   39.5320   30.3620   28.8850 C   0  0  0  0  0  0  0  0  0  0  0  0
   39.4120   31.3060   28.3610 H   0  0  0  0  0  0  0  0  0  0  0  0
   38.4830   29.6370   29.4200 C   0  0  0  0  0  3  0  0  0  0  0  0
   40.1640   23.8880   34.7750 F   0  0  0  0  0  0  0  0  0  0  0  0
   39.5940   23.7530   35.9920 C   0  0  0  0  0  0  0  0  0  0  0  0
   40.2560   23.1140   37.0020 C   0  0  0  0  0  0  0  0  0  0  0  0
   39.6250   23.0120   38.2080 C   0  0  0  0  0  0  0  0  0  0  0  0
   38.3680   23.5220   38.4280 C   0  0  0  0  0  0  0  0  0  0  0  0
   37.7050   24.1700   37.3890 C   0  0  0  0  0  0  0  0  0  0  0  0
   38.3430   24.2800   36.1540 C   0  0  0  0  0  0  0  0  0  0  0  0
   40.1400   22.5080   39.0140 H   0  0  0  0  0  0  0  0  0  0  0  0
   37.9320   23.4010   39.4120 H   0  0  0  0  0  0  0  0  0  0  0  0
   36.7240   24.5650   37.5720 H   0  0  0  0  0  0  0  0  0  0  0  0
   43.1630   20.7540   36.4070 C   0  0  0  0  0  0  0  0  0  0  0  0
   41.8620   21.2300   36.6890 C   0  0  0  0  0  0  0  0  0  0  0  0
   41.5960   22.5880   36.7130 C   0  0  0  0  0  0  0  0  0  0  0  0
   42.6460   23.4420   36.4520 N   0  0  0  0  0  0  0  0  0  0  0  0
   43.8790   22.9830   36.1860 C   0  0  0  0  0  0  0  0  0  0  0  0
   44.1350   21.6730   36.1620 N   0  0  0  0  0  0  0  0  0  0  0  0
   43.3470   19.6890   36.3930 H   0  0  0  0  0  0  0  0  0  0  0  0
   41.0880   20.5260   36.8830 H   0  0  0  0  0  0  0  0  0  0  0  0
   44.6650   23.6900   35.9880 H   0  0  0  0  0  0  0  0  0  0  0  0
  1  2  2  0  0  0  0
  3  1  1  0  0  0  0
  3 34  1  0  0  0  0
  4  3  1  0  0  0  0
  5  6  1  0  0  0  0
  6  7  2  0  0  0  0
  6  1  1  0  0  0  0
  7 15  1  0  0  0  0
  8  9  1  0  0  0  0
  8  7  1  0  0  0  0
  9 16  1  0  0  0  0
 10  9  1  0  0  0  0
 11 12  1  0  0  0  0
 11 10  2  0  0  0  0
 12  8  2  0  0  0  0
 13 12  1  0  0  0  0
 13  5  2  0  0  0  0
 14  5  1  0  0  0  0
 17 10  1  0  0  0  0
 18 13  1  0  0  0  0
 19 20  1  0  0  0  0
 19 18  1  0  0  0  0
 20 21  1  0  0  0  0
 22 20  2  0  0  0  0
 23 22  1  0  0  0  0
 24 23  1  0  0  0  0
 25 23  2  0  0  0  0
 25 27  1  0  0  0  0
 26 25  1  0  0  0  0
 27 19  2  0  0  0  0
 28 29  1  0  0  0  0
 29 34  2  0  0  0  0
 29 30  1  0  0  0  0
 30 31  2  0  0  0  0
 31 32  1  0  0  0  0
 31 35  1  0  0  0  0
 32 36  1  0  0  0  0
 33 37  1  0  0  0  0
 33 32  2  0  0  0  0
 34 33  1  0  0  0  0
 38 39  1  0  0  0  0
 39 40  2  0  0  0  0
 39 45  1  0  0  0  0
 40 30  1  0  0  0  0
 41 40  1  0  0  0  0
 42 41  2  0  0  0  0
 43 42  1  0  0  0  0
 43 38  2  0  0  0  0
 44 38  1  0  0  0  0
 46 42  1  0  0  0  0
M  END
>  <minimizedAffinity>
-6.57715797

$$$$

 OpenBabel03272503143D

 46 50  0  0  0  0  0  0  0  0999 V2000
   36.4000   25.8730   31.9830 C   0  0  0  0  0  0  0  0  0  0  0  0
   35.3370   26.3160   31.4310 O   0  0  0  0  0  0  0  0  0  0  0  0
   37.2450   26.8500   32.5840 N   0  0  0  0  0  0  0  0  0  0  0  0
   38.1280   26.5110   33.0310 H   0  0  0  0  0  0  0  0  0  0  0  0
   37.8870   24.0430   32.4160 C   0  0  0  0  0  0  0  0  0  0  0  0
   36.6580   24.4430   31.9560 C   0  0  0  0  0  0  0  0  0  0  0  0
   35.7100   23.5690   31.4910 C   0  0  0  0  0  0  0  0  0  0  0  0
   35.9820   22.2050   31.4750 C   0  0  0  0  0  0  0  0  0  0  0  0
   35.2710   21.1500   31.0910 N   0  0  0  0  0  0  0  0  0  0  0  0
   36.0190   20.0660   31.2940 C   0  0  0  0  0  0  0  0  0  0  0  0
   37.2090   20.4440   31.8110 N   0  0  0  0  0  0  0  0  0  0  0  0
   37.2190   21.7920   31.9390 C   0  0  0  0  0  0  0  0  0  0  0  0
   38.1700   22.6730   32.4050 C   0  0  0  0  0  0  0  0  0  0  0  0
   38.6230   24.7530   32.7810 H   0  0  0  0  0  0  0  0  0  0  0  0
   34.7550   23.9280   31.1370 H   0  0  0  0  0  0  0  0  0  0  0  0
   34.2890   21.2310   30.7000 H   0  0  0  0  0  0  0  0  0  0  0  0
   35.6910   19.0540   31.0690 H   0  0  0  0  0  0  0  0  0  0  0  0
   39.4130   22.2360   32.8690 O   0  0  0  0  0  0  0  0  0  0  0  0
   39.7980   22.4730   34.1790 C   0  0  0  0  0  0  0  0  0  0  0  0
   39.0710   22.1870   35.3290 C   0  0  0  0  0  0  0  0  0  0  0  0
   38.1090   21.7330   35.1480 H   0  0  0  0  0  0  0  0  0  0  0  0
   39.6040   22.4890   36.5660 C   0  0  0  0  0  3  0  0  0  0  0  0
   40.8700   23.0800   36.6350 C   0  0  0  0  0  0  0  0  0  0  0  0
   41.2890   23.3170   37.6110 H   0  0  0  0  0  0  0  0  0  0  0  0
   41.6100   23.3710   35.5050 C   0  0  0  0  0  0  0  0  0  0  0  0
   42.5870   23.8300   35.6250 H   0  0  0  0  0  0  0  0  0  0  0  0
   41.0490   23.0570   34.2820 C   0  0  0  0  0  3  0  0  0  0  0  0
   36.0400   28.0850   34.6840 F   0  0  0  0  0  0  0  0  0  0  0  0
   36.1240   28.7960   33.5380 C   0  0  0  0  0  0  0  0  0  0  0  0
   35.6210   30.0640   33.4700 C   0  0  0  0  0  0  0  0  0  0  0  0
   35.7380   30.7280   32.2830 C   0  0  0  0  0  0  0  0  0  0  0  0
   36.3350   30.1670   31.1790 C   0  0  0  0  0  0  0  0  0  0  0  0
   36.8430   28.8730   31.2650 C   0  0  0  0  0  0  0  0  0  0  0  0
   36.7280   28.1870   32.4730 C   0  0  0  0  0  0  0  0  0  0  0  0
   35.3440   31.7330   32.2170 H   0  0  0  0  0  0  0  0  0  0  0  0
   36.3910   30.7560   30.2720 H   0  0  0  0  0  0  0  0  0  0  0  0
   37.3070   28.4450   30.3980 H   0  0  0  0  0  0  0  0  0  0  0  0
   33.0740   30.9810   36.1240 C   0  0  0  0  0  0  0  0  0  0  0  0
   33.6490   30.4380   34.9520 C   0  0  0  0  0  0  0  0  0  0  0  0
   34.9940   30.6160   34.6770 C   0  0  0  0  0  0  0  0  0  0  0  0
   35.7350   31.3370   35.5880 N   0  0  0  0  0  0  0  0  0  0  0  0
   35.1830   31.8500   36.6980 C   0  0  0  0  0  0  0  0  0  0  0  0
   33.8860   31.6790   36.9640 N   0  0  0  0  0  0  0  0  0  0  0  0
   32.0220   30.8300   36.3180 H   0  0  0  0  0  0  0  0  0  0  0  0
   33.0300   29.8890   34.2830 H   0  0  0  0  0  0  0  0  0  0  0  0
   35.8030   32.4060   37.3790 H   0  0  0  0  0  0  0  0  0  0  0  0
  1  3  1  0  0  0  0
  2  1  2  0  0  0  0
  3  4  1  0  0  0  0
  5 14  1  0  0  0  0
  6  1  1  0  0  0  0
  6  5  2  0  0  0  0
  7  6  1  0  0  0  0
  8  7  2  0  0  0  0
  8 12  1  0  0  0  0
  9 10  1  0  0  0  0
  9  8  1  0  0  0  0
 10 11  2  0  0  0  0
 11 12  1  0  0  0  0
 12 13  2  0  0  0  0
 13  5  1  0  0  0  0
 13 18  1  0  0  0  0
 15  7  1  0  0  0  0
 16  9  1  0  0  0  0
 17 10  1  0  0  0  0
 18 19  1  0  0  0  0
 19 27  2  0  0  0  0
 19 20  1  0  0  0  0
 20 22  2  0  0  0  0
 21 20  1  0  0  0  0
 22 23  1  0  0  0  0
 23 24  1  0  0  0  0
 25 26  1  0  0  0  0
 25 23  2  0  0  0  0
 27 25  1  0  0  0  0
 29 28  1  0  0  0  0
 30 29  1  0  0  0  0
 30 40  1  0  0  0  0
 31 30  2  0  0  0  0
 32 33  2  0  0  0  0
 32 31  1  0  0  0  0
 33 34  1  0  0  0  0
 34  3  1  0  0  0  0
 34 29  2  0  0  0  0
 35 31  1  0  0  0  0
 36 32  1  0  0  0  0
 37 33  1  0  0  0  0
 38 44  1  0  0  0  0
 38 43  1  0  0  0  0
 39 38  2  0  0  0  0
 40 39  1  0  0  0  0
 40 41  2  0  0  0  0
 41 42  1  0  0  0  0
 42 43  2  0  0  0  0
 42 46  1  0  0  0  0
 45 39  1  0  0  0  0
M  END
>  <minimizedAffinity>
-6.56370354

$$$$

 OpenBabel03272503143D

 46 50  0  0  0  0  0  0  0  0999 V2000
   37.9550   26.4640   32.4870 C   0  0  0  0  0  0  0  0  0  0  0  0
   38.7130   27.4910   32.5190 O   0  0  0  0  0  0  0  0  0  0  0  0
   36.5580   26.7210   32.3780 N   0  0  0  0  0  0  0  0  0  0  0  0
   35.9180   25.8940   32.3630 H   0  0  0  0  0  0  0  0  0  0  0  0
   38.1360   24.3430   33.5910 C   0  0  0  0  0  0  0  0  0  0  0  0
   38.5610   25.1450   32.5630 C   0  0  0  0  0  0  0  0  0  0  0  0
   39.5020   24.7530   31.6460 C   0  0  0  0  0  0  0  0  0  0  0  0
   40.0680   23.4860   31.7400 C   0  0  0  0  0  0  0  0  0  0  0  0
   40.9780   22.8500   31.0110 N   0  0  0  0  0  0  0  0  0  0  0  0
   41.1530   21.6440   31.5490 C   0  0  0  0  0  0  0  0  0  0  0  0
   40.3450   21.5220   32.6250 N   0  0  0  0  0  0  0  0  0  0  0  0
   39.6430   22.6700   32.7750 C   0  0  0  0  0  0  0  0  0  0  0  0
   38.6970   23.0660   33.6950 C   0  0  0  0  0  0  0  0  0  0  0  0
   37.3880   24.6740   34.3060 H   0  0  0  0  0  0  0  0  0  0  0  0
   39.8090   25.4170   30.8520 H   0  0  0  0  0  0  0  0  0  0  0  0
   41.4430   23.2880   30.1640 H   0  0  0  0  0  0  0  0  0  0  0  0
   41.8450   20.9010   31.1580 H   0  0  0  0  0  0  0  0  0  0  0  0
   38.2820   22.2270   34.7320 O   0  0  0  0  0  0  0  0  0  0  0  0
   38.4620   22.6000   36.0540 C   0  0  0  0  0  0  0  0  0  0  0  0
   37.5000   23.1200   36.9130 C   0  0  0  0  0  0  0  0  0  0  0  0
   36.5220   23.2330   36.4740 H   0  0  0  0  0  0  0  0  0  0  0  0
   37.8480   23.4420   38.2100 C   0  0  0  0  0  3  0  0  0  0  0  0
   39.1650   23.2370   38.6320 C   0  0  0  0  0  0  0  0  0  0  0  0
   39.4370   23.4910   39.6550 H   0  0  0  0  0  0  0  0  0  0  0  0
   40.1350   22.7210   37.7950 C   0  0  0  0  0  0  0  0  0  0  0  0
   41.1410   22.5850   38.1820 H   0  0  0  0  0  0  0  0  0  0  0  0
   39.7560   22.4090   36.5030 C   0  0  0  0  0  3  0  0  0  0  0  0
   35.6710   28.0960   34.5480 F   0  0  0  0  0  0  0  0  0  0  0  0
   35.8030   28.8020   33.4040 C   0  0  0  0  0  0  0  0  0  0  0  0
   35.4990   30.1340   33.3710 C   0  0  0  0  0  0  0  0  0  0  0  0
   35.6540   30.7890   32.1830 C   0  0  0  0  0  0  0  0  0  0  0  0
   36.0980   30.1590   31.0450 C   0  0  0  0  0  0  0  0  0  0  0  0
   36.4030   28.8010   31.0940 C   0  0  0  0  0  0  0  0  0  0  0  0
   36.2480   28.1230   32.3030 C   0  0  0  0  0  0  0  0  0  0  0  0
   35.4170   31.8430   32.1450 H   0  0  0  0  0  0  0  0  0  0  0  0
   36.1950   30.7450   30.1400 H   0  0  0  0  0  0  0  0  0  0  0  0
   36.7480   28.3190   30.2010 H   0  0  0  0  0  0  0  0  0  0  0  0
   35.3900   32.0870   36.6180 C   0  0  0  0  0  0  0  0  0  0  0  0
   35.8710   31.4980   35.4270 C   0  0  0  0  0  0  0  0  0  0  0  0
   35.0300   30.7580   34.6140 C   0  0  0  0  0  0  0  0  0  0  0  0
   33.7190   30.6240   35.0170 N   0  0  0  0  0  0  0  0  0  0  0  0
   33.2680   31.1860   36.1490 C   0  0  0  0  0  0  0  0  0  0  0  0
   34.0790   31.9010   36.9330 N   0  0  0  0  0  0  0  0  0  0  0  0
   36.0650   32.6610   37.2370 H   0  0  0  0  0  0  0  0  0  0  0  0
   36.8940   31.6330   35.1630 H   0  0  0  0  0  0  0  0  0  0  0  0
   32.2360   31.0530   36.4210 H   0  0  0  0  0  0  0  0  0  0  0  0
  1  2  2  0  0  0  0
  1  6  1  0  0  0  0
  3  1  1  0  0  0  0
  4  3  1  0  0  0  0
  5 13  1  0  0  0  0
  5 14  1  0  0  0  0
  6  5  2  0  0  0  0
  7  8  2  0  0  0  0
  7  6  1  0  0  0  0
  8 12  1  0  0  0  0
  9 10  1  0  0  0  0
  9  8  1  0  0  0  0
 10 11  2  0  0  0  0
 11 12  1  0  0  0  0
 12 13  2  0  0  0  0
 13 18  1  0  0  0  0
 15  7  1  0  0  0  0
 16  9  1  0  0  0  0
 17 10  1  0  0  0  0
 18 19  1  0  0  0  0
 19 27  2  0  0  0  0
 19 20  1  0  0  0  0
 20 22  2  0  0  0  0
 21 20  1  0  0  0  0
 22 23  1  0  0  0  0
 23 24  1  0  0  0  0
 25 26  1  0  0  0  0
 25 23  2  0  0  0  0
 27 25  1  0  0  0  0
 29 28  1  0  0  0  0
 30 29  1  0  0  0  0
 30 40  1  0  0  0  0
 31 30  2  0  0  0  0
 32 33  2  0  0  0  0
 32 31  1  0  0  0  0
 33 34  1  0  0  0  0
 34  3  1  0  0  0  0
 34 29  2  0  0  0  0
 35 31  1  0  0  0  0
 36 32  1  0  0  0  0
 37 33  1  0  0  0  0
 38 43  1  0  0  0  0
 38 44  1  0  0  0  0
 39 38  2  0  0  0  0
 40 41  2  0  0  0  0
 40 39  1  0  0  0  0
 41 42  1  0  0  0  0
 42 46  1  0  0  0  0
 42 43  2  0  0  0  0
 45 39  1  0  0  0  0
M  END
>  <minimizedAffinity>
-6.5107832

$$$$

 OpenBabel03272503143D

 46 50  0  0  0  0  0  0  0  0999 V2000
   36.9460   26.5650   32.0760 C   0  0  0  0  0  0  0  0  0  0  0  0
   37.8920   27.2900   32.5340 O   0  0  0  0  0  0  0  0  0  0  0  0
   35.9170   27.2520   31.3700 N   0  0  0  0  0  0  0  0  0  0  0  0
   35.1250   26.6790   30.9980 H   0  0  0  0  0  0  0  0  0  0  0  0
   37.9580   24.6870   33.1730 C   0  0  0  0  0  0  0  0  0  0  0  0
   36.9910   25.1300   32.3060 C   0  0  0  0  0  0  0  0  0  0  0  0
   36.1060   24.2930   31.6790 C   0  0  0  0  0  0  0  0  0  0  0  0
   36.1690   22.9230   31.9150 C   0  0  0  0  0  0  0  0  0  0  0  0
   35.4590   21.8970   31.4600 N   0  0  0  0  0  0  0  0  0  0  0  0
   35.9480   20.7900   32.0170 C   0  0  0  0  0  0  0  0  0  0  0  0
   36.9740   21.1250   32.8290 N   0  0  0  0  0  0  0  0  0  0  0  0
   37.1420   22.4680   32.7890 C   0  0  0  0  0  0  0  0  0  0  0  0
   38.0310   23.3120   33.4180 C   0  0  0  0  0  0  0  0  0  0  0  0
   38.6490   25.3690   33.6590 H   0  0  0  0  0  0  0  0  0  0  0  0
   35.3600   24.6840   31.0040 H   0  0  0  0  0  0  0  0  0  0  0  0
   34.6570   22.0130   30.7740 H   0  0  0  0  0  0  0  0  0  0  0  0
   35.5580   19.7930   31.8250 H   0  0  0  0  0  0  0  0  0  0  0  0
   39.0050   22.8320   34.2970 O   0  0  0  0  0  0  0  0  0  0  0  0
   38.8720   23.0160   35.6630 C   0  0  0  0  0  0  0  0  0  0  0  0
   37.7580   23.5090   36.3360 C   0  0  0  0  0  0  0  0  0  0  0  0
   36.9280   23.7660   35.6970 H   0  0  0  0  0  0  0  0  0  0  0  0
   37.7910   23.6290   37.7110 C   0  0  0  0  0  3  0  0  0  0  0  0
   38.9470   23.2520   38.4000 C   0  0  0  0  0  0  0  0  0  0  0  0
   38.9710   23.3470   39.4840 H   0  0  0  0  0  0  0  0  0  0  0  0
   40.0640   22.7590   37.7520 C   0  0  0  0  0  0  0  0  0  0  0  0
   40.9320   22.4830   38.3430 H   0  0  0  0  0  0  0  0  0  0  0  0
   40.0010   22.6510   36.3750 C   0  0  0  0  0  3  0  0  0  0  0  0
   37.3000   28.3440   29.3000 F   0  0  0  0  0  0  0  0  0  0  0  0
   36.8420   29.2040   30.2360 C   0  0  0  0  0  0  0  0  0  0  0  0
   37.0770   30.5450   30.1200 C   0  0  0  0  0  0  0  0  0  0  0  0
   36.5860   31.3610   31.0990 C   0  0  0  0  0  0  0  0  0  0  0  0
   35.8780   30.8790   32.1740 C   0  0  0  0  0  0  0  0  0  0  0  0
   35.6470   29.5100   32.2780 C   0  0  0  0  0  0  0  0  0  0  0  0
   36.1440   28.6690   31.2830 C   0  0  0  0  0  0  0  0  0  0  0  0
   36.7670   32.4240   31.0180 H   0  0  0  0  0  0  0  0  0  0  0  0
   35.5210   31.5880   32.9110 H   0  0  0  0  0  0  0  0  0  0  0  0
   35.0930   29.1450   33.1210 H   0  0  0  0  0  0  0  0  0  0  0  0
   37.9760   31.9080   26.6990 C   0  0  0  0  0  0  0  0  0  0  0  0
   37.2150   31.4700   27.8060 C   0  0  0  0  0  0  0  0  0  0  0  0
   37.8380   31.0060   28.9520 C   0  0  0  0  0  0  0  0  0  0  0  0
   39.2160   30.9920   28.9610 N   0  0  0  0  0  0  0  0  0  0  0  0
   39.9320   31.4090   27.9050 C   0  0  0  0  0  0  0  0  0  0  0  0
   39.3320   31.8570   26.8000 N   0  0  0  0  0  0  0  0  0  0  0  0
   37.4680   32.2660   25.8140 H   0  0  0  0  0  0  0  0  0  0  0  0
   36.1530   31.5030   27.7460 H   0  0  0  0  0  0  0  0  0  0  0  0
   41.0060   31.3790   27.9600 H   0  0  0  0  0  0  0  0  0  0  0  0
  1  6  1  0  0  0  0
  1  2  2  0  0  0  0
  3  1  1  0  0  0  0
  4  3  1  0  0  0  0
  5 13  1  0  0  0  0
  5 14  1  0  0  0  0
  6  5  2  0  0  0  0
  7  8  2  0  0  0  0
  7  6  1  0  0  0  0
  8 12  1  0  0  0  0
  9  8  1  0  0  0  0
  9 10  1  0  0  0  0
 10 11  2  0  0  0  0
 12 11  1  0  0  0  0
 12 13  2  0  0  0  0
 13 18  1  0  0  0  0
 15  7  1  0  0  0  0
 16  9  1  0  0  0  0
 17 10  1  0  0  0  0
 18 19  1  0  0  0  0
 19 20  2  0  0  0  0
 19 27  1  0  0  0  0
 20 22  1  0  0  0  0
 21 20  1  0  0  0  0
 22 23  2  0  0  0  0
 23 24  1  0  0  0  0
 25 26  1  0  0  0  0
 25 23  1  0  0  0  0
 27 25  2  0  0  0  0
 28 29  1  0  0  0  0
 29 34  1  0  0  0  0
 30 29  2  0  0  0  0
 30 31  1  0  0  0  0
 31 32  2  0  0  0  0
 32 33  1  0  0  0  0
 32 36  1  0  0  0  0
 33 37  1  0  0  0  0
 34  3  1  0  0  0  0
 34 33  2  0  0  0  0
 35 31  1  0  0  0  0
 38 43  2  0  0  0  0
 38 39  1  0  0  0  0
 39 40  2  0  0  0  0
 40 41  1  0  0  0  0
 40 30  1  0  0  0  0
 42 46  1  0  0  0  0
 42 41  2  0  0  0  0
 43 42  1  0  0  0  0
 44 38  1  0  0  0  0
 45 39  1  0  0  0  0
M  END
>  <minimizedAffinity>
-6.48483944

$$$$

 OpenBabel03272503143D

 46 50  0  0  0  0  0  0  0  0999 V2000
   37.1770   26.8540   33.2480 C   0  0  0  0  0  0  0  0  0  0  0  0
   37.9070   27.7160   33.8410 O   0  0  0  0  0  0  0  0  0  0  0  0
   36.0910   27.3720   32.4850 N   0  0  0  0  0  0  0  0  0  0  0  0
   35.4720   26.6820   32.0010 H   0  0  0  0  0  0  0  0  0  0  0  0
   38.0220   25.0660   34.6040 C   0  0  0  0  0  0  0  0  0  0  0  0
   37.5020   25.4450   33.3920 C   0  0  0  0  0  0  0  0  0  0  0  0
   37.2910   24.5680   32.3600 C   0  0  0  0  0  0  0  0  0  0  0  0
   37.6100   23.2230   32.5230 C   0  0  0  0  0  0  0  0  0  0  0  0
   37.5150   22.1720   31.7170 N   0  0  0  0  0  0  0  0  0  0  0  0
   37.9660   21.1110   32.3860 C   0  0  0  0  0  0  0  0  0  0  0  0
   38.3470   21.5010   33.6220 N   0  0  0  0  0  0  0  0  0  0  0  0
   38.1350   22.8330   33.7430 C   0  0  0  0  0  0  0  0  0  0  0  0
   38.3470   23.7160   34.7790 C   0  0  0  0  0  0  0  0  0  0  0  0
   38.1810   25.7770   35.4090 H   0  0  0  0  0  0  0  0  0  0  0  0
   36.8790   24.9090   31.4220 H   0  0  0  0  0  0  0  0  0  0  0  0
   37.1380   22.2380   30.7280 H   0  0  0  0  0  0  0  0  0  0  0  0
   38.0070   20.1060   31.9710 H   0  0  0  0  0  0  0  0  0  0  0  0
   38.8770   23.3010   36.0030 O   0  0  0  0  0  0  0  0  0  0  0  0
   40.2330   23.0440   36.1310 C   0  0  0  0  0  0  0  0  0  0  0  0
   41.2780   23.7690   35.5690 C   0  0  0  0  0  0  0  0  0  0  0  0
   40.9670   24.6140   34.9760 H   0  0  0  0  0  0  0  0  0  0  0  0
   42.5810   23.3750   35.7980 C   0  0  0  0  0  3  0  0  0  0  0  0
   42.8220   22.2510   36.5930 C   0  0  0  0  0  0  0  0  0  0  0  0
   43.8500   21.9420   36.7730 H   0  0  0  0  0  0  0  0  0  0  0  0
   41.7990   21.5170   37.1620 C   0  0  0  0  0  0  0  0  0  0  0  0
   42.0500   20.6530   37.7710 H   0  0  0  0  0  0  0  0  0  0  0  0
   40.5050   21.9360   36.9140 C   0  0  0  0  0  3  0  0  0  0  0  0
   34.9940   28.7080   34.5820 F   0  0  0  0  0  0  0  0  0  0  0  0
   35.4680   29.4670   33.5700 C   0  0  0  0  0  0  0  0  0  0  0  0
   35.3860   30.8300   33.6270 C   0  0  0  0  0  0  0  0  0  0  0  0
   35.8840   31.5380   32.5710 C   0  0  0  0  0  0  0  0  0  0  0  0
   36.4530   30.9300   31.4770 C   0  0  0  0  0  0  0  0  0  0  0  0
   36.5290   29.5410   31.4340 C   0  0  0  0  0  0  0  0  0  0  0  0
   36.0220   28.8090   32.5080 C   0  0  0  0  0  0  0  0  0  0  0  0
   35.8240   32.6170   32.6050 H   0  0  0  0  0  0  0  0  0  0  0  0
   36.8260   31.5590   30.6790 H   0  0  0  0  0  0  0  0  0  0  0  0
   36.9740   29.0760   30.5760 H   0  0  0  0  0  0  0  0  0  0  0  0
   34.9020   32.4660   37.0120 C   0  0  0  0  0  0  0  0  0  0  0  0
   35.5250   31.8940   35.8790 C   0  0  0  0  0  0  0  0  0  0  0  0
   34.7700   31.4270   34.8180 C   0  0  0  0  0  0  0  0  0  0  0  0
   33.4000   31.5440   34.9170 N   0  0  0  0  0  0  0  0  0  0  0  0
   32.8150   32.0870   35.9960 C   0  0  0  0  0  0  0  0  0  0  0  0
   33.5430   32.5380   37.0200 N   0  0  0  0  0  0  0  0  0  0  0  0
   35.5120   32.8240   37.8300 H   0  0  0  0  0  0  0  0  0  0  0  0
   36.5870   31.8290   35.8550 H   0  0  0  0  0  0  0  0  0  0  0  0
   31.7420   32.1560   36.0260 H   0  0  0  0  0  0  0  0  0  0  0  0
  1  6  1  0  0  0  0
  1  2  2  0  0  0  0
  3 34  1  0  0  0  0
  3  1  1  0  0  0  0
  4  3  1  0  0  0  0
  5 13  1  0  0  0  0
  5 14  1  0  0  0  0
  6  5  2  0  0  0  0
  7  8  2  0  0  0  0
  7  6  1  0  0  0  0
  8 12  1  0  0  0  0
  9 10  1  0  0  0  0
  9  8  1  0  0  0  0
 10 11  2  0  0  0  0
 11 12  1  0  0  0  0
 12 13  2  0  0  0  0
 13 18  1  0  0  0  0
 15  7  1  0  0  0  0
 16  9  1  0  0  0  0
 17 10  1  0  0  0  0
 18 19  1  0  0  0  0
 19 27  1  0  0  0  0
 20 22  1  0  0  0  0
 20 19  2  0  0  0  0
 21 20  1  0  0  0  0
 22 23  2  0  0  0  0
 23 24  1  0  0  0  0
 23 25  1  0  0  0  0
 25 26  1  0  0  0  0
 27 25  2  0  0  0  0
 29 30  1  0  0  0  0
 29 28  1  0  0  0  0
 30 40  1  0  0  0  0
 31 35  1  0  0  0  0
 31 30  2  0  0  0  0
 32 31  1  0  0  0  0
 33 32  2  0  0  0  0
 33 34  1  0  0  0  0
 34 29  2  0  0  0  0
 36 32  1  0  0  0  0
 37 33  1  0  0  0  0
 38 43  1  0  0  0  0
 38 44  1  0  0  0  0
 39 38  2  0  0  0  0
 40 41  2  0  0  0  0
 40 39  1  0  0  0  0
 41 42  1  0  0  0  0
 42 46  1  0  0  0  0
 42 43  2  0  0  0  0
 45 39  1  0  0  0  0
M  END
>  <minimizedAffinity>
-6.44019222

$$$$
