
 OpenBabel03272504423D

 45 47  0  0  0  0  0  0  0  0999 V2000
   34.2580   29.1220   48.7740 C   0  0  0  0  0  0  0  0  0  0  0  0
   33.6330   29.9680   49.1890 H   0  0  0  0  0  0  0  0  0  0  0  0
   35.1160   29.0800   49.4890 H   0  0  0  0  0  0  0  0  0  0  0  0
   37.0150   30.2470   48.7600 Cl  0  0  0  0  0  0  0  0  0  0  0  0
   36.0010   30.1010   47.3220 C   0  0  0  0  0  0  0  0  0  0  0  0
   36.4830   30.5200   46.1340 C   0  0  0  0  0  0  0  0  0  0  0  0
   35.7040   30.4110   45.0000 C   0  0  0  0  0  0  0  0  0  0  0  0
   34.4340   29.8670   45.1130 C   0  0  0  0  0  0  0  0  0  0  0  0
   33.9990   29.4530   46.3840 C   0  0  0  0  0  0  0  0  0  0  0  0
   34.7480   29.5540   47.4980 C   0  0  0  0  0  0  0  0  0  0  0  0
   36.1160   30.7570   44.0440 H   0  0  0  0  0  0  0  0  0  0  0  0
   33.9070   29.8260   44.1760 H   0  0  0  0  0  0  0  0  0  0  0  0
   33.0460   29.0880   46.2620 H   0  0  0  0  0  0  0  0  0  0  0  0
   39.4480   32.6610   46.6020 C   0  0  0  0  0  0  0  0  0  0  0  0
   40.3660   32.0540   45.6960 C   0  0  0  0  0  0  0  0  0  0  0  0
   39.9250   30.9470   44.9740 C   0  0  0  0  0  0  0  0  0  0  0  0
   38.6600   30.4860   45.1500 N   0  0  0  0  0  0  0  0  0  0  0  0
   37.8140   31.0920   46.0230 C   0  0  0  0  0  0  0  0  0  0  0  0
   38.2160   32.1500   46.7220 N   0  0  0  0  0  0  0  0  0  0  0  0
   39.7890   33.5180   47.1610 H   0  0  0  0  0  0  0  0  0  0  0  0
   41.3630   32.4300   45.5680 H   0  0  0  0  0  0  0  0  0  0  0  0
   40.8540   30.3700   44.0820 N   0  0  0  0  0  0  0  0  0  0  0  0
   41.5600   29.6280   44.1370 H   0  0  0  0  0  0  0  0  0  0  0  0
   40.6940   30.9040   43.1830 H   0  0  0  0  0  0  0  0  0  0  0  0
   33.4990   27.8830   48.8920 C   0  0  0  0  0  0  0  0  0  0  0  0
   33.5460   27.3100   47.9240 H   0  0  0  0  0  0  0  0  0  0  0  0
   33.9310   27.1660   49.6400 H   0  0  0  0  0  0  0  0  0  0  0  0
   32.1990   28.1060   49.2540 O   0  0  0  0  0  0  0  0  0  0  0  0
   31.8590   26.4400   47.2490 O   0  0  0  0  0  0  0  0  0  0  0  0
   31.1510   27.4030   48.1700 P   0  0  2  0  0  0  0  0  0  0  0  0
   30.4900   28.7050   47.2350 O   0  0  0  0  0  0  0  0  0  0  0  0
   29.1810   28.5330   46.7460 C   0  0  0  0  0  0  0  0  0  0  0  0
   28.2030   29.4540   47.0770 C   0  0  0  0  0  0  0  0  0  0  0  0
   28.5180   30.2890   47.7220 H   0  0  0  0  0  0  0  0  0  0  0  0
   26.8910   29.3860   46.6550 C   0  0  0  0  0  0  0  0  0  0  0  0
   26.5380   28.3350   45.8550 C   0  0  0  0  0  0  0  0  0  0  0  0
   25.4890   28.2930   45.5270 H   0  0  0  0  0  0  0  0  0  0  0  0
   27.4850   27.3930   45.5010 C   0  0  0  0  0  0  0  0  0  0  0  0
   27.1820   26.5610   44.8600 H   0  0  0  0  0  0  0  0  0  0  0  0
   28.7840   27.4870   45.9360 C   0  0  0  0  0  0  0  0  0  0  0  0
   29.8640   26.6550   48.8910 O   0  0  0  0  0  0  0  0  0  0  0  0
   29.4330   27.3630   49.9880 C   0  0  0  0  0  0  0  0  0  0  0  0
   29.4070   26.5750   51.1380 F   0  0  0  0  0  0  0  0  0  0  0  0
   30.2750   28.4260   50.2760 F   0  0  0  0  0  0  0  0  0  0  0  0
   28.1490   27.8410   49.7670 F   0  0  0  0  0  0  0  0  0  0  0  0
  1 25  1  0  0  0  0
  1  2  1  0  0  0  0
  1  3  1  0  0  0  0
  5 10  1  0  0  0  0
  5  4  1  0  0  0  0
  6  5  2  0  0  0  0
  7  8  2  0  0  0  0
  7  6  1  0  0  0  0
  8  9  1  0  0  0  0
  9 10  2  0  0  0  0
 10  1  1  0  0  0  0
 11  7  1  0  0  0  0
 12  8  1  0  0  0  0
 13  9  1  0  0  0  0
 14 19  1  0  0  0  0
 14 20  1  0  0  0  0
 15 14  2  0  0  0  0
 16 17  2  0  0  0  0
 16 15  1  0  0  0  0
 17 18  1  0  0  0  0
 18  6  1  0  0  0  0
 18 19  2  0  0  0  0
 21 15  1  0  0  0  0
 22 23  1  0  0  0  0
 22 16  1  0  0  0  0
 24 22  1  0  0  0  0
 25 28  1  0  0  0  0
 25 27  1  0  0  0  0
 26 25  1  0  0  0  0
 30 29  2  6  0  0  0
 30 41  1  0  0  0  0
 30 28  1  0  0  0  0
 31 30  1  0  0  0  0
 32 33  1  0  0  0  0
 32 31  1  0  0  0  0
 33 34  1  0  0  0  0
 35 33  2  0  0  0  0
 36 35  1  0  0  0  0
 37 36  1  0  0  0  0
 38 36  2  0  0  0  0
 38 40  1  0  0  0  0
 39 38  1  0  0  0  0
 40 32  2  0  0  0  0
 41 42  1  0  0  0  0
 42 44  1  0  0  0  0
 42 43  1  0  0  0  0
 45 42  1  0  0  0  0
M  END
>  <minimizedAffinity>
-6.07018042

>  <minimizedRMSD>
1.40552127

$$$$
