
 OpenBabel03272505493D

 40 44  0  0  0  0  0  0  0  0999 V2000
   36.1560   30.3320   45.9200 C   0  0  0  0  0  0  0  0  0  0  0  0
   36.6870   30.6180   47.1320 C   0  0  0  0  0  0  0  0  0  0  0  0
   35.9740   30.3450   48.2920 C   0  0  0  0  0  0  0  0  0  0  0  0
   34.7160   29.7760   48.1650 C   0  0  0  0  0  0  0  0  0  0  0  0
   34.1690   29.4800   46.9170 C   0  0  0  0  0  0  0  0  0  0  0  0
   34.9240   29.7760   45.8240 N   0  0  0  0  0  0  0  0  0  0  0  0
   37.6640   31.0610   47.2410 H   0  0  0  0  0  0  0  0  0  0  0  0
   36.3630   30.5590   49.2800 H   0  0  0  0  0  0  0  0  0  0  0  0
   34.0820   29.5250   49.0090 H   0  0  0  0  0  0  0  0  0  0  0  0
   36.9210   30.6230   44.6460 C   0  0  0  0  0  0  0  0  0  0  0  0
   36.7310   29.7130   43.4940 C   0  0  0  0  0  0  0  0  0  0  0  0
   36.1530   31.0950   43.4620 C   0  0  0  0  0  0  0  0  0  0  0  0
   37.6600   29.5520   42.8750 H   0  0  0  0  0  0  0  0  0  0  0  0
   36.1030   28.8210   43.5210 H   0  0  0  0  0  0  0  0  0  0  0  0
   36.6100   31.8640   42.7990 H   0  0  0  0  0  0  0  0  0  0  0  0
   35.0420   31.1350   43.5770 H   0  0  0  0  0  0  0  0  0  0  0  0
   39.5240   33.2060   45.0380 C   0  0  0  0  0  0  0  0  0  0  0  0
   40.6370   32.4670   45.4530 C   0  0  0  0  0  0  0  0  0  0  0  0
   40.4910   31.0770   45.5980 C   0  0  0  0  0  0  0  0  0  0  0  0
   39.2860   30.5400   45.3280 N   0  0  0  0  0  0  0  0  0  0  0  0
   38.2200   31.2710   44.9280 C   0  0  0  0  0  0  0  0  0  0  0  0
   38.3390   32.6120   44.7820 N   0  0  0  0  0  0  0  0  0  0  0  0
   39.6770   34.2740   44.9390 H   0  0  0  0  0  0  0  0  0  0  0  0
   41.6040   32.8530   45.6760 H   0  0  0  0  0  0  0  0  0  0  0  0
   41.2570   30.3950   45.9070 H   0  0  0  0  0  0  0  0  0  0  0  0
   32.8560   28.8840   46.7310 C   0  0  0  0  0  0  0  0  0  0  0  0
   32.1900   28.5300   45.5980 N   0  0  0  0  0  0  0  0  0  0  0  0
   30.9860   28.0090   45.9680 C   0  0  0  0  0  0  0  0  0  0  0  0
   30.9030   28.0370   47.3170 N   0  0  0  0  0  0  0  0  0  0  0  0
   32.0330   28.5650   47.7690 N   0  0  0  0  0  0  0  0  0  0  0  0
   30.1750   27.6170   45.3700 H   0  0  0  0  0  0  0  0  0  0  0  0
   29.9180   27.6420   48.2490 C   0  0  0  0  0  0  0  0  0  0  0  0
   30.1150   27.6650   49.6210 C   0  0  0  0  0  0  0  0  0  0  0  0
   31.0660   28.0000   50.0150 H   0  0  0  0  0  0  0  0  0  0  0  0
   29.1400   27.2750   50.5140 C   0  0  0  0  0  3  0  0  0  0  0  0
   27.9060   26.8390   50.0170 C   0  0  0  0  0  0  0  0  0  0  0  0
   27.1160   26.5250   50.6870 H   0  0  0  0  0  0  0  0  0  0  0  0
   27.7460   26.8300   48.6470 C   0  0  0  0  0  0  0  0  0  0  0  0
   26.7590   26.4800   48.3040 H   0  0  0  0  0  0  0  0  0  0  0  0
   28.6960   27.2120   47.7230 C   0  0  0  0  0  3  0  0  0  0  0  0
  1  2  1  0  0  0  0
  2  7  1  0  0  0  0
  2  3  2  0  0  0  0
  3  8  1  0  0  0  0
  4  3  1  0  0  0  0
  4  9  1  0  0  0  0
  5  4  2  0  0  0  0
  6  1  2  0  0  0  0
  6  5  1  0  0  0  0
 10 21  1  0  0  0  0
 10  1  1  0  0  0  0
 11 14  1  0  0  0  0
 11 10  1  0  0  0  0
 12 11  1  0  0  0  0
 12 16  1  0  0  0  0
 12 10  1  0  0  0  0
 13 11  1  0  0  0  0
 15 12  1  0  0  0  0
 17 18  1  0  0  0  0
 18 19  2  0  0  0  0
 18 24  1  0  0  0  0
 19 25  1  0  0  0  0
 20 19  1  0  0  0  0
 21 20  2  0  0  0  0
 22 21  1  0  0  0  0
 22 17  2  0  0  0  0
 23 17  1  0  0  0  0
 26  5  1  0  0  0  0
 26 30  2  0  0  0  0
 27 28  2  0  0  0  0
 27 26  1  0  0  0  0
 28 29  1  0  0  0  0
 29 30  1  0  0  0  0
 29 32  1  0  0  0  0
 31 28  1  0  0  0  0
 32 33  1  0  0  0  0
 33 34  1  0  0  0  0
 33 35  2  0  0  0  0
 36 35  1  0  0  0  0
 36 37  1  0  0  0  0
 38 36  2  0  0  0  0
 39 38  1  0  0  0  0
 40 32  2  0  0  0  0
 40 38  1  0  0  0  0
M  END
>  <minimizedAffinity>
-6.1099968

>  <minimizedRMSD>
1.17869687

$$$$
