
 OpenBabel03262522043D

 39 42  0  0  1  0  0  0  0  0999 V2000
   37.3470   23.0600   31.2630 C   0  0  2  0  0  0  0  0  0  0  0  0
   37.2740   24.4970   30.8610 C   0  0  0  0  0  0  0  0  0  0  0  0
   37.9420   25.3030   31.8720 N   0  0  0  0  0  0  0  0  0  0  0  0
   38.7960   26.2240   32.5570 C   0  0  0  0  0  0  0  0  0  0  0  0
   39.5840   27.1480   32.2550 O   0  0  0  0  0  0  0  0  0  0  0  0
   38.4490   25.7200   33.8850 C   0  0  1  0  0  0  0  0  0  0  0  0
   37.3590   24.9880   33.1500 C   0  0  2  0  0  0  0  0  0  0  0  0
   37.5500   23.1760   33.0810 S   0  0  0  0  0  0  0  0  0  0  0  0
   36.2730   24.8660   30.6180 H   0  0  0  0  0  0  0  0  0  0  0  0
   37.8640   24.5930   29.9100 H   0  0  0  0  0  0  0  0  0  0  0  0
   37.9380   26.4120   34.6060 H   0  0  0  0  0  0  0  0  0  0  0  0
   36.3240   25.3260   33.3030 H   0  0  0  0  0  0  0  0  0  0  0  0
   38.4210   22.2570   30.6010 C   0  0  0  0  0  0  0  0  0  0  0  0
   39.3720   22.4830   31.1650 H   0  0  0  0  0  0  0  0  0  0  0  0
   38.2490   21.1890   30.7110 H   0  0  0  0  0  0  0  0  0  0  0  0
   38.5230   22.5400   29.5490 H   0  0  0  0  0  0  0  0  0  0  0  0
   35.9630   22.4310   31.0660 C   0  0  0  0  0  0  0  0  0  0  0  0
   35.7260   22.6540   29.9860 H   0  0  0  0  0  0  0  0  0  0  0  0
   35.2520   23.0010   31.6640 H   0  0  0  0  0  0  0  0  0  0  0  0
   35.9290   20.9970   31.3580 C   0  0  0  0  0  0  0  0  0  0  0  0
   35.4090   20.6780   32.6160 C   0  0  0  0  0  0  0  0  0  0  0  0
   35.0530   21.4330   33.3310 H   0  0  0  0  0  0  0  0  0  0  0  0
   35.2980   19.3650   33.0670 C   0  0  0  0  0  3  0  0  0  0  0  0
   35.7140   18.3350   32.2510 C   0  0  0  0  0  0  0  0  0  0  0  0
   35.6390   17.3140   32.5770 H   0  0  0  0  0  0  0  0  0  0  0  0
   36.2170   18.6710   31.0320 C   0  0  0  0  0  0  0  0  0  0  0  0
   36.5700   17.9140   30.3230 H   0  0  0  0  0  0  0  0  0  0  0  0
   36.3400   19.9500   30.5580 C   0  0  0  0  0  3  0  0  0  0  0  0
   39.4790   24.8890   34.5460 C   0  0  0  0  0  0  0  0  0  0  0  0
   40.5340   24.7410   33.8660 O   0  0  0  0  0  0  0  0  0  0  0  0
   39.2900   24.3080   35.8500 C   0  0  0  0  0  0  0  0  0  0  0  0
   40.1880   23.3290   36.2540 C   0  0  0  0  0  0  0  0  0  0  0  0
   40.0090   22.7540   37.5300 C   0  0  0  0  0  0  0  0  0  0  0  0
   38.9710   23.1970   38.2820 N   0  0  0  0  0  0  0  0  0  0  0  0
   38.1220   24.1410   37.8700 C   0  0  0  0  0  0  0  0  0  0  0  0
   38.2830   24.6970   36.6510 N   0  0  0  0  0  0  0  0  0  0  0  0
   41.0080   23.0030   35.6190 H   0  0  0  0  0  0  0  0  0  0  0  0
   40.6940   21.9800   37.8870 H   0  0  0  0  0  0  0  0  0  0  0  0
   37.3250   24.4150   38.5590 H   0  0  0  0  0  0  0  0  0  0  0  0
  1 13  1  6  0  0  0
  1  8  1  0  0  0  0
  2  1  1  0  0  0  0
  2  3  1  0  0  0  0
  3  4  1  0  0  0  0
  3  7  1  0  0  0  0
  4  6  1  0  0  0  0
  5  4  2  0  0  0  0
  6 29  1  0  0  0  0
  6 11  1  1  0  0  0
  7 12  1  1  0  0  0
  7  6  1  0  0  0  0
  8  7  1  0  0  0  0
  9  2  1  0  0  0  0
 10  2  1  0  0  0  0
 13 15  1  0  0  0  0
 13 14  1  0  0  0  0
 16 13  1  0  0  0  0
 17  1  1  0  0  0  0
 17 20  1  0  0  0  0
 17 19  1  0  0  0  0
 18 17  1  0  0  0  0
 20 21  1  0  0  0  0
 21 23  2  0  0  0  0
 21 22  1  0  0  0  0
 24 25  1  0  0  0  0
 24 23  1  0  0  0  0
 26 24  2  0  0  0  0
 27 26  1  0  0  0  0
 28 26  1  0  0  0  0
 28 20  2  0  0  0  0
 29 31  1  0  0  0  0
 30 29  2  0  0  0  0
 31 32  2  0  0  0  0
 31 36  1  0  0  0  0
 32 33  1  0  0  0  0
 33 38  1  0  0  0  0
 33 34  2  0  0  0  0
 35 34  1  0  0  0  0
 35 39  1  0  0  0  0
 36 35  2  0  0  0  0
 37 32  1  0  0  0  0
M  END
>  <minimizedAffinity>
-5.69601107

$$$$

 OpenBabel03262522043D

 39 42  0  0  1  0  0  0  0  0999 V2000
   39.1340   26.0980   34.1400 C   0  0  2  0  0  0  0  0  0  0  0  0
   39.9550   26.6240   33.0080 C   0  0  0  0  0  0  0  0  0  0  0  0
   39.0630   27.0700   31.9470 N   0  0  0  0  0  0  0  0  0  0  0  0
   38.3900   27.8360   30.9450 C   0  0  0  0  0  0  0  0  0  0  0  0
   38.5610   28.9210   30.3450 O   0  0  0  0  0  0  0  0  0  0  0  0
   37.2980   26.8740   30.7950 C   0  0  1  0  0  0  0  0  0  0  0  0
   38.1840   25.9790   31.6180 C   0  0  2  0  0  0  0  0  0  0  0  0
   37.5770   25.6190   33.2990 S   0  0  0  0  0  0  0  0  0  0  0  0
   40.7420   25.9550   32.6480 H   0  0  0  0  0  0  0  0  0  0  0  0
   40.4920   27.5300   33.3980 H   0  0  0  0  0  0  0  0  0  0  0  0
   37.1620   26.3650   29.8040 H   0  0  0  0  0  0  0  0  0  0  0  0
   38.6500   25.1200   31.1140 H   0  0  0  0  0  0  0  0  0  0  0  0
   38.9220   27.0420   35.2790 C   0  0  0  0  0  0  0  0  0  0  0  0
   38.0820   27.7270   34.9640 H   0  0  0  0  0  0  0  0  0  0  0  0
   38.5730   26.5250   36.1700 H   0  0  0  0  0  0  0  0  0  0  0  0
   39.8300   27.6180   35.4800 H   0  0  0  0  0  0  0  0  0  0  0  0
   39.7470   24.7720   34.6060 C   0  0  0  0  0  0  0  0  0  0  0  0
   40.8550   24.9820   34.6070 H   0  0  0  0  0  0  0  0  0  0  0  0
   39.5730   24.0340   33.8240 H   0  0  0  0  0  0  0  0  0  0  0  0
   39.2620   24.3360   35.9170 C   0  0  0  0  0  0  0  0  0  0  0  0
   40.0950   23.4170   36.5620 C   0  0  0  0  0  0  0  0  0  0  0  0
   41.0350   23.0470   36.1290 H   0  0  0  0  0  0  0  0  0  0  0  0
   39.7960   22.8920   37.8170 C   0  0  0  0  0  3  0  0  0  0  0  0
   38.6400   23.2870   38.4550 C   0  0  0  0  0  0  0  0  0  0  0  0
   38.3870   22.8960   39.4230 H   0  0  0  0  0  0  0  0  0  0  0  0
   37.8460   24.1820   37.8060 C   0  0  0  0  0  0  0  0  0  0  0  0
   36.9090   24.5470   38.2410 H   0  0  0  0  0  0  0  0  0  0  0  0
   38.1090   24.7170   36.5730 C   0  0  0  0  0  3  0  0  0  0  0  0
   36.0060   27.2690   31.3990 C   0  0  0  0  0  0  0  0  0  0  0  0
   35.1270   26.3610   31.3710 O   0  0  0  0  0  0  0  0  0  0  0  0
   35.7810   28.5710   31.9700 C   0  0  0  0  0  0  0  0  0  0  0  0
   35.8830   28.6930   33.3500 C   0  0  0  0  0  0  0  0  0  0  0  0
   35.6620   29.9670   33.9180 C   0  0  0  0  0  0  0  0  0  0  0  0
   35.3670   30.9900   33.0790 N   0  0  0  0  0  0  0  0  0  0  0  0
   35.2750   30.8450   31.7550 C   0  0  0  0  0  0  0  0  0  0  0  0
   35.4840   29.6320   31.2010 N   0  0  0  0  0  0  0  0  0  0  0  0
   36.1230   27.8460   33.9870 H   0  0  0  0  0  0  0  0  0  0  0  0
   35.7320   30.1070   35.0000 H   0  0  0  0  0  0  0  0  0  0  0  0
   35.0310   31.7370   31.1810 H   0  0  0  0  0  0  0  0  0  0  0  0
  1 17  1  1  0  0  0
  1 13  1  0  0  0  0
  2 10  1  0  0  0  0
  2  1  1  0  0  0  0
  3  2  1  0  0  0  0
  4  3  1  0  0  0  0
  5  4  2  0  0  0  0
  6 11  1  6  0  0  0
  6  4  1  0  0  0  0
  6 29  1  0  0  0  0
  6  7  1  0  0  0  0
  7 12  1  6  0  0  0
  7  3  1  0  0  0  0
  7  8  1  0  0  0  0
  8  1  1  0  0  0  0
  9  2  1  0  0  0  0
 13 16  1  0  0  0  0
 13 15  1  0  0  0  0
 14 13  1  0  0  0  0
 17 18  1  0  0  0  0
 17 20  1  0  0  0  0
 19 17  1  0  0  0  0
 20 21  2  0  0  0  0
 20 28  1  0  0  0  0
 21 23  1  0  0  0  0
 22 21  1  0  0  0  0
 23 24  2  0  0  0  0
 24 25  1  0  0  0  0
 26 27  1  0  0  0  0
 26 24  1  0  0  0  0
 28 26  2  0  0  0  0
 29 31  1  0  0  0  0
 30 29  2  0  0  0  0
 31 32  1  0  0  0  0
 32 33  2  0  0  0  0
 32 37  1  0  0  0  0
 33 38  1  0  0  0  0
 34 33  1  0  0  0  0
 35 34  2  0  0  0  0
 36 35  1  0  0  0  0
 36 31  2  0  0  0  0
 39 35  1  0  0  0  0
M  END
>  <minimizedAffinity>
-5.63198233

$$$$

 OpenBabel03262522043D

 39 42  0  0  1  0  0  0  0  0999 V2000
   37.2680   24.8590   31.5090 C   0  0  2  0  0  0  0  0  0  0  0  0
   37.8900   23.7570   30.7160 C   0  0  0  0  0  0  0  0  0  0  0  0
   38.2150   22.6570   31.6120 N   0  0  0  0  0  0  0  0  0  0  0  0
   38.3230   21.3740   32.2360 C   0  0  0  0  0  0  0  0  0  0  0  0
   38.0740   20.1840   31.9430 O   0  0  0  0  0  0  0  0  0  0  0  0
   38.8770   21.9100   33.4800 C   0  0  1  0  0  0  0  0  0  0  0  0
   39.0230   23.1790   32.6840 C   0  0  2  0  0  0  0  0  0  0  0  0
   37.9260   24.5450   33.1910 S   0  0  0  0  0  0  0  0  0  0  0  0
   38.7330   24.0520   30.0830 H   0  0  0  0  0  0  0  0  0  0  0  0
   37.1010   23.3910   30.0060 H   0  0  0  0  0  0  0  0  0  0  0  0
   39.9130   21.6040   33.7830 H   0  0  0  0  0  0  0  0  0  0  0  0
   40.0390   23.4960   32.4100 H   0  0  0  0  0  0  0  0  0  0  0  0
   35.7760   24.9270   31.4640 C   0  0  0  0  0  0  0  0  0  0  0  0
   35.4060   24.1590   32.2050 H   0  0  0  0  0  0  0  0  0  0  0  0
   35.4060   25.8880   31.8130 H   0  0  0  0  0  0  0  0  0  0  0  0
   35.4080   24.6970   30.4600 H   0  0  0  0  0  0  0  0  0  0  0  0
   37.9110   26.1850   31.0830 C   0  0  0  0  0  0  0  0  0  0  0  0
   37.9320   26.1150   29.9580 H   0  0  0  0  0  0  0  0  0  0  0  0
   38.9500   26.1700   31.4140 H   0  0  0  0  0  0  0  0  0  0  0  0
   37.1810   27.3630   31.5540 C   0  0  0  0  0  0  0  0  0  0  0  0
   36.7530   28.2190   30.5360 C   0  0  0  0  0  0  0  0  0  0  0  0
   36.9440   28.0330   29.4700 H   0  0  0  0  0  0  0  0  0  0  0  0
   36.0430   29.3900   30.7940 C   0  0  0  0  0  3  0  0  0  0  0  0
   35.7460   29.7240   32.0980 C   0  0  0  0  0  0  0  0  0  0  0  0
   35.2000   30.6210   32.3220 H   0  0  0  0  0  0  0  0  0  0  0  0
   36.1740   28.8740   33.0710 C   0  0  0  0  0  0  0  0  0  0  0  0
   35.9810   29.0650   34.1320 H   0  0  0  0  0  0  0  0  0  0  0  0
   36.8740   27.7170   32.8520 C   0  0  0  0  0  3  0  0  0  0  0  0
   37.9490   21.9510   34.6320 C   0  0  0  0  0  0  0  0  0  0  0  0
   36.7800   21.5500   34.3650 O   0  0  0  0  0  0  0  0  0  0  0  0
   38.3510   22.4040   35.9380 C   0  0  0  0  0  0  0  0  0  0  0  0
   39.6790   22.2210   36.3010 C   0  0  0  0  0  0  0  0  0  0  0  0
   40.0800   22.6610   37.5800 C   0  0  0  0  0  0  0  0  0  0  0  0
   39.1430   23.2370   38.3730 N   0  0  0  0  0  0  0  0  0  0  0  0
   37.8720   23.4020   37.9990 C   0  0  0  0  0  0  0  0  0  0  0  0
   37.4770   22.9840   36.7780 N   0  0  0  0  0  0  0  0  0  0  0  0
   40.3990   21.7540   35.6340 H   0  0  0  0  0  0  0  0  0  0  0  0
   41.1170   22.5360   37.9060 H   0  0  0  0  0  0  0  0  0  0  0  0
   37.2080   23.8770   38.7190 H   0  0  0  0  0  0  0  0  0  0  0  0
  1 17  1  6  0  0  0
  1  8  1  0  0  0  0
  2  1  1  0  0  0  0
  2  3  1  0  0  0  0
  3  4  1  0  0  0  0
  3  7  1  0  0  0  0
  4  6  1  0  0  0  0
  5  4  2  0  0  0  0
  6 11  1  1  0  0  0
  6 29  1  0  0  0  0
  7 12  1  6  0  0  0
  7  8  1  0  0  0  0
  7  6  1  0  0  0  0
  9  2  1  0  0  0  0
 10  2  1  0  0  0  0
 13  1  1  0  0  0  0
 13 15  1  0  0  0  0
 13 14  1  0  0  0  0
 16 13  1  0  0  0  0
 17 19  1  0  0  0  0
 17 20  1  0  0  0  0
 18 17  1  0  0  0  0
 20 28  1  0  0  0  0
 21 23  1  0  0  0  0
 21 20  2  0  0  0  0
 22 21  1  0  0  0  0
 23 24  2  0  0  0  0
 24 25  1  0  0  0  0
 24 26  1  0  0  0  0
 26 27  1  0  0  0  0
 28 26  2  0  0  0  0
 29 31  1  0  0  0  0
 30 29  2  0  0  0  0
 31 32  2  0  0  0  0
 31 36  1  0  0  0  0
 32 33  1  0  0  0  0
 33 38  1  0  0  0  0
 33 34  2  0  0  0  0
 35 34  1  0  0  0  0
 35 39  1  0  0  0  0
 36 35  2  0  0  0  0
 37 32  1  0  0  0  0
M  END
>  <minimizedAffinity>
-5.54322052

$$$$

 OpenBabel03262522043D

 39 42  0  0  1  0  0  0  0  0999 V2000
   37.1220   23.8520   31.7740 C   0  0  2  0  0  0  0  0  0  0  0  0
   36.9200   25.2360   32.2980 C   0  0  0  0  0  0  0  0  0  0  0  0
   37.9500   25.5190   33.2880 N   0  0  0  0  0  0  0  0  0  0  0  0
   39.0210   26.1050   34.0320 C   0  0  0  0  0  0  0  0  0  0  0  0
   39.6410   27.1920   34.0540 O   0  0  0  0  0  0  0  0  0  0  0  0
   39.2220   24.9250   34.8730 C   0  0  1  0  0  0  0  0  0  0  0  0
   37.9170   24.4720   34.2770 C   0  0  2  0  0  0  0  0  0  0  0  0
   38.0330   23.0470   33.1460 S   0  0  0  0  0  0  0  0  0  0  0  0
   35.9120   25.4590   32.6600 H   0  0  0  0  0  0  0  0  0  0  0  0
   37.0850   25.9320   31.4330 H   0  0  0  0  0  0  0  0  0  0  0  0
   39.0520   25.0170   35.9790 H   0  0  0  0  0  0  0  0  0  0  0  0
   37.0340   24.4570   34.9320 H   0  0  0  0  0  0  0  0  0  0  0  0
   37.8300   23.7550   30.4610 C   0  0  0  0  0  0  0  0  0  0  0  0
   38.9310   23.8480   30.6920 H   0  0  0  0  0  0  0  0  0  0  0  0
   37.6980   22.7760   30.0040 H   0  0  0  0  0  0  0  0  0  0  0  0
   37.5110   24.5560   29.7880 H   0  0  0  0  0  0  0  0  0  0  0  0
   35.7630   23.1430   31.7420 C   0  0  0  0  0  0  0  0  0  0  0  0
   35.2830   23.5420   30.8030 H   0  0  0  0  0  0  0  0  0  0  0  0
   35.1730   23.5210   32.5770 H   0  0  0  0  0  0  0  0  0  0  0  0
   35.8690   21.6830   31.7350 C   0  0  0  0  0  0  0  0  0  0  0  0
   35.3500   21.0640   32.8760 C   0  0  0  0  0  0  0  0  0  0  0  0
   34.9000   21.6180   33.7120 H   0  0  0  0  0  0  0  0  0  0  0  0
   35.3620   19.6810   33.0460 C   0  0  0  0  0  3  0  0  0  0  0  0
   35.9040   18.8860   32.0590 C   0  0  0  0  0  0  0  0  0  0  0  0
   35.9250   17.8180   32.1670 H   0  0  0  0  0  0  0  0  0  0  0  0
   36.4030   19.5130   30.9590 C   0  0  0  0  0  0  0  0  0  0  0  0
   36.8510   18.9560   30.1280 H   0  0  0  0  0  0  0  0  0  0  0  0
   36.4060   20.8680   30.7600 C   0  0  0  0  0  3  0  0  0  0  0  0
   40.4150   24.1080   34.5600 C   0  0  0  0  0  0  0  0  0  0  0  0
   40.9710   24.4090   33.4650 O   0  0  0  0  0  0  0  0  0  0  0  0
   40.8970   23.0690   35.4320 C   0  0  0  0  0  0  0  0  0  0  0  0
   40.3060   22.9560   36.6830 C   0  0  0  0  0  0  0  0  0  0  0  0
   40.7740   21.9400   37.5450 C   0  0  0  0  0  0  0  0  0  0  0  0
   41.7690   21.1380   37.0930 N   0  0  0  0  0  0  0  0  0  0  0  0
   42.3190   21.2680   35.8830 C   0  0  0  0  0  0  0  0  0  0  0  0
   41.8810   22.2350   35.0520 N   0  0  0  0  0  0  0  0  0  0  0  0
   39.5100   23.6210   37.0070 H   0  0  0  0  0  0  0  0  0  0  0  0
   40.3370   21.8170   38.5400 H   0  0  0  0  0  0  0  0  0  0  0  0
   43.1120   20.5660   35.6300 H   0  0  0  0  0  0  0  0  0  0  0  0
  1 13  1  6  0  0  0
  1  2  1  0  0  0  0
  1  8  1  0  0  0  0
  2  9  1  0  0  0  0
  2  3  1  0  0  0  0
  3  4  1  0  0  0  0
  3  7  1  0  0  0  0
  4  5  2  0  0  0  0
  4  6  1  0  0  0  0
  6 11  1  1  0  0  0
  7  6  1  0  0  0  0
  7 12  1  1  0  0  0
  8  7  1  0  0  0  0
 10  2  1  0  0  0  0
 13 14  1  0  0  0  0
 15 13  1  0  0  0  0
 16 13  1  0  0  0  0
 17  1  1  0  0  0  0
 17 19  1  0  0  0  0
 18 17  1  0  0  0  0
 20 17  1  0  0  0  0
 20 21  1  0  0  0  0
 21 23  2  0  0  0  0
 21 22  1  0  0  0  0
 24 25  1  0  0  0  0
 24 23  1  0  0  0  0
 26 24  2  0  0  0  0
 27 26  1  0  0  0  0
 28 26  1  0  0  0  0
 28 20  2  0  0  0  0
 29  6  1  0  0  0  0
 29 31  1  0  0  0  0
 30 29  2  0  0  0  0
 31 32  1  0  0  0  0
 32 37  1  0  0  0  0
 32 33  2  0  0  0  0
 33 38  1  0  0  0  0
 34 33  1  0  0  0  0
 35 34  2  0  0  0  0
 36 31  2  0  0  0  0
 36 35  1  0  0  0  0
 39 35  1  0  0  0  0
M  END
>  <minimizedAffinity>
-5.31056547

$$$$

 OpenBabel03262522043D

 39 42  0  0  1  0  0  0  0  0999 V2000
   38.3150   25.9460   34.3290 C   0  0  2  0  0  0  0  0  0  0  0  0
   37.1100   26.5790   33.7130 C   0  0  0  0  0  0  0  0  0  0  0  0
   36.7180   25.8060   32.5430 N   0  0  0  0  0  0  0  0  0  0  0  0
   35.9920   25.0400   31.5780 C   0  0  0  0  0  0  0  0  0  0  0  0
   34.7980   24.7430   31.3480 O   0  0  0  0  0  0  0  0  0  0  0  0
   37.1890   24.6470   30.8340 C   0  0  1  0  0  0  0  0  0  0  0  0
   37.8660   25.6910   31.6800 C   0  0  2  0  0  0  0  0  0  0  0  0
   39.0490   25.0470   32.9100 S   0  0  0  0  0  0  0  0  0  0  0  0
   37.1980   27.6500   33.5030 H   0  0  0  0  0  0  0  0  0  0  0  0
   36.2830   26.4910   34.4660 H   0  0  0  0  0  0  0  0  0  0  0  0
   37.2940   24.9830   29.7690 H   0  0  0  0  0  0  0  0  0  0  0  0
   38.1910   26.6170   31.1850 H   0  0  0  0  0  0  0  0  0  0  0  0
   38.0510   25.0680   35.5090 C   0  0  0  0  0  0  0  0  0  0  0  0
   37.7200   24.0730   35.0910 H   0  0  0  0  0  0  0  0  0  0  0  0
   38.9600   24.8710   36.0750 H   0  0  0  0  0  0  0  0  0  0  0  0
   37.2700   25.4960   36.1440 H   0  0  0  0  0  0  0  0  0  0  0  0
   39.3290   27.0500   34.6550 C   0  0  0  0  0  0  0  0  0  0  0  0
   39.1190   27.2850   35.7370 H   0  0  0  0  0  0  0  0  0  0  0  0
   39.0480   27.9350   34.0850 H   0  0  0  0  0  0  0  0  0  0  0  0
   40.7180   26.6470   34.4320 C   0  0  0  0  0  0  0  0  0  0  0  0
   41.3870   27.4000   33.4630 C   0  0  0  0  0  0  0  0  0  0  0  0
   40.9170   28.2260   32.9090 H   0  0  0  0  0  0  0  0  0  0  0  0
   42.7150   27.1610   33.1170 C   0  0  0  0  0  3  0  0  0  0  0  0
   43.4040   26.1480   33.7470 C   0  0  0  0  0  0  0  0  0  0  0  0
   44.4280   25.9440   33.4980 H   0  0  0  0  0  0  0  0  0  0  0  0
   42.7310   25.4290   34.6870 C   0  0  0  0  0  0  0  0  0  0  0  0
   43.2030   24.6060   35.2350 H   0  0  0  0  0  0  0  0  0  0  0  0
   41.4260   25.6360   35.0500 C   0  0  0  0  0  3  0  0  0  0  0  0
   37.6310   23.2480   31.0240 C   0  0  0  0  0  0  0  0  0  0  0  0
   38.7170   22.9690   30.4390 O   0  0  0  0  0  0  0  0  0  0  0  0
   36.8890   22.2970   31.8090 C   0  0  0  0  0  0  0  0  0  0  0  0
   35.9200   21.5440   31.1590 C   0  0  0  0  0  0  0  0  0  0  0  0
   35.1870   20.6100   31.9220 C   0  0  0  0  0  0  0  0  0  0  0  0
   35.4770   20.5070   33.2430 N   0  0  0  0  0  0  0  0  0  0  0  0
   36.4150   21.2440   33.8430 C   0  0  0  0  0  0  0  0  0  0  0  0
   37.1210   22.1400   33.1240 N   0  0  0  0  0  0  0  0  0  0  0  0
   35.7190   21.6580   30.0960 H   0  0  0  0  0  0  0  0  0  0  0  0
   34.4150   19.9970   31.4490 H   0  0  0  0  0  0  0  0  0  0  0  0
   36.5600   21.0750   34.9090 H   0  0  0  0  0  0  0  0  0  0  0  0
  1 17  1  1  0  0  0
  1 13  1  0  0  0  0
  2  1  1  0  0  0  0
  2 10  1  0  0  0  0
  3  2  1  0  0  0  0
  4  3  1  0  0  0  0
  5  4  2  0  0  0  0
  6 11  1  6  0  0  0
  6 29  1  0  0  0  0
  6  4  1  0  0  0  0
  6  7  1  0  0  0  0
  7 12  1  6  0  0  0
  7  3  1  0  0  0  0
  7  8  1  0  0  0  0
  8  1  1  0  0  0  0
  9  2  1  0  0  0  0
 13 15  1  0  0  0  0
 13 16  1  0  0  0  0
 14 13  1  0  0  0  0
 17 18  1  0  0  0  0
 19 17  1  0  0  0  0
 20 17  1  0  0  0  0
 20 28  1  0  0  0  0
 21 20  2  0  0  0  0
 22 21  1  0  0  0  0
 23 21  1  0  0  0  0
 23 24  2  0  0  0  0
 24 26  1  0  0  0  0
 25 24  1  0  0  0  0
 26 28  2  0  0  0  0
 26 27  1  0  0  0  0
 29 31  1  0  0  0  0
 30 29  2  0  0  0  0
 31 36  1  0  0  0  0
 32 31  2  0  0  0  0
 32 33  1  0  0  0  0
 33 34  2  0  0  0  0
 34 35  1  0  0  0  0
 35 39  1  0  0  0  0
 36 35  2  0  0  0  0
 37 32  1  0  0  0  0
 38 33  1  0  0  0  0
M  END
>  <minimizedAffinity>
-5.27768373

$$$$

 OpenBabel03262522043D

 39 42  0  0  1  0  0  0  0  0999 V2000
   37.3710   26.1210   31.8700 C   0  0  2  0  0  0  0  0  0  0  0  0
   38.3410   25.4030   30.9900 C   0  0  0  0  0  0  0  0  0  0  0  0
   38.8460   24.2370   31.7000 N   0  0  0  0  0  0  0  0  0  0  0  0
   39.2220   22.9090   32.0780 C   0  0  0  0  0  0  0  0  0  0  0  0
   39.3270   21.7900   31.5280 O   0  0  0  0  0  0  0  0  0  0  0  0
   39.4810   23.2670   33.4730 C   0  0  1  0  0  0  0  0  0  0  0  0
   39.3710   24.6800   32.9660 C   0  0  2  0  0  0  0  0  0  0  0  0
   37.9070   25.6000   33.5440 S   0  0  0  0  0  0  0  0  0  0  0  0
   39.1390   26.0210   30.5680 H   0  0  0  0  0  0  0  0  0  0  0  0
   37.7550   25.0300   30.1070 H   0  0  0  0  0  0  0  0  0  0  0  0
   40.5230   23.1520   33.8720 H   0  0  0  0  0  0  0  0  0  0  0  0
   40.2920   25.2790   32.9230 H   0  0  0  0  0  0  0  0  0  0  0  0
   35.9260   25.8440   31.6020 C   0  0  0  0  0  0  0  0  0  0  0  0
   35.6960   24.8660   32.1150 H   0  0  0  0  0  0  0  0  0  0  0  0
   35.2820   26.5890   32.0650 H   0  0  0  0  0  0  0  0  0  0  0  0
   35.7400   25.7660   30.5270 H   0  0  0  0  0  0  0  0  0  0  0  0
   37.6840   27.6210   31.8120 C   0  0  0  0  0  0  0  0  0  0  0  0
   37.8170   27.8170   30.7100 H   0  0  0  0  0  0  0  0  0  0  0  0
   38.6590   27.7740   32.2740 H   0  0  0  0  0  0  0  0  0  0  0  0
   36.6370   28.4560   32.4040 C   0  0  0  0  0  0  0  0  0  0  0  0
   35.9560   29.2610   31.4860 C   0  0  0  0  0  0  0  0  0  0  0  0
   36.1800   29.2730   30.4100 H   0  0  0  0  0  0  0  0  0  0  0  0
   34.9280   30.1210   31.8660 C   0  0  0  0  0  3  0  0  0  0  0  0
   34.5620   30.1890   33.1930 C   0  0  0  0  0  0  0  0  0  0  0  0
   33.7730   30.8440   33.5100 H   0  0  0  0  0  0  0  0  0  0  0  0
   35.2410   29.3960   34.0660 C   0  0  0  0  0  0  0  0  0  0  0  0
   35.0130   29.3880   35.1380 H   0  0  0  0  0  0  0  0  0  0  0  0
   36.2550   28.5400   33.7270 C   0  0  0  0  0  3  0  0  0  0  0  0
   38.4590   22.8290   34.4490 C   0  0  0  0  0  0  0  0  0  0  0  0
   37.4350   22.3070   33.9220 O   0  0  0  0  0  0  0  0  0  0  0  0
   38.6250   22.9830   35.8700 C   0  0  0  0  0  0  0  0  0  0  0  0
   39.8310   22.5720   36.4240 C   0  0  0  0  0  0  0  0  0  0  0  0
   40.0020   22.7190   37.8180 C   0  0  0  0  0  0  0  0  0  0  0  0
   38.9770   23.2530   38.5260 N   0  0  0  0  0  0  0  0  0  0  0  0
   37.8280   23.6400   37.9690 C   0  0  0  0  0  0  0  0  0  0  0  0
   37.6530   23.5050   36.6380 N   0  0  0  0  0  0  0  0  0  0  0  0
   40.6280   22.1480   35.8180 H   0  0  0  0  0  0  0  0  0  0  0  0
   40.9360   22.4080   38.2940 H   0  0  0  0  0  0  0  0  0  0  0  0
   37.0750   24.0550   38.6380 H   0  0  0  0  0  0  0  0  0  0  0  0
  1 13  1  6  0  0  0
  1  8  1  0  0  0  0
  2  3  1  0  0  0  0
  2  1  1  0  0  0  0
  3  4  1  0  0  0  0
  3  7  1  0  0  0  0
  4  6  1  0  0  0  0
  5  4  2  0  0  0  0
  6 11  1  1  0  0  0
  6 29  1  0  0  0  0
  7 12  1  6  0  0  0
  7  6  1  0  0  0  0
  7  8  1  0  0  0  0
  9  2  1  0  0  0  0
 10  2  1  0  0  0  0
 13 15  1  0  0  0  0
 13 14  1  0  0  0  0
 16 13  1  0  0  0  0
 17  1  1  0  0  0  0
 17 19  1  0  0  0  0
 17 20  1  0  0  0  0
 18 17  1  0  0  0  0
 20 28  1  0  0  0  0
 21 23  1  0  0  0  0
 21 20  2  0  0  0  0
 22 21  1  0  0  0  0
 23 24  2  0  0  0  0
 24 25  1  0  0  0  0
 24 26  1  0  0  0  0
 26 27  1  0  0  0  0
 28 26  2  0  0  0  0
 29 31  1  0  0  0  0
 30 29  2  0  0  0  0
 31 32  2  0  0  0  0
 31 36  1  0  0  0  0
 32 33  1  0  0  0  0
 33 38  1  0  0  0  0
 33 34  2  0  0  0  0
 35 34  1  0  0  0  0
 35 39  1  0  0  0  0
 36 35  2  0  0  0  0
 37 32  1  0  0  0  0
M  END
>  <minimizedAffinity>
-5.19950819

$$$$

 OpenBabel03262522043D

 39 42  0  0  1  0  0  0  0  0999 V2000
   38.9720   25.6330   33.4100 C   0  0  2  0  0  0  0  0  0  0  0  0
   39.8830   25.5570   32.2280 C   0  0  0  0  0  0  0  0  0  0  0  0
   39.4090   24.5090   31.3360 N   0  0  0  0  0  0  0  0  0  0  0  0
   38.9540   23.7670   30.2010 C   0  0  0  0  0  0  0  0  0  0  0  0
   38.8870   23.9290   28.9620 O   0  0  0  0  0  0  0  0  0  0  0  0
   38.5320   22.6120   30.9930 C   0  0  1  0  0  0  0  0  0  0  0  0
   39.2870   23.2950   32.1010 C   0  0  2  0  0  0  0  0  0  0  0  0
   38.2550   23.9470   33.4560 S   0  0  0  0  0  0  0  0  0  0  0  0
   40.9480   25.4660   32.4610 H   0  0  0  0  0  0  0  0  0  0  0  0
   39.7800   26.5330   31.6840 H   0  0  0  0  0  0  0  0  0  0  0  0
   39.0410   21.6260   30.8210 H   0  0  0  0  0  0  0  0  0  0  0  0
   40.2300   22.8380   32.4340 H   0  0  0  0  0  0  0  0  0  0  0  0
   37.9380   26.7120   33.3630 C   0  0  0  0  0  0  0  0  0  0  0  0
   37.1010   26.3130   32.7200 H   0  0  0  0  0  0  0  0  0  0  0  0
   37.5060   26.8980   34.3430 H   0  0  0  0  0  0  0  0  0  0  0  0
   38.3530   27.6260   32.9280 H   0  0  0  0  0  0  0  0  0  0  0  0
   39.8310   25.7230   34.6780 C   0  0  0  0  0  0  0  0  0  0  0  0
   39.8600   26.8290   34.8950 H   0  0  0  0  0  0  0  0  0  0  0  0
   40.8470   25.4330   34.4100 H   0  0  0  0  0  0  0  0  0  0  0  0
   39.2960   24.9490   35.7990 C   0  0  0  0  0  0  0  0  0  0  0  0
   40.0240   23.7950   36.1010 C   0  0  0  0  0  0  0  0  0  0  0  0
   40.9230   23.4860   35.5490 H   0  0  0  0  0  0  0  0  0  0  0  0
   39.6640   22.9350   37.1370 C   0  0  0  0  0  3  0  0  0  0  0  0
   38.5520   23.2240   37.8970 C   0  0  0  0  0  0  0  0  0  0  0  0
   38.2550   22.5770   38.7000 H   0  0  0  0  0  0  0  0  0  0  0  0
   37.8600   24.3530   37.5830 C   0  0  0  0  0  0  0  0  0  0  0  0
   36.9640   24.6570   38.1360 H   0  0  0  0  0  0  0  0  0  0  0  0
   38.1850   25.2200   36.5730 C   0  0  0  0  0  3  0  0  0  0  0  0
   37.0720   22.4590   31.1780 C   0  0  0  0  0  0  0  0  0  0  0  0
   36.4000   23.4650   30.8120 O   0  0  0  0  0  0  0  0  0  0  0  0
   36.4780   21.2660   31.7220 C   0  0  0  0  0  0  0  0  0  0  0  0
   36.4170   20.1470   30.9030 C   0  0  0  0  0  0  0  0  0  0  0  0
   35.8360   18.9730   31.4290 C   0  0  0  0  0  0  0  0  0  0  0  0
   35.3750   19.0140   32.7030 N   0  0  0  0  0  0  0  0  0  0  0  0
   35.4460   20.1040   33.4710 C   0  0  0  0  0  0  0  0  0  0  0  0
   36.0000   21.2310   32.9780 N   0  0  0  0  0  0  0  0  0  0  0  0
   36.8000   20.1570   29.8850 H   0  0  0  0  0  0  0  0  0  0  0  0
   35.7670   18.0700   30.8170 H   0  0  0  0  0  0  0  0  0  0  0  0
   35.0420   20.0190   34.4780 H   0  0  0  0  0  0  0  0  0  0  0  0
  1 13  1  6  0  0  0
  1  8  1  0  0  0  0
  1 17  1  0  0  0  0
  2  9  1  0  0  0  0
  2  1  1  0  0  0  0
  3  7  1  0  0  0  0
  3  2  1  0  0  0  0
  4  6  1  0  0  0  0
  4  3  1  0  0  0  0
  5  4  2  0  0  0  0
  6 11  1  6  0  0  0
  6 29  1  0  0  0  0
  6  7  1  0  0  0  0
  7 12  1  1  0  0  0
  7  8  1  0  0  0  0
 10  2  1  0  0  0  0
 13 15  1  0  0  0  0
 14 13  1  0  0  0  0
 16 13  1  0  0  0  0
 17 18  1  0  0  0  0
 17 20  1  0  0  0  0
 19 17  1  0  0  0  0
 20 21  2  0  0  0  0
 20 28  1  0  0  0  0
 21 23  1  0  0  0  0
 22 21  1  0  0  0  0
 23 24  2  0  0  0  0
 24 25  1  0  0  0  0
 26 24  1  0  0  0  0
 26 27  1  0  0  0  0
 28 26  2  0  0  0  0
 29 31  1  0  0  0  0
 30 29  2  0  0  0  0
 31 36  1  0  0  0  0
 32 33  1  0  0  0  0
 32 31  2  0  0  0  0
 33 34  2  0  0  0  0
 34 35  1  0  0  0  0
 35 39  1  0  0  0  0
 36 35  2  0  0  0  0
 37 32  1  0  0  0  0
 38 33  1  0  0  0  0
M  END
>  <minimizedAffinity>
-5.19001007

$$$$

 OpenBabel03262522043D

 39 42  0  0  1  0  0  0  0  0999 V2000
   38.3070   25.8230   34.1290 C   0  0  2  0  0  0  0  0  0  0  0  0
   37.7990   25.4110   35.4710 C   0  0  0  0  0  0  0  0  0  0  0  0
   38.5320   24.2310   35.9100 N   0  0  0  0  0  0  0  0  0  0  0  0
   39.3170   23.2940   36.6520 C   0  0  0  0  0  0  0  0  0  0  0  0
   39.7560   23.1800   37.8180 O   0  0  0  0  0  0  0  0  0  0  0  0
   39.4910   22.3840   35.5190 C   0  0  1  0  0  0  0  0  0  0  0  0
   38.4290   23.2340   34.8760 C   0  0  2  0  0  0  0  0  0  0  0  0
   38.9940   24.2550   33.4750 S   0  0  0  0  0  0  0  0  0  0  0  0
   36.7140   25.2880   35.5460 H   0  0  0  0  0  0  0  0  0  0  0  0
   38.0520   26.2450   36.1790 H   0  0  0  0  0  0  0  0  0  0  0  0
   39.0680   21.3470   35.5930 H   0  0  0  0  0  0  0  0  0  0  0  0
   37.4340   22.7870   34.7350 H   0  0  0  0  0  0  0  0  0  0  0  0
   39.2960   26.9450   34.1280 C   0  0  0  0  0  0  0  0  0  0  0  0
   40.2930   26.4820   34.3830 H   0  0  0  0  0  0  0  0  0  0  0  0
   39.4080   27.3810   33.1380 H   0  0  0  0  0  0  0  0  0  0  0  0
   39.0240   27.7020   34.8690 H   0  0  0  0  0  0  0  0  0  0  0  0
   37.1030   26.1250   33.2280 C   0  0  0  0  0  0  0  0  0  0  0  0
   36.3210   25.3960   33.5860 H   0  0  0  0  0  0  0  0  0  0  0  0
   37.3660   25.8240   32.2140 H   0  0  0  0  0  0  0  0  0  0  0  0
   36.6490   27.5140   33.3090 C   0  0  0  0  0  0  0  0  0  0  0  0
   36.6740   28.2000   32.0920 C   0  0  0  0  0  0  0  0  0  0  0  0
   37.0050   27.7430   31.1480 H   0  0  0  0  0  0  0  0  0  0  0  0
   36.2770   29.5300   31.9750 C   0  0  0  0  0  3  0  0  0  0  0  0
   35.8420   30.2040   33.0970 C   0  0  0  0  0  0  0  0  0  0  0  0
   35.5310   31.2290   33.0330 H   0  0  0  0  0  0  0  0  0  0  0  0
   35.8280   29.5140   34.2700 C   0  0  0  0  0  0  0  0  0  0  0  0
   35.4970   29.9740   35.2080 H   0  0  0  0  0  0  0  0  0  0  0  0
   36.2110   28.2080   34.4190 C   0  0  0  0  0  3  0  0  0  0  0  0
   40.8270   22.3960   34.8850 C   0  0  0  0  0  0  0  0  0  0  0  0
   40.9540   21.5690   33.9370 O   0  0  0  0  0  0  0  0  0  0  0  0
   41.8820   23.2780   35.3110 C   0  0  0  0  0  0  0  0  0  0  0  0
   42.8090   22.7800   36.2170 C   0  0  0  0  0  0  0  0  0  0  0  0
   43.8460   23.6390   36.6410 C   0  0  0  0  0  0  0  0  0  0  0  0
   43.8710   24.8960   36.1340 N   0  0  0  0  0  0  0  0  0  0  0  0
   42.9670   25.3500   35.2630 C   0  0  0  0  0  0  0  0  0  0  0  0
   41.9720   24.5380   34.8510 N   0  0  0  0  0  0  0  0  0  0  0  0
   42.7520   21.7640   36.6000 H   0  0  0  0  0  0  0  0  0  0  0  0
   44.5960   23.2860   37.3540 H   0  0  0  0  0  0  0  0  0  0  0  0
   43.0880   26.3780   34.9250 H   0  0  0  0  0  0  0  0  0  0  0  0
  1 17  1  6  0  0  0
  1  2  1  0  0  0  0
  2  9  1  0  0  0  0
  2  3  1  0  0  0  0
  2 10  1  0  0  0  0
  3  4  1  0  0  0  0
  4  5  2  0  0  0  0
  6 11  1  1  0  0  0
  6  4  1  0  0  0  0
  7 12  1  6  0  0  0
  7  6  1  0  0  0  0
  7  3  1  0  0  0  0
  8  1  1  0  0  0  0
  8  7  1  0  0  0  0
 13  1  1  0  0  0  0
 13 14  1  0  0  0  0
 13 16  1  0  0  0  0
 15 13  1  0  0  0  0
 17 20  1  0  0  0  0
 17 18  1  0  0  0  0
 19 17  1  0  0  0  0
 20 28  1  0  0  0  0
 21 20  2  0  0  0  0
 22 21  1  0  0  0  0
 23 21  1  0  0  0  0
 23 24  2  0  0  0  0
 24 26  1  0  0  0  0
 25 24  1  0  0  0  0
 26 28  2  0  0  0  0
 26 27  1  0  0  0  0
 29 31  1  0  0  0  0
 29  6  1  0  0  0  0
 30 29  2  0  0  0  0
 31 32  1  0  0  0  0
 32 37  1  0  0  0  0
 32 33  2  0  0  0  0
 33 38  1  0  0  0  0
 34 33  1  0  0  0  0
 35 34  2  0  0  0  0
 36 35  1  0  0  0  0
 36 31  2  0  0  0  0
 39 35  1  0  0  0  0
M  END
>  <minimizedAffinity>
-5.18238354

$$$$

 OpenBabel03262522043D

 39 42  0  0  1  0  0  0  0  0999 V2000
   38.0880   26.3850   31.2890 C   0  0  2  0  0  0  0  0  0  0  0  0
   38.9870   27.5330   31.6120 C   0  0  0  0  0  0  0  0  0  0  0  0
   39.7030   27.2380   32.8450 N   0  0  0  0  0  0  0  0  0  0  0  0
   40.7140   27.0250   33.8340 C   0  0  0  0  0  0  0  0  0  0  0  0
   41.9400   27.2410   33.9580 O   0  0  0  0  0  0  0  0  0  0  0  0
   39.7980   26.4000   34.7880 C   0  0  1  0  0  0  0  0  0  0  0  0
   38.7310   26.9090   33.8560 C   0  0  2  0  0  0  0  0  0  0  0  0
   37.8260   25.6220   32.9350 S   0  0  0  0  0  0  0  0  0  0  0  0
   38.5070   28.5170   31.6260 H   0  0  0  0  0  0  0  0  0  0  0  0
   39.7460   27.5860   30.7870 H   0  0  0  0  0  0  0  0  0  0  0  0
   39.6240   26.9040   35.7760 H   0  0  0  0  0  0  0  0  0  0  0  0
   38.1010   27.7400   34.2060 H   0  0  0  0  0  0  0  0  0  0  0  0
   38.6090   25.4230   30.2700 C   0  0  0  0  0  0  0  0  0  0  0  0
   39.3160   24.7380   30.8210 H   0  0  0  0  0  0  0  0  0  0  0  0
   37.8180   24.7890   29.8750 H   0  0  0  0  0  0  0  0  0  0  0  0
   39.1340   25.9520   29.4700 H   0  0  0  0  0  0  0  0  0  0  0  0
   36.7140   26.9420   30.8960 C   0  0  0  0  0  0  0  0  0  0  0  0
   36.0540   26.6390   31.7590 H   0  0  0  0  0  0  0  0  0  0  0  0
   36.3660   26.3820   30.0280 H   0  0  0  0  0  0  0  0  0  0  0  0
   36.7140   28.3890   30.6760 C   0  0  0  0  0  0  0  0  0  0  0  0
   36.2270   29.1340   31.7540 C   0  0  0  0  0  0  0  0  0  0  0  0
   35.8710   28.6810   32.6900 H   0  0  0  0  0  0  0  0  0  0  0  0
   36.1520   30.5260   31.7270 C   0  0  0  0  0  3  0  0  0  0  0  0
   36.5720   31.2010   30.6010 C   0  0  0  0  0  0  0  0  0  0  0  0
   36.5250   32.2720   30.5560 H   0  0  0  0  0  0  0  0  0  0  0  0
   37.0420   30.4530   29.5660 C   0  0  0  0  0  0  0  0  0  0  0  0
   37.3950   30.9100   28.6350 H   0  0  0  0  0  0  0  0  0  0  0  0
   37.1290   29.0860   29.5590 C   0  0  0  0  0  3  0  0  0  0  0  0
   39.9160   24.9320   34.9240 C   0  0  0  0  0  0  0  0  0  0  0  0
   40.9340   24.4430   34.3570 O   0  0  0  0  0  0  0  0  0  0  0  0
   38.9540   24.1380   35.6440 C   0  0  0  0  0  0  0  0  0  0  0  0
   38.4360   24.6670   36.8190 C   0  0  0  0  0  0  0  0  0  0  0  0
   37.4940   23.8950   37.5320 C   0  0  0  0  0  0  0  0  0  0  0  0
   37.1530   22.6850   37.0220 N   0  0  0  0  0  0  0  0  0  0  0  0
   37.6660   22.2010   35.8880 C   0  0  0  0  0  0  0  0  0  0  0  0
   38.5680   22.9300   35.1990 N   0  0  0  0  0  0  0  0  0  0  0  0
   38.7370   25.6420   37.1940 H   0  0  0  0  0  0  0  0  0  0  0  0
   37.0620   24.2730   38.4620 H   0  0  0  0  0  0  0  0  0  0  0  0
   37.3190   21.2170   35.5760 H   0  0  0  0  0  0  0  0  0  0  0  0
  1 13  1  6  0  0  0
  1  2  1  0  0  0  0
  1  8  1  0  0  0  0
  2  9  1  0  0  0  0
  2  3  1  0  0  0  0
  3  4  1  0  0  0  0
  3  7  1  0  0  0  0
  4  5  2  0  0  0  0
  4  6  1  0  0  0  0
  6 29  1  0  0  0  0
  6 11  1  1  0  0  0
  7 12  1  1  0  0  0
  7  6  1  0  0  0  0
  8  7  1  0  0  0  0
 10  2  1  0  0  0  0
 13 14  1  0  0  0  0
 15 13  1  0  0  0  0
 16 13  1  0  0  0  0
 17  1  1  0  0  0  0
 17 18  1  0  0  0  0
 19 17  1  0  0  0  0
 20 17  1  0  0  0  0
 20 21  1  0  0  0  0
 21 22  1  0  0  0  0
 23 21  2  0  0  0  0
 24 23  1  0  0  0  0
 25 24  1  0  0  0  0
 26 24  2  0  0  0  0
 27 26  1  0  0  0  0
 28 26  1  0  0  0  0
 28 20  2  0  0  0  0
 29 31  1  0  0  0  0
 30 29  2  0  0  0  0
 31 32  1  0  0  0  0
 32 37  1  0  0  0  0
 32 33  2  0  0  0  0
 33 38  1  0  0  0  0
 34 33  1  0  0  0  0
 35 34  2  0  0  0  0
 36 31  2  0  0  0  0
 36 35  1  0  0  0  0
 39 35  1  0  0  0  0
M  END
>  <minimizedAffinity>
-5.18151569

$$$$
