
 OpenBabel03272510133D

 41 44  0  0  0  0  0  0  0  0999 V2000
   38.2800   31.6140   48.8810 C   0  0  0  0  0  0  0  0  0  0  0  0
   38.5080   32.8710   49.3870 C   0  0  0  0  0  0  0  0  0  0  0  0
   39.1800   33.5960   48.4050 C   0  0  0  0  0  0  0  0  0  0  0  0
   39.3410   32.7910   47.3600 N   0  0  0  0  0  0  0  0  0  0  0  0
   38.8130   31.6550   47.6580 N   0  0  0  0  0  0  0  0  0  0  0  0
   38.2970   33.3860   50.3140 H   0  0  0  0  0  0  0  0  0  0  0  0
   39.5460   34.6280   48.3990 H   0  0  0  0  0  0  0  0  0  0  0  0
   39.9910   33.0830   46.1100 C   0  0  0  0  0  0  0  0  0  0  0  0
   40.7030   33.9160   46.2250 H   0  0  0  0  0  0  0  0  0  0  0  0
   39.2070   33.4700   45.4020 H   0  0  0  0  0  0  0  0  0  0  0  0
   40.6160   31.8400   45.5660 C   0  0  0  0  0  0  0  0  0  0  0  0
   41.7170   32.0940   45.4400 H   0  0  0  0  0  0  0  0  0  0  0  0
   40.6740   31.0310   46.3660 H   0  0  0  0  0  0  0  0  0  0  0  0
   40.0560   31.2960   44.3250 C   0  0  0  0  0  0  0  0  0  0  0  0
   40.0790   31.6990   43.0100 C   0  0  0  0  0  0  0  0  0  0  0  0
   40.5790   32.6460   42.8600 H   0  0  0  0  0  0  0  0  0  0  0  0
   39.4890   30.9640   42.0080 C   0  0  0  0  0  3  0  0  0  0  0  0
   38.8360   29.7760   42.2560 C   0  0  0  0  0  0  0  0  0  0  0  0
   38.4230   29.3130   41.3720 H   0  0  0  0  0  0  0  0  0  0  0  0
   38.7930   29.3440   43.5650 C   0  0  0  0  0  0  0  0  0  0  0  0
   38.2730   28.4110   43.7210 H   0  0  0  0  0  0  0  0  0  0  0  0
   39.3900   30.0900   44.5700 C   0  0  0  0  0  3  0  0  0  0  0  0
   37.6180   30.7510   49.7310 O   0  0  0  0  0  0  0  0  0  0  0  0
   34.0840   28.9030   48.3960 C   0  0  0  0  0  0  0  0  0  0  0  0
   34.8330   28.3570   49.3990 C   0  0  0  0  0  0  0  0  0  0  0  0
   35.9980   28.9040   49.8870 C   0  0  0  0  0  0  0  0  0  0  0  0
   36.4770   30.0640   49.3700 C   0  0  0  0  0  0  0  0  0  0  0  0
   35.7210   30.6330   48.3450 C   0  0  0  0  0  0  0  0  0  0  0  0
   34.5790   30.0730   47.8850 N   0  0  0  0  0  0  0  0  0  0  0  0
   34.5090   27.4300   49.8570 H   0  0  0  0  0  0  0  0  0  0  0  0
   36.5820   28.4580   50.6820 H   0  0  0  0  0  0  0  0  0  0  0  0
   35.9620   31.5570   47.8250 H   0  0  0  0  0  0  0  0  0  0  0  0
   32.1050   27.4000   48.5690 C   0  0  0  0  0  0  0  0  0  0  0  0
   32.8720   28.3490   47.8750 C   0  0  0  0  0  0  0  0  0  0  0  0
   32.4110   28.7390   46.6440 C   0  0  0  0  0  0  0  0  0  0  0  0
   31.2530   28.2060   46.1460 N   0  0  0  0  0  0  0  0  0  0  0  0
   30.5470   27.2830   46.8690 C   0  0  0  0  0  0  0  0  0  0  0  0
   30.9650   26.8700   48.0870 N   0  0  0  0  0  0  0  0  0  0  0  0
   32.4280   27.0610   49.5410 H   0  0  0  0  0  0  0  0  0  0  0  0
   32.9410   29.4720   46.0310 H   0  0  0  0  0  0  0  0  0  0  0  0
   29.6360   26.8620   46.4800 H   0  0  0  0  0  0  0  0  0  0  0  0
  1  2  1  0  0  0  0
  1 23  1  0  0  0  0
  2  6  1  0  0  0  0
  3  2  2  0  0  0  0
  4  5  1  0  0  0  0
  4  3  1  0  0  0  0
  5  1  2  0  0  0  0
  7  3  1  0  0  0  0
  8  9  1  0  0  0  0
  8  4  1  0  0  0  0
 10  8  1  0  0  0  0
 11  8  1  0  0  0  0
 11 13  1  0  0  0  0
 12 11  1  0  0  0  0
 14 22  1  0  0  0  0
 14 11  1  0  0  0  0
 15 14  2  0  0  0  0
 16 15  1  0  0  0  0
 17 18  2  0  0  0  0
 17 15  1  0  0  0  0
 18 20  1  0  0  0  0
 19 18  1  0  0  0  0
 20 21  1  0  0  0  0
 20 22  2  0  0  0  0
 24 25  1  0  0  0  0
 25 30  1  0  0  0  0
 25 26  2  0  0  0  0
 26 31  1  0  0  0  0
 27 23  1  0  0  0  0
 27 26  1  0  0  0  0
 28 27  2  0  0  0  0
 29 28  1  0  0  0  0
 29 24  2  0  0  0  0
 32 28  1  0  0  0  0
 33 39  1  0  0  0  0
 34 24  1  0  0  0  0
 34 33  2  0  0  0  0
 35 34  1  0  0  0  0
 36 35  2  0  0  0  0
 36 37  1  0  0  0  0
 37 38  2  0  0  0  0
 38 33  1  0  0  0  0
 40 35  1  0  0  0  0
 41 37  1  0  0  0  0
M  END
>  <minimizedAffinity>
-6.26068163

>  <minimizedRMSD>
1.10323977

$$$$
