
 OpenBabel03272509263D

 25 26  0  0  0  0  0  0  0  0999 V2000
   36.0410   26.6670   30.8530 C   0  0  0  0  0  0  0  0  0  0  0  0
   35.4820   27.2190   30.0360 H   0  0  0  0  0  0  0  0  0  0  0  0
   37.0270   26.4770   30.4200 H   0  0  0  0  0  0  0  0  0  0  0  0
   35.2200   25.4170   31.1240 C   0  0  0  0  0  0  0  0  0  0  0  0
   34.7690   25.5540   32.1290 H   0  0  0  0  0  0  0  0  0  0  0  0
   34.4370   25.3250   30.3140 H   0  0  0  0  0  0  0  0  0  0  0  0
   36.5790   21.9010   31.2970 C   0  0  0  0  0  0  0  0  0  0  0  0
   35.6530   22.9520   31.4040 C   0  0  0  0  0  0  0  0  0  0  0  0
   36.0670   24.2160   31.0580 C   0  0  0  0  0  0  0  0  0  0  0  0
   37.3500   24.3760   30.6300 N   0  0  0  0  0  0  0  0  0  0  0  0
   38.2330   23.3590   30.5310 C   0  0  0  0  0  0  0  0  0  0  0  0
   37.8350   22.1170   30.8690 N   0  0  0  0  0  0  0  0  0  0  0  0
   36.2470   20.8980   31.5740 H   0  0  0  0  0  0  0  0  0  0  0  0
   34.6650   22.7810   31.7420 H   0  0  0  0  0  0  0  0  0  0  0  0
   39.2500   23.4830   30.1910 H   0  0  0  0  0  0  0  0  0  0  0  0
   36.0070   27.7660   32.2680 S   0  0  0  0  0  0  0  0  0  0  0  0
   37.2920   27.4860   33.4500 C   0  0  0  0  0  0  0  0  0  0  0  0
   38.5370   27.1140   32.9810 C   0  0  0  0  0  0  0  0  0  0  0  0
   38.8100   26.9730   31.9430 H   0  0  0  0  0  0  0  0  0  0  0  0
   39.6080   26.8750   33.8480 C   0  0  0  0  0  3  0  0  0  0  0  0
   39.4320   27.0110   35.2220 C   0  0  0  0  0  0  0  0  0  0  0  0
   40.2300   26.8380   35.9390 H   0  0  0  0  0  0  0  0  0  0  0  0
   38.2000   27.3820   35.7100 C   0  0  0  0  0  0  0  0  0  0  0  0
   38.0540   27.4910   36.7800 H   0  0  0  0  0  0  0  0  0  0  0  0
   37.1810   27.6060   34.8300 C   0  0  0  0  0  3  0  0  0  0  0  0
  1  4  1  0  0  0  0
  1 16  1  0  0  0  0
  2  1  1  0  0  0  0
  3  1  1  0  0  0  0
  4  5  1  0  0  0  0
  6  4  1  0  0  0  0
  7  8  1  0  0  0  0
  7 13  1  0  0  0  0
  8 14  1  0  0  0  0
  9  4  1  0  0  0  0
  9  8  2  0  0  0  0
 10  9  1  0  0  0  0
 11 10  2  0  0  0  0
 11 12  1  0  0  0  0
 12  7  2  0  0  0  0
 15 11  1  0  0  0  0
 16 17  1  0  0  0  0
 17 25  1  0  0  0  0
 18 17  2  0  0  0  0
 18 20  1  0  0  0  0
 19 18  1  0  0  0  0
 20 21  2  0  0  0  0
 21 23  1  0  0  0  0
 21 22  1  0  0  0  0
 23 24  1  0  0  0  0
 25 23  2  0  0  0  0
M  END
>  <minimizedAffinity>
-4.31776524

$$$$

 OpenBabel03272509263D

 25 26  0  0  0  0  0  0  0  0999 V2000
   35.3120   29.5560   32.5430 C   0  0  0  0  0  0  0  0  0  0  0  0
   36.0970   30.1780   33.0740 H   0  0  0  0  0  0  0  0  0  0  0  0
   35.1010   30.1150   31.6280 H   0  0  0  0  0  0  0  0  0  0  0  0
   34.1450   29.4730   33.5140 C   0  0  0  0  0  0  0  0  0  0  0  0
   33.2440   29.7810   32.9430 H   0  0  0  0  0  0  0  0  0  0  0  0
   34.0690   28.4090   33.8870 H   0  0  0  0  0  0  0  0  0  0  0  0
   33.7810   31.5550   36.6390 C   0  0  0  0  0  0  0  0  0  0  0  0
   33.4070   30.7200   35.5730 C   0  0  0  0  0  0  0  0  0  0  0  0
   34.3810   30.3350   34.6820 C   0  0  0  0  0  0  0  0  0  0  0  0
   35.6500   30.7840   34.8850 N   0  0  0  0  0  0  0  0  0  0  0  0
   35.9990   31.5870   35.9130 C   0  0  0  0  0  0  0  0  0  0  0  0
   35.0510   31.9690   36.7910 N   0  0  0  0  0  0  0  0  0  0  0  0
   33.0050   31.8600   37.3450 H   0  0  0  0  0  0  0  0  0  0  0  0
   32.4070   30.3950   35.4550 H   0  0  0  0  0  0  0  0  0  0  0  0
   37.0050   31.9430   36.0770 H   0  0  0  0  0  0  0  0  0  0  0  0
   36.0650   27.9450   32.3200 S   0  0  0  0  0  0  0  0  0  0  0  0
   37.3420   27.5610   33.4810 C   0  0  0  0  0  0  0  0  0  0  0  0
   38.5750   27.1780   32.9880 C   0  0  0  0  0  0  0  0  0  0  0  0
   38.8420   27.0860   31.9440 H   0  0  0  0  0  0  0  0  0  0  0  0
   39.6380   26.8590   33.8380 C   0  0  0  0  0  3  0  0  0  0  0  0
   39.4690   26.9250   35.2180 C   0  0  0  0  0  0  0  0  0  0  0  0
   40.2610   26.6900   35.9230 H   0  0  0  0  0  0  0  0  0  0  0  0
   38.2490   27.3060   35.7300 C   0  0  0  0  0  0  0  0  0  0  0  0
   38.1070   27.3610   36.8040 H   0  0  0  0  0  0  0  0  0  0  0  0
   37.2370   27.6080   34.8650 C   0  0  0  0  0  3  0  0  0  0  0  0
  1  2  1  0  0  0  0
  1  4  1  0  0  0  0
  3  1  1  0  0  0  0
  4  6  1  0  0  0  0
  4  9  1  0  0  0  0
  5  4  1  0  0  0  0
  7 12  1  0  0  0  0
  7 13  1  0  0  0  0
  8  7  2  0  0  0  0
  9 10  2  0  0  0  0
  9  8  1  0  0  0  0
 10 11  1  0  0  0  0
 11 15  1  0  0  0  0
 11 12  2  0  0  0  0
 14  8  1  0  0  0  0
 16  1  1  0  0  0  0
 16 17  1  0  0  0  0
 17 25  1  0  0  0  0
 18 17  2  0  0  0  0
 18 20  1  0  0  0  0
 19 18  1  0  0  0  0
 20 21  2  0  0  0  0
 21 23  1  0  0  0  0
 21 22  1  0  0  0  0
 23 24  1  0  0  0  0
 25 23  2  0  0  0  0
M  END
>  <minimizedAffinity>
-4.25461197

$$$$

 OpenBabel03272509263D

 25 26  0  0  0  0  0  0  0  0999 V2000
   37.8020   23.3850   33.1570 C   0  0  0  0  0  0  0  0  0  0  0  0
   37.9830   22.8760   32.1620 H   0  0  0  0  0  0  0  0  0  0  0  0
   36.8520   23.9100   33.0210 H   0  0  0  0  0  0  0  0  0  0  0  0
   39.0010   24.2970   33.3620 C   0  0  0  0  0  0  0  0  0  0  0  0
   39.7640   23.6920   33.8950 H   0  0  0  0  0  0  0  0  0  0  0  0
   39.3620   24.6410   32.3470 H   0  0  0  0  0  0  0  0  0  0  0  0
   38.8690   27.1970   35.7720 C   0  0  0  0  0  0  0  0  0  0  0  0
   39.3710   26.0540   35.1280 C   0  0  0  0  0  0  0  0  0  0  0  0
   38.6160   25.4960   34.1230 C   0  0  0  0  0  0  0  0  0  0  0  0
   37.4290   26.0830   33.8100 N   0  0  0  0  0  0  0  0  0  0  0  0
   36.9550   27.1820   34.4370 C   0  0  0  0  0  0  0  0  0  0  0  0
   37.6880   27.7360   35.4230 N   0  0  0  0  0  0  0  0  0  0  0  0
   39.4700   27.6380   36.5710 H   0  0  0  0  0  0  0  0  0  0  0  0
   40.3000   25.6320   35.4040 H   0  0  0  0  0  0  0  0  0  0  0  0
   36.0140   27.6500   34.1900 H   0  0  0  0  0  0  0  0  0  0  0  0
   37.8000   22.0630   34.3670 S   0  0  0  0  0  0  0  0  0  0  0  0
   38.3880   22.5280   35.9680 C   0  0  0  0  0  0  0  0  0  0  0  0
   37.5050   23.1470   36.8310 C   0  0  0  0  0  0  0  0  0  0  0  0
   36.4700   23.3820   36.6210 H   0  0  0  0  0  0  0  0  0  0  0  0
   37.8890   23.5450   38.1150 C   0  0  0  0  0  3  0  0  0  0  0  0
   39.1910   23.3180   38.5520 C   0  0  0  0  0  0  0  0  0  0  0  0
   39.5410   23.6060   39.5390 H   0  0  0  0  0  0  0  0  0  0  0  0
   40.0870   22.7000   37.7090 C   0  0  0  0  0  0  0  0  0  0  0  0
   41.1030   22.5190   38.0410 H   0  0  0  0  0  0  0  0  0  0  0  0
   39.6710   22.3280   36.4630 C   0  0  0  0  0  3  0  0  0  0  0  0
  1  4  1  0  0  0  0
  1 16  1  0  0  0  0
  2  1  1  0  0  0  0
  3  1  1  0  0  0  0
  4  5  1  0  0  0  0
  4  9  1  0  0  0  0
  6  4  1  0  0  0  0
  7 13  1  0  0  0  0
  8 14  1  0  0  0  0
  8  7  2  0  0  0  0
  9  8  1  0  0  0  0
 10  9  2  0  0  0  0
 10 11  1  0  0  0  0
 11 12  2  0  0  0  0
 12  7  1  0  0  0  0
 15 11  1  0  0  0  0
 16 17  1  0  0  0  0
 17 25  2  0  0  0  0
 17 18  1  0  0  0  0
 18 20  2  0  0  0  0
 19 18  1  0  0  0  0
 20 21  1  0  0  0  0
 21 22  1  0  0  0  0
 23 24  1  0  0  0  0
 23 21  2  0  0  0  0
 25 23  1  0  0  0  0
M  END
>  <minimizedAffinity>
-4.24809885

$$$$

 OpenBabel03272509263D

 25 26  0  0  0  0  0  0  0  0999 V2000
   38.9950   22.3980   33.6550 C   0  0  0  0  0  0  0  0  0  0  0  0
   38.8540   21.6080   32.8560 H   0  0  0  0  0  0  0  0  0  0  0  0
   40.0080   22.2250   34.0280 H   0  0  0  0  0  0  0  0  0  0  0  0
   37.8960   22.1350   34.6730 C   0  0  0  0  0  0  0  0  0  0  0  0
   37.0060   22.6970   34.3210 H   0  0  0  0  0  0  0  0  0  0  0  0
   37.7100   21.0210   34.7130 H   0  0  0  0  0  0  0  0  0  0  0  0
   38.0740   23.5930   38.1490 C   0  0  0  0  0  0  0  0  0  0  0  0
   37.5260   23.2460   36.9020 C   0  0  0  0  0  0  0  0  0  0  0  0
   38.3220   22.5600   36.0160 C   0  0  0  0  0  0  0  0  0  0  0  0
   39.5930   22.2560   36.3960 N   0  0  0  0  0  0  0  0  0  0  0  0
   40.1100   22.5940   37.5980 C   0  0  0  0  0  0  0  0  0  0  0  0
   39.3370   23.2670   38.4730 N   0  0  0  0  0  0  0  0  0  0  0  0
   37.4400   24.1390   38.8510 H   0  0  0  0  0  0  0  0  0  0  0  0
   36.5320   23.5030   36.6490 H   0  0  0  0  0  0  0  0  0  0  0  0
   41.1180   22.3530   37.9020 H   0  0  0  0  0  0  0  0  0  0  0  0
   38.7230   23.9610   32.8210 S   0  0  0  0  0  0  0  0  0  0  0  0
   38.5210   25.3470   33.9000 C   0  0  0  0  0  0  0  0  0  0  0  0
   37.2950   25.9840   33.9170 C   0  0  0  0  0  0  0  0  0  0  0  0
   36.4310   25.7170   33.3250 H   0  0  0  0  0  0  0  0  0  0  0  0
   37.0520   27.0860   34.7430 C   0  0  0  0  0  3  0  0  0  0  0  0
   38.0590   27.5660   35.5760 C   0  0  0  0  0  0  0  0  0  0  0  0
   37.9230   28.4170   36.2370 H   0  0  0  0  0  0  0  0  0  0  0  0
   39.2870   26.9440   35.5750 C   0  0  0  0  0  0  0  0  0  0  0  0
   40.0770   27.3110   36.2210 H   0  0  0  0  0  0  0  0  0  0  0  0
   39.4830   25.8720   34.7540 C   0  0  0  0  0  3  0  0  0  0  0  0
  1  3  1  0  0  0  0
  1  4  1  0  0  0  0
  2  1  1  0  0  0  0
  4  6  1  0  0  0  0
  4  9  1  0  0  0  0
  5  4  1  0  0  0  0
  7 12  1  0  0  0  0
  7 13  1  0  0  0  0
  8  7  2  0  0  0  0
  9 10  2  0  0  0  0
  9  8  1  0  0  0  0
 10 11  1  0  0  0  0
 11 15  1  0  0  0  0
 11 12  2  0  0  0  0
 14  8  1  0  0  0  0
 16  1  1  0  0  0  0
 16 17  1  0  0  0  0
 17 18  2  0  0  0  0
 17 25  1  0  0  0  0
 18 20  1  0  0  0  0
 19 18  1  0  0  0  0
 20 21  2  0  0  0  0
 21 22  1  0  0  0  0
 23 21  1  0  0  0  0
 23 24  1  0  0  0  0
 25 23  2  0  0  0  0
M  END
>  <minimizedAffinity>
-4.23045921

$$$$

 OpenBabel03272509263D

 25 26  0  0  0  0  0  0  0  0999 V2000
   38.3720   23.0550   33.2570 C   0  0  0  0  0  0  0  0  0  0  0  0
   39.3340   23.1300   32.6630 H   0  0  0  0  0  0  0  0  0  0  0  0
   38.4320   22.0750   33.7400 H   0  0  0  0  0  0  0  0  0  0  0  0
   37.2580   23.1830   32.2310 C   0  0  0  0  0  0  0  0  0  0  0  0
   36.5720   23.9660   32.6140 H   0  0  0  0  0  0  0  0  0  0  0  0
   37.7210   23.4700   31.2400 H   0  0  0  0  0  0  0  0  0  0  0  0
   34.7540   20.3620   32.1590 C   0  0  0  0  0  0  0  0  0  0  0  0
   35.2690   21.6490   32.3920 C   0  0  0  0  0  0  0  0  0  0  0  0
   36.5760   21.8940   32.0430 C   0  0  0  0  0  0  0  0  0  0  0  0
   37.2950   20.8780   31.4920 N   0  0  0  0  0  0  0  0  0  0  0  0
   36.7900   19.6440   31.2730 C   0  0  0  0  0  0  0  0  0  0  0  0
   35.5100   19.3940   31.6120 N   0  0  0  0  0  0  0  0  0  0  0  0
   33.7150   20.1700   32.4380 H   0  0  0  0  0  0  0  0  0  0  0  0
   34.6720   22.4090   32.8220 H   0  0  0  0  0  0  0  0  0  0  0  0
   37.3580   18.8360   30.8350 H   0  0  0  0  0  0  0  0  0  0  0  0
   38.3880   24.4710   34.3550 S   0  0  0  0  0  0  0  0  0  0  0  0
   38.5570   24.0730   36.0690 C   0  0  0  0  0  0  0  0  0  0  0  0
   39.5560   23.1930   36.4370 C   0  0  0  0  0  0  0  0  0  0  0  0
   40.2580   22.7130   35.7690 H   0  0  0  0  0  0  0  0  0  0  0  0
   39.7580   22.8270   37.7720 C   0  0  0  0  0  3  0  0  0  0  0  0
   38.9410   23.3550   38.7680 C   0  0  0  0  0  0  0  0  0  0  0  0
   39.0550   23.1050   39.8190 H   0  0  0  0  0  0  0  0  0  0  0  0
   37.9400   24.2350   38.4230 C   0  0  0  0  0  0  0  0  0  0  0  0
   37.2990   24.6510   39.1920 H   0  0  0  0  0  0  0  0  0  0  0  0
   37.7760   24.5650   37.1090 C   0  0  0  0  0  3  0  0  0  0  0  0
  1  3  1  0  0  0  0
  1 16  1  0  0  0  0
  2  1  1  0  0  0  0
  4  5  1  0  0  0  0
  4  1  1  0  0  0  0
  6  4  1  0  0  0  0
  7  8  1  0  0  0  0
  7 13  1  0  0  0  0
  8 14  1  0  0  0  0
  9  4  1  0  0  0  0
  9  8  2  0  0  0  0
 10  9  1  0  0  0  0
 11 10  2  0  0  0  0
 11 12  1  0  0  0  0
 12  7  2  0  0  0  0
 15 11  1  0  0  0  0
 16 17  1  0  0  0  0
 17 18  2  0  0  0  0
 17 25  1  0  0  0  0
 18 20  1  0  0  0  0
 19 18  1  0  0  0  0
 20 21  2  0  0  0  0
 21 22  1  0  0  0  0
 23 21  1  0  0  0  0
 23 24  1  0  0  0  0
 25 23  2  0  0  0  0
M  END
>  <minimizedAffinity>
-4.15377426

$$$$

 OpenBabel03272509263D

 25 26  0  0  0  0  0  0  0  0999 V2000
   40.5550   25.3730   33.7430 C   0  0  0  0  0  0  0  0  0  0  0  0
   41.5350   25.0700   34.2260 H   0  0  0  0  0  0  0  0  0  0  0  0
   40.8040   25.4880   32.6840 H   0  0  0  0  0  0  0  0  0  0  0  0
   40.1500   26.6630   34.4380 C   0  0  0  0  0  0  0  0  0  0  0  0
   40.1060   26.4300   35.5220 H   0  0  0  0  0  0  0  0  0  0  0  0
   40.9250   27.4510   34.2020 H   0  0  0  0  0  0  0  0  0  0  0  0
   37.2950   27.8070   32.2520 C   0  0  0  0  0  0  0  0  0  0  0  0
   38.5730   27.3320   32.5930 C   0  0  0  0  0  0  0  0  0  0  0  0
   38.8580   27.1440   33.9240 C   0  0  0  0  0  0  0  0  0  0  0  0
   37.8880   27.4290   34.8350 N   0  0  0  0  0  0  0  0  0  0  0  0
   36.6620   27.8850   34.4970 C   0  0  0  0  0  0  0  0  0  0  0  0
   36.3730   28.0720   33.1940 N   0  0  0  0  0  0  0  0  0  0  0  0
   37.0710   27.9550   31.1930 H   0  0  0  0  0  0  0  0  0  0  0  0
   39.2970   27.1240   31.8500 H   0  0  0  0  0  0  0  0  0  0  0  0
   35.8890   28.1100   35.2180 H   0  0  0  0  0  0  0  0  0  0  0  0
   39.4100   24.0530   34.1400 S   0  0  0  0  0  0  0  0  0  0  0  0
   39.1150   23.8290   35.8690 C   0  0  0  0  0  0  0  0  0  0  0  0
   40.0140   23.0650   36.5880 C   0  0  0  0  0  0  0  0  0  0  0  0
   40.8970   22.5800   36.1920 H   0  0  0  0  0  0  0  0  0  0  0  0
   39.8560   22.8400   37.9590 C   0  0  0  0  0  3  0  0  0  0  0  0
   38.7700   23.3930   38.6330 C   0  0  0  0  0  0  0  0  0  0  0  0
   38.6000   23.2500   39.6960 H   0  0  0  0  0  0  0  0  0  0  0  0
   37.8630   24.1580   37.9350 C   0  0  0  0  0  0  0  0  0  0  0  0
   37.0150   24.5930   38.4520 H   0  0  0  0  0  0  0  0  0  0  0  0
   38.0550   24.3530   36.5980 C   0  0  0  0  0  3  0  0  0  0  0  0
  1 16  1  0  0  0  0
  1  2  1  0  0  0  0
  1  4  1  0  0  0  0
  3  1  1  0  0  0  0
  4  5  1  0  0  0  0
  6  4  1  0  0  0  0
  7  8  2  0  0  0  0
  7 12  1  0  0  0  0
  8  9  1  0  0  0  0
  9  4  1  0  0  0  0
  9 10  2  0  0  0  0
 11 10  1  0  0  0  0
 11 15  1  0  0  0  0
 12 11  2  0  0  0  0
 13  7  1  0  0  0  0
 14  8  1  0  0  0  0
 16 17  1  0  0  0  0
 17 18  2  0  0  0  0
 17 25  1  0  0  0  0
 18 20  1  0  0  0  0
 19 18  1  0  0  0  0
 20 21  2  0  0  0  0
 21 22  1  0  0  0  0
 23 24  1  0  0  0  0
 23 21  1  0  0  0  0
 25 23  2  0  0  0  0
M  END
>  <minimizedAffinity>
-4.11116648

$$$$

 OpenBabel03272509263D

 25 26  0  0  0  0  0  0  0  0999 V2000
   37.2720   27.4250   34.8790 C   0  0  0  0  0  0  0  0  0  0  0  0
   37.0810   28.5310   35.0320 H   0  0  0  0  0  0  0  0  0  0  0  0
   36.3690   26.9420   35.2630 H   0  0  0  0  0  0  0  0  0  0  0  0
   38.5330   27.1240   35.6720 C   0  0  0  0  0  0  0  0  0  0  0  0
   39.3670   27.6130   35.1270 H   0  0  0  0  0  0  0  0  0  0  0  0
   38.4030   27.5400   36.7150 H   0  0  0  0  0  0  0  0  0  0  0  0
   39.8620   23.5980   35.4830 C   0  0  0  0  0  0  0  0  0  0  0  0
   39.8130   24.9890   35.2920 C   0  0  0  0  0  0  0  0  0  0  0  0
   38.7320   25.6720   35.7980 C   0  0  0  0  0  0  0  0  0  0  0  0
   37.7740   24.9620   36.4540 N   0  0  0  0  0  0  0  0  0  0  0  0
   37.8310   23.6240   36.6320 C   0  0  0  0  0  0  0  0  0  0  0  0
   38.8860   22.9460   36.1390 N   0  0  0  0  0  0  0  0  0  0  0  0
   40.7220   23.0580   35.0790 H   0  0  0  0  0  0  0  0  0  0  0  0
   40.5810   25.5000   34.7760 H   0  0  0  0  0  0  0  0  0  0  0  0
   37.0730   23.0580   37.1530 H   0  0  0  0  0  0  0  0  0  0  0  0
   37.5710   27.2410   33.1210 S   0  0  0  0  0  0  0  0  0  0  0  0
   36.8460   25.7990   32.3970 C   0  0  0  0  0  0  0  0  0  0  0  0
   35.7770   25.9700   31.5390 C   0  0  0  0  0  0  0  0  0  0  0  0
   35.3300   26.9150   31.2600 H   0  0  0  0  0  0  0  0  0  0  0  0
   35.1490   24.8840   30.9230 C   0  0  0  0  0  3  0  0  0  0  0  0
   35.5980   23.5890   31.1700 C   0  0  0  0  0  0  0  0  0  0  0  0
   35.1470   22.7110   30.7180 H   0  0  0  0  0  0  0  0  0  0  0  0
   36.6630   23.3970   32.0220 C   0  0  0  0  0  0  0  0  0  0  0  0
   37.0200   22.3920   32.2200 H   0  0  0  0  0  0  0  0  0  0  0  0
   37.2480   24.4850   32.6020 C   0  0  0  0  0  3  0  0  0  0  0  0
  1  2  1  0  0  0  0
  1  3  1  0  0  0  0
  1  4  1  0  0  0  0
  4  9  1  0  0  0  0
  4  6  1  0  0  0  0
  5  4  1  0  0  0  0
  7 12  1  0  0  0  0
  8  7  2  0  0  0  0
  8  9  1  0  0  0  0
  9 10  2  0  0  0  0
 10 11  1  0  0  0  0
 11 15  1  0  0  0  0
 12 11  2  0  0  0  0
 13  7  1  0  0  0  0
 14  8  1  0  0  0  0
 16  1  1  0  0  0  0
 17 25  1  0  0  0  0
 17 16  1  0  0  0  0
 18 17  2  0  0  0  0
 19 18  1  0  0  0  0
 20 21  2  0  0  0  0
 20 18  1  0  0  0  0
 21 23  1  0  0  0  0
 22 21  1  0  0  0  0
 23 24  1  0  0  0  0
 23 25  2  0  0  0  0
M  END
>  <minimizedAffinity>
-4.09274912

$$$$

 OpenBabel03272509263D

 25 26  0  0  0  0  0  0  0  0999 V2000
   38.3270   26.0090   34.2890 C   0  0  0  0  0  0  0  0  0  0  0  0
   38.6790   24.9630   34.0310 H   0  0  0  0  0  0  0  0  0  0  0  0
   39.2300   26.6210   34.2160 H   0  0  0  0  0  0  0  0  0  0  0  0
   37.7500   25.9020   35.6920 C   0  0  0  0  0  0  0  0  0  0  0  0
   37.9170   26.8880   36.1720 H   0  0  0  0  0  0  0  0  0  0  0  0
   36.6520   25.6490   35.6050 H   0  0  0  0  0  0  0  0  0  0  0  0
   38.7250   23.3250   38.2700 C   0  0  0  0  0  0  0  0  0  0  0  0
   38.0040   24.3760   37.6790 C   0  0  0  0  0  0  0  0  0  0  0  0
   38.3970   24.8090   36.4350 C   0  0  0  0  0  0  0  0  0  0  0  0
   39.4610   24.1950   35.8480 N   0  0  0  0  0  0  0  0  0  0  0  0
   40.1480   23.1860   36.4260 C   0  0  0  0  0  0  0  0  0  0  0  0
   39.7690   22.7550   37.6450 N   0  0  0  0  0  0  0  0  0  0  0  0
   38.4100   22.9830   39.2590 H   0  0  0  0  0  0  0  0  0  0  0  0
   37.1820   24.8240   38.1720 H   0  0  0  0  0  0  0  0  0  0  0  0
   40.9910   22.6960   35.9620 H   0  0  0  0  0  0  0  0  0  0  0  0
   37.0350   26.3750   33.1010 S   0  0  0  0  0  0  0  0  0  0  0  0
   36.4910   28.0570   33.0990 C   0  0  0  0  0  0  0  0  0  0  0  0
   36.5870   28.7700   31.9200 C   0  0  0  0  0  0  0  0  0  0  0  0
   36.9700   28.3970   30.9800 H   0  0  0  0  0  0  0  0  0  0  0  0
   36.1770   30.1040   31.8330 C   0  0  0  0  0  3  0  0  0  0  0  0
   35.6550   30.7460   32.9530 C   0  0  0  0  0  0  0  0  0  0  0  0
   35.3220   31.7790   32.9400 H   0  0  0  0  0  0  0  0  0  0  0  0
   35.5500   30.0520   34.1380 C   0  0  0  0  0  0  0  0  0  0  0  0
   35.1450   30.5440   35.0160 H   0  0  0  0  0  0  0  0  0  0  0  0
   35.9620   28.7520   34.1800 C   0  0  0  0  0  3  0  0  0  0  0  0
  1  4  1  0  0  0  0
  2  1  1  0  0  0  0
  3  1  1  0  0  0  0
  4  5  1  0  0  0  0
  4  9  1  0  0  0  0
  6  4  1  0  0  0  0
  7 13  1  0  0  0  0
  8 14  1  0  0  0  0
  8  7  1  0  0  0  0
  9  8  2  0  0  0  0
 10 11  2  0  0  0  0
 10  9  1  0  0  0  0
 11 12  1  0  0  0  0
 12  7  2  0  0  0  0
 15 11  1  0  0  0  0
 16  1  1  0  0  0  0
 17 16  1  0  0  0  0
 17 25  1  0  0  0  0
 18 17  2  0  0  0  0
 19 18  1  0  0  0  0
 20 18  1  0  0  0  0
 20 21  2  0  0  0  0
 21 23  1  0  0  0  0
 22 21  1  0  0  0  0
 23 25  2  0  0  0  0
 23 24  1  0  0  0  0
M  END
>  <minimizedAffinity>
-4.09057045

$$$$

 OpenBabel03272509263D

 25 26  0  0  0  0  0  0  0  0999 V2000
   36.9980   27.5570   34.3580 C   0  0  0  0  0  0  0  0  0  0  0  0
   36.1780   26.7890   34.5090 H   0  0  0  0  0  0  0  0  0  0  0  0
   36.4800   28.5180   34.4230 H   0  0  0  0  0  0  0  0  0  0  0  0
   37.5850   27.2490   32.9890 C   0  0  0  0  0  0  0  0  0  0  0  0
   37.4980   28.1840   32.3970 H   0  0  0  0  0  0  0  0  0  0  0  0
   38.6610   26.9310   33.1290 H   0  0  0  0  0  0  0  0  0  0  0  0
   36.4420   23.8430   31.8380 C   0  0  0  0  0  0  0  0  0  0  0  0
   37.2140   24.8050   32.5100 C   0  0  0  0  0  0  0  0  0  0  0  0
   36.8710   26.1280   32.3590 C   0  0  0  0  0  0  0  0  0  0  0  0
   35.8040   26.4290   31.5700 N   0  0  0  0  0  0  0  0  0  0  0  0
   35.0670   25.4960   30.9280 C   0  0  0  0  0  0  0  0  0  0  0  0
   35.3970   24.1970   31.0700 N   0  0  0  0  0  0  0  0  0  0  0  0
   36.7170   22.7930   31.9590 H   0  0  0  0  0  0  0  0  0  0  0  0
   38.0360   24.5260   33.1140 H   0  0  0  0  0  0  0  0  0  0  0  0
   34.2200   25.7310   30.3020 H   0  0  0  0  0  0  0  0  0  0  0  0
   38.1960   27.2240   35.6490 S   0  0  0  0  0  0  0  0  0  0  0  0
   38.5380   25.5090   35.9110 C   0  0  0  0  0  0  0  0  0  0  0  0
   39.6540   24.9680   35.3020 C   0  0  0  0  0  0  0  0  0  0  0  0
   40.3520   25.4970   34.6680 H   0  0  0  0  0  0  0  0  0  0  0  0
   39.9970   23.6210   35.4600 C   0  0  0  0  0  3  0  0  0  0  0  0
   39.2050   22.7900   36.2480 C   0  0  0  0  0  0  0  0  0  0  0  0
   39.4250   21.7380   36.4040 H   0  0  0  0  0  0  0  0  0  0  0  0
   38.0880   23.3100   36.8640 C   0  0  0  0  0  0  0  0  0  0  0  0
   37.4660   22.6700   37.4800 H   0  0  0  0  0  0  0  0  0  0  0  0
   37.7900   24.6290   36.6840 C   0  0  0  0  0  3  0  0  0  0  0  0
  1  3  1  0  0  0  0
  1  2  1  0  0  0  0
  1 16  1  0  0  0  0
  4  6  1  0  0  0  0
  4  1  1  0  0  0  0
  5  4  1  0  0  0  0
  7 13  1  0  0  0  0
  7  8  1  0  0  0  0
  8 14  1  0  0  0  0
  9  8  2  0  0  0  0
  9  4  1  0  0  0  0
 10  9  1  0  0  0  0
 11 12  1  0  0  0  0
 11 10  2  0  0  0  0
 12  7  2  0  0  0  0
 15 11  1  0  0  0  0
 16 17  1  0  0  0  0
 17 25  1  0  0  0  0
 18 20  1  0  0  0  0
 18 17  2  0  0  0  0
 19 18  1  0  0  0  0
 20 21  2  0  0  0  0
 21 22  1  0  0  0  0
 21 23  1  0  0  0  0
 23 24  1  0  0  0  0
 25 23  2  0  0  0  0
M  END
>  <minimizedAffinity>
-4.06646681

$$$$
