
 OpenBabel03272509263D

 25 26  0  0  0  0  0  0  0  0999 V2000
   39.0470   30.2990   45.0560 C   0  0  0  0  0  0  0  0  0  0  0  0
   39.9900   29.8100   44.6620 H   0  0  0  0  0  0  0  0  0  0  0  0
   38.4630   29.4660   45.4590 H   0  0  0  0  0  0  0  0  0  0  0  0
   38.4190   30.9830   43.8530 C   0  0  0  0  0  0  0  0  0  0  0  0
   38.7830   32.0320   43.8680 H   0  0  0  0  0  0  0  0  0  0  0  0
   38.7450   30.4320   42.9220 H   0  0  0  0  0  0  0  0  0  0  0  0
   34.8510   30.1290   44.7330 C   0  0  0  0  0  0  0  0  0  0  0  0
   36.2540   30.1030   44.7900 C   0  0  0  0  0  0  0  0  0  0  0  0
   36.9520   30.9070   43.9200 C   0  0  0  0  0  0  0  0  0  0  0  0
   36.2430   31.6820   43.0550 N   0  0  0  0  0  0  0  0  0  0  0  0
   34.8930   31.7000   43.0070 C   0  0  0  0  0  0  0  0  0  0  0  0
   34.2010   30.9150   43.8570 N   0  0  0  0  0  0  0  0  0  0  0  0
   34.3000   29.4890   45.4250 H   0  0  0  0  0  0  0  0  0  0  0  0
   36.7640   29.4840   45.4810 H   0  0  0  0  0  0  0  0  0  0  0  0
   34.3280   32.3160   42.3230 H   0  0  0  0  0  0  0  0  0  0  0  0
   39.6110   31.5100   46.2500 S   0  0  0  0  0  0  0  0  0  0  0  0
   38.5920   31.6580   47.6880 C   0  0  0  0  0  0  0  0  0  0  0  0
   37.8440   30.5610   48.0700 C   0  0  0  0  0  0  0  0  0  0  0  0
   37.8170   29.6030   47.5690 H   0  0  0  0  0  0  0  0  0  0  0  0
   37.0140   30.5940   49.1950 C   0  0  0  0  0  0  0  0  0  0  0  0
   36.9280   31.7530   49.9620 C   0  0  0  0  0  0  0  0  0  0  0  0
   36.3010   31.8320   50.8440 H   0  0  0  0  0  0  0  0  0  0  0  0
   37.6670   32.8570   49.5980 C   0  0  0  0  0  0  0  0  0  0  0  0
   37.6060   33.7640   50.1900 H   0  0  0  0  0  0  0  0  0  0  0  0
   38.4640   32.7830   48.4930 C   0  0  0  0  0  0  0  0  0  0  0  0
  1  3  1  0  0  0  0
  1 16  1  0  0  0  0
  2  1  1  0  0  0  0
  4  5  1  0  0  0  0
  4  9  1  0  0  0  0
  4  1  1  0  0  0  0
  6  4  1  0  0  0  0
  7  8  1  0  0  0  0
  7 13  1  0  0  0  0
  8 14  1  0  0  0  0
  9  8  2  0  0  0  0
 10  9  1  0  0  0  0
 11 10  2  0  0  0  0
 11 12  1  0  0  0  0
 12  7  2  0  0  0  0
 15 11  1  0  0  0  0
 16 17  1  0  0  0  0
 17 18  2  0  0  0  0
 17 25  1  0  0  0  0
 18 20  1  0  0  0  0
 19 18  1  0  0  0  0
 20 21  2  0  0  0  0
 21 22  1  0  0  0  0
 23 21  1  0  0  0  0
 23 24  1  0  0  0  0
 25 23  2  0  0  0  0
M  END
>  <minimizedAffinity>
-4.10333061

>  <minimizedRMSD>
4.98930693

$$$$
