
 OpenBabel03272510143D

 41 44  0  0  0  0  0  0  0  0999 V2000
   38.4030   31.4430   48.8270 C   0  0  0  0  0  0  0  0  0  0  0  0
   38.4540   32.6580   49.4650 C   0  0  0  0  0  0  0  0  0  0  0  0
   39.0460   33.5620   48.5850 C   0  0  0  0  0  0  0  0  0  0  0  0
   39.3320   32.8980   47.4690 N   0  0  0  0  0  0  0  0  0  0  0  0
   38.9510   31.6780   47.6330 N   0  0  0  0  0  0  0  0  0  0  0  0
   38.1580   33.0420   50.4320 H   0  0  0  0  0  0  0  0  0  0  0  0
   39.2740   34.6270   48.6960 H   0  0  0  0  0  0  0  0  0  0  0  0
   39.9650   33.3990   46.2790 C   0  0  0  0  0  0  0  0  0  0  0  0
   40.5750   34.2870   46.5040 H   0  0  0  0  0  0  0  0  0  0  0  0
   39.1530   33.7730   45.5950 H   0  0  0  0  0  0  0  0  0  0  0  0
   40.7350   32.3030   45.6190 C   0  0  0  0  0  0  0  0  0  0  0  0
   41.8250   32.6200   45.6950 H   0  0  0  0  0  0  0  0  0  0  0  0
   40.7420   31.3650   46.2670 H   0  0  0  0  0  0  0  0  0  0  0  0
   40.3790   31.9700   44.2370 C   0  0  0  0  0  0  0  0  0  0  0  0
   40.5750   30.8640   43.4410 C   0  0  0  0  0  0  0  0  0  0  0  0
   41.1580   30.0890   43.9190 H   0  0  0  0  0  0  0  0  0  0  0  0
   40.0910   30.7930   42.1550 C   0  0  0  0  0  3  0  0  0  0  0  0
   39.3810   31.8230   41.5800 C   0  0  0  0  0  0  0  0  0  0  0  0
   39.0660   31.6220   40.5650 H   0  0  0  0  0  0  0  0  0  0  0  0
   39.1670   32.9470   42.3510 C   0  0  0  0  0  0  0  0  0  0  0  0
   38.6070   33.7330   41.8660 H   0  0  0  0  0  0  0  0  0  0  0  0
   39.6570   33.0120   43.6450 C   0  0  0  0  0  3  0  0  0  0  0  0
   37.8410   30.4180   49.5630 O   0  0  0  0  0  0  0  0  0  0  0  0
   34.1290   28.8700   48.3330 C   0  0  0  0  0  0  0  0  0  0  0  0
   34.7570   28.3980   49.4490 C   0  0  0  0  0  0  0  0  0  0  0  0
   35.9710   28.8560   49.9120 C   0  0  0  0  0  0  0  0  0  0  0  0
   36.6270   29.8420   49.2490 C   0  0  0  0  0  0  0  0  0  0  0  0
   35.9960   30.3330   48.1060 C   0  0  0  0  0  0  0  0  0  0  0  0
   34.8030   29.8650   47.6750 N   0  0  0  0  0  0  0  0  0  0  0  0
   34.2890   27.6100   50.0270 H   0  0  0  0  0  0  0  0  0  0  0  0
   36.4570   28.4700   50.7990 H   0  0  0  0  0  0  0  0  0  0  0  0
   36.3830   31.1190   47.4630 H   0  0  0  0  0  0  0  0  0  0  0  0
   32.0070   27.5890   48.5830 C   0  0  0  0  0  0  0  0  0  0  0  0
   32.8700   28.4060   47.8360 C   0  0  0  0  0  0  0  0  0  0  0  0
   32.4560   28.7560   46.5760 C   0  0  0  0  0  0  0  0  0  0  0  0
   31.2520   28.3100   46.1020 N   0  0  0  0  0  0  0  0  0  0  0  0
   30.4530   27.5150   46.8770 C   0  0  0  0  0  0  0  0  0  0  0  0
   30.8210   27.1460   48.1250 N   0  0  0  0  0  0  0  0  0  0  0  0
   32.2890   27.2870   49.5800 H   0  0  0  0  0  0  0  0  0  0  0  0
   33.0610   29.3880   45.9210 H   0  0  0  0  0  0  0  0  0  0  0  0
   29.5050   27.1630   46.5070 H   0  0  0  0  0  0  0  0  0  0  0  0
  1  2  1  0  0  0  0
  1 23  1  0  0  0  0
  2  6  1  0  0  0  0
  3  7  1  0  0  0  0
  3  2  2  0  0  0  0
  4  5  1  0  0  0  0
  4  3  1  0  0  0  0
  5  1  2  0  0  0  0
  8  9  1  0  0  0  0
  8  4  1  0  0  0  0
 10  8  1  0  0  0  0
 11 12  1  0  0  0  0
 11 13  1  0  0  0  0
 11  8  1  0  0  0  0
 14 11  1  0  0  0  0
 15 16  1  0  0  0  0
 15 14  2  0  0  0  0
 17 15  1  0  0  0  0
 18 17  2  0  0  0  0
 18 20  1  0  0  0  0
 19 18  1  0  0  0  0
 20 22  2  0  0  0  0
 21 20  1  0  0  0  0
 22 14  1  0  0  0  0
 24 25  1  0  0  0  0
 25 26  2  0  0  0  0
 25 30  1  0  0  0  0
 26 31  1  0  0  0  0
 27 23  1  0  0  0  0
 27 26  1  0  0  0  0
 28 27  2  0  0  0  0
 29 28  1  0  0  0  0
 29 24  2  0  0  0  0
 32 28  1  0  0  0  0
 33 39  1  0  0  0  0
 34 24  1  0  0  0  0
 34 33  2  0  0  0  0
 35 34  1  0  0  0  0
 36 35  2  0  0  0  0
 36 37  1  0  0  0  0
 37 38  2  0  0  0  0
 38 33  1  0  0  0  0
 40 35  1  0  0  0  0
 41 37  1  0  0  0  0
M  END
>  <minimizedAffinity>
-6.44191837

>  <minimizedRMSD>
1.49722874

$$$$
