
 OpenBabel03272501033D

 37 39  0  0  0  0  0  0  0  0999 V2000
   37.4190   24.8460   32.9190 F   0  0  0  0  0  0  0  0  0  0  0  0
   37.7130   25.6050   34.0040 C   0  0  0  0  0  0  0  0  0  0  0  0
   37.6840   26.9880   34.0040 C   0  0  0  0  0  0  0  0  0  0  0  0
   37.9970   27.6720   35.1460 C   0  0  0  0  0  0  0  0  0  0  0  0
   38.3520   27.0430   36.3360 C   0  0  0  0  0  0  0  0  0  0  0  0
   38.3780   25.6440   36.3220 C   0  0  0  0  0  0  0  0  0  0  0  0
   38.0630   24.9270   35.1720 C   0  0  0  0  0  0  0  0  0  0  0  0
   37.9690   28.7500   35.1290 H   0  0  0  0  0  0  0  0  0  0  0  0
   38.5950   27.5870   37.2270 H   0  0  0  0  0  0  0  0  0  0  0  0
   38.6570   25.1810   37.2590 H   0  0  0  0  0  0  0  0  0  0  0  0
   37.9370   28.3180   30.6070 C   0  0  0  0  0  0  0  0  0  0  0  0
   36.7220   28.9390   30.3840 C   0  0  0  0  0  0  0  0  0  0  0  0
   35.8010   28.8980   31.4250 C   0  0  0  0  0  0  0  0  0  0  0  0
   36.1090   28.2700   32.5910 N   0  0  0  0  0  0  0  0  0  0  0  0
   37.3150   27.6710   32.7710 C   0  0  0  0  0  0  0  0  0  0  0  0
   38.2300   27.6980   31.7690 N   0  0  0  0  0  0  0  0  0  0  0  0
   38.7140   28.3020   29.8500 H   0  0  0  0  0  0  0  0  0  0  0  0
   36.5680   29.4130   29.4250 H   0  0  0  0  0  0  0  0  0  0  0  0
   34.8590   29.3790   31.2530 H   0  0  0  0  0  0  0  0  0  0  0  0
   38.0980   23.5760   35.1900 O   0  0  0  0  0  0  0  0  0  0  0  0
   40.5030   23.4060   34.2350 O   0  0  0  0  0  0  0  0  0  0  0  0
   39.3400   22.5410   34.7130 P   0  0  2  0  0  0  0  0  0  0  0  0
   38.9550   21.4990   33.4550 O   0  0  0  0  0  0  0  0  0  0  0  0
   37.6630   21.4000   32.9780 C   0  0  0  0  0  0  0  0  0  0  0  0
   37.3870   21.7880   31.6620 C   0  0  0  0  0  0  0  0  0  0  0  0
   38.1460   22.1670   30.9920 H   0  0  0  0  0  0  0  0  0  0  0  0
   36.0880   21.6960   31.1560 C   0  0  0  0  0  3  0  0  0  0  0  0
   35.0860   21.2130   31.9900 C   0  0  0  0  0  0  0  0  0  0  0  0
   34.0770   21.1450   31.5870 H   0  0  0  0  0  0  0  0  0  0  0  0
   35.3050   20.8150   33.2980 C   0  0  0  0  0  0  0  0  0  0  0  0
   34.5310   20.4430   33.9390 H   0  0  0  0  0  0  0  0  0  0  0  0
   36.6080   20.9320   33.7310 C   0  0  0  0  0  3  0  0  0  0  0  0
   39.9180   21.6460   36.0400 O   0  0  0  0  0  0  0  0  0  0  0  0
   40.2230   22.4390   37.1250 C   0  0  0  0  0  0  0  0  0  0  0  0
   39.1120   22.8370   37.8160 F   0  0  0  0  0  0  0  0  0  0  0  0
   41.0110   21.6830   37.9610 F   0  0  0  0  0  0  0  0  0  0  0  0
   40.9460   23.5580   36.7200 F   0  0  0  0  0  0  0  0  0  0  0  0
  1  2  1  0  0  0  0
  2  3  2  0  0  0  0
  2  7  1  0  0  0  0
  3  4  1  0  0  0  0
  4  5  2  0  0  0  0
  5  9  1  0  0  0  0
  6  5  1  0  0  0  0
  6 10  1  0  0  0  0
  7 20  1  0  0  0  0
  7  6  2  0  0  0  0
  8  4  1  0  0  0  0
 11 16  1  0  0  0  0
 12 11  2  0  0  0  0
 12 13  1  0  0  0  0
 13 14  2  0  0  0  0
 14 15  1  0  0  0  0
 15  3  1  0  0  0  0
 16 15  2  0  0  0  0
 17 11  1  0  0  0  0
 18 12  1  0  0  0  0
 19 13  1  0  0  0  0
 22 21  2  6  0  0  0
 22 20  1  0  0  0  0
 22 33  1  0  0  0  0
 23 22  1  0  0  0  0
 24 23  1  0  0  0  0
 24 32  1  0  0  0  0
 25 24  2  0  0  0  0
 26 25  1  0  0  0  0
 27 25  1  0  0  0  0
 27 28  2  0  0  0  0
 28 30  1  0  0  0  0
 29 28  1  0  0  0  0
 30 32  2  0  0  0  0
 30 31  1  0  0  0  0
 33 34  1  0  0  0  0
 34 35  1  0  0  0  0
 34 36  1  0  0  0  0
 37 34  1  0  0  0  0
M  END
>  <minimizedAffinity>
-5.98560858

$$$$

 OpenBabel03272501033D

 37 39  0  0  0  0  0  0  0  0999 V2000
   35.8170   28.0220   34.6550 F   0  0  0  0  0  0  0  0  0  0  0  0
   36.3570   28.2370   33.4280 C   0  0  0  0  0  0  0  0  0  0  0  0
   35.8400   29.1310   32.5080 C   0  0  0  0  0  0  0  0  0  0  0  0
   36.4510   29.2810   31.2930 C   0  0  0  0  0  0  0  0  0  0  0  0
   37.5890   28.5720   30.9210 C   0  0  0  0  0  0  0  0  0  0  0  0
   38.1020   27.6720   31.8610 C   0  0  0  0  0  0  0  0  0  0  0  0
   37.4970   27.5010   33.1030 C   0  0  0  0  0  0  0  0  0  0  0  0
   36.0350   29.9830   30.5880 H   0  0  0  0  0  0  0  0  0  0  0  0
   38.0620   28.6970   29.9680 H   0  0  0  0  0  0  0  0  0  0  0  0
   38.9860   27.1340   31.5480 H   0  0  0  0  0  0  0  0  0  0  0  0
   33.7460   31.9170   33.6160 C   0  0  0  0  0  0  0  0  0  0  0  0
   32.4580   31.4150   33.5900 C   0  0  0  0  0  0  0  0  0  0  0  0
   32.3110   30.0940   33.1850 C   0  0  0  0  0  0  0  0  0  0  0  0
   33.3990   29.3580   32.8350 N   0  0  0  0  0  0  0  0  0  0  0  0
   34.6490   29.8860   32.8730 C   0  0  0  0  0  0  0  0  0  0  0  0
   34.8180   31.1740   33.2670 N   0  0  0  0  0  0  0  0  0  0  0  0
   33.9540   32.9370   33.9200 H   0  0  0  0  0  0  0  0  0  0  0  0
   31.6560   32.0780   33.8860 H   0  0  0  0  0  0  0  0  0  0  0  0
   31.3120   29.7050   33.1650 H   0  0  0  0  0  0  0  0  0  0  0  0
   38.0160   26.6230   33.9900 O   0  0  0  0  0  0  0  0  0  0  0  0
   38.5180   24.7840   32.2330 O   0  0  0  0  0  0  0  0  0  0  0  0
   38.7440   25.1300   33.7030 P   0  0  2  0  0  0  0  0  0  0  0  0
   38.1350   23.8550   34.6070 O   0  0  0  0  0  0  0  0  0  0  0  0
   38.4170   23.7320   35.9520 C   0  0  0  0  0  0  0  0  0  0  0  0
   39.5140   22.9620   36.3550 C   0  0  0  0  0  0  0  0  0  0  0  0
   40.1600   22.4510   35.6550 H   0  0  0  0  0  0  0  0  0  0  0  0
   39.8210   22.8250   37.7120 C   0  0  0  0  0  3  0  0  0  0  0  0
   39.0110   23.4670   38.6410 C   0  0  0  0  0  0  0  0  0  0  0  0
   39.2580   23.3540   39.6950 H   0  0  0  0  0  0  0  0  0  0  0  0
   37.9160   24.2410   38.2970 C   0  0  0  0  0  0  0  0  0  0  0  0
   37.2930   24.7360   39.0160 H   0  0  0  0  0  0  0  0  0  0  0  0
   37.6720   24.3340   36.9440 C   0  0  0  0  0  3  0  0  0  0  0  0
   40.4290   25.2320   33.9210 O   0  0  0  0  0  0  0  0  0  0  0  0
   40.8080   26.3550   34.6260 C   0  0  0  0  0  0  0  0  0  0  0  0
   39.9870   26.6110   35.6890 F   0  0  0  0  0  0  0  0  0  0  0  0
   42.0770   26.1180   35.0990 F   0  0  0  0  0  0  0  0  0  0  0  0
   40.8430   27.4650   33.7860 F   0  0  0  0  0  0  0  0  0  0  0  0
  2  1  1  0  0  0  0
  3 15  1  0  0  0  0
  3  2  2  0  0  0  0
  4  3  1  0  0  0  0
  5  4  2  0  0  0  0
  5  6  1  0  0  0  0
  6  7  2  0  0  0  0
  7  2  1  0  0  0  0
  7 20  1  0  0  0  0
  8  4  1  0  0  0  0
  9  5  1  0  0  0  0
 10  6  1  0  0  0  0
 11 17  1  0  0  0  0
 12 11  1  0  0  0  0
 12 18  1  0  0  0  0
 13 12  2  0  0  0  0
 14 15  2  0  0  0  0
 14 13  1  0  0  0  0
 15 16  1  0  0  0  0
 16 11  2  0  0  0  0
 19 13  1  0  0  0  0
 22 21  2  6  0  0  0
 22 33  1  0  0  0  0
 22 20  1  0  0  0  0
 22 23  1  0  0  0  0
 23 24  1  0  0  0  0
 24 25  2  0  0  0  0
 24 32  1  0  0  0  0
 25 27  1  0  0  0  0
 26 25  1  0  0  0  0
 27 28  2  0  0  0  0
 28 29  1  0  0  0  0
 30 28  1  0  0  0  0
 30 31  1  0  0  0  0
 32 30  2  0  0  0  0
 33 34  1  0  0  0  0
 34 36  1  0  0  0  0
 34 35  1  0  0  0  0
 37 34  1  0  0  0  0
M  END
>  <minimizedAffinity>
-5.78489017

$$$$

 OpenBabel03272501033D

 37 39  0  0  0  0  0  0  0  0999 V2000
   37.5840   25.3260   32.2570 F   0  0  0  0  0  0  0  0  0  0  0  0
   38.6530   25.8340   32.9190 C   0  0  0  0  0  0  0  0  0  0  0  0
   39.4600   26.8410   32.4180 C   0  0  0  0  0  0  0  0  0  0  0  0
   40.5190   27.2900   33.1580 C   0  0  0  0  0  0  0  0  0  0  0  0
   40.8410   26.7820   34.4130 C   0  0  0  0  0  0  0  0  0  0  0  0
   40.0170   25.7650   34.9070 C   0  0  0  0  0  0  0  0  0  0  0  0
   38.9340   25.2910   34.1730 C   0  0  0  0  0  0  0  0  0  0  0  0
   41.1370   28.0750   32.7530 H   0  0  0  0  0  0  0  0  0  0  0  0
   41.6720   27.1400   34.9860 H   0  0  0  0  0  0  0  0  0  0  0  0
   40.2890   25.3880   35.8840 H   0  0  0  0  0  0  0  0  0  0  0  0
   39.6690   27.4880   28.8250 C   0  0  0  0  0  0  0  0  0  0  0  0
   38.6360   28.3700   28.5700 C   0  0  0  0  0  0  0  0  0  0  0  0
   37.8550   28.7470   29.6560 C   0  0  0  0  0  0  0  0  0  0  0  0
   38.1190   28.2550   30.8950 N   0  0  0  0  0  0  0  0  0  0  0  0
   39.1440   27.3900   31.1060 C   0  0  0  0  0  0  0  0  0  0  0  0
   39.9210   27.0070   30.0610 N   0  0  0  0  0  0  0  0  0  0  0  0
   40.3290   27.1400   28.0380 H   0  0  0  0  0  0  0  0  0  0  0  0
   38.5040   28.7060   27.5510 H   0  0  0  0  0  0  0  0  0  0  0  0
   37.0530   29.4310   29.4580 H   0  0  0  0  0  0  0  0  0  0  0  0
   38.1570   24.3070   34.6780 O   0  0  0  0  0  0  0  0  0  0  0  0
   39.8350   22.3520   34.3810 O   0  0  0  0  0  0  0  0  0  0  0  0
   38.5990   22.7590   35.1790 P   0  0  2  0  0  0  0  0  0  0  0  0
   37.4400   21.5710   34.9280 O   0  0  0  0  0  0  0  0  0  0  0  0
   36.7820   21.4580   33.7200 C   0  0  0  0  0  0  0  0  0  0  0  0
   35.6280   20.6700   33.6390 C   0  0  0  0  0  0  0  0  0  0  0  0
   35.2210   20.1390   34.4880 H   0  0  0  0  0  0  0  0  0  0  0  0
   34.9440   20.5410   32.4270 C   0  0  0  0  0  3  0  0  0  0  0  0
   35.4390   21.2100   31.3140 C   0  0  0  0  0  0  0  0  0  0  0  0
   34.8990   21.1030   30.3750 H   0  0  0  0  0  0  0  0  0  0  0  0
   36.5740   22.0020   31.3390 C   0  0  0  0  0  0  0  0  0  0  0  0
   36.9540   22.5170   30.4790 H   0  0  0  0  0  0  0  0  0  0  0  0
   37.1980   22.0850   32.5650 C   0  0  0  0  0  3  0  0  0  0  0  0
   39.0630   22.7680   36.8160 O   0  0  0  0  0  0  0  0  0  0  0  0
   38.1440   23.3990   37.6270 C   0  0  0  0  0  0  0  0  0  0  0  0
   36.8530   23.1050   37.2870 F   0  0  0  0  0  0  0  0  0  0  0  0
   38.3710   22.9540   38.9070 F   0  0  0  0  0  0  0  0  0  0  0  0
   38.3330   24.7780   37.5920 F   0  0  0  0  0  0  0  0  0  0  0  0
  1  2  1  0  0  0  0
  2  7  1  0  0  0  0
  3  2  2  0  0  0  0
  3  4  1  0  0  0  0
  4  5  2  0  0  0  0
  5  6  1  0  0  0  0
  5  9  1  0  0  0  0
  6 10  1  0  0  0  0
  7 20  1  0  0  0  0
  7  6  2  0  0  0  0
  8  4  1  0  0  0  0
 11 16  1  0  0  0  0
 12 11  2  0  0  0  0
 12 13  1  0  0  0  0
 13 14  2  0  0  0  0
 14 15  1  0  0  0  0
 15  3  1  0  0  0  0
 16 15  2  0  0  0  0
 17 11  1  0  0  0  0
 18 12  1  0  0  0  0
 19 13  1  0  0  0  0
 20 22  1  0  0  0  0
 22 21  2  6  0  0  0
 22 33  1  0  0  0  0
 23 22  1  0  0  0  0
 24 23  1  0  0  0  0
 25 24  1  0  0  0  0
 25 26  1  0  0  0  0
 27 25  2  0  0  0  0
 28 30  2  0  0  0  0
 28 27  1  0  0  0  0
 29 28  1  0  0  0  0
 30 32  1  0  0  0  0
 31 30  1  0  0  0  0
 32 24  2  0  0  0  0
 33 34  1  0  0  0  0
 34 36  1  0  0  0  0
 35 34  1  0  0  0  0
 37 34  1  0  0  0  0
M  END
>  <minimizedAffinity>
-5.75605202

$$$$

 OpenBabel03272501033D

 37 39  0  0  0  0  0  0  0  0999 V2000
   36.8440   27.6060   35.3280 F   0  0  0  0  0  0  0  0  0  0  0  0
   36.7110   27.8820   34.0060 C   0  0  0  0  0  0  0  0  0  0  0  0
   35.9720   28.9440   33.5140 C   0  0  0  0  0  0  0  0  0  0  0  0
   35.8940   29.1450   32.1630 C   0  0  0  0  0  0  0  0  0  0  0  0
   36.5280   28.3250   31.2340 C   0  0  0  0  0  0  0  0  0  0  0  0
   37.2710   27.2560   31.7450 C   0  0  0  0  0  0  0  0  0  0  0  0
   37.3660   27.0310   33.1160 C   0  0  0  0  0  0  0  0  0  0  0  0
   35.3140   29.9770   31.7960 H   0  0  0  0  0  0  0  0  0  0  0  0
   36.4620   28.4910   30.1780 H   0  0  0  0  0  0  0  0  0  0  0  0
   37.7540   26.6360   31.0030 H   0  0  0  0  0  0  0  0  0  0  0  0
   33.2810   30.4890   35.4470 C   0  0  0  0  0  0  0  0  0  0  0  0
   33.9170   31.4250   36.2430 C   0  0  0  0  0  0  0  0  0  0  0  0
   35.2960   31.5220   36.1090 C   0  0  0  0  0  0  0  0  0  0  0  0
   35.9600   30.7240   35.2310 N   0  0  0  0  0  0  0  0  0  0  0  0
   35.2990   29.8170   34.4660 C   0  0  0  0  0  0  0  0  0  0  0  0
   33.9510   29.7030   34.5790 N   0  0  0  0  0  0  0  0  0  0  0  0
   32.2060   30.3460   35.4860 H   0  0  0  0  0  0  0  0  0  0  0  0
   33.3040   32.0140   36.9110 H   0  0  0  0  0  0  0  0  0  0  0  0
   35.7900   32.2470   36.7260 H   0  0  0  0  0  0  0  0  0  0  0  0
   38.0910   25.9900   33.5790 O   0  0  0  0  0  0  0  0  0  0  0  0
   39.3990   24.0780   32.4130 O   0  0  0  0  0  0  0  0  0  0  0  0
   38.0640   24.3770   33.0890 P   0  0  2  0  0  0  0  0  0  0  0  0
   36.8580   23.9870   31.9880 O   0  0  0  0  0  0  0  0  0  0  0  0
   36.5000   22.6750   31.7540 C   0  0  0  0  0  0  0  0  0  0  0  0
   37.3310   21.8680   30.9680 C   0  0  0  0  0  0  0  0  0  0  0  0
   38.2510   22.2260   30.5290 H   0  0  0  0  0  0  0  0  0  0  0  0
   36.9900   20.5360   30.7180 C   0  0  0  0  0  3  0  0  0  0  0  0
   35.8120   20.0410   31.2660 C   0  0  0  0  0  0  0  0  0  0  0  0
   35.5550   19.0020   31.0660 H   0  0  0  0  0  0  0  0  0  0  0  0
   34.9570   20.7950   32.0500 C   0  0  0  0  0  0  0  0  0  0  0  0
   34.0490   20.4110   32.4720 H   0  0  0  0  0  0  0  0  0  0  0  0
   35.3540   22.0990   32.2560 C   0  0  0  0  0  3  0  0  0  0  0  0
   37.9630   23.3420   34.4360 O   0  0  0  0  0  0  0  0  0  0  0  0
   38.4000   23.9380   35.6000 C   0  0  0  0  0  0  0  0  0  0  0  0
   37.5230   24.8720   36.0750 F   0  0  0  0  0  0  0  0  0  0  0  0
   38.5240   22.9380   36.5360 F   0  0  0  0  0  0  0  0  0  0  0  0
   39.6470   24.5250   35.4050 F   0  0  0  0  0  0  0  0  0  0  0  0
  2  1  1  0  0  0  0
  3  2  1  0  0  0  0
  3 15  1  0  0  0  0
  4  3  2  0  0  0  0
  5  6  2  0  0  0  0
  5  4  1  0  0  0  0
  6  7  1  0  0  0  0
  7 20  1  0  0  0  0
  7  2  2  0  0  0  0
  8  4  1  0  0  0  0
  9  5  1  0  0  0  0
 10  6  1  0  0  0  0
 11 17  1  0  0  0  0
 11 12  1  0  0  0  0
 12 18  1  0  0  0  0
 13 12  2  0  0  0  0
 13 19  1  0  0  0  0
 14 13  1  0  0  0  0
 15 16  1  0  0  0  0
 15 14  2  0  0  0  0
 16 11  2  0  0  0  0
 22 21  2  6  0  0  0
 22 20  1  0  0  0  0
 22 33  1  0  0  0  0
 23 22  1  0  0  0  0
 24 23  1  0  0  0  0
 24 32  1  0  0  0  0
 25 24  2  0  0  0  0
 26 25  1  0  0  0  0
 27 25  1  0  0  0  0
 27 28  2  0  0  0  0
 28 30  1  0  0  0  0
 29 28  1  0  0  0  0
 30 32  2  0  0  0  0
 30 31  1  0  0  0  0
 33 34  1  0  0  0  0
 34 35  1  0  0  0  0
 34 36  1  0  0  0  0
 37 34  1  0  0  0  0
M  END
>  <minimizedAffinity>
-5.69413948

$$$$

 OpenBabel03272501033D

 37 39  0  0  0  0  0  0  0  0999 V2000
   35.9640   28.2060   34.8940 F   0  0  0  0  0  0  0  0  0  0  0  0
   35.8720   28.9110   33.7380 C   0  0  0  0  0  0  0  0  0  0  0  0
   35.3160   30.1750   33.6520 C   0  0  0  0  0  0  0  0  0  0  0  0
   35.2650   30.8110   32.4420 C   0  0  0  0  0  0  0  0  0  0  0  0
   35.7520   30.2480   31.2660 C   0  0  0  0  0  0  0  0  0  0  0  0
   36.3110   28.9700   31.3670 C   0  0  0  0  0  0  0  0  0  0  0  0
   36.3740   28.3030   32.5870 C   0  0  0  0  0  0  0  0  0  0  0  0
   34.8280   31.7960   32.3930 H   0  0  0  0  0  0  0  0  0  0  0  0
   35.7090   30.7540   30.3220 H   0  0  0  0  0  0  0  0  0  0  0  0
   36.6820   28.5560   30.4390 H   0  0  0  0  0  0  0  0  0  0  0  0
   32.9760   31.0950   36.3070 C   0  0  0  0  0  0  0  0  0  0  0  0
   33.7130   31.8960   37.1590 C   0  0  0  0  0  0  0  0  0  0  0  0
   35.0390   32.1220   36.8100 C   0  0  0  0  0  0  0  0  0  0  0  0
   35.5570   31.5680   35.6810 N   0  0  0  0  0  0  0  0  0  0  0  0
   34.8000   30.7860   34.8690 C   0  0  0  0  0  0  0  0  0  0  0  0
   33.5020   30.5510   35.1890 N   0  0  0  0  0  0  0  0  0  0  0  0
   31.9330   30.8660   36.5010 H   0  0  0  0  0  0  0  0  0  0  0  0
   33.2140   32.2920   38.0320 H   0  0  0  0  0  0  0  0  0  0  0  0
   35.6120   32.7430   37.4700 H   0  0  0  0  0  0  0  0  0  0  0  0
   36.9210   27.0690   32.6530 O   0  0  0  0  0  0  0  0  0  0  0  0
   39.3710   27.4000   31.8710 O   0  0  0  0  0  0  0  0  0  0  0  0
   38.5320   26.6330   32.8900 P   0  0  2  0  0  0  0  0  0  0  0  0
   38.8680   25.0030   32.6760 O   0  0  0  0  0  0  0  0  0  0  0  0
   37.8620   24.0920   32.4240 C   0  0  0  0  0  0  0  0  0  0  0  0
   37.7360   22.9660   33.2460 C   0  0  0  0  0  0  0  0  0  0  0  0
   38.3970   22.7720   34.0790 H   0  0  0  0  0  0  0  0  0  0  0  0
   36.7250   22.0310   33.0120 C   0  0  0  0  0  3  0  0  0  0  0  0
   35.8560   22.2480   31.9490 C   0  0  0  0  0  0  0  0  0  0  0  0
   35.0720   21.5130   31.7740 H   0  0  0  0  0  0  0  0  0  0  0  0
   35.9360   23.3440   31.1070 C   0  0  0  0  0  0  0  0  0  0  0  0
   35.2650   23.5090   30.2870 H   0  0  0  0  0  0  0  0  0  0  0  0
   36.9560   24.2250   31.3950 C   0  0  0  0  0  3  0  0  0  0  0  0
   39.0680   27.1300   34.4280 O   0  0  0  0  0  0  0  0  0  0  0  0
   38.5970   26.3230   35.4420 C   0  0  0  0  0  0  0  0  0  0  0  0
   37.3840   25.7640   35.1490 F   0  0  0  0  0  0  0  0  0  0  0  0
   39.5160   25.3130   35.6050 F   0  0  0  0  0  0  0  0  0  0  0  0
   38.5050   27.0420   36.6300 F   0  0  0  0  0  0  0  0  0  0  0  0
  2  1  1  0  0  0  0
  3  2  1  0  0  0  0
  3 15  1  0  0  0  0
  4  3  2  0  0  0  0
  5  6  2  0  0  0  0
  5  4  1  0  0  0  0
  6  7  1  0  0  0  0
  7 20  1  0  0  0  0
  7  2  2  0  0  0  0
  8  4  1  0  0  0  0
  9  5  1  0  0  0  0
 10  6  1  0  0  0  0
 11 17  1  0  0  0  0
 11 12  1  0  0  0  0
 12 18  1  0  0  0  0
 13 12  2  0  0  0  0
 13 19  1  0  0  0  0
 14 13  1  0  0  0  0
 15 16  1  0  0  0  0
 15 14  2  0  0  0  0
 16 11  2  0  0  0  0
 20 22  1  0  0  0  0
 22 21  2  6  0  0  0
 22 33  1  0  0  0  0
 23 22  1  0  0  0  0
 24 23  1  0  0  0  0
 24 25  1  0  0  0  0
 25 26  1  0  0  0  0
 27 25  2  0  0  0  0
 28 27  1  0  0  0  0
 29 28  1  0  0  0  0
 30 32  1  0  0  0  0
 30 28  2  0  0  0  0
 31 30  1  0  0  0  0
 32 24  2  0  0  0  0
 33 34  1  0  0  0  0
 34 36  1  0  0  0  0
 34 37  1  0  0  0  0
 35 34  1  0  0  0  0
M  END
>  <minimizedAffinity>
-5.67967272

$$$$

 OpenBabel03272501033D

 37 39  0  0  0  0  0  0  0  0999 V2000
   38.0020   23.5210   33.9430 F   0  0  0  0  0  0  0  0  0  0  0  0
   38.2210   24.7930   34.3630 C   0  0  0  0  0  0  0  0  0  0  0  0
   39.1730   25.1360   35.3080 C   0  0  0  0  0  0  0  0  0  0  0  0
   39.3230   26.4460   35.6720 C   0  0  0  0  0  0  0  0  0  0  0  0
   38.5580   27.4770   35.1350 C   0  0  0  0  0  0  0  0  0  0  0  0
   37.6000   27.1160   34.1820 C   0  0  0  0  0  0  0  0  0  0  0  0
   37.4280   25.7900   33.7960 C   0  0  0  0  0  0  0  0  0  0  0  0
   40.0690   26.6960   36.4090 H   0  0  0  0  0  0  0  0  0  0  0  0
   38.6830   28.5010   35.4260 H   0  0  0  0  0  0  0  0  0  0  0  0
   37.0190   27.9360   33.7820 H   0  0  0  0  0  0  0  0  0  0  0  0
   40.1840   22.3890   37.4990 C   0  0  0  0  0  0  0  0  0  0  0  0
   41.4470   22.0370   37.0570 C   0  0  0  0  0  0  0  0  0  0  0  0
   41.9560   22.7620   35.9860 C   0  0  0  0  0  0  0  0  0  0  0  0
   41.2250   23.7590   35.4210 N   0  0  0  0  0  0  0  0  0  0  0  0
   39.9880   24.0740   35.8840 C   0  0  0  0  0  0  0  0  0  0  0  0
   39.4690   23.3820   36.9300 N   0  0  0  0  0  0  0  0  0  0  0  0
   39.7100   21.8780   38.3300 H   0  0  0  0  0  0  0  0  0  0  0  0
   41.9510   21.2300   37.5700 H   0  0  0  0  0  0  0  0  0  0  0  0
   42.9340   22.4890   35.6420 H   0  0  0  0  0  0  0  0  0  0  0  0
   36.4940   25.4730   32.8720 O   0  0  0  0  0  0  0  0  0  0  0  0
   35.2560   25.7290   30.6090 O   0  0  0  0  0  0  0  0  0  0  0  0
   36.6340   25.4310   31.1930 P   0  0  2  0  0  0  0  0  0  0  0  0
   37.1290   23.9590   30.5560 O   0  0  0  0  0  0  0  0  0  0  0  0
   36.7790   22.7660   31.1550 C   0  0  0  0  0  0  0  0  0  0  0  0
   37.7050   21.7180   31.1880 C   0  0  0  0  0  0  0  0  0  0  0  0
   38.6950   21.7980   30.7610 H   0  0  0  0  0  0  0  0  0  0  0  0
   37.3740   20.5010   31.7900 C   0  0  0  0  0  3  0  0  0  0  0  0
   36.1090   20.3630   32.3490 C   0  0  0  0  0  0  0  0  0  0  0  0
   35.8600   19.4110   32.8150 H   0  0  0  0  0  0  0  0  0  0  0  0
   35.1560   21.3670   32.3440 C   0  0  0  0  0  0  0  0  0  0  0  0
   34.1810   21.2580   32.7760 H   0  0  0  0  0  0  0  0  0  0  0  0
   35.5490   22.5390   31.7350 C   0  0  0  0  0  3  0  0  0  0  0  0
   37.6680   26.6670   30.6450 O   0  0  0  0  0  0  0  0  0  0  0  0
   37.0640   27.9060   30.6480 C   0  0  0  0  0  0  0  0  0  0  0  0
   35.9640   27.9540   31.4590 F   0  0  0  0  0  0  0  0  0  0  0  0
   37.9950   28.8010   31.1210 F   0  0  0  0  0  0  0  0  0  0  0  0
   36.7060   28.2740   29.3540 F   0  0  0  0  0  0  0  0  0  0  0  0
  1  2  1  0  0  0  0
  2  3  1  0  0  0  0
  3  4  2  0  0  0  0
  3 15  1  0  0  0  0
  4  8  1  0  0  0  0
  5  9  1  0  0  0  0
  5  4  1  0  0  0  0
  6  5  2  0  0  0  0
  7  6  1  0  0  0  0
  7  2  2  0  0  0  0
 10  6  1  0  0  0  0
 11 17  1  0  0  0  0
 12 11  1  0  0  0  0
 12 18  1  0  0  0  0
 13 12  2  0  0  0  0
 14 15  2  0  0  0  0
 14 13  1  0  0  0  0
 15 16  1  0  0  0  0
 16 11  2  0  0  0  0
 19 13  1  0  0  0  0
 20  7  1  0  0  0  0
 22 21  2  6  0  0  0
 22 20  1  0  0  0  0
 23 24  1  0  0  0  0
 23 22  1  0  0  0  0
 24 25  2  0  0  0  0
 24 32  1  0  0  0  0
 25 27  1  0  0  0  0
 26 25  1  0  0  0  0
 27 28  2  0  0  0  0
 28 29  1  0  0  0  0
 30 28  1  0  0  0  0
 30 31  1  0  0  0  0
 32 30  2  0  0  0  0
 33 34  1  0  0  0  0
 33 22  1  0  0  0  0
 34 36  1  0  0  0  0
 34 35  1  0  0  0  0
 37 34  1  0  0  0  0
M  END
>  <minimizedAffinity>
-5.62971973

$$$$

 OpenBabel03272501033D

 37 39  0  0  0  0  0  0  0  0999 V2000
   38.4430   22.8450   32.8710 F   0  0  0  0  0  0  0  0  0  0  0  0
   37.4680   23.5770   32.2750 C   0  0  0  0  0  0  0  0  0  0  0  0
   36.2540   23.0510   31.8680 C   0  0  0  0  0  0  0  0  0  0  0  0
   35.3290   23.8650   31.2740 C   0  0  0  0  0  0  0  0  0  0  0  0
   35.5430   25.2220   31.0500 C   0  0  0  0  0  0  0  0  0  0  0  0
   36.7730   25.7400   31.4660 C   0  0  0  0  0  0  0  0  0  0  0  0
   37.7300   24.9320   32.0730 C   0  0  0  0  0  0  0  0  0  0  0  0
   34.3890   23.4390   30.9630 H   0  0  0  0  0  0  0  0  0  0  0  0
   34.8120   25.8520   30.5840 H   0  0  0  0  0  0  0  0  0  0  0  0
   36.9130   26.7960   31.2810 H   0  0  0  0  0  0  0  0  0  0  0  0
   35.8700   19.4810   31.1750 C   0  0  0  0  0  0  0  0  0  0  0  0
   35.5560   18.9200   32.3990 C   0  0  0  0  0  0  0  0  0  0  0  0
   35.4750   19.7900   33.4800 C   0  0  0  0  0  0  0  0  0  0  0  0
   35.7000   21.1200   33.3110 N   0  0  0  0  0  0  0  0  0  0  0  0
   36.0070   21.6330   32.0910 C   0  0  0  0  0  0  0  0  0  0  0  0
   36.0910   20.8040   31.0200 N   0  0  0  0  0  0  0  0  0  0  0  0
   35.9530   18.8770   30.2770 H   0  0  0  0  0  0  0  0  0  0  0  0
   35.3940   17.8520   32.4350 H   0  0  0  0  0  0  0  0  0  0  0  0
   35.2320   19.3560   34.4300 H   0  0  0  0  0  0  0  0  0  0  0  0
   38.9100   25.4620   32.4640 O   0  0  0  0  0  0  0  0  0  0  0  0
   40.4800   27.3960   33.1810 O   0  0  0  0  0  0  0  0  0  0  0  0
   39.2050   26.6700   33.6010 P   0  0  2  0  0  0  0  0  0  0  0  0
   39.4440   26.1280   35.1720 O   0  0  0  0  0  0  0  0  0  0  0  0
   39.5030   24.7800   35.4610 C   0  0  0  0  0  0  0  0  0  0  0  0
   40.6940   24.0810   35.2340 C   0  0  0  0  0  0  0  0  0  0  0  0
   41.5820   24.5510   34.8370 H   0  0  0  0  0  0  0  0  0  0  0  0
   40.7780   22.7160   35.5210 C   0  0  0  0  0  3  0  0  0  0  0  0
   39.6540   22.0770   36.0330 C   0  0  0  0  0  0  0  0  0  0  0  0
   39.7290   21.0140   36.2530 H   0  0  0  0  0  0  0  0  0  0  0  0
   38.4530   22.7210   36.2770 C   0  0  0  0  0  0  0  0  0  0  0  0
   37.5880   22.2260   36.6720 H   0  0  0  0  0  0  0  0  0  0  0  0
   38.4410   24.0650   35.9720 C   0  0  0  0  0  3  0  0  0  0  0  0
   37.9600   27.8310   33.5810 O   0  0  0  0  0  0  0  0  0  0  0  0
   37.0800   27.6850   34.6320 C   0  0  0  0  0  0  0  0  0  0  0  0
   36.6690   26.3920   34.7990 F   0  0  0  0  0  0  0  0  0  0  0  0
   37.7460   28.0830   35.7670 F   0  0  0  0  0  0  0  0  0  0  0  0
   35.9700   28.5070   34.4530 F   0  0  0  0  0  0  0  0  0  0  0  0
  2  1  1  0  0  0  0
  3 15  1  0  0  0  0
  3  2  2  0  0  0  0
  4  3  1  0  0  0  0
  5  4  2  0  0  0  0
  5  6  1  0  0  0  0
  6  7  2  0  0  0  0
  7  2  1  0  0  0  0
  7 20  1  0  0  0  0
  8  4  1  0  0  0  0
  9  5  1  0  0  0  0
 10  6  1  0  0  0  0
 11 12  1  0  0  0  0
 12 18  1  0  0  0  0
 12 13  2  0  0  0  0
 13 19  1  0  0  0  0
 14 13  1  0  0  0  0
 15 14  2  0  0  0  0
 16 11  2  0  0  0  0
 16 15  1  0  0  0  0
 17 11  1  0  0  0  0
 20 22  1  0  0  0  0
 22 21  2  6  0  0  0
 22 23  1  0  0  0  0
 23 24  1  0  0  0  0
 24 32  1  0  0  0  0
 25 24  2  0  0  0  0
 25 27  1  0  0  0  0
 26 25  1  0  0  0  0
 27 28  2  0  0  0  0
 28 29  1  0  0  0  0
 28 30  1  0  0  0  0
 30 31  1  0  0  0  0
 32 30  2  0  0  0  0
 33 22  1  0  0  0  0
 33 34  1  0  0  0  0
 34 35  1  0  0  0  0
 34 36  1  0  0  0  0
 37 34  1  0  0  0  0
M  END
>  <minimizedAffinity>
-5.60650778

$$$$

 OpenBabel03272501033D

 37 39  0  0  0  0  0  0  0  0999 V2000
   37.3330   27.8280   35.6520 F   0  0  0  0  0  0  0  0  0  0  0  0
   37.2560   27.8420   34.2970 C   0  0  0  0  0  0  0  0  0  0  0  0
   36.3350   28.5930   33.5880 C   0  0  0  0  0  0  0  0  0  0  0  0
   36.3300   28.5440   32.2210 C   0  0  0  0  0  0  0  0  0  0  0  0
   37.2180   27.7640   31.4850 C   0  0  0  0  0  0  0  0  0  0  0  0
   38.1430   27.0100   32.2140 C   0  0  0  0  0  0  0  0  0  0  0  0
   38.1670   27.0440   33.6050 C   0  0  0  0  0  0  0  0  0  0  0  0
   35.6060   29.1360   31.6840 H   0  0  0  0  0  0  0  0  0  0  0  0
   37.2070   27.7320   30.4140 H   0  0  0  0  0  0  0  0  0  0  0  0
   38.8200   26.4140   31.6180 H   0  0  0  0  0  0  0  0  0  0  0  0
   35.0620   31.2890   35.7060 C   0  0  0  0  0  0  0  0  0  0  0  0
   33.7020   31.0540   35.7880 C   0  0  0  0  0  0  0  0  0  0  0  0
   33.2170   29.9480   35.1010 C   0  0  0  0  0  0  0  0  0  0  0  0
   34.0640   29.1550   34.3920 N   0  0  0  0  0  0  0  0  0  0  0  0
   35.3950   29.4180   34.3360 C   0  0  0  0  0  0  0  0  0  0  0  0
   35.8920   30.4930   34.9990 N   0  0  0  0  0  0  0  0  0  0  0  0
   35.5260   32.1290   36.2120 H   0  0  0  0  0  0  0  0  0  0  0  0
   33.1090   31.7410   36.3760 H   0  0  0  0  0  0  0  0  0  0  0  0
   32.1630   29.7660   35.1630 H   0  0  0  0  0  0  0  0  0  0  0  0
   39.0730   26.3030   34.2820 O   0  0  0  0  0  0  0  0  0  0  0  0
   40.2990   24.3350   35.4420 O   0  0  0  0  0  0  0  0  0  0  0  0
   39.0220   24.6640   34.6730 P   0  0  2  0  0  0  0  0  0  0  0  0
   38.9580   23.6200   33.3600 O   0  0  0  0  0  0  0  0  0  0  0  0
   37.7610   23.0800   32.9340 C   0  0  0  0  0  0  0  0  0  0  0  0
   37.3890   21.8050   33.3750 C   0  0  0  0  0  0  0  0  0  0  0  0
   38.0010   21.2140   34.0410 H   0  0  0  0  0  0  0  0  0  0  0  0
   36.1810   21.2380   32.9580 C   0  0  0  0  0  3  0  0  0  0  0  0
   35.3690   21.9690   32.1000 C   0  0  0  0  0  0  0  0  0  0  0  0
   34.4300   21.5190   31.7810 H   0  0  0  0  0  0  0  0  0  0  0  0
   35.6880   23.2340   31.6360 C   0  0  0  0  0  0  0  0  0  0  0  0
   35.0590   23.7960   30.9740 H   0  0  0  0  0  0  0  0  0  0  0  0
   36.8920   23.7320   32.0860 C   0  0  0  0  0  3  0  0  0  0  0  0
   37.7270   24.3380   35.7270 O   0  0  0  0  0  0  0  0  0  0  0  0
   38.0540   23.4250   36.7070 C   0  0  0  0  0  0  0  0  0  0  0  0
   38.7140   23.9960   37.7590 F   0  0  0  0  0  0  0  0  0  0  0  0
   36.8720   22.8960   37.1680 F   0  0  0  0  0  0  0  0  0  0  0  0
   38.8270   22.3970   36.1730 F   0  0  0  0  0  0  0  0  0  0  0  0
  2  1  1  0  0  0  0
  3  2  2  0  0  0  0
  3 15  1  0  0  0  0
  4  3  1  0  0  0  0
  5  6  1  0  0  0  0
  5  4  2  0  0  0  0
  6  7  2  0  0  0  0
  7 20  1  0  0  0  0
  7  2  1  0  0  0  0
  8  4  1  0  0  0  0
  9  5  1  0  0  0  0
 10  6  1  0  0  0  0
 11 12  1  0  0  0  0
 11 17  1  0  0  0  0
 12 18  1  0  0  0  0
 13 19  1  0  0  0  0
 13 12  2  0  0  0  0
 14 13  1  0  0  0  0
 15 14  2  0  0  0  0
 15 16  1  0  0  0  0
 16 11  2  0  0  0  0
 20 22  1  0  0  0  0
 22 21  2  1  0  0  0
 22 33  1  0  0  0  0
 23 22  1  0  0  0  0
 24 23  1  0  0  0  0
 24 25  1  0  0  0  0
 25 26  1  0  0  0  0
 27 25  2  0  0  0  0
 28 27  1  0  0  0  0
 29 28  1  0  0  0  0
 30 32  1  0  0  0  0
 30 28  2  0  0  0  0
 31 30  1  0  0  0  0
 32 24  2  0  0  0  0
 33 34  1  0  0  0  0
 34 36  1  0  0  0  0
 34 35  1  0  0  0  0
 37 34  1  0  0  0  0
M  END
>  <minimizedAffinity>
-5.59405518

$$$$

 OpenBabel03272501033D

 37 39  0  0  0  0  0  0  0  0999 V2000
   35.7940   27.6240   34.8530 F   0  0  0  0  0  0  0  0  0  0  0  0
   36.0190   28.2610   33.6760 C   0  0  0  0  0  0  0  0  0  0  0  0
   35.7900   29.6120   33.4780 C   0  0  0  0  0  0  0  0  0  0  0  0
   36.0450   30.1690   32.2550 C   0  0  0  0  0  0  0  0  0  0  0  0
   36.5330   29.4410   31.1740 C   0  0  0  0  0  0  0  0  0  0  0  0
   36.7590   28.0770   31.3880 C   0  0  0  0  0  0  0  0  0  0  0  0
   36.5070   27.4870   32.6230 C   0  0  0  0  0  0  0  0  0  0  0  0
   35.8620   31.2230   32.1180 H   0  0  0  0  0  0  0  0  0  0  0  0
   36.7300   29.8860   30.2190 H   0  0  0  0  0  0  0  0  0  0  0  0
   37.1370   27.5350   30.5320 H   0  0  0  0  0  0  0  0  0  0  0  0
   33.4330   31.0180   35.8940 C   0  0  0  0  0  0  0  0  0  0  0  0
   34.2040   31.8430   36.6920 C   0  0  0  0  0  0  0  0  0  0  0  0
   35.5580   31.9150   36.3900 C   0  0  0  0  0  0  0  0  0  0  0  0
   36.0700   31.1970   35.3560 N   0  0  0  0  0  0  0  0  0  0  0  0
   35.2810   30.3970   34.5950 C   0  0  0  0  0  0  0  0  0  0  0  0
   33.9540   30.3100   34.8700 N   0  0  0  0  0  0  0  0  0  0  0  0
   32.3670   30.9020   36.0580 H   0  0  0  0  0  0  0  0  0  0  0  0
   33.7060   32.3750   37.4920 H   0  0  0  0  0  0  0  0  0  0  0  0
   36.1560   32.5550   37.0090 H   0  0  0  0  0  0  0  0  0  0  0  0
   36.7360   26.1670   32.7980 O   0  0  0  0  0  0  0  0  0  0  0  0
   37.8740   23.8960   33.3150 O   0  0  0  0  0  0  0  0  0  0  0  0
   38.0990   25.4010   33.4280 P   0  0  2  0  0  0  0  0  0  0  0  0
   38.4180   25.7290   35.0430 O   0  0  0  0  0  0  0  0  0  0  0  0
   38.8850   24.7480   35.8940 C   0  0  0  0  0  0  0  0  0  0  0  0
   38.1280   24.3990   37.0180 C   0  0  0  0  0  0  0  0  0  0  0  0
   37.1840   24.8670   37.2570 H   0  0  0  0  0  0  0  0  0  0  0  0
   38.5790   23.4070   37.8940 C   0  0  0  0  0  3  0  0  0  0  0  0
   39.7910   22.7840   37.6180 C   0  0  0  0  0  0  0  0  0  0  0  0
   40.1340   22.0130   38.3060 H   0  0  0  0  0  0  0  0  0  0  0  0
   40.5770   23.0900   36.5210 C   0  0  0  0  0  0  0  0  0  0  0  0
   41.5110   22.6070   36.3110 H   0  0  0  0  0  0  0  0  0  0  0  0
   40.0720   24.0760   35.7010 C   0  0  0  0  0  3  0  0  0  0  0  0
   39.4740   25.7560   32.4900 O   0  0  0  0  0  0  0  0  0  0  0  0
   40.1430   26.8780   32.9300 C   0  0  0  0  0  0  0  0  0  0  0  0
   39.3710   27.6700   33.7340 F   0  0  0  0  0  0  0  0  0  0  0  0
   41.2240   26.4380   33.6570 F   0  0  0  0  0  0  0  0  0  0  0  0
   40.6050   27.6230   31.8470 F   0  0  0  0  0  0  0  0  0  0  0  0
  2  1  1  0  0  0  0
  3  2  1  0  0  0  0
  3 15  1  0  0  0  0
  4  3  2  0  0  0  0
  5  6  2  0  0  0  0
  5  4  1  0  0  0  0
  6  7  1  0  0  0  0
  7 20  1  0  0  0  0
  7  2  2  0  0  0  0
  8  4  1  0  0  0  0
  9  5  1  0  0  0  0
 10  6  1  0  0  0  0
 11 17  1  0  0  0  0
 11 12  1  0  0  0  0
 12 18  1  0  0  0  0
 13 12  2  0  0  0  0
 13 19  1  0  0  0  0
 14 13  1  0  0  0  0
 15 16  1  0  0  0  0
 15 14  2  0  0  0  0
 16 11  2  0  0  0  0
 20 22  1  0  0  0  0
 22 21  2  6  0  0  0
 22 23  1  0  0  0  0
 23 24  1  0  0  0  0
 24 25  1  0  0  0  0
 25 26  1  0  0  0  0
 25 27  2  0  0  0  0
 28 27  1  0  0  0  0
 28 29  1  0  0  0  0
 30 28  2  0  0  0  0
 31 30  1  0  0  0  0
 32 24  2  0  0  0  0
 32 30  1  0  0  0  0
 33 34  1  0  0  0  0
 33 22  1  0  0  0  0
 34 36  1  0  0  0  0
 34 35  1  0  0  0  0
 37 34  1  0  0  0  0
M  END
>  <minimizedAffinity>
-5.48886108

$$$$
