
 OpenBabel03272510143D

 41 44  0  0  0  0  0  0  0  0999 V2000
   36.2800   28.0050   31.8350 C   0  0  0  0  0  0  0  0  0  0  0  0
   36.5720   29.0620   31.0070 C   0  0  0  0  0  0  0  0  0  0  0  0
   35.5760   30.0180   31.1910 C   0  0  0  0  0  0  0  0  0  0  0  0
   34.7280   29.5380   32.0960 N   0  0  0  0  0  0  0  0  0  0  0  0
   35.1560   28.3770   32.4530 N   0  0  0  0  0  0  0  0  0  0  0  0
   37.3500   29.2990   30.2940 H   0  0  0  0  0  0  0  0  0  0  0  0
   35.4300   31.0010   30.7300 H   0  0  0  0  0  0  0  0  0  0  0  0
   33.5310   30.1540   32.6030 C   0  0  0  0  0  0  0  0  0  0  0  0
   32.6620   29.8900   31.9810 H   0  0  0  0  0  0  0  0  0  0  0  0
   33.6450   31.2670   32.4790 H   0  0  0  0  0  0  0  0  0  0  0  0
   33.3580   29.8070   34.0440 C   0  0  0  0  0  0  0  0  0  0  0  0
   32.2330   29.7980   34.2130 H   0  0  0  0  0  0  0  0  0  0  0  0
   33.6100   28.7110   34.2300 H   0  0  0  0  0  0  0  0  0  0  0  0
   34.0300   30.6620   35.0270 C   0  0  0  0  0  0  0  0  0  0  0  0
   35.3030   31.1760   35.1320 C   0  0  0  0  0  0  0  0  0  0  0  0
   35.9660   30.8410   34.3470 H   0  0  0  0  0  0  0  0  0  0  0  0
   35.6730   32.0070   36.1630 C   0  0  0  0  0  3  0  0  0  0  0  0
   34.7960   32.3790   37.1570 C   0  0  0  0  0  0  0  0  0  0  0  0
   35.2300   33.0350   37.8990 H   0  0  0  0  0  0  0  0  0  0  0  0
   33.5120   31.8810   37.0830 C   0  0  0  0  0  0  0  0  0  0  0  0
   32.8540   32.1930   37.8790 H   0  0  0  0  0  0  0  0  0  0  0  0
   33.1450   31.0440   36.0400 C   0  0  0  0  0  3  0  0  0  0  0  0
   37.1730   26.9540   31.7810 O   0  0  0  0  0  0  0  0  0  0  0  0
   36.2310   22.8580   31.9540 C   0  0  0  0  0  0  0  0  0  0  0  0
   35.5130   23.7170   31.1720 C   0  0  0  0  0  0  0  0  0  0  0  0
   35.7620   25.0670   31.0660 C   0  0  0  0  0  0  0  0  0  0  0  0
   36.7810   25.6310   31.7650 C   0  0  0  0  0  0  0  0  0  0  0  0
   37.5230   24.7650   32.5670 C   0  0  0  0  0  0  0  0  0  0  0  0
   37.2550   23.4420   32.6520 N   0  0  0  0  0  0  0  0  0  0  0  0
   34.6850   23.3350   30.5880 H   0  0  0  0  0  0  0  0  0  0  0  0
   35.1820   25.7360   30.4420 H   0  0  0  0  0  0  0  0  0  0  0  0
   38.3680   25.0510   33.1870 H   0  0  0  0  0  0  0  0  0  0  0  0
   36.0480   20.5680   30.9920 C   0  0  0  0  0  0  0  0  0  0  0  0
   35.9860   21.4540   32.0790 C   0  0  0  0  0  0  0  0  0  0  0  0
   35.6710   20.9170   33.3000 C   0  0  0  0  0  0  0  0  0  0  0  0
   35.4350   19.5740   33.4180 N   0  0  0  0  0  0  0  0  0  0  0  0
   35.5100   18.7590   32.3220 C   0  0  0  0  0  0  0  0  0  0  0  0
   35.8170   19.2460   31.0990 N   0  0  0  0  0  0  0  0  0  0  0  0
   36.2910   20.9440   30.0100 H   0  0  0  0  0  0  0  0  0  0  0  0
   35.6000   21.5290   34.2030 H   0  0  0  0  0  0  0  0  0  0  0  0
   35.3250   17.7020   32.4110 H   0  0  0  0  0  0  0  0  0  0  0  0
  1  5  2  0  0  0  0
  2  3  2  0  0  0  0
  2  1  1  0  0  0  0
  3  4  1  0  0  0  0
  4  5  1  0  0  0  0
  4  8  1  0  0  0  0
  6  2  1  0  0  0  0
  7  3  1  0  0  0  0
  8 11  1  0  0  0  0
  9  8  1  0  0  0  0
 10  8  1  0  0  0  0
 11 12  1  0  0  0  0
 11 13  1  0  0  0  0
 11 14  1  0  0  0  0
 14 15  2  0  0  0  0
 14 22  1  0  0  0  0
 15 17  1  0  0  0  0
 16 15  1  0  0  0  0
 17 18  2  0  0  0  0
 18 19  1  0  0  0  0
 20 18  1  0  0  0  0
 20 21  1  0  0  0  0
 22 20  2  0  0  0  0
 23  1  1  0  0  0  0
 24 34  1  0  0  0  0
 24 29  1  0  0  0  0
 25 24  2  0  0  0  0
 26 25  1  0  0  0  0
 26 27  2  0  0  0  0
 27 23  1  0  0  0  0
 27 28  1  0  0  0  0
 28 29  2  0  0  0  0
 28 32  1  0  0  0  0
 30 25  1  0  0  0  0
 31 26  1  0  0  0  0
 33 38  2  0  0  0  0
 33 34  1  0  0  0  0
 34 35  2  0  0  0  0
 35 36  1  0  0  0  0
 35 40  1  0  0  0  0
 37 41  1  0  0  0  0
 37 36  2  0  0  0  0
 38 37  1  0  0  0  0
 39 33  1  0  0  0  0
M  END
>  <minimizedAffinity>
-6.03167534

$$$$

 OpenBabel03272510143D

 41 44  0  0  0  0  0  0  0  0999 V2000
   36.8720   24.9060   32.0550 C   0  0  0  0  0  0  0  0  0  0  0  0
   35.9820   24.0730   31.4230 C   0  0  0  0  0  0  0  0  0  0  0  0
   36.1970   22.7880   31.9170 C   0  0  0  0  0  0  0  0  0  0  0  0
   37.1800   22.8670   32.8090 N   0  0  0  0  0  0  0  0  0  0  0  0
   37.5520   24.0980   32.8720 N   0  0  0  0  0  0  0  0  0  0  0  0
   35.2060   24.1850   30.6780 H   0  0  0  0  0  0  0  0  0  0  0  0
   35.7070   21.8370   31.6820 H   0  0  0  0  0  0  0  0  0  0  0  0
   37.7670   21.8000   33.5760 C   0  0  0  0  0  0  0  0  0  0  0  0
   37.9410   20.9150   32.9440 H   0  0  0  0  0  0  0  0  0  0  0  0
   37.0030   21.4670   34.3330 H   0  0  0  0  0  0  0  0  0  0  0  0
   38.9990   22.2920   34.2610 C   0  0  0  0  0  0  0  0  0  0  0  0
   39.7570   21.4520   34.1450 H   0  0  0  0  0  0  0  0  0  0  0  0
   39.4990   23.1160   33.6540 H   0  0  0  0  0  0  0  0  0  0  0  0
   38.8700   22.6950   35.6650 C   0  0  0  0  0  0  0  0  0  0  0  0
   37.8650   23.2800   36.4020 C   0  0  0  0  0  0  0  0  0  0  0  0
   36.9990   23.5430   35.8110 H   0  0  0  0  0  0  0  0  0  0  0  0
   37.9920   23.5210   37.7490 C   0  0  0  0  0  3  0  0  0  0  0  0
   39.1310   23.1940   38.4500 C   0  0  0  0  0  0  0  0  0  0  0  0
   39.0840   23.4450   39.5010 H   0  0  0  0  0  0  0  0  0  0  0  0
   40.1590   22.6070   37.7420 C   0  0  0  0  0  0  0  0  0  0  0  0
   41.0350   22.3660   38.3240 H   0  0  0  0  0  0  0  0  0  0  0  0
   40.0240   22.3660   36.3830 C   0  0  0  0  0  3  0  0  0  0  0  0
   36.7990   26.2340   31.6810 O   0  0  0  0  0  0  0  0  0  0  0  0
   35.5830   29.4510   34.1000 C   0  0  0  0  0  0  0  0  0  0  0  0
   36.4590   28.5100   34.5620 C   0  0  0  0  0  0  0  0  0  0  0  0
   36.9010   27.4320   33.8290 C   0  0  0  0  0  0  0  0  0  0  0  0
   36.4670   27.2470   32.5560 C   0  0  0  0  0  0  0  0  0  0  0  0
   35.5720   28.2020   32.0720 C   0  0  0  0  0  0  0  0  0  0  0  0
   35.1550   29.2520   32.8150 N   0  0  0  0  0  0  0  0  0  0  0  0
   36.8450   28.5960   35.5700 H   0  0  0  0  0  0  0  0  0  0  0  0
   37.5950   26.6930   34.2090 H   0  0  0  0  0  0  0  0  0  0  0  0
   35.1310   28.2030   31.0780 H   0  0  0  0  0  0  0  0  0  0  0  0
   33.8030   31.0730   34.7390 C   0  0  0  0  0  0  0  0  0  0  0  0
   35.1120   30.5770   34.8480 C   0  0  0  0  0  0  0  0  0  0  0  0
   35.9500   31.2240   35.7180 C   0  0  0  0  0  0  0  0  0  0  0  0
   35.4980   32.3020   36.4310 N   0  0  0  0  0  0  0  0  0  0  0  0
   34.2110   32.7410   36.2830 C   0  0  0  0  0  0  0  0  0  0  0  0
   33.3500   32.1320   35.4360 N   0  0  0  0  0  0  0  0  0  0  0  0
   33.1060   30.5970   34.0660 H   0  0  0  0  0  0  0  0  0  0  0  0
   36.9860   30.9100   35.8700 H   0  0  0  0  0  0  0  0  0  0  0  0
   33.8520   33.5880   36.8420 H   0  0  0  0  0  0  0  0  0  0  0  0
  1  5  2  0  0  0  0
  2  3  2  0  0  0  0
  2  1  1  0  0  0  0
  3  4  1  0  0  0  0
  4  5  1  0  0  0  0
  4  8  1  0  0  0  0
  6  2  1  0  0  0  0
  7  3  1  0  0  0  0
  8 11  1  0  0  0  0
  8 10  1  0  0  0  0
  9  8  1  0  0  0  0
 11 14  1  0  0  0  0
 12 11  1  0  0  0  0
 13 11  1  0  0  0  0
 14 22  2  0  0  0  0
 14 15  1  0  0  0  0
 15 17  2  0  0  0  0
 16 15  1  0  0  0  0
 17 18  1  0  0  0  0
 18 19  1  0  0  0  0
 20 21  1  0  0  0  0
 20 18  2  0  0  0  0
 22 20  1  0  0  0  0
 23  1  1  0  0  0  0
 23 27  1  0  0  0  0
 24 25  1  0  0  0  0
 24 34  1  0  0  0  0
 25 30  1  0  0  0  0
 26 31  1  0  0  0  0
 26 25  2  0  0  0  0
 27 26  1  0  0  0  0
 28 27  2  0  0  0  0
 28 29  1  0  0  0  0
 29 24  2  0  0  0  0
 32 28  1  0  0  0  0
 33 34  2  0  0  0  0
 33 38  1  0  0  0  0
 34 35  1  0  0  0  0
 35 40  1  0  0  0  0
 35 36  2  0  0  0  0
 37 36  1  0  0  0  0
 37 41  1  0  0  0  0
 38 37  2  0  0  0  0
 39 33  1  0  0  0  0
M  END
>  <minimizedAffinity>
-5.97463799

$$$$

 OpenBabel03272510143D

 41 44  0  0  0  0  0  0  0  0999 V2000
   35.5660   28.4740   31.9710 C   0  0  0  0  0  0  0  0  0  0  0  0
   35.8450   29.6100   31.2520 C   0  0  0  0  0  0  0  0  0  0  0  0
   34.8180   30.5180   31.4990 C   0  0  0  0  0  0  0  0  0  0  0  0
   33.9650   29.9330   32.3340 N   0  0  0  0  0  0  0  0  0  0  0  0
   34.4190   28.7550   32.5920 N   0  0  0  0  0  0  0  0  0  0  0  0
   36.6310   29.9340   30.5830 H   0  0  0  0  0  0  0  0  0  0  0  0
   34.6540   31.5360   31.1280 H   0  0  0  0  0  0  0  0  0  0  0  0
   32.7400   30.4670   32.8670 C   0  0  0  0  0  0  0  0  0  0  0  0
   31.8750   30.1230   32.2790 H   0  0  0  0  0  0  0  0  0  0  0  0
   32.7630   31.5820   32.7180 H   0  0  0  0  0  0  0  0  0  0  0  0
   32.6380   30.1390   34.3200 C   0  0  0  0  0  0  0  0  0  0  0  0
   31.5400   30.2850   34.5790 H   0  0  0  0  0  0  0  0  0  0  0  0
   32.7490   29.0170   34.4910 H   0  0  0  0  0  0  0  0  0  0  0  0
   33.5000   30.8870   35.2390 C   0  0  0  0  0  0  0  0  0  0  0  0
   34.8540   31.1300   35.2930 C   0  0  0  0  0  0  0  0  0  0  0  0
   35.4110   30.6220   34.5190 H   0  0  0  0  0  0  0  0  0  0  0  0
   35.4170   31.9190   36.2680 C   0  0  0  0  0  3  0  0  0  0  0  0
   34.6640   32.5190   37.2530 C   0  0  0  0  0  0  0  0  0  0  0  0
   35.2460   33.1080   37.9490 H   0  0  0  0  0  0  0  0  0  0  0  0
   33.3030   32.2950   37.2300 C   0  0  0  0  0  0  0  0  0  0  0  0
   32.7470   32.7800   38.0170 H   0  0  0  0  0  0  0  0  0  0  0  0
   32.7420   31.4990   36.2430 C   0  0  0  0  0  3  0  0  0  0  0  0
   36.4900   27.4560   31.8410 O   0  0  0  0  0  0  0  0  0  0  0  0
   38.2280   25.2070   34.9410 C   0  0  0  0  0  0  0  0  0  0  0  0
   37.9580   26.5370   35.0970 C   0  0  0  0  0  0  0  0  0  0  0  0
   37.3920   27.3350   34.1280 C   0  0  0  0  0  0  0  0  0  0  0  0
   37.0600   26.8130   32.9200 C   0  0  0  0  0  0  0  0  0  0  0  0
   37.3310   25.4550   32.7470 C   0  0  0  0  0  0  0  0  0  0  0  0
   37.8880   24.6950   33.7170 N   0  0  0  0  0  0  0  0  0  0  0  0
   38.1980   27.0190   36.0360 H   0  0  0  0  0  0  0  0  0  0  0  0
   37.1850   28.3890   34.2670 H   0  0  0  0  0  0  0  0  0  0  0  0
   37.1270   24.8830   31.8450 H   0  0  0  0  0  0  0  0  0  0  0  0
   38.2330   24.1350   37.1890 C   0  0  0  0  0  0  0  0  0  0  0  0
   38.8180   24.3630   35.9340 C   0  0  0  0  0  0  0  0  0  0  0  0
   40.0100   23.7330   35.6820 C   0  0  0  0  0  0  0  0  0  0  0  0
   40.5730   22.9270   36.6340 N   0  0  0  0  0  0  0  0  0  0  0  0
   39.9560   22.7430   37.8400 C   0  0  0  0  0  0  0  0  0  0  0  0
   38.7800   23.3440   38.1310 N   0  0  0  0  0  0  0  0  0  0  0  0
   37.2950   24.6090   37.4340 H   0  0  0  0  0  0  0  0  0  0  0  0
   40.5390   23.8500   34.7330 H   0  0  0  0  0  0  0  0  0  0  0  0
   40.3960   22.1090   38.5910 H   0  0  0  0  0  0  0  0  0  0  0  0
  1  5  2  0  0  0  0
  2  3  2  0  0  0  0
  2  1  1  0  0  0  0
  3  4  1  0  0  0  0
  4  5  1  0  0  0  0
  4  8  1  0  0  0  0
  6  2  1  0  0  0  0
  7  3  1  0  0  0  0
  8 11  1  0  0  0  0
  9  8  1  0  0  0  0
 10  8  1  0  0  0  0
 11 13  1  0  0  0  0
 11 12  1  0  0  0  0
 11 14  1  0  0  0  0
 14 15  2  0  0  0  0
 14 22  1  0  0  0  0
 15 17  1  0  0  0  0
 16 15  1  0  0  0  0
 17 18  2  0  0  0  0
 18 19  1  0  0  0  0
 20 18  1  0  0  0  0
 20 21  1  0  0  0  0
 22 20  2  0  0  0  0
 23  1  1  0  0  0  0
 23 27  1  0  0  0  0
 24 25  1  0  0  0  0
 24 34  1  0  0  0  0
 25 30  1  0  0  0  0
 26 31  1  0  0  0  0
 26 25  2  0  0  0  0
 27 26  1  0  0  0  0
 28 27  2  0  0  0  0
 28 29  1  0  0  0  0
 29 24  2  0  0  0  0
 32 28  1  0  0  0  0
 33 39  1  0  0  0  0
 33 38  1  0  0  0  0
 34 33  2  0  0  0  0
 35 34  1  0  0  0  0
 35 36  2  0  0  0  0
 36 37  1  0  0  0  0
 37 38  2  0  0  0  0
 37 41  1  0  0  0  0
 40 35  1  0  0  0  0
M  END
>  <minimizedAffinity>
-5.92411947

$$$$

 OpenBabel03272510143D

 41 44  0  0  0  0  0  0  0  0999 V2000
   36.6440   27.4870   32.3110 C   0  0  0  0  0  0  0  0  0  0  0  0
   36.9520   27.1240   33.5990 C   0  0  0  0  0  0  0  0  0  0  0  0
   36.5380   28.1620   34.4310 C   0  0  0  0  0  0  0  0  0  0  0  0
   36.0060   29.1020   33.6550 N   0  0  0  0  0  0  0  0  0  0  0  0
   36.0780   28.6890   32.4370 N   0  0  0  0  0  0  0  0  0  0  0  0
   37.4120   26.2700   34.0780 H   0  0  0  0  0  0  0  0  0  0  0  0
   36.5950   28.2770   35.5190 H   0  0  0  0  0  0  0  0  0  0  0  0
   35.4550   30.3700   34.0530 C   0  0  0  0  0  0  0  0  0  0  0  0
   34.3600   30.3740   33.9380 H   0  0  0  0  0  0  0  0  0  0  0  0
   35.8230   31.1440   33.3220 H   0  0  0  0  0  0  0  0  0  0  0  0
   35.9070   30.7040   35.4360 C   0  0  0  0  0  0  0  0  0  0  0  0
   35.5680   29.8290   36.0770 H   0  0  0  0  0  0  0  0  0  0  0  0
   37.0390   30.6080   35.5270 H   0  0  0  0  0  0  0  0  0  0  0  0
   35.4530   31.9780   36.0010 C   0  0  0  0  0  0  0  0  0  0  0  0
   34.6390   32.3160   37.0590 C   0  0  0  0  0  0  0  0  0  0  0  0
   34.2020   31.4600   37.5540 H   0  0  0  0  0  0  0  0  0  0  0  0
   34.4000   33.6240   37.4090 C   0  0  0  0  0  3  0  0  0  0  0  0
   34.9590   34.6810   36.7250 C   0  0  0  0  0  0  0  0  0  0  0  0
   34.6790   35.6500   37.1160 H   0  0  0  0  0  0  0  0  0  0  0  0
   35.7780   34.3780   35.6580 C   0  0  0  0  0  0  0  0  0  0  0  0
   36.1970   35.2310   35.1470 H   0  0  0  0  0  0  0  0  0  0  0  0
   36.0160   33.0560   35.3110 C   0  0  0  0  0  3  0  0  0  0  0  0
   36.9900   26.5640   31.3430 O   0  0  0  0  0  0  0  0  0  0  0  0
   36.2810   22.4280   31.6180 C   0  0  0  0  0  0  0  0  0  0  0  0
   35.2590   23.3090   31.4060 C   0  0  0  0  0  0  0  0  0  0  0  0
   35.4150   24.6730   31.3050 C   0  0  0  0  0  0  0  0  0  0  0  0
   36.6480   25.2300   31.4170 C   0  0  0  0  0  0  0  0  0  0  0  0
   37.7010   24.3410   31.6330 C   0  0  0  0  0  0  0  0  0  0  0  0
   37.5180   23.0040   31.7280 N   0  0  0  0  0  0  0  0  0  0  0  0
   34.2470   22.9330   31.3080 H   0  0  0  0  0  0  0  0  0  0  0  0
   34.5940   25.3590   31.1380 H   0  0  0  0  0  0  0  0  0  0  0  0
   38.7460   24.6190   31.7440 H   0  0  0  0  0  0  0  0  0  0  0  0
   36.5270   20.1200   30.7130 C   0  0  0  0  0  0  0  0  0  0  0  0
   36.1370   21.0090   31.7270 C   0  0  0  0  0  0  0  0  0  0  0  0
   35.5970   20.4570   32.8610 C   0  0  0  0  0  0  0  0  0  0  0  0
   35.4590   19.0990   32.9630 N   0  0  0  0  0  0  0  0  0  0  0  0
   35.8570   18.2830   31.9400 C   0  0  0  0  0  0  0  0  0  0  0  0
   36.3950   18.7840   30.8050 N   0  0  0  0  0  0  0  0  0  0  0  0
   36.9570   20.5070   29.8010 H   0  0  0  0  0  0  0  0  0  0  0  0
   35.2650   21.0690   33.7030 H   0  0  0  0  0  0  0  0  0  0  0  0
   35.7500   17.2150   32.0170 H   0  0  0  0  0  0  0  0  0  0  0  0
  1  5  2  0  0  0  0
  1  2  1  0  0  0  0
  2  6  1  0  0  0  0
  2  3  2  0  0  0  0
  3  7  1  0  0  0  0
  4  8  1  0  0  0  0
  4  3  1  0  0  0  0
  5  4  1  0  0  0  0
  8 11  1  0  0  0  0
  9  8  1  0  0  0  0
 10  8  1  0  0  0  0
 11 13  1  0  0  0  0
 11 14  1  0  0  0  0
 11 12  1  0  0  0  0
 14 15  1  0  0  0  0
 15 17  2  0  0  0  0
 15 16  1  0  0  0  0
 18 19  1  0  0  0  0
 18 17  1  0  0  0  0
 20 18  2  0  0  0  0
 21 20  1  0  0  0  0
 22 20  1  0  0  0  0
 22 14  2  0  0  0  0
 23 27  1  0  0  0  0
 23  1  1  0  0  0  0
 24 34  1  0  0  0  0
 24 29  1  0  0  0  0
 25 24  2  0  0  0  0
 26 25  1  0  0  0  0
 26 27  2  0  0  0  0
 27 28  1  0  0  0  0
 28 29  2  0  0  0  0
 28 32  1  0  0  0  0
 30 25  1  0  0  0  0
 31 26  1  0  0  0  0
 33 38  2  0  0  0  0
 33 34  1  0  0  0  0
 34 35  2  0  0  0  0
 35 36  1  0  0  0  0
 35 40  1  0  0  0  0
 37 41  1  0  0  0  0
 37 36  2  0  0  0  0
 38 37  1  0  0  0  0
 39 33  1  0  0  0  0
M  END
>  <minimizedAffinity>
-5.79065084

$$$$

 OpenBabel03272510143D

 41 44  0  0  0  0  0  0  0  0999 V2000
   37.7320   28.2650   30.8730 C   0  0  0  0  0  0  0  0  0  0  0  0
   37.9470   28.9210   29.6860 C   0  0  0  0  0  0  0  0  0  0  0  0
   37.0380   29.9750   29.6250 C   0  0  0  0  0  0  0  0  0  0  0  0
   36.3140   29.9360   30.7390 N   0  0  0  0  0  0  0  0  0  0  0  0
   36.7330   28.9420   31.4430 N   0  0  0  0  0  0  0  0  0  0  0  0
   38.6200   28.8080   28.8460 H   0  0  0  0  0  0  0  0  0  0  0  0
   36.8730   30.7370   28.8560 H   0  0  0  0  0  0  0  0  0  0  0  0
   35.2380   30.8100   31.1260 C   0  0  0  0  0  0  0  0  0  0  0  0
   34.4490   30.8230   30.3580 H   0  0  0  0  0  0  0  0  0  0  0  0
   35.6430   31.8600   31.1400 H   0  0  0  0  0  0  0  0  0  0  0  0
   34.7410   30.4270   32.4810 C   0  0  0  0  0  0  0  0  0  0  0  0
   33.6130   30.5630   32.4310 H   0  0  0  0  0  0  0  0  0  0  0  0
   34.8130   29.3000   32.6360 H   0  0  0  0  0  0  0  0  0  0  0  0
   35.3070   31.1400   33.6300 C   0  0  0  0  0  0  0  0  0  0  0  0
   35.4490   30.8370   34.9650 C   0  0  0  0  0  0  0  0  0  0  0  0
   35.0070   29.8890   35.2390 H   0  0  0  0  0  0  0  0  0  0  0  0
   36.0690   31.6910   35.8470 C   0  0  0  0  0  3  0  0  0  0  0  0
   36.5880   32.9040   35.4520 C   0  0  0  0  0  0  0  0  0  0  0  0
   37.0440   33.4650   36.2570 H   0  0  0  0  0  0  0  0  0  0  0  0
   36.4620   33.2400   34.1210 C   0  0  0  0  0  0  0  0  0  0  0  0
   36.8790   34.1970   33.8490 H   0  0  0  0  0  0  0  0  0  0  0  0
   35.8360   32.3740   33.2370 C   0  0  0  0  0  3  0  0  0  0  0  0
   38.5540   27.1790   31.1000 O   0  0  0  0  0  0  0  0  0  0  0  0
   38.8440   25.2480   34.8250 C   0  0  0  0  0  0  0  0  0  0  0  0
   39.6720   26.2830   34.4980 C   0  0  0  0  0  0  0  0  0  0  0  0
   39.6360   26.9620   33.3000 C   0  0  0  0  0  0  0  0  0  0  0  0
   38.7330   26.6160   32.3470 C   0  0  0  0  0  0  0  0  0  0  0  0
   37.8810   25.5600   32.6680 C   0  0  0  0  0  0  0  0  0  0  0  0
   37.9400   24.9110   33.8530 N   0  0  0  0  0  0  0  0  0  0  0  0
   40.4170   26.6120   35.2130 H   0  0  0  0  0  0  0  0  0  0  0  0
   40.3000   27.7810   33.0560 H   0  0  0  0  0  0  0  0  0  0  0  0
   37.1040   25.1590   32.0210 H   0  0  0  0  0  0  0  0  0  0  0  0
   39.7810   23.4970   36.3300 C   0  0  0  0  0  0  0  0  0  0  0  0
   38.8690   24.5300   36.0620 C   0  0  0  0  0  0  0  0  0  0  0  0
   37.9740   24.8390   37.0540 C   0  0  0  0  0  0  0  0  0  0  0  0
   37.9970   24.1510   38.2370 N   0  0  0  0  0  0  0  0  0  0  0  0
   38.9100   23.1530   38.4400 C   0  0  0  0  0  0  0  0  0  0  0  0
   39.8110   22.8150   37.4900 N   0  0  0  0  0  0  0  0  0  0  0  0
   40.5040   23.2170   35.5800 H   0  0  0  0  0  0  0  0  0  0  0  0
   37.2260   25.6280   36.9370 H   0  0  0  0  0  0  0  0  0  0  0  0
   38.9320   22.6100   39.3690 H   0  0  0  0  0  0  0  0  0  0  0  0
  1 23  1  0  0  0  0
  1  5  2  0  0  0  0
  2  1  1  0  0  0  0
  3  2  2  0  0  0  0
  3  4  1  0  0  0  0
  4  8  1  0  0  0  0
  4  5  1  0  0  0  0
  6  2  1  0  0  0  0
  7  3  1  0  0  0  0
  8 10  1  0  0  0  0
  8 11  1  0  0  0  0
  9  8  1  0  0  0  0
 11 13  1  0  0  0  0
 11 14  1  0  0  0  0
 12 11  1  0  0  0  0
 14 15  1  0  0  0  0
 15 16  1  0  0  0  0
 15 17  2  0  0  0  0
 18 17  1  0  0  0  0
 18 19  1  0  0  0  0
 20 18  2  0  0  0  0
 21 20  1  0  0  0  0
 22 14  2  0  0  0  0
 22 20  1  0  0  0  0
 23 27  1  0  0  0  0
 24 34  1  0  0  0  0
 25 24  1  0  0  0  0
 25 30  1  0  0  0  0
 26 25  2  0  0  0  0
 27 28  2  0  0  0  0
 27 26  1  0  0  0  0
 28 29  1  0  0  0  0
 29 24  2  0  0  0  0
 31 26  1  0  0  0  0
 32 28  1  0  0  0  0
 33 38  1  0  0  0  0
 34 33  2  0  0  0  0
 34 35  1  0  0  0  0
 35 36  2  0  0  0  0
 36 37  1  0  0  0  0
 37 41  1  0  0  0  0
 38 37  2  0  0  0  0
 39 33  1  0  0  0  0
 40 35  1  0  0  0  0
M  END
>  <minimizedAffinity>
-5.69486666

$$$$

 OpenBabel03272510143D

 41 44  0  0  0  0  0  0  0  0999 V2000
   36.8420   26.2710   32.0860 C   0  0  0  0  0  0  0  0  0  0  0  0
   36.0630   25.2380   31.6270 C   0  0  0  0  0  0  0  0  0  0  0  0
   36.6440   24.0530   32.0720 C   0  0  0  0  0  0  0  0  0  0  0  0
   37.7280   24.3810   32.7680 N   0  0  0  0  0  0  0  0  0  0  0  0
   37.8200   25.6660   32.7630 N   0  0  0  0  0  0  0  0  0  0  0  0
   35.1600   25.1470   31.0370 H   0  0  0  0  0  0  0  0  0  0  0  0
   36.3450   23.0080   31.9300 H   0  0  0  0  0  0  0  0  0  0  0  0
   38.6660   23.5010   33.4130 C   0  0  0  0  0  0  0  0  0  0  0  0
   39.2840   22.9760   32.6690 H   0  0  0  0  0  0  0  0  0  0  0  0
   38.0750   22.6890   33.9210 H   0  0  0  0  0  0  0  0  0  0  0  0
   39.4660   24.2660   34.4160 C   0  0  0  0  0  0  0  0  0  0  0  0
   40.5400   23.9320   34.2530 H   0  0  0  0  0  0  0  0  0  0  0  0
   39.5380   25.3650   34.1240 H   0  0  0  0  0  0  0  0  0  0  0  0
   39.0810   24.1330   35.8240 C   0  0  0  0  0  0  0  0  0  0  0  0
   38.1060   24.7100   36.6060 C   0  0  0  0  0  0  0  0  0  0  0  0
   37.5260   25.4580   36.0840 H   0  0  0  0  0  0  0  0  0  0  0  0
   37.9310   24.3700   37.9270 C   0  0  0  0  0  3  0  0  0  0  0  0
   38.7190   23.4310   38.5540 C   0  0  0  0  0  0  0  0  0  0  0  0
   38.4630   23.2700   39.5920 H   0  0  0  0  0  0  0  0  0  0  0  0
   39.7080   22.8340   37.8000 C   0  0  0  0  0  0  0  0  0  0  0  0
   40.3050   22.1040   38.3250 H   0  0  0  0  0  0  0  0  0  0  0  0
   39.8780   23.1800   36.4680 C   0  0  0  0  0  3  0  0  0  0  0  0
   36.4090   27.5340   31.7320 O   0  0  0  0  0  0  0  0  0  0  0  0
   35.5740   30.7790   34.2740 C   0  0  0  0  0  0  0  0  0  0  0  0
   35.8360   29.5360   34.7760 C   0  0  0  0  0  0  0  0  0  0  0  0
   36.1170   28.4290   34.0060 C   0  0  0  0  0  0  0  0  0  0  0  0
   36.1480   28.5280   32.6530 C   0  0  0  0  0  0  0  0  0  0  0  0
   35.8830   29.7920   32.1270 C   0  0  0  0  0  0  0  0  0  0  0  0
   35.6100   30.8620   32.9080 N   0  0  0  0  0  0  0  0  0  0  0  0
   35.8270   29.3850   35.8490 H   0  0  0  0  0  0  0  0  0  0  0  0
   36.3220   27.4490   34.4200 H   0  0  0  0  0  0  0  0  0  0  0  0
   35.8690   30.0430   31.0700 H   0  0  0  0  0  0  0  0  0  0  0  0
   35.0350   31.8880   36.4390 C   0  0  0  0  0  0  0  0  0  0  0  0
   35.2780   31.9390   35.0570 C   0  0  0  0  0  0  0  0  0  0  0  0
   35.2210   33.1730   34.4630 C   0  0  0  0  0  0  0  0  0  0  0  0
   34.9360   34.2820   35.2130 N   0  0  0  0  0  0  0  0  0  0  0  0
   34.7070   34.1700   36.5570 C   0  0  0  0  0  0  0  0  0  0  0  0
   34.7540   32.9730   37.1840 N   0  0  0  0  0  0  0  0  0  0  0  0
   35.0680   30.9380   36.9510 H   0  0  0  0  0  0  0  0  0  0  0  0
   35.3960   33.3110   33.3930 H   0  0  0  0  0  0  0  0  0  0  0  0
   34.4830   35.0400   37.1500 H   0  0  0  0  0  0  0  0  0  0  0  0
  1  5  2  0  0  0  0
  2  3  2  0  0  0  0
  2  1  1  0  0  0  0
  3  4  1  0  0  0  0
  4  8  1  0  0  0  0
  5  4  1  0  0  0  0
  6  2  1  0  0  0  0
  7  3  1  0  0  0  0
  8 10  1  0  0  0  0
  8 11  1  0  0  0  0
  9  8  1  0  0  0  0
 11 14  1  0  0  0  0
 12 11  1  0  0  0  0
 13 11  1  0  0  0  0
 14 22  2  0  0  0  0
 14 15  1  0  0  0  0
 15 17  2  0  0  0  0
 16 15  1  0  0  0  0
 17 18  1  0  0  0  0
 18 19  1  0  0  0  0
 20 21  1  0  0  0  0
 20 18  2  0  0  0  0
 22 20  1  0  0  0  0
 23  1  1  0  0  0  0
 23 27  1  0  0  0  0
 24 25  1  0  0  0  0
 24 34  1  0  0  0  0
 25 30  1  0  0  0  0
 26 31  1  0  0  0  0
 26 25  2  0  0  0  0
 27 26  1  0  0  0  0
 28 27  2  0  0  0  0
 28 29  1  0  0  0  0
 29 24  2  0  0  0  0
 32 28  1  0  0  0  0
 33 39  1  0  0  0  0
 33 38  1  0  0  0  0
 34 33  2  0  0  0  0
 35 34  1  0  0  0  0
 35 36  2  0  0  0  0
 36 37  1  0  0  0  0
 37 41  1  0  0  0  0
 37 38  2  0  0  0  0
 40 35  1  0  0  0  0
M  END
>  <minimizedAffinity>
-5.67493296

$$$$

 OpenBabel03272510143D

 41 44  0  0  0  0  0  0  0  0999 V2000
   35.5780   29.0200   32.1710 C   0  0  0  0  0  0  0  0  0  0  0  0
   35.6600   30.2830   31.6380 C   0  0  0  0  0  0  0  0  0  0  0  0
   34.4000   30.8660   31.7580 C   0  0  0  0  0  0  0  0  0  0  0  0
   33.6070   29.9730   32.3430 N   0  0  0  0  0  0  0  0  0  0  0  0
   34.3080   28.9180   32.5720 N   0  0  0  0  0  0  0  0  0  0  0  0
   36.4330   30.8830   31.1760 H   0  0  0  0  0  0  0  0  0  0  0  0
   34.0350   31.8550   31.4620 H   0  0  0  0  0  0  0  0  0  0  0  0
   32.2110   30.1080   32.6650 C   0  0  0  0  0  0  0  0  0  0  0  0
   31.6710   29.1690   32.4650 H   0  0  0  0  0  0  0  0  0  0  0  0
   31.7670   30.8530   31.9480 H   0  0  0  0  0  0  0  0  0  0  0  0
   32.0630   30.5880   34.0710 C   0  0  0  0  0  0  0  0  0  0  0  0
   33.0440   31.1120   34.3090 H   0  0  0  0  0  0  0  0  0  0  0  0
   31.3360   31.4640   34.1260 H   0  0  0  0  0  0  0  0  0  0  0  0
   31.7400   29.5880   35.0920 C   0  0  0  0  0  0  0  0  0  0  0  0
   31.9580   29.5040   36.4490 C   0  0  0  0  0  0  0  0  0  0  0  0
   32.5330   30.3300   36.8420 H   0  0  0  0  0  0  0  0  0  0  0  0
   31.5050   28.4440   37.1980 C   0  0  0  0  0  3  0  0  0  0  0  0
   30.8020   27.3980   36.6420 C   0  0  0  0  0  0  0  0  0  0  0  0
   30.5130   26.6390   37.3550 H   0  0  0  0  0  0  0  0  0  0  0  0
   30.5670   27.4500   35.2840 C   0  0  0  0  0  0  0  0  0  0  0  0
   30.0150   26.6130   34.8840 H   0  0  0  0  0  0  0  0  0  0  0  0
   31.0260   28.5220   34.5340 C   0  0  0  0  0  3  0  0  0  0  0  0
   36.7490   28.2900   32.1330 O   0  0  0  0  0  0  0  0  0  0  0  0
   38.1600   25.6380   35.0770 C   0  0  0  0  0  0  0  0  0  0  0  0
   37.5670   26.8200   35.4160 C   0  0  0  0  0  0  0  0  0  0  0  0
   37.0820   27.7360   34.5080 C   0  0  0  0  0  0  0  0  0  0  0  0
   37.1760   27.4940   33.1760 C   0  0  0  0  0  0  0  0  0  0  0  0
   37.7800   26.2890   32.8160 C   0  0  0  0  0  0  0  0  0  0  0  0
   38.2480   25.4080   33.7290 N   0  0  0  0  0  0  0  0  0  0  0  0
   37.4590   27.0780   36.4620 H   0  0  0  0  0  0  0  0  0  0  0  0
   36.6140   28.6700   34.7930 H   0  0  0  0  0  0  0  0  0  0  0  0
   37.9330   25.9420   31.7980 H   0  0  0  0  0  0  0  0  0  0  0  0
   39.8120   23.8980   35.7490 C   0  0  0  0  0  0  0  0  0  0  0  0
   38.6720   24.6760   36.0040 C   0  0  0  0  0  0  0  0  0  0  0  0
   38.0430   24.4780   37.2070 C   0  0  0  0  0  0  0  0  0  0  0  0
   38.5320   23.5560   38.0920 N   0  0  0  0  0  0  0  0  0  0  0  0
   39.6480   22.8270   37.7870 C   0  0  0  0  0  0  0  0  0  0  0  0
   40.3000   22.9890   36.6140 N   0  0  0  0  0  0  0  0  0  0  0  0
   40.3410   24.0170   34.8160 H   0  0  0  0  0  0  0  0  0  0  0  0
   37.1480   25.0370   37.4930 H   0  0  0  0  0  0  0  0  0  0  0  0
   40.0350   22.1010   38.4820 H   0  0  0  0  0  0  0  0  0  0  0  0
  1  5  2  0  0  0  0
  2  3  2  0  0  0  0
  2  1  1  0  0  0  0
  3  4  1  0  0  0  0
  4  5  1  0  0  0  0
  4  8  1  0  0  0  0
  6  2  1  0  0  0  0
  7  3  1  0  0  0  0
  8 11  1  0  0  0  0
  9  8  1  0  0  0  0
 10  8  1  0  0  0  0
 11 13  1  0  0  0  0
 11 12  1  0  0  0  0
 11 14  1  0  0  0  0
 14 15  1  0  0  0  0
 15 16  1  0  0  0  0
 15 17  2  0  0  0  0
 18 17  1  0  0  0  0
 18 19  1  0  0  0  0
 20 18  2  0  0  0  0
 21 20  1  0  0  0  0
 22 14  2  0  0  0  0
 22 20  1  0  0  0  0
 23  1  1  0  0  0  0
 23 27  1  0  0  0  0
 24 25  1  0  0  0  0
 24 34  1  0  0  0  0
 25 30  1  0  0  0  0
 26 31  1  0  0  0  0
 26 25  2  0  0  0  0
 27 26  1  0  0  0  0
 28 27  2  0  0  0  0
 28 29  1  0  0  0  0
 29 24  2  0  0  0  0
 32 28  1  0  0  0  0
 33 34  2  0  0  0  0
 33 38  1  0  0  0  0
 34 35  1  0  0  0  0
 35 40  1  0  0  0  0
 35 36  2  0  0  0  0
 37 36  1  0  0  0  0
 37 41  1  0  0  0  0
 38 37  2  0  0  0  0
 39 33  1  0  0  0  0
M  END
>  <minimizedAffinity>
-5.67355967

$$$$

 OpenBabel03272510143D

 41 44  0  0  0  0  0  0  0  0999 V2000
   36.3160   26.9240   30.9020 C   0  0  0  0  0  0  0  0  0  0  0  0
   37.6000   26.4380   30.9280 C   0  0  0  0  0  0  0  0  0  0  0  0
   37.5150   25.0490   31.0100 C   0  0  0  0  0  0  0  0  0  0  0  0
   36.2240   24.7330   31.0320 N   0  0  0  0  0  0  0  0  0  0  0  0
   35.5530   25.8300   30.9680 N   0  0  0  0  0  0  0  0  0  0  0  0
   38.5940   26.8650   30.9010 H   0  0  0  0  0  0  0  0  0  0  0  0
   38.2970   24.2830   31.0540 H   0  0  0  0  0  0  0  0  0  0  0  0
   35.6350   23.4240   31.1270 C   0  0  0  0  0  0  0  0  0  0  0  0
   35.6820   22.9030   30.1580 H   0  0  0  0  0  0  0  0  0  0  0  0
   34.5360   23.5600   31.3280 H   0  0  0  0  0  0  0  0  0  0  0  0
   36.2770   22.6630   32.2400 C   0  0  0  0  0  0  0  0  0  0  0  0
   37.3860   22.8980   32.1580 H   0  0  0  0  0  0  0  0  0  0  0  0
   36.0330   23.1360   33.2480 H   0  0  0  0  0  0  0  0  0  0  0  0
   36.0470   21.2160   32.2840 C   0  0  0  0  0  0  0  0  0  0  0  0
   35.5590   20.3550   33.2410 C   0  0  0  0  0  0  0  0  0  0  0  0
   35.3410   20.8410   34.1820 H   0  0  0  0  0  0  0  0  0  0  0  0
   35.4050   19.0090   33.0050 C   0  0  0  0  0  3  0  0  0  0  0  0
   35.7280   18.4350   31.7960 C   0  0  0  0  0  0  0  0  0  0  0  0
   35.5530   17.3680   31.7600 H   0  0  0  0  0  0  0  0  0  0  0  0
   36.2210   19.2680   30.8140 C   0  0  0  0  0  0  0  0  0  0  0  0
   36.4630   18.7830   29.8820 H   0  0  0  0  0  0  0  0  0  0  0  0
   36.3730   20.6250   31.0580 C   0  0  0  0  0  3  0  0  0  0  0  0
   36.2110   28.2980   30.8230 O   0  0  0  0  0  0  0  0  0  0  0  0
   35.4690   31.0120   33.9500 C   0  0  0  0  0  0  0  0  0  0  0  0
   35.6180   29.6760   34.1930 C   0  0  0  0  0  0  0  0  0  0  0  0
   35.8610   28.7300   33.2220 C   0  0  0  0  0  0  0  0  0  0  0  0
   35.9710   29.1000   31.9200 C   0  0  0  0  0  0  0  0  0  0  0  0
   35.8220   30.4620   31.6580 C   0  0  0  0  0  0  0  0  0  0  0  0
   35.5830   31.3690   32.6330 N   0  0  0  0  0  0  0  0  0  0  0  0
   35.5420   29.3110   35.2100 H   0  0  0  0  0  0  0  0  0  0  0  0
   35.9760   27.6740   33.4300 H   0  0  0  0  0  0  0  0  0  0  0  0
   35.8810   30.9240   30.6760 H   0  0  0  0  0  0  0  0  0  0  0  0
   35.1240   33.3770   34.6510 C   0  0  0  0  0  0  0  0  0  0  0  0
   35.2140   32.0080   34.9450 C   0  0  0  0  0  0  0  0  0  0  0  0
   35.0460   31.6430   36.2560 C   0  0  0  0  0  0  0  0  0  0  0  0
   34.8040   32.5970   37.2070 N   0  0  0  0  0  0  0  0  0  0  0  0
   34.7270   33.9170   36.8600 C   0  0  0  0  0  0  0  0  0  0  0  0
   34.8860   34.3220   35.5800 N   0  0  0  0  0  0  0  0  0  0  0  0
   35.2500   33.7140   33.6330 H   0  0  0  0  0  0  0  0  0  0  0  0
   35.0990   30.6000   36.5800 H   0  0  0  0  0  0  0  0  0  0  0  0
   34.5360   34.6700   37.6060 H   0  0  0  0  0  0  0  0  0  0  0  0
  1  2  1  0  0  0  0
  1  5  2  0  0  0  0
  2  3  2  0  0  0  0
  3  4  1  0  0  0  0
  3  7  1  0  0  0  0
  4  8  1  0  0  0  0
  5  4  1  0  0  0  0
  6  2  1  0  0  0  0
  8 10  1  0  0  0  0
  8 11  1  0  0  0  0
  9  8  1  0  0  0  0
 11 14  1  0  0  0  0
 11 13  1  0  0  0  0
 12 11  1  0  0  0  0
 14 15  1  0  0  0  0
 15 16  1  0  0  0  0
 17 15  2  0  0  0  0
 18 17  1  0  0  0  0
 19 18  1  0  0  0  0
 20 22  1  0  0  0  0
 20 18  2  0  0  0  0
 21 20  1  0  0  0  0
 22 14  2  0  0  0  0
 23  1  1  0  0  0  0
 23 27  1  0  0  0  0
 24 25  1  0  0  0  0
 24 34  1  0  0  0  0
 25 30  1  0  0  0  0
 26 31  1  0  0  0  0
 26 25  2  0  0  0  0
 27 26  1  0  0  0  0
 28 27  2  0  0  0  0
 28 29  1  0  0  0  0
 29 24  2  0  0  0  0
 32 28  1  0  0  0  0
 33 34  2  0  0  0  0
 33 38  1  0  0  0  0
 34 35  1  0  0  0  0
 35 40  1  0  0  0  0
 35 36  2  0  0  0  0
 37 36  1  0  0  0  0
 37 41  1  0  0  0  0
 38 37  2  0  0  0  0
 39 33  1  0  0  0  0
M  END
>  <minimizedAffinity>
-5.63428354

$$$$

 OpenBabel03272510143D

 41 44  0  0  0  0  0  0  0  0999 V2000
   38.2860   26.1030   31.9130 C   0  0  0  0  0  0  0  0  0  0  0  0
   39.6160   26.3470   31.6700 C   0  0  0  0  0  0  0  0  0  0  0  0
   40.3400   25.3070   32.2490 C   0  0  0  0  0  0  0  0  0  0  0  0
   39.4640   24.4820   32.8140 N   0  0  0  0  0  0  0  0  0  0  0  0
   38.2860   24.9620   32.6060 N   0  0  0  0  0  0  0  0  0  0  0  0
   40.1850   27.1140   31.1630 H   0  0  0  0  0  0  0  0  0  0  0  0
   41.4180   25.1170   32.2870 H   0  0  0  0  0  0  0  0  0  0  0  0
   39.7310   23.2740   33.5480 C   0  0  0  0  0  0  0  0  0  0  0  0
   40.2070   22.5210   32.9000 H   0  0  0  0  0  0  0  0  0  0  0  0
   38.7400   22.8230   33.8320 H   0  0  0  0  0  0  0  0  0  0  0  0
   40.5270   23.5930   34.7700 C   0  0  0  0  0  0  0  0  0  0  0  0
   41.3930   22.8570   34.7590 H   0  0  0  0  0  0  0  0  0  0  0  0
   41.0840   24.5800   34.6460 H   0  0  0  0  0  0  0  0  0  0  0  0
   39.8240   23.5590   36.0560 C   0  0  0  0  0  0  0  0  0  0  0  0
   39.9950   22.8410   37.2180 C   0  0  0  0  0  0  0  0  0  0  0  0
   40.7890   22.1110   37.1580 H   0  0  0  0  0  0  0  0  0  0  0  0
   39.1970   23.0350   38.3220 C   0  0  0  0  0  3  0  0  0  0  0  0
   38.1760   23.9600   38.3370 C   0  0  0  0  0  0  0  0  0  0  0  0
   37.6370   23.9980   39.2730 H   0  0  0  0  0  0  0  0  0  0  0  0
   37.9760   24.6950   37.1880 C   0  0  0  0  0  0  0  0  0  0  0  0
   37.1680   25.4080   37.2360 H   0  0  0  0  0  0  0  0  0  0  0  0
   38.7850   24.4960   36.0780 C   0  0  0  0  0  3  0  0  0  0  0  0
   37.4150   27.0450   31.4050 O   0  0  0  0  0  0  0  0  0  0  0  0
   35.5950   29.7530   34.0600 C   0  0  0  0  0  0  0  0  0  0  0  0
   35.6630   30.0120   32.7210 C   0  0  0  0  0  0  0  0  0  0  0  0
   36.2420   29.1750   31.7940 C   0  0  0  0  0  0  0  0  0  0  0  0
   36.7960   27.9990   32.1870 C   0  0  0  0  0  0  0  0  0  0  0  0
   36.7330   27.7220   33.5530 C   0  0  0  0  0  0  0  0  0  0  0  0
   36.1580   28.5640   34.4410 N   0  0  0  0  0  0  0  0  0  0  0  0
   35.2400   30.9330   32.3380 H   0  0  0  0  0  0  0  0  0  0  0  0
   36.2880   29.3950   30.7350 H   0  0  0  0  0  0  0  0  0  0  0  0
   37.1270   26.8290   34.0320 H   0  0  0  0  0  0  0  0  0  0  0  0
   35.7490   31.4390   35.8880 C   0  0  0  0  0  0  0  0  0  0  0  0
   34.9990   30.6110   35.0370 C   0  0  0  0  0  0  0  0  0  0  0  0
   33.6360   30.6510   35.1780 C   0  0  0  0  0  0  0  0  0  0  0  0
   33.0680   31.4720   36.1150 N   0  0  0  0  0  0  0  0  0  0  0  0
   33.8510   32.2560   36.9160 C   0  0  0  0  0  0  0  0  0  0  0  0
   35.1990   32.2480   36.8110 N   0  0  0  0  0  0  0  0  0  0  0  0
   36.8260   31.4410   35.8150 H   0  0  0  0  0  0  0  0  0  0  0  0
   32.9700   30.0430   34.5610 H   0  0  0  0  0  0  0  0  0  0  0  0
   33.4070   32.9030   37.6540 H   0  0  0  0  0  0  0  0  0  0  0  0
  1  5  2  0  0  0  0
  2  1  1  0  0  0  0
  2  3  2  0  0  0  0
  3  7  1  0  0  0  0
  3  4  1  0  0  0  0
  4  8  1  0  0  0  0
  5  4  1  0  0  0  0
  6  2  1  0  0  0  0
  8 10  1  0  0  0  0
  8 11  1  0  0  0  0
  9  8  1  0  0  0  0
 11 14  1  0  0  0  0
 12 11  1  0  0  0  0
 13 11  1  0  0  0  0
 14 22  2  0  0  0  0
 14 15  1  0  0  0  0
 15 17  2  0  0  0  0
 16 15  1  0  0  0  0
 17 18  1  0  0  0  0
 18 19  1  0  0  0  0
 20 21  1  0  0  0  0
 20 18  2  0  0  0  0
 22 20  1  0  0  0  0
 23  1  1  0  0  0  0
 23 27  1  0  0  0  0
 24 29  1  0  0  0  0
 24 34  1  0  0  0  0
 25 24  2  0  0  0  0
 26 27  2  0  0  0  0
 26 25  1  0  0  0  0
 27 28  1  0  0  0  0
 28 32  1  0  0  0  0
 28 29  2  0  0  0  0
 30 25  1  0  0  0  0
 31 26  1  0  0  0  0
 33 38  1  0  0  0  0
 34 35  1  0  0  0  0
 34 33  2  0  0  0  0
 35 36  2  0  0  0  0
 36 37  1  0  0  0  0
 37 41  1  0  0  0  0
 38 37  2  0  0  0  0
 39 33  1  0  0  0  0
 40 35  1  0  0  0  0
M  END
>  <minimizedAffinity>
-5.58951664

$$$$
