
 OpenBabel03272510133D

 41 44  0  0  0  0  0  0  0  0999 V2000
   38.4350   31.4210   48.8000 C   0  0  0  0  0  0  0  0  0  0  0  0
   38.4590   32.6230   49.4640 C   0  0  0  0  0  0  0  0  0  0  0  0
   39.0340   33.5580   48.6060 C   0  0  0  0  0  0  0  0  0  0  0  0
   39.3370   32.9240   47.4770 N   0  0  0  0  0  0  0  0  0  0  0  0
   38.9810   31.6940   47.6130 N   0  0  0  0  0  0  0  0  0  0  0  0
   38.1520   32.9800   50.4380 H   0  0  0  0  0  0  0  0  0  0  0  0
   39.2400   34.6260   48.7410 H   0  0  0  0  0  0  0  0  0  0  0  0
   39.9630   33.4650   46.3000 C   0  0  0  0  0  0  0  0  0  0  0  0
   40.6190   34.3100   46.5580 H   0  0  0  0  0  0  0  0  0  0  0  0
   39.1530   33.9150   45.6610 H   0  0  0  0  0  0  0  0  0  0  0  0
   40.6650   32.3750   45.5580 C   0  0  0  0  0  0  0  0  0  0  0  0
   41.7660   32.6540   45.5950 H   0  0  0  0  0  0  0  0  0  0  0  0
   40.6690   31.4100   46.1640 H   0  0  0  0  0  0  0  0  0  0  0  0
   40.2330   32.1150   44.1810 C   0  0  0  0  0  0  0  0  0  0  0  0
   39.5570   32.8530   43.2370 C   0  0  0  0  0  0  0  0  0  0  0  0
   39.2310   33.8180   43.6000 H   0  0  0  0  0  0  0  0  0  0  0  0
   39.3070   32.3720   41.9730 C   0  0  0  0  0  3  0  0  0  0  0  0
   39.7180   31.1210   41.5690 C   0  0  0  0  0  0  0  0  0  0  0  0
   39.4500   30.8830   40.5500 H   0  0  0  0  0  0  0  0  0  0  0  0
   40.3980   30.3540   42.4910 C   0  0  0  0  0  0  0  0  0  0  0  0
   40.7030   29.3800   42.1390 H   0  0  0  0  0  0  0  0  0  0  0  0
   40.6460   30.8440   43.7640 C   0  0  0  0  0  3  0  0  0  0  0  0
   37.8930   30.3690   49.5110 O   0  0  0  0  0  0  0  0  0  0  0  0
   34.1520   28.8600   48.3200 C   0  0  0  0  0  0  0  0  0  0  0  0
   34.7640   28.4180   49.4580 C   0  0  0  0  0  0  0  0  0  0  0  0
   35.9860   28.8650   49.9100 C   0  0  0  0  0  0  0  0  0  0  0  0
   36.6680   29.8090   49.2130 C   0  0  0  0  0  0  0  0  0  0  0  0
   36.0540   30.2690   48.0480 C   0  0  0  0  0  0  0  0  0  0  0  0
   34.8520   29.8120   47.6280 N   0  0  0  0  0  0  0  0  0  0  0  0
   34.2750   27.6640   50.0640 H   0  0  0  0  0  0  0  0  0  0  0  0
   36.4580   28.5040   50.8150 H   0  0  0  0  0  0  0  0  0  0  0  0
   36.4620   31.0210   47.3770 H   0  0  0  0  0  0  0  0  0  0  0  0
   32.0260   27.5890   48.5870 C   0  0  0  0  0  0  0  0  0  0  0  0
   32.8850   28.4060   47.8350 C   0  0  0  0  0  0  0  0  0  0  0  0
   32.4600   28.7640   46.5810 C   0  0  0  0  0  0  0  0  0  0  0  0
   31.2490   28.3280   46.1180 N   0  0  0  0  0  0  0  0  0  0  0  0
   30.4540   27.5330   46.8970 C   0  0  0  0  0  0  0  0  0  0  0  0
   30.8330   27.1550   48.1390 N   0  0  0  0  0  0  0  0  0  0  0  0
   32.3170   27.2800   49.5790 H   0  0  0  0  0  0  0  0  0  0  0  0
   33.0610   29.3970   45.9230 H   0  0  0  0  0  0  0  0  0  0  0  0
   29.5000   27.1880   46.5350 H   0  0  0  0  0  0  0  0  0  0  0  0
  1  2  1  0  0  0  0
  1 23  1  0  0  0  0
  2  6  1  0  0  0  0
  3  7  1  0  0  0  0
  3  2  2  0  0  0  0
  4  5  1  0  0  0  0
  4  3  1  0  0  0  0
  5  1  2  0  0  0  0
  8  9  1  0  0  0  0
  8  4  1  0  0  0  0
 10  8  1  0  0  0  0
 11 12  1  0  0  0  0
 11 13  1  0  0  0  0
 11  8  1  0  0  0  0
 14 11  1  0  0  0  0
 15 16  1  0  0  0  0
 15 14  2  0  0  0  0
 17 15  1  0  0  0  0
 18 17  2  0  0  0  0
 18 20  1  0  0  0  0
 19 18  1  0  0  0  0
 20 22  2  0  0  0  0
 21 20  1  0  0  0  0
 22 14  1  0  0  0  0
 24 25  1  0  0  0  0
 25 26  2  0  0  0  0
 25 30  1  0  0  0  0
 26 31  1  0  0  0  0
 27 23  1  0  0  0  0
 27 26  1  0  0  0  0
 28 27  2  0  0  0  0
 29 28  1  0  0  0  0
 29 24  2  0  0  0  0
 32 28  1  0  0  0  0
 33 39  1  0  0  0  0
 34 24  1  0  0  0  0
 34 33  2  0  0  0  0
 35 34  1  0  0  0  0
 36 35  2  0  0  0  0
 36 37  1  0  0  0  0
 37 38  2  0  0  0  0
 38 33  1  0  0  0  0
 40 35  1  0  0  0  0
 41 37  1  0  0  0  0
M  END
>  <minimizedAffinity>
-6.40851116

>  <minimizedRMSD>
1.56627727

$$$$
