
 OpenBabel03272504203D

 27 28  0  0  0  0  0  0  0  0999 V2000
   36.6440   27.7930   34.8800 O   0  0  0  0  0  0  0  0  0  0  0  0
   37.8650   26.9200   35.1150 P   0  0  2  0  0  0  0  0  0  0  0  0
   38.8550   27.7390   36.2230 O   0  0  0  0  0  0  0  0  0  0  0  0
   39.5760   27.1490   36.5480 H   0  0  0  0  0  0  0  0  0  0  0  0
   38.7110   26.6820   33.6660 O   0  0  0  0  0  0  0  0  0  0  0  0
   37.8560   27.0420   32.6430 C   0  0  0  0  0  0  0  0  0  0  0  0
   38.4630   27.4730   31.8200 H   0  0  0  0  0  0  0  0  0  0  0  0
   37.1020   27.8070   32.9230 H   0  0  0  0  0  0  0  0  0  0  0  0
   37.1000   25.8890   32.0930 C   0  0  0  0  0  0  0  0  0  0  0  0
   37.7000   24.6210   32.1390 C   0  0  0  0  0  0  0  0  0  0  0  0
   36.9950   23.5400   31.6250 C   0  0  0  0  0  0  0  0  0  0  0  0
   35.7560   23.7870   31.1050 N   0  0  0  0  0  0  0  0  0  0  0  0
   35.1930   25.0030   31.0660 C   0  0  0  0  0  0  0  0  0  0  0  0
   35.8840   26.0530   31.5680 N   0  0  0  0  0  0  0  0  0  0  0  0
   38.6760   24.5480   32.5700 H   0  0  0  0  0  0  0  0  0  0  0  0
   37.4250   22.5660   31.6460 H   0  0  0  0  0  0  0  0  0  0  0  0
   34.2050   25.0730   30.6290 H   0  0  0  0  0  0  0  0  0  0  0  0
   37.3420   25.4400   35.7640 O   0  0  0  0  0  0  0  0  0  0  0  0
   38.2710   24.5440   36.3110 C   0  0  0  0  0  0  0  0  0  0  0  0
   39.3730   23.9430   35.7420 C   0  0  0  0  0  0  0  0  0  0  0  0
   39.5040   24.2330   34.7200 H   0  0  0  0  0  0  0  0  0  0  0  0
   40.1220   23.0970   36.5120 C   0  0  0  0  0  3  0  0  0  0  0  0
   39.8200   22.8210   37.8300 C   0  0  0  0  0  0  0  0  0  0  0  0
   40.4330   22.1550   38.3900 H   0  0  0  0  0  0  0  0  0  0  0  0
   38.7070   23.4250   38.4160 C   0  0  0  0  0  0  0  0  0  0  0  0
   38.5140   23.1780   39.4470 H   0  0  0  0  0  0  0  0  0  0  0  0
   37.9550   24.2740   37.6440 C   0  0  0  0  0  3  0  0  0  0  0  0
  2  1  2  6  0  0  0
  2 18  1  0  0  0  0
  2  3  1  0  0  0  0
  3  4  1  0  0  0  0
  5  2  1  0  0  0  0
  6  8  1  0  0  0  0
  6  5  1  0  0  0  0
  7  6  1  0  0  0  0
  9 10  1  0  0  0  0
  9  6  1  0  0  0  0
 10 15  1  0  0  0  0
 11 16  1  0  0  0  0
 11 10  2  0  0  0  0
 12 11  1  0  0  0  0
 13 12  2  0  0  0  0
 13 14  1  0  0  0  0
 14  9  2  0  0  0  0
 17 13  1  0  0  0  0
 18 19  1  0  0  0  0
 19 27  1  0  0  0  0
 20 19  2  0  0  0  0
 20 22  1  0  0  0  0
 21 20  1  0  0  0  0
 22 23  2  0  0  0  0
 23 24  1  0  0  0  0
 23 25  1  0  0  0  0
 25 26  1  0  0  0  0
 27 25  2  0  0  0  0
M  END
>  <minimizedAffinity>
-5.04923582

$$$$

 OpenBabel03272504203D

 27 28  0  0  0  0  0  0  0  0999 V2000
   40.1310   23.1630   36.4930 O   0  0  0  0  0  0  0  0  0  0  0  0
   38.7370   23.3600   37.0630 P   0  0  2  0  0  0  0  0  0  0  0  0
   38.7760   22.8160   38.6700 O   0  0  0  0  0  0  0  0  0  0  0  0
   37.9530   23.0760   39.1450 H   0  0  0  0  0  0  0  0  0  0  0  0
   37.6040   22.4550   36.1850 O   0  0  0  0  0  0  0  0  0  0  0  0
   38.2300   22.0600   35.0190 C   0  0  0  0  0  0  0  0  0  0  0  0
   38.6260   21.0350   35.1690 H   0  0  0  0  0  0  0  0  0  0  0  0
   39.0870   22.6980   34.7180 H   0  0  0  0  0  0  0  0  0  0  0  0
   37.3070   22.0230   33.8550 C   0  0  0  0  0  0  0  0  0  0  0  0
   37.5090   22.9480   32.8200 C   0  0  0  0  0  0  0  0  0  0  0  0
   36.6480   22.9160   31.7300 C   0  0  0  0  0  0  0  0  0  0  0  0
   35.6540   21.9780   31.7420 N   0  0  0  0  0  0  0  0  0  0  0  0
   35.4700   21.0990   32.7370 C   0  0  0  0  0  0  0  0  0  0  0  0
   36.3130   21.1350   33.7970 N   0  0  0  0  0  0  0  0  0  0  0  0
   38.3210   23.6360   32.9200 H   0  0  0  0  0  0  0  0  0  0  0  0
   36.7770   23.6060   30.9300 H   0  0  0  0  0  0  0  0  0  0  0  0
   34.6480   20.4030   32.6330 H   0  0  0  0  0  0  0  0  0  0  0  0
   38.3690   25.0170   37.0050 O   0  0  0  0  0  0  0  0  0  0  0  0
   38.5590   25.7390   35.8180 C   0  0  0  0  0  0  0  0  0  0  0  0
   39.7020   26.2920   35.2830 C   0  0  0  0  0  0  0  0  0  0  0  0
   40.5570   26.1230   35.9030 H   0  0  0  0  0  0  0  0  0  0  0  0
   39.6070   26.9550   34.0900 C   0  0  0  0  0  3  0  0  0  0  0  0
   38.4170   27.0900   33.4030 C   0  0  0  0  0  0  0  0  0  0  0  0
   38.3920   27.6150   32.4780 H   0  0  0  0  0  0  0  0  0  0  0  0
   37.2540   26.5330   33.9360 C   0  0  0  0  0  0  0  0  0  0  0  0
   36.3510   26.6650   33.3630 H   0  0  0  0  0  0  0  0  0  0  0  0
   37.3490   25.8680   35.1330 C   0  0  0  0  0  3  0  0  0  0  0  0
  2  1  2  6  0  0  0
  2  3  1  0  0  0  0
  3  4  1  0  0  0  0
  5  2  1  0  0  0  0
  6  7  1  0  0  0  0
  6  5  1  0  0  0  0
  8  6  1  0  0  0  0
  9  6  1  0  0  0  0
 10 15  1  0  0  0  0
 10  9  2  0  0  0  0
 11 12  2  0  0  0  0
 11 10  1  0  0  0  0
 12 13  1  0  0  0  0
 13 14  2  0  0  0  0
 14  9  1  0  0  0  0
 16 11  1  0  0  0  0
 17 13  1  0  0  0  0
 18  2  1  0  0  0  0
 19 18  1  0  0  0  0
 20 19  1  0  0  0  0
 20 21  1  0  0  0  0
 22 20  2  0  0  0  0
 23 25  2  0  0  0  0
 23 22  1  0  0  0  0
 24 23  1  0  0  0  0
 25 27  1  0  0  0  0
 26 25  1  0  0  0  0
 27 19  2  0  0  0  0
M  END
>  <minimizedAffinity>
-4.52896309

$$$$

 OpenBabel03272504203D

 27 28  0  0  0  0  0  0  0  0999 V2000
   38.9610   28.5110   30.2750 O   0  0  0  0  0  0  0  0  0  0  0  0
   37.5310   28.2730   30.7290 P   0  0  2  0  0  0  0  0  0  0  0  0
   36.6150   27.9530   29.3370 O   0  0  0  0  0  0  0  0  0  0  0  0
   35.7180   27.6210   29.5790 H   0  0  0  0  0  0  0  0  0  0  0  0
   36.9190   29.6500   31.5070 O   0  0  0  0  0  0  0  0  0  0  0  0
   35.5470   29.6150   31.3560 C   0  0  0  0  0  0  0  0  0  0  0  0
   35.2690   28.6210   30.9480 H   0  0  0  0  0  0  0  0  0  0  0  0
   35.1420   30.3760   30.6570 H   0  0  0  0  0  0  0  0  0  0  0  0
   34.8220   29.7960   32.6390 C   0  0  0  0  0  0  0  0  0  0  0  0
   35.4780   30.4710   33.6800 C   0  0  0  0  0  0  0  0  0  0  0  0
   34.8030   30.6420   34.8830 C   0  0  0  0  0  0  0  0  0  0  0  0
   33.5360   30.1370   34.9690 N   0  0  0  0  0  0  0  0  0  0  0  0
   32.9190   29.4940   33.9680 C   0  0  0  0  0  0  0  0  0  0  0  0
   33.5830   29.3300   32.7990 N   0  0  0  0  0  0  0  0  0  0  0  0
   36.4710   30.8230   33.4970 H   0  0  0  0  0  0  0  0  0  0  0  0
   35.2750   31.1500   35.6900 H   0  0  0  0  0  0  0  0  0  0  0  0
   31.9140   29.1400   34.1560 H   0  0  0  0  0  0  0  0  0  0  0  0
   37.5210   26.9310   31.7700 O   0  0  0  0  0  0  0  0  0  0  0  0
   38.1540   27.0040   33.0180 C   0  0  0  0  0  0  0  0  0  0  0  0
   39.4840   26.8710   33.3540 C   0  0  0  0  0  0  0  0  0  0  0  0
   40.0960   26.6820   32.4970 H   0  0  0  0  0  0  0  0  0  0  0  0
   39.8380   26.9900   34.6700 C   0  0  0  0  0  3  0  0  0  0  0  0
   38.9200   27.2380   35.6710 C   0  0  0  0  0  0  0  0  0  0  0  0
   39.2430   27.3230   36.6820 H   0  0  0  0  0  0  0  0  0  0  0  0
   37.5720   27.3750   35.3410 C   0  0  0  0  0  0  0  0  0  0  0  0
   36.8950   27.5680   36.1580 H   0  0  0  0  0  0  0  0  0  0  0  0
   37.2160   27.2550   34.0220 C   0  0  0  0  0  3  0  0  0  0  0  0
  2  1  2  6  0  0  0
  2  5  1  0  0  0  0
  2 18  1  0  0  0  0
  3  4  1  0  0  0  0
  3  2  1  0  0  0  0
  6  5  1  0  0  0  0
  6  9  1  0  0  0  0
  7  6  1  0  0  0  0
  8  6  1  0  0  0  0
  9 14  2  0  0  0  0
  9 10  1  0  0  0  0
 10 11  2  0  0  0  0
 11 12  1  0  0  0  0
 11 16  1  0  0  0  0
 13 17  1  0  0  0  0
 13 12  2  0  0  0  0
 14 13  1  0  0  0  0
 15 10  1  0  0  0  0
 18 19  1  0  0  0  0
 19 20  2  0  0  0  0
 19 27  1  0  0  0  0
 20 22  1  0  0  0  0
 21 20  1  0  0  0  0
 22 23  2  0  0  0  0
 23 24  1  0  0  0  0
 25 23  1  0  0  0  0
 25 26  1  0  0  0  0
 27 25  2  0  0  0  0
M  END
>  <minimizedAffinity>
-4.46547127

$$$$

 OpenBabel03272504203D

 27 28  0  0  0  0  0  0  0  0999 V2000
   38.5970   22.1680   35.6430 O   0  0  0  0  0  0  0  0  0  0  0  0
   38.8320   23.3040   36.6240 P   0  0  2  0  0  0  0  0  0  0  0  0
   37.3990   23.4980   37.5110 O   0  0  0  0  0  0  0  0  0  0  0  0
   37.5430   24.1000   38.2790 H   0  0  0  0  0  0  0  0  0  0  0  0
   39.1850   24.7400   35.7940 O   0  0  0  0  0  0  0  0  0  0  0  0
   38.1430   25.6100   36.0460 C   0  0  0  0  0  0  0  0  0  0  0  0
   38.5340   26.4540   36.6510 H   0  0  0  0  0  0  0  0  0  0  0  0
   37.3000   25.1650   36.6170 H   0  0  0  0  0  0  0  0  0  0  0  0
   37.5550   26.1760   34.8050 C   0  0  0  0  0  0  0  0  0  0  0  0
   37.0980   27.5030   34.8350 C   0  0  0  0  0  0  0  0  0  0  0  0
   36.5470   28.0370   33.6760 C   0  0  0  0  0  0  0  0  0  0  0  0
   36.4880   27.2260   32.5780 N   0  0  0  0  0  0  0  0  0  0  0  0
   36.9270   25.9600   32.5610 C   0  0  0  0  0  0  0  0  0  0  0  0
   37.4630   25.4450   33.6930 N   0  0  0  0  0  0  0  0  0  0  0  0
   37.1960   28.0420   35.7540 H   0  0  0  0  0  0  0  0  0  0  0  0
   36.1910   29.0400   33.6700 H   0  0  0  0  0  0  0  0  0  0  0  0
   36.8270   25.4170   31.6300 H   0  0  0  0  0  0  0  0  0  0  0  0
   40.1120   22.8630   37.6490 O   0  0  0  0  0  0  0  0  0  0  0  0
   41.3560   22.5090   37.1090 C   0  0  0  0  0  0  0  0  0  0  0  0
   42.2740   23.2650   36.4130 C   0  0  0  0  0  0  0  0  0  0  0  0
   41.9470   24.2760   36.2860 H   0  0  0  0  0  0  0  0  0  0  0  0
   43.4290   22.6630   35.9930 C   0  0  0  0  0  3  0  0  0  0  0  0
   43.7090   21.3330   36.2380 C   0  0  0  0  0  0  0  0  0  0  0  0
   44.6210   20.9080   35.8910 H   0  0  0  0  0  0  0  0  0  0  0  0
   42.7860   20.5600   36.9430 C   0  0  0  0  0  0  0  0  0  0  0  0
   43.0510   19.5280   37.1090 H   0  0  0  0  0  0  0  0  0  0  0  0
   41.6290   21.1630   37.3640 C   0  0  0  0  0  3  0  0  0  0  0  0
  2  1  2  6  0  0  0
  2  3  1  0  0  0  0
  2 18  1  0  0  0  0
  3  4  1  0  0  0  0
  5  6  1  0  0  0  0
  5  2  1  0  0  0  0
  6  8  1  0  0  0  0
  6  7  1  0  0  0  0
  9 10  1  0  0  0  0
  9  6  1  0  0  0  0
 10 15  1  0  0  0  0
 11 10  2  0  0  0  0
 12 11  1  0  0  0  0
 13 12  2  0  0  0  0
 13 14  1  0  0  0  0
 14  9  2  0  0  0  0
 16 11  1  0  0  0  0
 17 13  1  0  0  0  0
 19 27  1  0  0  0  0
 19 18  1  0  0  0  0
 20 19  2  0  0  0  0
 21 20  1  0  0  0  0
 22 23  2  0  0  0  0
 22 20  1  0  0  0  0
 23 25  1  0  0  0  0
 24 23  1  0  0  0  0
 25 26  1  0  0  0  0
 25 27  2  0  0  0  0
M  END
>  <minimizedAffinity>
-4.45123005

$$$$

 OpenBabel03272504203D

 27 28  0  0  0  0  0  0  0  0999 V2000
   35.4960   25.5710   30.8150 O   0  0  0  0  0  0  0  0  0  0  0  0
   36.8630   25.1590   31.3340 P   0  0  2  0  0  0  0  0  0  0  0  0
   37.6490   24.3430   30.0710 O   0  0  0  0  0  0  0  0  0  0  0  0
   38.6010   24.2020   30.2860 H   0  0  0  0  0  0  0  0  0  0  0  0
   36.7030   24.1230   32.6670 O   0  0  0  0  0  0  0  0  0  0  0  0
   37.5640   23.0650   32.4520 C   0  0  0  0  0  0  0  0  0  0  0  0
   38.1700   22.9200   33.3700 H   0  0  0  0  0  0  0  0  0  0  0  0
   38.2760   23.2140   31.6140 H   0  0  0  0  0  0  0  0  0  0  0  0
   36.8510   21.7910   32.1750 C   0  0  0  0  0  0  0  0  0  0  0  0
   36.2040   21.1500   33.2420 C   0  0  0  0  0  0  0  0  0  0  0  0
   35.5360   19.9580   32.9870 C   0  0  0  0  0  0  0  0  0  0  0  0
   35.5570   19.4890   31.7040 N   0  0  0  0  0  0  0  0  0  0  0  0
   36.1800   20.1100   30.6920 C   0  0  0  0  0  0  0  0  0  0  0  0
   36.8280   21.2710   30.9470 N   0  0  0  0  0  0  0  0  0  0  0  0
   36.2550   21.6120   34.2050 H   0  0  0  0  0  0  0  0  0  0  0  0
   35.0360   19.4490   33.7770 H   0  0  0  0  0  0  0  0  0  0  0  0
   36.1250   19.6410   29.7190 H   0  0  0  0  0  0  0  0  0  0  0  0
   37.7170   26.5660   31.7550 O   0  0  0  0  0  0  0  0  0  0  0  0
   37.9510   26.8690   33.1040 C   0  0  0  0  0  0  0  0  0  0  0  0
   37.0990   27.3570   34.0700 C   0  0  0  0  0  0  0  0  0  0  0  0
   36.1120   27.5170   33.6900 H   0  0  0  0  0  0  0  0  0  0  0  0
   37.5940   27.5660   35.3290 C   0  0  0  0  0  3  0  0  0  0  0  0
   38.9070   27.3080   35.6670 C   0  0  0  0  0  0  0  0  0  0  0  0
   39.2470   27.4870   36.6600 H   0  0  0  0  0  0  0  0  0  0  0  0
   39.7780   26.8130   34.6960 C   0  0  0  0  0  0  0  0  0  0  0  0
   40.7920   26.6280   35.0100 H   0  0  0  0  0  0  0  0  0  0  0  0
   39.2820   26.6040   33.4340 C   0  0  0  0  0  3  0  0  0  0  0  0
  2  1  2  6  0  0  0
  2 18  1  0  0  0  0
  2  5  1  0  0  0  0
  3  4  1  0  0  0  0
  3  2  1  0  0  0  0
  6  5  1  0  0  0  0
  6  7  1  0  0  0  0
  8  6  1  0  0  0  0
  9  6  1  0  0  0  0
  9 10  1  0  0  0  0
 10 15  1  0  0  0  0
 11 10  2  0  0  0  0
 11 16  1  0  0  0  0
 12 11  1  0  0  0  0
 13 14  1  0  0  0  0
 13 12  2  0  0  0  0
 14  9  2  0  0  0  0
 17 13  1  0  0  0  0
 18 19  1  0  0  0  0
 19 27  2  0  0  0  0
 19 20  1  0  0  0  0
 20 22  2  0  0  0  0
 21 20  1  0  0  0  0
 22 23  1  0  0  0  0
 23 24  1  0  0  0  0
 25 26  1  0  0  0  0
 25 23  2  0  0  0  0
 27 25  1  0  0  0  0
M  END
>  <minimizedAffinity>
-4.44345093

$$$$

 OpenBabel03272504203D

 27 28  0  0  0  0  0  0  0  0999 V2000
   39.0400   27.2800   33.9840 O   0  0  0  0  0  0  0  0  0  0  0  0
   38.0020   26.9580   35.0460 P   0  0  2  0  0  0  0  0  0  0  0  0
   38.5890   27.5710   36.5160 O   0  0  0  0  0  0  0  0  0  0  0  0
   37.8880   27.5480   37.2080 H   0  0  0  0  0  0  0  0  0  0  0  0
   37.7880   25.2810   35.1760 O   0  0  0  0  0  0  0  0  0  0  0  0
   38.2270   24.9210   36.4350 C   0  0  0  0  0  0  0  0  0  0  0  0
   37.3520   24.5670   37.0190 H   0  0  0  0  0  0  0  0  0  0  0  0
   38.6900   25.7480   37.0140 H   0  0  0  0  0  0  0  0  0  0  0  0
   39.2250   23.8210   36.4040 C   0  0  0  0  0  0  0  0  0  0  0  0
   39.7900   23.4760   35.1670 C   0  0  0  0  0  0  0  0  0  0  0  0
   40.7240   22.4470   35.1330 C   0  0  0  0  0  0  0  0  0  0  0  0
   41.0290   21.8380   36.3170 N   0  0  0  0  0  0  0  0  0  0  0  0
   40.4820   22.1760   37.4930 C   0  0  0  0  0  0  0  0  0  0  0  0
   39.5730   23.1790   37.5190 N   0  0  0  0  0  0  0  0  0  0  0  0
   39.4740   24.0240   34.3040 H   0  0  0  0  0  0  0  0  0  0  0  0
   41.1690   22.1630   34.2090 H   0  0  0  0  0  0  0  0  0  0  0  0
   40.8050   21.6200   38.3640 H   0  0  0  0  0  0  0  0  0  0  0  0
   36.5490   27.7260   34.6190 O   0  0  0  0  0  0  0  0  0  0  0  0
   36.3740   28.2280   33.3220 C   0  0  0  0  0  0  0  0  0  0  0  0
   36.5220   27.6110   32.0990 C   0  0  0  0  0  0  0  0  0  0  0  0
   36.8190   26.5880   32.1990 H   0  0  0  0  0  0  0  0  0  0  0  0
   36.2840   28.3430   30.9680 C   0  0  0  0  0  3  0  0  0  0  0  0
   35.9030   29.6690   31.0030 C   0  0  0  0  0  0  0  0  0  0  0  0
   35.7290   30.1990   30.0960 H   0  0  0  0  0  0  0  0  0  0  0  0
   35.7500   30.3030   32.2360 C   0  0  0  0  0  0  0  0  0  0  0  0
   35.4510   31.3380   32.2110 H   0  0  0  0  0  0  0  0  0  0  0  0
   35.9890   29.5690   33.3710 C   0  0  0  0  0  3  0  0  0  0  0  0
  2  1  2  6  0  0  0
  2  5  1  0  0  0  0
  2  3  1  0  0  0  0
  3  4  1  0  0  0  0
  5  6  1  0  0  0  0
  6  8  1  0  0  0  0
  6  7  1  0  0  0  0
  9  6  1  0  0  0  0
  9 14  1  0  0  0  0
 10  9  2  0  0  0  0
 11 10  1  0  0  0  0
 11 12  2  0  0  0  0
 12 13  1  0  0  0  0
 13 14  2  0  0  0  0
 13 17  1  0  0  0  0
 15 10  1  0  0  0  0
 16 11  1  0  0  0  0
 18  2  1  0  0  0  0
 19 27  1  0  0  0  0
 19 18  1  0  0  0  0
 20 21  1  0  0  0  0
 20 19  2  0  0  0  0
 22 23  2  0  0  0  0
 22 20  1  0  0  0  0
 23 25  1  0  0  0  0
 24 23  1  0  0  0  0
 25 27  2  0  0  0  0
 26 25  1  0  0  0  0
M  END
>  <minimizedAffinity>
-4.42871714

$$$$

 OpenBabel03272504203D

 27 28  0  0  0  0  0  0  0  0999 V2000
   38.5400   27.1360   36.3530 O   0  0  0  0  0  0  0  0  0  0  0  0
   37.9260   26.6420   35.0540 P   0  0  2  0  0  0  0  0  0  0  0  0
   38.9730   27.1080   33.8020 O   0  0  0  0  0  0  0  0  0  0  0  0
   38.7200   26.6690   32.9560 H   0  0  0  0  0  0  0  0  0  0  0  0
   36.4030   27.3460   34.8120 O   0  0  0  0  0  0  0  0  0  0  0  0
   36.5370   28.2300   33.7600 C   0  0  0  0  0  0  0  0  0  0  0  0
   36.4830   27.6520   32.8140 H   0  0  0  0  0  0  0  0  0  0  0  0
   37.4980   28.7860   33.7450 H   0  0  0  0  0  0  0  0  0  0  0  0
   35.4600   29.2530   33.7270 C   0  0  0  0  0  0  0  0  0  0  0  0
   35.5120   30.2980   34.6610 C   0  0  0  0  0  0  0  0  0  0  0  0
   34.5070   31.2570   34.6340 C   0  0  0  0  0  0  0  0  0  0  0  0
   33.5280   31.1140   33.6910 N   0  0  0  0  0  0  0  0  0  0  0  0
   33.4890   30.1110   32.8030 C   0  0  0  0  0  0  0  0  0  0  0  0
   34.4720   29.1800   32.8350 N   0  0  0  0  0  0  0  0  0  0  0  0
   36.3270   30.3070   35.3540 H   0  0  0  0  0  0  0  0  0  0  0  0
   34.5190   32.0610   35.3320 H   0  0  0  0  0  0  0  0  0  0  0  0
   32.6630   30.1050   32.1030 H   0  0  0  0  0  0  0  0  0  0  0  0
   37.8090   24.9500   35.1330 O   0  0  0  0  0  0  0  0  0  0  0  0
   38.4500   24.2480   36.1630 C   0  0  0  0  0  0  0  0  0  0  0  0
   38.0530   24.0070   37.4610 C   0  0  0  0  0  0  0  0  0  0  0  0
   37.1000   24.4420   37.6750 H   0  0  0  0  0  0  0  0  0  0  0  0
   38.8820   23.2800   38.2700 C   0  0  0  0  0  3  0  0  0  0  0  0
   40.0960   22.7800   37.8410 C   0  0  0  0  0  0  0  0  0  0  0  0
   40.7080   22.2200   38.5080 H   0  0  0  0  0  0  0  0  0  0  0  0
   40.5060   23.0180   36.5290 C   0  0  0  0  0  0  0  0  0  0  0  0
   41.4600   22.6070   36.2430 H   0  0  0  0  0  0  0  0  0  0  0  0
   39.6750   23.7470   35.7170 C   0  0  0  0  0  3  0  0  0  0  0  0
  2 18  1  0  0  0  0
  2  1  2  1  0  0  0
  3  2  1  0  0  0  0
  4  3  1  0  0  0  0
  5  2  1  0  0  0  0
  6  5  1  0  0  0  0
  7  6  1  0  0  0  0
  8  6  1  0  0  0  0
  9  6  1  0  0  0  0
  9 10  1  0  0  0  0
 10 15  1  0  0  0  0
 11 10  2  0  0  0  0
 11 16  1  0  0  0  0
 12 11  1  0  0  0  0
 13 14  1  0  0  0  0
 13 12  2  0  0  0  0
 14  9  2  0  0  0  0
 17 13  1  0  0  0  0
 18 19  1  0  0  0  0
 19 20  1  0  0  0  0
 20 21  1  0  0  0  0
 20 22  2  0  0  0  0
 23 22  1  0  0  0  0
 23 24  1  0  0  0  0
 25 23  2  0  0  0  0
 26 25  1  0  0  0  0
 27 19  2  0  0  0  0
 27 25  1  0  0  0  0
M  END
>  <minimizedAffinity>
-4.40445852

$$$$

 OpenBabel03272504203D

 27 28  0  0  0  0  0  0  0  0999 V2000
   39.6860   27.1280   33.9580 O   0  0  0  0  0  0  0  0  0  0  0  0
   38.6710   26.6190   34.9670 P   0  0  2  0  0  0  0  0  0  0  0  0
   38.7470   27.6510   36.3120 O   0  0  0  0  0  0  0  0  0  0  0  0
   37.9960   27.4780   36.9260 H   0  0  0  0  0  0  0  0  0  0  0  0
   39.0530   25.0370   35.4440 O   0  0  0  0  0  0  0  0  0  0  0  0
   40.3520   24.8030   35.0420 C   0  0  0  0  0  0  0  0  0  0  0  0
   40.9520   25.7100   35.2640 H   0  0  0  0  0  0  0  0  0  0  0  0
   40.4680   24.5970   33.9570 H   0  0  0  0  0  0  0  0  0  0  0  0
   40.9790   23.6610   35.7540 C   0  0  0  0  0  0  0  0  0  0  0  0
   40.2330   23.0150   36.7530 C   0  0  0  0  0  0  0  0  0  0  0  0
   40.8160   21.9450   37.4220 C   0  0  0  0  0  0  0  0  0  0  0  0
   42.0850   21.5940   37.0590 N   0  0  0  0  0  0  0  0  0  0  0  0
   42.7880   22.2180   36.1030 C   0  0  0  0  0  0  0  0  0  0  0  0
   42.2150   23.2600   35.4550 N   0  0  0  0  0  0  0  0  0  0  0  0
   39.2470   23.3790   36.9520 H   0  0  0  0  0  0  0  0  0  0  0  0
   40.2750   21.4370   38.1850 H   0  0  0  0  0  0  0  0  0  0  0  0
   43.7850   21.8470   35.9040 H   0  0  0  0  0  0  0  0  0  0  0  0
   37.1330   26.6850   34.2520 O   0  0  0  0  0  0  0  0  0  0  0  0
   36.6320   27.9030   33.7720 C   0  0  0  0  0  0  0  0  0  0  0  0
   36.0220   28.9430   34.4400 C   0  0  0  0  0  0  0  0  0  0  0  0
   35.9360   28.7490   35.4890 H   0  0  0  0  0  0  0  0  0  0  0  0
   35.6230   30.0350   33.7190 C   0  0  0  0  0  3  0  0  0  0  0  0
   35.8070   30.1360   32.3550 C   0  0  0  0  0  0  0  0  0  0  0  0
   35.4790   31.0060   31.8360 H   0  0  0  0  0  0  0  0  0  0  0  0
   36.4230   29.0890   31.6690 C   0  0  0  0  0  0  0  0  0  0  0  0
   36.5440   29.2160   30.6060 H   0  0  0  0  0  0  0  0  0  0  0  0
   36.8230   27.9940   32.3920 C   0  0  0  0  0  3  0  0  0  0  0  0
  2  1  2  6  0  0  0
  2  5  1  0  0  0  0
  2  3  1  0  0  0  0
  3  4  1  0  0  0  0
  6  7  1  0  0  0  0
  6  5  1  0  0  0  0
  6  9  1  0  0  0  0
  8  6  1  0  0  0  0
  9 10  1  0  0  0  0
 10 15  1  0  0  0  0
 10 11  2  0  0  0  0
 11 16  1  0  0  0  0
 12 11  1  0  0  0  0
 13 12  2  0  0  0  0
 14  9  2  0  0  0  0
 14 13  1  0  0  0  0
 17 13  1  0  0  0  0
 18  2  1  0  0  0  0
 19 18  1  0  0  0  0
 19 20  1  0  0  0  0
 20 21  1  0  0  0  0
 22 20  2  0  0  0  0
 23 22  1  0  0  0  0
 24 23  1  0  0  0  0
 25 23  2  0  0  0  0
 25 27  1  0  0  0  0
 26 25  1  0  0  0  0
 27 19  2  0  0  0  0
M  END
>  <minimizedAffinity>
-4.38635635

$$$$

 OpenBabel03272504203D

 27 28  0  0  0  0  0  0  0  0999 V2000
   36.5290   23.0580   32.4600 O   0  0  0  0  0  0  0  0  0  0  0  0
   38.0210   23.2820   32.2840 P   0  0  2  0  0  0  0  0  0  0  0  0
   38.4640   22.5450   30.8210 O   0  0  0  0  0  0  0  0  0  0  0  0
   39.3810   22.8030   30.5650 H   0  0  0  0  0  0  0  0  0  0  0  0
   38.8820   22.5710   33.5600 O   0  0  0  0  0  0  0  0  0  0  0  0
   37.9670   22.3180   34.5630 C   0  0  0  0  0  0  0  0  0  0  0  0
   37.7150   21.2380   34.5370 H   0  0  0  0  0  0  0  0  0  0  0  0
   37.0130   22.8770   34.4660 H   0  0  0  0  0  0  0  0  0  0  0  0
   38.4980   22.6260   35.9160 C   0  0  0  0  0  0  0  0  0  0  0  0
   37.6860   23.3590   36.7940 C   0  0  0  0  0  0  0  0  0  0  0  0
   38.1780   23.6490   38.0600 C   0  0  0  0  0  0  0  0  0  0  0  0
   39.4310   23.1960   38.3660 N   0  0  0  0  0  0  0  0  0  0  0  0
   40.1980   22.4960   37.5180 C   0  0  0  0  0  0  0  0  0  0  0  0
   39.7120   22.2170   36.2860 N   0  0  0  0  0  0  0  0  0  0  0  0
   36.7210   23.6620   36.4440 H   0  0  0  0  0  0  0  0  0  0  0  0
   37.5850   24.2050   38.7480 H   0  0  0  0  0  0  0  0  0  0  0  0
   41.1730   22.1920   37.8760 H   0  0  0  0  0  0  0  0  0  0  0  0
   38.3020   24.9550   32.2170 O   0  0  0  0  0  0  0  0  0  0  0  0
   38.5300   25.6780   33.3960 C   0  0  0  0  0  0  0  0  0  0  0  0
   39.7060   25.9630   34.0550 C   0  0  0  0  0  0  0  0  0  0  0  0
   40.5560   25.5490   33.5550 H   0  0  0  0  0  0  0  0  0  0  0  0
   39.6450   26.7010   35.2050 C   0  0  0  0  0  3  0  0  0  0  0  0
   38.4580   27.1690   35.7300 C   0  0  0  0  0  0  0  0  0  0  0  0
   38.4600   27.7400   36.6290 H   0  0  0  0  0  0  0  0  0  0  0  0
   37.2610   26.8860   35.0710 C   0  0  0  0  0  0  0  0  0  0  0  0
   36.3620   27.2740   35.5200 H   0  0  0  0  0  0  0  0  0  0  0  0
   37.3220   26.1460   33.9170 C   0  0  0  0  0  3  0  0  0  0  0  0
  2  1  2  1  0  0  0
  2  5  1  0  0  0  0
  3  2  1  0  0  0  0
  4  3  1  0  0  0  0
  5  6  1  0  0  0  0
  6  9  1  0  0  0  0
  7  6  1  0  0  0  0
  8  6  1  0  0  0  0
  9 14  2  0  0  0  0
  9 10  1  0  0  0  0
 10 11  2  0  0  0  0
 11 12  1  0  0  0  0
 11 16  1  0  0  0  0
 13 17  1  0  0  0  0
 13 12  2  0  0  0  0
 14 13  1  0  0  0  0
 15 10  1  0  0  0  0
 18  2  1  0  0  0  0
 18 19  1  0  0  0  0
 19 27  2  0  0  0  0
 19 20  1  0  0  0  0
 20 22  2  0  0  0  0
 21 20  1  0  0  0  0
 22 23  1  0  0  0  0
 23 24  1  0  0  0  0
 25 26  1  0  0  0  0
 25 23  2  0  0  0  0
 27 25  1  0  0  0  0
M  END
>  <minimizedAffinity>
-4.37556458

$$$$
