
 OpenBabel03272506413D

 19 20  0  0  0  0  0  0  0  0999 V2000
   34.6150   28.9760   48.1560 S   0  0  0  0  0  0  0  0  0  0  0  0
   32.5680   30.8050   45.3150 C   0  0  0  0  0  0  0  0  0  0  0  0
   33.4160   30.7950   44.2000 C   0  0  0  0  0  0  0  0  0  0  0  0
   34.6780   30.2000   44.3190 C   0  0  0  0  0  0  0  0  0  0  0  0
   35.0190   29.6570   45.5250 N   0  0  0  0  0  0  0  0  0  0  0  0
   34.1840   29.6830   46.5730 C   0  0  0  0  0  0  0  0  0  0  0  0
   32.9730   30.2450   46.4810 N   0  0  0  0  0  0  0  0  0  0  0  0
   31.5820   31.2470   45.2880 H   0  0  0  0  0  0  0  0  0  0  0  0
   33.0570   31.2520   43.2830 H   0  0  0  0  0  0  0  0  0  0  0  0
   35.3330   30.1890   43.4690 H   0  0  0  0  0  0  0  0  0  0  0  0
   35.9900   29.8160   48.9210 C   0  0  0  0  0  0  0  0  0  0  0  0
   36.7370   30.8580   48.4260 C   0  0  0  0  0  0  0  0  0  0  0  0
   36.4180   31.1830   47.4390 H   0  0  0  0  0  0  0  0  0  0  0  0
   37.7720   31.3760   49.1790 C   0  0  0  0  0  0  0  0  0  0  0  0
   38.0610   30.8560   50.4220 C   0  0  0  0  0  0  0  0  0  0  0  0
   38.8640   31.2580   51.0070 H   0  0  0  0  0  0  0  0  0  0  0  0
   37.3270   29.8140   50.9380 C   0  0  0  0  0  0  0  0  0  0  0  0
   37.5840   29.4260   51.9290 H   0  0  0  0  0  0  0  0  0  0  0  0
   36.2830   29.2900   50.1790 C   0  0  0  0  0  0  0  0  0  0  0  0
  1 11  1  0  0  0  0
  2  7  1  0  0  0  0
  3  4  1  0  0  0  0
  3  2  2  0  0  0  0
  4  5  2  0  0  0  0
  5  6  1  0  0  0  0
  6  1  1  0  0  0  0
  7  6  2  0  0  0  0
  8  2  1  0  0  0  0
  9  3  1  0  0  0  0
 10  4  1  0  0  0  0
 11 19  1  0  0  0  0
 12 11  2  0  0  0  0
 12 14  1  0  0  0  0
 13 12  1  0  0  0  0
 14 15  2  0  0  0  0
 15 17  1  0  0  0  0
 15 16  1  0  0  0  0
 17 18  1  0  0  0  0
 19 17  2  0  0  0  0
M  END
>  <minimizedAffinity>
-4.14342022

>  <minimizedRMSD>
5.75664091

$$$$
