
 OpenBabel03262522583D

 25 27  0  0  0  0  0  0  0  0999 V2000
   37.4460   25.9470   33.0660 C   0  0  0  0  0  0  0  0  0  0  0  0
   37.6370   24.6620   32.5780 C   0  0  0  0  0  0  0  0  0  0  0  0
   38.0260   23.8490   33.6070 C   0  0  0  0  0  0  0  0  0  0  0  0
   38.0730   24.6350   34.7130 N   0  0  0  0  0  0  0  0  0  0  0  0
   37.7240   25.8730   34.3560 N   0  0  0  0  0  0  0  0  0  0  0  0
   37.4870   24.3870   31.5310 H   0  0  0  0  0  0  0  0  0  0  0  0
   38.2490   22.8090   33.5560 H   0  0  0  0  0  0  0  0  0  0  0  0
   36.8320   28.1740   30.2260 C   0  0  0  0  0  0  0  0  0  0  0  0
   36.2270   29.2970   30.8570 C   0  0  0  0  0  0  0  0  0  0  0  0
   36.0450   29.2640   32.2390 C   0  0  0  0  0  0  0  0  0  0  0  0
   36.4570   28.1580   32.9030 N   0  0  0  0  0  0  0  0  0  0  0  0
   37.0300   27.1010   32.2770 C   0  0  0  0  0  0  0  0  0  0  0  0
   37.2150   27.1110   30.9500 N   0  0  0  0  0  0  0  0  0  0  0  0
   36.9380   28.2780   29.1600 H   0  0  0  0  0  0  0  0  0  0  0  0
   35.9000   30.1790   30.3210 H   0  0  0  0  0  0  0  0  0  0  0  0
   35.5930   30.0820   32.7850 H   0  0  0  0  0  0  0  0  0  0  0  0
   38.4410   24.1510   35.9990 C   0  0  0  0  0  0  0  0  0  0  0  0
   39.4420   23.2340   36.2480 C   0  0  0  0  0  0  0  0  0  0  0  0
   39.9910   22.8530   35.3980 H   0  0  0  0  0  0  0  0  0  0  0  0
   39.7180   22.8280   37.5570 C   0  0  0  0  0  3  0  0  0  0  0  0
   39.0070   23.3240   38.6340 C   0  0  0  0  0  0  0  0  0  0  0  0
   39.2000   23.0270   39.6630 H   0  0  0  0  0  0  0  0  0  0  0  0
   38.0070   24.2360   38.4150 C   0  0  0  0  0  0  0  0  0  0  0  0
   37.4080   24.6670   39.2190 H   0  0  0  0  0  0  0  0  0  0  0  0
   37.7710   24.6050   37.1240 C   0  0  0  0  0  3  0  0  0  0  0  0
  1  5  2  0  0  0  0
  2  1  1  0  0  0  0
  2  3  2  0  0  0  0
  3  4  1  0  0  0  0
  4 17  1  0  0  0  0
  5  4  1  0  0  0  0
  6  2  1  0  0  0  0
  7  3  1  0  0  0  0
  8  9  2  0  0  0  0
  8 13  1  0  0  0  0
  9 10  1  0  0  0  0
 10 16  1  0  0  0  0
 10 11  2  0  0  0  0
 12 11  1  0  0  0  0
 12  1  1  0  0  0  0
 13 12  2  0  0  0  0
 14  8  1  0  0  0  0
 15  9  1  0  0  0  0
 17 18  2  0  0  0  0
 17 25  1  0  0  0  0
 18 20  1  0  0  0  0
 19 18  1  0  0  0  0
 20 21  2  0  0  0  0
 21 22  1  0  0  0  0
 23 21  1  0  0  0  0
 23 24  1  0  0  0  0
 25 23  2  0  0  0  0
M  END
>  <minimizedAffinity>
-4.94864845

$$$$

 OpenBabel03262522583D

 25 27  0  0  0  0  0  0  0  0999 V2000
   37.4460   26.0400   33.1090 C   0  0  0  0  0  0  0  0  0  0  0  0
   37.6880   24.7750   32.5910 C   0  0  0  0  0  0  0  0  0  0  0  0
   38.0840   23.9480   33.6070 C   0  0  0  0  0  0  0  0  0  0  0  0
   38.0830   24.7050   34.7330 N   0  0  0  0  0  0  0  0  0  0  0  0
   37.7000   25.9390   34.4020 N   0  0  0  0  0  0  0  0  0  0  0  0
   37.5680   24.5240   31.5350 H   0  0  0  0  0  0  0  0  0  0  0  0
   38.3420   22.9170   33.5330 H   0  0  0  0  0  0  0  0  0  0  0  0
   36.0780   29.3280   32.2600 C   0  0  0  0  0  0  0  0  0  0  0  0
   36.2030   29.3430   30.8420 C   0  0  0  0  0  0  0  0  0  0  0  0
   36.7520   28.2250   30.2130 C   0  0  0  0  0  0  0  0  0  0  0  0
   37.1370   27.1870   30.9930 N   0  0  0  0  0  0  0  0  0  0  0  0
   37.0070   27.2000   32.3420 C   0  0  0  0  0  0  0  0  0  0  0  0
   36.4820   28.2620   32.9680 N   0  0  0  0  0  0  0  0  0  0  0  0
   35.6450   30.2250   32.6680 H   0  0  0  0  0  0  0  0  0  0  0  0
   35.8930   30.1750   30.2240 H   0  0  0  0  0  0  0  0  0  0  0  0
   36.8760   28.1670   29.1400 H   0  0  0  0  0  0  0  0  0  0  0  0
   38.4410   24.1980   36.0130 C   0  0  0  0  0  0  0  0  0  0  0  0
   39.4510   23.2910   36.2560 C   0  0  0  0  0  0  0  0  0  0  0  0
   40.0170   22.9350   35.4060 H   0  0  0  0  0  0  0  0  0  0  0  0
   39.7170   22.8610   37.5600 C   0  0  0  0  0  3  0  0  0  0  0  0
   38.9850   23.3230   38.6370 C   0  0  0  0  0  0  0  0  0  0  0  0
   39.1680   23.0060   39.6620 H   0  0  0  0  0  0  0  0  0  0  0  0
   37.9750   24.2250   38.4250 C   0  0  0  0  0  0  0  0  0  0  0  0
   37.3590   24.6300   39.2300 H   0  0  0  0  0  0  0  0  0  0  0  0
   37.7500   24.6180   37.1390 C   0  0  0  0  0  3  0  0  0  0  0  0
  1  5  2  0  0  0  0
  2  1  1  0  0  0  0
  2  3  2  0  0  0  0
  3  4  1  0  0  0  0
  4 17  1  0  0  0  0
  5  4  1  0  0  0  0
  6  2  1  0  0  0  0
  7  3  1  0  0  0  0
  8 14  1  0  0  0  0
  8 13  1  0  0  0  0
  9  8  2  0  0  0  0
 10  9  1  0  0  0  0
 10 11  2  0  0  0  0
 11 12  1  0  0  0  0
 12 13  2  0  0  0  0
 12  1  1  0  0  0  0
 15  9  1  0  0  0  0
 16 10  1  0  0  0  0
 17 18  2  0  0  0  0
 17 25  1  0  0  0  0
 18 20  1  0  0  0  0
 19 18  1  0  0  0  0
 20 21  2  0  0  0  0
 21 22  1  0  0  0  0
 23 21  1  0  0  0  0
 23 24  1  0  0  0  0
 25 23  2  0  0  0  0
M  END
>  <minimizedAffinity>
-4.93901205

$$$$

 OpenBabel03262522583D

 25 27  0  0  0  0  0  0  0  0999 V2000
   37.0990   26.9190   33.8330 C   0  0  0  0  0  0  0  0  0  0  0  0
   37.3070   25.8440   32.9810 C   0  0  0  0  0  0  0  0  0  0  0  0
   37.8490   24.8100   33.6950 C   0  0  0  0  0  0  0  0  0  0  0  0
   37.9690   25.2540   34.9720 N   0  0  0  0  0  0  0  0  0  0  0  0
   37.5160   26.5080   35.0180 N   0  0  0  0  0  0  0  0  0  0  0  0
   37.0630   25.8630   31.9160 H   0  0  0  0  0  0  0  0  0  0  0  0
   38.1220   23.8470   33.3270 H   0  0  0  0  0  0  0  0  0  0  0  0
   36.1560   29.8420   31.8410 C   0  0  0  0  0  0  0  0  0  0  0  0
   35.4630   30.6390   32.7960 C   0  0  0  0  0  0  0  0  0  0  0  0
   35.3360   30.1540   34.0970 C   0  0  0  0  0  0  0  0  0  0  0  0
   35.8830   28.9480   34.3780 N   0  0  0  0  0  0  0  0  0  0  0  0
   36.5380   28.2090   33.4490 C   0  0  0  0  0  0  0  0  0  0  0  0
   36.6730   28.6540   32.1930 N   0  0  0  0  0  0  0  0  0  0  0  0
   36.2110   30.2860   30.8620 H   0  0  0  0  0  0  0  0  0  0  0  0
   35.0280   31.6020   32.5660 H   0  0  0  0  0  0  0  0  0  0  0  0
   34.8220   30.7060   34.8740 H   0  0  0  0  0  0  0  0  0  0  0  0
   38.4980   24.4600   36.0270 C   0  0  0  0  0  0  0  0  0  0  0  0
   37.9430   24.3320   37.2830 C   0  0  0  0  0  0  0  0  0  0  0  0
   37.0320   24.8800   37.4830 H   0  0  0  0  0  0  0  0  0  0  0  0
   38.5510   23.5210   38.2460 C   0  0  0  0  0  3  0  0  0  0  0  0
   39.7160   22.8280   37.9770 C   0  0  0  0  0  0  0  0  0  0  0  0
   40.2110   22.1900   38.7050 H   0  0  0  0  0  0  0  0  0  0  0  0
   40.2900   22.9360   36.7360 C   0  0  0  0  0  0  0  0  0  0  0  0
   41.2080   22.4170   36.4580 H   0  0  0  0  0  0  0  0  0  0  0  0
   39.6640   23.7370   35.8280 C   0  0  0  0  0  3  0  0  0  0  0  0
  1  5  2  0  0  0  0
  2  3  2  0  0  0  0
  2  1  1  0  0  0  0
  3  4  1  0  0  0  0
  4  5  1  0  0  0  0
  4 17  1  0  0  0  0
  6  2  1  0  0  0  0
  7  3  1  0  0  0  0
  8 13  2  0  0  0  0
  8  9  1  0  0  0  0
  9 10  2  0  0  0  0
 10 11  1  0  0  0  0
 10 16  1  0  0  0  0
 12  1  1  0  0  0  0
 12 11  2  0  0  0  0
 13 12  1  0  0  0  0
 14  8  1  0  0  0  0
 15  9  1  0  0  0  0
 17 18  1  0  0  0  0
 18 19  1  0  0  0  0
 18 20  2  0  0  0  0
 21 20  1  0  0  0  0
 21 22  1  0  0  0  0
 23 21  2  0  0  0  0
 24 23  1  0  0  0  0
 25 17  2  0  0  0  0
 25 23  1  0  0  0  0
M  END
>  <minimizedAffinity>
-4.84060097

$$$$

 OpenBabel03262522583D

 25 27  0  0  0  0  0  0  0  0999 V2000
   37.9310   25.2820   34.9350 C   0  0  0  0  0  0  0  0  0  0  0  0
   37.8070   24.8700   33.6150 C   0  0  0  0  0  0  0  0  0  0  0  0
   37.2780   25.8950   32.8790 C   0  0  0  0  0  0  0  0  0  0  0  0
   37.0810   26.9210   33.7450 N   0  0  0  0  0  0  0  0  0  0  0  0
   37.4790   26.5230   34.9550 N   0  0  0  0  0  0  0  0  0  0  0  0
   38.0980   23.8780   33.2640 H   0  0  0  0  0  0  0  0  0  0  0  0
   37.0620   25.8930   31.8350 H   0  0  0  0  0  0  0  0  0  0  0  0
   40.0160   22.9600   36.8490 C   0  0  0  0  0  0  0  0  0  0  0  0
   39.3830   22.9770   38.1240 C   0  0  0  0  0  0  0  0  0  0  0  0
   38.2590   23.7840   38.2960 C   0  0  0  0  0  0  0  0  0  0  0  0
   37.8330   24.5080   37.2330 N   0  0  0  0  0  0  0  0  0  0  0  0
   38.4550   24.4720   36.0290 C   0  0  0  0  0  0  0  0  0  0  0  0
   39.5360   23.7040   35.8410 N   0  0  0  0  0  0  0  0  0  0  0  0
   40.8740   22.3120   36.7980 H   0  0  0  0  0  0  0  0  0  0  0  0
   39.7280   22.3970   38.9700 H   0  0  0  0  0  0  0  0  0  0  0  0
   37.7280   23.8470   39.2370 H   0  0  0  0  0  0  0  0  0  0  0  0
   36.5390   28.1770   33.3560 C   0  0  0  0  0  0  0  0  0  0  0  0
   36.5860   28.7040   32.0810 C   0  0  0  0  0  0  0  0  0  0  0  0
   37.0740   28.1160   31.3160 H   0  0  0  0  0  0  0  0  0  0  0  0
   36.0180   29.9530   31.8120 C   0  0  0  0  0  3  0  0  0  0  0  0
   35.3980   30.6950   32.8000 C   0  0  0  0  0  0  0  0  0  0  0  0
   34.9480   31.6690   32.6200 H   0  0  0  0  0  0  0  0  0  0  0  0
   35.3370   30.1950   34.0750 C   0  0  0  0  0  0  0  0  0  0  0  0
   34.8640   30.7280   34.9010 H   0  0  0  0  0  0  0  0  0  0  0  0
   35.9030   28.9750   34.2940 C   0  0  0  0  0  3  0  0  0  0  0  0
  1  5  2  0  0  0  0
  1 12  1  0  0  0  0
  2  1  1  0  0  0  0
  3  2  2  0  0  0  0
  3  4  1  0  0  0  0
  4  5  1  0  0  0  0
  6  2  1  0  0  0  0
  7  3  1  0  0  0  0
  8  9  1  0  0  0  0
  9 10  2  0  0  0  0
  9 15  1  0  0  0  0
 10 16  1  0  0  0  0
 11 10  1  0  0  0  0
 12 11  2  0  0  0  0
 13 12  1  0  0  0  0
 13  8  2  0  0  0  0
 14  8  1  0  0  0  0
 17  4  1  0  0  0  0
 17 25  1  0  0  0  0
 18 17  2  0  0  0  0
 19 18  1  0  0  0  0
 20 18  1  0  0  0  0
 20 21  2  0  0  0  0
 21 23  1  0  0  0  0
 22 21  1  0  0  0  0
 23 25  2  0  0  0  0
 23 24  1  0  0  0  0
M  END
>  <minimizedAffinity>
-4.8383007

$$$$

 OpenBabel03262522583D

 25 27  0  0  0  0  0  0  0  0999 V2000
   37.9380   25.2960   34.9640 C   0  0  0  0  0  0  0  0  0  0  0  0
   37.8290   24.9060   33.6370 C   0  0  0  0  0  0  0  0  0  0  0  0
   37.2880   25.9350   32.9150 C   0  0  0  0  0  0  0  0  0  0  0  0
   37.0690   26.9420   33.7990 N   0  0  0  0  0  0  0  0  0  0  0  0
   37.4660   26.5290   35.0030 N   0  0  0  0  0  0  0  0  0  0  0  0
   38.1390   23.9250   33.2700 H   0  0  0  0  0  0  0  0  0  0  0  0
   37.0780   25.9480   31.8710 H   0  0  0  0  0  0  0  0  0  0  0  0
   40.0420   22.9660   36.8470 C   0  0  0  0  0  0  0  0  0  0  0  0
   39.4090   22.9600   38.1220 C   0  0  0  0  0  0  0  0  0  0  0  0
   38.2770   23.7540   38.3040 C   0  0  0  0  0  0  0  0  0  0  0  0
   37.8450   24.4880   37.2510 N   0  0  0  0  0  0  0  0  0  0  0  0
   38.4680   24.4760   36.0480 C   0  0  0  0  0  0  0  0  0  0  0  0
   39.5570   23.7200   35.8490 N   0  0  0  0  0  0  0  0  0  0  0  0
   40.9070   22.3270   36.7880 H   0  0  0  0  0  0  0  0  0  0  0  0
   39.7580   22.3700   38.9590 H   0  0  0  0  0  0  0  0  0  0  0  0
   37.7440   23.7980   39.2450 H   0  0  0  0  0  0  0  0  0  0  0  0
   36.5080   28.1960   33.4280 C   0  0  0  0  0  0  0  0  0  0  0  0
   35.8430   29.0540   34.2800 C   0  0  0  0  0  0  0  0  0  0  0  0
   35.7390   28.7500   35.3120 H   0  0  0  0  0  0  0  0  0  0  0  0
   35.3320   30.2650   33.8050 C   0  0  0  0  0  3  0  0  0  0  0  0
   35.4720   30.6410   32.4820 C   0  0  0  0  0  0  0  0  0  0  0  0
   35.0840   31.5770   32.0840 H   0  0  0  0  0  0  0  0  0  0  0  0
   36.1280   29.8080   31.6130 C   0  0  0  0  0  0  0  0  0  0  0  0
   36.2730   30.0430   30.5580 H   0  0  0  0  0  0  0  0  0  0  0  0
   36.6110   28.6370   32.1180 C   0  0  0  0  0  3  0  0  0  0  0  0
  1  5  2  0  0  0  0
  1 12  1  0  0  0  0
  2  1  1  0  0  0  0
  3  2  2  0  0  0  0
  3  4  1  0  0  0  0
  4  5  1  0  0  0  0
  6  2  1  0  0  0  0
  7  3  1  0  0  0  0
  8  9  1  0  0  0  0
  9 10  2  0  0  0  0
  9 15  1  0  0  0  0
 10 16  1  0  0  0  0
 11 10  1  0  0  0  0
 12 11  2  0  0  0  0
 13 12  1  0  0  0  0
 13  8  2  0  0  0  0
 14  8  1  0  0  0  0
 17  4  1  0  0  0  0
 17 18  1  0  0  0  0
 18 19  1  0  0  0  0
 20 18  2  0  0  0  0
 21 20  1  0  0  0  0
 22 21  1  0  0  0  0
 23 25  1  0  0  0  0
 23 21  2  0  0  0  0
 24 23  1  0  0  0  0
 25 17  2  0  0  0  0
M  END
>  <minimizedAffinity>
-4.82682753

$$$$

 OpenBabel03262522583D

 25 27  0  0  0  0  0  0  0  0999 V2000
   36.2390   28.1750   32.6220 C   0  0  0  0  0  0  0  0  0  0  0  0
   36.1690   29.3170   31.8360 C   0  0  0  0  0  0  0  0  0  0  0  0
   35.7150   30.3560   32.6020 C   0  0  0  0  0  0  0  0  0  0  0  0
   35.5100   29.8490   33.8440 N   0  0  0  0  0  0  0  0  0  0  0  0
   35.8300   28.5540   33.8200 N   0  0  0  0  0  0  0  0  0  0  0  0
   36.4430   29.3380   30.7790 H   0  0  0  0  0  0  0  0  0  0  0  0
   35.5530   31.3620   32.2900 H   0  0  0  0  0  0  0  0  0  0  0  0
   38.3200   25.2260   32.0130 C   0  0  0  0  0  0  0  0  0  0  0  0
   37.4320   24.3820   31.2870 C   0  0  0  0  0  0  0  0  0  0  0  0
   36.1430   24.8460   31.0250 C   0  0  0  0  0  0  0  0  0  0  0  0
   35.8110   26.0770   31.4790 N   0  0  0  0  0  0  0  0  0  0  0  0
   36.6760   26.8600   32.1680 C   0  0  0  0  0  0  0  0  0  0  0  0
   37.9190   26.4360   32.4320 N   0  0  0  0  0  0  0  0  0  0  0  0
   39.2940   24.7970   32.1740 H   0  0  0  0  0  0  0  0  0  0  0  0
   37.7040   23.3990   30.9270 H   0  0  0  0  0  0  0  0  0  0  0  0
   35.4160   24.2590   30.4780 H   0  0  0  0  0  0  0  0  0  0  0  0
   35.0330   30.6270   34.9350 C   0  0  0  0  0  0  0  0  0  0  0  0
   35.7920   31.5090   35.6760 C   0  0  0  0  0  0  0  0  0  0  0  0
   36.8340   31.6180   35.4070 H   0  0  0  0  0  0  0  0  0  0  0  0
   35.2170   32.2240   36.7310 C   0  0  0  0  0  3  0  0  0  0  0  0
   33.8840   32.0740   37.0650 C   0  0  0  0  0  0  0  0  0  0  0  0
   33.4090   32.6160   37.8800 H   0  0  0  0  0  0  0  0  0  0  0  0
   33.1060   31.2040   36.3450 C   0  0  0  0  0  0  0  0  0  0  0  0
   32.0480   31.0370   36.5560 H   0  0  0  0  0  0  0  0  0  0  0  0
   33.7060   30.5270   35.3260 C   0  0  0  0  0  3  0  0  0  0  0  0
  1  5  2  0  0  0  0
  2  3  2  0  0  0  0
  2  1  1  0  0  0  0
  3  4  1  0  0  0  0
  4 17  1  0  0  0  0
  5  4  1  0  0  0  0
  6  2  1  0  0  0  0
  7  3  1  0  0  0  0
  8 14  1  0  0  0  0
  8 13  1  0  0  0  0
  9  8  2  0  0  0  0
 10  9  1  0  0  0  0
 10 11  2  0  0  0  0
 11 12  1  0  0  0  0
 12 13  2  0  0  0  0
 12  1  1  0  0  0  0
 15  9  1  0  0  0  0
 16 10  1  0  0  0  0
 17 25  2  0  0  0  0
 17 18  1  0  0  0  0
 18 20  2  0  0  0  0
 19 18  1  0  0  0  0
 20 21  1  0  0  0  0
 21 22  1  0  0  0  0
 23 24  1  0  0  0  0
 23 21  2  0  0  0  0
 25 23  1  0  0  0  0
M  END
>  <minimizedAffinity>
-4.62386036

$$$$

 OpenBabel03262522583D

 25 27  0  0  0  0  0  0  0  0999 V2000
   39.1450   25.7560   34.9730 C   0  0  0  0  0  0  0  0  0  0  0  0
   40.3050   26.4460   34.6470 C   0  0  0  0  0  0  0  0  0  0  0  0
   40.0720   27.2040   33.5330 C   0  0  0  0  0  0  0  0  0  0  0  0
   38.7800   26.9760   33.1830 N   0  0  0  0  0  0  0  0  0  0  0  0
   38.2610   26.1130   34.0590 N   0  0  0  0  0  0  0  0  0  0  0  0
   41.2330   26.3670   35.2180 H   0  0  0  0  0  0  0  0  0  0  0  0
   40.7620   27.8460   33.0350 H   0  0  0  0  0  0  0  0  0  0  0  0
   37.9370   24.2440   38.0810 C   0  0  0  0  0  0  0  0  0  0  0  0
   38.7560   23.0840   38.1830 C   0  0  0  0  0  0  0  0  0  0  0  0
   39.7010   22.8490   37.1840 C   0  0  0  0  0  0  0  0  0  0  0  0
   39.7840   23.7440   36.1710 N   0  0  0  0  0  0  0  0  0  0  0  0
   38.9910   24.8410   36.0990 C   0  0  0  0  0  0  0  0  0  0  0  0
   38.0770   25.0870   37.0460 N   0  0  0  0  0  0  0  0  0  0  0  0
   37.2360   24.3540   38.8900 H   0  0  0  0  0  0  0  0  0  0  0  0
   38.6850   22.3730   38.9950 H   0  0  0  0  0  0  0  0  0  0  0  0
   40.3570   21.9890   37.1970 H   0  0  0  0  0  0  0  0  0  0  0  0
   38.1560   27.5890   32.0620 C   0  0  0  0  0  0  0  0  0  0  0  0
   36.8830   28.1230   32.0520 C   0  0  0  0  0  0  0  0  0  0  0  0
   36.3140   28.0720   32.9700 H   0  0  0  0  0  0  0  0  0  0  0  0
   36.3700   28.7040   30.8890 C   0  0  0  0  0  3  0  0  0  0  0  0
   37.1080   28.7620   29.7220 C   0  0  0  0  0  0  0  0  0  0  0  0
   36.7350   29.2070   28.8020 H   0  0  0  0  0  0  0  0  0  0  0  0
   38.3760   28.2390   29.7030 C   0  0  0  0  0  0  0  0  0  0  0  0
   39.0120   28.2520   28.8170 H   0  0  0  0  0  0  0  0  0  0  0  0
   38.8380   27.6830   30.8590 C   0  0  0  0  0  3  0  0  0  0  0  0
  1 12  1  0  0  0  0
  2  1  1  0  0  0  0
  2  6  1  0  0  0  0
  3  2  2  0  0  0  0
  4  3  1  0  0  0  0
  4  5  1  0  0  0  0
  5  1  2  0  0  0  0
  7  3  1  0  0  0  0
  8  9  1  0  0  0  0
  8 14  1  0  0  0  0
  9 15  1  0  0  0  0
 10 16  1  0  0  0  0
 10  9  2  0  0  0  0
 11 10  1  0  0  0  0
 12 11  2  0  0  0  0
 12 13  1  0  0  0  0
 13  8  2  0  0  0  0
 17  4  1  0  0  0  0
 18 17  1  0  0  0  0
 18 19  1  0  0  0  0
 20 18  2  0  0  0  0
 21 20  1  0  0  0  0
 22 21  1  0  0  0  0
 23 21  2  0  0  0  0
 23 25  1  0  0  0  0
 24 23  1  0  0  0  0
 25 17  2  0  0  0  0
M  END
>  <minimizedAffinity>
-4.57043886

$$$$

 OpenBabel03262522583D

 25 27  0  0  0  0  0  0  0  0999 V2000
   38.2090   25.1890   33.5540 C   0  0  0  0  0  0  0  0  0  0  0  0
   38.9560   26.2470   34.0530 C   0  0  0  0  0  0  0  0  0  0  0  0
   39.9030   25.7570   34.9100 C   0  0  0  0  0  0  0  0  0  0  0  0
   39.7310   24.4100   34.9330 N   0  0  0  0  0  0  0  0  0  0  0  0
   38.7190   24.1090   34.1170 N   0  0  0  0  0  0  0  0  0  0  0  0
   38.7820   27.2900   33.7770 H   0  0  0  0  0  0  0  0  0  0  0  0
   40.6300   26.3150   35.4530 H   0  0  0  0  0  0  0  0  0  0  0  0
   35.6180   26.6130   31.3950 C   0  0  0  0  0  0  0  0  0  0  0  0
   35.0250   25.4460   30.8360 C   0  0  0  0  0  0  0  0  0  0  0  0
   35.5280   24.2010   31.2120 C   0  0  0  0  0  0  0  0  0  0  0  0
   36.5570   24.1760   32.0920 N   0  0  0  0  0  0  0  0  0  0  0  0
   37.1030   25.3040   32.6100 C   0  0  0  0  0  0  0  0  0  0  0  0
   36.6360   26.5110   32.2630 N   0  0  0  0  0  0  0  0  0  0  0  0
   35.1730   27.5330   31.0560 H   0  0  0  0  0  0  0  0  0  0  0  0
   34.2030   25.4730   30.1330 H   0  0  0  0  0  0  0  0  0  0  0  0
   35.1260   23.2730   30.8270 H   0  0  0  0  0  0  0  0  0  0  0  0
   40.5330   23.5350   35.7160 C   0  0  0  0  0  0  0  0  0  0  0  0
   40.0520   22.6040   36.6130 C   0  0  0  0  0  0  0  0  0  0  0  0
   38.9800   22.5320   36.7310 H   0  0  0  0  0  0  0  0  0  0  0  0
   40.9360   21.7930   37.3320 C   0  0  0  0  0  3  0  0  0  0  0  0
   42.3050   21.8960   37.1730 C   0  0  0  0  0  0  0  0  0  0  0  0
   43.0170   21.2800   37.7190 H   0  0  0  0  0  0  0  0  0  0  0  0
   42.8110   22.8140   36.2890 C   0  0  0  0  0  0  0  0  0  0  0  0
   43.8800   22.9470   36.1150 H   0  0  0  0  0  0  0  0  0  0  0  0
   41.9140   23.5830   35.6080 C   0  0  0  0  0  3  0  0  0  0  0  0
  1  2  1  0  0  0  0
  1  5  2  0  0  0  0
  2  3  2  0  0  0  0
  3  4  1  0  0  0  0
  3  7  1  0  0  0  0
  4 17  1  0  0  0  0
  5  4  1  0  0  0  0
  6  2  1  0  0  0  0
  8 13  1  0  0  0  0
  9 10  1  0  0  0  0
  9  8  2  0  0  0  0
 10 11  2  0  0  0  0
 11 12  1  0  0  0  0
 12  1  1  0  0  0  0
 13 12  2  0  0  0  0
 14  8  1  0  0  0  0
 15  9  1  0  0  0  0
 16 10  1  0  0  0  0
 17 18  1  0  0  0  0
 18 19  1  0  0  0  0
 18 20  2  0  0  0  0
 21 20  1  0  0  0  0
 21 22  1  0  0  0  0
 23 21  2  0  0  0  0
 24 23  1  0  0  0  0
 25 17  2  0  0  0  0
 25 23  1  0  0  0  0
M  END
>  <minimizedAffinity>
-4.54708815

$$$$

 OpenBabel03262522583D

 25 27  0  0  0  0  0  0  0  0999 V2000
   36.6760   22.4340   32.2670 C   0  0  0  0  0  0  0  0  0  0  0  0
   36.1940   23.4750   31.4850 C   0  0  0  0  0  0  0  0  0  0  0  0
   36.6470   24.6600   31.9960 C   0  0  0  0  0  0  0  0  0  0  0  0
   37.3970   24.3420   33.0820 N   0  0  0  0  0  0  0  0  0  0  0  0
   37.3930   23.0140   33.2130 N   0  0  0  0  0  0  0  0  0  0  0  0
   35.5590   23.3250   30.6090 H   0  0  0  0  0  0  0  0  0  0  0  0
   36.4520   25.6390   31.6210 H   0  0  0  0  0  0  0  0  0  0  0  0
   36.5470   19.1270   30.7010 C   0  0  0  0  0  0  0  0  0  0  0  0
   35.8860   18.3540   31.6980 C   0  0  0  0  0  0  0  0  0  0  0  0
   35.5020   18.9850   32.8810 C   0  0  0  0  0  0  0  0  0  0  0  0
   35.7820   20.3040   33.0120 N   0  0  0  0  0  0  0  0  0  0  0  0
   36.4130   21.0160   32.0470 C   0  0  0  0  0  0  0  0  0  0  0  0
   36.7910   20.4310   30.9020 N   0  0  0  0  0  0  0  0  0  0  0  0
   36.8090   18.5680   29.8200 H   0  0  0  0  0  0  0  0  0  0  0  0
   35.6650   17.3010   31.5870 H   0  0  0  0  0  0  0  0  0  0  0  0
   34.9960   18.4600   33.6800 H   0  0  0  0  0  0  0  0  0  0  0  0
   38.0470   25.3140   33.8920 C   0  0  0  0  0  0  0  0  0  0  0  0
   39.4120   25.4320   34.0530 C   0  0  0  0  0  0  0  0  0  0  0  0
   40.0400   24.7310   33.5200 H   0  0  0  0  0  0  0  0  0  0  0  0
   39.9430   26.4290   34.8780 C   0  0  0  0  0  3  0  0  0  0  0  0
   39.1290   27.3190   35.5530 C   0  0  0  0  0  0  0  0  0  0  0  0
   39.5130   28.1040   36.2010 H   0  0  0  0  0  0  0  0  0  0  0  0
   37.7680   27.2230   35.4120 C   0  0  0  0  0  0  0  0  0  0  0  0
   37.0690   27.8930   35.9160 H   0  0  0  0  0  0  0  0  0  0  0  0
   37.2930   26.2380   34.5980 C   0  0  0  0  0  3  0  0  0  0  0  0
  1  5  2  0  0  0  0
  2  3  2  0  0  0  0
  2  1  1  0  0  0  0
  3  4  1  0  0  0  0
  4  5  1  0  0  0  0
  4 17  1  0  0  0  0
  6  2  1  0  0  0  0
  7  3  1  0  0  0  0
  8 13  2  0  0  0  0
  8  9  1  0  0  0  0
  9 10  2  0  0  0  0
 10 11  1  0  0  0  0
 10 16  1  0  0  0  0
 12  1  1  0  0  0  0
 12 11  2  0  0  0  0
 13 12  1  0  0  0  0
 14  8  1  0  0  0  0
 15  9  1  0  0  0  0
 17 18  2  0  0  0  0
 17 25  1  0  0  0  0
 18 20  1  0  0  0  0
 19 18  1  0  0  0  0
 20 21  2  0  0  0  0
 21 22  1  0  0  0  0
 23 21  1  0  0  0  0
 23 24  1  0  0  0  0
 25 23  2  0  0  0  0
M  END
>  <minimizedAffinity>
-4.51572752

$$$$
