
 OpenBabel03272509403D

 35 37  0  0  0  0  0  0  0  0999 V2000
   37.0510   30.9640   49.0700 C   0  0  0  0  0  0  0  0  0  0  0  0
   36.7760   31.8850   50.0850 C   0  0  0  0  0  0  0  0  0  0  0  0
   37.3720   33.1300   50.1270 C   0  0  0  0  0  0  0  0  0  0  0  0
   38.2830   33.4970   49.1280 C   0  0  0  0  0  0  0  0  0  0  0  0
   38.5400   32.5800   48.1400 C   0  0  0  0  0  0  0  0  0  0  0  0
   37.9310   31.3380   48.1190 C   0  0  0  0  0  0  0  0  0  0  0  0
   36.0810   31.6590   50.8830 H   0  0  0  0  0  0  0  0  0  0  0  0
   37.1450   33.8260   50.9190 H   0  0  0  0  0  0  0  0  0  0  0  0
   38.7350   34.4770   49.1860 H   0  0  0  0  0  0  0  0  0  0  0  0
   39.2530   32.9440   47.4120 H   0  0  0  0  0  0  0  0  0  0  0  0
   36.3760   29.6790   49.1080 C   0  0  0  0  0  0  0  0  0  0  0  0
   36.9180   28.8130   49.8820 O   0  0  0  0  0  0  0  0  0  0  0  0
   33.6070   30.1640   46.8190 C   0  0  0  0  0  0  0  0  0  0  0  0
   32.9320   28.9390   46.8350 C   0  0  0  0  0  0  0  0  0  0  0  0
   33.4340   27.9450   47.6370 C   0  0  0  0  0  0  0  0  0  0  0  0
   34.5540   28.1750   48.3810 N   0  0  0  0  0  0  0  0  0  0  0  0
   35.1720   29.3410   48.3470 C   0  0  0  0  0  0  0  0  0  0  0  0
   34.6870   30.3150   47.5660 N   0  0  0  0  0  0  0  0  0  0  0  0
   33.1640   30.9010   46.1700 H   0  0  0  0  0  0  0  0  0  0  0  0
   32.0590   28.6610   46.2970 H   0  0  0  0  0  0  0  0  0  0  0  0
   33.0030   26.9630   47.7320 H   0  0  0  0  0  0  0  0  0  0  0  0
   38.3160   30.4980   47.0130 C   0  0  0  0  0  3  0  0  0  0  0  0
   39.0490   30.8540   45.9680 C   0  0  0  0  0  3  0  0  0  0  0  0
   39.5080   30.1010   44.7870 C   0  0  0  0  0  0  0  0  0  0  0  0
   40.4680   30.4620   44.3780 H   0  0  0  0  0  0  0  0  0  0  0  0
   39.6890   29.0500   45.1050 H   0  0  0  0  0  0  0  0  0  0  0  0
   38.4420   30.0290   43.7320 C   0  0  0  0  0  0  0  0  0  0  0  0
   38.1210   28.8200   43.1550 C   0  0  0  0  0  0  0  0  0  0  0  0
   38.6120   27.8890   43.4300 H   0  0  0  0  0  0  0  0  0  0  0  0
   37.1330   28.7300   42.1700 C   0  0  0  0  0  3  0  0  0  0  0  0
   36.5410   29.9410   41.8580 C   0  0  0  0  0  0  0  0  0  0  0  0
   35.7650   29.8900   41.0900 H   0  0  0  0  0  0  0  0  0  0  0  0
   36.8050   31.1690   42.3840 C   0  0  0  0  0  0  0  0  0  0  0  0
   36.2620   32.0410   42.0440 H   0  0  0  0  0  0  0  0  0  0  0  0
   37.8060   31.1720   43.3600 C   0  0  0  0  0  3  0  0  0  0  0  0
  1 11  1  0  0  0  0
  1  2  1  0  0  0  0
  2  3  2  0  0  0  0
  2  7  1  0  0  0  0
  3  8  1  0  0  0  0
  4  9  1  0  0  0  0
  4  3  1  0  0  0  0
  5  4  2  0  0  0  0
  6  5  1  0  0  0  0
  6  1  2  0  0  0  0
 10  5  1  0  0  0  0
 11 12  2  0  0  0  0
 13 14  2  0  0  0  0
 13 18  1  0  0  0  0
 14 15  1  0  0  0  0
 15 21  1  0  0  0  0
 15 16  2  0  0  0  0
 17 16  1  0  0  0  0
 17 11  1  0  0  0  0
 18 17  2  0  0  0  0
 19 13  1  0  0  0  0
 20 14  1  0  0  0  0
 22  6  1  0  0  0  0
 23 22  2  0  0  0  0
 24 26  1  0  0  0  0
 24 23  1  0  0  0  0
 25 24  1  0  0  0  0
 27 24  1  0  0  0  0
 28 29  1  0  0  0  0
 28 27  2  0  0  0  0
 30 28  1  0  0  0  0
 31 30  2  0  0  0  0
 31 33  1  0  0  0  0
 32 31  1  0  0  0  0
 33 35  2  0  0  0  0
 34 33  1  0  0  0  0
 35 27  1  0  0  0  0
M  END
>  <minimizedAffinity>
-5.68870687

>  <minimizedRMSD>
0.583454251

$$$$
