
 OpenBabel03272510123D

 35 38  0  0  0  0  0  0  0  0999 V2000
   33.2800   28.3190   48.8840 C   0  0  0  0  0  0  0  0  0  0  0  0
   33.5120   28.9100   50.0760 C   0  0  0  0  0  0  0  0  0  0  0  0
   34.7220   29.4340   50.4790 C   0  0  0  0  0  0  0  0  0  0  0  0
   35.7960   29.3710   49.6400 C   0  0  0  0  0  0  0  0  0  0  0  0
   35.5710   28.7620   48.4020 C   0  0  0  0  0  0  0  0  0  0  0  0
   34.3650   28.2680   48.0620 N   0  0  0  0  0  0  0  0  0  0  0  0
   32.7200   29.0070   50.8100 H   0  0  0  0  0  0  0  0  0  0  0  0
   34.8980   29.9090   51.4430 H   0  0  0  0  0  0  0  0  0  0  0  0
   36.3800   28.6760   47.6820 H   0  0  0  0  0  0  0  0  0  0  0  0
   30.8850   27.7170   49.3000 C   0  0  0  0  0  0  0  0  0  0  0  0
   32.0190   27.7790   48.4760 C   0  0  0  0  0  0  0  0  0  0  0  0
   31.8760   27.2770   47.1910 C   0  0  0  0  0  0  0  0  0  0  0  0
   30.6640   26.7610   46.8080 N   0  0  0  0  0  0  0  0  0  0  0  0
   29.6150   26.7320   47.6510 C   0  0  0  0  0  0  0  0  0  0  0  0
   29.7140   27.2050   48.8940 N   0  0  0  0  0  0  0  0  0  0  0  0
   30.9630   28.1000   50.3090 H   0  0  0  0  0  0  0  0  0  0  0  0
   32.7280   27.3080   46.5260 H   0  0  0  0  0  0  0  0  0  0  0  0
   28.7170   26.3000   47.2280 H   0  0  0  0  0  0  0  0  0  0  0  0
   37.0780   29.8500   49.8930 O   0  0  0  0  0  0  0  0  0  0  0  0
   37.6650   30.8100   49.0710 C   0  0  0  0  0  0  0  0  0  0  0  0
   38.1650   31.9300   49.7500 C   0  0  0  0  0  0  0  0  0  0  0  0
   38.7110   32.7880   48.8130 C   0  0  0  0  0  0  0  0  0  0  0  0
   38.5350   32.1830   47.6300 N   0  0  0  0  0  0  0  0  0  0  0  0
   37.9270   31.0320   47.7700 N   0  0  0  0  0  0  0  0  0  0  0  0
   38.2030   32.2350   50.8000 H   0  0  0  0  0  0  0  0  0  0  0  0
   39.2020   33.7390   48.8040 H   0  0  0  0  0  0  0  0  0  0  0  0
   38.8410   32.4750   46.2490 C   0  0  0  0  0  0  0  0  0  0  0  0
   37.9200   32.1950   45.2310 C   0  0  0  0  0  0  0  0  0  0  0  0
   36.9690   31.7590   45.4650 H   0  0  0  0  0  0  0  0  0  0  0  0
   38.2950   32.5060   43.9350 C   0  0  0  0  0  3  0  0  0  0  0  0
   39.5070   33.0680   43.5910 C   0  0  0  0  0  0  0  0  0  0  0  0
   39.7730   33.3000   42.5690 H   0  0  0  0  0  0  0  0  0  0  0  0
   40.4250   33.3460   44.6080 C   0  0  0  0  0  0  0  0  0  0  0  0
   41.3850   33.7850   44.3760 H   0  0  0  0  0  0  0  0  0  0  0  0
   40.0650   33.0410   45.9070 C   0  0  0  0  0  3  0  0  0  0  0  0
  1  2  1  0  0  0  0
  2  3  2  0  0  0  0
  2  7  1  0  0  0  0
  3  8  1  0  0  0  0
  4 19  1  0  0  0  0
  4  3  1  0  0  0  0
  5  4  2  0  0  0  0
  6  5  1  0  0  0  0
  6  1  2  0  0  0  0
  9  5  1  0  0  0  0
 10 16  1  0  0  0  0
 11  1  1  0  0  0  0
 11 10  2  0  0  0  0
 12 11  1  0  0  0  0
 13 12  2  0  0  0  0
 13 14  1  0  0  0  0
 14 15  2  0  0  0  0
 15 10  1  0  0  0  0
 17 12  1  0  0  0  0
 18 14  1  0  0  0  0
 20 21  1  0  0  0  0
 20 19  1  0  0  0  0
 21 25  1  0  0  0  0
 22 21  2  0  0  0  0
 23 24  1  0  0  0  0
 23 22  1  0  0  0  0
 24 20  2  0  0  0  0
 26 22  1  0  0  0  0
 27 23  1  0  0  0  0
 28 29  1  0  0  0  0
 28 27  2  0  0  0  0
 30 28  1  0  0  0  0
 31 30  2  0  0  0  0
 31 33  1  0  0  0  0
 32 31  1  0  0  0  0
 33 35  2  0  0  0  0
 34 33  1  0  0  0  0
 35 27  1  0  0  0  0
M  END
>  <minimizedAffinity>
-6.08916283

>  <minimizedRMSD>
1.51425707

$$$$
