
 OpenBabel03272507293D

 41 43  0  0  1  0  0  0  0  0999 V2000
   42.3990   22.0230   36.4290 C   0  0  0  0  0  0  0  0  0  0  0  0
   42.1400   23.1560   35.6360 C   0  0  0  0  0  0  0  0  0  0  0  0
   40.9210   23.7990   35.8120 C   0  0  0  0  0  0  0  0  0  0  0  0
   40.0580   23.3160   36.7190 N   0  0  0  0  0  0  0  0  0  0  0  0
   40.3310   22.2300   37.4650 C   0  0  0  0  0  0  0  0  0  0  0  0
   41.4900   21.5950   37.3170 N   0  0  0  0  0  0  0  0  0  0  0  0
   40.5930   24.9220   35.0570 N   0  0  0  0  0  0  0  0  0  0  0  0
   41.5520   25.9380   34.5570 C   0  0  0  0  0  0  0  0  0  0  0  0
   40.7860   27.0780   34.0170 C   0  0  0  0  0  0  0  0  0  0  0  0
   39.4680   26.9020   34.6190 C   0  0  0  0  0  0  0  0  0  0  0  0
   39.3410   25.4270   34.5970 C   0  0  2  0  0  0  0  0  0  0  0  0
   43.3830   21.6060   36.2040 H   0  0  0  0  0  0  0  0  0  0  0  0
   42.8030   23.5800   34.8970 H   0  0  0  0  0  0  0  0  0  0  0  0
   39.6830   21.7930   38.2080 H   0  0  0  0  0  0  0  0  0  0  0  0
   42.4210   25.5740   34.0620 H   0  0  0  0  0  0  0  0  0  0  0  0
   41.9950   26.2580   35.5820 H   0  0  0  0  0  0  0  0  0  0  0  0
   40.9520   27.4900   33.0600 H   0  0  0  0  0  0  0  0  0  0  0  0
   41.2060   27.9950   34.6510 H   0  0  0  0  0  0  0  0  0  0  0  0
   38.6870   27.3130   33.9270 H   0  0  0  0  0  0  0  0  0  0  0  0
   39.3030   27.3330   35.6150 H   0  0  0  0  0  0  0  0  0  0  0  0
   38.1370   24.9900   35.4360 C   0  0  0  0  0  0  0  0  0  0  0  0
   38.4320   25.2220   36.7620 F   0  0  0  0  0  0  0  0  0  0  0  0
   37.8050   23.6710   35.3390 F   0  0  0  0  0  0  0  0  0  0  0  0
   37.1020   25.8320   35.1050 F   0  0  0  0  0  0  0  0  0  0  0  0
   39.1160   24.9030   33.2800 C   0  0  2  0  0  0  0  0  0  0  0  0
   39.7520   25.3380   32.5390 H   0  0  0  0  0  0  0  0  0  0  0  0
   37.7710   25.2520   32.5430 C   0  0  0  0  0  0  0  0  0  0  0  0
   37.5430   26.5440   32.0260 C   0  0  0  0  0  0  0  0  0  0  0  0
   38.3180   27.2760   32.2590 H   0  0  0  0  0  0  0  0  0  0  0  0
   36.4790   26.9500   31.2820 C   0  0  0  0  0  3  0  0  0  0  0  0
   35.5530   25.9730   31.0290 C   0  0  0  0  0  0  0  0  0  0  0  0
   34.6710   26.1920   30.4460 H   0  0  0  0  0  0  0  0  0  0  0  0
   35.6590   24.6760   31.4740 C   0  0  0  0  0  0  0  0  0  0  0  0
   34.9760   23.8670   31.3130 H   0  0  0  0  0  0  0  0  0  0  0  0
   36.7650   24.3550   32.2180 C   0  0  0  0  0  3  0  0  0  0  0  0
   39.0000   23.6520   33.3720 O   0  0  0  0  0  0  0  0  0  0  0  0
   39.4350   22.5350   32.7690 C   0  0  0  0  0  0  0  0  0  0  0  0
   39.4360   21.5680   33.5350 O   0  0  0  0  0  0  0  0  0  0  0  0
   39.9200   21.8930   31.6000 N   0  0  0  0  0  0  0  0  0  0  0  0
   40.9480   21.7640   31.4370 H   0  0  0  0  0  0  0  0  0  0  0  0
   39.1420   21.5870   30.9650 H   0  0  0  0  0  0  0  0  0  0  0  0
  1  6  1  0  0  0  0
  2  3  1  0  0  0  0
  2  1  2  0  0  0  0
  3  4  2  0  0  0  0
  4  5  1  0  0  0  0
  5 14  1  0  0  0  0
  6  5  2  0  0  0  0
  7  3  1  0  0  0  0
  8  7  1  0  0  0  0
  8 16  1  0  0  0  0
  9  8  1  0  0  0  0
  9 10  1  0  0  0  0
  9 18  1  0  0  0  0
 10 20  1  0  0  0  0
 11 10  1  0  0  0  0
 11  7  1  0  0  0  0
 11 21  1  1  0  0  0
 12  1  1  0  0  0  0
 13  2  1  0  0  0  0
 15  8  1  0  0  0  0
 17  9  1  0  0  0  0
 19 10  1  0  0  0  0
 21 22  1  0  0  0  0
 23 21  1  0  0  0  0
 24 21  1  0  0  0  0
 25 26  1  6  0  0  0
 25 36  1  0  0  0  0
 25 11  1  0  0  0  0
 27 25  1  0  0  0  0
 28 29  1  0  0  0  0
 28 27  2  0  0  0  0
 30 28  1  0  0  0  0
 31 30  2  0  0  0  0
 31 33  1  0  0  0  0
 32 31  1  0  0  0  0
 33 35  2  0  0  0  0
 34 33  1  0  0  0  0
 35 27  1  0  0  0  0
 37 36  1  0  0  0  0
 37 38  2  0  0  0  0
 39 37  1  0  0  0  0
 40 39  1  0  0  0  0
 41 39  1  0  0  0  0
M  END
>  <minimizedAffinity>
-5.28094339

$$$$

 OpenBabel03272507293D

 41 43  0  0  1  0  0  0  0  0999 V2000
   37.4890   27.4960   32.4200 C   0  0  0  0  0  0  0  0  0  0  0  0
   38.0180   26.2300   32.7320 C   0  0  0  0  0  0  0  0  0  0  0  0
   37.7960   25.7400   34.0130 C   0  0  0  0  0  0  0  0  0  0  0  0
   37.0960   26.4850   34.8820 N   0  0  0  0  0  0  0  0  0  0  0  0
   36.6010   27.6930   34.5570 C   0  0  0  0  0  0  0  0  0  0  0  0
   36.7990   28.1880   33.3390 N   0  0  0  0  0  0  0  0  0  0  0  0
   38.2960   24.4970   34.3950 N   0  0  0  0  0  0  0  0  0  0  0  0
   38.4710   23.3230   33.5030 C   0  0  0  0  0  0  0  0  0  0  0  0
   38.7930   22.1480   34.3360 C   0  0  0  0  0  0  0  0  0  0  0  0
   38.3540   22.5590   35.6670 C   0  0  0  0  0  0  0  0  0  0  0  0
   38.7250   23.9910   35.6580 C   0  0  2  0  0  0  0  0  0  0  0  0
   37.7250   27.7740   31.3900 H   0  0  0  0  0  0  0  0  0  0  0  0
   38.5840   25.5960   32.0670 H   0  0  0  0  0  0  0  0  0  0  0  0
   36.0330   28.3400   35.2060 H   0  0  0  0  0  0  0  0  0  0  0  0
   38.9650   23.4950   32.5770 H   0  0  0  0  0  0  0  0  0  0  0  0
   37.3670   23.2230   33.1540 H   0  0  0  0  0  0  0  0  0  0  0  0
   39.6130   21.5100   34.1510 H   0  0  0  0  0  0  0  0  0  0  0  0
   37.9330   21.3780   34.0390 H   0  0  0  0  0  0  0  0  0  0  0  0
   38.9920   22.0540   36.4380 H   0  0  0  0  0  0  0  0  0  0  0  0
   37.3020   22.3880   35.9290 H   0  0  0  0  0  0  0  0  0  0  0  0
   38.1080   24.7020   36.8650 C   0  0  0  0  0  0  0  0  0  0  0  0
   36.7410   24.5430   36.8040 F   0  0  0  0  0  0  0  0  0  0  0  0
   38.3380   26.0450   36.9330 F   0  0  0  0  0  0  0  0  0  0  0  0
   38.5380   24.0240   37.9820 F   0  0  0  0  0  0  0  0  0  0  0  0
   40.1410   24.2050   35.7550 C   0  0  2  0  0  0  0  0  0  0  0  0
   40.4090   24.9190   36.5040 H   0  0  0  0  0  0  0  0  0  0  0  0
   40.8810   24.9400   34.5780 C   0  0  0  0  0  0  0  0  0  0  0  0
   41.0820   26.3360   34.6100 C   0  0  0  0  0  0  0  0  0  0  0  0
   40.6100   26.8500   35.4500 H   0  0  0  0  0  0  0  0  0  0  0  0
   41.7910   27.0800   33.7180 C   0  0  0  0  0  3  0  0  0  0  0  0
   42.3540   26.3630   32.6960 C   0  0  0  0  0  0  0  0  0  0  0  0
   42.9380   26.8590   31.9360 H   0  0  0  0  0  0  0  0  0  0  0  0
   42.2340   25.0000   32.5530 C   0  0  0  0  0  0  0  0  0  0  0  0
   42.6470   24.3800   31.7850 H   0  0  0  0  0  0  0  0  0  0  0  0
   41.5020   24.3310   33.5000 C   0  0  0  0  0  3  0  0  0  0  0  0
   40.7100   23.0820   35.7070 O   0  0  0  0  0  0  0  0  0  0  0  0
   41.4800   22.2880   36.4670 C   0  0  0  0  0  0  0  0  0  0  0  0
   42.5640   22.8120   36.7290 O   0  0  0  0  0  0  0  0  0  0  0  0
   41.6520   21.0620   37.1610 N   0  0  0  0  0  0  0  0  0  0  0  0
   42.1500   20.2520   36.7180 H   0  0  0  0  0  0  0  0  0  0  0  0
   41.2310   21.0880   38.1220 H   0  0  0  0  0  0  0  0  0  0  0  0
  1  2  2  0  0  0  0
  1  6  1  0  0  0  0
  2  3  1  0  0  0  0
  3  7  1  0  0  0  0
  3  4  2  0  0  0  0
  5  4  1  0  0  0  0
  5 14  1  0  0  0  0
  6  5  2  0  0  0  0
  7 11  1  0  0  0  0
  8  9  1  0  0  0  0
  8  7  1  0  0  0  0
  9 10  1  0  0  0  0
 10 20  1  0  0  0  0
 10 19  1  0  0  0  0
 11 10  1  0  0  0  0
 11 25  1  0  0  0  0
 11 21  1  1  0  0  0
 12  1  1  0  0  0  0
 13  2  1  0  0  0  0
 15  8  1  0  0  0  0
 16  8  1  0  0  0  0
 17  9  1  0  0  0  0
 18  9  1  0  0  0  0
 21 23  1  0  0  0  0
 21 24  1  0  0  0  0
 22 21  1  0  0  0  0
 25 26  1  1  0  0  0
 27 28  1  0  0  0  0
 27 25  1  0  0  0  0
 28 29  1  0  0  0  0
 30 28  2  0  0  0  0
 31 30  1  0  0  0  0
 32 31  1  0  0  0  0
 33 31  2  0  0  0  0
 33 35  1  0  0  0  0
 34 33  1  0  0  0  0
 35 27  2  0  0  0  0
 36 25  1  0  0  0  0
 36 37  1  0  0  0  0
 37 38  2  0  0  0  0
 37 39  1  0  0  0  0
 39 41  1  0  0  0  0
 40 39  1  0  0  0  0
M  END
>  <minimizedAffinity>
-5.25888586

$$$$

 OpenBabel03272507293D

 41 43  0  0  1  0  0  0  0  0999 V2000
   35.8780   28.2020   31.1220 C   0  0  0  0  0  0  0  0  0  0  0  0
   36.2710   27.8610   32.4290 C   0  0  0  0  0  0  0  0  0  0  0  0
   37.5890   27.4660   32.6220 C   0  0  0  0  0  0  0  0  0  0  0  0
   38.4160   27.4280   31.5660 N   0  0  0  0  0  0  0  0  0  0  0  0
   38.0150   27.7600   30.3260 C   0  0  0  0  0  0  0  0  0  0  0  0
   36.7590   28.1410   30.1130 N   0  0  0  0  0  0  0  0  0  0  0  0
   38.0460   27.1070   33.8880 N   0  0  0  0  0  0  0  0  0  0  0  0
   37.5700   27.6770   35.1740 C   0  0  0  0  0  0  0  0  0  0  0  0
   38.4660   27.2130   36.2500 C   0  0  0  0  0  0  0  0  0  0  0  0
   39.6580   26.7840   35.5240 C   0  0  0  0  0  0  0  0  0  0  0  0
   39.0520   26.1890   34.3120 C   0  0  2  0  0  0  0  0  0  0  0  0
   34.8260   28.4950   31.0950 H   0  0  0  0  0  0  0  0  0  0  0  0
   35.6420   27.8780   33.3070 H   0  0  0  0  0  0  0  0  0  0  0  0
   38.6270   27.7510   29.4380 H   0  0  0  0  0  0  0  0  0  0  0  0
   36.5160   27.7260   35.3150 H   0  0  0  0  0  0  0  0  0  0  0  0
   37.8190   28.7910   34.9560 H   0  0  0  0  0  0  0  0  0  0  0  0
   38.1220   26.7670   37.1430 H   0  0  0  0  0  0  0  0  0  0  0  0
   38.8450   28.2350   36.7300 H   0  0  0  0  0  0  0  0  0  0  0  0
   40.1560   25.9540   36.0880 H   0  0  0  0  0  0  0  0  0  0  0  0
   40.4150   27.5460   35.2970 H   0  0  0  0  0  0  0  0  0  0  0  0
   40.1340   25.9110   33.2650 C   0  0  0  0  0  0  0  0  0  0  0  0
   40.6180   27.1210   32.8160 F   0  0  0  0  0  0  0  0  0  0  0  0
   39.7180   25.2290   32.1600 F   0  0  0  0  0  0  0  0  0  0  0  0
   41.1680   25.2900   33.9250 F   0  0  0  0  0  0  0  0  0  0  0  0
   38.4140   24.9290   34.5640 C   0  0  2  0  0  0  0  0  0  0  0  0
   37.5530   25.0110   35.1930 H   0  0  0  0  0  0  0  0  0  0  0  0
   39.1520   23.8690   35.4620 C   0  0  0  0  0  0  0  0  0  0  0  0
   40.2030   23.0860   34.9410 C   0  0  0  0  0  0  0  0  0  0  0  0
   40.3840   23.2120   33.8720 H   0  0  0  0  0  0  0  0  0  0  0  0
   40.9900   22.2140   35.6270 C   0  0  0  0  0  3  0  0  0  0  0  0
   40.7030   22.1150   36.9630 C   0  0  0  0  0  0  0  0  0  0  0  0
   41.2700   21.4510   37.5970 H   0  0  0  0  0  0  0  0  0  0  0  0
   39.7060   22.8250   37.5920 C   0  0  0  0  0  0  0  0  0  0  0  0
   39.4300   22.7960   38.6260 H   0  0  0  0  0  0  0  0  0  0  0  0
   38.9620   23.6810   36.8210 C   0  0  0  0  0  3  0  0  0  0  0  0
   38.3560   24.2950   33.4760 O   0  0  0  0  0  0  0  0  0  0  0  0
   37.5470   23.4450   32.8270 C   0  0  0  0  0  0  0  0  0  0  0  0
   36.7700   24.0330   32.0710 O   0  0  0  0  0  0  0  0  0  0  0  0
   37.1340   22.1100   32.5750 N   0  0  0  0  0  0  0  0  0  0  0  0
   36.3200   21.6870   33.0820 H   0  0  0  0  0  0  0  0  0  0  0  0
   37.7320   21.6420   31.8490 H   0  0  0  0  0  0  0  0  0  0  0  0
  1  2  1  0  0  0  0
  2  3  2  0  0  0  0
  2 13  1  0  0  0  0
  3  7  1  0  0  0  0
  4  3  1  0  0  0  0
  5  4  2  0  0  0  0
  6  5  1  0  0  0  0
  6  1  2  0  0  0  0
  7 11  1  0  0  0  0
  7  8  1  0  0  0  0
  8 15  1  0  0  0  0
  8  9  1  0  0  0  0
  9 18  1  0  0  0  0
  9 17  1  0  0  0  0
 10 19  1  0  0  0  0
 10  9  1  0  0  0  0
 11 21  1  6  0  0  0
 11 25  1  0  0  0  0
 11 10  1  0  0  0  0
 12  1  1  0  0  0  0
 14  5  1  0  0  0  0
 16  8  1  0  0  0  0
 20 10  1  0  0  0  0
 21 24  1  0  0  0  0
 22 21  1  0  0  0  0
 23 21  1  0  0  0  0
 25 26  1  1  0  0  0
 25 27  1  0  0  0  0
 27 35  1  0  0  0  0
 28 27  2  0  0  0  0
 28 30  1  0  0  0  0
 29 28  1  0  0  0  0
 30 31  2  0  0  0  0
 31 33  1  0  0  0  0
 31 32  1  0  0  0  0
 33 34  1  0  0  0  0
 35 33  2  0  0  0  0
 36 25  1  0  0  0  0
 37 36  1  0  0  0  0
 38 37  2  0  0  0  0
 39 37  1  0  0  0  0
 39 40  1  0  0  0  0
 41 39  1  0  0  0  0
M  END
>  <minimizedAffinity>
-5.24538755

$$$$

 OpenBabel03272507293D

 41 43  0  0  1  0  0  0  0  0999 V2000
   34.8570   19.5230   32.0190 C   0  0  0  0  0  0  0  0  0  0  0  0
   35.0210   20.9200   32.0600 C   0  0  0  0  0  0  0  0  0  0  0  0
   36.2340   21.4380   31.6230 C   0  0  0  0  0  0  0  0  0  0  0  0
   37.1810   20.5930   31.1880 N   0  0  0  0  0  0  0  0  0  0  0  0
   36.9990   19.2610   31.1590 C   0  0  0  0  0  0  0  0  0  0  0  0
   35.8480   18.7380   31.5720 N   0  0  0  0  0  0  0  0  0  0  0  0
   36.4690   22.8110   31.6420 N   0  0  0  0  0  0  0  0  0  0  0  0
   35.4460   23.8670   31.4370 C   0  0  0  0  0  0  0  0  0  0  0  0
   36.1360   25.1630   31.2920 C   0  0  0  0  0  0  0  0  0  0  0  0
   37.5040   24.7720   30.9640 C   0  0  0  0  0  0  0  0  0  0  0  0
   37.6650   23.5690   31.8100 C   0  0  2  0  0  0  0  0  0  0  0  0
   33.8690   19.2350   32.3840 H   0  0  0  0  0  0  0  0  0  0  0  0
   34.2880   21.6360   32.4000 H   0  0  0  0  0  0  0  0  0  0  0  0
   37.7170   18.5300   30.8220 H   0  0  0  0  0  0  0  0  0  0  0  0
   34.5490   23.7790   32.0030 H   0  0  0  0  0  0  0  0  0  0  0  0
   35.0830   23.5340   30.3850 H   0  0  0  0  0  0  0  0  0  0  0  0
   35.8810   26.0240   31.8460 H   0  0  0  0  0  0  0  0  0  0  0  0
   35.7470   25.5450   30.2330 H   0  0  0  0  0  0  0  0  0  0  0  0
   38.2130   25.5490   31.3510 H   0  0  0  0  0  0  0  0  0  0  0  0
   37.7400   24.5900   29.9070 H   0  0  0  0  0  0  0  0  0  0  0  0
   38.9460   22.8220   31.4240 C   0  0  0  0  0  0  0  0  0  0  0  0
   38.7610   22.2730   30.1740 F   0  0  0  0  0  0  0  0  0  0  0  0
   39.2940   21.7950   32.2500 F   0  0  0  0  0  0  0  0  0  0  0  0
   39.9310   23.7730   31.3000 F   0  0  0  0  0  0  0  0  0  0  0  0
   37.7940   23.8780   33.2060 C   0  0  2  0  0  0  0  0  0  0  0  0
   37.0260   24.5300   33.5650 H   0  0  0  0  0  0  0  0  0  0  0  0
   38.9890   24.7840   33.6770 C   0  0  0  0  0  0  0  0  0  0  0  0
   38.8830   26.1900   33.6570 C   0  0  0  0  0  0  0  0  0  0  0  0
   37.9640   26.5760   33.2120 H   0  0  0  0  0  0  0  0  0  0  0  0
   39.7930   27.0850   34.1300 C   0  0  0  0  0  3  0  0  0  0  0  0
   40.9160   26.5230   34.6750 C   0  0  0  0  0  0  0  0  0  0  0  0
   41.6990   27.1470   35.0800 H   0  0  0  0  0  0  0  0  0  0  0  0
   41.1400   25.1680   34.7560 C   0  0  0  0  0  0  0  0  0  0  0  0
   41.9890   24.6650   35.1680 H   0  0  0  0  0  0  0  0  0  0  0  0
   40.1680   24.3400   34.2550 C   0  0  0  0  0  3  0  0  0  0  0  0
   38.0690   22.8110   33.8180 O   0  0  0  0  0  0  0  0  0  0  0  0
   37.8580   22.2290   35.0080 C   0  0  0  0  0  0  0  0  0  0  0  0
   36.8640   21.4990   34.9950 O   0  0  0  0  0  0  0  0  0  0  0  0
   38.2590   22.0350   36.3560 N   0  0  0  0  0  0  0  0  0  0  0  0
   37.8360   22.5960   37.1350 H   0  0  0  0  0  0  0  0  0  0  0  0
   38.9950   21.2910   36.4470 H   0  0  0  0  0  0  0  0  0  0  0  0
  1  2  1  0  0  0  0
  1 12  1  0  0  0  0
  2 13  1  0  0  0  0
  3  7  1  0  0  0  0
  3  2  2  0  0  0  0
  4  3  1  0  0  0  0
  5  4  2  0  0  0  0
  5  6  1  0  0  0  0
  6  1  2  0  0  0  0
  7 11  1  0  0  0  0
  8  7  1  0  0  0  0
  8 15  1  0  0  0  0
  9  8  1  0  0  0  0
  9 17  1  0  0  0  0
 10  9  1  0  0  0  0
 10 19  1  0  0  0  0
 10 11  1  0  0  0  0
 11 21  1  6  0  0  0
 11 25  1  0  0  0  0
 14  5  1  0  0  0  0
 16  8  1  0  0  0  0
 18  9  1  0  0  0  0
 20 10  1  0  0  0  0
 21 23  1  0  0  0  0
 22 21  1  0  0  0  0
 24 21  1  0  0  0  0
 25 26  1  1  0  0  0
 25 27  1  0  0  0  0
 25 36  1  0  0  0  0
 27 35  1  0  0  0  0
 28 27  2  0  0  0  0
 28 30  1  0  0  0  0
 29 28  1  0  0  0  0
 30 31  2  0  0  0  0
 31 33  1  0  0  0  0
 31 32  1  0  0  0  0
 33 34  1  0  0  0  0
 35 33  2  0  0  0  0
 36 37  1  0  0  0  0
 37 39  1  0  0  0  0
 38 37  2  0  0  0  0
 39 41  1  0  0  0  0
 39 40  1  0  0  0  0
M  END
>  <minimizedAffinity>
-5.20003986

$$$$

 OpenBabel03272507293D

 41 43  0  0  1  0  0  0  0  0999 V2000
   38.8310   27.1030   29.3410 C   0  0  0  0  0  0  0  0  0  0  0  0
   38.1890   27.0820   30.5930 C   0  0  0  0  0  0  0  0  0  0  0  0
   38.9880   27.1570   31.7270 C   0  0  0  0  0  0  0  0  0  0  0  0
   40.3190   27.2440   31.5780 N   0  0  0  0  0  0  0  0  0  0  0  0
   40.9080   27.2620   30.3690 C   0  0  0  0  0  0  0  0  0  0  0  0
   40.1670   27.1910   29.2670 N   0  0  0  0  0  0  0  0  0  0  0  0
   38.4220   27.1350   32.9990 N   0  0  0  0  0  0  0  0  0  0  0  0
   37.0950   27.6910   33.3650 C   0  0  0  0  0  0  0  0  0  0  0  0
   36.9760   27.6830   34.8360 C   0  0  0  0  0  0  0  0  0  0  0  0
   38.3620   27.5630   35.2770 C   0  0  0  0  0  0  0  0  0  0  0  0
   38.9090   26.6500   34.2490 C   0  0  2  0  0  0  0  0  0  0  0  0
   38.1040   27.0400   28.5290 H   0  0  0  0  0  0  0  0  0  0  0  0
   37.1240   27.0160   30.7600 H   0  0  0  0  0  0  0  0  0  0  0  0
   41.9680   27.3290   30.1810 H   0  0  0  0  0  0  0  0  0  0  0  0
   36.2750   27.4190   32.7440 H   0  0  0  0  0  0  0  0  0  0  0  0
   37.2820   28.7860   33.0260 H   0  0  0  0  0  0  0  0  0  0  0  0
   36.1500   27.2750   35.3520 H   0  0  0  0  0  0  0  0  0  0  0  0
   36.7550   28.8280   35.0830 H   0  0  0  0  0  0  0  0  0  0  0  0
   38.3920   27.0180   36.2560 H   0  0  0  0  0  0  0  0  0  0  0  0
   38.9430   28.4890   35.3840 H   0  0  0  0  0  0  0  0  0  0  0  0
   40.4350   26.5940   34.3530 C   0  0  0  0  0  0  0  0  0  0  0  0
   40.9400   27.7930   33.9000 F   0  0  0  0  0  0  0  0  0  0  0  0
   41.0360   25.6170   33.6150 F   0  0  0  0  0  0  0  0  0  0  0  0
   40.7340   26.5180   35.6940 F   0  0  0  0  0  0  0  0  0  0  0  0
   38.4520   25.2980   34.4000 C   0  0  2  0  0  0  0  0  0  0  0  0
   37.3900   25.2200   34.5010 H   0  0  0  0  0  0  0  0  0  0  0  0
   38.7840   24.5280   35.7300 C   0  0  0  0  0  0  0  0  0  0  0  0
   37.9980   24.7100   36.8870 C   0  0  0  0  0  0  0  0  0  0  0  0
   37.2260   25.4770   36.8030 H   0  0  0  0  0  0  0  0  0  0  0  0
   38.1080   24.0360   38.0640 C   0  0  0  0  0  3  0  0  0  0  0  0
   39.0970   23.0880   38.0890 C   0  0  0  0  0  0  0  0  0  0  0  0
   39.2650   22.4970   38.9770 H   0  0  0  0  0  0  0  0  0  0  0  0
   39.9290   22.8140   37.0290 C   0  0  0  0  0  0  0  0  0  0  0  0
   40.7160   22.0910   36.9810 H   0  0  0  0  0  0  0  0  0  0  0  0
   39.7460   23.5420   35.8820 C   0  0  0  0  0  3  0  0  0  0  0  0
   39.0720   24.5820   33.5690 O   0  0  0  0  0  0  0  0  0  0  0  0
   38.8360   23.6010   32.6830 C   0  0  0  0  0  0  0  0  0  0  0  0
   39.4190   23.7960   31.6150 O   0  0  0  0  0  0  0  0  0  0  0  0
   38.2020   22.3700   32.3710 N   0  0  0  0  0  0  0  0  0  0  0  0
   37.2840   22.3450   31.8650 H   0  0  0  0  0  0  0  0  0  0  0  0
   38.7570   21.5440   32.7020 H   0  0  0  0  0  0  0  0  0  0  0  0
  1  2  1  0  0  0  0
  2 13  1  0  0  0  0
  2  3  2  0  0  0  0
  3  7  1  0  0  0  0
  4  3  1  0  0  0  0
  5  4  2  0  0  0  0
  6  1  2  0  0  0  0
  6  5  1  0  0  0  0
  7  8  1  0  0  0  0
  7 11  1  0  0  0  0
  8  9  1  0  0  0  0
  9 18  1  0  0  0  0
  9 10  1  0  0  0  0
  9 17  1  0  0  0  0
 10 20  1  0  0  0  0
 10 19  1  0  0  0  0
 11 21  1  1  0  0  0
 11 25  1  0  0  0  0
 11 10  1  0  0  0  0
 12  1  1  0  0  0  0
 14  5  1  0  0  0  0
 15  8  1  0  0  0  0
 16  8  1  0  0  0  0
 21 24  1  0  0  0  0
 22 21  1  0  0  0  0
 23 21  1  0  0  0  0
 25 26  1  6  0  0  0
 25 27  1  0  0  0  0
 27 35  2  0  0  0  0
 27 28  1  0  0  0  0
 28 30  2  0  0  0  0
 29 28  1  0  0  0  0
 30 31  1  0  0  0  0
 31 32  1  0  0  0  0
 33 31  2  0  0  0  0
 34 33  1  0  0  0  0
 35 33  1  0  0  0  0
 36 25  1  0  0  0  0
 37 36  1  0  0  0  0
 38 37  2  0  0  0  0
 39 37  1  0  0  0  0
 39 41  1  0  0  0  0
 40 39  1  0  0  0  0
M  END
>  <minimizedAffinity>
-5.19586849

$$$$

 OpenBabel03272507293D

 41 43  0  0  1  0  0  0  0  0999 V2000
   36.6440   27.9780   32.2800 C   0  0  0  0  0  0  0  0  0  0  0  0
   37.1640   26.6710   32.3150 C   0  0  0  0  0  0  0  0  0  0  0  0
   37.3580   26.0890   33.5610 C   0  0  0  0  0  0  0  0  0  0  0  0
   37.0440   26.7910   34.6610 N   0  0  0  0  0  0  0  0  0  0  0  0
   36.5470   28.0400   34.6000 C   0  0  0  0  0  0  0  0  0  0  0  0
   36.3520   28.6210   33.4200 N   0  0  0  0  0  0  0  0  0  0  0  0
   37.8770   24.8010   33.6720 N   0  0  0  0  0  0  0  0  0  0  0  0
   37.6620   23.6960   32.7050 C   0  0  0  0  0  0  0  0  0  0  0  0
   38.1710   22.4470   33.3040 C   0  0  0  0  0  0  0  0  0  0  0  0
   38.2370   22.7670   34.7270 C   0  0  0  0  0  0  0  0  0  0  0  0
   38.6750   24.1800   34.6790 C   0  0  2  0  0  0  0  0  0  0  0  0
   36.5350   28.3270   31.2510 H   0  0  0  0  0  0  0  0  0  0  0  0
   37.4290   26.0690   31.4580 H   0  0  0  0  0  0  0  0  0  0  0  0
   36.2760   28.6560   35.4420 H   0  0  0  0  0  0  0  0  0  0  0  0
   37.8240   23.9210   31.6780 H   0  0  0  0  0  0  0  0  0  0  0  0
   36.5020   23.6680   32.7500 H   0  0  0  0  0  0  0  0  0  0  0  0
   38.8360   21.7930   32.8110 H   0  0  0  0  0  0  0  0  0  0  0  0
   37.2140   21.7380   33.2740 H   0  0  0  0  0  0  0  0  0  0  0  0
   39.0640   22.1790   35.2010 H   0  0  0  0  0  0  0  0  0  0  0  0
   37.3270   22.6190   35.3240 H   0  0  0  0  0  0  0  0  0  0  0  0
   38.5510   24.8170   36.0660 C   0  0  0  0  0  0  0  0  0  0  0  0
   37.2150   24.8520   36.4030 F   0  0  0  0  0  0  0  0  0  0  0  0
   39.0080   26.0980   36.1630 F   0  0  0  0  0  0  0  0  0  0  0  0
   39.1620   23.9580   36.9480 F   0  0  0  0  0  0  0  0  0  0  0  0
   40.0500   24.3290   34.2970 C   0  0  2  0  0  0  0  0  0  0  0  0
   40.2840   23.8550   33.3670 H   0  0  0  0  0  0  0  0  0  0  0  0
   41.1540   23.5750   35.1270 C   0  0  0  0  0  0  0  0  0  0  0  0
   41.2690   22.1710   35.0700 C   0  0  0  0  0  0  0  0  0  0  0  0
   40.4910   21.6680   34.4930 H   0  0  0  0  0  0  0  0  0  0  0  0
   42.2350   21.4060   35.6480 C   0  0  0  0  0  3  0  0  0  0  0  0
   43.1760   22.1100   36.3510 C   0  0  0  0  0  0  0  0  0  0  0  0
   43.9860   21.5970   36.8470 H   0  0  0  0  0  0  0  0  0  0  0  0
   43.1770   23.4800   36.4810 C   0  0  0  0  0  0  0  0  0  0  0  0
   43.8780   24.0890   37.0120 H   0  0  0  0  0  0  0  0  0  0  0  0
   42.1660   24.1700   35.8640 C   0  0  0  0  0  3  0  0  0  0  0  0
   40.3890   25.5230   34.5120 O   0  0  0  0  0  0  0  0  0  0  0  0
   41.1250   26.4970   33.9540 C   0  0  0  0  0  0  0  0  0  0  0  0
   40.6560   26.8680   32.8760 O   0  0  0  0  0  0  0  0  0  0  0  0
   42.2500   27.3600   34.0170 N   0  0  0  0  0  0  0  0  0  0  0  0
   43.1510   27.1130   33.5410 H   0  0  0  0  0  0  0  0  0  0  0  0
   42.0530   28.2260   34.5770 H   0  0  0  0  0  0  0  0  0  0  0  0
  1  2  2  0  0  0  0
  1  6  1  0  0  0  0
  2  3  1  0  0  0  0
  3  7  1  0  0  0  0
  3  4  2  0  0  0  0
  5  4  1  0  0  0  0
  5 14  1  0  0  0  0
  6  5  2  0  0  0  0
  7 11  1  0  0  0  0
  8 16  1  0  0  0  0
  8  9  1  0  0  0  0
  8  7  1  0  0  0  0
  9 10  1  0  0  0  0
 10 19  1  0  0  0  0
 10 20  1  0  0  0  0
 11 10  1  0  0  0  0
 11 21  1  1  0  0  0
 12  1  1  0  0  0  0
 13  2  1  0  0  0  0
 15  8  1  0  0  0  0
 17  9  1  0  0  0  0
 18  9  1  0  0  0  0
 21 23  1  0  0  0  0
 21 22  1  0  0  0  0
 21 24  1  0  0  0  0
 25 26  1  6  0  0  0
 25 36  1  0  0  0  0
 25 11  1  0  0  0  0
 25 27  1  0  0  0  0
 27 35  1  0  0  0  0
 28 27  2  0  0  0  0
 28 30  1  0  0  0  0
 29 28  1  0  0  0  0
 30 31  2  0  0  0  0
 31 33  1  0  0  0  0
 31 32  1  0  0  0  0
 33 34  1  0  0  0  0
 35 33  2  0  0  0  0
 37 39  1  0  0  0  0
 37 36  1  0  0  0  0
 38 37  2  0  0  0  0
 39 41  1  0  0  0  0
 40 39  1  0  0  0  0
M  END
>  <minimizedAffinity>
-5.18693161

$$$$

 OpenBabel03272507293D

 41 43  0  0  1  0  0  0  0  0999 V2000
   36.9380   28.1930   31.2480 C   0  0  0  0  0  0  0  0  0  0  0  0
   38.1930   27.6790   31.6250 C   0  0  0  0  0  0  0  0  0  0  0  0
   38.2870   26.3110   31.8470 C   0  0  0  0  0  0  0  0  0  0  0  0
   37.1900   25.5520   31.6950 N   0  0  0  0  0  0  0  0  0  0  0  0
   36.0020   26.0690   31.3340 C   0  0  0  0  0  0  0  0  0  0  0  0
   35.8830   27.3750   31.1150 N   0  0  0  0  0  0  0  0  0  0  0  0
   39.4950   25.7340   32.2290 N   0  0  0  0  0  0  0  0  0  0  0  0
   40.8440   26.2020   31.8230 C   0  0  0  0  0  0  0  0  0  0  0  0
   41.8340   25.1890   32.2360 C   0  0  0  0  0  0  0  0  0  0  0  0
   41.0170   23.9970   32.4430 C   0  0  0  0  0  0  0  0  0  0  0  0
   39.7930   24.5900   33.0270 C   0  0  2  0  0  0  0  0  0  0  0  0
   36.9870   29.2740   31.1010 H   0  0  0  0  0  0  0  0  0  0  0  0
   39.0990   28.2500   31.7570 H   0  0  0  0  0  0  0  0  0  0  0  0
   35.0870   25.5160   31.1950 H   0  0  0  0  0  0  0  0  0  0  0  0
   41.0420   27.2430   31.9310 H   0  0  0  0  0  0  0  0  0  0  0  0
   40.7030   26.1180   30.6730 H   0  0  0  0  0  0  0  0  0  0  0  0
   42.7050   25.4150   32.7870 H   0  0  0  0  0  0  0  0  0  0  0  0
   42.3730   24.9210   31.2080 H   0  0  0  0  0  0  0  0  0  0  0  0
   41.4880   23.3590   33.2350 H   0  0  0  0  0  0  0  0  0  0  0  0
   40.8120   23.3630   31.5700 H   0  0  0  0  0  0  0  0  0  0  0  0
   38.6740   23.5460   33.0780 C   0  0  0  0  0  0  0  0  0  0  0  0
   38.2750   23.2830   31.7860 F   0  0  0  0  0  0  0  0  0  0  0  0
   37.5550   23.9230   33.7600 F   0  0  0  0  0  0  0  0  0  0  0  0
   39.2390   22.3900   33.5640 F   0  0  0  0  0  0  0  0  0  0  0  0
   39.9780   25.0380   34.3790 C   0  0  2  0  0  0  0  0  0  0  0  0
   40.8850   25.5860   34.5210 H   0  0  0  0  0  0  0  0  0  0  0  0
   40.2710   23.9730   35.4990 C   0  0  0  0  0  0  0  0  0  0  0  0
   41.5610   23.4260   35.6570 C   0  0  0  0  0  0  0  0  0  0  0  0
   42.2860   23.7290   34.8980 H   0  0  0  0  0  0  0  0  0  0  0  0
   41.9770   22.5830   36.6400 C   0  0  0  0  0  3  0  0  0  0  0  0
   41.0110   22.2540   37.5550 C   0  0  0  0  0  0  0  0  0  0  0  0
   41.2390   21.5910   38.3760 H   0  0  0  0  0  0  0  0  0  0  0  0
   39.7180   22.7200   37.5130 C   0  0  0  0  0  0  0  0  0  0  0  0
   38.9190   22.5050   38.1910 H   0  0  0  0  0  0  0  0  0  0  0  0
   39.3880   23.5660   36.4860 C   0  0  0  0  0  3  0  0  0  0  0  0
   38.8790   25.4970   34.7910 O   0  0  0  0  0  0  0  0  0  0  0  0
   38.3860   26.5880   35.3970 C   0  0  0  0  0  0  0  0  0  0  0  0
   37.2190   26.8100   35.0670 O   0  0  0  0  0  0  0  0  0  0  0  0
   38.5750   27.6720   36.2930 N   0  0  0  0  0  0  0  0  0  0  0  0
   38.8540   28.6220   35.9460 H   0  0  0  0  0  0  0  0  0  0  0  0
   38.4040   27.3950   37.2910 H   0  0  0  0  0  0  0  0  0  0  0  0
  1  2  1  0  0  0  0
  2 13  1  0  0  0  0
  2  3  2  0  0  0  0
  3  7  1  0  0  0  0
  4  3  1  0  0  0  0
  5  4  2  0  0  0  0
  6  1  2  0  0  0  0
  6  5  1  0  0  0  0
  7 11  1  0  0  0  0
  8 15  1  0  0  0  0
  8  7  1  0  0  0  0
  8  9  1  0  0  0  0
  9 10  1  0  0  0  0
  9 17  1  0  0  0  0
 10 11  1  0  0  0  0
 10 19  1  0  0  0  0
 11 21  1  6  0  0  0
 11 25  1  0  0  0  0
 12  1  1  0  0  0  0
 14  5  1  0  0  0  0
 16  8  1  0  0  0  0
 18  9  1  0  0  0  0
 20 10  1  0  0  0  0
 21 24  1  0  0  0  0
 21 23  1  0  0  0  0
 22 21  1  0  0  0  0
 25 26  1  1  0  0  0
 25 36  1  0  0  0  0
 25 27  1  0  0  0  0
 27 28  2  0  0  0  0
 27 35  1  0  0  0  0
 28 30  1  0  0  0  0
 29 28  1  0  0  0  0
 30 31  2  0  0  0  0
 31 32  1  0  0  0  0
 33 31  1  0  0  0  0
 33 34  1  0  0  0  0
 35 33  2  0  0  0  0
 36 37  1  0  0  0  0
 37 39  1  0  0  0  0
 38 37  2  0  0  0  0
 39 41  1  0  0  0  0
 40 39  1  0  0  0  0
M  END
>  <minimizedAffinity>
-5.17683983

$$$$

 OpenBabel03272507293D

 41 43  0  0  1  0  0  0  0  0999 V2000
   38.5070   22.3300   36.0700 C   0  0  0  0  0  0  0  0  0  0  0  0
   38.8670   23.1330   34.9710 C   0  0  0  0  0  0  0  0  0  0  0  0
   38.6150   24.4960   35.0620 C   0  0  0  0  0  0  0  0  0  0  0  0
   38.0470   24.9780   36.1780 N   0  0  0  0  0  0  0  0  0  0  0  0
   37.7120   24.1890   37.2140 C   0  0  0  0  0  0  0  0  0  0  0  0
   37.9410   22.8800   37.1540 N   0  0  0  0  0  0  0  0  0  0  0  0
   38.9390   25.3500   34.0100 N   0  0  0  0  0  0  0  0  0  0  0  0
   40.0810   25.1800   33.0770 C   0  0  0  0  0  0  0  0  0  0  0  0
   40.2160   26.4100   32.2750 C   0  0  0  0  0  0  0  0  0  0  0  0
   39.4730   27.3950   33.0560 C   0  0  0  0  0  0  0  0  0  0  0  0
   38.3530   26.5700   33.5600 C   0  0  2  0  0  0  0  0  0  0  0  0
   38.7530   21.2820   35.8840 H   0  0  0  0  0  0  0  0  0  0  0  0
   39.3270   22.7890   34.0570 H   0  0  0  0  0  0  0  0  0  0  0  0
   37.2540   24.5120   38.1350 H   0  0  0  0  0  0  0  0  0  0  0  0
   40.2000   24.2180   32.6370 H   0  0  0  0  0  0  0  0  0  0  0  0
   40.9330   25.1720   33.8680 H   0  0  0  0  0  0  0  0  0  0  0  0
   40.2820   26.4150   31.2210 H   0  0  0  0  0  0  0  0  0  0  0  0
   41.3390   26.7420   32.4970 H   0  0  0  0  0  0  0  0  0  0  0  0
   39.0370   28.1620   32.3650 H   0  0  0  0  0  0  0  0  0  0  0  0
   40.0130   27.9220   33.8540 H   0  0  0  0  0  0  0  0  0  0  0  0
   37.5800   27.3350   34.6390 C   0  0  0  0  0  0  0  0  0  0  0  0
   37.1160   28.5070   34.0830 F   0  0  0  0  0  0  0  0  0  0  0  0
   38.3050   27.6880   35.7380 F   0  0  0  0  0  0  0  0  0  0  0  0
   36.4750   26.5740   34.9430 F   0  0  0  0  0  0  0  0  0  0  0  0
   37.3940   26.2440   32.5430 C   0  0  2  0  0  0  0  0  0  0  0  0
   36.3900   26.2000   32.9090 H   0  0  0  0  0  0  0  0  0  0  0  0
   37.3940   24.7930   31.9360 C   0  0  0  0  0  0  0  0  0  0  0  0
   36.4510   23.8330   32.3580 C   0  0  0  0  0  0  0  0  0  0  0  0
   35.8080   24.1500   33.1810 H   0  0  0  0  0  0  0  0  0  0  0  0
   36.2720   22.5840   31.8470 C   0  0  0  0  0  3  0  0  0  0  0  0
   37.1150   22.2640   30.8150 C   0  0  0  0  0  0  0  0  0  0  0  0
   37.0530   21.2970   30.3390 H   0  0  0  0  0  0  0  0  0  0  0  0
   38.0750   23.1100   30.3110 C   0  0  0  0  0  0  0  0  0  0  0  0
   38.7610   22.9250   29.5120 H   0  0  0  0  0  0  0  0  0  0  0  0
   38.1840   24.3500   30.8880 C   0  0  0  0  0  3  0  0  0  0  0  0
   37.6730   26.9150   31.5140 O   0  0  0  0  0  0  0  0  0  0  0  0
   37.0650   27.6720   30.5870 C   0  0  0  0  0  0  0  0  0  0  0  0
   36.2320   28.4310   31.0860 O   0  0  0  0  0  0  0  0  0  0  0  0
   36.9170   28.0410   29.2250 N   0  0  0  0  0  0  0  0  0  0  0  0
   36.1700   27.6160   28.6240 H   0  0  0  0  0  0  0  0  0  0  0  0
   37.6240   28.7590   28.9300 H   0  0  0  0  0  0  0  0  0  0  0  0
  1  6  1  0  0  0  0
  2  3  1  0  0  0  0
  2  1  2  0  0  0  0
  3  4  2  0  0  0  0
  4  5  1  0  0  0  0
  5 14  1  0  0  0  0
  6  5  2  0  0  0  0
  7  3  1  0  0  0  0
  8 16  1  0  0  0  0
  8  7  1  0  0  0  0
  9 18  1  0  0  0  0
  9 10  1  0  0  0  0
  9  8  1  0  0  0  0
 10 11  1  0  0  0  0
 10 20  1  0  0  0  0
 11  7  1  0  0  0  0
 11 21  1  1  0  0  0
 12  1  1  0  0  0  0
 13  2  1  0  0  0  0
 15  8  1  0  0  0  0
 17  9  1  0  0  0  0
 19 10  1  0  0  0  0
 21 24  1  0  0  0  0
 21 23  1  0  0  0  0
 22 21  1  0  0  0  0
 25 26  1  1  0  0  0
 25 11  1  0  0  0  0
 27 28  1  0  0  0  0
 27 25  1  0  0  0  0
 28 29  1  0  0  0  0
 30 28  2  0  0  0  0
 31 30  1  0  0  0  0
 32 31  1  0  0  0  0
 33 31  2  0  0  0  0
 33 35  1  0  0  0  0
 34 33  1  0  0  0  0
 35 27  2  0  0  0  0
 36 25  1  0  0  0  0
 37 38  2  0  0  0  0
 37 36  1  0  0  0  0
 39 37  1  0  0  0  0
 40 39  1  0  0  0  0
 41 39  1  0  0  0  0
M  END
>  <minimizedAffinity>
-5.15470743

$$$$

 OpenBabel03272507293D

 41 43  0  0  1  0  0  0  0  0999 V2000
   35.5320   21.1640   30.9600 C   0  0  0  0  0  0  0  0  0  0  0  0
   36.4620   22.2120   31.0930 C   0  0  0  0  0  0  0  0  0  0  0  0
   37.3020   22.1890   32.2000 C   0  0  0  0  0  0  0  0  0  0  0  0
   37.1880   21.1820   33.0800 N   0  0  0  0  0  0  0  0  0  0  0  0
   36.2900   20.1920   32.9290 C   0  0  0  0  0  0  0  0  0  0  0  0
   35.4730   20.1890   31.8790 N   0  0  0  0  0  0  0  0  0  0  0  0
   38.2420   23.1960   32.4000 N   0  0  0  0  0  0  0  0  0  0  0  0
   38.9520   23.9420   31.3310 C   0  0  0  0  0  0  0  0  0  0  0  0
   40.0260   24.7400   31.9530 C   0  0  0  0  0  0  0  0  0  0  0  0
   40.1990   24.1010   33.2540 C   0  0  0  0  0  0  0  0  0  0  0  0
   38.8000   23.7550   33.5880 C   0  0  2  0  0  0  0  0  0  0  0  0
   34.9320   21.2890   30.0560 H   0  0  0  0  0  0  0  0  0  0  0  0
   36.5900   23.0380   30.4110 H   0  0  0  0  0  0  0  0  0  0  0  0
   36.1480   19.3580   33.5970 H   0  0  0  0  0  0  0  0  0  0  0  0
   38.3540   24.3390   30.5460 H   0  0  0  0  0  0  0  0  0  0  0  0
   39.4430   23.0320   30.8020 H   0  0  0  0  0  0  0  0  0  0  0  0
   40.1630   25.7710   31.7750 H   0  0  0  0  0  0  0  0  0  0  0  0
   40.9980   24.3580   31.3790 H   0  0  0  0  0  0  0  0  0  0  0  0
   40.5400   24.8650   34.0000 H   0  0  0  0  0  0  0  0  0  0  0  0
   40.8800   23.2410   33.3110 H   0  0  0  0  0  0  0  0  0  0  0  0
   38.7640   22.8220   34.8020 C   0  0  0  0  0  0  0  0  0  0  0  0
   37.4550   22.7140   35.2210 F   0  0  0  0  0  0  0  0  0  0  0  0
   39.4810   23.2420   35.8830 F   0  0  0  0  0  0  0  0  0  0  0  0
   39.1420   21.5790   34.3530 F   0  0  0  0  0  0  0  0  0  0  0  0
   38.0090   24.8980   33.9450 C   0  0  2  0  0  0  0  0  0  0  0  0
   37.0040   24.6490   34.2130 H   0  0  0  0  0  0  0  0  0  0  0  0
   37.6130   25.9280   32.8250 C   0  0  0  0  0  0  0  0  0  0  0  0
   36.4110   25.7820   32.1010 C   0  0  0  0  0  0  0  0  0  0  0  0
   35.8500   24.8710   32.3180 H   0  0  0  0  0  0  0  0  0  0  0  0
   35.8980   26.6490   31.1850 C   0  0  0  0  0  3  0  0  0  0  0  0
   36.6580   27.7690   30.9720 C   0  0  0  0  0  0  0  0  0  0  0  0
   36.3390   28.5190   30.2650 H   0  0  0  0  0  0  0  0  0  0  0  0
   37.8470   28.0290   31.6130 C   0  0  0  0  0  0  0  0  0  0  0  0
   38.4860   28.8790   31.4950 H   0  0  0  0  0  0  0  0  0  0  0  0
   38.2870   27.1000   32.5210 C   0  0  0  0  0  3  0  0  0  0  0  0
   38.7060   25.6380   34.6900 O   0  0  0  0  0  0  0  0  0  0  0  0
   38.5640   26.4660   35.7360 C   0  0  0  0  0  0  0  0  0  0  0  0
   38.2950   25.8550   36.7730 O   0  0  0  0  0  0  0  0  0  0  0  0
   38.5800   27.7880   36.2540 N   0  0  0  0  0  0  0  0  0  0  0  0
   37.6960   28.3440   36.3520 H   0  0  0  0  0  0  0  0  0  0  0  0
   39.5490   28.1020   36.5060 H   0  0  0  0  0  0  0  0  0  0  0  0
  1  2  2  0  0  0  0
  1  6  1  0  0  0  0
  2  3  1  0  0  0  0
  3  7  1  0  0  0  0
  3  4  2  0  0  0  0
  5  4  1  0  0  0  0
  5 14  1  0  0  0  0
  6  5  2  0  0  0  0
  7 11  1  0  0  0  0
  8  9  1  0  0  0  0
  8  7  1  0  0  0  0
  9 10  1  0  0  0  0
 10 20  1  0  0  0  0
 10 11  1  0  0  0  0
 10 19  1  0  0  0  0
 11 25  1  0  0  0  0
 11 21  1  1  0  0  0
 12  1  1  0  0  0  0
 13  2  1  0  0  0  0
 15  8  1  0  0  0  0
 16  8  1  0  0  0  0
 17  9  1  0  0  0  0
 18  9  1  0  0  0  0
 21 22  1  0  0  0  0
 21 23  1  0  0  0  0
 24 21  1  0  0  0  0
 25 26  1  1  0  0  0
 25 36  1  0  0  0  0
 27 25  1  0  0  0  0
 28 29  1  0  0  0  0
 28 27  2  0  0  0  0
 30 28  1  0  0  0  0
 31 30  2  0  0  0  0
 31 33  1  0  0  0  0
 32 31  1  0  0  0  0
 33 35  2  0  0  0  0
 34 33  1  0  0  0  0
 35 27  1  0  0  0  0
 36 37  1  0  0  0  0
 37 39  1  0  0  0  0
 37 38  2  0  0  0  0
 39 40  1  0  0  0  0
 39 41  1  0  0  0  0
M  END
>  <minimizedAffinity>
-5.11103439

$$$$
