
 OpenBabel03272509403D

 35 37  0  0  0  0  0  0  0  0999 V2000
   37.0620   30.9700   49.0630 C   0  0  0  0  0  0  0  0  0  0  0  0
   36.7910   31.9060   50.0660 C   0  0  0  0  0  0  0  0  0  0  0  0
   37.3970   33.1480   50.0910 C   0  0  0  0  0  0  0  0  0  0  0  0
   38.3130   33.4940   49.0910 C   0  0  0  0  0  0  0  0  0  0  0  0
   38.5660   32.5610   48.1160 C   0  0  0  0  0  0  0  0  0  0  0  0
   37.9470   31.3240   48.1100 C   0  0  0  0  0  0  0  0  0  0  0  0
   36.0940   31.6970   50.8650 H   0  0  0  0  0  0  0  0  0  0  0  0
   37.1740   33.8560   50.8740 H   0  0  0  0  0  0  0  0  0  0  0  0
   38.7720   34.4710   49.1360 H   0  0  0  0  0  0  0  0  0  0  0  0
   39.2830   32.9090   47.3840 H   0  0  0  0  0  0  0  0  0  0  0  0
   36.3780   29.6900   49.1180 C   0  0  0  0  0  0  0  0  0  0  0  0
   36.9080   28.8320   49.9090 O   0  0  0  0  0  0  0  0  0  0  0  0
   33.6130   30.1670   46.8220 C   0  0  0  0  0  0  0  0  0  0  0  0
   32.9400   28.9410   46.8380 C   0  0  0  0  0  0  0  0  0  0  0  0
   33.4410   27.9490   47.6430 C   0  0  0  0  0  0  0  0  0  0  0  0
   34.5590   28.1820   48.3890 N   0  0  0  0  0  0  0  0  0  0  0  0
   35.1750   29.3490   48.3550 C   0  0  0  0  0  0  0  0  0  0  0  0
   34.6910   30.3210   47.5710 N   0  0  0  0  0  0  0  0  0  0  0  0
   33.1700   30.9020   46.1710 H   0  0  0  0  0  0  0  0  0  0  0  0
   32.0680   28.6610   46.2990 H   0  0  0  0  0  0  0  0  0  0  0  0
   33.0120   26.9670   47.7390 H   0  0  0  0  0  0  0  0  0  0  0  0
   38.3280   30.4660   47.0160 C   0  0  0  0  0  3  0  0  0  0  0  0
   39.0250   30.8150   45.9450 C   0  0  0  0  0  3  0  0  0  0  0  0
   39.4750   30.0430   44.7710 C   0  0  0  0  0  0  0  0  0  0  0  0
   40.5210   30.2470   44.4830 H   0  0  0  0  0  0  0  0  0  0  0  0
   39.4400   28.9640   45.0420 H   0  0  0  0  0  0  0  0  0  0  0  0
   38.5340   30.2030   43.6130 C   0  0  0  0  0  0  0  0  0  0  0  0
   38.8240   31.0970   42.6050 C   0  0  0  0  0  0  0  0  0  0  0  0
   39.7230   31.7100   42.6030 H   0  0  0  0  0  0  0  0  0  0  0  0
   37.9620   31.2620   41.5170 C   0  0  0  0  0  3  0  0  0  0  0  0
   36.8350   30.4610   41.5680 C   0  0  0  0  0  0  0  0  0  0  0  0
   36.1490   30.5770   40.7250 H   0  0  0  0  0  0  0  0  0  0  0  0
   36.4830   29.5590   42.5260 C   0  0  0  0  0  0  0  0  0  0  0  0
   35.5650   28.9940   42.4390 H   0  0  0  0  0  0  0  0  0  0  0  0
   37.4000   29.4560   43.5780 C   0  0  0  0  0  3  0  0  0  0  0  0
  1 11  1  0  0  0  0
  1  2  1  0  0  0  0
  2  3  2  0  0  0  0
  2  7  1  0  0  0  0
  3  8  1  0  0  0  0
  4  9  1  0  0  0  0
  4  3  1  0  0  0  0
  5  4  2  0  0  0  0
  6  5  1  0  0  0  0
  6  1  2  0  0  0  0
 10  5  1  0  0  0  0
 11 12  2  0  0  0  0
 13 14  2  0  0  0  0
 13 18  1  0  0  0  0
 14 15  1  0  0  0  0
 15 21  1  0  0  0  0
 15 16  2  0  0  0  0
 17 16  1  0  0  0  0
 17 11  1  0  0  0  0
 18 17  2  0  0  0  0
 19 13  1  0  0  0  0
 20 14  1  0  0  0  0
 22  6  1  0  0  0  0
 23 22  2  0  0  0  0
 24 26  1  0  0  0  0
 24 23  1  0  0  0  0
 25 24  1  0  0  0  0
 27 24  1  0  0  0  0
 28 27  2  0  0  0  0
 29 28  1  0  0  0  0
 30 31  2  0  0  0  0
 30 28  1  0  0  0  0
 31 33  1  0  0  0  0
 32 31  1  0  0  0  0
 33 35  2  0  0  0  0
 34 33  1  0  0  0  0
 35 27  1  0  0  0  0
M  END
>  <minimizedAffinity>
-5.6973877

>  <minimizedRMSD>
0.357993633

$$$$
