
 OpenBabel03272509583D

 46 49  0  0  0  0  0  0  0  0999 V2000
   34.5500   28.2780   48.4000 C   0  0  0  0  0  0  0  0  0  0  0  0
   35.5910   27.9040   48.2100 H   0  0  0  0  0  0  0  0  0  0  0  0
   34.4050   29.0660   47.6240 H   0  0  0  0  0  0  0  0  0  0  0  0
   33.5390   27.1710   48.3180 C   0  0  0  0  0  0  0  0  0  0  0  0
   33.9070   26.4370   47.5520 H   0  0  0  0  0  0  0  0  0  0  0  0
   33.4080   26.5930   49.2430 H   0  0  0  0  0  0  0  0  0  0  0  0
   32.2130   27.6350   47.8200 C   0  0  0  0  0  0  0  0  0  0  0  0
   31.1520   27.6150   48.7100 C   0  0  0  0  0  0  0  0  0  0  0  0
   29.8940   28.0240   48.3410 C   0  0  0  0  0  0  0  0  0  0  0  0
   29.6880   28.4510   47.0920 N   0  0  0  0  0  0  0  0  0  0  0  0
   30.7460   28.4630   46.2300 C   0  0  0  0  0  0  0  0  0  0  0  0
   31.9790   28.0690   46.5690 N   0  0  0  0  0  0  0  0  0  0  0  0
   31.3190   27.2660   49.7270 H   0  0  0  0  0  0  0  0  0  0  0  0
   29.0790   27.9910   49.0800 H   0  0  0  0  0  0  0  0  0  0  0  0
   30.4600   28.9500   44.8480 C   0  0  0  0  0  0  0  0  0  0  0  0
   29.4940   28.5060   44.5280 H   0  0  0  0  0  0  0  0  0  0  0  0
   31.2240   28.4370   44.1980 H   0  0  0  0  0  0  0  0  0  0  0  0
   30.4990   30.4110   44.7110 C   0  0  0  0  0  0  0  0  0  0  0  0
   31.6780   31.0490   45.1070 C   0  0  0  0  0  0  0  0  0  0  0  0
   32.5360   30.5020   45.4980 H   0  0  0  0  0  0  0  0  0  0  0  0
   31.8400   32.4170   45.0290 C   0  0  0  0  0  3  0  0  0  0  0  0
   30.8020   33.1840   44.5440 C   0  0  0  0  0  0  0  0  0  0  0  0
   30.8780   34.2710   44.4620 H   0  0  0  0  0  0  0  0  0  0  0  0
   29.6440   32.5650   44.1550 C   0  0  0  0  0  0  0  0  0  0  0  0
   28.8180   33.1160   43.7760 H   0  0  0  0  0  0  0  0  0  0  0  0
   29.4610   31.1800   44.2270 C   0  0  0  0  0  3  0  0  0  0  0  0
   34.5440   28.8650   49.6930 O   0  0  0  0  0  0  0  0  0  0  0  0
   37.3030   30.0360   51.7050 C   0  0  0  0  0  0  0  0  0  0  0  0
   38.0770   30.6870   50.7170 C   0  0  0  0  0  0  0  0  0  0  0  0
   37.5940   30.6820   49.4080 C   0  0  0  0  0  0  0  0  0  0  0  0
   36.4080   30.0380   49.2160 N   0  0  0  0  0  0  0  0  0  0  0  0
   35.6840   29.4260   50.1530 C   0  0  0  0  0  0  0  0  0  0  0  0
   36.1530   29.4320   51.4210 N   0  0  0  0  0  0  0  0  0  0  0  0
   37.7110   30.0630   52.7030 H   0  0  0  0  0  0  0  0  0  0  0  0
   39.0040   31.1890   50.8750 H   0  0  0  0  0  0  0  0  0  0  0  0
   38.8240   33.2920   49.2460 F   0  0  0  0  0  0  0  0  0  0  0  0
   38.8200   32.4970   48.1720 C   0  0  0  0  0  0  0  0  0  0  0  0
   38.2440   31.2920   48.2730 C   0  0  0  0  0  0  0  0  0  0  0  0
   38.2950   30.5420   47.0950 C   0  0  0  0  0  0  0  0  0  0  0  0
   38.8800   30.9980   45.9460 C   0  0  0  0  0  0  0  0  0  0  0  0
   39.4590   32.2440   45.8960 C   0  0  0  0  0  0  0  0  0  0  0  0
   39.4220   32.9990   47.0350 C   0  0  0  0  0  0  0  0  0  0  0  0
   37.8690   29.5420   47.0220 H   0  0  0  0  0  0  0  0  0  0  0  0
   38.9140   30.4080   45.0390 H   0  0  0  0  0  0  0  0  0  0  0  0
   39.9280   32.6240   44.9930 H   0  0  0  0  0  0  0  0  0  0  0  0
   39.8720   33.9840   47.0170 H   0  0  0  0  0  0  0  0  0  0  0  0
  1 27  1  0  0  0  0
  2  1  1  0  0  0  0
  3  1  1  0  0  0  0
  4  1  1  0  0  0  0
  4  6  1  0  0  0  0
  5  4  1  0  0  0  0
  7  4  1  0  0  0  0
  7  8  1  0  0  0  0
  8 13  1  0  0  0  0
  9  8  2  0  0  0  0
  9 14  1  0  0  0  0
 10  9  1  0  0  0  0
 11 12  1  0  0  0  0
 11 10  2  0  0  0  0
 12  7  2  0  0  0  0
 15 11  1  0  0  0  0
 16 15  1  0  0  0  0
 17 15  1  0  0  0  0
 18 15  1  0  0  0  0
 18 19  1  0  0  0  0
 19 20  1  0  0  0  0
 21 19  2  0  0  0  0
 22 21  1  0  0  0  0
 23 22  1  0  0  0  0
 24 26  1  0  0  0  0
 24 22  2  0  0  0  0
 25 24  1  0  0  0  0
 26 18  2  0  0  0  0
 27 32  1  0  0  0  0
 28 34  1  0  0  0  0
 29 35  1  0  0  0  0
 29 28  2  0  0  0  0
 30 29  1  0  0  0  0
 31 30  2  0  0  0  0
 31 32  1  0  0  0  0
 32 33  2  0  0  0  0
 33 28  1  0  0  0  0
 37 38  1  0  0  0  0
 37 36  1  0  0  0  0
 38 30  1  0  0  0  0
 39 38  2  0  0  0  0
 40 39  1  0  0  0  0
 41 40  2  0  0  0  0
 41 42  1  0  0  0  0
 42 37  2  0  0  0  0
 43 39  1  0  0  0  0
 44 40  1  0  0  0  0
 45 41  1  0  0  0  0
 46 42  1  0  0  0  0
M  END
>  <minimizedAffinity>
-6.33273125

>  <minimizedRMSD>
1.0849272

$$$$
