
 OpenBabel03272507163D

 26 28  0  0  1  0  0  0  0  0999 V2000
   36.9130   30.9590   50.5470 C   0  0  1  0  0  0  0  0  0  0  0  0
   36.1950   29.7030   50.4800 C   0  0  2  0  0  0  0  0  0  0  0  0
   37.5190   29.7190   51.2130 C   0  0  0  0  0  0  0  0  0  0  0  0
   36.5870   31.7660   51.2310 H   0  0  0  0  0  0  0  0  0  0  0  0
   35.3400   29.5720   51.1690 H   0  0  0  0  0  0  0  0  0  0  0  0
   37.5350   29.7730   52.3190 H   0  0  0  0  0  0  0  0  0  0  0  0
   38.3950   29.2350   50.7640 H   0  0  0  0  0  0  0  0  0  0  0  0
   37.7400   31.4420   49.3850 C   0  0  0  0  0  0  0  0  0  0  0  0
   38.2180   32.7500   49.4900 C   0  0  0  0  0  0  0  0  0  0  0  0
   38.9600   33.2080   48.3900 C   0  0  0  0  0  0  0  0  0  0  0  0
   39.1770   32.3850   47.3020 N   0  0  0  0  0  0  0  0  0  0  0  0
   38.6810   31.1180   47.2650 C   0  0  0  0  0  0  0  0  0  0  0  0
   37.9560   30.6510   48.3250 N   0  0  0  0  0  0  0  0  0  0  0  0
   38.0420   33.3810   50.3470 H   0  0  0  0  0  0  0  0  0  0  0  0
   39.3600   34.2120   48.4090 H   0  0  0  0  0  0  0  0  0  0  0  0
   38.8890   30.5290   46.3820 H   0  0  0  0  0  0  0  0  0  0  0  0
   36.1720   28.9950   49.2800 O   0  0  0  0  0  0  0  0  0  0  0  0
   35.0260   28.9500   48.5140 C   0  0  0  0  0  0  0  0  0  0  0  0
   34.5730   29.6870   47.4400 C   0  0  0  0  0  0  0  0  0  0  0  0
   35.2680   30.4400   47.1600 H   0  0  0  0  0  0  0  0  0  0  0  0
   33.3570   29.3990   46.8740 C   0  0  0  0  0  0  0  0  0  0  0  0
   32.5380   28.3810   47.3360 C   0  0  0  0  0  0  0  0  0  0  0  0
   31.5820   28.2100   46.8330 H   0  0  0  0  0  0  0  0  0  0  0  0
   32.9750   27.6320   48.4110 C   0  0  0  0  0  0  0  0  0  0  0  0
   32.3000   26.8670   48.7160 H   0  0  0  0  0  0  0  0  0  0  0  0
   34.2090   27.9200   48.9900 C   0  0  0  0  0  0  0  0  0  0  0  0
  1  3  1  0  0  0  0
  1  4  1  1  0  0  0
  2  1  1  0  0  0  0
  2  5  1  1  0  0  0
  2  3  1  0  0  0  0
  3  6  1  0  0  0  0
  7  3  1  0  0  0  0
  8  9  1  0  0  0  0
  8  1  1  0  0  0  0
  9 14  1  0  0  0  0
 10 15  1  0  0  0  0
 10  9  2  0  0  0  0
 11 10  1  0  0  0  0
 12 11  2  0  0  0  0
 12 13  1  0  0  0  0
 13  8  2  0  0  0  0
 16 12  1  0  0  0  0
 17  2  1  0  0  0  0
 18 26  1  0  0  0  0
 18 17  1  0  0  0  0
 19 18  2  0  0  0  0
 20 19  1  0  0  0  0
 21 22  2  0  0  0  0
 21 19  1  0  0  0  0
 22 24  1  0  0  0  0
 23 22  1  0  0  0  0
 24 25  1  0  0  0  0
 24 26  2  0  0  0  0
M  END
>  <minimizedAffinity>
-5.51397562

>  <minimizedRMSD>
1.97347152

$$$$
