
 OpenBabel03272509403D

 35 37  0  0  0  0  0  0  0  0999 V2000
   37.0500   30.9560   49.0710 C   0  0  0  0  0  0  0  0  0  0  0  0
   36.8020   31.8850   50.0860 C   0  0  0  0  0  0  0  0  0  0  0  0
   37.4160   33.1220   50.1120 C   0  0  0  0  0  0  0  0  0  0  0  0
   38.3170   33.4720   49.0990 C   0  0  0  0  0  0  0  0  0  0  0  0
   38.5460   32.5470   48.1110 C   0  0  0  0  0  0  0  0  0  0  0  0
   37.9200   31.3130   48.1050 C   0  0  0  0  0  0  0  0  0  0  0  0
   36.1170   31.6720   50.8960 H   0  0  0  0  0  0  0  0  0  0  0  0
   37.2110   33.8240   50.9050 H   0  0  0  0  0  0  0  0  0  0  0  0
   38.7830   34.4460   49.1450 H   0  0  0  0  0  0  0  0  0  0  0  0
   39.2530   32.8970   47.3710 H   0  0  0  0  0  0  0  0  0  0  0  0
   36.3580   29.6800   49.1260 C   0  0  0  0  0  0  0  0  0  0  0  0
   36.8790   28.8220   49.9210 O   0  0  0  0  0  0  0  0  0  0  0  0
   33.5920   30.1730   46.8340 C   0  0  0  0  0  0  0  0  0  0  0  0
   32.9240   28.9450   46.8360 C   0  0  0  0  0  0  0  0  0  0  0  0
   33.4280   27.9460   47.6290 C   0  0  0  0  0  0  0  0  0  0  0  0
   34.5450   28.1740   48.3780 N   0  0  0  0  0  0  0  0  0  0  0  0
   35.1570   29.3440   48.3580 C   0  0  0  0  0  0  0  0  0  0  0  0
   34.6690   30.3230   47.5860 N   0  0  0  0  0  0  0  0  0  0  0  0
   33.1470   30.9150   46.1920 H   0  0  0  0  0  0  0  0  0  0  0  0
   32.0530   28.6680   46.2930 H   0  0  0  0  0  0  0  0  0  0  0  0
   33.0020   26.9610   47.7130 H   0  0  0  0  0  0  0  0  0  0  0  0
   38.2760   30.4630   46.9970 C   0  0  0  0  0  3  0  0  0  0  0  0
   38.9560   30.8170   45.9170 C   0  0  0  0  0  3  0  0  0  0  0  0
   39.3810   30.0540   44.7290 C   0  0  0  0  0  0  0  0  0  0  0  0
   40.4750   29.9300   44.6510 H   0  0  0  0  0  0  0  0  0  0  0  0
   38.9650   29.0260   44.8200 H   0  0  0  0  0  0  0  0  0  0  0  0
   38.7910   30.6210   43.4700 C   0  0  0  0  0  0  0  0  0  0  0  0
   38.6630   29.8300   42.3490 C   0  0  0  0  0  0  0  0  0  0  0  0
   38.9760   28.7880   42.3250 H   0  0  0  0  0  0  0  0  0  0  0  0
   38.1160   30.3380   41.1670 C   0  0  0  0  0  3  0  0  0  0  0  0
   37.7360   31.6650   41.2500 C   0  0  0  0  0  0  0  0  0  0  0  0
   37.3060   32.0800   40.3340 H   0  0  0  0  0  0  0  0  0  0  0  0
   37.8310   32.5050   42.3180 C   0  0  0  0  0  0  0  0  0  0  0  0
   37.4910   33.5300   42.2440 H   0  0  0  0  0  0  0  0  0  0  0  0
   38.3870   31.9190   43.4580 C   0  0  0  0  0  3  0  0  0  0  0  0
  1 11  1  0  0  0  0
  1  2  1  0  0  0  0
  2  3  2  0  0  0  0
  2  7  1  0  0  0  0
  3  8  1  0  0  0  0
  4  9  1  0  0  0  0
  4  3  1  0  0  0  0
  5  4  2  0  0  0  0
  6  5  1  0  0  0  0
  6  1  2  0  0  0  0
 10  5  1  0  0  0  0
 11 12  2  0  0  0  0
 13 14  2  0  0  0  0
 13 18  1  0  0  0  0
 14 15  1  0  0  0  0
 15 21  1  0  0  0  0
 15 16  2  0  0  0  0
 17 16  1  0  0  0  0
 17 11  1  0  0  0  0
 18 17  2  0  0  0  0
 19 13  1  0  0  0  0
 20 14  1  0  0  0  0
 22  6  1  0  0  0  0
 23 22  2  0  0  0  0
 24 26  1  0  0  0  0
 24 23  1  0  0  0  0
 25 24  1  0  0  0  0
 27 24  1  0  0  0  0
 28 27  2  0  0  0  0
 29 28  1  0  0  0  0
 30 31  2  0  0  0  0
 30 28  1  0  0  0  0
 31 33  1  0  0  0  0
 32 31  1  0  0  0  0
 33 35  2  0  0  0  0
 34 33  1  0  0  0  0
 35 27  1  0  0  0  0
M  END
>  <minimizedAffinity>
-5.72450066

>  <minimizedRMSD>
0.447605282

$$$$
