
 OpenBabel03272510123D

 35 38  0  0  0  0  0  0  0  0999 V2000
   33.5360   28.3040   48.8280 C   0  0  0  0  0  0  0  0  0  0  0  0
   33.4140   28.9340   50.0150 C   0  0  0  0  0  0  0  0  0  0  0  0
   34.3660   29.7580   50.5780 C   0  0  0  0  0  0  0  0  0  0  0  0
   35.5380   29.9810   49.9170 C   0  0  0  0  0  0  0  0  0  0  0  0
   35.6790   29.3350   48.6850 C   0  0  0  0  0  0  0  0  0  0  0  0
   34.7140   28.5410   48.1840 N   0  0  0  0  0  0  0  0  0  0  0  0
   32.5180   28.8180   50.6150 H   0  0  0  0  0  0  0  0  0  0  0  0
   34.2570   30.2610   51.5370 H   0  0  0  0  0  0  0  0  0  0  0  0
   36.5870   29.4670   48.1020 H   0  0  0  0  0  0  0  0  0  0  0  0
   31.1650   27.5660   48.5050 C   0  0  0  0  0  0  0  0  0  0  0  0
   32.5410   27.4510   48.2530 C   0  0  0  0  0  0  0  0  0  0  0  0
   32.9270   26.4370   47.3890 C   0  0  0  0  0  0  0  0  0  0  0  0
   31.9660   25.6240   46.8420 N   0  0  0  0  0  0  0  0  0  0  0  0
   30.6620   25.7900   47.1280 C   0  0  0  0  0  0  0  0  0  0  0  0
   30.2510   26.7530   47.9540 N   0  0  0  0  0  0  0  0  0  0  0  0
   30.8300   28.3450   49.1750 H   0  0  0  0  0  0  0  0  0  0  0  0
   33.9790   26.3180   47.1690 H   0  0  0  0  0  0  0  0  0  0  0  0
   30.0060   25.0850   46.6330 H   0  0  0  0  0  0  0  0  0  0  0  0
   36.5950   30.7800   50.3440 O   0  0  0  0  0  0  0  0  0  0  0  0
   37.4290   31.4220   49.4300 C   0  0  0  0  0  0  0  0  0  0  0  0
   37.8530   32.6970   49.8270 C   0  0  0  0  0  0  0  0  0  0  0  0
   38.6660   33.2060   48.8300 C   0  0  0  0  0  0  0  0  0  0  0  0
   38.7110   32.2550   47.8870 N   0  0  0  0  0  0  0  0  0  0  0  0
   37.9940   31.2130   48.2280 N   0  0  0  0  0  0  0  0  0  0  0  0
   37.6790   33.3240   50.7080 H   0  0  0  0  0  0  0  0  0  0  0  0
   39.2220   34.1010   48.6440 H   0  0  0  0  0  0  0  0  0  0  0  0
   39.3430   32.0860   46.5990 C   0  0  0  0  0  0  0  0  0  0  0  0
   40.0410   33.1380   45.9930 C   0  0  0  0  0  0  0  0  0  0  0  0
   40.1150   34.0900   46.4790 H   0  0  0  0  0  0  0  0  0  0  0  0
   40.6150   32.8880   44.7590 C   0  0  0  0  0  3  0  0  0  0  0  0
   40.5440   31.6780   44.0980 C   0  0  0  0  0  0  0  0  0  0  0  0
   41.0030   31.5120   43.1340 H   0  0  0  0  0  0  0  0  0  0  0  0
   39.8470   30.6290   44.7050 C   0  0  0  0  0  0  0  0  0  0  0  0
   39.7700   29.6680   44.2180 H   0  0  0  0  0  0  0  0  0  0  0  0
   39.2670   30.8640   45.9380 C   0  0  0  0  0  3  0  0  0  0  0  0
  1  2  1  0  0  0  0
  2  3  2  0  0  0  0
  2  7  1  0  0  0  0
  3  8  1  0  0  0  0
  4 19  1  0  0  0  0
  4  3  1  0  0  0  0
  5  4  2  0  0  0  0
  6  5  1  0  0  0  0
  6  1  2  0  0  0  0
  9  5  1  0  0  0  0
 10 16  1  0  0  0  0
 11 10  1  0  0  0  0
 11  1  1  0  0  0  0
 12 11  2  0  0  0  0
 13 14  2  0  0  0  0
 13 12  1  0  0  0  0
 14 15  1  0  0  0  0
 15 10  2  0  0  0  0
 17 12  1  0  0  0  0
 18 14  1  0  0  0  0
 20 21  1  0  0  0  0
 20 19  1  0  0  0  0
 21 25  1  0  0  0  0
 22 21  2  0  0  0  0
 23 24  1  0  0  0  0
 23 22  1  0  0  0  0
 24 20  2  0  0  0  0
 26 22  1  0  0  0  0
 27 23  1  0  0  0  0
 28 29  1  0  0  0  0
 28 27  1  0  0  0  0
 30 28  2  0  0  0  0
 31 33  2  0  0  0  0
 31 30  1  0  0  0  0
 32 31  1  0  0  0  0
 33 35  1  0  0  0  0
 34 33  1  0  0  0  0
 35 27  2  0  0  0  0
M  END
>  <minimizedAffinity>
-6.34296513

>  <minimizedRMSD>
1.89529335

$$$$
