
 OpenBabel03272505443D

 24 25  0  0  0  0  0  0  0  0999 V2000
   36.8960   27.7430   34.9710 O   0  0  0  0  0  0  0  0  0  0  0  0
   37.9430   26.6500   34.9960 P   0  0  2  0  0  0  0  0  0  0  0  0
   39.3360   27.3480   35.6670 O   0  0  0  0  0  0  0  0  0  0  0  0
   39.7150   28.0050   35.0320 H   0  0  0  0  0  0  0  0  0  0  0  0
   38.2130   26.1350   33.4000 O   0  0  0  0  0  0  0  0  0  0  0  0
   35.4360   25.3030   31.1700 C   0  0  0  0  0  0  0  0  0  0  0  0
   35.5570   23.8820   31.1700 C   0  0  0  0  0  0  0  0  0  0  0  0
   36.5860   23.3120   31.9360 C   0  0  0  0  0  0  0  0  0  0  0  0
   37.4010   24.1360   32.6300 N   0  0  0  0  0  0  0  0  0  0  0  0
   37.2720   25.4840   32.6200 C   0  0  0  0  0  0  0  0  0  0  0  0
   36.2840   26.0510   31.8850 N   0  0  0  0  0  0  0  0  0  0  0  0
   34.6540   25.7830   30.5930 H   0  0  0  0  0  0  0  0  0  0  0  0
   34.8800   23.2800   30.5990 H   0  0  0  0  0  0  0  0  0  0  0  0
   36.7110   22.2370   31.9610 H   0  0  0  0  0  0  0  0  0  0  0  0
   37.3970   25.4450   36.0090 O   0  0  0  0  0  0  0  0  0  0  0  0
   38.2310   24.5320   36.6200 C   0  0  0  0  0  0  0  0  0  0  0  0
   38.0630   24.2960   37.9650 C   0  0  0  0  0  0  0  0  0  0  0  0
   37.2810   24.8340   38.5050 H   0  0  0  0  0  0  0  0  0  0  0  0
   38.8990   23.3840   38.5670 C   0  0  0  0  0  3  0  0  0  0  0  0
   39.8790   22.7110   37.8900 C   0  0  0  0  0  0  0  0  0  0  0  0
   40.5480   21.9950   38.3220 H   0  0  0  0  0  0  0  0  0  0  0  0
   39.9890   22.9960   36.5450 C   0  0  0  0  0  0  0  0  0  0  0  0
   40.7540   22.4830   35.9750 H   0  0  0  0  0  0  0  0  0  0  0  0
   39.1960   23.9000   35.8390 C   0  0  0  0  0  3  0  0  0  0  0  0
  2  1  2  6  0  0  0
  2  3  1  0  0  0  0
  2 15  1  0  0  0  0
  4  3  1  0  0  0  0
  5  2  1  0  0  0  0
  6  7  2  0  0  0  0
  6 11  1  0  0  0  0
  7  8  1  0  0  0  0
  8 14  1  0  0  0  0
  8  9  2  0  0  0  0
 10  9  1  0  0  0  0
 10  5  1  0  0  0  0
 11 10  2  0  0  0  0
 12  6  1  0  0  0  0
 13  7  1  0  0  0  0
 15 16  1  0  0  0  0
 16 17  1  0  0  0  0
 17 18  1  0  0  0  0
 17 19  2  0  0  0  0
 20 21  1  0  0  0  0
 20 19  1  0  0  0  0
 22 20  2  0  0  0  0
 23 22  1  0  0  0  0
 24 22  1  0  0  0  0
 24 16  2  0  0  0  0
M  END
>  <minimizedAffinity>
-4.92109346

$$$$

 OpenBabel03272505443D

 24 25  0  0  0  0  0  0  0  0999 V2000
   36.8350   27.7310   34.9190 O   0  0  0  0  0  0  0  0  0  0  0  0
   37.9100   26.6670   34.9870 P   0  0  2  0  0  0  0  0  0  0  0  0
   39.2710   27.4160   35.6680 O   0  0  0  0  0  0  0  0  0  0  0  0
   39.6440   28.0690   35.0260 H   0  0  0  0  0  0  0  0  0  0  0  0
   38.2240   26.1260   33.4080 O   0  0  0  0  0  0  0  0  0  0  0  0
   36.5060   23.2770   31.8860 C   0  0  0  0  0  0  0  0  0  0  0  0
   35.5300   23.9790   31.1180 C   0  0  0  0  0  0  0  0  0  0  0  0
   35.5330   25.3810   31.1800 C   0  0  0  0  0  0  0  0  0  0  0  0
   36.4550   25.9880   31.9580 N   0  0  0  0  0  0  0  0  0  0  0  0
   37.3760   25.3070   32.6810 C   0  0  0  0  0  0  0  0  0  0  0  0
   37.3870   23.9520   32.6340 N   0  0  0  0  0  0  0  0  0  0  0  0
   36.5390   22.1940   31.8660 H   0  0  0  0  0  0  0  0  0  0  0  0
   34.8230   23.4430   30.5190 H   0  0  0  0  0  0  0  0  0  0  0  0
   34.8080   25.9500   30.6110 H   0  0  0  0  0  0  0  0  0  0  0  0
   37.3770   25.4690   36.0160 O   0  0  0  0  0  0  0  0  0  0  0  0
   38.2170   24.5540   36.6150 C   0  0  0  0  0  0  0  0  0  0  0  0
   38.0280   24.2730   37.9480 C   0  0  0  0  0  0  0  0  0  0  0  0
   37.2250   24.7790   38.4900 H   0  0  0  0  0  0  0  0  0  0  0  0
   38.8710   23.3600   38.5390 C   0  0  0  0  0  3  0  0  0  0  0  0
   39.8770   22.7280   37.8610 C   0  0  0  0  0  0  0  0  0  0  0  0
   40.5520   22.0120   38.2830 H   0  0  0  0  0  0  0  0  0  0  0  0
   40.0080   23.0580   36.5280 C   0  0  0  0  0  0  0  0  0  0  0  0
   40.7930   22.5770   35.9580 H   0  0  0  0  0  0  0  0  0  0  0  0
   39.2100   23.9670   35.8340 C   0  0  0  0  0  3  0  0  0  0  0  0
  2  1  2  6  0  0  0
  2  3  1  0  0  0  0
  2 15  1  0  0  0  0
  4  3  1  0  0  0  0
  5  2  1  0  0  0  0
  6 11  1  0  0  0  0
  7  8  1  0  0  0  0
  7  6  2  0  0  0  0
  8  9  2  0  0  0  0
  9 10  1  0  0  0  0
 10  5  1  0  0  0  0
 11 10  2  0  0  0  0
 12  6  1  0  0  0  0
 13  7  1  0  0  0  0
 14  8  1  0  0  0  0
 15 16  1  0  0  0  0
 16 17  1  0  0  0  0
 17 18  1  0  0  0  0
 17 19  2  0  0  0  0
 20 21  1  0  0  0  0
 20 19  1  0  0  0  0
 22 20  2  0  0  0  0
 23 22  1  0  0  0  0
 24 22  1  0  0  0  0
 24 16  2  0  0  0  0
M  END
>  <minimizedAffinity>
-4.91144657

$$$$

 OpenBabel03272505443D

 24 25  0  0  0  0  0  0  0  0999 V2000
   39.6760   27.2400   33.5820 O   0  0  0  0  0  0  0  0  0  0  0  0
   38.7280   26.6220   34.5890 P   0  0  2  0  0  0  0  0  0  0  0  0
   38.8870   27.5380   36.0080 O   0  0  0  0  0  0  0  0  0  0  0  0
   39.7760   27.3740   36.4090 H   0  0  0  0  0  0  0  0  0  0  0  0
   39.1930   25.0080   34.8360 O   0  0  0  0  0  0  0  0  0  0  0  0
   39.7840   22.8090   37.6990 C   0  0  0  0  0  0  0  0  0  0  0  0
   38.7620   23.2860   38.5720 C   0  0  0  0  0  0  0  0  0  0  0  0
   37.9430   24.3300   38.1130 C   0  0  0  0  0  0  0  0  0  0  0  0
   38.1650   24.8240   36.8760 N   0  0  0  0  0  0  0  0  0  0  0  0
   39.1400   24.3590   36.0590 C   0  0  0  0  0  0  0  0  0  0  0  0
   39.9400   23.3520   36.4860 N   0  0  0  0  0  0  0  0  0  0  0  0
   40.4370   22.0040   38.0140 H   0  0  0  0  0  0  0  0  0  0  0  0
   38.6330   22.8550   39.5430 H   0  0  0  0  0  0  0  0  0  0  0  0
   37.1560   24.7200   38.7470 H   0  0  0  0  0  0  0  0  0  0  0  0
   37.1780   26.7950   34.0010 O   0  0  0  0  0  0  0  0  0  0  0  0
   36.6720   27.9920   33.5380 C   0  0  0  0  0  0  0  0  0  0  0  0
   36.0670   28.8350   34.4400 C   0  0  0  0  0  0  0  0  0  0  0  0
   36.0040   28.5360   35.4880 H   0  0  0  0  0  0  0  0  0  0  0  0
   35.5640   30.0260   33.9700 C   0  0  0  0  0  3  0  0  0  0  0  0
   35.6420   30.4010   32.6560 C   0  0  0  0  0  0  0  0  0  0  0  0
   35.2640   31.3180   32.2510 H   0  0  0  0  0  0  0  0  0  0  0  0
   36.2620   29.5070   31.8080 C   0  0  0  0  0  0  0  0  0  0  0  0
   36.3420   29.7690   30.7610 H   0  0  0  0  0  0  0  0  0  0  0  0
   36.8040   28.2770   32.1800 C   0  0  0  0  0  3  0  0  0  0  0  0
  2  1  2  6  0  0  0
  2  5  1  0  0  0  0
  2  3  1  0  0  0  0
  3  4  1  0  0  0  0
  5 10  1  0  0  0  0
  6 12  1  0  0  0  0
  6  7  1  0  0  0  0
  7 13  1  0  0  0  0
  8  7  2  0  0  0  0
  8 14  1  0  0  0  0
  9  8  1  0  0  0  0
 10 11  1  0  0  0  0
 10  9  2  0  0  0  0
 11  6  2  0  0  0  0
 15  2  1  0  0  0  0
 16 15  1  0  0  0  0
 16 17  1  0  0  0  0
 17 18  1  0  0  0  0
 19 17  2  0  0  0  0
 20 19  1  0  0  0  0
 21 20  1  0  0  0  0
 22 24  1  0  0  0  0
 22 20  2  0  0  0  0
 23 22  1  0  0  0  0
 24 16  2  0  0  0  0
M  END
>  <minimizedAffinity>
-4.81452942

$$$$

 OpenBabel03272505443D

 24 25  0  0  0  0  0  0  0  0999 V2000
   36.6900   27.6900   34.9780 O   0  0  0  0  0  0  0  0  0  0  0  0
   37.8760   26.7610   35.1280 P   0  0  2  0  0  0  0  0  0  0  0  0
   38.9950   27.5810   36.1050 O   0  0  0  0  0  0  0  0  0  0  0  0
   39.3730   28.3460   35.6030 H   0  0  0  0  0  0  0  0  0  0  0  0
   38.5090   26.4510   33.5830 O   0  0  0  0  0  0  0  0  0  0  0  0
   38.0610   28.3800   30.5080 C   0  0  0  0  0  0  0  0  0  0  0  0
   36.7610   27.9260   30.1380 C   0  0  0  0  0  0  0  0  0  0  0  0
   36.1320   26.9890   30.9730 C   0  0  0  0  0  0  0  0  0  0  0  0
   36.7880   26.5690   32.0760 N   0  0  0  0  0  0  0  0  0  0  0  0
   38.0230   27.0110   32.4140 C   0  0  0  0  0  0  0  0  0  0  0  0
   38.6450   27.9160   31.6190 N   0  0  0  0  0  0  0  0  0  0  0  0
   38.5810   29.1040   29.8920 H   0  0  0  0  0  0  0  0  0  0  0  0
   36.2900   28.2950   29.2500 H   0  0  0  0  0  0  0  0  0  0  0  0
   35.1440   26.6200   30.7250 H   0  0  0  0  0  0  0  0  0  0  0  0
   37.3540   25.3960   35.9290 O   0  0  0  0  0  0  0  0  0  0  0  0
   38.2050   24.5280   36.5830 C   0  0  0  0  0  0  0  0  0  0  0  0
   39.2460   23.9790   35.8730 C   0  0  0  0  0  0  0  0  0  0  0  0
   39.3680   24.2420   34.8200 H   0  0  0  0  0  0  0  0  0  0  0  0
   40.0890   23.1150   36.5320 C   0  0  0  0  0  3  0  0  0  0  0  0
   39.9350   22.7840   37.8510 C   0  0  0  0  0  0  0  0  0  0  0  0
   40.5690   22.1180   38.3990 H   0  0  0  0  0  0  0  0  0  0  0  0
   38.8710   23.3730   38.5010 C   0  0  0  0  0  0  0  0  0  0  0  0
   38.7170   23.1360   39.5460 H   0  0  0  0  0  0  0  0  0  0  0  0
   37.9590   24.2600   37.9280 C   0  0  0  0  0  3  0  0  0  0  0  0
  2  1  2  6  0  0  0
  2 15  1  0  0  0  0
  2  3  1  0  0  0  0
  4  3  1  0  0  0  0
  5  2  1  0  0  0  0
  6 11  1  0  0  0  0
  7  6  2  0  0  0  0
  7  8  1  0  0  0  0
  8  9  2  0  0  0  0
  9 10  1  0  0  0  0
 10  5  1  0  0  0  0
 11 10  2  0  0  0  0
 12  6  1  0  0  0  0
 13  7  1  0  0  0  0
 14  8  1  0  0  0  0
 15 16  1  0  0  0  0
 16 24  1  0  0  0  0
 17 19  1  0  0  0  0
 17 16  2  0  0  0  0
 18 17  1  0  0  0  0
 19 20  2  0  0  0  0
 20 21  1  0  0  0  0
 20 22  1  0  0  0  0
 22 23  1  0  0  0  0
 24 22  2  0  0  0  0
M  END
>  <minimizedAffinity>
-4.72471857

$$$$

 OpenBabel03272505443D

 24 25  0  0  0  0  0  0  0  0999 V2000
   36.6690   27.6240   34.8030 O   0  0  0  0  0  0  0  0  0  0  0  0
   37.8820   26.7650   35.0930 P   0  0  2  0  0  0  0  0  0  0  0  0
   38.8520   27.6630   36.1560 O   0  0  0  0  0  0  0  0  0  0  0  0
   39.2370   28.4380   35.6770 H   0  0  0  0  0  0  0  0  0  0  0  0
   38.6830   26.4630   33.6260 O   0  0  0  0  0  0  0  0  0  0  0  0
   42.2720   27.1320   33.8600 C   0  0  0  0  0  0  0  0  0  0  0  0
   42.5120   27.5750   32.5260 C   0  0  0  0  0  0  0  0  0  0  0  0
   41.4220   27.6110   31.6420 C   0  0  0  0  0  0  0  0  0  0  0  0
   40.2110   27.2280   32.0990 N   0  0  0  0  0  0  0  0  0  0  0  0
   39.9990   26.8100   33.3700 C   0  0  0  0  0  0  0  0  0  0  0  0
   41.0400   26.7680   34.2370 N   0  0  0  0  0  0  0  0  0  0  0  0
   43.0850   27.0890   34.5750 H   0  0  0  0  0  0  0  0  0  0  0  0
   43.4950   27.8670   32.2210 H   0  0  0  0  0  0  0  0  0  0  0  0
   41.5650   27.9420   30.6200 H   0  0  0  0  0  0  0  0  0  0  0  0
   37.3560   25.3870   35.8690 O   0  0  0  0  0  0  0  0  0  0  0  0
   38.1970   24.5320   36.5500 C   0  0  0  0  0  0  0  0  0  0  0  0
   39.2600   23.9860   35.8700 C   0  0  0  0  0  0  0  0  0  0  0  0
   39.4060   24.2430   34.8180 H   0  0  0  0  0  0  0  0  0  0  0  0
   40.0940   23.1350   36.5570 C   0  0  0  0  0  3  0  0  0  0  0  0
   39.9100   22.8130   37.8740 C   0  0  0  0  0  0  0  0  0  0  0  0
   40.5360   22.1560   38.4430 H   0  0  0  0  0  0  0  0  0  0  0  0
   38.8250   23.3970   38.4920 C   0  0  0  0  0  0  0  0  0  0  0  0
   38.6470   23.1660   39.5360 H   0  0  0  0  0  0  0  0  0  0  0  0
   37.9200   24.2720   37.8910 C   0  0  0  0  0  3  0  0  0  0  0  0
  2  1  2  6  0  0  0
  2 15  1  0  0  0  0
  2  3  1  0  0  0  0
  4  3  1  0  0  0  0
  5  2  1  0  0  0  0
  6 11  1  0  0  0  0
  6 12  1  0  0  0  0
  7  6  2  0  0  0  0
  8  9  2  0  0  0  0
  8  7  1  0  0  0  0
  9 10  1  0  0  0  0
 10  5  1  0  0  0  0
 10 11  2  0  0  0  0
 13  7  1  0  0  0  0
 14  8  1  0  0  0  0
 15 16  1  0  0  0  0
 16 24  1  0  0  0  0
 17 16  2  0  0  0  0
 17 19  1  0  0  0  0
 18 17  1  0  0  0  0
 19 20  2  0  0  0  0
 20 21  1  0  0  0  0
 20 22  1  0  0  0  0
 22 23  1  0  0  0  0
 24 22  2  0  0  0  0
M  END
>  <minimizedAffinity>
-4.6983757

$$$$

 OpenBabel03272505443D

 24 25  0  0  0  0  0  0  0  0999 V2000
   35.0210   24.9660   30.8870 O   0  0  0  0  0  0  0  0  0  0  0  0
   36.3980   24.9950   31.5170 P   0  0  2  0  0  0  0  0  0  0  0  0
   37.5040   24.9700   30.2300 O   0  0  0  0  0  0  0  0  0  0  0  0
   37.4790   24.0850   29.7900 H   0  0  0  0  0  0  0  0  0  0  0  0
   36.5620   23.6220   32.5030 O   0  0  0  0  0  0  0  0  0  0  0  0
   35.0440   20.3210   32.0820 C   0  0  0  0  0  0  0  0  0  0  0  0
   35.9150   19.7910   31.0850 C   0  0  0  0  0  0  0  0  0  0  0  0
   36.9620   20.6070   30.6290 C   0  0  0  0  0  0  0  0  0  0  0  0
   37.0880   21.8440   31.1560 N   0  0  0  0  0  0  0  0  0  0  0  0
   36.2520   22.3320   32.1030 C   0  0  0  0  0  0  0  0  0  0  0  0
   35.2350   21.5580   32.5550 N   0  0  0  0  0  0  0  0  0  0  0  0
   34.2230   19.7230   32.4610 H   0  0  0  0  0  0  0  0  0  0  0  0
   35.7660   18.8010   30.7040 H   0  0  0  0  0  0  0  0  0  0  0  0
   37.6450   20.2410   29.8730 H   0  0  0  0  0  0  0  0  0  0  0  0
   36.5520   26.4370   32.3380 O   0  0  0  0  0  0  0  0  0  0  0  0
   37.4910   26.6510   33.3250 C   0  0  0  0  0  0  0  0  0  0  0  0
   37.0540   26.7800   34.6220 C   0  0  0  0  0  0  0  0  0  0  0  0
   35.9840   26.7100   34.8320 H   0  0  0  0  0  0  0  0  0  0  0  0
   37.9970   26.9940   35.6010 C   0  0  0  0  0  3  0  0  0  0  0  0
   39.3370   27.0820   35.3370 C   0  0  0  0  0  0  0  0  0  0  0  0
   40.1010   27.2470   36.0690 H   0  0  0  0  0  0  0  0  0  0  0  0
   39.7030   26.9430   34.0150 C   0  0  0  0  0  0  0  0  0  0  0  0
   40.7560   27.0070   33.7680 H   0  0  0  0  0  0  0  0  0  0  0  0
   38.8310   26.7240   32.9490 C   0  0  0  0  0  3  0  0  0  0  0  0
  2  1  2  6  0  0  0
  2 15  1  0  0  0  0
  2  5  1  0  0  0  0
  3  2  1  0  0  0  0
  4  3  1  0  0  0  0
  6 12  1  0  0  0  0
  6 11  1  0  0  0  0
  7  6  2  0  0  0  0
  8  7  1  0  0  0  0
  8  9  2  0  0  0  0
  9 10  1  0  0  0  0
 10  5  1  0  0  0  0
 10 11  2  0  0  0  0
 13  7  1  0  0  0  0
 14  8  1  0  0  0  0
 15 16  1  0  0  0  0
 16 17  1  0  0  0  0
 17 18  1  0  0  0  0
 17 19  2  0  0  0  0
 20 19  1  0  0  0  0
 20 21  1  0  0  0  0
 22 20  2  0  0  0  0
 23 22  1  0  0  0  0
 24 16  2  0  0  0  0
 24 22  1  0  0  0  0
M  END
>  <minimizedAffinity>
-4.62018681

$$$$

 OpenBabel03272505443D

 24 25  0  0  0  0  0  0  0  0999 V2000
   37.7930   22.3710   36.3080 O   0  0  0  0  0  0  0  0  0  0  0  0
   38.9880   23.1710   36.7830 P   0  0  2  0  0  0  0  0  0  0  0  0
   39.4170   22.5240   38.2920 O   0  0  0  0  0  0  0  0  0  0  0  0
   38.7200   22.7480   38.9580 H   0  0  0  0  0  0  0  0  0  0  0  0
   38.5200   24.7980   36.9150 O   0  0  0  0  0  0  0  0  0  0  0  0
   37.4730   26.0480   33.6410 C   0  0  0  0  0  0  0  0  0  0  0  0
   37.3950   27.4400   33.9380 C   0  0  0  0  0  0  0  0  0  0  0  0
   37.7080   27.8490   35.2450 C   0  0  0  0  0  0  0  0  0  0  0  0
   38.0640   26.9080   36.1440 N   0  0  0  0  0  0  0  0  0  0  0  0
   38.1350   25.5880   35.8450 C   0  0  0  0  0  0  0  0  0  0  0  0
   37.8360   25.1760   34.5890 N   0  0  0  0  0  0  0  0  0  0  0  0
   37.2410   25.6910   32.6440 H   0  0  0  0  0  0  0  0  0  0  0  0
   37.1060   28.1420   33.1830 H   0  0  0  0  0  0  0  0  0  0  0  0
   37.6600   28.8980   35.5100 H   0  0  0  0  0  0  0  0  0  0  0  0
   40.2340   22.9120   35.7070 O   0  0  0  0  0  0  0  0  0  0  0  0
   41.4270   23.6020   35.7490 C   0  0  0  0  0  0  0  0  0  0  0  0
   42.4320   23.1160   36.5520 C   0  0  0  0  0  0  0  0  0  0  0  0
   42.2570   22.2050   37.1290 H   0  0  0  0  0  0  0  0  0  0  0  0
   43.6200   23.8090   36.5880 C   0  0  0  0  0  3  0  0  0  0  0  0
   43.8380   24.9510   35.8660 C   0  0  0  0  0  0  0  0  0  0  0  0
   44.7460   25.5190   35.8670 H   0  0  0  0  0  0  0  0  0  0  0  0
   42.7870   25.3800   35.0830 C   0  0  0  0  0  0  0  0  0  0  0  0
   42.9230   26.2810   34.4960 H   0  0  0  0  0  0  0  0  0  0  0  0
   41.5460   24.7540   34.9740 C   0  0  0  0  0  3  0  0  0  0  0  0
  2  1  2  6  0  0  0
  2  5  1  0  0  0  0
  2  3  1  0  0  0  0
  3  4  1  0  0  0  0
  6  7  2  0  0  0  0
  6 11  1  0  0  0  0
  7  8  1  0  0  0  0
  8 14  1  0  0  0  0
  8  9  2  0  0  0  0
 10  9  1  0  0  0  0
 10  5  1  0  0  0  0
 11 10  2  0  0  0  0
 12  6  1  0  0  0  0
 13  7  1  0  0  0  0
 15 16  1  0  0  0  0
 15  2  1  0  0  0  0
 16 17  1  0  0  0  0
 17 19  2  0  0  0  0
 17 18  1  0  0  0  0
 20 21  1  0  0  0  0
 20 19  1  0  0  0  0
 22 20  2  0  0  0  0
 23 22  1  0  0  0  0
 24 22  1  0  0  0  0
 24 16  2  0  0  0  0
M  END
>  <minimizedAffinity>
-4.52002621

$$$$

 OpenBabel03272505443D

 24 25  0  0  0  0  0  0  0  0999 V2000
   38.8690   27.3230   36.0410 O   0  0  0  0  0  0  0  0  0  0  0  0
   37.9810   26.7380   34.9630 P   0  0  2  0  0  0  0  0  0  0  0  0
   38.9410   26.6370   33.5670 O   0  0  0  0  0  0  0  0  0  0  0  0
   39.1300   27.5470   33.2300 H   0  0  0  0  0  0  0  0  0  0  0  0
   36.6620   27.7830   34.7350 O   0  0  0  0  0  0  0  0  0  0  0  0
   36.2090   28.5840   31.1950 C   0  0  0  0  0  0  0  0  0  0  0  0
   35.5680   29.8500   31.3250 C   0  0  0  0  0  0  0  0  0  0  0  0
   35.3360   30.3380   32.6210 C   0  0  0  0  0  0  0  0  0  0  0  0
   35.7320   29.5860   33.6700 N   0  0  0  0  0  0  0  0  0  0  0  0
   36.3410   28.3840   33.5300 C   0  0  0  0  0  0  0  0  0  0  0  0
   36.5720   27.8980   32.2860 N   0  0  0  0  0  0  0  0  0  0  0  0
   36.4070   28.1710   30.2130 H   0  0  0  0  0  0  0  0  0  0  0  0
   35.2760   30.4030   30.4550 H   0  0  0  0  0  0  0  0  0  0  0  0
   34.8510   31.2960   32.7600 H   0  0  0  0  0  0  0  0  0  0  0  0
   37.5490   25.2000   35.4380 O   0  0  0  0  0  0  0  0  0  0  0  0
   38.3370   24.4070   36.2470 C   0  0  0  0  0  0  0  0  0  0  0  0
   39.4740   23.8540   35.7070 C   0  0  0  0  0  0  0  0  0  0  0  0
   39.7190   24.0570   34.6610 H   0  0  0  0  0  0  0  0  0  0  0  0
   40.2540   23.0640   36.5190 C   0  0  0  0  0  3  0  0  0  0  0  0
   39.9470   22.8100   37.8280 C   0  0  0  0  0  0  0  0  0  0  0  0
   40.5270   22.2020   38.4920 H   0  0  0  0  0  0  0  0  0  0  0  0
   38.7930   23.3970   38.3030 C   0  0  0  0  0  0  0  0  0  0  0  0
   38.5170   23.2190   39.3350 H   0  0  0  0  0  0  0  0  0  0  0  0
   37.9340   24.2120   37.5660 C   0  0  0  0  0  3  0  0  0  0  0  0
  2 15  1  0  0  0  0
  2  1  2  1  0  0  0
  3  2  1  0  0  0  0
  4  3  1  0  0  0  0
  5  2  1  0  0  0  0
  6  7  2  0  0  0  0
  6 11  1  0  0  0  0
  7  8  1  0  0  0  0
  8 14  1  0  0  0  0
  8  9  2  0  0  0  0
 10  9  1  0  0  0  0
 10  5  1  0  0  0  0
 11 10  2  0  0  0  0
 12  6  1  0  0  0  0
 13  7  1  0  0  0  0
 15 16  1  0  0  0  0
 16 24  1  0  0  0  0
 17 16  2  0  0  0  0
 17 19  1  0  0  0  0
 18 17  1  0  0  0  0
 19 20  2  0  0  0  0
 20 22  1  0  0  0  0
 20 21  1  0  0  0  0
 22 23  1  0  0  0  0
 24 22  2  0  0  0  0
M  END
>  <minimizedAffinity>
-4.50592136

$$$$

 OpenBabel03272505443D

 24 25  0  0  0  0  0  0  0  0999 V2000
   38.0390   23.4890   30.2580 O   0  0  0  0  0  0  0  0  0  0  0  0
   36.9130   23.9090   31.1800 P   0  0  2  0  0  0  0  0  0  0  0  0
   36.3870   25.4220   30.6200 O   0  0  0  0  0  0  0  0  0  0  0  0
   37.0850   26.1000   30.7970 H   0  0  0  0  0  0  0  0  0  0  0  0
   37.5280   24.0110   32.7600 O   0  0  0  0  0  0  0  0  0  0  0  0
   37.0920   27.4080   34.0430 C   0  0  0  0  0  0  0  0  0  0  0  0
   37.9310   27.3300   35.1930 C   0  0  0  0  0  0  0  0  0  0  0  0
   38.5860   26.1140   35.4450 C   0  0  0  0  0  0  0  0  0  0  0  0
   38.3880   25.0890   34.5890 N   0  0  0  0  0  0  0  0  0  0  0  0
   37.5880   25.1800   33.5000 C   0  0  0  0  0  0  0  0  0  0  0  0
   36.9480   26.3460   33.2420 N   0  0  0  0  0  0  0  0  0  0  0  0
   36.5690   28.3280   33.8120 H   0  0  0  0  0  0  0  0  0  0  0  0
   38.0500   28.1770   35.8370 H   0  0  0  0  0  0  0  0  0  0  0  0
   39.2320   26.0160   36.3090 H   0  0  0  0  0  0  0  0  0  0  0  0
   35.6760   22.8060   31.0080 O   0  0  0  0  0  0  0  0  0  0  0  0
   35.7390   21.5140   31.4890 C   0  0  0  0  0  0  0  0  0  0  0  0
   36.2020   20.5290   30.6500 C   0  0  0  0  0  0  0  0  0  0  0  0
   36.5040   20.7940   29.6340 H   0  0  0  0  0  0  0  0  0  0  0  0
   36.2610   19.2440   31.1370 C   0  0  0  0  0  3  0  0  0  0  0  0
   35.8830   18.9110   32.4090 C   0  0  0  0  0  0  0  0  0  0  0  0
   35.9140   17.9250   32.8260 H   0  0  0  0  0  0  0  0  0  0  0  0
   35.4290   19.9500   33.1950 C   0  0  0  0  0  0  0  0  0  0  0  0
   35.1210   19.7250   34.2090 H   0  0  0  0  0  0  0  0  0  0  0  0
   35.3300   21.2830   32.8010 C   0  0  0  0  0  3  0  0  0  0  0  0
  2  1  2  6  0  0  0
  2  5  1  0  0  0  0
  3  4  1  0  0  0  0
  3  2  1  0  0  0  0
  5 10  1  0  0  0  0
  6  7  1  0  0  0  0
  7  8  2  0  0  0  0
  7 13  1  0  0  0  0
  8 14  1  0  0  0  0
  9  8  1  0  0  0  0
 10  9  2  0  0  0  0
 11 10  1  0  0  0  0
 11  6  2  0  0  0  0
 12  6  1  0  0  0  0
 15  2  1  0  0  0  0
 15 16  1  0  0  0  0
 16 24  1  0  0  0  0
 17 19  1  0  0  0  0
 17 16  2  0  0  0  0
 18 17  1  0  0  0  0
 19 20  2  0  0  0  0
 20 21  1  0  0  0  0
 20 22  1  0  0  0  0
 22 23  1  0  0  0  0
 24 22  2  0  0  0  0
M  END
>  <minimizedAffinity>
-4.50205421

$$$$
