
 OpenBabel03272510123D

 35 38  0  0  0  0  0  0  0  0999 V2000
   33.4110   28.3860   49.0290 C   0  0  0  0  0  0  0  0  0  0  0  0
   33.7040   28.9130   50.2370 C   0  0  0  0  0  0  0  0  0  0  0  0
   34.9310   29.4270   50.6030 C   0  0  0  0  0  0  0  0  0  0  0  0
   35.9570   29.4230   49.7040 C   0  0  0  0  0  0  0  0  0  0  0  0
   35.6680   28.8810   48.4480 C   0  0  0  0  0  0  0  0  0  0  0  0
   34.4500   28.3930   48.1470 N   0  0  0  0  0  0  0  0  0  0  0  0
   32.9530   28.9600   51.0180 H   0  0  0  0  0  0  0  0  0  0  0  0
   35.1550   29.8490   51.5810 H   0  0  0  0  0  0  0  0  0  0  0  0
   36.4380   28.8440   47.6810 H   0  0  0  0  0  0  0  0  0  0  0  0
   30.9880   27.9310   49.4660 C   0  0  0  0  0  0  0  0  0  0  0  0
   32.1340   27.8550   48.6610 C   0  0  0  0  0  0  0  0  0  0  0  0
   31.9870   27.2190   47.4370 C   0  0  0  0  0  0  0  0  0  0  0  0
   30.7590   26.7140   47.0910 N   0  0  0  0  0  0  0  0  0  0  0  0
   29.6990   26.8210   47.9130 C   0  0  0  0  0  0  0  0  0  0  0  0
   29.8020   27.4250   49.0980 N   0  0  0  0  0  0  0  0  0  0  0  0
   31.0680   28.4200   50.4280 H   0  0  0  0  0  0  0  0  0  0  0  0
   32.8480   27.1420   46.7870 H   0  0  0  0  0  0  0  0  0  0  0  0
   28.7900   26.3820   47.5250 H   0  0  0  0  0  0  0  0  0  0  0  0
   37.2470   29.9010   49.9130 O   0  0  0  0  0  0  0  0  0  0  0  0
   37.8000   30.8710   49.0800 C   0  0  0  0  0  0  0  0  0  0  0  0
   38.2360   32.0270   49.7430 C   0  0  0  0  0  0  0  0  0  0  0  0
   38.7560   32.8910   48.7970 C   0  0  0  0  0  0  0  0  0  0  0  0
   38.6260   32.2560   47.6240 N   0  0  0  0  0  0  0  0  0  0  0  0
   38.0710   31.0800   47.7790 N   0  0  0  0  0  0  0  0  0  0  0  0
   38.2440   32.3540   50.7880 H   0  0  0  0  0  0  0  0  0  0  0  0
   39.2020   33.8640   48.7760 H   0  0  0  0  0  0  0  0  0  0  0  0
   38.9390   32.5350   46.2420 C   0  0  0  0  0  0  0  0  0  0  0  0
   40.1740   33.0830   45.8770 C   0  0  0  0  0  0  0  0  0  0  0  0
   40.9100   33.3050   46.6240 H   0  0  0  0  0  0  0  0  0  0  0  0
   40.3910   33.3170   44.5300 C   0  0  0  0  0  3  0  0  0  0  0  0
   39.4720   33.0460   43.5370 C   0  0  0  0  0  0  0  0  0  0  0  0
   39.6680   33.2400   42.4910 H   0  0  0  0  0  0  0  0  0  0  0  0
   38.2380   32.4990   43.9030 C   0  0  0  0  0  0  0  0  0  0  0  0
   37.4940   32.2740   43.1520 H   0  0  0  0  0  0  0  0  0  0  0  0
   38.0080   32.2590   45.2450 C   0  0  0  0  0  3  0  0  0  0  0  0
  1  2  1  0  0  0  0
  2  3  2  0  0  0  0
  2  7  1  0  0  0  0
  3  8  1  0  0  0  0
  4 19  1  0  0  0  0
  4  3  1  0  0  0  0
  5  4  2  0  0  0  0
  6  5  1  0  0  0  0
  6  1  2  0  0  0  0
  9  5  1  0  0  0  0
 10 16  1  0  0  0  0
 11  1  1  0  0  0  0
 11 10  2  0  0  0  0
 12 11  1  0  0  0  0
 13 12  2  0  0  0  0
 13 14  1  0  0  0  0
 14 15  2  0  0  0  0
 15 10  1  0  0  0  0
 17 12  1  0  0  0  0
 18 14  1  0  0  0  0
 20 21  1  0  0  0  0
 20 19  1  0  0  0  0
 21 25  1  0  0  0  0
 22 21  2  0  0  0  0
 23 24  1  0  0  0  0
 23 22  1  0  0  0  0
 24 20  2  0  0  0  0
 26 22  1  0  0  0  0
 27 23  1  0  0  0  0
 28 27  1  0  0  0  0
 28 29  1  0  0  0  0
 30 28  2  0  0  0  0
 31 33  2  0  0  0  0
 31 30  1  0  0  0  0
 32 31  1  0  0  0  0
 33 35  1  0  0  0  0
 34 33  1  0  0  0  0
 35 27  2  0  0  0  0
M  END
>  <minimizedAffinity>
-6.18863726

>  <minimizedRMSD>
1.55601931

$$$$
