
 OpenBabel03272500453D

 25 27  0  0  0  0  0  0  0  0999 V2000
   34.1290   29.0420   47.1710 C   0  0  0  0  0  0  0  0  0  0  0  0
   34.6590   29.4920   45.9740 C   0  0  0  0  0  0  0  0  0  0  0  0
   35.7900   30.2530   46.2330 C   0  0  0  0  0  0  0  0  0  0  0  0
   35.9160   30.2420   47.5950 N   0  0  0  0  0  0  0  0  0  0  0  0
   34.9270   29.5230   48.1120 N   0  0  0  0  0  0  0  0  0  0  0  0
   34.2470   29.2790   44.9860 H   0  0  0  0  0  0  0  0  0  0  0  0
   36.4390   30.7510   45.5170 H   0  0  0  0  0  0  0  0  0  0  0  0
   32.4690   27.6500   48.4410 C   0  0  0  0  0  0  0  0  0  0  0  0
   32.9420   28.2180   47.2600 C   0  0  0  0  0  0  0  0  0  0  0  0
   32.2070   27.9630   46.0890 C   0  0  0  0  0  0  0  0  0  0  0  0
   31.0930   27.1900   46.1670 N   0  0  0  0  0  0  0  0  0  0  0  0
   30.6740   26.6580   47.3520 C   0  0  0  0  0  0  0  0  0  0  0  0
   31.3730   26.8950   48.4900 N   0  0  0  0  0  0  0  0  0  0  0  0
   33.0270   27.8370   49.3540 H   0  0  0  0  0  0  0  0  0  0  0  0
   32.5600   28.3960   45.1640 H   0  0  0  0  0  0  0  0  0  0  0  0
   29.7650   26.0680   47.2240 H   0  0  0  0  0  0  0  0  0  0  0  0
   36.9270   30.8820   48.3610 C   0  0  0  0  0  0  0  0  0  0  0  0
   37.6170   31.9790   47.9060 C   0  0  0  0  0  0  0  0  0  0  0  0
   37.3480   32.3440   46.9030 H   0  0  0  0  0  0  0  0  0  0  0  0
   38.6060   32.6620   48.5730 C   0  0  0  0  0  0  0  0  0  0  0  0
   38.8930   32.1500   49.8240 C   0  0  0  0  0  0  0  0  0  0  0  0
   39.6610   32.6070   50.4520 H   0  0  0  0  0  0  0  0  0  0  0  0
   38.2580   31.0570   50.3690 C   0  0  0  0  0  0  0  0  0  0  0  0
   38.4930   30.6620   51.3560 H   0  0  0  0  0  0  0  0  0  0  0  0
   37.2900   30.4520   49.6190 C   0  0  0  0  0  0  0  0  0  0  0  0
  1  9  1  0  0  0  0
  1  5  2  0  0  0  0
  2  3  2  0  0  0  0
  2  1  1  0  0  0  0
  3  4  1  0  0  0  0
  4  5  1  0  0  0  0
  4 17  1  0  0  0  0
  6  2  1  0  0  0  0
  7  3  1  0  0  0  0
  8 13  1  0  0  0  0
  8 14  1  0  0  0  0
  9  8  2  0  0  0  0
 10 11  2  0  0  0  0
 10  9  1  0  0  0  0
 11 12  1  0  0  0  0
 12 13  2  0  0  0  0
 15 10  1  0  0  0  0
 16 12  1  0  0  0  0
 17 25  1  0  0  0  0
 18 17  2  0  0  0  0
 18 20  1  0  0  0  0
 19 18  1  0  0  0  0
 20 21  2  0  0  0  0
 21 23  1  0  0  0  0
 21 22  1  0  0  0  0
 23 24  1  0  0  0  0
 25 23  2  0  0  0  0
M  END
>  <minimizedAffinity>
-4.66135883

>  <minimizedRMSD>
5.61594915

$$$$
