
 OpenBabel03262522193D

 24 25  0  0  0  0  0  0  0  0999 V2000
   40.9130   26.5500   34.8500 O   0  0  0  0  0  0  0  0  0  0  0  0
   39.3820   26.6050   34.8020 P   0  0  1  0  0  0  0  0  0  0  0  0
   38.8850   27.6510   36.0610 O   0  0  0  0  0  0  0  0  0  0  0  0
   38.6300   27.1170   36.8610 H   0  0  0  0  0  0  0  0  0  0  0  0
   38.9380   27.3690   33.3590 O   0  0  0  0  0  0  0  0  0  0  0  0
   37.8060   25.9720   31.7810 C   0  0  0  0  0  0  0  0  0  0  0  0
   37.8290   27.1080   32.6060 C   0  0  0  0  0  0  0  0  0  0  0  0
   36.6690   27.9100   32.5870 C   0  0  0  0  0  0  0  0  0  0  0  0
   35.6400   27.5310   31.7900 N   0  0  0  0  0  0  0  0  0  0  0  0
   35.6700   26.4310   31.0180 C   0  0  0  0  0  0  0  0  0  0  0  0
   36.7630   25.6400   31.0100 N   0  0  0  0  0  0  0  0  0  0  0  0
   38.6340   25.2740   31.7040 H   0  0  0  0  0  0  0  0  0  0  0  0
   36.6640   28.7850   33.2110 H   0  0  0  0  0  0  0  0  0  0  0  0
   34.7220   26.3700   30.4890 H   0  0  0  0  0  0  0  0  0  0  0  0
   38.8230   25.0610   35.0020 O   0  0  0  0  0  0  0  0  0  0  0  0
   38.8550   24.4350   36.2410 C   0  0  0  0  0  0  0  0  0  0  0  0
   39.8340   23.4730   36.4430 C   0  0  0  0  0  0  0  0  0  0  0  0
   40.5620   23.1800   35.7140 H   0  0  0  0  0  0  0  0  0  0  0  0
   39.8150   22.8820   37.7070 C   0  0  0  0  0  3  0  0  0  0  0  0
   38.9360   23.1690   38.7200 C   0  0  0  0  0  0  0  0  0  0  0  0
   39.0060   22.6530   39.6630 H   0  0  0  0  0  0  0  0  0  0  0  0
   37.9680   24.1470   38.4680 C   0  0  0  0  0  0  0  0  0  0  0  0
   37.3020   24.3370   39.2940 H   0  0  0  0  0  0  0  0  0  0  0  0
   37.9430   24.7690   37.2210 C   0  0  0  0  0  3  0  0  0  0  0  0
  2  1  2  1  0  0  0
  2 15  1  0  0  0  0
  2  3  1  0  0  0  0
  3  4  1  0  0  0  0
  5  2  1  0  0  0  0
  6  7  1  0  0  0  0
  7  5  1  0  0  0  0
  8  7  2  0  0  0  0
  8 13  1  0  0  0  0
  9  8  1  0  0  0  0
 10  9  2  0  0  0  0
 11 10  1  0  0  0  0
 11  6  2  0  0  0  0
 12  6  1  0  0  0  0
 14 10  1  0  0  0  0
 15 16  1  0  0  0  0
 16 17  2  0  0  0  0
 16 24  1  0  0  0  0
 17 19  1  0  0  0  0
 18 17  1  0  0  0  0
 19 20  2  0  0  0  0
 20 21  1  0  0  0  0
 22 20  1  0  0  0  0
 22 23  1  0  0  0  0
 24 22  2  0  0  0  0
M  END
>  <minimizedAffinity>
-4.91343403

$$$$

 OpenBabel03262522193D

 24 25  0  0  0  0  0  0  0  0999 V2000
   39.0870   27.2550   33.5650 O   0  0  0  0  0  0  0  0  0  0  0  0
   38.3290   26.7310   34.7900 P   0  0  1  0  0  0  0  0  0  0  0  0
   38.9130   27.6020   36.1420 O   0  0  0  0  0  0  0  0  0  0  0  0
   39.6110   27.0690   36.6090 H   0  0  0  0  0  0  0  0  0  0  0  0
   36.7050   27.1730   34.6180 O   0  0  0  0  0  0  0  0  0  0  0  0
   35.8660   29.3970   34.3500 C   0  0  0  0  0  0  0  0  0  0  0  0
   36.2070   28.1490   33.8040 C   0  0  0  0  0  0  0  0  0  0  0  0
   35.9990   28.0050   32.4170 C   0  0  0  0  0  0  0  0  0  0  0  0
   35.4970   29.0610   31.7290 N   0  0  0  0  0  0  0  0  0  0  0  0
   35.1880   30.2360   32.3040 C   0  0  0  0  0  0  0  0  0  0  0  0
   35.3720   30.4110   33.6290 N   0  0  0  0  0  0  0  0  0  0  0  0
   35.9780   29.6380   35.4030 H   0  0  0  0  0  0  0  0  0  0  0  0
   36.2520   27.0580   31.9750 H   0  0  0  0  0  0  0  0  0  0  0  0
   34.8080   30.8960   31.5270 H   0  0  0  0  0  0  0  0  0  0  0  0
   38.6270   25.1080   34.9040 O   0  0  0  0  0  0  0  0  0  0  0  0
   38.7290   24.4760   36.1360 C   0  0  0  0  0  0  0  0  0  0  0  0
   39.7460   23.5470   36.2920 C   0  0  0  0  0  0  0  0  0  0  0  0
   40.4550   23.2820   35.5340 H   0  0  0  0  0  0  0  0  0  0  0  0
   39.7960   22.9470   37.5520 C   0  0  0  0  0  3  0  0  0  0  0  0
   38.9480   23.1990   38.6000 C   0  0  0  0  0  0  0  0  0  0  0  0
   39.0710   22.6800   39.5360 H   0  0  0  0  0  0  0  0  0  0  0  0
   37.9390   24.1450   38.3930 C   0  0  0  0  0  0  0  0  0  0  0  0
   37.3000   24.3080   39.2450 H   0  0  0  0  0  0  0  0  0  0  0  0
   37.8450   24.7740   37.1520 C   0  0  0  0  0  3  0  0  0  0  0  0
  2  1  2  6  0  0  0
  2 15  1  0  0  0  0
  2  3  1  0  0  0  0
  3  4  1  0  0  0  0
  5  2  1  0  0  0  0
  6 12  1  0  0  0  0
  7  6  1  0  0  0  0
  7  5  1  0  0  0  0
  8  7  2  0  0  0  0
  9 10  2  0  0  0  0
  9  8  1  0  0  0  0
 10 11  1  0  0  0  0
 11  6  2  0  0  0  0
 13  8  1  0  0  0  0
 14 10  1  0  0  0  0
 15 16  1  0  0  0  0
 16 17  2  0  0  0  0
 16 24  1  0  0  0  0
 17 19  1  0  0  0  0
 18 17  1  0  0  0  0
 19 20  2  0  0  0  0
 20 21  1  0  0  0  0
 22 20  1  0  0  0  0
 22 23  1  0  0  0  0
 24 22  2  0  0  0  0
M  END
>  <minimizedAffinity>
-4.72964096

$$$$

 OpenBabel03262522193D

 24 25  0  0  0  0  0  0  0  0999 V2000
   36.6940   27.7230   34.9110 O   0  0  0  0  0  0  0  0  0  0  0  0
   37.8590   26.7270   34.8970 P   0  0  1  0  0  0  0  0  0  0  0  0
   39.1830   27.5060   35.6520 O   0  0  0  0  0  0  0  0  0  0  0  0
   39.7840   27.8950   34.9610 H   0  0  0  0  0  0  0  0  0  0  0  0
   37.4440   25.4330   35.9040 O   0  0  0  0  0  0  0  0  0  0  0  0
   38.1050   24.1450   37.8090 C   0  0  0  0  0  0  0  0  0  0  0  0
   38.3020   24.5360   36.4750 C   0  0  0  0  0  0  0  0  0  0  0  0
   39.4040   23.9530   35.8160 C   0  0  0  0  0  0  0  0  0  0  0  0
   40.1730   23.0750   36.5070 N   0  0  0  0  0  0  0  0  0  0  0  0
   39.9380   22.7340   37.7850 C   0  0  0  0  0  0  0  0  0  0  0  0
   38.8940   23.2730   38.4490 N   0  0  0  0  0  0  0  0  0  0  0  0
   37.2940   24.5200   38.4270 H   0  0  0  0  0  0  0  0  0  0  0  0
   39.5760   24.2380   34.7940 H   0  0  0  0  0  0  0  0  0  0  0  0
   40.7030   22.0210   38.0850 H   0  0  0  0  0  0  0  0  0  0  0  0
   38.1670   26.3430   33.3180 O   0  0  0  0  0  0  0  0  0  0  0  0
   37.2720   25.5900   32.5690 C   0  0  0  0  0  0  0  0  0  0  0  0
   37.4010   24.2110   32.6220 C   0  0  0  0  0  0  0  0  0  0  0  0
   38.1390   23.6870   33.1960 H   0  0  0  0  0  0  0  0  0  0  0  0
   36.4730   23.5110   31.8490 C   0  0  0  0  0  3  0  0  0  0  0  0
   35.4860   24.0640   31.0750 C   0  0  0  0  0  0  0  0  0  0  0  0
   34.8170   23.4330   30.5130 H   0  0  0  0  0  0  0  0  0  0  0  0
   35.3960   25.4600   31.0550 C   0  0  0  0  0  0  0  0  0  0  0  0
   34.6050   25.8470   30.4330 H   0  0  0  0  0  0  0  0  0  0  0  0
   36.2990   26.2070   31.8090 C   0  0  0  0  0  3  0  0  0  0  0  0
  2  1  2  1  0  0  0
  2  3  1  0  0  0  0
  2  5  1  0  0  0  0
  4  3  1  0  0  0  0
  5  7  1  0  0  0  0
  6 12  1  0  0  0  0
  6 11  1  0  0  0  0
  7  6  2  0  0  0  0
  8  7  1  0  0  0  0
  8  9  2  0  0  0  0
  9 10  1  0  0  0  0
 10 14  1  0  0  0  0
 10 11  2  0  0  0  0
 13  8  1  0  0  0  0
 15  2  1  0  0  0  0
 16 17  1  0  0  0  0
 16 15  1  0  0  0  0
 17 18  1  0  0  0  0
 19 17  2  0  0  0  0
 20 19  1  0  0  0  0
 21 20  1  0  0  0  0
 22 20  2  0  0  0  0
 22 24  1  0  0  0  0
 23 22  1  0  0  0  0
 24 16  2  0  0  0  0
M  END
>  <minimizedAffinity>
-4.68406439

$$$$

 OpenBabel03262522193D

 24 25  0  0  0  0  0  0  0  0999 V2000
   39.3080   27.1640   35.5340 O   0  0  0  0  0  0  0  0  0  0  0  0
   37.9470   26.7160   34.9890 P   0  0  1  0  0  0  0  0  0  0  0  0
   36.9500   28.1060   34.9440 O   0  0  0  0  0  0  0  0  0  0  0  0
   36.3780   28.1360   35.7570 H   0  0  0  0  0  0  0  0  0  0  0  0
   38.1670   26.2480   33.3780 O   0  0  0  0  0  0  0  0  0  0  0  0
   37.3450   24.1580   32.5510 C   0  0  0  0  0  0  0  0  0  0  0  0
   37.2780   25.5610   32.6010 C   0  0  0  0  0  0  0  0  0  0  0  0
   36.2700   26.1590   31.8190 C   0  0  0  0  0  0  0  0  0  0  0  0
   35.4560   25.3520   31.0930 N   0  0  0  0  0  0  0  0  0  0  0  0
   35.5630   24.0130   31.0830 C   0  0  0  0  0  0  0  0  0  0  0  0
   36.5170   23.4040   31.8180 N   0  0  0  0  0  0  0  0  0  0  0  0
   38.0750   23.5760   33.1060 H   0  0  0  0  0  0  0  0  0  0  0  0
   36.2000   27.2320   31.8400 H   0  0  0  0  0  0  0  0  0  0  0  0
   34.7920   23.6230   30.4220 H   0  0  0  0  0  0  0  0  0  0  0  0
   37.3630   25.5500   36.0060 O   0  0  0  0  0  0  0  0  0  0  0  0
   38.2040   24.6120   36.5910 C   0  0  0  0  0  0  0  0  0  0  0  0
   38.0420   24.3690   37.9460 C   0  0  0  0  0  0  0  0  0  0  0  0
   37.3180   24.8510   38.5710 H   0  0  0  0  0  0  0  0  0  0  0  0
   38.9160   23.4170   38.4740 C   0  0  0  0  0  3  0  0  0  0  0  0
   39.8810   22.7350   37.7790 C   0  0  0  0  0  0  0  0  0  0  0  0
   40.5080   22.0170   38.2820 H   0  0  0  0  0  0  0  0  0  0  0  0
   40.0060   23.0150   36.4150 C   0  0  0  0  0  0  0  0  0  0  0  0
   40.7770   22.4530   35.9130 H   0  0  0  0  0  0  0  0  0  0  0  0
   39.1570   23.9580   35.8370 C   0  0  0  0  0  3  0  0  0  0  0  0
  2  1  2  1  0  0  0
  2 15  1  0  0  0  0
  3  2  1  0  0  0  0
  3  4  1  0  0  0  0
  5  2  1  0  0  0  0
  6  7  1  0  0  0  0
  6 12  1  0  0  0  0
  7  5  1  0  0  0  0
  8 13  1  0  0  0  0
  8  7  2  0  0  0  0
  9  8  1  0  0  0  0
 10  9  2  0  0  0  0
 10 11  1  0  0  0  0
 11  6  2  0  0  0  0
 14 10  1  0  0  0  0
 15 16  1  0  0  0  0
 16 17  1  0  0  0  0
 17 19  2  0  0  0  0
 17 18  1  0  0  0  0
 20 21  1  0  0  0  0
 20 19  1  0  0  0  0
 22 20  2  0  0  0  0
 23 22  1  0  0  0  0
 24 22  1  0  0  0  0
 24 16  2  0  0  0  0
M  END
>  <minimizedAffinity>
-4.67148638

$$$$

 OpenBabel03262522193D

 24 25  0  0  0  0  0  0  0  0999 V2000
   36.2800   25.2810   32.0200 O   0  0  0  0  0  0  0  0  0  0  0  0
   36.8390   23.9230   31.5810 P   0  0  1  0  0  0  0  0  0  0  0  0
   37.5680   24.1590   30.0510 O   0  0  0  0  0  0  0  0  0  0  0  0
   36.9340   23.8950   29.3320 H   0  0  0  0  0  0  0  0  0  0  0  0
   38.0950   23.5160   32.6380 O   0  0  0  0  0  0  0  0  0  0  0  0
   37.8250   22.3360   34.7020 C   0  0  0  0  0  0  0  0  0  0  0  0
   38.0510   23.5340   34.0030 C   0  0  0  0  0  0  0  0  0  0  0  0
   38.2170   24.6890   34.7940 C   0  0  0  0  0  0  0  0  0  0  0  0
   38.1490   24.5590   36.1420 N   0  0  0  0  0  0  0  0  0  0  0  0
   37.9300   23.3860   36.7610 C   0  0  0  0  0  0  0  0  0  0  0  0
   37.7650   22.2590   36.0370 N   0  0  0  0  0  0  0  0  0  0  0  0
   37.6810   21.3780   34.2120 H   0  0  0  0  0  0  0  0  0  0  0  0
   38.3910   25.6170   34.2810 H   0  0  0  0  0  0  0  0  0  0  0  0
   37.9230   23.5720   37.8320 H   0  0  0  0  0  0  0  0  0  0  0  0
   35.5730   22.8600   31.5220 O   0  0  0  0  0  0  0  0  0  0  0  0
   35.7650   21.4960   31.6990 C   0  0  0  0  0  0  0  0  0  0  0  0
   36.5940   20.8480   30.7950 C   0  0  0  0  0  0  0  0  0  0  0  0
   37.0930   21.3210   29.9740 H   0  0  0  0  0  0  0  0  0  0  0  0
   36.7470   19.4800   31.0260 C   0  0  0  0  0  3  0  0  0  0  0  0
   36.1620   18.7610   32.0370 C   0  0  0  0  0  0  0  0  0  0  0  0
   36.3450   17.7030   32.1290 H   0  0  0  0  0  0  0  0  0  0  0  0
   35.3350   19.4600   32.9230 C   0  0  0  0  0  0  0  0  0  0  0  0
   34.9000   18.8530   33.7000 H   0  0  0  0  0  0  0  0  0  0  0  0
   35.1490   20.8290   32.7380 C   0  0  0  0  0  3  0  0  0  0  0  0
  2  1  2  1  0  0  0
  2  5  1  0  0  0  0
  3  2  1  0  0  0  0
  4  3  1  0  0  0  0
  5  7  1  0  0  0  0
  6 11  1  0  0  0  0
  7  6  2  0  0  0  0
  7  8  1  0  0  0  0
  8  9  2  0  0  0  0
  9 10  1  0  0  0  0
 10 14  1  0  0  0  0
 11 10  2  0  0  0  0
 12  6  1  0  0  0  0
 13  8  1  0  0  0  0
 15  2  1  0  0  0  0
 15 16  1  0  0  0  0
 16 24  1  0  0  0  0
 17 19  1  0  0  0  0
 17 16  2  0  0  0  0
 18 17  1  0  0  0  0
 19 20  2  0  0  0  0
 20 21  1  0  0  0  0
 20 22  1  0  0  0  0
 22 23  1  0  0  0  0
 24 22  2  0  0  0  0
M  END
>  <minimizedAffinity>
-4.33440495

$$$$

 OpenBabel03262522193D

 24 25  0  0  0  0  0  0  0  0999 V2000
   40.4860   23.2760   33.1180 O   0  0  0  0  0  0  0  0  0  0  0  0
   39.5050   24.3780   33.5340 P   0  0  1  0  0  0  0  0  0  0  0  0
   40.4240   25.5850   34.3250 O   0  0  0  0  0  0  0  0  0  0  0  0
   40.3710   25.4580   35.3100 H   0  0  0  0  0  0  0  0  0  0  0  0
   38.9090   25.0970   32.1230 O   0  0  0  0  0  0  0  0  0  0  0  0
   36.9000   24.0310   31.3800 C   0  0  0  0  0  0  0  0  0  0  0  0
   37.5990   25.1920   31.7480 C   0  0  0  0  0  0  0  0  0  0  0  0
   36.8680   26.3960   31.6960 C   0  0  0  0  0  0  0  0  0  0  0  0
   35.5700   26.3430   31.3040 N   0  0  0  0  0  0  0  0  0  0  0  0
   34.9490   25.2020   30.9620 C   0  0  0  0  0  0  0  0  0  0  0  0
   35.6160   24.0300   30.9980 N   0  0  0  0  0  0  0  0  0  0  0  0
   37.3470   23.0410   31.3770 H   0  0  0  0  0  0  0  0  0  0  0  0
   37.3820   27.2990   31.9730 H   0  0  0  0  0  0  0  0  0  0  0  0
   33.9250   25.4500   30.6910 H   0  0  0  0  0  0  0  0  0  0  0  0
   38.3750   23.6900   34.5260 O   0  0  0  0  0  0  0  0  0  0  0  0
   38.5590   23.6310   35.9010 C   0  0  0  0  0  0  0  0  0  0  0  0
   37.6990   24.3790   36.6910 C   0  0  0  0  0  0  0  0  0  0  0  0
   36.9080   24.9960   36.3180 H   0  0  0  0  0  0  0  0  0  0  0  0
   37.9360   24.2770   38.0630 C   0  0  0  0  0  3  0  0  0  0  0  0
   38.9140   23.5250   38.6610 C   0  0  0  0  0  0  0  0  0  0  0  0
   39.0140   23.5150   39.7330 H   0  0  0  0  0  0  0  0  0  0  0  0
   39.7560   22.7880   37.8210 C   0  0  0  0  0  0  0  0  0  0  0  0
   40.5080   22.2130   38.3370 H   0  0  0  0  0  0  0  0  0  0  0  0
   39.5630   22.8540   36.4420 C   0  0  0  0  0  3  0  0  0  0  0  0
  2  1  2  6  0  0  0
  2  3  1  0  0  0  0
  2 15  1  0  0  0  0
  3  4  1  0  0  0  0
  5  2  1  0  0  0  0
  6  7  1  0  0  0  0
  7  5  1  0  0  0  0
  8  7  2  0  0  0  0
  8 13  1  0  0  0  0
  9  8  1  0  0  0  0
 10 11  1  0  0  0  0
 10  9  2  0  0  0  0
 11  6  2  0  0  0  0
 12  6  1  0  0  0  0
 14 10  1  0  0  0  0
 15 16  1  0  0  0  0
 16 24  2  0  0  0  0
 16 17  1  0  0  0  0
 17 19  2  0  0  0  0
 18 17  1  0  0  0  0
 19 20  1  0  0  0  0
 20 21  1  0  0  0  0
 22 23  1  0  0  0  0
 22 20  2  0  0  0  0
 24 22  1  0  0  0  0
M  END
>  <minimizedAffinity>
-4.321455

$$$$

 OpenBabel03262522193D

 24 25  0  0  0  0  0  0  0  0999 V2000
   35.0370   25.1760   30.9390 O   0  0  0  0  0  0  0  0  0  0  0  0
   36.5160   25.1000   31.3350 P   0  0  1  0  0  0  0  0  0  0  0  0
   37.3530   26.2120   30.3400 O   0  0  0  0  0  0  0  0  0  0  0  0
   37.7530   25.7350   29.5650 H   0  0  0  0  0  0  0  0  0  0  0  0
   36.6580   25.6900   32.9140 O   0  0  0  0  0  0  0  0  0  0  0  0
   37.7820   26.9200   34.6300 C   0  0  0  0  0  0  0  0  0  0  0  0
   37.8160   26.0040   33.5660 C   0  0  0  0  0  0  0  0  0  0  0  0
   39.0820   25.4700   33.2510 C   0  0  0  0  0  0  0  0  0  0  0  0
   40.1500   25.8720   33.9840 N   0  0  0  0  0  0  0  0  0  0  0  0
   40.0610   26.7540   34.9950 C   0  0  0  0  0  0  0  0  0  0  0  0
   38.8660   27.2870   35.3250 N   0  0  0  0  0  0  0  0  0  0  0  0
   36.8720   27.4030   34.9730 H   0  0  0  0  0  0  0  0  0  0  0  0
   39.1320   24.7670   32.4390 H   0  0  0  0  0  0  0  0  0  0  0  0
   41.0600   26.8930   35.4020 H   0  0  0  0  0  0  0  0  0  0  0  0
   37.0140   23.5400   31.1000 O   0  0  0  0  0  0  0  0  0  0  0  0
   36.5060   22.4960   31.8610 C   0  0  0  0  0  0  0  0  0  0  0  0
   37.1290   22.2280   33.0700 C   0  0  0  0  0  0  0  0  0  0  0  0
   37.9700   22.7650   33.4570 H   0  0  0  0  0  0  0  0  0  0  0  0
   36.5710   21.1680   33.7880 C   0  0  0  0  0  3  0  0  0  0  0  0
   35.4990   20.4060   33.4000 C   0  0  0  0  0  0  0  0  0  0  0  0
   35.1440   19.6060   34.0290 H   0  0  0  0  0  0  0  0  0  0  0  0
   34.9050   20.7160   32.1720 C   0  0  0  0  0  0  0  0  0  0  0  0
   34.0670   20.0900   31.9120 H   0  0  0  0  0  0  0  0  0  0  0  0
   35.4220   21.7660   31.4160 C   0  0  0  0  0  3  0  0  0  0  0  0
  2  1  2  6  0  0  0
  2  5  1  0  0  0  0
  3  2  1  0  0  0  0
  4  3  1  0  0  0  0
  5  7  1  0  0  0  0
  6 12  1  0  0  0  0
  6 11  1  0  0  0  0
  7  6  2  0  0  0  0
  8  7  1  0  0  0  0
  8  9  2  0  0  0  0
  9 10  1  0  0  0  0
 10 11  2  0  0  0  0
 10 14  1  0  0  0  0
 13  8  1  0  0  0  0
 15  2  1  0  0  0  0
 15 16  1  0  0  0  0
 16 17  1  0  0  0  0
 17 18  1  0  0  0  0
 17 19  2  0  0  0  0
 20 19  1  0  0  0  0
 20 21  1  0  0  0  0
 22 20  2  0  0  0  0
 23 22  1  0  0  0  0
 24 16  2  0  0  0  0
 24 22  1  0  0  0  0
M  END
>  <minimizedAffinity>
-4.29898548

$$$$

 OpenBabel03262522193D

 24 25  0  0  0  0  0  0  0  0999 V2000
   38.1760   24.3040   30.1560 O   0  0  0  0  0  0  0  0  0  0  0  0
   37.3640   25.0340   31.2320 P   0  0  1  0  0  0  0  0  0  0  0  0
   35.8720   25.4690   30.5160 O   0  0  0  0  0  0  0  0  0  0  0  0
   35.9110   26.4120   30.2030 H   0  0  0  0  0  0  0  0  0  0  0  0
   36.9900   23.9140   32.4440 O   0  0  0  0  0  0  0  0  0  0  0  0
   35.5100   22.1400   31.8220 C   0  0  0  0  0  0  0  0  0  0  0  0
   36.7640   22.5780   32.2780 C   0  0  0  0  0  0  0  0  0  0  0  0
   37.7150   21.5680   32.5340 C   0  0  0  0  0  0  0  0  0  0  0  0
   37.3530   20.2780   32.3250 N   0  0  0  0  0  0  0  0  0  0  0  0
   36.1360   19.9140   31.8860 C   0  0  0  0  0  0  0  0  0  0  0  0
   35.2000   20.8520   31.6300 N   0  0  0  0  0  0  0  0  0  0  0  0
   34.6920   22.8150   31.5880 H   0  0  0  0  0  0  0  0  0  0  0  0
   38.6820   21.8790   32.8850 H   0  0  0  0  0  0  0  0  0  0  0  0
   36.1210   18.8290   31.8090 H   0  0  0  0  0  0  0  0  0  0  0  0
   38.2440   26.3500   31.7120 O   0  0  0  0  0  0  0  0  0  0  0  0
   38.3440   26.7040   33.0510 C   0  0  0  0  0  0  0  0  0  0  0  0
   37.2120   27.2250   33.6580 C   0  0  0  0  0  0  0  0  0  0  0  0
   36.2710   27.3740   33.1700 H   0  0  0  0  0  0  0  0  0  0  0  0
   37.3770   27.5600   35.0030 C   0  0  0  0  0  3  0  0  0  0  0  0
   38.5270   27.4180   35.7360 C   0  0  0  0  0  0  0  0  0  0  0  0
   38.5510   27.7080   36.7730 H   0  0  0  0  0  0  0  0  0  0  0  0
   39.6420   26.8870   35.0780 C   0  0  0  0  0  0  0  0  0  0  0  0
   40.5210   26.7940   35.6960 H   0  0  0  0  0  0  0  0  0  0  0  0
   39.5310   26.5350   33.7340 C   0  0  0  0  0  3  0  0  0  0  0  0
  2  1  2  6  0  0  0
  2 15  1  0  0  0  0
  2  5  1  0  0  0  0
  3  2  1  0  0  0  0
  4  3  1  0  0  0  0
  6  7  1  0  0  0  0
  7  5  1  0  0  0  0
  7  8  2  0  0  0  0
  8 13  1  0  0  0  0
  9  8  1  0  0  0  0
 10  9  2  0  0  0  0
 11  6  2  0  0  0  0
 11 10  1  0  0  0  0
 12  6  1  0  0  0  0
 14 10  1  0  0  0  0
 15 16  1  0  0  0  0
 16 17  2  0  0  0  0
 16 24  1  0  0  0  0
 17 19  1  0  0  0  0
 18 17  1  0  0  0  0
 19 20  2  0  0  0  0
 20 21  1  0  0  0  0
 22 23  1  0  0  0  0
 22 20  1  0  0  0  0
 24 22  2  0  0  0  0
M  END
>  <minimizedAffinity>
-4.29196787

$$$$

 OpenBabel03262522193D

 24 25  0  0  0  0  0  0  0  0999 V2000
   39.5510   27.1200   34.5620 O   0  0  0  0  0  0  0  0  0  0  0  0
   38.9370   25.9450   33.7940 P   0  0  1  0  0  0  0  0  0  0  0  0
   39.7120   25.8910   32.2690 O   0  0  0  0  0  0  0  0  0  0  0  0
   39.1520   26.3550   31.5900 H   0  0  0  0  0  0  0  0  0  0  0  0
   39.3790   24.5200   34.5900 O   0  0  0  0  0  0  0  0  0  0  0  0
   39.8780   23.2120   36.5310 C   0  0  0  0  0  0  0  0  0  0  0  0
   39.1040   24.1920   35.8880 C   0  0  0  0  0  0  0  0  0  0  0  0
   38.0760   24.7720   36.6590 C   0  0  0  0  0  0  0  0  0  0  0  0
   37.9160   24.3490   37.9380 N   0  0  0  0  0  0  0  0  0  0  0  0
   38.6870   23.4060   38.5050 C   0  0  0  0  0  0  0  0  0  0  0  0
   39.6800   22.8270   37.7980 N   0  0  0  0  0  0  0  0  0  0  0  0
   40.6980   22.6890   36.0490 H   0  0  0  0  0  0  0  0  0  0  0  0
   37.4710   25.5250   36.1870 H   0  0  0  0  0  0  0  0  0  0  0  0
   38.3400   23.2640   39.5260 H   0  0  0  0  0  0  0  0  0  0  0  0
   37.3120   26.2270   33.6690 O   0  0  0  0  0  0  0  0  0  0  0  0
   36.8170   27.4970   33.4020 C   0  0  0  0  0  0  0  0  0  0  0  0
   36.9180   27.9580   32.0980 C   0  0  0  0  0  0  0  0  0  0  0  0
   37.3500   27.4090   31.2870 H   0  0  0  0  0  0  0  0  0  0  0  0
   36.4020   29.2390   31.8940 C   0  0  0  0  0  3  0  0  0  0  0  0
   35.8280   30.0400   32.8480 C   0  0  0  0  0  0  0  0  0  0  0  0
   35.4590   31.0180   32.5870 H   0  0  0  0  0  0  0  0  0  0  0  0
   35.7480   29.5290   34.1480 C   0  0  0  0  0  0  0  0  0  0  0  0
   35.2890   30.1940   34.8610 H   0  0  0  0  0  0  0  0  0  0  0  0
   36.2480   28.2540   34.4060 C   0  0  0  0  0  3  0  0  0  0  0  0
  2  1  2  1  0  0  0
  2  5  1  0  0  0  0
  3  2  1  0  0  0  0
  4  3  1  0  0  0  0
  5  7  1  0  0  0  0
  6 11  1  0  0  0  0
  7  6  2  0  0  0  0
  7  8  1  0  0  0  0
  8  9  2  0  0  0  0
  9 10  1  0  0  0  0
 10 14  1  0  0  0  0
 11 10  2  0  0  0  0
 12  6  1  0  0  0  0
 13  8  1  0  0  0  0
 15  2  1  0  0  0  0
 16 15  1  0  0  0  0
 16 24  1  0  0  0  0
 17 16  2  0  0  0  0
 18 17  1  0  0  0  0
 19 17  1  0  0  0  0
 19 20  2  0  0  0  0
 20 22  1  0  0  0  0
 21 20  1  0  0  0  0
 22 24  2  0  0  0  0
 22 23  1  0  0  0  0
M  END
>  <minimizedAffinity>
-4.26367712

$$$$
