
 OpenBabel03272504233D

 39 41  0  0  1  0  0  0  0  0999 V2000
   38.8630   32.4000   47.8660 C   0  0  2  0  0  0  0  0  0  0  0  0
   38.1850   31.3900   48.7740 C   0  0  1  0  0  0  0  0  0  0  0  0
   38.7060   31.9220   50.1090 C   0  0  0  0  0  0  0  0  0  0  0  0
   38.3760   33.2690   50.0060 O   0  0  0  0  0  0  0  0  0  0  0  0
   38.6770   33.6530   48.7110 C   0  0  0  0  0  0  0  0  0  0  0  0
   39.9200   32.1030   47.7600 H   0  0  0  0  0  0  0  0  0  0  0  0
   38.4910   30.3470   48.5850 H   0  0  0  0  0  0  0  0  0  0  0  0
   38.1580   31.5040   50.9730 H   0  0  0  0  0  0  0  0  0  0  0  0
   39.7950   31.7440   50.1720 H   0  0  0  0  0  0  0  0  0  0  0  0
   37.9250   34.2810   48.2250 H   0  0  0  0  0  0  0  0  0  0  0  0
   39.6900   34.1310   48.7600 H   0  0  0  0  0  0  0  0  0  0  0  0
   36.8260   31.6030   48.6840 O   0  0  0  0  0  0  0  0  0  0  0  0
   35.9290   29.8570   46.9600 O   0  0  0  0  0  0  0  0  0  0  0  0
   35.9700   30.1740   48.4210 P   0  0  1  0  0  0  0  0  0  0  0  0
   36.7580   28.8750   49.2280 O   0  0  0  0  0  0  0  0  0  0  0  0
   37.2230   29.2570   50.0310 H   0  0  0  0  0  0  0  0  0  0  0  0
   34.3950   30.3350   49.0460 O   0  0  0  0  0  0  0  0  0  0  0  0
   34.1310   29.1930   49.7850 C   0  0  0  0  0  0  0  0  0  0  0  0
   35.0710   28.7290   50.1830 H   0  0  0  0  0  0  0  0  0  0  0  0
   33.5710   29.5200   50.6890 H   0  0  0  0  0  0  0  0  0  0  0  0
   33.2710   28.2220   49.0760 C   0  0  0  0  0  0  0  0  0  0  0  0
   33.9020   27.3320   48.2380 C   0  0  0  0  0  0  0  0  0  0  0  0
   33.1470   26.3880   47.5370 C   0  0  0  0  0  0  0  0  0  0  0  0
   31.7990   26.4080   47.7320 N   0  0  0  0  0  0  0  0  0  0  0  0
   31.2000   27.2880   48.5570 C   0  0  0  0  0  0  0  0  0  0  0  0
   31.9370   28.2060   49.2380 N   0  0  0  0  0  0  0  0  0  0  0  0
   34.9530   27.2370   48.0180 H   0  0  0  0  0  0  0  0  0  0  0  0
   33.5300   25.6460   46.8590 H   0  0  0  0  0  0  0  0  0  0  0  0
   30.1390   27.2140   48.6340 H   0  0  0  0  0  0  0  0  0  0  0  0
   38.1700   32.4450   46.6790 O   0  0  0  0  0  0  0  0  0  0  0  0
   38.6150   32.2650   45.4010 C   0  0  0  0  0  0  0  0  0  0  0  0
   37.9220   32.4990   44.2530 C   0  0  0  0  0  0  0  0  0  0  0  0
   36.9120   32.8660   44.3720 H   0  0  0  0  0  0  0  0  0  0  0  0
   38.5260   32.2630   43.0280 C   0  0  0  0  0  0  0  0  0  0  0  0
   39.8230   31.7940   42.9930 C   0  0  0  0  0  0  0  0  0  0  0  0
   40.2250   31.6340   41.9870 H   0  0  0  0  0  0  0  0  0  0  0  0
   40.5560   31.5450   44.1390 C   0  0  0  0  0  0  0  0  0  0  0  0
   41.5550   31.1830   44.0790 H   0  0  0  0  0  0  0  0  0  0  0  0
   39.9300   31.7890   45.3480 C   0  0  0  0  0  0  0  0  0  0  0  0
  1  6  1  6  0  0  0
  1  5  1  0  0  0  0
  1  2  1  0  0  0  0
  2  7  1  6  0  0  0
  2  3  1  0  0  0  0
  3  9  1  0  0  0  0
  3  8  1  0  0  0  0
  4  3  1  0  0  0  0
  5 11  1  0  0  0  0
  5  4  1  0  0  0  0
 10  5  1  0  0  0  0
 12  2  1  0  0  0  0
 14 13  2  6  0  0  0
 14 12  1  0  0  0  0
 14 17  1  0  0  0  0
 14 15  1  0  0  0  0
 15 16  1  0  0  0  0
 17 18  1  0  0  0  0
 18 19  1  0  0  0  0
 18 20  1  0  0  0  0
 21 26  1  0  0  0  0
 21 18  1  0  0  0  0
 22 21  2  0  0  0  0
 23 24  2  0  0  0  0
 23 22  1  0  0  0  0
 24 25  1  0  0  0  0
 25 29  1  0  0  0  0
 25 26  2  0  0  0  0
 27 22  1  0  0  0  0
 28 23  1  0  0  0  0
 30  1  1  0  0  0  0
 31 30  1  0  0  0  0
 32 33  1  0  0  0  0
 32 31  2  0  0  0  0
 34 32  1  0  0  0  0
 35 34  2  0  0  0  0
 35 37  1  0  0  0  0
 36 35  1  0  0  0  0
 37 39  2  0  0  0  0
 38 37  1  0  0  0  0
 39 31  1  0  0  0  0
M  END
>  <minimizedAffinity>
-4.90434504

>  <minimizedRMSD>
0.26105234

$$$$
