
 OpenBabel03272509593D

 46 49  0  0  0  0  0  0  0  0999 V2000
   35.9120   26.6150   30.9840 C   0  0  0  0  0  0  0  0  0  0  0  0
   37.0190   26.7150   31.1360 H   0  0  0  0  0  0  0  0  0  0  0  0
   35.7360   27.0960   29.9930 H   0  0  0  0  0  0  0  0  0  0  0  0
   35.4730   25.1790   31.0330 C   0  0  0  0  0  0  0  0  0  0  0  0
   34.4570   25.1550   31.5100 H   0  0  0  0  0  0  0  0  0  0  0  0
   35.3510   24.6990   30.0530 H   0  0  0  0  0  0  0  0  0  0  0  0
   36.3430   24.3380   31.9030 C   0  0  0  0  0  0  0  0  0  0  0  0
   36.1350   22.9700   31.8850 C   0  0  0  0  0  0  0  0  0  0  0  0
   36.8870   22.1150   32.6540 C   0  0  0  0  0  0  0  0  0  0  0  0
   37.8440   22.6190   33.4400 N   0  0  0  0  0  0  0  0  0  0  0  0
   38.0320   23.9690   33.4450 C   0  0  0  0  0  0  0  0  0  0  0  0
   37.3110   24.8190   32.7030 N   0  0  0  0  0  0  0  0  0  0  0  0
   35.3560   22.5590   31.2460 H   0  0  0  0  0  0  0  0  0  0  0  0
   36.6880   21.0340   32.6090 H   0  0  0  0  0  0  0  0  0  0  0  0
   39.1140   24.4780   34.3400 C   0  0  0  0  0  0  0  0  0  0  0  0
   39.2160   25.5680   34.1590 H   0  0  0  0  0  0  0  0  0  0  0  0
   40.0640   24.0410   33.9200 H   0  0  0  0  0  0  0  0  0  0  0  0
   38.9210   24.1430   35.7560 C   0  0  0  0  0  0  0  0  0  0  0  0
   39.8510   23.2690   36.3290 C   0  0  0  0  0  0  0  0  0  0  0  0
   40.6820   22.8490   35.7650 H   0  0  0  0  0  0  0  0  0  0  0  0
   39.7790   22.8770   37.6500 C   0  0  0  0  0  3  0  0  0  0  0  0
   38.7560   23.3630   38.4350 C   0  0  0  0  0  0  0  0  0  0  0  0
   38.6540   23.0850   39.4870 H   0  0  0  0  0  0  0  0  0  0  0  0
   37.8430   24.2210   37.8790 C   0  0  0  0  0  0  0  0  0  0  0  0
   37.0370   24.6190   38.4480 H   0  0  0  0  0  0  0  0  0  0  0  0
   37.8970   24.6290   36.5440 C   0  0  0  0  0  3  0  0  0  0  0  0
   35.2780   27.3660   32.0080 O   0  0  0  0  0  0  0  0  0  0  0  0
   36.3500   30.7650   31.4380 C   0  0  0  0  0  0  0  0  0  0  0  0
   35.8920   31.3760   32.6290 C   0  0  0  0  0  0  0  0  0  0  0  0
   35.2380   30.5700   33.5610 C   0  0  0  0  0  0  0  0  0  0  0  0
   35.1060   29.2570   33.2200 N   0  0  0  0  0  0  0  0  0  0  0  0
   35.5400   28.6890   32.0950 C   0  0  0  0  0  0  0  0  0  0  0  0
   36.1740   29.4710   31.1930 N   0  0  0  0  0  0  0  0  0  0  0  0
   36.8500   31.4230   30.7450 H   0  0  0  0  0  0  0  0  0  0  0  0
   36.0000   32.4060   32.8880 H   0  0  0  0  0  0  0  0  0  0  0  0
   36.6510   31.8110   35.7560 F   0  0  0  0  0  0  0  0  0  0  0  0
   35.3370   31.5920   35.8580 C   0  0  0  0  0  0  0  0  0  0  0  0
   34.7050   31.0160   34.8260 C   0  0  0  0  0  0  0  0  0  0  0  0
   33.3350   30.8340   35.0340 C   0  0  0  0  0  0  0  0  0  0  0  0
   32.7000   31.2100   36.1860 C   0  0  0  0  0  0  0  0  0  0  0  0
   33.3960   31.7990   37.2150 C   0  0  0  0  0  0  0  0  0  0  0  0
   34.7390   31.9880   37.0370 C   0  0  0  0  0  0  0  0  0  0  0  0
   32.6870   30.3790   34.2860 H   0  0  0  0  0  0  0  0  0  0  0  0
   31.6380   31.0640   36.3360 H   0  0  0  0  0  0  0  0  0  0  0  0
   32.9100   32.1040   38.1370 H   0  0  0  0  0  0  0  0  0  0  0  0
   35.3050   32.4490   37.8370 H   0  0  0  0  0  0  0  0  0  0  0  0
  1  4  1  0  0  0  0
  1  2  1  0  0  0  0
  1 27  1  0  0  0  0
  3  1  1  0  0  0  0
  4  5  1  0  0  0  0
  4  7  1  0  0  0  0
  6  4  1  0  0  0  0
  7 12  1  0  0  0  0
  8  7  2  0  0  0  0
  8  9  1  0  0  0  0
  9 10  2  0  0  0  0
 10 11  1  0  0  0  0
 11 15  1  0  0  0  0
 12 11  2  0  0  0  0
 13  8  1  0  0  0  0
 14  9  1  0  0  0  0
 15 18  1  0  0  0  0
 16 15  1  0  0  0  0
 17 15  1  0  0  0  0
 18 19  2  0  0  0  0
 18 26  1  0  0  0  0
 19 21  1  0  0  0  0
 20 19  1  0  0  0  0
 21 22  2  0  0  0  0
 22 23  1  0  0  0  0
 24 22  1  0  0  0  0
 24 25  1  0  0  0  0
 26 24  2  0  0  0  0
 27 32  1  0  0  0  0
 28 29  1  0  0  0  0
 29 35  1  0  0  0  0
 29 30  2  0  0  0  0
 30 38  1  0  0  0  0
 31 30  1  0  0  0  0
 32 31  2  0  0  0  0
 33 28  2  0  0  0  0
 33 32  1  0  0  0  0
 34 28  1  0  0  0  0
 36 37  1  0  0  0  0
 37 42  1  0  0  0  0
 38 39  1  0  0  0  0
 38 37  2  0  0  0  0
 39 40  2  0  0  0  0
 40 44  1  0  0  0  0
 40 41  1  0  0  0  0
 41 45  1  0  0  0  0
 42 41  2  0  0  0  0
 42 46  1  0  0  0  0
 43 39  1  0  0  0  0
M  END
>  <minimizedAffinity>
-6.72797489

$$$$

 OpenBabel03272509593D

 46 49  0  0  0  0  0  0  0  0999 V2000
   38.6080   27.0350   33.9480 C   0  0  0  0  0  0  0  0  0  0  0  0
   38.9710   28.0740   33.7290 H   0  0  0  0  0  0  0  0  0  0  0  0
   39.2620   26.3880   33.3160 H   0  0  0  0  0  0  0  0  0  0  0  0
   38.6930   26.7140   35.4120 C   0  0  0  0  0  0  0  0  0  0  0  0
   39.7570   26.8820   35.7320 H   0  0  0  0  0  0  0  0  0  0  0  0
   38.0840   27.3550   36.0630 H   0  0  0  0  0  0  0  0  0  0  0  0
   38.4110   25.2800   35.7070 C   0  0  0  0  0  0  0  0  0  0  0  0
   37.9430   24.9670   36.9710 C   0  0  0  0  0  0  0  0  0  0  0  0
   37.6560   23.6740   37.3350 C   0  0  0  0  0  0  0  0  0  0  0  0
   37.8340   22.6930   36.4440 N   0  0  0  0  0  0  0  0  0  0  0  0
   38.2970   23.0220   35.2040 C   0  0  0  0  0  0  0  0  0  0  0  0
   38.5820   24.2750   34.8300 N   0  0  0  0  0  0  0  0  0  0  0  0
   37.7990   25.7640   37.6970 H   0  0  0  0  0  0  0  0  0  0  0  0
   37.2860   23.4680   38.3500 H   0  0  0  0  0  0  0  0  0  0  0  0
   38.4760   21.8880   34.2480 C   0  0  0  0  0  0  0  0  0  0  0  0
   38.7870   21.0000   34.8370 H   0  0  0  0  0  0  0  0  0  0  0  0
   39.3950   22.1560   33.6530 H   0  0  0  0  0  0  0  0  0  0  0  0
   37.3090   21.6380   33.3950 C   0  0  0  0  0  0  0  0  0  0  0  0
   37.3440   22.1790   32.1060 C   0  0  0  0  0  0  0  0  0  0  0  0
   38.1880   22.7600   31.7380 H   0  0  0  0  0  0  0  0  0  0  0  0
   36.3090   22.0140   31.2080 C   0  0  0  0  0  3  0  0  0  0  0  0
   35.2010   21.2910   31.5930 C   0  0  0  0  0  0  0  0  0  0  0  0
   34.3550   21.1310   30.9210 H   0  0  0  0  0  0  0  0  0  0  0  0
   35.1610   20.7580   32.8560 C   0  0  0  0  0  0  0  0  0  0  0  0
   34.3260   20.1950   33.1950 H   0  0  0  0  0  0  0  0  0  0  0  0
   36.1980   20.9140   33.7790 C   0  0  0  0  0  3  0  0  0  0  0  0
   37.2650   26.9550   33.4950 O   0  0  0  0  0  0  0  0  0  0  0  0
   36.0150   29.6760   31.4810 C   0  0  0  0  0  0  0  0  0  0  0  0
   35.3390   30.4300   32.4680 C   0  0  0  0  0  0  0  0  0  0  0  0
   35.3570   29.9480   33.7770 C   0  0  0  0  0  0  0  0  0  0  0  0
   36.0350   28.7820   33.9700 N   0  0  0  0  0  0  0  0  0  0  0  0
   36.6710   28.0770   33.0330 C   0  0  0  0  0  0  0  0  0  0  0  0
   36.6520   28.5450   31.7660 N   0  0  0  0  0  0  0  0  0  0  0  0
   35.9760   30.0830   30.4820 H   0  0  0  0  0  0  0  0  0  0  0  0
   34.8100   31.3420   32.3080 H   0  0  0  0  0  0  0  0  0  0  0  0
   32.6030   29.7430   34.6280 F   0  0  0  0  0  0  0  0  0  0  0  0
   33.4530   30.5010   35.3250 C   0  0  0  0  0  0  0  0  0  0  0  0
   34.7250   30.5800   34.9110 C   0  0  0  0  0  0  0  0  0  0  0  0
   35.5300   31.3960   35.7090 C   0  0  0  0  0  0  0  0  0  0  0  0
   35.0610   32.0550   36.8130 C   0  0  0  0  0  0  0  0  0  0  0  0
   33.7450   31.9400   37.1960 C   0  0  0  0  0  0  0  0  0  0  0  0
   32.9360   31.1460   36.4310 C   0  0  0  0  0  0  0  0  0  0  0  0
   36.5860   31.5580   35.4990 H   0  0  0  0  0  0  0  0  0  0  0  0
   35.6930   32.6850   37.4240 H   0  0  0  0  0  0  0  0  0  0  0  0
   33.3540   32.4540   38.0690 H   0  0  0  0  0  0  0  0  0  0  0  0
   31.8960   31.0430   36.7160 H   0  0  0  0  0  0  0  0  0  0  0  0
  1  4  1  0  0  0  0
  2  1  1  0  0  0  0
  3  1  1  0  0  0  0
  4  7  1  0  0  0  0
  4  5  1  0  0  0  0
  4  6  1  0  0  0  0
  7  8  1  0  0  0  0
  8  9  2  0  0  0  0
  8 13  1  0  0  0  0
  9 14  1  0  0  0  0
 10  9  1  0  0  0  0
 11 10  2  0  0  0  0
 12 11  1  0  0  0  0
 12  7  2  0  0  0  0
 15 16  1  0  0  0  0
 15 11  1  0  0  0  0
 17 15  1  0  0  0  0
 18 26  1  0  0  0  0
 18 15  1  0  0  0  0
 19 18  2  0  0  0  0
 20 19  1  0  0  0  0
 21 22  2  0  0  0  0
 21 19  1  0  0  0  0
 22 24  1  0  0  0  0
 23 22  1  0  0  0  0
 24 25  1  0  0  0  0
 24 26  2  0  0  0  0
 27  1  1  0  0  0  0
 28 33  2  0  0  0  0
 28 29  1  0  0  0  0
 29 30  2  0  0  0  0
 30 31  1  0  0  0  0
 30 38  1  0  0  0  0
 32 27  1  0  0  0  0
 32 31  2  0  0  0  0
 33 32  1  0  0  0  0
 34 28  1  0  0  0  0
 35 29  1  0  0  0  0
 36 37  1  0  0  0  0
 37 42  1  0  0  0  0
 38 37  2  0  0  0  0
 38 39  1  0  0  0  0
 39 40  2  0  0  0  0
 40 41  1  0  0  0  0
 40 44  1  0  0  0  0
 41 45  1  0  0  0  0
 42 46  1  0  0  0  0
 42 41  2  0  0  0  0
 43 39  1  0  0  0  0
M  END
>  <minimizedAffinity>
-6.56378412

$$$$

 OpenBabel03272509593D

 46 49  0  0  0  0  0  0  0  0999 V2000
   35.9050   26.6120   31.0130 C   0  0  0  0  0  0  0  0  0  0  0  0
   37.0050   26.4890   31.1980 H   0  0  0  0  0  0  0  0  0  0  0  0
   35.8590   27.2310   30.0860 H   0  0  0  0  0  0  0  0  0  0  0  0
   35.2150   25.2850   30.8750 C   0  0  0  0  0  0  0  0  0  0  0  0
   34.2320   25.3610   31.4120 H   0  0  0  0  0  0  0  0  0  0  0  0
   34.9690   24.9960   29.8450 H   0  0  0  0  0  0  0  0  0  0  0  0
   35.9520   24.1780   31.5480 C   0  0  0  0  0  0  0  0  0  0  0  0
   35.5240   22.8840   31.3060 C   0  0  0  0  0  0  0  0  0  0  0  0
   36.1400   21.8000   31.8820 C   0  0  0  0  0  0  0  0  0  0  0  0
   37.1800   22.0010   32.6970 N   0  0  0  0  0  0  0  0  0  0  0  0
   37.5860   23.2830   32.9240 C   0  0  0  0  0  0  0  0  0  0  0  0
   37.0000   24.3520   32.3730 N   0  0  0  0  0  0  0  0  0  0  0  0
   34.6770   22.7200   30.6430 H   0  0  0  0  0  0  0  0  0  0  0  0
   35.7680   20.7880   31.6630 H   0  0  0  0  0  0  0  0  0  0  0  0
   38.7520   23.4490   33.8430 C   0  0  0  0  0  0  0  0  0  0  0  0
   39.6660   23.1600   33.2810 H   0  0  0  0  0  0  0  0  0  0  0  0
   38.6340   22.6320   34.6090 H   0  0  0  0  0  0  0  0  0  0  0  0
   38.8450   24.7800   34.4530 C   0  0  0  0  0  0  0  0  0  0  0  0
   38.1370   24.9780   35.6430 C   0  0  0  0  0  0  0  0  0  0  0  0
   37.5420   24.1930   36.1060 H   0  0  0  0  0  0  0  0  0  0  0  0
   38.1440   26.1840   36.3140 C   0  0  0  0  0  3  0  0  0  0  0  0
   38.8720   27.2320   35.7940 C   0  0  0  0  0  0  0  0  0  0  0  0
   38.9110   28.2070   36.2860 H   0  0  0  0  0  0  0  0  0  0  0  0
   39.5680   27.0440   34.6280 C   0  0  0  0  0  0  0  0  0  0  0  0
   40.1420   27.8250   34.1920 H   0  0  0  0  0  0  0  0  0  0  0  0
   39.5740   25.8310   33.9340 C   0  0  0  0  0  3  0  0  0  0  0  0
   35.3730   27.3400   32.1090 O   0  0  0  0  0  0  0  0  0  0  0  0
   36.3400   30.7580   31.4690 C   0  0  0  0  0  0  0  0  0  0  0  0
   35.8780   31.3770   32.6550 C   0  0  0  0  0  0  0  0  0  0  0  0
   35.2570   30.5680   33.6080 C   0  0  0  0  0  0  0  0  0  0  0  0
   35.1590   29.2470   33.2910 N   0  0  0  0  0  0  0  0  0  0  0  0
   35.5970   28.6710   32.1710 C   0  0  0  0  0  0  0  0  0  0  0  0
   36.1990   29.4550   31.2490 N   0  0  0  0  0  0  0  0  0  0  0  0
   36.8130   31.4180   30.7590 H   0  0  0  0  0  0  0  0  0  0  0  0
   35.9590   32.4130   32.8950 H   0  0  0  0  0  0  0  0  0  0  0  0
   36.6520   31.9110   35.7540 F   0  0  0  0  0  0  0  0  0  0  0  0
   35.3490   31.6430   35.8800 C   0  0  0  0  0  0  0  0  0  0  0  0
   34.7250   31.0210   34.8710 C   0  0  0  0  0  0  0  0  0  0  0  0
   33.3670   30.7900   35.1030 C   0  0  0  0  0  0  0  0  0  0  0  0
   32.7330   31.1660   36.2560 C   0  0  0  0  0  0  0  0  0  0  0  0
   33.4210   31.8040   37.2620 C   0  0  0  0  0  0  0  0  0  0  0  0
   34.7520   32.0410   37.0600 C   0  0  0  0  0  0  0  0  0  0  0  0
   32.7270   30.2940   34.3750 H   0  0  0  0  0  0  0  0  0  0  0  0
   31.6810   30.9820   36.4250 H   0  0  0  0  0  0  0  0  0  0  0  0
   32.9360   32.1100   38.1840 H   0  0  0  0  0  0  0  0  0  0  0  0
   35.3110   32.5420   37.8410 H   0  0  0  0  0  0  0  0  0  0  0  0
  1  2  1  0  0  0  0
  1 27  1  0  0  0  0
  3  1  1  0  0  0  0
  4  1  1  0  0  0  0
  4  5  1  0  0  0  0
  4  7  1  0  0  0  0
  6  4  1  0  0  0  0
  7 12  1  0  0  0  0
  8  7  2  0  0  0  0
  8  9  1  0  0  0  0
  9 10  2  0  0  0  0
 10 11  1  0  0  0  0
 11 15  1  0  0  0  0
 12 11  2  0  0  0  0
 13  8  1  0  0  0  0
 14  9  1  0  0  0  0
 15 18  1  0  0  0  0
 15 17  1  0  0  0  0
 16 15  1  0  0  0  0
 18 19  1  0  0  0  0
 19 20  1  0  0  0  0
 19 21  2  0  0  0  0
 22 23  1  0  0  0  0
 22 21  1  0  0  0  0
 24 22  2  0  0  0  0
 25 24  1  0  0  0  0
 26 18  2  0  0  0  0
 26 24  1  0  0  0  0
 27 32  1  0  0  0  0
 28 29  1  0  0  0  0
 29 35  1  0  0  0  0
 29 30  2  0  0  0  0
 30 38  1  0  0  0  0
 31 30  1  0  0  0  0
 32 31  2  0  0  0  0
 33 28  2  0  0  0  0
 33 32  1  0  0  0  0
 34 28  1  0  0  0  0
 36 37  1  0  0  0  0
 37 42  1  0  0  0  0
 38 39  1  0  0  0  0
 38 37  2  0  0  0  0
 39 40  2  0  0  0  0
 40 44  1  0  0  0  0
 40 41  1  0  0  0  0
 41 45  1  0  0  0  0
 42 41  2  0  0  0  0
 42 46  1  0  0  0  0
 43 39  1  0  0  0  0
M  END
>  <minimizedAffinity>
-6.50810957

$$$$

 OpenBabel03272509593D

 46 49  0  0  0  0  0  0  0  0999 V2000
   38.1920   26.6480   32.5120 C   0  0  0  0  0  0  0  0  0  0  0  0
   38.9800   26.8290   33.2910 H   0  0  0  0  0  0  0  0  0  0  0  0
   37.2540   26.5330   33.1050 H   0  0  0  0  0  0  0  0  0  0  0  0
   38.1300   27.7690   31.5160 C   0  0  0  0  0  0  0  0  0  0  0  0
   39.0190   28.4300   31.6970 H   0  0  0  0  0  0  0  0  0  0  0  0
   38.2010   27.4590   30.4640 H   0  0  0  0  0  0  0  0  0  0  0  0
   36.9380   28.6450   31.7040 C   0  0  0  0  0  0  0  0  0  0  0  0
   36.6940   29.6100   30.7430 C   0  0  0  0  0  0  0  0  0  0  0  0
   35.6210   30.4630   30.8320 C   0  0  0  0  0  0  0  0  0  0  0  0
   34.7910   30.3560   31.8750 N   0  0  0  0  0  0  0  0  0  0  0  0
   35.0490   29.3990   32.8110 C   0  0  0  0  0  0  0  0  0  0  0  0
   36.0880   28.5590   32.7430 N   0  0  0  0  0  0  0  0  0  0  0  0
   37.3690   29.6980   29.8950 H   0  0  0  0  0  0  0  0  0  0  0  0
   35.4640   31.2160   30.0460 H   0  0  0  0  0  0  0  0  0  0  0  0
   34.0900   29.3250   33.9540 C   0  0  0  0  0  0  0  0  0  0  0  0
   34.1300   28.2920   34.3590 H   0  0  0  0  0  0  0  0  0  0  0  0
   33.0700   29.3920   33.4790 H   0  0  0  0  0  0  0  0  0  0  0  0
   34.3000   30.3560   34.9770 C   0  0  0  0  0  0  0  0  0  0  0  0
   35.6100   30.8170   35.1450 C   0  0  0  0  0  0  0  0  0  0  0  0
   36.4430   30.4390   34.5560 H   0  0  0  0  0  0  0  0  0  0  0  0
   35.9380   31.7840   36.0730 C   0  0  0  0  0  3  0  0  0  0  0  0
   34.9410   32.3170   36.8620 C   0  0  0  0  0  0  0  0  0  0  0  0
   35.1470   33.0850   37.6110 H   0  0  0  0  0  0  0  0  0  0  0  0
   33.6560   31.8700   36.7000 C   0  0  0  0  0  0  0  0  0  0  0  0
   32.8560   32.2520   37.2880 H   0  0  0  0  0  0  0  0  0  0  0  0
   33.3030   30.8910   35.7680 C   0  0  0  0  0  3  0  0  0  0  0  0
   38.5120   25.4240   31.8680 O   0  0  0  0  0  0  0  0  0  0  0  0
   37.1480   22.1570   32.5750 C   0  0  0  0  0  0  0  0  0  0  0  0
   37.4480   22.0520   33.9530 C   0  0  0  0  0  0  0  0  0  0  0  0
   38.1060   23.1240   34.5560 C   0  0  0  0  0  0  0  0  0  0  0  0
   38.3970   24.1770   33.7410 N   0  0  0  0  0  0  0  0  0  0  0  0
   38.1110   24.2680   32.4420 C   0  0  0  0  0  0  0  0  0  0  0  0
   37.4730   23.2290   31.8590 N   0  0  0  0  0  0  0  0  0  0  0  0
   36.6390   21.3080   32.1470 H   0  0  0  0  0  0  0  0  0  0  0  0
   37.2160   21.2240   34.5850 H   0  0  0  0  0  0  0  0  0  0  0  0
   40.4490   21.9960   35.8190 F   0  0  0  0  0  0  0  0  0  0  0  0
   39.5690   22.6810   36.5550 C   0  0  0  0  0  0  0  0  0  0  0  0
   38.4920   23.1950   35.9460 C   0  0  0  0  0  0  0  0  0  0  0  0
   37.6380   23.8930   36.8030 C   0  0  0  0  0  0  0  0  0  0  0  0
   37.8810   24.0380   38.1420 C   0  0  0  0  0  0  0  0  0  0  0  0
   39.0040   23.4910   38.7180 C   0  0  0  0  0  0  0  0  0  0  0  0
   39.8560   22.8020   37.9000 C   0  0  0  0  0  0  0  0  0  0  0  0
   36.7210   24.3670   36.4550 H   0  0  0  0  0  0  0  0  0  0  0  0
   37.2120   24.5810   38.7970 H   0  0  0  0  0  0  0  0  0  0  0  0
   39.2150   23.5950   39.7780 H   0  0  0  0  0  0  0  0  0  0  0  0
   40.7460   22.3630   38.3340 H   0  0  0  0  0  0  0  0  0  0  0  0
  1  3  1  0  0  0  0
  1  2  1  0  0  0  0
  4  5  1  0  0  0  0
  4  7  1  0  0  0  0
  4  1  1  0  0  0  0
  6  4  1  0  0  0  0
  7 12  1  0  0  0  0
  8  9  1  0  0  0  0
  8  7  2  0  0  0  0
  9 10  2  0  0  0  0
 10 11  1  0  0  0  0
 11 15  1  0  0  0  0
 12 11  2  0  0  0  0
 13  8  1  0  0  0  0
 14  9  1  0  0  0  0
 15 16  1  0  0  0  0
 15 18  1  0  0  0  0
 17 15  1  0  0  0  0
 18 19  2  0  0  0  0
 18 26  1  0  0  0  0
 19 21  1  0  0  0  0
 20 19  1  0  0  0  0
 21 22  2  0  0  0  0
 22 23  1  0  0  0  0
 24 22  1  0  0  0  0
 24 25  1  0  0  0  0
 26 24  2  0  0  0  0
 27 32  1  0  0  0  0
 27  1  1  0  0  0  0
 28 29  1  0  0  0  0
 29 30  2  0  0  0  0
 29 35  1  0  0  0  0
 30 38  1  0  0  0  0
 31 30  1  0  0  0  0
 32 31  2  0  0  0  0
 33 32  1  0  0  0  0
 33 28  2  0  0  0  0
 34 28  1  0  0  0  0
 36 37  1  0  0  0  0
 37 42  1  0  0  0  0
 38 37  2  0  0  0  0
 38 39  1  0  0  0  0
 39 40  2  0  0  0  0
 40 41  1  0  0  0  0
 40 44  1  0  0  0  0
 41 45  1  0  0  0  0
 42 46  1  0  0  0  0
 42 41  2  0  0  0  0
 43 39  1  0  0  0  0
M  END
>  <minimizedAffinity>
-6.38545942

$$$$

 OpenBabel03272509593D

 46 49  0  0  0  0  0  0  0  0999 V2000
   37.0930   21.9250   31.6120 C   0  0  0  0  0  0  0  0  0  0  0  0
   37.8470   22.6800   31.9580 H   0  0  0  0  0  0  0  0  0  0  0  0
   37.4670   21.6180   30.6060 H   0  0  0  0  0  0  0  0  0  0  0  0
   36.9710   20.7790   32.5750 C   0  0  0  0  0  0  0  0  0  0  0  0
   35.9960   20.2650   32.3630 H   0  0  0  0  0  0  0  0  0  0  0  0
   37.7430   20.0040   32.4720 H   0  0  0  0  0  0  0  0  0  0  0  0
   36.8870   21.2240   33.9950 C   0  0  0  0  0  0  0  0  0  0  0  0
   35.8760   20.6900   34.7750 C   0  0  0  0  0  0  0  0  0  0  0  0
   35.7200   21.0400   36.0940 C   0  0  0  0  0  0  0  0  0  0  0  0
   36.5660   21.9210   36.6370 N   0  0  0  0  0  0  0  0  0  0  0  0
   37.5540   22.4370   35.8520 C   0  0  0  0  0  0  0  0  0  0  0  0
   37.7240   22.1090   34.5660 N   0  0  0  0  0  0  0  0  0  0  0  0
   35.1870   19.9740   34.3330 H   0  0  0  0  0  0  0  0  0  0  0  0
   34.9030   20.5910   36.6780 H   0  0  0  0  0  0  0  0  0  0  0  0
   38.4710   23.4160   36.5100 C   0  0  0  0  0  0  0  0  0  0  0  0
   38.1110   23.5670   37.5490 H   0  0  0  0  0  0  0  0  0  0  0  0
   38.2570   24.3980   36.0010 H   0  0  0  0  0  0  0  0  0  0  0  0
   39.8890   23.0450   36.4380 C   0  0  0  0  0  0  0  0  0  0  0  0
   40.3220   22.0370   37.3060 C   0  0  0  0  0  0  0  0  0  0  0  0
   39.6520   21.5440   38.0080 H   0  0  0  0  0  0  0  0  0  0  0  0
   41.6300   21.5990   37.3340 C   0  0  0  0  0  3  0  0  0  0  0  0
   42.5440   22.1730   36.4770 C   0  0  0  0  0  0  0  0  0  0  0  0
   43.5910   21.8620   36.4590 H   0  0  0  0  0  0  0  0  0  0  0  0
   42.1260   23.1600   35.6240 C   0  0  0  0  0  0  0  0  0  0  0  0
   42.7970   23.6300   34.9460 H   0  0  0  0  0  0  0  0  0  0  0  0
   40.8060   23.6180   35.5800 C   0  0  0  0  0  3  0  0  0  0  0  0
   35.8520   22.6020   31.4810 O   0  0  0  0  0  0  0  0  0  0  0  0
   35.1660   26.1000   30.9140 C   0  0  0  0  0  0  0  0  0  0  0  0
   36.1480   26.6870   31.7460 C   0  0  0  0  0  0  0  0  0  0  0  0
   36.9920   25.8310   32.4550 C   0  0  0  0  0  0  0  0  0  0  0  0
   36.7770   24.4980   32.2690 N   0  0  0  0  0  0  0  0  0  0  0  0
   35.8490   23.9530   31.4830 C   0  0  0  0  0  0  0  0  0  0  0  0
   35.0320   24.7830   30.7960 N   0  0  0  0  0  0  0  0  0  0  0  0
   34.5350   26.7950   30.3840 H   0  0  0  0  0  0  0  0  0  0  0  0
   36.3090   27.7320   31.8860 H   0  0  0  0  0  0  0  0  0  0  0  0
   36.8040   26.4590   35.2700 F   0  0  0  0  0  0  0  0  0  0  0  0
   37.9860   26.5430   34.6530 C   0  0  0  0  0  0  0  0  0  0  0  0
   38.0470   26.2470   33.3480 C   0  0  0  0  0  0  0  0  0  0  0  0
   39.3270   26.3660   32.8010 C   0  0  0  0  0  0  0  0  0  0  0  0
   40.4180   26.7500   33.5330 C   0  0  0  0  0  0  0  0  0  0  0  0
   40.3010   27.0430   34.8720 C   0  0  0  0  0  0  0  0  0  0  0  0
   39.0580   26.9350   35.4310 C   0  0  0  0  0  0  0  0  0  0  0  0
   39.5350   26.1580   31.7520 H   0  0  0  0  0  0  0  0  0  0  0  0
   41.4050   26.8390   33.0990 H   0  0  0  0  0  0  0  0  0  0  0  0
   41.1540   27.3500   35.4690 H   0  0  0  0  0  0  0  0  0  0  0  0
   38.9440   27.1620   36.4840 H   0  0  0  0  0  0  0  0  0  0  0  0
  1  2  1  0  0  0  0
  1  4  1  0  0  0  0
  3  1  1  0  0  0  0
  4  7  1  0  0  0  0
  5  4  1  0  0  0  0
  6  4  1  0  0  0  0
  7 12  2  0  0  0  0
  7  8  1  0  0  0  0
  8  9  2  0  0  0  0
  9 10  1  0  0  0  0
  9 14  1  0  0  0  0
 11 15  1  0  0  0  0
 11 10  2  0  0  0  0
 12 11  1  0  0  0  0
 13  8  1  0  0  0  0
 15 16  1  0  0  0  0
 17 15  1  0  0  0  0
 18 15  1  0  0  0  0
 18 19  1  0  0  0  0
 19 21  2  0  0  0  0
 19 20  1  0  0  0  0
 22 21  1  0  0  0  0
 23 22  1  0  0  0  0
 24 22  2  0  0  0  0
 25 24  1  0  0  0  0
 26 24  1  0  0  0  0
 26 18  2  0  0  0  0
 27 32  1  0  0  0  0
 27  1  1  0  0  0  0
 28 29  1  0  0  0  0
 29 35  1  0  0  0  0
 29 30  2  0  0  0  0
 30 38  1  0  0  0  0
 31 30  1  0  0  0  0
 32 31  2  0  0  0  0
 33 28  2  0  0  0  0
 33 32  1  0  0  0  0
 34 28  1  0  0  0  0
 37 36  1  0  0  0  0
 37 42  1  0  0  0  0
 38 37  2  0  0  0  0
 39 38  1  0  0  0  0
 39 40  2  0  0  0  0
 40 41  1  0  0  0  0
 41 42  2  0  0  0  0
 41 45  1  0  0  0  0
 42 46  1  0  0  0  0
 43 39  1  0  0  0  0
 44 40  1  0  0  0  0
M  END
>  <minimizedAffinity>
-6.28322697

$$$$

 OpenBabel03272509593D

 46 49  0  0  0  0  0  0  0  0999 V2000
   37.5930   21.3510   31.0250 C   0  0  0  0  0  0  0  0  0  0  0  0
   37.4340   20.5680   30.2370 H   0  0  0  0  0  0  0  0  0  0  0  0
   38.2420   22.1060   30.5210 H   0  0  0  0  0  0  0  0  0  0  0  0
   36.2910   21.9190   31.5120 C   0  0  0  0  0  0  0  0  0  0  0  0
   35.4810   21.5240   30.8420 H   0  0  0  0  0  0  0  0  0  0  0  0
   36.0060   21.6180   32.5290 H   0  0  0  0  0  0  0  0  0  0  0  0
   36.2240   23.4020   31.3870 C   0  0  0  0  0  0  0  0  0  0  0  0
   35.0240   23.9570   30.9780 C   0  0  0  0  0  0  0  0  0  0  0  0
   34.8680   25.3150   30.8340 C   0  0  0  0  0  0  0  0  0  0  0  0
   35.9030   26.1190   31.0950 N   0  0  0  0  0  0  0  0  0  0  0  0
   37.0770   25.5530   31.4950 C   0  0  0  0  0  0  0  0  0  0  0  0
   37.2500   24.2340   31.6420 N   0  0  0  0  0  0  0  0  0  0  0  0
   34.1820   23.3030   30.7650 H   0  0  0  0  0  0  0  0  0  0  0  0
   33.8970   25.7140   30.5060 H   0  0  0  0  0  0  0  0  0  0  0  0
   38.2000   26.4990   31.7740 C   0  0  0  0  0  0  0  0  0  0  0  0
   38.0330   27.4080   31.1600 H   0  0  0  0  0  0  0  0  0  0  0  0
   39.1050   26.0160   31.3070 H   0  0  0  0  0  0  0  0  0  0  0  0
   38.3930   26.7900   33.1990 C   0  0  0  0  0  0  0  0  0  0  0  0
   39.6620   26.5330   33.7280 C   0  0  0  0  0  0  0  0  0  0  0  0
   40.4770   26.1360   33.1250 H   0  0  0  0  0  0  0  0  0  0  0  0
   39.9700   26.7650   35.0530 C   0  0  0  0  0  3  0  0  0  0  0  0
   38.9950   27.2670   35.8860 C   0  0  0  0  0  0  0  0  0  0  0  0
   39.1870   27.4690   36.9430 H   0  0  0  0  0  0  0  0  0  0  0  0
   37.7490   27.5210   35.3730 C   0  0  0  0  0  0  0  0  0  0  0  0
   36.9670   27.9080   35.9800 H   0  0  0  0  0  0  0  0  0  0  0  0
   37.4170   27.2930   34.0360 C   0  0  0  0  0  3  0  0  0  0  0  0
   38.3010   20.7370   32.0910 O   0  0  0  0  0  0  0  0  0  0  0  0
   41.3820   22.4100   32.9490 C   0  0  0  0  0  0  0  0  0  0  0  0
   41.0540   22.8950   34.2370 C   0  0  0  0  0  0  0  0  0  0  0  0
   39.7810   22.6120   34.7310 C   0  0  0  0  0  0  0  0  0  0  0  0
   38.9730   21.8860   33.9080 N   0  0  0  0  0  0  0  0  0  0  0  0
   39.2890   21.4320   32.6950 C   0  0  0  0  0  0  0  0  0  0  0  0
   40.5230   21.7070   32.2180 N   0  0  0  0  0  0  0  0  0  0  0  0
   42.3750   22.6500   32.6040 H   0  0  0  0  0  0  0  0  0  0  0  0
   41.6930   23.4630   34.8750 H   0  0  0  0  0  0  0  0  0  0  0  0
   40.9170   22.1150   37.3420 F   0  0  0  0  0  0  0  0  0  0  0  0
   39.7780   22.8060   37.2400 C   0  0  0  0  0  0  0  0  0  0  0  0
   39.2720   23.0230   36.0180 C   0  0  0  0  0  0  0  0  0  0  0  0
   38.0820   23.7550   36.0220 C   0  0  0  0  0  0  0  0  0  0  0  0
   37.4880   24.2070   37.1690 C   0  0  0  0  0  0  0  0  0  0  0  0
   38.0500   23.9570   38.3990 C   0  0  0  0  0  0  0  0  0  0  0  0
   39.2160   23.2420   38.4230 C   0  0  0  0  0  0  0  0  0  0  0  0
   37.5510   24.0110   35.1050 H   0  0  0  0  0  0  0  0  0  0  0  0
   36.5660   24.7720   37.1600 H   0  0  0  0  0  0  0  0  0  0  0  0
   37.5950   24.3070   39.3210 H   0  0  0  0  0  0  0  0  0  0  0  0
   39.6740   23.0340   39.3820 H   0  0  0  0  0  0  0  0  0  0  0  0
  1  4  1  0  0  0  0
  1 27  1  0  0  0  0
  2  1  1  0  0  0  0
  3  1  1  0  0  0  0
  4  6  1  0  0  0  0
  5  4  1  0  0  0  0
  7  4  1  0  0  0  0
  7 12  1  0  0  0  0
  8  7  2  0  0  0  0
  9  8  1  0  0  0  0
  9 10  2  0  0  0  0
 10 11  1  0  0  0  0
 11 12  2  0  0  0  0
 11 15  1  0  0  0  0
 13  8  1  0  0  0  0
 14  9  1  0  0  0  0
 15 18  1  0  0  0  0
 16 15  1  0  0  0  0
 17 15  1  0  0  0  0
 18 19  2  0  0  0  0
 18 26  1  0  0  0  0
 19 21  1  0  0  0  0
 20 19  1  0  0  0  0
 21 22  2  0  0  0  0
 22 23  1  0  0  0  0
 24 22  1  0  0  0  0
 24 25  1  0  0  0  0
 26 24  2  0  0  0  0
 27 32  1  0  0  0  0
 28 29  1  0  0  0  0
 29 30  2  0  0  0  0
 29 35  1  0  0  0  0
 30 38  1  0  0  0  0
 31 30  1  0  0  0  0
 32 31  2  0  0  0  0
 33 32  1  0  0  0  0
 33 28  2  0  0  0  0
 34 28  1  0  0  0  0
 37 36  1  0  0  0  0
 37 42  1  0  0  0  0
 38 39  1  0  0  0  0
 38 37  2  0  0  0  0
 39 40  2  0  0  0  0
 40 41  1  0  0  0  0
 41 42  2  0  0  0  0
 41 45  1  0  0  0  0
 42 46  1  0  0  0  0
 43 39  1  0  0  0  0
 44 40  1  0  0  0  0
M  END
>  <minimizedAffinity>
-6.24185324

$$$$

 OpenBabel03272509593D

 46 49  0  0  0  0  0  0  0  0999 V2000
   37.7790   26.8040   33.0570 C   0  0  0  0  0  0  0  0  0  0  0  0
   38.6780   27.0080   33.6970 H   0  0  0  0  0  0  0  0  0  0  0  0
   36.9250   26.8620   33.7720 H   0  0  0  0  0  0  0  0  0  0  0  0
   37.6720   27.7820   31.9230 C   0  0  0  0  0  0  0  0  0  0  0  0
   38.5770   28.4460   31.9650 H   0  0  0  0  0  0  0  0  0  0  0  0
   37.6810   27.3330   30.9210 H   0  0  0  0  0  0  0  0  0  0  0  0
   36.5020   28.6960   32.0570 C   0  0  0  0  0  0  0  0  0  0  0  0
   36.2860   29.6120   31.0420 C   0  0  0  0  0  0  0  0  0  0  0  0
   35.2340   30.4950   31.0790 C   0  0  0  0  0  0  0  0  0  0  0  0
   34.3980   30.4680   32.1220 N   0  0  0  0  0  0  0  0  0  0  0  0
   34.6280   29.5580   33.1120 C   0  0  0  0  0  0  0  0  0  0  0  0
   35.6470   28.6900   33.0950 N   0  0  0  0  0  0  0  0  0  0  0  0
   36.9660   29.6360   30.1940 H   0  0  0  0  0  0  0  0  0  0  0  0
   35.0980   31.2070   30.2510 H   0  0  0  0  0  0  0  0  0  0  0  0
   33.6640   29.5710   34.2520 C   0  0  0  0  0  0  0  0  0  0  0  0
   33.6040   28.5380   34.6530 H   0  0  0  0  0  0  0  0  0  0  0  0
   32.6560   29.7380   33.7750 H   0  0  0  0  0  0  0  0  0  0  0  0
   33.9700   30.5740   35.2790 C   0  0  0  0  0  0  0  0  0  0  0  0
   32.9350   30.9130   36.1560 C   0  0  0  0  0  0  0  0  0  0  0  0
   31.9440   30.4650   36.0920 H   0  0  0  0  0  0  0  0  0  0  0  0
   33.0960   31.8420   37.1640 C   0  0  0  0  0  3  0  0  0  0  0  0
   34.3200   32.4570   37.3140 C   0  0  0  0  0  0  0  0  0  0  0  0
   34.5000   33.1990   38.0960 H   0  0  0  0  0  0  0  0  0  0  0  0
   35.3380   32.1280   36.4580 C   0  0  0  0  0  0  0  0  0  0  0  0
   36.2980   32.5780   36.5370 H   0  0  0  0  0  0  0  0  0  0  0  0
   35.1950   31.1920   35.4310 C   0  0  0  0  0  3  0  0  0  0  0  0
   37.9080   25.4790   32.5640 O   0  0  0  0  0  0  0  0  0  0  0  0
   38.5470   23.3880   35.4350 C   0  0  0  0  0  0  0  0  0  0  0  0
   37.9850   22.1690   34.9890 C   0  0  0  0  0  0  0  0  0  0  0  0
   37.4160   22.1460   33.7150 C   0  0  0  0  0  0  0  0  0  0  0  0
   37.4630   23.3190   33.0240 N   0  0  0  0  0  0  0  0  0  0  0  0
   37.9950   24.4640   33.4510 C   0  0  0  0  0  0  0  0  0  0  0  0
   38.5460   24.4850   34.6850 N   0  0  0  0  0  0  0  0  0  0  0  0
   38.9760   23.3630   36.4250 H   0  0  0  0  0  0  0  0  0  0  0  0
   37.9530   21.2550   35.5380 H   0  0  0  0  0  0  0  0  0  0  0  0
   35.2480   20.5230   34.7250 F   0  0  0  0  0  0  0  0  0  0  0  0
   35.7950   20.2300   33.5410 C   0  0  0  0  0  0  0  0  0  0  0  0
   36.7980   20.9980   33.0950 C   0  0  0  0  0  0  0  0  0  0  0  0
   37.2970   20.6080   31.8500 C   0  0  0  0  0  0  0  0  0  0  0  0
   36.8050   19.5390   31.1520 C   0  0  0  0  0  0  0  0  0  0  0  0
   35.7720   18.7830   31.6550 C   0  0  0  0  0  0  0  0  0  0  0  0
   35.2660   19.1440   32.8730 C   0  0  0  0  0  0  0  0  0  0  0  0
   38.1130   21.1350   31.3570 H   0  0  0  0  0  0  0  0  0  0  0  0
   37.1990   19.2450   30.1870 H   0  0  0  0  0  0  0  0  0  0  0  0
   35.3680   17.9320   31.1160 H   0  0  0  0  0  0  0  0  0  0  0  0
   34.4520   18.5610   33.2870 H   0  0  0  0  0  0  0  0  0  0  0  0
  1  2  1  0  0  0  0
  1  3  1  0  0  0  0
  4  5  1  0  0  0  0
  4  7  1  0  0  0  0
  4  1  1  0  0  0  0
  6  4  1  0  0  0  0
  7 12  1  0  0  0  0
  8  9  1  0  0  0  0
  8  7  2  0  0  0  0
  9 10  2  0  0  0  0
 10 11  1  0  0  0  0
 11 15  1  0  0  0  0
 12 11  2  0  0  0  0
 13  8  1  0  0  0  0
 14  9  1  0  0  0  0
 15 16  1  0  0  0  0
 15 18  1  0  0  0  0
 17 15  1  0  0  0  0
 18 26  2  0  0  0  0
 18 19  1  0  0  0  0
 19 21  2  0  0  0  0
 20 19  1  0  0  0  0
 21 22  1  0  0  0  0
 22 23  1  0  0  0  0
 24 25  1  0  0  0  0
 24 22  2  0  0  0  0
 26 24  1  0  0  0  0
 27  1  1  0  0  0  0
 27 32  1  0  0  0  0
 28 34  1  0  0  0  0
 29 28  1  0  0  0  0
 29 35  1  0  0  0  0
 30 29  2  0  0  0  0
 31 32  2  0  0  0  0
 31 30  1  0  0  0  0
 32 33  1  0  0  0  0
 33 28  2  0  0  0  0
 37 36  1  0  0  0  0
 38 37  1  0  0  0  0
 38 30  1  0  0  0  0
 39 38  2  0  0  0  0
 40 41  2  0  0  0  0
 40 39  1  0  0  0  0
 41 42  1  0  0  0  0
 42 46  1  0  0  0  0
 42 37  2  0  0  0  0
 43 39  1  0  0  0  0
 44 40  1  0  0  0  0
 45 41  1  0  0  0  0
M  END
>  <minimizedAffinity>
-6.23896027

$$$$

 OpenBabel03272509593D

 46 49  0  0  0  0  0  0  0  0999 V2000
   37.4190   25.7580   31.0310 C   0  0  0  0  0  0  0  0  0  0  0  0
   38.3530   25.3080   31.4610 H   0  0  0  0  0  0  0  0  0  0  0  0
   37.6890   25.9640   29.9680 H   0  0  0  0  0  0  0  0  0  0  0  0
   36.2420   24.8370   31.1760 C   0  0  0  0  0  0  0  0  0  0  0  0
   35.4610   25.3820   31.7720 H   0  0  0  0  0  0  0  0  0  0  0  0
   35.7530   24.5580   30.2330 H   0  0  0  0  0  0  0  0  0  0  0  0
   36.5600   23.6120   31.9630 C   0  0  0  0  0  0  0  0  0  0  0  0
   35.6370   22.5810   31.9440 C   0  0  0  0  0  0  0  0  0  0  0  0
   35.8440   21.4140   32.6390 C   0  0  0  0  0  0  0  0  0  0  0  0
   36.9660   21.2710   33.3510 N   0  0  0  0  0  0  0  0  0  0  0  0
   37.8630   22.2990   33.3580 C   0  0  0  0  0  0  0  0  0  0  0  0
   37.6800   23.4430   32.6880 N   0  0  0  0  0  0  0  0  0  0  0  0
   34.7240   22.6970   31.3650 H   0  0  0  0  0  0  0  0  0  0  0  0
   35.0840   20.6190   32.5960 H   0  0  0  0  0  0  0  0  0  0  0  0
   39.0990   22.0860   34.1690 C   0  0  0  0  0  0  0  0  0  0  0  0
   39.9540   22.4970   33.5930 H   0  0  0  0  0  0  0  0  0  0  0  0
   39.2670   20.9720   34.1500 H   0  0  0  0  0  0  0  0  0  0  0  0
   39.0130   22.6170   35.5350 C   0  0  0  0  0  0  0  0  0  0  0  0
   39.9890   22.1880   36.4390 C   0  0  0  0  0  0  0  0  0  0  0  0
   40.7800   21.4930   36.1600 H   0  0  0  0  0  0  0  0  0  0  0  0
   40.0170   22.6140   37.7520 C   0  0  0  0  0  3  0  0  0  0  0  0
   39.0510   23.4940   38.1880 C   0  0  0  0  0  0  0  0  0  0  0  0
   39.0290   23.8630   39.2160 H   0  0  0  0  0  0  0  0  0  0  0  0
   38.0920   23.9190   37.3050 C   0  0  0  0  0  0  0  0  0  0  0  0
   37.3280   24.5960   37.5990 H   0  0  0  0  0  0  0  0  0  0  0  0
   38.0450   23.4990   35.9740 C   0  0  0  0  0  3  0  0  0  0  0  0
   37.1870   26.9790   31.7160 O   0  0  0  0  0  0  0  0  0  0  0  0
   37.4640   27.5310   35.2720 C   0  0  0  0  0  0  0  0  0  0  0  0
   38.8270   27.2090   35.4710 C   0  0  0  0  0  0  0  0  0  0  0  0
   39.5710   26.8200   34.3560 C   0  0  0  0  0  0  0  0  0  0  0  0
   38.8940   26.7890   33.1740 N   0  0  0  0  0  0  0  0  0  0  0  0
   37.6080   27.0930   32.9950 C   0  0  0  0  0  0  0  0  0  0  0  0
   36.8900   27.4710   34.0750 N   0  0  0  0  0  0  0  0  0  0  0  0
   36.9260   27.8260   36.1590 H   0  0  0  0  0  0  0  0  0  0  0  0
   39.3500   27.2360   36.4010 H   0  0  0  0  0  0  0  0  0  0  0  0
   41.7770   28.1750   33.0720 F   0  0  0  0  0  0  0  0  0  0  0  0
   42.0070   27.0660   33.7800 C   0  0  0  0  0  0  0  0  0  0  0  0
   40.9680   26.4570   34.3670 C   0  0  0  0  0  0  0  0  0  0  0  0
   41.3160   25.3090   35.0830 C   0  0  0  0  0  0  0  0  0  0  0  0
   42.6020   24.8510   35.1760 C   0  0  0  0  0  0  0  0  0  0  0  0
   43.6340   25.5150   34.5550 C   0  0  0  0  0  0  0  0  0  0  0  0
   43.3190   26.6410   33.8470 C   0  0  0  0  0  0  0  0  0  0  0  0
   40.5800   24.7070   35.6140 H   0  0  0  0  0  0  0  0  0  0  0  0
   42.8610   23.9600   35.7330 H   0  0  0  0  0  0  0  0  0  0  0  0
   44.6610   25.1670   34.6170 H   0  0  0  0  0  0  0  0  0  0  0  0
   44.1180   27.1790   33.3500 H   0  0  0  0  0  0  0  0  0  0  0  0
  1  4  1  0  0  0  0
  1  2  1  0  0  0  0
  1 27  1  0  0  0  0
  3  1  1  0  0  0  0
  4  5  1  0  0  0  0
  4  7  1  0  0  0  0
  6  4  1  0  0  0  0
  7 12  1  0  0  0  0
  8  7  2  0  0  0  0
  8  9  1  0  0  0  0
  9 10  2  0  0  0  0
 10 11  1  0  0  0  0
 11 15  1  0  0  0  0
 12 11  2  0  0  0  0
 13  8  1  0  0  0  0
 14  9  1  0  0  0  0
 15 18  1  0  0  0  0
 16 15  1  0  0  0  0
 17 15  1  0  0  0  0
 18 26  2  0  0  0  0
 18 19  1  0  0  0  0
 19 21  2  0  0  0  0
 20 19  1  0  0  0  0
 21 22  1  0  0  0  0
 22 23  1  0  0  0  0
 24 25  1  0  0  0  0
 24 22  2  0  0  0  0
 26 24  1  0  0  0  0
 27 32  1  0  0  0  0
 28 29  1  0  0  0  0
 28 34  1  0  0  0  0
 29 35  1  0  0  0  0
 30 38  1  0  0  0  0
 30 29  2  0  0  0  0
 31 30  1  0  0  0  0
 32 31  2  0  0  0  0
 32 33  1  0  0  0  0
 33 28  2  0  0  0  0
 36 37  1  0  0  0  0
 37 42  2  0  0  0  0
 37 38  1  0  0  0  0
 38 39  2  0  0  0  0
 39 40  1  0  0  0  0
 39 43  1  0  0  0  0
 40 44  1  0  0  0  0
 41 45  1  0  0  0  0
 41 40  2  0  0  0  0
 42 41  1  0  0  0  0
 46 42  1  0  0  0  0
M  END
>  <minimizedAffinity>
-6.14337111

$$$$

 OpenBabel03272509593D

 46 49  0  0  0  0  0  0  0  0999 V2000
   37.4880   22.5140   30.9550 C   0  0  0  0  0  0  0  0  0  0  0  0
   38.4210   22.6430   31.5660 H   0  0  0  0  0  0  0  0  0  0  0  0
   37.8610   22.1250   29.9790 H   0  0  0  0  0  0  0  0  0  0  0  0
   36.5090   21.5930   31.6250 C   0  0  0  0  0  0  0  0  0  0  0  0
   35.4800   22.0010   31.4340 H   0  0  0  0  0  0  0  0  0  0  0  0
   36.4980   20.5660   31.2360 H   0  0  0  0  0  0  0  0  0  0  0  0
   36.6590   21.5700   33.1080 C   0  0  0  0  0  0  0  0  0  0  0  0
   35.6860   20.9120   33.8400 C   0  0  0  0  0  0  0  0  0  0  0  0
   35.7400   20.8390   35.2110 C   0  0  0  0  0  0  0  0  0  0  0  0
   36.7590   21.4190   35.8530 N   0  0  0  0  0  0  0  0  0  0  0  0
   37.7060   22.0640   35.1150 C   0  0  0  0  0  0  0  0  0  0  0  0
   37.6720   22.1460   33.7790 N   0  0  0  0  0  0  0  0  0  0  0  0
   34.8570   20.4400   33.3180 H   0  0  0  0  0  0  0  0  0  0  0  0
   34.9460   20.3050   35.7540 H   0  0  0  0  0  0  0  0  0  0  0  0
   38.8210   22.6930   35.8830 C   0  0  0  0  0  0  0  0  0  0  0  0
   39.7590   22.1670   35.6080 H   0  0  0  0  0  0  0  0  0  0  0  0
   38.6410   22.3880   36.9530 H   0  0  0  0  0  0  0  0  0  0  0  0
   38.9070   24.1500   35.7230 C   0  0  0  0  0  0  0  0  0  0  0  0
   40.0170   24.6420   35.0290 C   0  0  0  0  0  0  0  0  0  0  0  0
   40.7890   23.9910   34.6230 H   0  0  0  0  0  0  0  0  0  0  0  0
   40.2120   25.9910   34.8120 C   0  0  0  0  0  3  0  0  0  0  0  0
   39.2810   26.8860   35.2940 C   0  0  0  0  0  0  0  0  0  0  0  0
   39.3880   27.9630   35.1480 H   0  0  0  0  0  0  0  0  0  0  0  0
   38.1910   26.4080   35.9740 C   0  0  0  0  0  0  0  0  0  0  0  0
   37.4490   27.0630   36.3630 H   0  0  0  0  0  0  0  0  0  0  0  0
   37.9750   25.0480   36.2050 C   0  0  0  0  0  3  0  0  0  0  0  0
   36.9210   23.8030   30.7780 O   0  0  0  0  0  0  0  0  0  0  0  0
   39.6430   26.1440   31.1520 C   0  0  0  0  0  0  0  0  0  0  0  0
   38.9330   27.2880   31.5830 C   0  0  0  0  0  0  0  0  0  0  0  0
   37.5490   27.1790   31.7190 C   0  0  0  0  0  0  0  0  0  0  0  0
   37.0170   25.9620   31.4160 N   0  0  0  0  0  0  0  0  0  0  0  0
   37.6940   24.8870   31.0100 C   0  0  0  0  0  0  0  0  0  0  0  0
   39.0350   24.9940   30.8800 N   0  0  0  0  0  0  0  0  0  0  0  0
   40.7100   26.2700   31.0600 H   0  0  0  0  0  0  0  0  0  0  0  0
   39.3570   28.2390   31.8190 H   0  0  0  0  0  0  0  0  0  0  0  0
   36.2290   29.1680   30.0890 F   0  0  0  0  0  0  0  0  0  0  0  0
   36.0410   29.1690   31.4120 C   0  0  0  0  0  0  0  0  0  0  0  0
   36.6630   28.2370   32.1450 C   0  0  0  0  0  0  0  0  0  0  0  0
   36.3990   28.3260   33.5140 C   0  0  0  0  0  0  0  0  0  0  0  0
   35.5790   29.2790   34.0540 C   0  0  0  0  0  0  0  0  0  0  0  0
   34.9630   30.2140   33.2560 C   0  0  0  0  0  0  0  0  0  0  0  0
   35.2060   30.1480   31.9120 C   0  0  0  0  0  0  0  0  0  0  0  0
   36.8330   27.6380   34.2380 H   0  0  0  0  0  0  0  0  0  0  0  0
   35.3820   29.3390   35.1170 H   0  0  0  0  0  0  0  0  0  0  0  0
   34.3090   30.9780   33.6650 H   0  0  0  0  0  0  0  0  0  0  0  0
   34.7300   30.8760   31.2650 H   0  0  0  0  0  0  0  0  0  0  0  0
  1  2  1  0  0  0  0
  1  4  1  0  0  0  0
  3  1  1  0  0  0  0
  4  7  1  0  0  0  0
  5  4  1  0  0  0  0
  6  4  1  0  0  0  0
  7 12  2  0  0  0  0
  7  8  1  0  0  0  0
  8  9  2  0  0  0  0
  9 14  1  0  0  0  0
  9 10  1  0  0  0  0
 11 10  2  0  0  0  0
 11 15  1  0  0  0  0
 12 11  1  0  0  0  0
 13  8  1  0  0  0  0
 15 17  1  0  0  0  0
 16 15  1  0  0  0  0
 18 15  1  0  0  0  0
 18 26  1  0  0  0  0
 19 18  2  0  0  0  0
 20 19  1  0  0  0  0
 21 19  1  0  0  0  0
 21 22  2  0  0  0  0
 22 24  1  0  0  0  0
 23 22  1  0  0  0  0
 24 26  2  0  0  0  0
 24 25  1  0  0  0  0
 27  1  1  0  0  0  0
 27 32  1  0  0  0  0
 28 29  1  0  0  0  0
 29 30  2  0  0  0  0
 29 35  1  0  0  0  0
 30 38  1  0  0  0  0
 31 30  1  0  0  0  0
 32 31  2  0  0  0  0
 33 32  1  0  0  0  0
 33 28  2  0  0  0  0
 34 28  1  0  0  0  0
 36 37  1  0  0  0  0
 37 42  2  0  0  0  0
 37 38  1  0  0  0  0
 38 39  2  0  0  0  0
 39 40  1  0  0  0  0
 39 43  1  0  0  0  0
 40 44  1  0  0  0  0
 41 45  1  0  0  0  0
 41 40  2  0  0  0  0
 42 41  1  0  0  0  0
 46 42  1  0  0  0  0
M  END
>  <minimizedAffinity>
-6.09885788

$$$$
