
 OpenBabel03272509403D

 35 37  0  0  0  0  0  0  0  0999 V2000
   37.0280   30.9450   49.0680 C   0  0  0  0  0  0  0  0  0  0  0  0
   36.7810   31.8540   50.1020 C   0  0  0  0  0  0  0  0  0  0  0  0
   37.3900   33.0930   50.1490 C   0  0  0  0  0  0  0  0  0  0  0  0
   38.2850   33.4660   49.1380 C   0  0  0  0  0  0  0  0  0  0  0  0
   38.5130   32.5600   48.1320 C   0  0  0  0  0  0  0  0  0  0  0  0
   37.8920   31.3240   48.1050 C   0  0  0  0  0  0  0  0  0  0  0  0
   36.1010   31.6230   50.9110 H   0  0  0  0  0  0  0  0  0  0  0  0
   37.1870   33.7790   50.9560 H   0  0  0  0  0  0  0  0  0  0  0  0
   38.7470   34.4400   49.2000 H   0  0  0  0  0  0  0  0  0  0  0  0
   39.2150   32.9280   47.3940 H   0  0  0  0  0  0  0  0  0  0  0  0
   36.3420   29.6660   49.1020 C   0  0  0  0  0  0  0  0  0  0  0  0
   36.8710   28.7950   49.8790 O   0  0  0  0  0  0  0  0  0  0  0  0
   33.5810   30.1800   46.8100 C   0  0  0  0  0  0  0  0  0  0  0  0
   32.9020   28.9580   46.8120 C   0  0  0  0  0  0  0  0  0  0  0  0
   33.3970   27.9560   47.6070 C   0  0  0  0  0  0  0  0  0  0  0  0
   34.5160   28.1750   48.3570 N   0  0  0  0  0  0  0  0  0  0  0  0
   35.1380   29.3390   48.3350 C   0  0  0  0  0  0  0  0  0  0  0  0
   34.6590   30.3210   47.5610 N   0  0  0  0  0  0  0  0  0  0  0  0
   33.1420   30.9250   46.1660 H   0  0  0  0  0  0  0  0  0  0  0  0
   32.0290   28.6880   46.2700 H   0  0  0  0  0  0  0  0  0  0  0  0
   32.9630   26.9740   47.6930 H   0  0  0  0  0  0  0  0  0  0  0  0
   38.2460   30.4970   46.9800 C   0  0  0  0  0  3  0  0  0  0  0  0
   38.9780   30.8550   45.9350 C   0  0  0  0  0  3  0  0  0  0  0  0
   39.4080   30.1140   44.7350 C   0  0  0  0  0  0  0  0  0  0  0  0
   40.5030   30.0090   44.6490 H   0  0  0  0  0  0  0  0  0  0  0  0
   39.0090   29.0780   44.8160 H   0  0  0  0  0  0  0  0  0  0  0  0
   38.8010   30.6870   43.4870 C   0  0  0  0  0  0  0  0  0  0  0  0
   38.4390   32.0160   43.4420 C   0  0  0  0  0  0  0  0  0  0  0  0
   38.5740   32.6900   44.2840 H   0  0  0  0  0  0  0  0  0  0  0  0
   37.8720   32.5710   42.2900 C   0  0  0  0  0  3  0  0  0  0  0  0
   37.7240   31.6720   41.2500 C   0  0  0  0  0  0  0  0  0  0  0  0
   37.2810   32.0880   40.3410 H   0  0  0  0  0  0  0  0  0  0  0  0
   38.0560   30.3510   41.2220 C   0  0  0  0  0  0  0  0  0  0  0  0
   37.8830   29.7590   40.3330 H   0  0  0  0  0  0  0  0  0  0  0  0
   38.6160   29.8760   42.4110 C   0  0  0  0  0  3  0  0  0  0  0  0
  1 11  1  0  0  0  0
  1  2  1  0  0  0  0
  2  3  2  0  0  0  0
  2  7  1  0  0  0  0
  3  8  1  0  0  0  0
  4  9  1  0  0  0  0
  4  3  1  0  0  0  0
  5  4  2  0  0  0  0
  6  5  1  0  0  0  0
  6  1  2  0  0  0  0
 10  5  1  0  0  0  0
 11 12  2  0  0  0  0
 13 14  2  0  0  0  0
 13 18  1  0  0  0  0
 14 15  1  0  0  0  0
 15 21  1  0  0  0  0
 15 16  2  0  0  0  0
 17 16  1  0  0  0  0
 17 11  1  0  0  0  0
 18 17  2  0  0  0  0
 19 13  1  0  0  0  0
 20 14  1  0  0  0  0
 22  6  1  0  0  0  0
 23 22  2  0  0  0  0
 24 26  1  0  0  0  0
 24 23  1  0  0  0  0
 25 24  1  0  0  0  0
 27 24  1  0  0  0  0
 28 27  1  0  0  0  0
 28 29  1  0  0  0  0
 30 28  2  0  0  0  0
 31 30  1  0  0  0  0
 32 31  1  0  0  0  0
 33 31  2  0  0  0  0
 33 35  1  0  0  0  0
 34 33  1  0  0  0  0
 35 27  2  0  0  0  0
M  END
>  <minimizedAffinity>
-5.71351433

>  <minimizedRMSD>
0.480724514

$$$$
