
 OpenBabel03272506403D

 37 39  0  0  1  0  0  0  0  0999 V2000
   37.2190   27.8760   35.4680 O   0  0  0  0  0  0  0  0  0  0  0  0
   36.9090   27.7610   34.2750 C   0  0  0  0  0  0  0  0  0  0  0  0
   37.5490   26.7940   33.4100 C   0  0  2  0  0  0  0  0  0  0  0  0
   36.6910   26.9280   32.1160 C   0  0  0  0  0  0  0  0  0  0  0  0
   36.1580   28.3170   32.1920 C   0  0  0  0  0  0  0  0  0  0  0  0
   35.9070   28.5430   33.6100 N   0  0  0  0  0  0  0  0  0  0  0  0
   38.5950   27.0100   33.1540 H   0  0  0  0  0  0  0  0  0  0  0  0
   37.4140   26.8600   31.2830 H   0  0  0  0  0  0  0  0  0  0  0  0
   35.9260   26.1480   32.0780 H   0  0  0  0  0  0  0  0  0  0  0  0
   35.1740   28.3490   31.6630 H   0  0  0  0  0  0  0  0  0  0  0  0
   36.7960   29.0800   31.7490 H   0  0  0  0  0  0  0  0  0  0  0  0
   34.8680   29.3790   34.1940 C   0  0  0  0  0  0  0  0  0  0  0  0
   34.6410   28.9450   35.1900 H   0  0  0  0  0  0  0  0  0  0  0  0
   33.9530   29.4400   33.6050 H   0  0  0  0  0  0  0  0  0  0  0  0
   35.4910   30.7320   34.4070 C   0  0  0  0  0  0  0  0  0  0  0  0
   35.6630   31.5530   33.2950 C   0  0  0  0  0  0  0  0  0  0  0  0
   35.3600   31.2320   32.3130 H   0  0  0  0  0  0  0  0  0  0  0  0
   36.2230   32.8140   33.3670 C   0  0  0  0  0  3  0  0  0  0  0  0
   36.6360   33.2900   34.6080 C   0  0  0  0  0  0  0  0  0  0  0  0
   37.0770   34.2610   34.7280 H   0  0  0  0  0  0  0  0  0  0  0  0
   36.4590   32.4670   35.6940 C   0  0  0  0  0  0  0  0  0  0  0  0
   36.7920   32.8640   36.6630 H   0  0  0  0  0  0  0  0  0  0  0  0
   35.9020   31.2100   35.6330 C   0  0  0  0  0  3  0  0  0  0  0  0
   37.4070   25.4370   33.8340 O   0  0  0  0  0  0  0  0  0  0  0  0
   38.4710   24.8690   34.5340 C   0  0  0  0  0  0  0  0  0  0  0  0
   39.7440   25.1440   34.0690 C   0  0  0  0  0  0  0  0  0  0  0  0
   40.8220   24.5930   34.7450 C   0  0  0  0  0  0  0  0  0  0  0  0
   40.5830   23.8090   35.8310 N   0  0  0  0  0  0  0  0  0  0  0  0
   39.3410   23.5500   36.2700 C   0  0  0  0  0  0  0  0  0  0  0  0
   38.3100   24.0810   35.6200 N   0  0  0  0  0  0  0  0  0  0  0  0
   38.4340   23.3960   38.4550 C   0  0  0  0  0  0  0  0  0  0  0  0
   38.0130   24.5900   38.4740 O   0  0  0  0  0  0  0  0  0  0  0  0
   39.1270   22.7220   37.4080 N   0  0  0  0  0  0  0  0  0  0  0  0
   39.9280   25.7680   33.2070 H   0  0  0  0  0  0  0  0  0  0  0  0
   41.8250   24.7930   34.4030 H   0  0  0  0  0  0  0  0  0  0  0  0
   38.1600   22.9680   39.4120 H   0  0  0  0  0  0  0  0  0  0  0  0
   39.3970   21.7270   37.5790 H   0  0  0  0  0  0  0  0  0  0  0  0
  2  1  2  0  0  0  0
  3  7  1  6  0  0  0
  3 24  1  0  0  0  0
  3  2  1  0  0  0  0
  4  5  1  0  0  0  0
  4  3  1  0  0  0  0
  5  6  1  0  0  0  0
  6 12  1  0  0  0  0
  6  2  1  0  0  0  0
  8  4  1  0  0  0  0
  9  4  1  0  0  0  0
 10  5  1  0  0  0  0
 11  5  1  0  0  0  0
 12 15  1  0  0  0  0
 12 13  1  0  0  0  0
 14 12  1  0  0  0  0
 15 23  1  0  0  0  0
 16 18  1  0  0  0  0
 16 15  2  0  0  0  0
 17 16  1  0  0  0  0
 18 19  2  0  0  0  0
 19 20  1  0  0  0  0
 19 21  1  0  0  0  0
 21 22  1  0  0  0  0
 23 21  2  0  0  0  0
 24 25  1  0  0  0  0
 25 30  1  0  0  0  0
 26 25  2  0  0  0  0
 26 27  1  0  0  0  0
 27 28  2  0  0  0  0
 28 29  1  0  0  0  0
 29 33  1  0  0  0  0
 30 29  2  0  0  0  0
 31 32  2  0  0  0  0
 31 36  1  0  0  0  0
 33 37  1  0  0  0  0
 33 31  1  0  0  0  0
 34 26  1  0  0  0  0
 35 27  1  0  0  0  0
M  END
>  <minimizedAffinity>
-5.82780409

$$$$

 OpenBabel03272506403D

 37 39  0  0  1  0  0  0  0  0999 V2000
   36.6580   25.1350   32.5700 O   0  0  0  0  0  0  0  0  0  0  0  0
   37.5840   25.6210   33.2330 C   0  0  0  0  0  0  0  0  0  0  0  0
   37.8300   27.0460   33.2710 C   0  0  2  0  0  0  0  0  0  0  0  0
   38.9440   27.1350   34.3580 C   0  0  0  0  0  0  0  0  0  0  0  0
   39.5960   25.7960   34.3000 C   0  0  0  0  0  0  0  0  0  0  0  0
   38.5080   24.8630   34.0280 N   0  0  0  0  0  0  0  0  0  0  0  0
   38.2200   27.4820   32.3420 H   0  0  0  0  0  0  0  0  0  0  0  0
   39.6490   27.8990   33.9850 H   0  0  0  0  0  0  0  0  0  0  0  0
   38.5140   27.3900   35.3300 H   0  0  0  0  0  0  0  0  0  0  0  0
   40.0030   25.5560   35.3120 H   0  0  0  0  0  0  0  0  0  0  0  0
   40.4130   25.7120   33.5870 H   0  0  0  0  0  0  0  0  0  0  0  0
   38.4070   23.4800   34.4720 C   0  0  0  0  0  0  0  0  0  0  0  0
   39.2940   22.9550   34.0590 H   0  0  0  0  0  0  0  0  0  0  0  0
   37.4990   22.9690   34.1540 H   0  0  0  0  0  0  0  0  0  0  0  0
   38.5410   23.5110   35.9700 C   0  0  0  0  0  0  0  0  0  0  0  0
   39.6150   22.8350   36.5430 C   0  0  0  0  0  0  0  0  0  0  0  0
   40.3290   22.3070   35.9340 H   0  0  0  0  0  0  0  0  0  0  0  0
   39.8410   22.7930   37.9050 C   0  0  0  0  0  3  0  0  0  0  0  0
   38.9550   23.4570   38.7490 C   0  0  0  0  0  0  0  0  0  0  0  0
   39.0780   23.4610   39.8150 H   0  0  0  0  0  0  0  0  0  0  0  0
   37.9000   24.1180   38.1660 C   0  0  0  0  0  0  0  0  0  0  0  0
   37.2140   24.6340   38.8520 H   0  0  0  0  0  0  0  0  0  0  0  0
   37.6670   24.1660   36.8120 C   0  0  0  0  0  3  0  0  0  0  0  0
   36.7380   27.8200   33.7690 O   0  0  0  0  0  0  0  0  0  0  0  0
   36.1300   28.7130   32.8860 C   0  0  0  0  0  0  0  0  0  0  0  0
   36.7670   28.9310   31.6790 C   0  0  0  0  0  0  0  0  0  0  0  0
   36.1860   29.8130   30.7810 C   0  0  0  0  0  0  0  0  0  0  0  0
   35.0200   30.4240   31.1240 N   0  0  0  0  0  0  0  0  0  0  0  0
   34.4130   30.2030   32.3000 C   0  0  0  0  0  0  0  0  0  0  0  0
   34.9730   29.3560   33.1580 N   0  0  0  0  0  0  0  0  0  0  0  0
   32.1290   29.9530   32.8810 C   0  0  0  0  0  0  0  0  0  0  0  0
   32.1540   28.6870   32.8460 O   0  0  0  0  0  0  0  0  0  0  0  0
   33.1950   30.8630   32.6280 N   0  0  0  0  0  0  0  0  0  0  0  0
   37.6930   28.4430   31.4110 H   0  0  0  0  0  0  0  0  0  0  0  0
   36.6640   30.0000   29.8320 H   0  0  0  0  0  0  0  0  0  0  0  0
   31.1140   30.2230   33.1490 H   0  0  0  0  0  0  0  0  0  0  0  0
   32.9800   31.8830   32.7070 H   0  0  0  0  0  0  0  0  0  0  0  0
  1  2  2  0  0  0  0
  2  3  1  0  0  0  0
  2  6  1  0  0  0  0
  3  7  1  6  0  0  0
  3 24  1  0  0  0  0
  3  4  1  0  0  0  0
  4  9  1  0  0  0  0
  5  4  1  0  0  0  0
  5 10  1  0  0  0  0
  6  5  1  0  0  0  0
  6 12  1  0  0  0  0
  8  4  1  0  0  0  0
 11  5  1  0  0  0  0
 12 15  1  0  0  0  0
 13 12  1  0  0  0  0
 14 12  1  0  0  0  0
 15 16  2  0  0  0  0
 15 23  1  0  0  0  0
 16 18  1  0  0  0  0
 17 16  1  0  0  0  0
 18 19  2  0  0  0  0
 19 20  1  0  0  0  0
 21 19  1  0  0  0  0
 21 22  1  0  0  0  0
 23 21  2  0  0  0  0
 25 30  1  0  0  0  0
 25 24  1  0  0  0  0
 26 25  2  0  0  0  0
 27 28  2  0  0  0  0
 27 26  1  0  0  0  0
 28 29  1  0  0  0  0
 29 33  1  0  0  0  0
 29 30  2  0  0  0  0
 31 36  1  0  0  0  0
 32 31  2  0  0  0  0
 33 37  1  0  0  0  0
 33 31  1  0  0  0  0
 34 26  1  0  0  0  0
 35 27  1  0  0  0  0
M  END
>  <minimizedAffinity>
-5.67209244

$$$$

 OpenBabel03272506403D

 37 39  0  0  1  0  0  0  0  0999 V2000
   38.6500   24.1580   31.1490 O   0  0  0  0  0  0  0  0  0  0  0  0
   37.5020   24.6220   31.1600 C   0  0  0  0  0  0  0  0  0  0  0  0
   36.3330   23.7700   31.1790 C   0  0  2  0  0  0  0  0  0  0  0  0
   35.1950   24.8170   31.3720 C   0  0  0  0  0  0  0  0  0  0  0  0
   35.7710   26.0680   30.8030 C   0  0  0  0  0  0  0  0  0  0  0  0
   37.1850   26.0220   31.1550 N   0  0  0  0  0  0  0  0  0  0  0  0
   36.1380   23.2160   30.2520 H   0  0  0  0  0  0  0  0  0  0  0  0
   34.3700   24.4680   30.7250 H   0  0  0  0  0  0  0  0  0  0  0  0
   34.9090   24.8860   32.4260 H   0  0  0  0  0  0  0  0  0  0  0  0
   35.3170   26.9400   31.3320 H   0  0  0  0  0  0  0  0  0  0  0  0
   35.6060   26.2060   29.7360 H   0  0  0  0  0  0  0  0  0  0  0  0
   38.0560   27.1550   31.4330 C   0  0  0  0  0  0  0  0  0  0  0  0
   37.4950   28.0620   31.1260 H   0  0  0  0  0  0  0  0  0  0  0  0
   39.0140   27.1250   30.9130 H   0  0  0  0  0  0  0  0  0  0  0  0
   38.2270   27.1950   32.9270 C   0  0  0  0  0  0  0  0  0  0  0  0
   39.4910   26.9280   33.4470 C   0  0  0  0  0  0  0  0  0  0  0  0
   40.3220   26.7020   32.8010 H   0  0  0  0  0  0  0  0  0  0  0  0
   39.7680   26.9360   34.8000 C   0  0  0  0  0  3  0  0  0  0  0  0
   38.7380   27.2240   35.6900 C   0  0  0  0  0  0  0  0  0  0  0  0
   38.8910   27.2450   36.7520 H   0  0  0  0  0  0  0  0  0  0  0  0
   37.4960   27.4830   35.1600 C   0  0  0  0  0  0  0  0  0  0  0  0
   36.6990   27.7080   35.8810 H   0  0  0  0  0  0  0  0  0  0  0  0
   37.2100   27.4780   33.8140 C   0  0  0  0  0  3  0  0  0  0  0  0
   36.2570   22.8990   32.3080 O   0  0  0  0  0  0  0  0  0  0  0  0
   36.1760   21.5290   32.0580 C   0  0  0  0  0  0  0  0  0  0  0  0
   34.9400   20.9340   32.2290 C   0  0  0  0  0  0  0  0  0  0  0  0
   34.8280   19.5740   31.9870 C   0  0  0  0  0  0  0  0  0  0  0  0
   35.9330   18.8850   31.5950 N   0  0  0  0  0  0  0  0  0  0  0  0
   37.1270   19.4760   31.4330 C   0  0  0  0  0  0  0  0  0  0  0  0
   37.2300   20.7810   31.6650 N   0  0  0  0  0  0  0  0  0  0  0  0
   38.8250   19.1970   29.8030 C   0  0  0  0  0  0  0  0  0  0  0  0
   38.4350   20.1640   29.0840 O   0  0  0  0  0  0  0  0  0  0  0  0
   38.2650   18.7230   31.0240 N   0  0  0  0  0  0  0  0  0  0  0  0
   34.0650   21.4860   32.5410 H   0  0  0  0  0  0  0  0  0  0  0  0
   33.8740   19.0860   32.1140 H   0  0  0  0  0  0  0  0  0  0  0  0
   39.6910   18.7830   29.3010 H   0  0  0  0  0  0  0  0  0  0  0  0
   38.7290   17.9040   31.4760 H   0  0  0  0  0  0  0  0  0  0  0  0
  1  2  2  0  0  0  0
  2  3  1  0  0  0  0
  3  7  1  6  0  0  0
  3  4  1  0  0  0  0
  3 24  1  0  0  0  0
  4  9  1  0  0  0  0
  5  6  1  0  0  0  0
  5 10  1  0  0  0  0
  5  4  1  0  0  0  0
  6  2  1  0  0  0  0
  6 12  1  0  0  0  0
  8  4  1  0  0  0  0
 11  5  1  0  0  0  0
 12 15  1  0  0  0  0
 13 12  1  0  0  0  0
 14 12  1  0  0  0  0
 15 16  2  0  0  0  0
 15 23  1  0  0  0  0
 16 18  1  0  0  0  0
 17 16  1  0  0  0  0
 18 19  2  0  0  0  0
 19 20  1  0  0  0  0
 21 19  1  0  0  0  0
 21 22  1  0  0  0  0
 23 21  2  0  0  0  0
 25 26  1  0  0  0  0
 25 24  1  0  0  0  0
 26 34  1  0  0  0  0
 27 35  1  0  0  0  0
 27 26  2  0  0  0  0
 28 27  1  0  0  0  0
 29 28  2  0  0  0  0
 29 30  1  0  0  0  0
 30 25  2  0  0  0  0
 31 33  1  0  0  0  0
 32 31  2  0  0  0  0
 33 29  1  0  0  0  0
 33 37  1  0  0  0  0
 36 31  1  0  0  0  0
M  END
>  <minimizedAffinity>
-5.46077776

$$$$

 OpenBabel03272506403D

 37 39  0  0  1  0  0  0  0  0999 V2000
   36.8830   27.8460   34.6830 O   0  0  0  0  0  0  0  0  0  0  0  0
   38.0210   27.3770   34.5500 C   0  0  0  0  0  0  0  0  0  0  0  0
   38.7770   26.8760   35.6770 C   0  0  2  0  0  0  0  0  0  0  0  0
   40.0130   26.2500   34.9620 C   0  0  0  0  0  0  0  0  0  0  0  0
   40.1060   27.0190   33.6890 C   0  0  0  0  0  0  0  0  0  0  0  0
   38.7230   27.2690   33.3030 N   0  0  0  0  0  0  0  0  0  0  0  0
   39.1360   27.6380   36.3810 H   0  0  0  0  0  0  0  0  0  0  0  0
   40.8750   26.5040   35.6050 H   0  0  0  0  0  0  0  0  0  0  0  0
   39.8800   25.1730   34.8350 H   0  0  0  0  0  0  0  0  0  0  0  0
   40.5620   26.3610   32.9100 H   0  0  0  0  0  0  0  0  0  0  0  0
   40.7000   27.9290   33.7430 H   0  0  0  0  0  0  0  0  0  0  0  0
   38.1970   27.3810   31.9490 C   0  0  0  0  0  0  0  0  0  0  0  0
   39.0700   27.5750   31.2910 H   0  0  0  0  0  0  0  0  0  0  0  0
   37.4570   28.1710   31.8170 H   0  0  0  0  0  0  0  0  0  0  0  0
   37.6430   26.0260   31.6020 C   0  0  0  0  0  0  0  0  0  0  0  0
   36.2810   25.8100   31.7930 C   0  0  0  0  0  0  0  0  0  0  0  0
   35.6420   26.5880   32.1750 H   0  0  0  0  0  0  0  0  0  0  0  0
   35.6590   24.6090   31.5100 C   0  0  0  0  0  3  0  0  0  0  0  0
   36.4280   23.5620   31.0100 C   0  0  0  0  0  0  0  0  0  0  0  0
   36.0030   22.6070   30.7720 H   0  0  0  0  0  0  0  0  0  0  0  0
   37.7710   23.7930   30.8290 C   0  0  0  0  0  0  0  0  0  0  0  0
   38.3580   22.9520   30.4340 H   0  0  0  0  0  0  0  0  0  0  0  0
   38.3990   24.9850   31.1080 C   0  0  0  0  0  3  0  0  0  0  0  0
   38.1480   25.8020   36.3790 O   0  0  0  0  0  0  0  0  0  0  0  0
   38.4380   24.5040   35.9600 C   0  0  0  0  0  0  0  0  0  0  0  0
   37.8700   24.0900   34.7700 C   0  0  0  0  0  0  0  0  0  0  0  0
   38.1400   22.8040   34.3280 C   0  0  0  0  0  0  0  0  0  0  0  0
   38.9470   22.0080   35.0800 N   0  0  0  0  0  0  0  0  0  0  0  0
   39.4920   22.4240   36.2340 C   0  0  0  0  0  0  0  0  0  0  0  0
   39.2310   23.6580   36.6540 N   0  0  0  0  0  0  0  0  0  0  0  0
   41.6390   22.0950   37.1810 C   0  0  0  0  0  0  0  0  0  0  0  0
   42.1070   23.1940   36.7580 O   0  0  0  0  0  0  0  0  0  0  0  0
   40.3300   21.5630   36.9980 N   0  0  0  0  0  0  0  0  0  0  0  0
   37.2290   24.7250   34.1760 H   0  0  0  0  0  0  0  0  0  0  0  0
   37.7090   22.4560   33.4020 H   0  0  0  0  0  0  0  0  0  0  0  0
   42.4450   21.6200   37.7280 H   0  0  0  0  0  0  0  0  0  0  0  0
   40.1290   20.6320   37.4260 H   0  0  0  0  0  0  0  0  0  0  0  0
  2  1  2  0  0  0  0
  2  3  1  0  0  0  0
  3 24  1  0  0  0  0
  3  7  1  1  0  0  0
  4  8  1  0  0  0  0
  4  3  1  0  0  0  0
  5 11  1  0  0  0  0
  5  4  1  0  0  0  0
  6  5  1  0  0  0  0
  6  2  1  0  0  0  0
  9  4  1  0  0  0  0
 10  5  1  0  0  0  0
 12  6  1  0  0  0  0
 13 12  1  0  0  0  0
 14 12  1  0  0  0  0
 15 16  1  0  0  0  0
 15 12  1  0  0  0  0
 16 17  1  0  0  0  0
 18 16  2  0  0  0  0
 19 18  1  0  0  0  0
 20 19  1  0  0  0  0
 21 19  2  0  0  0  0
 21 23  1  0  0  0  0
 22 21  1  0  0  0  0
 23 15  2  0  0  0  0
 25 24  1  0  0  0  0
 25 30  1  0  0  0  0
 26 25  2  0  0  0  0
 27 26  1  0  0  0  0
 27 28  2  0  0  0  0
 28 29  1  0  0  0  0
 29 30  2  0  0  0  0
 29 33  1  0  0  0  0
 31 36  1  0  0  0  0
 32 31  2  0  0  0  0
 33 31  1  0  0  0  0
 33 37  1  0  0  0  0
 34 26  1  0  0  0  0
 35 27  1  0  0  0  0
M  END
>  <minimizedAffinity>
-5.43213129

$$$$

 OpenBabel03272506403D

 37 39  0  0  1  0  0  0  0  0999 V2000
   36.8340   23.9310   32.5040 O   0  0  0  0  0  0  0  0  0  0  0  0
   37.9590   24.3050   32.8620 C   0  0  0  0  0  0  0  0  0  0  0  0
   38.4680   25.6190   32.5310 C   0  0  2  0  0  0  0  0  0  0  0  0
   39.7930   25.6480   33.3500 C   0  0  0  0  0  0  0  0  0  0  0  0
   40.1550   24.2080   33.4810 C   0  0  0  0  0  0  0  0  0  0  0  0
   38.8800   23.5160   33.6280 N   0  0  0  0  0  0  0  0  0  0  0  0
   38.7140   25.7770   31.4730 H   0  0  0  0  0  0  0  0  0  0  0  0
   40.5270   26.1490   32.6930 H   0  0  0  0  0  0  0  0  0  0  0  0
   39.6480   26.1690   34.3010 H   0  0  0  0  0  0  0  0  0  0  0  0
   40.7260   24.0710   34.4310 H   0  0  0  0  0  0  0  0  0  0  0  0
   40.7610   23.8100   32.6700 H   0  0  0  0  0  0  0  0  0  0  0  0
   38.6260   22.2980   34.3840 C   0  0  0  0  0  0  0  0  0  0  0  0
   39.4350   21.5880   34.1140 H   0  0  0  0  0  0  0  0  0  0  0  0
   37.6570   21.8390   34.1880 H   0  0  0  0  0  0  0  0  0  0  0  0
   38.7920   22.6640   35.8340 C   0  0  0  0  0  0  0  0  0  0  0  0
   37.7600   23.3640   36.4520 C   0  0  0  0  0  0  0  0  0  0  0  0
   36.8690   23.6350   35.9120 H   0  0  0  0  0  0  0  0  0  0  0  0
   37.7990   23.7540   37.7770 C   0  0  0  0  0  3  0  0  0  0  0  0
   38.9220   23.4330   38.5340 C   0  0  0  0  0  0  0  0  0  0  0  0
   39.0110   23.7080   39.5670 H   0  0  0  0  0  0  0  0  0  0  0  0
   39.9320   22.7420   37.9070 C   0  0  0  0  0  0  0  0  0  0  0  0
   40.8080   22.5000   38.5230 H   0  0  0  0  0  0  0  0  0  0  0  0
   39.9020   22.3490   36.5890 C   0  0  0  0  0  3  0  0  0  0  0  0
   37.6790   26.7000   33.0280 O   0  0  0  0  0  0  0  0  0  0  0  0
   37.2140   27.6340   32.1030 C   0  0  0  0  0  0  0  0  0  0  0  0
   36.3920   28.6360   32.5840 C   0  0  0  0  0  0  0  0  0  0  0  0
   35.9140   29.5790   31.6880 C   0  0  0  0  0  0  0  0  0  0  0  0
   36.2720   29.4800   30.3790 N   0  0  0  0  0  0  0  0  0  0  0  0
   37.0710   28.5020   29.9260 C   0  0  0  0  0  0  0  0  0  0  0  0
   37.5280   27.5990   30.7890 N   0  0  0  0  0  0  0  0  0  0  0  0
   38.8310   28.5020   28.3370 C   0  0  0  0  0  0  0  0  0  0  0  0
   39.7480   28.6230   29.2020 O   0  0  0  0  0  0  0  0  0  0  0  0
   37.4240   28.4260   28.5480 N   0  0  0  0  0  0  0  0  0  0  0  0
   36.1100   28.7110   33.6250 H   0  0  0  0  0  0  0  0  0  0  0  0
   35.2710   30.3710   32.0390 H   0  0  0  0  0  0  0  0  0  0  0  0
   39.3300   28.4640   27.3770 H   0  0  0  0  0  0  0  0  0  0  0  0
   36.8190   28.3270   27.7020 H   0  0  0  0  0  0  0  0  0  0  0  0
  1  2  2  0  0  0  0
  2  6  1  0  0  0  0
  3  7  1  6  0  0  0
  3  2  1  0  0  0  0
  3 24  1  0  0  0  0
  3  4  1  0  0  0  0
  4  5  1  0  0  0  0
  4  9  1  0  0  0  0
  5  6  1  0  0  0  0
  5 10  1  0  0  0  0
  6 12  1  0  0  0  0
  8  4  1  0  0  0  0
 11  5  1  0  0  0  0
 12 15  1  0  0  0  0
 13 12  1  0  0  0  0
 14 12  1  0  0  0  0
 15 16  2  0  0  0  0
 15 23  1  0  0  0  0
 16 18  1  0  0  0  0
 17 16  1  0  0  0  0
 18 19  2  0  0  0  0
 19 20  1  0  0  0  0
 21 22  1  0  0  0  0
 21 19  1  0  0  0  0
 23 21  2  0  0  0  0
 25 26  1  0  0  0  0
 25 24  1  0  0  0  0
 26 34  1  0  0  0  0
 27 35  1  0  0  0  0
 27 26  2  0  0  0  0
 28 27  1  0  0  0  0
 29 28  2  0  0  0  0
 29 30  1  0  0  0  0
 30 25  2  0  0  0  0
 31 33  1  0  0  0  0
 31 32  2  0  0  0  0
 33 29  1  0  0  0  0
 36 31  1  0  0  0  0
 37 33  1  0  0  0  0
M  END
>  <minimizedAffinity>
-5.42724657

$$$$

 OpenBabel03272506403D

 37 39  0  0  1  0  0  0  0  0999 V2000
   36.8060   25.0570   32.6570 O   0  0  0  0  0  0  0  0  0  0  0  0
   37.6650   25.6120   33.3550 C   0  0  0  0  0  0  0  0  0  0  0  0
   37.6990   27.0480   33.5250 C   0  0  2  0  0  0  0  0  0  0  0  0
   38.8110   27.2020   34.6060 C   0  0  0  0  0  0  0  0  0  0  0  0
   39.6520   25.9860   34.4170 C   0  0  0  0  0  0  0  0  0  0  0  0
   38.7080   24.9310   34.0670 N   0  0  0  0  0  0  0  0  0  0  0  0
   37.9990   27.6220   32.6380 H   0  0  0  0  0  0  0  0  0  0  0  0
   39.3870   28.0940   34.3010 H   0  0  0  0  0  0  0  0  0  0  0  0
   38.3700   27.3000   35.6010 H   0  0  0  0  0  0  0  0  0  0  0  0
   40.1120   25.7170   35.3980 H   0  0  0  0  0  0  0  0  0  0  0  0
   40.4560   26.0900   33.6910 H   0  0  0  0  0  0  0  0  0  0  0  0
   38.8220   23.5130   34.3800 C   0  0  0  0  0  0  0  0  0  0  0  0
   39.7980   23.1810   33.9670 H   0  0  0  0  0  0  0  0  0  0  0  0
   38.0230   22.8950   33.9710 H   0  0  0  0  0  0  0  0  0  0  0  0
   38.8950   23.4210   35.8800 C   0  0  0  0  0  0  0  0  0  0  0  0
   37.8210   23.9130   36.6160 C   0  0  0  0  0  0  0  0  0  0  0  0
   36.9630   24.3460   36.1290 H   0  0  0  0  0  0  0  0  0  0  0  0
   37.7740   23.8830   37.9960 C   0  0  0  0  0  3  0  0  0  0  0  0
   38.8500   23.3340   38.6880 C   0  0  0  0  0  0  0  0  0  0  0  0
   38.8720   23.2820   39.7590 H   0  0  0  0  0  0  0  0  0  0  0  0
   39.9010   22.8540   37.9450 C   0  0  0  0  0  0  0  0  0  0  0  0
   40.7390   22.4250   38.5120 H   0  0  0  0  0  0  0  0  0  0  0  0
   39.9580   22.8790   36.5710 C   0  0  0  0  0  3  0  0  0  0  0  0
   36.5160   27.6030   34.1020 O   0  0  0  0  0  0  0  0  0  0  0  0
   36.0850   28.8380   33.6200 C   0  0  0  0  0  0  0  0  0  0  0  0
   35.7470   29.7930   34.5610 C   0  0  0  0  0  0  0  0  0  0  0  0
   35.3150   31.0320   34.1130 C   0  0  0  0  0  0  0  0  0  0  0  0
   35.2410   31.2540   32.7730 N   0  0  0  0  0  0  0  0  0  0  0  0
   35.5730   30.3170   31.8710 C   0  0  0  0  0  0  0  0  0  0  0  0
   35.9870   29.1310   32.3050 N   0  0  0  0  0  0  0  0  0  0  0  0
   36.7320   30.4450   29.8070 C   0  0  0  0  0  0  0  0  0  0  0  0
   37.8540   30.1280   30.3010 O   0  0  0  0  0  0  0  0  0  0  0  0
   35.4810   30.5830   30.4750 N   0  0  0  0  0  0  0  0  0  0  0  0
   35.8060   29.6110   35.6250 H   0  0  0  0  0  0  0  0  0  0  0  0
   35.0450   31.7940   34.8270 H   0  0  0  0  0  0  0  0  0  0  0  0
   36.9050   30.5960   28.7480 H   0  0  0  0  0  0  0  0  0  0  0  0
   34.6570   30.8560   29.8930 H   0  0  0  0  0  0  0  0  0  0  0  0
  1  2  2  0  0  0  0
  2  3  1  0  0  0  0
  2  6  1  0  0  0  0
  3  7  1  6  0  0  0
  3 24  1  0  0  0  0
  3  4  1  0  0  0  0
  4  9  1  0  0  0  0
  5  4  1  0  0  0  0
  5 10  1  0  0  0  0
  6 12  1  0  0  0  0
  6  5  1  0  0  0  0
  8  4  1  0  0  0  0
 11  5  1  0  0  0  0
 12 15  1  0  0  0  0
 13 12  1  0  0  0  0
 14 12  1  0  0  0  0
 15 23  2  0  0  0  0
 15 16  1  0  0  0  0
 16 18  2  0  0  0  0
 17 16  1  0  0  0  0
 18 19  1  0  0  0  0
 19 20  1  0  0  0  0
 21 22  1  0  0  0  0
 21 19  2  0  0  0  0
 23 21  1  0  0  0  0
 25 24  1  0  0  0  0
 25 26  1  0  0  0  0
 26 34  1  0  0  0  0
 27 26  2  0  0  0  0
 27 35  1  0  0  0  0
 28 27  1  0  0  0  0
 29 30  1  0  0  0  0
 29 28  2  0  0  0  0
 30 25  2  0  0  0  0
 31 32  2  0  0  0  0
 31 33  1  0  0  0  0
 33 29  1  0  0  0  0
 36 31  1  0  0  0  0
 37 33  1  0  0  0  0
M  END
>  <minimizedAffinity>
-5.41588974

$$$$

 OpenBabel03272506403D

 37 39  0  0  1  0  0  0  0  0999 V2000
   38.1470   25.1130   37.1820 O   0  0  0  0  0  0  0  0  0  0  0  0
   38.4440   24.3430   36.2590 C   0  0  0  0  0  0  0  0  0  0  0  0
   38.0940   24.6270   34.8850 C   0  0  2  0  0  0  0  0  0  0  0  0
   38.8380   23.4800   34.1360 C   0  0  0  0  0  0  0  0  0  0  0  0
   38.9400   22.4030   35.1610 C   0  0  0  0  0  0  0  0  0  0  0  0
   39.1530   23.1060   36.4200 N   0  0  0  0  0  0  0  0  0  0  0  0
   37.0240   24.5560   34.6460 H   0  0  0  0  0  0  0  0  0  0  0  0
   38.1440   23.1600   33.3380 H   0  0  0  0  0  0  0  0  0  0  0  0
   39.7980   23.8320   33.7490 H   0  0  0  0  0  0  0  0  0  0  0  0
   39.8560   21.7990   34.9500 H   0  0  0  0  0  0  0  0  0  0  0  0
   38.0940   21.7200   35.1960 H   0  0  0  0  0  0  0  0  0  0  0  0
   39.9150   22.6350   37.5690 C   0  0  0  0  0  0  0  0  0  0  0  0
   39.4500   21.6760   37.8800 H   0  0  0  0  0  0  0  0  0  0  0  0
   39.9300   23.3240   38.4130 H   0  0  0  0  0  0  0  0  0  0  0  0
   41.2990   22.3390   37.0590 C   0  0  0  0  0  0  0  0  0  0  0  0
   42.0180   23.3810   36.4800 C   0  0  0  0  0  0  0  0  0  0  0  0
   41.5990   24.3700   36.4000 H   0  0  0  0  0  0  0  0  0  0  0  0
   43.2960   23.2290   35.9770 C   0  0  0  0  0  3  0  0  0  0  0  0
   43.8970   21.9760   36.0510 C   0  0  0  0  0  0  0  0  0  0  0  0
   44.8870   21.7960   35.6780 H   0  0  0  0  0  0  0  0  0  0  0  0
   43.1730   20.9590   36.6250 C   0  0  0  0  0  0  0  0  0  0  0  0
   43.6670   19.9790   36.6720 H   0  0  0  0  0  0  0  0  0  0  0  0
   41.9000   21.1000   37.1280 C   0  0  0  0  0  3  0  0  0  0  0  0
   38.6400   25.8440   34.3750 O   0  0  0  0  0  0  0  0  0  0  0  0
   38.4070   26.1400   33.0330 C   0  0  0  0  0  0  0  0  0  0  0  0
   39.5150   26.4030   32.2490 C   0  0  0  0  0  0  0  0  0  0  0  0
   39.3150   26.7010   30.9100 C   0  0  0  0  0  0  0  0  0  0  0  0
   38.0430   26.7220   30.4260 N   0  0  0  0  0  0  0  0  0  0  0  0
   36.9770   26.4650   31.1990 C   0  0  0  0  0  0  0  0  0  0  0  0
   37.1730   26.1790   32.4830 N   0  0  0  0  0  0  0  0  0  0  0  0
   34.9810   25.2530   30.7930 C   0  0  0  0  0  0  0  0  0  0  0  0
   35.4070   24.1790   31.3110 O   0  0  0  0  0  0  0  0  0  0  0  0
   35.6590   26.4990   30.6610 N   0  0  0  0  0  0  0  0  0  0  0  0
   40.5230   26.3850   32.6370 H   0  0  0  0  0  0  0  0  0  0  0  0
   40.1630   26.9100   30.2770 H   0  0  0  0  0  0  0  0  0  0  0  0
   33.9720   25.0430   30.4580 H   0  0  0  0  0  0  0  0  0  0  0  0
   35.1390   27.2790   30.1990 H   0  0  0  0  0  0  0  0  0  0  0  0
  2  6  1  0  0  0  0
  2  1  2  0  0  0  0
  3  7  1  6  0  0  0
  3  2  1  0  0  0  0
  4  3  1  0  0  0  0
  4  5  1  0  0  0  0
  5 11  1  0  0  0  0
  5  6  1  0  0  0  0
  6 12  1  0  0  0  0
  8  4  1  0  0  0  0
  9  4  1  0  0  0  0
 10  5  1  0  0  0  0
 12 13  1  0  0  0  0
 12 14  1  0  0  0  0
 15 23  1  0  0  0  0
 15 12  1  0  0  0  0
 16 15  2  0  0  0  0
 17 16  1  0  0  0  0
 18 19  2  0  0  0  0
 18 16  1  0  0  0  0
 19 21  1  0  0  0  0
 20 19  1  0  0  0  0
 21 22  1  0  0  0  0
 21 23  2  0  0  0  0
 24  3  1  0  0  0  0
 25 24  1  0  0  0  0
 26 34  1  0  0  0  0
 26 25  2  0  0  0  0
 27 26  1  0  0  0  0
 28 27  2  0  0  0  0
 28 29  1  0  0  0  0
 29 30  2  0  0  0  0
 30 25  1  0  0  0  0
 31 32  2  0  0  0  0
 33 31  1  0  0  0  0
 33 29  1  0  0  0  0
 35 27  1  0  0  0  0
 36 31  1  0  0  0  0
 37 33  1  0  0  0  0
M  END
>  <minimizedAffinity>
-5.38873768

$$$$

 OpenBabel03272506403D

 37 39  0  0  1  0  0  0  0  0999 V2000
   37.3020   25.7440   34.5810 O   0  0  0  0  0  0  0  0  0  0  0  0
   38.1570   26.0550   33.7420 C   0  0  0  0  0  0  0  0  0  0  0  0
   39.5440   25.6690   33.8850 C   0  0  2  0  0  0  0  0  0  0  0  0
   40.1320   26.1320   32.5180 C   0  0  0  0  0  0  0  0  0  0  0  0
   39.2210   27.2330   32.1000 C   0  0  0  0  0  0  0  0  0  0  0  0
   37.8990   26.8160   32.5520 N   0  0  0  0  0  0  0  0  0  0  0  0
   40.0950   26.1780   34.6870 H   0  0  0  0  0  0  0  0  0  0  0  0
   41.1250   26.5520   32.7590 H   0  0  0  0  0  0  0  0  0  0  0  0
   40.1850   25.2930   31.8170 H   0  0  0  0  0  0  0  0  0  0  0  0
   39.2000   27.2720   30.9840 H   0  0  0  0  0  0  0  0  0  0  0  0
   39.4970   28.2220   32.4600 H   0  0  0  0  0  0  0  0  0  0  0  0
   36.6210   27.1170   31.9230 C   0  0  0  0  0  0  0  0  0  0  0  0
   35.8820   26.4190   32.3700 H   0  0  0  0  0  0  0  0  0  0  0  0
   36.6150   27.0090   30.8390 H   0  0  0  0  0  0  0  0  0  0  0  0
   36.2620   28.5140   32.3530 C   0  0  0  0  0  0  0  0  0  0  0  0
   36.3370   29.5280   31.4020 C   0  0  0  0  0  0  0  0  0  0  0  0
   36.6400   29.3210   30.3900 H   0  0  0  0  0  0  0  0  0  0  0  0
   36.0330   30.8460   31.6790 C   0  0  0  0  0  3  0  0  0  0  0  0
   35.6320   31.1820   32.9680 C   0  0  0  0  0  0  0  0  0  0  0  0
   35.3820   32.1880   33.2440 H   0  0  0  0  0  0  0  0  0  0  0  0
   35.5650   30.1680   33.8940 C   0  0  0  0  0  0  0  0  0  0  0  0
   35.2460   30.4560   34.9060 H   0  0  0  0  0  0  0  0  0  0  0  0
   35.8650   28.8520   33.6290 C   0  0  0  0  0  3  0  0  0  0  0  0
   39.7610   24.2590   33.9460 O   0  0  0  0  0  0  0  0  0  0  0  0
   40.1630   23.7230   35.1690 C   0  0  0  0  0  0  0  0  0  0  0  0
   41.5150   23.4900   35.3350 C   0  0  0  0  0  0  0  0  0  0  0  0
   41.9460   22.9580   36.5410 C   0  0  0  0  0  0  0  0  0  0  0  0
   41.0240   22.6890   37.5040 N   0  0  0  0  0  0  0  0  0  0  0  0
   39.7130   22.9210   37.3290 C   0  0  0  0  0  0  0  0  0  0  0  0
   39.3050   23.4310   36.1710 N   0  0  0  0  0  0  0  0  0  0  0  0
   38.0470   23.7720   38.7830 C   0  0  0  0  0  0  0  0  0  0  0  0
   38.1440   24.9630   38.3620 O   0  0  0  0  0  0  0  0  0  0  0  0
   38.7750   22.6240   38.3580 N   0  0  0  0  0  0  0  0  0  0  0  0
   42.2440   23.7050   34.5670 H   0  0  0  0  0  0  0  0  0  0  0  0
   42.9960   22.7660   36.6950 H   0  0  0  0  0  0  0  0  0  0  0  0
   37.2820   23.7890   39.5510 H   0  0  0  0  0  0  0  0  0  0  0  0
   38.5540   21.7170   38.8290 H   0  0  0  0  0  0  0  0  0  0  0  0
  2  3  1  0  0  0  0
  2  1  2  0  0  0  0
  3 24  1  0  0  0  0
  3  7  1  1  0  0  0
  4  8  1  0  0  0  0
  4  3  1  0  0  0  0
  5 11  1  0  0  0  0
  5  4  1  0  0  0  0
  5  6  1  0  0  0  0
  6  2  1  0  0  0  0
  9  4  1  0  0  0  0
 10  5  1  0  0  0  0
 12 15  1  0  0  0  0
 12 13  1  0  0  0  0
 12  6  1  0  0  0  0
 14 12  1  0  0  0  0
 15 23  1  0  0  0  0
 16 18  1  0  0  0  0
 16 15  2  0  0  0  0
 17 16  1  0  0  0  0
 18 19  2  0  0  0  0
 19 20  1  0  0  0  0
 19 21  1  0  0  0  0
 21 22  1  0  0  0  0
 23 21  2  0  0  0  0
 24 25  1  0  0  0  0
 25 26  2  0  0  0  0
 25 30  1  0  0  0  0
 26 27  1  0  0  0  0
 27 35  1  0  0  0  0
 27 28  2  0  0  0  0
 29 28  1  0  0  0  0
 29 33  1  0  0  0  0
 30 29  2  0  0  0  0
 31 36  1  0  0  0  0
 32 31  2  0  0  0  0
 33 31  1  0  0  0  0
 33 37  1  0  0  0  0
 34 26  1  0  0  0  0
M  END
>  <minimizedAffinity>
-5.34559393

$$$$

 OpenBabel03272506403D

 37 39  0  0  1  0  0  0  0  0999 V2000
   38.0680   25.3520   32.4980 O   0  0  0  0  0  0  0  0  0  0  0  0
   37.0010   25.1120   31.9180 C   0  0  0  0  0  0  0  0  0  0  0  0
   36.0160   26.1420   31.6730 C   0  0  2  0  0  0  0  0  0  0  0  0
   34.9920   25.3800   30.7790 C   0  0  0  0  0  0  0  0  0  0  0  0
   35.1790   23.9550   31.1710 C   0  0  0  0  0  0  0  0  0  0  0  0
   36.6090   23.8230   31.4230 N   0  0  0  0  0  0  0  0  0  0  0  0
   35.4890   26.5120   32.5620 H   0  0  0  0  0  0  0  0  0  0  0  0
   33.9990   25.7250   31.1210 H   0  0  0  0  0  0  0  0  0  0  0  0
   35.1720   25.5890   29.7210 H   0  0  0  0  0  0  0  0  0  0  0  0
   34.9290   23.3100   30.2940 H   0  0  0  0  0  0  0  0  0  0  0  0
   34.5700   23.6240   32.0090 H   0  0  0  0  0  0  0  0  0  0  0  0
   37.4310   22.6390   31.2150 C   0  0  0  0  0  0  0  0  0  0  0  0
   38.3640   22.8010   31.7940 H   0  0  0  0  0  0  0  0  0  0  0  0
   37.6770   22.4380   30.1730 H   0  0  0  0  0  0  0  0  0  0  0  0
   36.6840   21.4960   31.8470 C   0  0  0  0  0  0  0  0  0  0  0  0
   36.2690   20.4530   31.0230 C   0  0  0  0  0  0  0  0  0  0  0  0
   36.4770   20.4620   29.9670 H   0  0  0  0  0  0  0  0  0  0  0  0
   35.5770   19.3510   31.4890 C   0  0  0  0  0  3  0  0  0  0  0  0
   35.2780   19.2770   32.8460 C   0  0  0  0  0  0  0  0  0  0  0  0
   34.7440   18.4470   33.2670 H   0  0  0  0  0  0  0  0  0  0  0  0
   35.6940   20.3150   33.6440 C   0  0  0  0  0  0  0  0  0  0  0  0
   35.4470   20.2350   34.7120 H   0  0  0  0  0  0  0  0  0  0  0  0
   36.3840   21.4160   33.1910 C   0  0  0  0  0  3  0  0  0  0  0  0
   36.4870   27.2340   30.8810 O   0  0  0  0  0  0  0  0  0  0  0  0
   36.1180   28.5200   31.2760 C   0  0  0  0  0  0  0  0  0  0  0  0
   36.5760   29.5680   30.5000 C   0  0  0  0  0  0  0  0  0  0  0  0
   36.2250   30.8580   30.8670 C   0  0  0  0  0  0  0  0  0  0  0  0
   35.4490   31.0370   31.9700 N   0  0  0  0  0  0  0  0  0  0  0  0
   35.0120   30.0090   32.7140 C   0  0  0  0  0  0  0  0  0  0  0  0
   35.3500   28.7740   32.3580 N   0  0  0  0  0  0  0  0  0  0  0  0
   32.9340   29.5940   33.7760 C   0  0  0  0  0  0  0  0  0  0  0  0
   32.4770   28.8870   32.8310 O   0  0  0  0  0  0  0  0  0  0  0  0
   34.2040   30.2340   33.8650 N   0  0  0  0  0  0  0  0  0  0  0  0
   37.1920   29.4210   29.6240 H   0  0  0  0  0  0  0  0  0  0  0  0
   36.5700   31.6930   30.2770 H   0  0  0  0  0  0  0  0  0  0  0  0
   32.1560   29.6230   34.5300 H   0  0  0  0  0  0  0  0  0  0  0  0
   34.4030   30.7800   34.7330 H   0  0  0  0  0  0  0  0  0  0  0  0
  2  1  2  0  0  0  0
  3  2  1  0  0  0  0
  3  7  1  1  0  0  0
  4  8  1  0  0  0  0
  4  5  1  0  0  0  0
  4  3  1  0  0  0  0
  5  6  1  0  0  0  0
  5 11  1  0  0  0  0
  6  2  1  0  0  0  0
  9  4  1  0  0  0  0
 10  5  1  0  0  0  0
 12  6  1  0  0  0  0
 12 13  1  0  0  0  0
 12 15  1  0  0  0  0
 14 12  1  0  0  0  0
 15 23  1  0  0  0  0
 16 18  1  0  0  0  0
 16 15  2  0  0  0  0
 17 16  1  0  0  0  0
 18 19  2  0  0  0  0
 19 20  1  0  0  0  0
 19 21  1  0  0  0  0
 21 22  1  0  0  0  0
 23 21  2  0  0  0  0
 24 25  1  0  0  0  0
 24  3  1  0  0  0  0
 25 30  1  0  0  0  0
 26 27  1  0  0  0  0
 26 25  2  0  0  0  0
 27 28  2  0  0  0  0
 28 29  1  0  0  0  0
 29 33  1  0  0  0  0
 30 29  2  0  0  0  0
 31 33  1  0  0  0  0
 31 36  1  0  0  0  0
 32 31  2  0  0  0  0
 33 37  1  0  0  0  0
 34 26  1  0  0  0  0
 35 27  1  0  0  0  0
M  END
>  <minimizedAffinity>
-5.33399725

$$$$
