
 OpenBabel03272510123D

 35 38  0  0  0  0  0  0  0  0999 V2000
   33.5300   28.2970   48.8070 C   0  0  0  0  0  0  0  0  0  0  0  0
   33.4040   28.9220   49.9970 C   0  0  0  0  0  0  0  0  0  0  0  0
   34.3520   29.7480   50.5640 C   0  0  0  0  0  0  0  0  0  0  0  0
   35.5230   29.9810   49.9030 C   0  0  0  0  0  0  0  0  0  0  0  0
   35.6670   29.3410   48.6680 C   0  0  0  0  0  0  0  0  0  0  0  0
   34.7060   28.5440   48.1650 N   0  0  0  0  0  0  0  0  0  0  0  0
   32.5090   28.7980   50.5970 H   0  0  0  0  0  0  0  0  0  0  0  0
   34.2390   30.2470   51.5250 H   0  0  0  0  0  0  0  0  0  0  0  0
   36.5740   29.4800   48.0870 H   0  0  0  0  0  0  0  0  0  0  0  0
   31.1600   27.5690   48.4540 C   0  0  0  0  0  0  0  0  0  0  0  0
   32.5390   27.4410   48.2290 C   0  0  0  0  0  0  0  0  0  0  0  0
   32.9340   26.4100   47.3890 C   0  0  0  0  0  0  0  0  0  0  0  0
   31.9780   25.5940   46.8390 N   0  0  0  0  0  0  0  0  0  0  0  0
   30.6700   25.7730   47.0980 C   0  0  0  0  0  0  0  0  0  0  0  0
   30.2510   26.7530   47.9000 N   0  0  0  0  0  0  0  0  0  0  0  0
   30.8180   28.3620   49.1050 H   0  0  0  0  0  0  0  0  0  0  0  0
   33.9900   26.2800   47.1910 H   0  0  0  0  0  0  0  0  0  0  0  0
   30.0180   25.0640   46.6030 H   0  0  0  0  0  0  0  0  0  0  0  0
   36.5750   30.7840   50.3340 O   0  0  0  0  0  0  0  0  0  0  0  0
   37.4130   31.4240   49.4230 C   0  0  0  0  0  0  0  0  0  0  0  0
   37.8380   32.6990   49.8200 C   0  0  0  0  0  0  0  0  0  0  0  0
   38.6550   33.2050   48.8260 C   0  0  0  0  0  0  0  0  0  0  0  0
   38.7020   32.2540   47.8840 N   0  0  0  0  0  0  0  0  0  0  0  0
   37.9820   31.2130   48.2220 N   0  0  0  0  0  0  0  0  0  0  0  0
   37.6620   33.3260   50.7000 H   0  0  0  0  0  0  0  0  0  0  0  0
   39.2140   34.0990   48.6420 H   0  0  0  0  0  0  0  0  0  0  0  0
   39.3380   32.0830   46.5980 C   0  0  0  0  0  0  0  0  0  0  0  0
   40.0410   33.1330   45.9940 C   0  0  0  0  0  0  0  0  0  0  0  0
   40.1150   34.0850   46.4800 H   0  0  0  0  0  0  0  0  0  0  0  0
   40.6190   32.8820   44.7620 C   0  0  0  0  0  3  0  0  0  0  0  0
   40.5460   31.6720   44.1020 C   0  0  0  0  0  0  0  0  0  0  0  0
   41.0090   31.5040   43.1390 H   0  0  0  0  0  0  0  0  0  0  0  0
   39.8470   30.6250   44.7070 C   0  0  0  0  0  0  0  0  0  0  0  0
   39.7690   29.6630   44.2200 H   0  0  0  0  0  0  0  0  0  0  0  0
   39.2620   30.8610   45.9380 C   0  0  0  0  0  3  0  0  0  0  0  0
  1  2  1  0  0  0  0
  2  3  2  0  0  0  0
  2  7  1  0  0  0  0
  3  8  1  0  0  0  0
  4 19  1  0  0  0  0
  4  3  1  0  0  0  0
  5  4  2  0  0  0  0
  6  5  1  0  0  0  0
  6  1  2  0  0  0  0
  9  5  1  0  0  0  0
 10 16  1  0  0  0  0
 11 10  1  0  0  0  0
 11  1  1  0  0  0  0
 12 11  2  0  0  0  0
 13 14  2  0  0  0  0
 13 12  1  0  0  0  0
 14 15  1  0  0  0  0
 15 10  2  0  0  0  0
 17 12  1  0  0  0  0
 18 14  1  0  0  0  0
 20 21  1  0  0  0  0
 20 19  1  0  0  0  0
 21 25  1  0  0  0  0
 22 21  2  0  0  0  0
 23 24  1  0  0  0  0
 23 22  1  0  0  0  0
 24 20  2  0  0  0  0
 26 22  1  0  0  0  0
 27 23  1  0  0  0  0
 28 29  1  0  0  0  0
 28 27  1  0  0  0  0
 30 28  2  0  0  0  0
 31 33  2  0  0  0  0
 31 30  1  0  0  0  0
 32 31  1  0  0  0  0
 33 35  1  0  0  0  0
 34 33  1  0  0  0  0
 35 27  2  0  0  0  0
M  END
>  <minimizedAffinity>
-6.34370279

>  <minimizedRMSD>
1.88642454

$$$$
