
 OpenBabel03272510053D

 37 39  0  0  0  0  0  0  0  0999 V2000
   36.3060   22.3030   32.4280 C   0  0  0  0  0  0  0  0  0  0  0  0
   36.8610   21.4920   33.3670 C   0  0  0  0  0  0  0  0  0  0  0  0
   36.3760   20.1980   33.5280 C   0  0  0  0  0  0  0  0  0  0  0  0
   35.3420   19.6880   32.7720 C   0  0  0  0  0  0  0  0  0  0  0  0
   34.7570   20.4820   31.8150 C   0  0  0  0  0  0  0  0  0  0  0  0
   35.2590   21.7550   31.6790 C   0  0  0  0  0  0  0  0  0  0  0  0
   36.8480   19.5640   34.2970 H   0  0  0  0  0  0  0  0  0  0  0  0
   35.0510   18.6890   32.9740 H   0  0  0  0  0  0  0  0  0  0  0  0
   33.9660   20.0450   31.2630 H   0  0  0  0  0  0  0  0  0  0  0  0
   34.7100   22.2870   30.8920 H   0  0  0  0  0  0  0  0  0  0  0  0
   40.2390   22.2250   34.6150 C   0  0  0  0  0  0  0  0  0  0  0  0
   39.1930   21.8100   33.8050 C   0  0  0  0  0  0  0  0  0  0  0  0
   37.9060   21.9430   34.2210 C   0  0  0  0  0  0  0  0  0  0  0  0
   37.7030   22.4990   35.4470 N   0  0  0  0  0  0  0  0  0  0  0  0
   38.7070   22.9050   36.2320 C   0  0  0  0  0  0  0  0  0  0  0  0
   39.9690   22.7620   35.8120 N   0  0  0  0  0  0  0  0  0  0  0  0
   41.2960   22.1910   34.4470 H   0  0  0  0  0  0  0  0  0  0  0  0
   39.6700   21.4660   32.9200 H   0  0  0  0  0  0  0  0  0  0  0  0
   38.3380   23.5540   37.5190 C   0  0  0  0  0  0  0  0  0  0  0  0
   37.2630   22.9300   38.1240 F   0  0  0  0  0  0  0  0  0  0  0  0
   39.4050   23.3240   38.4680 F   0  0  0  0  0  0  0  0  0  0  0  0
   38.2000   24.8600   37.5180 F   0  0  0  0  0  0  0  0  0  0  0  0
   36.8390   23.8940   32.1030 S   0  0  0  0  0  0  0  0  0  0  0  0
   35.7220   24.7720   31.6800 O   0  0  0  0  0  0  0  0  0  0  0  0
   37.4100   23.6770   30.7150 O   0  0  0  0  0  0  0  0  0  0  0  0
   38.3280   24.6170   32.4850 C   0  0  0  0  0  0  0  0  0  0  0  0
   38.9490   23.7440   32.9330 H   0  0  0  0  0  0  0  0  0  0  0  0
   38.9670   24.8360   31.6110 H   0  0  0  0  0  0  0  0  0  0  0  0
   38.3560   25.5720   33.5720 C   0  0  0  0  0  0  0  0  0  0  0  0
   39.5990   25.8730   34.0490 C   0  0  0  0  0  0  0  0  0  0  0  0
   40.5300   25.4380   33.6560 H   0  0  0  0  0  0  0  0  0  0  0  0
   39.8570   26.7650   35.0890 C   0  0  0  0  0  3  0  0  0  0  0  0
   38.7570   27.3860   35.6740 C   0  0  0  0  0  0  0  0  0  0  0  0
   38.9400   28.0800   36.4820 H   0  0  0  0  0  0  0  0  0  0  0  0
   37.4980   27.0880   35.1990 C   0  0  0  0  0  0  0  0  0  0  0  0
   36.6410   27.5750   35.6590 H   0  0  0  0  0  0  0  0  0  0  0  0
   37.2900   26.1970   34.1650 C   0  0  0  0  0  3  0  0  0  0  0  0
  1  2  1  0  0  0  0
  2  3  2  0  0  0  0
  2 13  1  0  0  0  0
  3  7  1  0  0  0  0
  4  8  1  0  0  0  0
  4  3  1  0  0  0  0
  5  4  2  0  0  0  0
  6  5  1  0  0  0  0
  6  1  2  0  0  0  0
  9  5  1  0  0  0  0
 10  6  1  0  0  0  0
 11 16  1  0  0  0  0
 12 13  1  0  0  0  0
 12 11  2  0  0  0  0
 13 14  2  0  0  0  0
 14 15  1  0  0  0  0
 15 19  1  0  0  0  0
 16 15  2  0  0  0  0
 17 11  1  0  0  0  0
 18 12  1  0  0  0  0
 19 20  1  0  0  0  0
 19 21  1  0  0  0  0
 22 19  1  0  0  0  0
 23  1  1  0  0  0  0
 23 26  1  0  0  0  0
 24 23  2  0  0  0  0
 25 23  2  0  0  0  0
 26 27  1  0  0  0  0
 26 29  1  0  0  0  0
 28 26  1  0  0  0  0
 29 30  2  0  0  0  0
 29 37  1  0  0  0  0
 30 32  1  0  0  0  0
 31 30  1  0  0  0  0
 32 33  2  0  0  0  0
 33 34  1  0  0  0  0
 35 36  1  0  0  0  0
 35 33  1  0  0  0  0
 37 35  2  0  0  0  0
M  END
>  <minimizedAffinity>
-6.44750404

$$$$

 OpenBabel03272510053D

 37 39  0  0  0  0  0  0  0  0999 V2000
   38.4280   24.8380   35.9460 C   0  0  0  0  0  0  0  0  0  0  0  0
   38.5050   24.6510   34.6020 C   0  0  0  0  0  0  0  0  0  0  0  0
   38.5750   25.7560   33.7580 C   0  0  0  0  0  0  0  0  0  0  0  0
   38.5680   27.0530   34.2240 C   0  0  0  0  0  0  0  0  0  0  0  0
   38.4880   27.2780   35.5780 C   0  0  0  0  0  0  0  0  0  0  0  0
   38.4210   26.1670   36.3850 C   0  0  0  0  0  0  0  0  0  0  0  0
   38.6380   25.5710   32.6740 H   0  0  0  0  0  0  0  0  0  0  0  0
   38.6270   27.8210   33.4970 H   0  0  0  0  0  0  0  0  0  0  0  0
   38.4840   28.2910   35.8850 H   0  0  0  0  0  0  0  0  0  0  0  0
   38.3570   26.4750   37.4360 H   0  0  0  0  0  0  0  0  0  0  0  0
   39.6600   21.5390   33.0260 C   0  0  0  0  0  0  0  0  0  0  0  0
   39.6470   22.7980   33.6050 C   0  0  0  0  0  0  0  0  0  0  0  0
   38.4790   23.3500   34.0260 C   0  0  0  0  0  0  0  0  0  0  0  0
   37.3470   22.6130   33.8560 N   0  0  0  0  0  0  0  0  0  0  0  0
   37.3530   21.3950   33.3020 C   0  0  0  0  0  0  0  0  0  0  0  0
   38.5090   20.8680   32.8880 N   0  0  0  0  0  0  0  0  0  0  0  0
   40.4790   20.9650   32.6420 H   0  0  0  0  0  0  0  0  0  0  0  0
   40.6710   23.0850   33.6290 H   0  0  0  0  0  0  0  0  0  0  0  0
   36.0520   20.6770   33.2380 C   0  0  0  0  0  0  0  0  0  0  0  0
   36.1890   19.4010   32.7220 F   0  0  0  0  0  0  0  0  0  0  0  0
   35.6060   20.4200   34.5900 F   0  0  0  0  0  0  0  0  0  0  0  0
   35.0390   21.3110   32.6920 F   0  0  0  0  0  0  0  0  0  0  0  0
   38.3800   23.5670   37.0870 S   0  0  0  0  0  0  0  0  0  0  0  0
   37.0740   22.8650   37.0740 O   0  0  0  0  0  0  0  0  0  0  0  0
   38.1150   24.3810   38.3390 O   0  0  0  0  0  0  0  0  0  0  0  0
   39.6630   22.8610   37.9480 C   0  0  0  0  0  0  0  0  0  0  0  0
   39.9850   23.6930   38.6910 H   0  0  0  0  0  0  0  0  0  0  0  0
   39.3540   22.0980   38.6850 H   0  0  0  0  0  0  0  0  0  0  0  0
   40.9010   22.6210   37.2370 C   0  0  0  0  0  0  0  0  0  0  0  0
   41.4210   21.3670   37.3840 C   0  0  0  0  0  0  0  0  0  0  0  0
   40.9560   20.5750   37.9900 H   0  0  0  0  0  0  0  0  0  0  0  0
   42.6010   20.9220   36.7900 C   0  0  0  0  0  3  0  0  0  0  0  0
   43.2880   21.8330   35.9930 C   0  0  0  0  0  0  0  0  0  0  0  0
   44.2050   21.5030   35.5260 H   0  0  0  0  0  0  0  0  0  0  0  0
   42.7710   23.1000   35.8400 C   0  0  0  0  0  0  0  0  0  0  0  0
   43.3110   23.8100   35.2170 H   0  0  0  0  0  0  0  0  0  0  0  0
   41.5970   23.4980   36.4480 C   0  0  0  0  0  3  0  0  0  0  0  0
  1  6  1  0  0  0  0
  1 23  1  0  0  0  0
  2  1  2  0  0  0  0
  3  4  2  0  0  0  0
  3  2  1  0  0  0  0
  4  5  1  0  0  0  0
  5  9  1  0  0  0  0
  5  6  2  0  0  0  0
  6 10  1  0  0  0  0
  7  3  1  0  0  0  0
  8  4  1  0  0  0  0
 11 12  1  0  0  0  0
 12 18  1  0  0  0  0
 12 13  2  0  0  0  0
 13  2  1  0  0  0  0
 14 13  1  0  0  0  0
 15 14  2  0  0  0  0
 16 11  2  0  0  0  0
 16 15  1  0  0  0  0
 17 11  1  0  0  0  0
 19 15  1  0  0  0  0
 19 21  1  0  0  0  0
 20 19  1  0  0  0  0
 22 19  1  0  0  0  0
 23 26  1  0  0  0  0
 23 25  2  0  0  0  0
 24 23  2  0  0  0  0
 26 28  1  0  0  0  0
 26 27  1  0  0  0  0
 29 30  1  0  0  0  0
 29 26  1  0  0  0  0
 30 31  1  0  0  0  0
 32 30  2  0  0  0  0
 33 32  1  0  0  0  0
 34 33  1  0  0  0  0
 35 33  2  0  0  0  0
 35 37  1  0  0  0  0
 36 35  1  0  0  0  0
 37 29  2  0  0  0  0
M  END
>  <minimizedAffinity>
-6.23173237

$$$$

 OpenBabel03272510053D

 37 39  0  0  0  0  0  0  0  0999 V2000
   39.0120   26.5880   33.8560 C   0  0  0  0  0  0  0  0  0  0  0  0
   38.9060   26.1260   32.5830 C   0  0  0  0  0  0  0  0  0  0  0  0
   39.9980   26.2190   31.7260 C   0  0  0  0  0  0  0  0  0  0  0  0
   41.2040   26.7670   32.1090 C   0  0  0  0  0  0  0  0  0  0  0  0
   41.3450   27.2470   33.3890 C   0  0  0  0  0  0  0  0  0  0  0  0
   40.2490   27.1400   34.2120 C   0  0  0  0  0  0  0  0  0  0  0  0
   39.8810   25.8330   30.7000 H   0  0  0  0  0  0  0  0  0  0  0  0
   41.9720   26.7870   31.3790 H   0  0  0  0  0  0  0  0  0  0  0  0
   42.2890   27.6590   33.6330 H   0  0  0  0  0  0  0  0  0  0  0  0
   40.4840   27.5580   35.1980 H   0  0  0  0  0  0  0  0  0  0  0  0
   35.5680   25.9250   31.0580 C   0  0  0  0  0  0  0  0  0  0  0  0
   36.7700   26.4180   31.5400 C   0  0  0  0  0  0  0  0  0  0  0  0
   37.6900   25.5800   32.0860 C   0  0  0  0  0  0  0  0  0  0  0  0
   37.3750   24.2550   32.1280 N   0  0  0  0  0  0  0  0  0  0  0  0
   36.2180   23.7720   31.6610 C   0  0  0  0  0  0  0  0  0  0  0  0
   35.3210   24.6100   31.1320 N   0  0  0  0  0  0  0  0  0  0  0  0
   34.7430   26.4380   30.6080 H   0  0  0  0  0  0  0  0  0  0  0  0
   36.7270   27.4600   31.3300 H   0  0  0  0  0  0  0  0  0  0  0  0
   36.0340   22.2970   31.7120 C   0  0  0  0  0  0  0  0  0  0  0  0
   35.2750   21.9060   32.7990 F   0  0  0  0  0  0  0  0  0  0  0  0
   35.2030   21.9020   30.5950 F   0  0  0  0  0  0  0  0  0  0  0  0
   37.1070   21.5500   31.5790 F   0  0  0  0  0  0  0  0  0  0  0  0
   37.7610   26.4940   35.0160 S   0  0  0  0  0  0  0  0  0  0  0  0
   36.7840   27.5970   34.8610 O   0  0  0  0  0  0  0  0  0  0  0  0
   38.4910   27.0890   36.2050 O   0  0  0  0  0  0  0  0  0  0  0  0
   37.3590   25.2040   36.0470 C   0  0  0  0  0  0  0  0  0  0  0  0
   37.1000   25.7270   37.0510 H   0  0  0  0  0  0  0  0  0  0  0  0
   36.3740   24.7480   35.8440 H   0  0  0  0  0  0  0  0  0  0  0  0
   38.4230   24.3110   36.4570 C   0  0  0  0  0  0  0  0  0  0  0  0
   38.3950   23.9410   37.7700 C   0  0  0  0  0  0  0  0  0  0  0  0
   37.6330   24.2790   38.4890 H   0  0  0  0  0  0  0  0  0  0  0  0
   39.3190   23.0900   38.3760 C   0  0  0  0  0  3  0  0  0  0  0  0
   40.3380   22.5920   37.5700 C   0  0  0  0  0  0  0  0  0  0  0  0
   41.0630   21.9310   38.0240 H   0  0  0  0  0  0  0  0  0  0  0  0
   40.3740   22.9610   36.2430 C   0  0  0  0  0  0  0  0  0  0  0  0
   41.1720   22.5680   35.6160 H   0  0  0  0  0  0  0  0  0  0  0  0
   39.4360   23.8060   35.6860 C   0  0  0  0  0  3  0  0  0  0  0  0
  1  6  1  0  0  0  0
  1 23  1  0  0  0  0
  2  1  2  0  0  0  0
  3  4  2  0  0  0  0
  3  2  1  0  0  0  0
  4  5  1  0  0  0  0
  5  9  1  0  0  0  0
  5  6  2  0  0  0  0
  6 10  1  0  0  0  0
  7  3  1  0  0  0  0
  8  4  1  0  0  0  0
 11 16  2  0  0  0  0
 11 12  1  0  0  0  0
 12 13  2  0  0  0  0
 13 14  1  0  0  0  0
 13  2  1  0  0  0  0
 15 19  1  0  0  0  0
 15 14  2  0  0  0  0
 16 15  1  0  0  0  0
 17 11  1  0  0  0  0
 18 12  1  0  0  0  0
 19 20  1  0  0  0  0
 21 19  1  0  0  0  0
 22 19  1  0  0  0  0
 23 26  1  0  0  0  0
 23 25  2  0  0  0  0
 24 23  2  0  0  0  0
 26 29  1  0  0  0  0
 26 27  1  0  0  0  0
 28 26  1  0  0  0  0
 29 30  1  0  0  0  0
 30 32  2  0  0  0  0
 30 31  1  0  0  0  0
 33 34  1  0  0  0  0
 33 32  1  0  0  0  0
 35 33  2  0  0  0  0
 36 35  1  0  0  0  0
 37 35  1  0  0  0  0
 37 29  2  0  0  0  0
M  END
>  <minimizedAffinity>
-6.17597866

$$$$

 OpenBabel03272510053D

 37 39  0  0  0  0  0  0  0  0999 V2000
   36.9500   27.4550   33.9430 C   0  0  0  0  0  0  0  0  0  0  0  0
   36.5890   27.2050   32.6570 C   0  0  0  0  0  0  0  0  0  0  0  0
   35.6900   28.0540   32.0190 C   0  0  0  0  0  0  0  0  0  0  0  0
   35.1350   29.1540   32.6360 C   0  0  0  0  0  0  0  0  0  0  0  0
   35.4750   29.4350   33.9380 C   0  0  0  0  0  0  0  0  0  0  0  0
   36.3660   28.5780   34.5410 C   0  0  0  0  0  0  0  0  0  0  0  0
   35.4200   27.8250   30.9750 H   0  0  0  0  0  0  0  0  0  0  0  0
   34.4630   29.7360   32.0600 H   0  0  0  0  0  0  0  0  0  0  0  0
   35.0200   30.2890   34.3680 H   0  0  0  0  0  0  0  0  0  0  0  0
   36.5530   28.9040   35.5710 H   0  0  0  0  0  0  0  0  0  0  0  0
   38.6700   25.1430   30.4380 C   0  0  0  0  0  0  0  0  0  0  0  0
   38.1710   26.2200   31.1530 C   0  0  0  0  0  0  0  0  0  0  0  0
   37.0810   26.0720   31.9510 C   0  0  0  0  0  0  0  0  0  0  0  0
   36.5210   24.8320   32.0130 N   0  0  0  0  0  0  0  0  0  0  0  0
   37.0000   23.7870   31.3290 C   0  0  0  0  0  0  0  0  0  0  0  0
   38.0690   23.9500   30.5430 N   0  0  0  0  0  0  0  0  0  0  0  0
   39.5050   25.0870   29.7700 H   0  0  0  0  0  0  0  0  0  0  0  0
   38.8380   27.0160   30.9250 H   0  0  0  0  0  0  0  0  0  0  0  0
   36.3280   22.4770   31.5410 C   0  0  0  0  0  0  0  0  0  0  0  0
   35.2280   22.3190   30.7190 F   0  0  0  0  0  0  0  0  0  0  0  0
   37.2140   21.4300   31.0790 F   0  0  0  0  0  0  0  0  0  0  0  0
   36.0590   22.1300   32.7790 F   0  0  0  0  0  0  0  0  0  0  0  0
   38.0740   26.5160   34.8220 S   0  0  0  0  0  0  0  0  0  0  0  0
   38.2450   27.0160   36.2070 O   0  0  0  0  0  0  0  0  0  0  0  0
   39.3590   27.1080   34.2760 O   0  0  0  0  0  0  0  0  0  0  0  0
   38.7330   25.0000   34.4280 C   0  0  0  0  0  0  0  0  0  0  0  0
   37.8050   24.3670   34.1330 H   0  0  0  0  0  0  0  0  0  0  0  0
   39.2620   24.9700   33.4590 H   0  0  0  0  0  0  0  0  0  0  0  0
   39.2890   24.2050   35.5030 C   0  0  0  0  0  0  0  0  0  0  0  0
   40.6080   23.8860   35.3660 C   0  0  0  0  0  0  0  0  0  0  0  0
   41.2310   24.1960   34.5130 H   0  0  0  0  0  0  0  0  0  0  0  0
   41.3430   23.1320   36.2810 C   0  0  0  0  0  3  0  0  0  0  0  0
   40.6670   22.6780   37.4090 C   0  0  0  0  0  0  0  0  0  0  0  0
   41.2220   22.0910   38.1270 H   0  0  0  0  0  0  0  0  0  0  0  0
   39.3340   22.9950   37.5550 C   0  0  0  0  0  0  0  0  0  0  0  0
   38.8090   22.6380   38.4390 H   0  0  0  0  0  0  0  0  0  0  0  0
   38.6470   23.7460   36.6230 C   0  0  0  0  0  3  0  0  0  0  0  0
  1  6  1  0  0  0  0
  1 23  1  0  0  0  0
  2  1  2  0  0  0  0
  3  4  2  0  0  0  0
  3  2  1  0  0  0  0
  4  5  1  0  0  0  0
  5  9  1  0  0  0  0
  5  6  2  0  0  0  0
  6 10  1  0  0  0  0
  7  3  1  0  0  0  0
  8  4  1  0  0  0  0
 11 16  2  0  0  0  0
 11 12  1  0  0  0  0
 12 13  2  0  0  0  0
 13 14  1  0  0  0  0
 13  2  1  0  0  0  0
 15 19  1  0  0  0  0
 15 14  2  0  0  0  0
 16 15  1  0  0  0  0
 17 11  1  0  0  0  0
 18 12  1  0  0  0  0
 19 22  1  0  0  0  0
 20 19  1  0  0  0  0
 21 19  1  0  0  0  0
 23 24  2  0  0  0  0
 25 23  2  0  0  0  0
 26 23  1  0  0  0  0
 26 29  1  0  0  0  0
 27 26  1  0  0  0  0
 28 26  1  0  0  0  0
 29 37  1  0  0  0  0
 30 29  2  0  0  0  0
 30 32  1  0  0  0  0
 31 30  1  0  0  0  0
 32 33  2  0  0  0  0
 33 35  1  0  0  0  0
 33 34  1  0  0  0  0
 35 36  1  0  0  0  0
 37 35  2  0  0  0  0
M  END
>  <minimizedAffinity>
-5.97328949

$$$$

 OpenBabel03272510053D

 37 39  0  0  0  0  0  0  0  0999 V2000
   34.2900   30.2770   32.1590 C   0  0  0  0  0  0  0  0  0  0  0  0
   35.4670   29.7470   31.7330 C   0  0  0  0  0  0  0  0  0  0  0  0
   36.2760   30.4770   30.8680 C   0  0  0  0  0  0  0  0  0  0  0  0
   35.9370   31.7330   30.4100 C   0  0  0  0  0  0  0  0  0  0  0  0
   34.7520   32.2970   30.8190 C   0  0  0  0  0  0  0  0  0  0  0  0
   33.9760   31.5520   31.6740 C   0  0  0  0  0  0  0  0  0  0  0  0
   37.2240   30.0200   30.5430 H   0  0  0  0  0  0  0  0  0  0  0  0
   36.6250   32.2030   29.7560 H   0  0  0  0  0  0  0  0  0  0  0  0
   34.5370   33.2620   30.4380 H   0  0  0  0  0  0  0  0  0  0  0  0
   33.0620   32.1050   31.9220 H   0  0  0  0  0  0  0  0  0  0  0  0
   37.0610   27.0480   33.6520 C   0  0  0  0  0  0  0  0  0  0  0  0
   36.6250   28.3010   33.2500 C   0  0  0  0  0  0  0  0  0  0  0  0
   35.8820   28.4420   32.1210 C   0  0  0  0  0  0  0  0  0  0  0  0
   35.5880   27.3090   31.4250 N   0  0  0  0  0  0  0  0  0  0  0  0
   36.0010   26.0960   31.8100 C   0  0  0  0  0  0  0  0  0  0  0  0
   36.7370   25.9740   32.9190 N   0  0  0  0  0  0  0  0  0  0  0  0
   37.6490   26.7620   34.5000 H   0  0  0  0  0  0  0  0  0  0  0  0
   36.9790   28.9550   34.0090 H   0  0  0  0  0  0  0  0  0  0  0  0
   35.5530   24.9390   30.9890 C   0  0  0  0  0  0  0  0  0  0  0  0
   36.6170   24.2670   30.4160 F   0  0  0  0  0  0  0  0  0  0  0  0
   34.9960   23.9400   31.8760 F   0  0  0  0  0  0  0  0  0  0  0  0
   34.5920   25.1530   30.1200 F   0  0  0  0  0  0  0  0  0  0  0  0
   33.2310   29.5010   33.2530 S   0  0  0  0  0  0  0  0  0  0  0  0
   32.3930   28.4820   32.5770 O   0  0  0  0  0  0  0  0  0  0  0  0
   32.1550   30.5660   33.3400 O   0  0  0  0  0  0  0  0  0  0  0  0
   33.2460   29.5310   34.9520 C   0  0  0  0  0  0  0  0  0  0  0  0
   32.1370   29.7380   35.2310 H   0  0  0  0  0  0  0  0  0  0  0  0
   33.3480   28.5390   35.4250 H   0  0  0  0  0  0  0  0  0  0  0  0
   33.9140   30.6390   35.6010 C   0  0  0  0  0  0  0  0  0  0  0  0
   33.1610   31.3130   36.5190 C   0  0  0  0  0  0  0  0  0  0  0  0
   32.1200   31.0570   36.7680 H   0  0  0  0  0  0  0  0  0  0  0  0
   33.6040   32.4080   37.2600 C   0  0  0  0  0  3  0  0  0  0  0  0
   34.9100   32.8330   37.0360 C   0  0  0  0  0  0  0  0  0  0  0  0
   35.2690   33.6810   37.6030 H   0  0  0  0  0  0  0  0  0  0  0  0
   35.6770   32.1580   36.1120 C   0  0  0  0  0  0  0  0  0  0  0  0
   36.6980   32.4930   35.9400 H   0  0  0  0  0  0  0  0  0  0  0  0
   35.1960   31.0770   35.4010 C   0  0  0  0  0  3  0  0  0  0  0  0
  1 23  1  0  0  0  0
  2 13  1  0  0  0  0
  2  1  1  0  0  0  0
  3  2  2  0  0  0  0
  4  5  2  0  0  0  0
  4  3  1  0  0  0  0
  5  6  1  0  0  0  0
  6 10  1  0  0  0  0
  6  1  2  0  0  0  0
  7  3  1  0  0  0  0
  8  4  1  0  0  0  0
  9  5  1  0  0  0  0
 11 17  1  0  0  0  0
 12 11  1  0  0  0  0
 12 18  1  0  0  0  0
 13 12  2  0  0  0  0
 14 15  2  0  0  0  0
 14 13  1  0  0  0  0
 15 16  1  0  0  0  0
 16 11  2  0  0  0  0
 19 15  1  0  0  0  0
 19 21  1  0  0  0  0
 20 19  1  0  0  0  0
 22 19  1  0  0  0  0
 23 25  2  0  0  0  0
 23 26  1  0  0  0  0
 24 23  2  0  0  0  0
 26 27  1  0  0  0  0
 26 28  1  0  0  0  0
 26 29  1  0  0  0  0
 29 30  1  0  0  0  0
 30 31  1  0  0  0  0
 30 32  2  0  0  0  0
 33 32  1  0  0  0  0
 33 34  1  0  0  0  0
 35 33  2  0  0  0  0
 36 35  1  0  0  0  0
 37 29  2  0  0  0  0
 37 35  1  0  0  0  0
M  END
>  <minimizedAffinity>
-5.97240686

$$$$

 OpenBabel03272510053D

 37 39  0  0  0  0  0  0  0  0999 V2000
   37.7210   26.4730   33.0660 C   0  0  0  0  0  0  0  0  0  0  0  0
   38.2260   26.5730   34.3230 C   0  0  0  0  0  0  0  0  0  0  0  0
   37.7370   27.5510   35.1840 C   0  0  0  0  0  0  0  0  0  0  0  0
   36.7500   28.4410   34.8180 C   0  0  0  0  0  0  0  0  0  0  0  0
   36.2190   28.3700   33.5530 C   0  0  0  0  0  0  0  0  0  0  0  0
   36.7220   27.3930   32.7270 C   0  0  0  0  0  0  0  0  0  0  0  0
   38.1660   27.6050   36.1970 H   0  0  0  0  0  0  0  0  0  0  0  0
   36.4480   29.1450   35.5500 H   0  0  0  0  0  0  0  0  0  0  0  0
   35.4650   29.0770   33.3210 H   0  0  0  0  0  0  0  0  0  0  0  0
   36.2230   27.4400   31.7510 H   0  0  0  0  0  0  0  0  0  0  0  0
   41.6070   25.2590   34.9160 C   0  0  0  0  0  0  0  0  0  0  0  0
   40.5600   26.0680   34.5030 C   0  0  0  0  0  0  0  0  0  0  0  0
   39.2740   25.7240   34.7770 C   0  0  0  0  0  0  0  0  0  0  0  0
   39.0740   24.5680   35.4690 N   0  0  0  0  0  0  0  0  0  0  0  0
   40.0800   23.7840   35.8740 C   0  0  0  0  0  0  0  0  0  0  0  0
   41.3390   24.1340   35.5920 N   0  0  0  0  0  0  0  0  0  0  0  0
   42.6630   25.3770   34.7830 H   0  0  0  0  0  0  0  0  0  0  0  0
   41.0380   26.8940   34.0350 H   0  0  0  0  0  0  0  0  0  0  0  0
   39.7200   22.5850   36.6760 C   0  0  0  0  0  0  0  0  0  0  0  0
   40.6580   22.3150   37.6550 F   0  0  0  0  0  0  0  0  0  0  0  0
   38.5390   22.8940   37.4540 F   0  0  0  0  0  0  0  0  0  0  0  0
   39.3820   21.4990   36.0190 F   0  0  0  0  0  0  0  0  0  0  0  0
   38.2050   25.2910   31.9310 S   0  0  0  0  0  0  0  0  0  0  0  0
   39.6790   25.2350   31.7900 O   0  0  0  0  0  0  0  0  0  0  0  0
   37.9490   26.0670   30.6530 O   0  0  0  0  0  0  0  0  0  0  0  0
   37.2840   24.0460   31.2320 C   0  0  0  0  0  0  0  0  0  0  0  0
   36.2730   24.5620   30.9810 H   0  0  0  0  0  0  0  0  0  0  0  0
   37.5860   23.7770   30.2040 H   0  0  0  0  0  0  0  0  0  0  0  0
   36.8460   22.9660   32.0900 C   0  0  0  0  0  0  0  0  0  0  0  0
   35.6760   22.3680   31.7200 C   0  0  0  0  0  0  0  0  0  0  0  0
   35.0860   22.6630   30.8390 H   0  0  0  0  0  0  0  0  0  0  0  0
   35.0740   21.3110   32.4010 C   0  0  0  0  0  3  0  0  0  0  0  0
   35.7240   20.8430   33.5390 C   0  0  0  0  0  0  0  0  0  0  0  0
   35.2700   20.0240   34.0780 H   0  0  0  0  0  0  0  0  0  0  0  0
   36.9050   21.4410   33.9200 C   0  0  0  0  0  0  0  0  0  0  0  0
   37.4100   21.0720   34.8100 H   0  0  0  0  0  0  0  0  0  0  0  0
   37.4660   22.4860   33.2140 C   0  0  0  0  0  3  0  0  0  0  0  0
  1  2  1  0  0  0  0
  2 13  1  0  0  0  0
  2  3  2  0  0  0  0
  3  7  1  0  0  0  0
  4  3  1  0  0  0  0
  4  8  1  0  0  0  0
  5  4  2  0  0  0  0
  6  1  2  0  0  0  0
  6  5  1  0  0  0  0
  9  5  1  0  0  0  0
 10  6  1  0  0  0  0
 11 16  1  0  0  0  0
 12 13  1  0  0  0  0
 12 11  2  0  0  0  0
 13 14  2  0  0  0  0
 14 15  1  0  0  0  0
 15 19  1  0  0  0  0
 16 15  2  0  0  0  0
 17 11  1  0  0  0  0
 18 12  1  0  0  0  0
 19 21  1  0  0  0  0
 19 20  1  0  0  0  0
 22 19  1  0  0  0  0
 23  1  1  0  0  0  0
 24 23  2  0  0  0  0
 25 23  2  0  0  0  0
 26 23  1  0  0  0  0
 26 29  1  0  0  0  0
 27 26  1  0  0  0  0
 28 26  1  0  0  0  0
 29 37  1  0  0  0  0
 30 29  2  0  0  0  0
 30 32  1  0  0  0  0
 31 30  1  0  0  0  0
 32 33  2  0  0  0  0
 33 35  1  0  0  0  0
 33 34  1  0  0  0  0
 35 36  1  0  0  0  0
 37 35  2  0  0  0  0
M  END
>  <minimizedAffinity>
-5.86772966

$$$$

 OpenBabel03272510053D

 37 39  0  0  0  0  0  0  0  0999 V2000
   38.7280   25.2610   33.5830 C   0  0  0  0  0  0  0  0  0  0  0  0
   38.1970   25.4100   34.8250 C   0  0  0  0  0  0  0  0  0  0  0  0
   37.3340   26.4720   35.0790 C   0  0  0  0  0  0  0  0  0  0  0  0
   36.9870   27.3980   34.1190 C   0  0  0  0  0  0  0  0  0  0  0  0
   37.5090   27.2790   32.8530 C   0  0  0  0  0  0  0  0  0  0  0  0
   38.3570   26.2190   32.6330 C   0  0  0  0  0  0  0  0  0  0  0  0
   36.9190   26.5650   36.0950 H   0  0  0  0  0  0  0  0  0  0  0  0
   36.3210   28.1670   34.4160 H   0  0  0  0  0  0  0  0  0  0  0  0
   37.2130   28.0160   32.1530 H   0  0  0  0  0  0  0  0  0  0  0  0
   38.7070   26.2350   31.5930 H   0  0  0  0  0  0  0  0  0  0  0  0
   37.9070   23.4780   37.9370 C   0  0  0  0  0  0  0  0  0  0  0  0
   37.6150   24.3200   36.8760 C   0  0  0  0  0  0  0  0  0  0  0  0
   38.5280   24.5270   35.8900 C   0  0  0  0  0  0  0  0  0  0  0  0
   39.7160   23.8710   35.9960 N   0  0  0  0  0  0  0  0  0  0  0  0
   40.0020   23.0530   37.0160 C   0  0  0  0  0  0  0  0  0  0  0  0
   39.0970   22.8640   37.9810 N   0  0  0  0  0  0  0  0  0  0  0  0
   37.3130   23.2100   38.7870 H   0  0  0  0  0  0  0  0  0  0  0  0
   36.6180   24.6380   37.0620 H   0  0  0  0  0  0  0  0  0  0  0  0
   41.3140   22.3520   36.9710 C   0  0  0  0  0  0  0  0  0  0  0  0
   41.3890   21.3330   37.9030 F   0  0  0  0  0  0  0  0  0  0  0  0
   41.4040   21.6340   35.7180 F   0  0  0  0  0  0  0  0  0  0  0  0
   42.3960   23.0960   36.9800 F   0  0  0  0  0  0  0  0  0  0  0  0
   39.7640   23.9780   33.1330 S   0  0  0  0  0  0  0  0  0  0  0  0
   41.1840   24.2910   33.4210 O   0  0  0  0  0  0  0  0  0  0  0  0
   39.8380   24.2420   31.6420 O   0  0  0  0  0  0  0  0  0  0  0  0
   39.3610   22.3800   32.7200 C   0  0  0  0  0  0  0  0  0  0  0  0
   39.7150   22.2850   31.6180 H   0  0  0  0  0  0  0  0  0  0  0  0
   40.0190   21.6130   33.1670 H   0  0  0  0  0  0  0  0  0  0  0  0
   37.9580   22.0470   32.5970 C   0  0  0  0  0  0  0  0  0  0  0  0
   37.3990   21.4720   33.7020 C   0  0  0  0  0  0  0  0  0  0  0  0
   37.9480   21.2640   34.6320 H   0  0  0  0  0  0  0  0  0  0  0  0
   36.0660   21.0740   33.8020 C   0  0  0  0  0  3  0  0  0  0  0  0
   35.2600   21.2840   32.6870 C   0  0  0  0  0  0  0  0  0  0  0  0
   34.2250   20.9800   32.7480 H   0  0  0  0  0  0  0  0  0  0  0  0
   35.8170   21.8640   31.5670 C   0  0  0  0  0  0  0  0  0  0  0  0
   35.1840   22.0260   30.6980 H   0  0  0  0  0  0  0  0  0  0  0  0
   37.1430   22.2430   31.5140 C   0  0  0  0  0  3  0  0  0  0  0  0
  1  2  1  0  0  0  0
  2  3  2  0  0  0  0
  2 13  1  0  0  0  0
  3  7  1  0  0  0  0
  4  8  1  0  0  0  0
  4  3  1  0  0  0  0
  5  4  2  0  0  0  0
  6  5  1  0  0  0  0
  6  1  2  0  0  0  0
  9  5  1  0  0  0  0
 10  6  1  0  0  0  0
 11 16  1  0  0  0  0
 11 17  1  0  0  0  0
 12 18  1  0  0  0  0
 12 11  2  0  0  0  0
 13 14  2  0  0  0  0
 13 12  1  0  0  0  0
 14 15  1  0  0  0  0
 15 16  2  0  0  0  0
 19 22  1  0  0  0  0
 19 15  1  0  0  0  0
 19 20  1  0  0  0  0
 21 19  1  0  0  0  0
 23 24  2  0  0  0  0
 23  1  1  0  0  0  0
 25 23  2  0  0  0  0
 26 23  1  0  0  0  0
 26 28  1  0  0  0  0
 27 26  1  0  0  0  0
 29 26  1  0  0  0  0
 29 30  1  0  0  0  0
 30 32  2  0  0  0  0
 30 31  1  0  0  0  0
 33 34  1  0  0  0  0
 33 32  1  0  0  0  0
 35 33  2  0  0  0  0
 36 35  1  0  0  0  0
 37 35  1  0  0  0  0
 37 29  2  0  0  0  0
M  END
>  <minimizedAffinity>
-5.81133556

$$$$

 OpenBabel03272510053D

 37 39  0  0  0  0  0  0  0  0999 V2000
   38.7100   26.3440   33.0750 C   0  0  0  0  0  0  0  0  0  0  0  0
   37.8410   25.3030   33.1570 C   0  0  0  0  0  0  0  0  0  0  0  0
   36.6770   25.3180   32.3940 C   0  0  0  0  0  0  0  0  0  0  0  0
   36.3560   26.3560   31.5450 C   0  0  0  0  0  0  0  0  0  0  0  0
   37.2120   27.4260   31.4400 C   0  0  0  0  0  0  0  0  0  0  0  0
   38.3520   27.3800   32.2060 C   0  0  0  0  0  0  0  0  0  0  0  0
   35.9940   24.4590   32.4810 H   0  0  0  0  0  0  0  0  0  0  0  0
   35.4470   26.2670   31.0070 H   0  0  0  0  0  0  0  0  0  0  0  0
   36.9180   28.1970   30.7760 H   0  0  0  0  0  0  0  0  0  0  0  0
   38.9470   28.2870   32.0380 H   0  0  0  0  0  0  0  0  0  0  0  0
   38.5270   21.8860   34.3230 C   0  0  0  0  0  0  0  0  0  0  0  0
   38.3140   22.9810   33.5010 C   0  0  0  0  0  0  0  0  0  0  0  0
   38.0690   24.2060   34.0350 C   0  0  0  0  0  0  0  0  0  0  0  0
   38.0490   24.2990   35.3940 N   0  0  0  0  0  0  0  0  0  0  0  0
   38.2580   23.2470   36.1930 C   0  0  0  0  0  0  0  0  0  0  0  0
   38.4920   22.0470   35.6530 N   0  0  0  0  0  0  0  0  0  0  0  0
   38.7270   20.8640   34.0720 H   0  0  0  0  0  0  0  0  0  0  0  0
   38.4310   22.5950   32.5170 H   0  0  0  0  0  0  0  0  0  0  0  0
   38.2720   23.5050   37.6580 C   0  0  0  0  0  0  0  0  0  0  0  0
   39.5230   23.2960   38.2090 F   0  0  0  0  0  0  0  0  0  0  0  0
   38.0700   24.9220   37.8730 F   0  0  0  0  0  0  0  0  0  0  0  0
   37.3280   22.9450   38.3790 F   0  0  0  0  0  0  0  0  0  0  0  0
   40.1900   26.4240   33.9270 S   0  0  0  0  0  0  0  0  0  0  0  0
   40.0340   27.1010   35.2370 O   0  0  0  0  0  0  0  0  0  0  0  0
   40.8160   27.6030   33.2080 O   0  0  0  0  0  0  0  0  0  0  0  0
   41.6430   25.6010   33.6150 C   0  0  0  0  0  0  0  0  0  0  0  0
   41.3250   24.7470   32.8950 H   0  0  0  0  0  0  0  0  0  0  0  0
   42.3340   26.1340   32.9380 H   0  0  0  0  0  0  0  0  0  0  0  0
   42.2390   24.8500   34.7000 C   0  0  0  0  0  0  0  0  0  0  0  0
   43.4060   25.3630   35.1880 C   0  0  0  0  0  0  0  0  0  0  0  0
   43.8830   26.2780   34.8070 H   0  0  0  0  0  0  0  0  0  0  0  0
   44.1470   24.8020   36.2280 C   0  0  0  0  0  3  0  0  0  0  0  0
   43.6480   23.6350   36.7990 C   0  0  0  0  0  0  0  0  0  0  0  0
   44.2100   23.1890   37.6070 H   0  0  0  0  0  0  0  0  0  0  0  0
   42.4700   23.1110   36.3120 C   0  0  0  0  0  0  0  0  0  0  0  0
   42.0830   22.1980   36.7610 H   0  0  0  0  0  0  0  0  0  0  0  0
   41.7700   23.7010   35.2800 C   0  0  0  0  0  3  0  0  0  0  0  0
  1  2  1  0  0  0  0
  1 23  1  0  0  0  0
  2 13  1  0  0  0  0
  3  7  1  0  0  0  0
  3  2  2  0  0  0  0
  4  3  1  0  0  0  0
  5  4  2  0  0  0  0
  5  6  1  0  0  0  0
  6  1  2  0  0  0  0
  8  4  1  0  0  0  0
  9  5  1  0  0  0  0
 10  6  1  0  0  0  0
 11 16  1  0  0  0  0
 12 13  1  0  0  0  0
 12 11  2  0  0  0  0
 13 14  2  0  0  0  0
 14 15  1  0  0  0  0
 15 19  1  0  0  0  0
 16 15  2  0  0  0  0
 17 11  1  0  0  0  0
 18 12  1  0  0  0  0
 19 21  1  0  0  0  0
 19 20  1  0  0  0  0
 19 22  1  0  0  0  0
 23 24  2  0  0  0  0
 25 23  2  0  0  0  0
 26 23  1  0  0  0  0
 26 29  1  0  0  0  0
 27 26  1  0  0  0  0
 28 26  1  0  0  0  0
 29 30  2  0  0  0  0
 29 37  1  0  0  0  0
 30 32  1  0  0  0  0
 31 30  1  0  0  0  0
 32 33  2  0  0  0  0
 33 34  1  0  0  0  0
 35 36  1  0  0  0  0
 35 33  1  0  0  0  0
 37 35  2  0  0  0  0
M  END
>  <minimizedAffinity>
-5.75825357

$$$$

 OpenBabel03272510053D

 37 39  0  0  0  0  0  0  0  0999 V2000
   34.2900   30.2880   32.1350 C   0  0  0  0  0  0  0  0  0  0  0  0
   35.5170   29.8290   31.7750 C   0  0  0  0  0  0  0  0  0  0  0  0
   36.3010   30.5760   30.9020 C   0  0  0  0  0  0  0  0  0  0  0  0
   35.8880   31.7800   30.3720 C   0  0  0  0  0  0  0  0  0  0  0  0
   34.6510   32.2730   30.7130 C   0  0  0  0  0  0  0  0  0  0  0  0
   33.9010   31.5120   31.5790 C   0  0  0  0  0  0  0  0  0  0  0  0
   37.2910   30.1770   30.6300 H   0  0  0  0  0  0  0  0  0  0  0  0
   36.5630   32.2700   29.7190 H   0  0  0  0  0  0  0  0  0  0  0  0
   34.3800   33.2000   30.2790 H   0  0  0  0  0  0  0  0  0  0  0  0
   32.9410   32.0070   31.7690 H   0  0  0  0  0  0  0  0  0  0  0  0
   36.3010   26.2390   31.8850 C   0  0  0  0  0  0  0  0  0  0  0  0
   35.8450   27.4780   31.4600 C   0  0  0  0  0  0  0  0  0  0  0  0
   36.0120   28.5780   32.2400 C   0  0  0  0  0  0  0  0  0  0  0  0
   36.6430   28.4030   33.4340 N   0  0  0  0  0  0  0  0  0  0  0  0
   37.0890   27.2120   33.8480 C   0  0  0  0  0  0  0  0  0  0  0  0
   36.9120   26.1380   33.0720 N   0  0  0  0  0  0  0  0  0  0  0  0
   36.2490   25.2840   31.4040 H   0  0  0  0  0  0  0  0  0  0  0  0
   35.4440   27.2900   30.4930 H   0  0  0  0  0  0  0  0  0  0  0  0
   37.8180   27.1780   35.1450 C   0  0  0  0  0  0  0  0  0  0  0  0
   37.5430   26.0300   35.8640 F   0  0  0  0  0  0  0  0  0  0  0  0
   39.2320   27.0430   34.8700 F   0  0  0  0  0  0  0  0  0  0  0  0
   37.7500   28.2500   35.9020 F   0  0  0  0  0  0  0  0  0  0  0  0
   33.2510   29.4870   33.2310 S   0  0  0  0  0  0  0  0  0  0  0  0
   32.4420   28.4440   32.5580 O   0  0  0  0  0  0  0  0  0  0  0  0
   32.1460   30.5220   33.3130 O   0  0  0  0  0  0  0  0  0  0  0  0
   33.2640   29.5230   34.9290 C   0  0  0  0  0  0  0  0  0  0  0  0
   32.1540   29.7260   35.2070 H   0  0  0  0  0  0  0  0  0  0  0  0
   33.3700   28.5320   35.4060 H   0  0  0  0  0  0  0  0  0  0  0  0
   33.9260   30.6350   35.5770 C   0  0  0  0  0  0  0  0  0  0  0  0
   33.1720   31.3050   36.4960 C   0  0  0  0  0  0  0  0  0  0  0  0
   32.1340   31.0420   36.7490 H   0  0  0  0  0  0  0  0  0  0  0  0
   33.6090   32.4030   37.2350 C   0  0  0  0  0  3  0  0  0  0  0  0
   34.9120   32.8370   37.0070 C   0  0  0  0  0  0  0  0  0  0  0  0
   35.2660   33.6880   37.5720 H   0  0  0  0  0  0  0  0  0  0  0  0
   35.6800   32.1670   36.0800 C   0  0  0  0  0  0  0  0  0  0  0  0
   36.6980   32.5100   35.9050 H   0  0  0  0  0  0  0  0  0  0  0  0
   35.2050   31.0830   35.3720 C   0  0  0  0  0  3  0  0  0  0  0  0
  1 23  1  0  0  0  0
  2  1  1  0  0  0  0
  2 13  1  0  0  0  0
  3  2  2  0  0  0  0
  4  5  2  0  0  0  0
  4  3  1  0  0  0  0
  5  6  1  0  0  0  0
  6 10  1  0  0  0  0
  6  1  2  0  0  0  0
  7  3  1  0  0  0  0
  8  4  1  0  0  0  0
  9  5  1  0  0  0  0
 11 16  1  0  0  0  0
 12 11  2  0  0  0  0
 12 13  1  0  0  0  0
 13 14  2  0  0  0  0
 14 15  1  0  0  0  0
 15 19  1  0  0  0  0
 16 15  2  0  0  0  0
 17 11  1  0  0  0  0
 18 12  1  0  0  0  0
 19 20  1  0  0  0  0
 19 22  1  0  0  0  0
 21 19  1  0  0  0  0
 23 25  2  0  0  0  0
 23 26  1  0  0  0  0
 24 23  2  0  0  0  0
 26 27  1  0  0  0  0
 26 28  1  0  0  0  0
 26 29  1  0  0  0  0
 29 30  1  0  0  0  0
 30 31  1  0  0  0  0
 30 32  2  0  0  0  0
 33 32  1  0  0  0  0
 33 34  1  0  0  0  0
 35 33  2  0  0  0  0
 36 35  1  0  0  0  0
 37 29  2  0  0  0  0
 37 35  1  0  0  0  0
M  END
>  <minimizedAffinity>
-5.74638748

$$$$
