
 OpenBabel03272508033D

 28 30  0  0  0  0  0  0  0  0999 V2000
   37.6050   25.4810   33.9370 C   0  0  0  0  0  0  0  0  0  0  0  0
   37.4010   25.4190   32.5820 C   0  0  0  0  0  0  0  0  0  0  0  0
   36.8700   26.6420   32.1240 C   0  0  0  0  0  0  0  0  0  0  0  0
   36.7810   27.3910   33.2550 N   0  0  0  0  0  0  0  0  0  0  0  0
   37.2080   26.7080   34.2850 N   0  0  0  0  0  0  0  0  0  0  0  0
   37.5990   24.5850   31.9170 H   0  0  0  0  0  0  0  0  0  0  0  0
   36.6000   26.9080   31.1030 H   0  0  0  0  0  0  0  0  0  0  0  0
   36.2690   28.7290   33.1650 C   0  0  0  0  0  0  0  0  0  0  0  0
   36.2690   29.3640   31.9380 C   0  0  0  0  0  0  0  0  0  0  0  0
   36.6280   28.9240   31.0410 H   0  0  0  0  0  0  0  0  0  0  0  0
   35.7460   30.6500   31.9960 C   0  0  0  0  0  3  0  0  0  0  0  0
   35.2630   31.2780   33.1270 C   0  0  0  0  0  0  0  0  0  0  0  0
   34.8780   32.2860   33.0530 H   0  0  0  0  0  0  0  0  0  0  0  0
   35.3140   30.5460   34.2970 C   0  0  0  0  0  0  0  0  0  0  0  0
   34.9420   31.0060   35.2160 H   0  0  0  0  0  0  0  0  0  0  0  0
   35.8130   29.2620   34.3530 C   0  0  0  0  0  3  0  0  0  0  0  0
   38.1410   24.4320   34.8040 C   0  0  0  0  0  0  0  0  0  0  0  0
   37.9580   24.5760   36.1950 C   0  0  0  0  0  0  0  0  0  0  0  0
   38.4710   23.5740   37.0200 C   0  0  0  0  0  0  0  0  0  0  0  0
   39.1100   22.5290   36.4370 N   0  0  0  0  0  0  0  0  0  0  0  0
   39.2660   22.4230   35.1050 C   0  0  0  0  0  0  0  0  0  0  0  0
   38.7750   23.3860   34.3040 N   0  0  0  0  0  0  0  0  0  0  0  0
   37.4390   25.4400   36.5640 H   0  0  0  0  0  0  0  0  0  0  0  0
   39.7910   21.5490   34.7430 H   0  0  0  0  0  0  0  0  0  0  0  0
   38.2950   23.6950   38.4920 C   0  0  0  0  0  0  0  0  0  0  0  0
   39.5460   23.4470   39.0430 F   0  0  0  0  0  0  0  0  0  0  0  0
   37.8810   24.9520   38.8790 F   0  0  0  0  0  0  0  0  0  0  0  0
   37.4090   22.7520   38.9830 F   0  0  0  0  0  0  0  0  0  0  0  0
  1  5  2  0  0  0  0
  1 17  1  0  0  0  0
  2  1  1  0  0  0  0
  3  2  2  0  0  0  0
  3  4  1  0  0  0  0
  4  5  1  0  0  0  0
  6  2  1  0  0  0  0
  7  3  1  0  0  0  0
  8  4  1  0  0  0  0
  8 16  1  0  0  0  0
  9 11  1  0  0  0  0
  9  8  2  0  0  0  0
 10  9  1  0  0  0  0
 11 12  2  0  0  0  0
 12 14  1  0  0  0  0
 13 12  1  0  0  0  0
 14 16  2  0  0  0  0
 14 15  1  0  0  0  0
 17 18  1  0  0  0  0
 18 23  1  0  0  0  0
 18 19  2  0  0  0  0
 19 25  1  0  0  0  0
 20 19  1  0  0  0  0
 21 20  2  0  0  0  0
 22 17  2  0  0  0  0
 22 21  1  0  0  0  0
 24 21  1  0  0  0  0
 25 27  1  0  0  0  0
 25 28  1  0  0  0  0
 25 26  1  0  0  0  0
M  END
>  <minimizedAffinity>
-5.88905334

$$$$

 OpenBabel03272508033D

 28 30  0  0  0  0  0  0  0  0999 V2000
   37.6630   26.0750   34.1910 C   0  0  0  0  0  0  0  0  0  0  0  0
   36.9440   27.1390   34.6740 C   0  0  0  0  0  0  0  0  0  0  0  0
   36.7680   28.0960   33.6540 C   0  0  0  0  0  0  0  0  0  0  0  0
   37.4060   27.5440   32.5880 N   0  0  0  0  0  0  0  0  0  0  0  0
   37.9130   26.3840   32.9170 N   0  0  0  0  0  0  0  0  0  0  0  0
   36.5480   27.2750   35.6740 H   0  0  0  0  0  0  0  0  0  0  0  0
   36.2420   29.0480   33.7200 H   0  0  0  0  0  0  0  0  0  0  0  0
   37.4300   28.2590   31.3440 C   0  0  0  0  0  0  0  0  0  0  0  0
   36.6140   29.3630   31.1920 C   0  0  0  0  0  0  0  0  0  0  0  0
   35.9580   29.7270   31.9440 H   0  0  0  0  0  0  0  0  0  0  0  0
   36.7390   29.9580   29.9420 C   0  0  0  0  0  3  0  0  0  0  0  0
   37.5710   29.5370   28.9230 C   0  0  0  0  0  0  0  0  0  0  0  0
   37.5850   30.0800   27.9880 H   0  0  0  0  0  0  0  0  0  0  0  0
   38.3400   28.4210   29.1900 C   0  0  0  0  0  0  0  0  0  0  0  0
   39.0120   28.0530   28.4110 H   0  0  0  0  0  0  0  0  0  0  0  0
   38.2950   27.7530   30.3960 C   0  0  0  0  0  3  0  0  0  0  0  0
   38.0650   24.8710   34.9190 C   0  0  0  0  0  0  0  0  0  0  0  0
   37.9480   24.8870   36.3240 C   0  0  0  0  0  0  0  0  0  0  0  0
   38.3330   23.7370   37.0150 C   0  0  0  0  0  0  0  0  0  0  0  0
   38.7930   22.6810   36.2970 N   0  0  0  0  0  0  0  0  0  0  0  0
   38.8910   22.7010   34.9560 C   0  0  0  0  0  0  0  0  0  0  0  0
   38.5220   23.8070   34.2840 N   0  0  0  0  0  0  0  0  0  0  0  0
   37.5740   25.7700   36.8040 H   0  0  0  0  0  0  0  0  0  0  0  0
   39.2700   21.8060   34.4810 H   0  0  0  0  0  0  0  0  0  0  0  0
   38.2230   23.7190   38.4980 C   0  0  0  0  0  0  0  0  0  0  0  0
   39.4940   23.4180   38.9680 F   0  0  0  0  0  0  0  0  0  0  0  0
   37.8340   24.9350   39.0200 F   0  0  0  0  0  0  0  0  0  0  0  0
   37.3530   22.7360   38.9370 F   0  0  0  0  0  0  0  0  0  0  0  0
  1  2  1  0  0  0  0
  1 17  1  0  0  0  0
  2  6  1  0  0  0  0
  3  7  1  0  0  0  0
  3  2  2  0  0  0  0
  4  5  1  0  0  0  0
  4  3  1  0  0  0  0
  5  1  2  0  0  0  0
  8  4  1  0  0  0  0
  9  8  1  0  0  0  0
  9 10  1  0  0  0  0
 11  9  2  0  0  0  0
 12 14  2  0  0  0  0
 12 11  1  0  0  0  0
 13 12  1  0  0  0  0
 14 16  1  0  0  0  0
 15 14  1  0  0  0  0
 16  8  2  0  0  0  0
 17 18  1  0  0  0  0
 18 23  1  0  0  0  0
 18 19  2  0  0  0  0
 19 25  1  0  0  0  0
 20 19  1  0  0  0  0
 21 20  2  0  0  0  0
 22 17  2  0  0  0  0
 22 21  1  0  0  0  0
 24 21  1  0  0  0  0
 25 28  1  0  0  0  0
 25 26  1  0  0  0  0
 25 27  1  0  0  0  0
M  END
>  <minimizedAffinity>
-5.86592531

$$$$

 OpenBabel03272508033D

 28 30  0  0  0  0  0  0  0  0999 V2000
   37.3920   26.5090   34.3000 C   0  0  0  0  0  0  0  0  0  0  0  0
   37.3810   26.8310   32.9670 C   0  0  0  0  0  0  0  0  0  0  0  0
   36.6840   28.0410   32.7750 C   0  0  0  0  0  0  0  0  0  0  0  0
   36.3030   28.3890   34.0330 N   0  0  0  0  0  0  0  0  0  0  0  0
   36.7190   27.4970   34.8940 N   0  0  0  0  0  0  0  0  0  0  0  0
   37.8250   26.2790   32.1460 H   0  0  0  0  0  0  0  0  0  0  0  0
   36.5020   28.5610   31.8350 H   0  0  0  0  0  0  0  0  0  0  0  0
   35.5530   29.5990   34.2230 C   0  0  0  0  0  0  0  0  0  0  0  0
   35.9440   30.4780   35.2130 C   0  0  0  0  0  0  0  0  0  0  0  0
   36.7740   30.3210   35.8560 H   0  0  0  0  0  0  0  0  0  0  0  0
   35.1320   31.6040   35.2850 C   0  0  0  0  0  3  0  0  0  0  0  0
   34.0400   31.8690   34.4820 C   0  0  0  0  0  0  0  0  0  0  0  0
   33.4790   32.7820   34.6300 H   0  0  0  0  0  0  0  0  0  0  0  0
   33.7440   30.9170   33.5270 C   0  0  0  0  0  0  0  0  0  0  0  0
   32.8880   31.0860   32.8690 H   0  0  0  0  0  0  0  0  0  0  0  0
   34.4830   29.7630   33.3680 C   0  0  0  0  0  3  0  0  0  0  0  0
   38.0070   25.3390   34.9270 C   0  0  0  0  0  0  0  0  0  0  0  0
   37.8450   25.1820   36.3190 C   0  0  0  0  0  0  0  0  0  0  0  0
   38.4330   24.0650   36.9150 C   0  0  0  0  0  0  0  0  0  0  0  0
   39.1200   23.2040   36.1220 N   0  0  0  0  0  0  0  0  0  0  0  0
   39.2550   23.3850   34.7960 C   0  0  0  0  0  0  0  0  0  0  0  0
   38.6900   24.4590   34.2160 N   0  0  0  0  0  0  0  0  0  0  0  0
   37.2830   25.9170   36.8630 H   0  0  0  0  0  0  0  0  0  0  0  0
   39.8220   22.6390   34.2570 H   0  0  0  0  0  0  0  0  0  0  0  0
   38.2820   23.8690   38.3810 C   0  0  0  0  0  0  0  0  0  0  0  0
   39.5110   23.4040   38.8280 F   0  0  0  0  0  0  0  0  0  0  0  0
   37.9810   25.0380   39.0480 F   0  0  0  0  0  0  0  0  0  0  0  0
   37.3220   22.9170   38.6760 F   0  0  0  0  0  0  0  0  0  0  0  0
  1  5  2  0  0  0  0
  1 17  1  0  0  0  0
  2  1  1  0  0  0  0
  3  2  2  0  0  0  0
  3  4  1  0  0  0  0
  4  8  1  0  0  0  0
  4  5  1  0  0  0  0
  6  2  1  0  0  0  0
  7  3  1  0  0  0  0
  8  9  1  0  0  0  0
  9 11  2  0  0  0  0
  9 10  1  0  0  0  0
 12 13  1  0  0  0  0
 12 11  1  0  0  0  0
 14 12  2  0  0  0  0
 15 14  1  0  0  0  0
 16 14  1  0  0  0  0
 16  8  2  0  0  0  0
 17 18  1  0  0  0  0
 18 23  1  0  0  0  0
 18 19  2  0  0  0  0
 19 25  1  0  0  0  0
 20 19  1  0  0  0  0
 21 20  2  0  0  0  0
 22 21  1  0  0  0  0
 22 17  2  0  0  0  0
 24 21  1  0  0  0  0
 25 28  1  0  0  0  0
 25 26  1  0  0  0  0
 25 27  1  0  0  0  0
M  END
>  <minimizedAffinity>
-5.79550791

$$$$

 OpenBabel03272508033D

 28 30  0  0  0  0  0  0  0  0999 V2000
   37.9430   25.2040   35.0470 C   0  0  0  0  0  0  0  0  0  0  0  0
   37.9140   24.8130   33.7330 C   0  0  0  0  0  0  0  0  0  0  0  0
   37.3840   25.8490   32.9380 C   0  0  0  0  0  0  0  0  0  0  0  0
   37.1150   26.8320   33.8390 N   0  0  0  0  0  0  0  0  0  0  0  0
   37.4430   26.4420   35.0440 N   0  0  0  0  0  0  0  0  0  0  0  0
   38.2370   23.8650   33.3140 H   0  0  0  0  0  0  0  0  0  0  0  0
   37.2310   25.8480   31.8600 H   0  0  0  0  0  0  0  0  0  0  0  0
   36.5510   28.0670   33.3730 C   0  0  0  0  0  0  0  0  0  0  0  0
   35.9310   28.9020   34.2810 C   0  0  0  0  0  0  0  0  0  0  0  0
   35.8390   28.6920   35.3180 H   0  0  0  0  0  0  0  0  0  0  0  0
   35.4320   30.0600   33.6950 C   0  0  0  0  0  3  0  0  0  0  0  0
   35.5180   30.3930   32.3580 C   0  0  0  0  0  0  0  0  0  0  0  0
   35.0910   31.3250   32.0130 H   0  0  0  0  0  0  0  0  0  0  0  0
   36.1600   29.4800   31.5440 C   0  0  0  0  0  0  0  0  0  0  0  0
   36.2500   29.7040   30.4790 H   0  0  0  0  0  0  0  0  0  0  0  0
   36.6920   28.3000   32.0210 C   0  0  0  0  0  3  0  0  0  0  0  0
   38.4170   24.4320   36.1950 C   0  0  0  0  0  0  0  0  0  0  0  0
   39.5950   23.6730   36.0310 C   0  0  0  0  0  0  0  0  0  0  0  0
   40.0450   22.9360   37.1270 C   0  0  0  0  0  0  0  0  0  0  0  0
   39.3270   22.9950   38.2770 N   0  0  0  0  0  0  0  0  0  0  0  0
   38.2060   23.7300   38.3990 C   0  0  0  0  0  0  0  0  0  0  0  0
   37.7670   24.4420   37.3450 N   0  0  0  0  0  0  0  0  0  0  0  0
   40.0940   23.6890   35.0810 H   0  0  0  0  0  0  0  0  0  0  0  0
   37.7090   23.7070   39.3590 H   0  0  0  0  0  0  0  0  0  0  0  0
   41.2830   22.1250   36.9880 C   0  0  0  0  0  0  0  0  0  0  0  0
   42.3330   23.0340   36.9950 F   0  0  0  0  0  0  0  0  0  0  0  0
   41.4600   21.2360   38.0280 F   0  0  0  0  0  0  0  0  0  0  0  0
   41.3130   21.4340   35.7890 F   0  0  0  0  0  0  0  0  0  0  0  0
  1 17  1  0  0  0  0
  2  1  1  0  0  0  0
  3  2  2  0  0  0  0
  3  4  1  0  0  0  0
  4  5  1  0  0  0  0
  5  1  2  0  0  0  0
  6  2  1  0  0  0  0
  7  3  1  0  0  0  0
  8  4  1  0  0  0  0
  8  9  1  0  0  0  0
  9 10  1  0  0  0  0
 11  9  2  0  0  0  0
 12 11  1  0  0  0  0
 13 12  1  0  0  0  0
 14 16  1  0  0  0  0
 14 12  2  0  0  0  0
 15 14  1  0  0  0  0
 16  8  2  0  0  0  0
 17 22  1  0  0  0  0
 18 17  2  0  0  0  0
 18 19  1  0  0  0  0
 19 20  2  0  0  0  0
 20 21  1  0  0  0  0
 21 24  1  0  0  0  0
 22 21  2  0  0  0  0
 23 18  1  0  0  0  0
 25 26  1  0  0  0  0
 25 19  1  0  0  0  0
 25 27  1  0  0  0  0
 28 25  1  0  0  0  0
M  END
>  <minimizedAffinity>
-5.72499657

$$$$

 OpenBabel03272508033D

 28 30  0  0  0  0  0  0  0  0999 V2000
   37.0190   26.8610   33.8330 C   0  0  0  0  0  0  0  0  0  0  0  0
   37.3350   25.8320   32.9840 C   0  0  0  0  0  0  0  0  0  0  0  0
   37.9470   24.7890   33.7070 C   0  0  0  0  0  0  0  0  0  0  0  0
   37.9680   25.2580   34.9830 N   0  0  0  0  0  0  0  0  0  0  0  0
   37.4300   26.4500   35.0340 N   0  0  0  0  0  0  0  0  0  0  0  0
   37.1630   25.7750   31.9140 H   0  0  0  0  0  0  0  0  0  0  0  0
   38.3130   23.8370   33.3220 H   0  0  0  0  0  0  0  0  0  0  0  0
   38.5350   24.4400   36.0170 C   0  0  0  0  0  0  0  0  0  0  0  0
   39.6450   23.6720   35.7280 C   0  0  0  0  0  0  0  0  0  0  0  0
   40.1180   23.6430   34.7770 H   0  0  0  0  0  0  0  0  0  0  0  0
   40.0880   22.9320   36.8180 C   0  0  0  0  0  3  0  0  0  0  0  0
   39.5210   22.9250   38.0760 C   0  0  0  0  0  0  0  0  0  0  0  0
   39.9530   22.3070   38.8520 H   0  0  0  0  0  0  0  0  0  0  0  0
   38.4140   23.7320   38.2480 C   0  0  0  0  0  0  0  0  0  0  0  0
   37.9340   23.7560   39.2290 H   0  0  0  0  0  0  0  0  0  0  0  0
   37.8910   24.5080   37.2350 C   0  0  0  0  0  3  0  0  0  0  0  0
   36.3730   28.1290   33.4910 C   0  0  0  0  0  0  0  0  0  0  0  0
   36.1170   29.0360   34.5410 C   0  0  0  0  0  0  0  0  0  0  0  0
   35.5000   30.2440   34.2120 C   0  0  0  0  0  0  0  0  0  0  0  0
   35.1860   30.4700   32.9110 N   0  0  0  0  0  0  0  0  0  0  0  0
   35.4460   29.5820   31.9350 C   0  0  0  0  0  0  0  0  0  0  0  0
   36.0400   28.4150   32.2450 N   0  0  0  0  0  0  0  0  0  0  0  0
   36.4010   28.7670   35.5400 H   0  0  0  0  0  0  0  0  0  0  0  0
   35.1550   29.8610   30.9310 H   0  0  0  0  0  0  0  0  0  0  0  0
   35.2150   31.2230   35.2940 C   0  0  0  0  0  0  0  0  0  0  0  0
   35.0300   32.4440   34.6600 F   0  0  0  0  0  0  0  0  0  0  0  0
   34.0740   30.9160   36.0070 F   0  0  0  0  0  0  0  0  0  0  0  0
   36.2790   31.3440   36.1710 F   0  0  0  0  0  0  0  0  0  0  0  0
  1  5  2  0  0  0  0
  2  3  2  0  0  0  0
  2  1  1  0  0  0  0
  3  4  1  0  0  0  0
  4  5  1  0  0  0  0
  4  8  1  0  0  0  0
  6  2  1  0  0  0  0
  7  3  1  0  0  0  0
  8 16  1  0  0  0  0
  9  8  2  0  0  0  0
  9 11  1  0  0  0  0
 10  9  1  0  0  0  0
 11 12  2  0  0  0  0
 12 14  1  0  0  0  0
 12 13  1  0  0  0  0
 14 15  1  0  0  0  0
 16 14  2  0  0  0  0
 17  1  1  0  0  0  0
 17 18  1  0  0  0  0
 18 23  1  0  0  0  0
 19 18  2  0  0  0  0
 19 25  1  0  0  0  0
 20 19  1  0  0  0  0
 21 22  1  0  0  0  0
 21 20  2  0  0  0  0
 22 17  2  0  0  0  0
 24 21  1  0  0  0  0
 25 27  1  0  0  0  0
 25 28  1  0  0  0  0
 26 25  1  0  0  0  0
M  END
>  <minimizedAffinity>
-5.6822052

$$$$

 OpenBabel03272508033D

 28 30  0  0  0  0  0  0  0  0999 V2000
   36.9520   27.2760   34.0220 C   0  0  0  0  0  0  0  0  0  0  0  0
   36.6910   27.7960   32.7790 C   0  0  0  0  0  0  0  0  0  0  0  0
   36.0790   29.0590   32.9100 C   0  0  0  0  0  0  0  0  0  0  0  0
   36.0030   29.2360   34.2560 N   0  0  0  0  0  0  0  0  0  0  0  0
   36.5100   28.2020   34.8770 N   0  0  0  0  0  0  0  0  0  0  0  0
   36.9000   27.3480   31.8140 H   0  0  0  0  0  0  0  0  0  0  0  0
   35.7510   29.7250   32.1120 H   0  0  0  0  0  0  0  0  0  0  0  0
   35.4210   30.4440   34.7680 C   0  0  0  0  0  0  0  0  0  0  0  0
   36.1170   31.1730   35.7120 C   0  0  0  0  0  0  0  0  0  0  0  0
   37.0690   30.8980   36.0940 H   0  0  0  0  0  0  0  0  0  0  0  0
   35.4390   32.3160   36.1180 C   0  0  0  0  0  3  0  0  0  0  0  0
   34.2030   32.7300   35.6620 C   0  0  0  0  0  0  0  0  0  0  0  0
   33.7690   33.6420   36.0500 H   0  0  0  0  0  0  0  0  0  0  0  0
   33.6020   31.9210   34.7180 C   0  0  0  0  0  0  0  0  0  0  0  0
   32.6230   32.2110   34.3290 H   0  0  0  0  0  0  0  0  0  0  0  0
   34.1860   30.7640   34.2450 C   0  0  0  0  0  3  0  0  0  0  0  0
   37.5770   25.9910   34.3340 C   0  0  0  0  0  0  0  0  0  0  0  0
   37.6280   25.6010   35.6890 C   0  0  0  0  0  0  0  0  0  0  0  0
   38.2260   24.3750   35.9840 C   0  0  0  0  0  0  0  0  0  0  0  0
   38.7190   23.6390   34.9570 N   0  0  0  0  0  0  0  0  0  0  0  0
   38.6530   24.0420   33.6750 C   0  0  0  0  0  0  0  0  0  0  0  0
   38.0780   25.2230   33.3840 N   0  0  0  0  0  0  0  0  0  0  0  0
   37.2110   26.2530   36.4330 H   0  0  0  0  0  0  0  0  0  0  0  0
   39.0760   23.3790   32.9320 H   0  0  0  0  0  0  0  0  0  0  0  0
   38.2970   23.9340   37.4020 C   0  0  0  0  0  0  0  0  0  0  0  0
   37.2760   23.0060   37.5600 F   0  0  0  0  0  0  0  0  0  0  0  0
   39.4970   23.3310   37.7160 F   0  0  0  0  0  0  0  0  0  0  0  0
   38.0720   24.9820   38.2780 F   0  0  0  0  0  0  0  0  0  0  0  0
  1 17  1  0  0  0  0
  1  5  2  0  0  0  0
  2  3  2  0  0  0  0
  2  1  1  0  0  0  0
  3  4  1  0  0  0  0
  4  8  1  0  0  0  0
  4  5  1  0  0  0  0
  6  2  1  0  0  0  0
  7  3  1  0  0  0  0
  8  9  1  0  0  0  0
  9 10  1  0  0  0  0
  9 11  2  0  0  0  0
 12 13  1  0  0  0  0
 12 11  1  0  0  0  0
 14 12  2  0  0  0  0
 15 14  1  0  0  0  0
 16 14  1  0  0  0  0
 16  8  2  0  0  0  0
 17 18  1  0  0  0  0
 18 19  2  0  0  0  0
 18 23  1  0  0  0  0
 19 25  1  0  0  0  0
 20 19  1  0  0  0  0
 21 20  2  0  0  0  0
 22 21  1  0  0  0  0
 22 17  2  0  0  0  0
 24 21  1  0  0  0  0
 25 26  1  0  0  0  0
 25 27  1  0  0  0  0
 25 28  1  0  0  0  0
M  END
>  <minimizedAffinity>
-5.48767853

$$$$

 OpenBabel03272508033D

 28 30  0  0  0  0  0  0  0  0999 V2000
   39.0060   25.6490   33.9040 C   0  0  0  0  0  0  0  0  0  0  0  0
   39.9280   26.1850   33.0410 C   0  0  0  0  0  0  0  0  0  0  0  0
   39.3380   27.2300   32.3020 C   0  0  0  0  0  0  0  0  0  0  0  0
   38.0620   27.2670   32.7710 N   0  0  0  0  0  0  0  0  0  0  0  0
   37.8920   26.3520   33.6900 N   0  0  0  0  0  0  0  0  0  0  0  0
   40.9640   25.8900   32.9070 H   0  0  0  0  0  0  0  0  0  0  0  0
   39.8050   27.8510   31.5390 H   0  0  0  0  0  0  0  0  0  0  0  0
   37.1500   28.2350   32.2310 C   0  0  0  0  0  0  0  0  0  0  0  0
   37.2520   28.5770   30.8970 C   0  0  0  0  0  0  0  0  0  0  0  0
   37.9710   28.1680   30.2300 H   0  0  0  0  0  0  0  0  0  0  0  0
   36.3090   29.5210   30.5090 C   0  0  0  0  0  3  0  0  0  0  0  0
   35.3500   30.0910   31.3230 C   0  0  0  0  0  0  0  0  0  0  0  0
   34.6650   30.8190   30.9100 H   0  0  0  0  0  0  0  0  0  0  0  0
   35.3430   29.6720   32.6390 C   0  0  0  0  0  0  0  0  0  0  0  0
   34.6010   30.0970   33.3180 H   0  0  0  0  0  0  0  0  0  0  0  0
   36.2340   28.7400   33.1300 C   0  0  0  0  0  3  0  0  0  0  0  0
   39.2070   24.5500   34.8490 C   0  0  0  0  0  0  0  0  0  0  0  0
   38.6750   24.6980   36.1460 C   0  0  0  0  0  0  0  0  0  0  0  0
   38.8680   23.6480   37.0450 C   0  0  0  0  0  0  0  0  0  0  0  0
   39.5510   22.5560   36.6190 N   0  0  0  0  0  0  0  0  0  0  0  0
   40.0460   22.4490   35.3720 C   0  0  0  0  0  0  0  0  0  0  0  0
   39.8630   23.4570   34.5010 N   0  0  0  0  0  0  0  0  0  0  0  0
   38.1490   25.6000   36.3920 H   0  0  0  0  0  0  0  0  0  0  0  0
   40.5750   21.5360   35.1340 H   0  0  0  0  0  0  0  0  0  0  0  0
   38.3200   23.7710   38.4220 C   0  0  0  0  0  0  0  0  0  0  0  0
   37.8500   25.0730   38.5270 F   0  0  0  0  0  0  0  0  0  0  0  0
   37.2770   22.9020   38.6630 F   0  0  0  0  0  0  0  0  0  0  0  0
   39.2990   23.5840   39.3830 F   0  0  0  0  0  0  0  0  0  0  0  0
  1 17  1  0  0  0  0
  2  1  1  0  0  0  0
  3  4  1  0  0  0  0
  3  2  2  0  0  0  0
  4  5  1  0  0  0  0
  5  1  2  0  0  0  0
  6  2  1  0  0  0  0
  7  3  1  0  0  0  0
  8  4  1  0  0  0  0
  8 16  1  0  0  0  0
  9  8  2  0  0  0  0
 10  9  1  0  0  0  0
 11  9  1  0  0  0  0
 11 12  2  0  0  0  0
 12 14  1  0  0  0  0
 13 12  1  0  0  0  0
 14 16  2  0  0  0  0
 14 15  1  0  0  0  0
 17 18  1  0  0  0  0
 18 23  1  0  0  0  0
 18 19  2  0  0  0  0
 19 25  1  0  0  0  0
 20 19  1  0  0  0  0
 21 20  2  0  0  0  0
 22 17  2  0  0  0  0
 22 21  1  0  0  0  0
 24 21  1  0  0  0  0
 25 26  1  0  0  0  0
 25 27  1  0  0  0  0
 25 28  1  0  0  0  0
M  END
>  <minimizedAffinity>
-5.42828131

$$$$

 OpenBabel03272508033D

 28 30  0  0  0  0  0  0  0  0999 V2000
   38.1360   25.1870   35.1520 C   0  0  0  0  0  0  0  0  0  0  0  0
   37.7210   24.8700   36.4210 C   0  0  0  0  0  0  0  0  0  0  0  0
   38.6020   23.9270   36.9880 C   0  0  0  0  0  0  0  0  0  0  0  0
   39.5210   23.7220   36.0070 N   0  0  0  0  0  0  0  0  0  0  0  0
   39.2360   24.4550   34.9610 N   0  0  0  0  0  0  0  0  0  0  0  0
   36.8580   25.2540   36.9540 H   0  0  0  0  0  0  0  0  0  0  0  0
   38.5470   23.4780   37.9790 H   0  0  0  0  0  0  0  0  0  0  0  0
   40.5950   22.7990   36.2410 C   0  0  0  0  0  0  0  0  0  0  0  0
   40.6740   22.1620   37.4630 C   0  0  0  0  0  0  0  0  0  0  0  0
   39.9840   22.3100   38.2580 H   0  0  0  0  0  0  0  0  0  0  0  0
   41.7590   21.2980   37.5520 C   0  0  0  0  0  3  0  0  0  0  0  0
   42.6900   21.0620   36.5600 C   0  0  0  0  0  0  0  0  0  0  0  0
   43.4970   20.3650   36.7420 H   0  0  0  0  0  0  0  0  0  0  0  0
   42.5100   21.7560   35.3800 C   0  0  0  0  0  0  0  0  0  0  0  0
   43.2240   21.5990   34.5680 H   0  0  0  0  0  0  0  0  0  0  0  0
   41.4670   22.6380   35.1840 C   0  0  0  0  0  3  0  0  0  0  0  0
   37.5070   26.1220   34.2190 C   0  0  0  0  0  0  0  0  0  0  0  0
   36.9580   27.3070   34.7520 C   0  0  0  0  0  0  0  0  0  0  0  0
   36.3580   28.1960   33.8590 C   0  0  0  0  0  0  0  0  0  0  0  0
   36.3400   27.8690   32.5430 N   0  0  0  0  0  0  0  0  0  0  0  0
   36.8750   26.7290   32.0690 C   0  0  0  0  0  0  0  0  0  0  0  0
   37.4540   25.8670   32.9240 N   0  0  0  0  0  0  0  0  0  0  0  0
   37.0190   27.4780   35.8090 H   0  0  0  0  0  0  0  0  0  0  0  0
   36.8080   26.5650   31.0020 H   0  0  0  0  0  0  0  0  0  0  0  0
   35.7680   29.4550   34.3870 C   0  0  0  0  0  0  0  0  0  0  0  0
   36.5210   29.7850   35.5060 F   0  0  0  0  0  0  0  0  0  0  0  0
   35.8340   30.4960   33.4850 F   0  0  0  0  0  0  0  0  0  0  0  0
   34.4530   29.2790   34.7840 F   0  0  0  0  0  0  0  0  0  0  0  0
  1  2  1  0  0  0  0
  2  6  1  0  0  0  0
  2  3  2  0  0  0  0
  3  7  1  0  0  0  0
  4  8  1  0  0  0  0
  4  3  1  0  0  0  0
  5  1  2  0  0  0  0
  5  4  1  0  0  0  0
  8  9  1  0  0  0  0
  9 11  2  0  0  0  0
  9 10  1  0  0  0  0
 12 13  1  0  0  0  0
 12 11  1  0  0  0  0
 14 12  2  0  0  0  0
 15 14  1  0  0  0  0
 16 14  1  0  0  0  0
 16  8  2  0  0  0  0
 17 18  1  0  0  0  0
 17  1  1  0  0  0  0
 18 23  1  0  0  0  0
 19 25  1  0  0  0  0
 19 18  2  0  0  0  0
 20 19  1  0  0  0  0
 21 20  2  0  0  0  0
 21 22  1  0  0  0  0
 22 17  2  0  0  0  0
 24 21  1  0  0  0  0
 25 28  1  0  0  0  0
 25 26  1  0  0  0  0
 27 25  1  0  0  0  0
M  END
>  <minimizedAffinity>
-5.33549213

$$$$

 OpenBabel03272508033D

 28 30  0  0  0  0  0  0  0  0999 V2000
   38.1960   25.1490   35.4400 C   0  0  0  0  0  0  0  0  0  0  0  0
   37.7500   24.5880   36.6090 C   0  0  0  0  0  0  0  0  0  0  0  0
   38.7120   23.6820   37.1000 C   0  0  0  0  0  0  0  0  0  0  0  0
   39.7080   23.7480   36.1770 N   0  0  0  0  0  0  0  0  0  0  0  0
   39.3930   24.5960   35.2320 N   0  0  0  0  0  0  0  0  0  0  0  0
   36.8130   24.7750   37.1220 H   0  0  0  0  0  0  0  0  0  0  0  0
   38.6570   23.0790   38.0060 H   0  0  0  0  0  0  0  0  0  0  0  0
   40.8800   22.9380   36.3570 C   0  0  0  0  0  0  0  0  0  0  0  0
   40.8200   21.8600   37.2180 C   0  0  0  0  0  0  0  0  0  0  0  0
   39.9540   21.5840   37.7680 H   0  0  0  0  0  0  0  0  0  0  0  0
   42.0210   21.1650   37.2960 C   0  0  0  0  0  3  0  0  0  0  0  0
   43.1810   21.4710   36.6110 C   0  0  0  0  0  0  0  0  0  0  0  0
   44.0600   20.8560   36.7500 H   0  0  0  0  0  0  0  0  0  0  0  0
   43.1210   22.5710   35.7780 C   0  0  0  0  0  0  0  0  0  0  0  0
   44.0160   22.8490   35.2170 H   0  0  0  0  0  0  0  0  0  0  0  0
   41.9810   23.3320   35.6260 C   0  0  0  0  0  3  0  0  0  0  0  0
   37.5060   26.1350   34.6080 C   0  0  0  0  0  0  0  0  0  0  0  0
   37.2290   25.7840   33.2700 C   0  0  0  0  0  0  0  0  0  0  0  0
   36.5720   26.7270   32.4790 C   0  0  0  0  0  0  0  0  0  0  0  0
   36.2420   27.9170   33.0420 N   0  0  0  0  0  0  0  0  0  0  0  0
   36.5220   28.2190   34.3230 C   0  0  0  0  0  0  0  0  0  0  0  0
   37.1550   27.3140   35.0910 N   0  0  0  0  0  0  0  0  0  0  0  0
   37.5310   24.8170   32.9150 H   0  0  0  0  0  0  0  0  0  0  0  0
   36.2150   29.1950   34.6720 H   0  0  0  0  0  0  0  0  0  0  0  0
   36.2650   26.3890   31.0640 C   0  0  0  0  0  0  0  0  0  0  0  0
   37.2910   25.5530   30.6440 F   0  0  0  0  0  0  0  0  0  0  0  0
   35.0650   25.7260   30.9210 F   0  0  0  0  0  0  0  0  0  0  0  0
   36.2630   27.5140   30.2570 F   0  0  0  0  0  0  0  0  0  0  0  0
  1  2  1  0  0  0  0
  2  3  2  0  0  0  0
  2  6  1  0  0  0  0
  3  7  1  0  0  0  0
  4  8  1  0  0  0  0
  4  3  1  0  0  0  0
  5  1  2  0  0  0  0
  5  4  1  0  0  0  0
  8  9  1  0  0  0  0
  9 11  2  0  0  0  0
  9 10  1  0  0  0  0
 12 13  1  0  0  0  0
 12 11  1  0  0  0  0
 14 12  2  0  0  0  0
 15 14  1  0  0  0  0
 16 14  1  0  0  0  0
 16  8  2  0  0  0  0
 17 22  1  0  0  0  0
 17  1  1  0  0  0  0
 18 17  2  0  0  0  0
 19 20  2  0  0  0  0
 19 18  1  0  0  0  0
 20 21  1  0  0  0  0
 21 24  1  0  0  0  0
 21 22  2  0  0  0  0
 23 18  1  0  0  0  0
 25 19  1  0  0  0  0
 26 25  1  0  0  0  0
 27 25  1  0  0  0  0
 28 25  1  0  0  0  0
M  END
>  <minimizedAffinity>
-5.32972527

$$$$
