
 OpenBabel03272510043D

 37 39  0  0  0  0  0  0  0  0999 V2000
   35.4310   30.7580   46.0790 C   0  0  0  0  0  0  0  0  0  0  0  0
   35.2770   29.8740   45.0590 C   0  0  0  0  0  0  0  0  0  0  0  0
   36.1040   29.9620   43.9430 C   0  0  0  0  0  0  0  0  0  0  0  0
   37.0880   30.9200   43.8170 C   0  0  0  0  0  0  0  0  0  0  0  0
   37.2680   31.8320   44.8290 C   0  0  0  0  0  0  0  0  0  0  0  0
   36.4370   31.7180   45.9170 C   0  0  0  0  0  0  0  0  0  0  0  0
   35.9560   29.2290   43.1340 H   0  0  0  0  0  0  0  0  0  0  0  0
   37.6630   30.8970   42.9280 H   0  0  0  0  0  0  0  0  0  0  0  0
   38.0350   32.5480   44.6830 H   0  0  0  0  0  0  0  0  0  0  0  0
   36.6750   32.5000   46.6490 H   0  0  0  0  0  0  0  0  0  0  0  0
   32.0470   28.2320   45.6740 C   0  0  0  0  0  0  0  0  0  0  0  0
   33.0540   29.1830   45.6200 C   0  0  0  0  0  0  0  0  0  0  0  0
   34.2640   28.8750   45.0820 C   0  0  0  0  0  0  0  0  0  0  0  0
   34.4280   27.6100   44.6050 N   0  0  0  0  0  0  0  0  0  0  0  0
   33.4580   26.6890   44.6500 C   0  0  0  0  0  0  0  0  0  0  0  0
   32.2760   27.0050   45.1870 N   0  0  0  0  0  0  0  0  0  0  0  0
   31.0510   28.3040   46.0610 H   0  0  0  0  0  0  0  0  0  0  0  0
   32.6090   30.0580   46.0280 H   0  0  0  0  0  0  0  0  0  0  0  0
   33.7540   25.3680   44.0330 C   0  0  0  0  0  0  0  0  0  0  0  0
   32.6510   24.5350   44.0380 F   0  0  0  0  0  0  0  0  0  0  0  0
   33.9870   25.5670   42.6190 F   0  0  0  0  0  0  0  0  0  0  0  0
   34.8340   24.7410   44.4390 F   0  0  0  0  0  0  0  0  0  0  0  0
   34.5090   30.7290   47.5180 S   0  0  0  0  0  0  0  0  0  0  0  0
   33.3940   31.7040   47.4760 O   0  0  0  0  0  0  0  0  0  0  0  0
   35.4190   31.5610   48.4010 O   0  0  0  0  0  0  0  0  0  0  0  0
   34.5250   29.5800   48.7690 C   0  0  0  0  0  0  0  0  0  0  0  0
   33.7140   29.9650   49.5050 H   0  0  0  0  0  0  0  0  0  0  0  0
   34.0580   28.6130   48.5070 H   0  0  0  0  0  0  0  0  0  0  0  0
   35.6890   29.5330   49.6280 C   0  0  0  0  0  0  0  0  0  0  0  0
   36.3130   30.7300   49.8250 C   0  0  0  0  0  0  0  0  0  0  0  0
   35.9790   31.6790   49.3790 H   0  0  0  0  0  0  0  0  0  0  0  0
   37.4470   30.9150   50.6140 C   0  0  0  0  0  3  0  0  0  0  0  0
   37.9710   29.7870   51.2380 C   0  0  0  0  0  0  0  0  0  0  0  0
   38.8510   29.9130   51.8540 H   0  0  0  0  0  0  0  0  0  0  0  0
   37.3470   28.5730   51.0450 C   0  0  0  0  0  0  0  0  0  0  0  0
   37.7600   27.6940   51.5350 H   0  0  0  0  0  0  0  0  0  0  0  0
   36.2240   28.4380   50.2550 C   0  0  0  0  0  3  0  0  0  0  0  0
  1 23  1  0  0  0  0
  2 13  1  0  0  0  0
  2  1  2  0  0  0  0
  3  2  1  0  0  0  0
  4  3  2  0  0  0  0
  4  5  1  0  0  0  0
  5  6  2  0  0  0  0
  6  1  1  0  0  0  0
  6 10  1  0  0  0  0
  7  3  1  0  0  0  0
  8  4  1  0  0  0  0
  9  5  1  0  0  0  0
 11 17  1  0  0  0  0
 12 11  1  0  0  0  0
 12 18  1  0  0  0  0
 13 12  2  0  0  0  0
 14 15  2  0  0  0  0
 14 13  1  0  0  0  0
 15 16  1  0  0  0  0
 16 11  2  0  0  0  0
 19 20  1  0  0  0  0
 19 22  1  0  0  0  0
 19 15  1  0  0  0  0
 21 19  1  0  0  0  0
 23 25  2  0  0  0  0
 23 26  1  0  0  0  0
 24 23  2  0  0  0  0
 26 27  1  0  0  0  0
 26 29  1  0  0  0  0
 28 26  1  0  0  0  0
 29 30  2  0  0  0  0
 29 37  1  0  0  0  0
 30 32  1  0  0  0  0
 31 30  1  0  0  0  0
 32 33  2  0  0  0  0
 33 34  1  0  0  0  0
 35 33  1  0  0  0  0
 35 36  1  0  0  0  0
 37 35  2  0  0  0  0
M  END
>  <minimizedAffinity>
0.306505978

>  <minimizedRMSD>
7.21814537

$$$$
