
 OpenBabel03272509473D

 25 26  0  0  0  0  0  0  0  0999 V2000
   33.8870   28.6230   48.8180 C   0  0  0  0  0  0  0  0  0  0  0  0
   33.1250   29.3550   49.1360 H   0  0  0  0  0  0  0  0  0  0  0  0
   34.4710   29.1080   47.9970 H   0  0  0  0  0  0  0  0  0  0  0  0
   33.2750   27.3870   48.2010 C   0  0  0  0  0  0  0  0  0  0  0  0
   33.4510   26.5230   48.8550 H   0  0  0  0  0  0  0  0  0  0  0  0
   32.1640   27.5760   48.1880 H   0  0  0  0  0  0  0  0  0  0  0  0
   33.6920   27.1440   46.8170 C   0  0  0  0  0  0  0  0  0  0  0  0
   33.9450   28.3100   46.1040 C   0  0  0  0  0  0  0  0  0  0  0  0
   33.8500   29.3110   46.5090 H   0  0  0  0  0  0  0  0  0  0  0  0
   34.3540   28.2880   44.7670 C   0  0  0  0  0  3  0  0  0  0  0  0
   34.5150   27.0680   44.1260 C   0  0  0  0  0  0  0  0  0  0  0  0
   34.8310   27.0770   43.0990 H   0  0  0  0  0  0  0  0  0  0  0  0
   34.2580   25.9320   44.8570 C   0  0  0  0  0  0  0  0  0  0  0  0
   34.3820   24.9720   44.3590 H   0  0  0  0  0  0  0  0  0  0  0  0
   33.8540   25.9350   46.1740 C   0  0  0  0  0  3  0  0  0  0  0  0
   34.7360   28.2750   49.8920 O   0  0  0  0  0  0  0  0  0  0  0  0
   37.3880   30.2680   51.3500 C   0  0  0  0  0  0  0  0  0  0  0  0
   38.0560   30.6900   50.2060 C   0  0  0  0  0  0  0  0  0  0  0  0
   37.5590   30.2640   48.9810 C   0  0  0  0  0  0  0  0  0  0  0  0
   36.4500   29.4650   48.9970 N   0  0  0  0  0  0  0  0  0  0  0  0
   35.8300   29.0770   50.1350 C   0  0  0  0  0  0  0  0  0  0  0  0
   36.3230   29.4970   51.3100 N   0  0  0  0  0  0  0  0  0  0  0  0
   37.8190   30.6300   52.2730 H   0  0  0  0  0  0  0  0  0  0  0  0
   38.9320   31.3180   50.1190 H   0  0  0  0  0  0  0  0  0  0  0  0
   38.0030   30.5330   48.0130 H   0  0  0  0  0  0  0  0  0  0  0  0
  1  2  1  0  0  0  0
  1 16  1  0  0  0  0
  3  1  1  0  0  0  0
  4  1  1  0  0  0  0
  4  5  1  0  0  0  0
  6  4  1  0  0  0  0
  7  4  1  0  0  0  0
  8  9  1  0  0  0  0
  8  7  2  0  0  0  0
 10  8  1  0  0  0  0
 11 10  2  0  0  0  0
 11 13  1  0  0  0  0
 12 11  1  0  0  0  0
 13 15  2  0  0  0  0
 14 13  1  0  0  0  0
 15  7  1  0  0  0  0
 16 21  1  0  0  0  0
 17 23  1  0  0  0  0
 18 17  2  0  0  0  0
 19 20  2  0  0  0  0
 19 18  1  0  0  0  0
 20 21  1  0  0  0  0
 21 22  2  0  0  0  0
 22 17  1  0  0  0  0
 24 18  1  0  0  0  0
 25 19  1  0  0  0  0
M  END
>  <minimizedAffinity>
-4.04824972

>  <minimizedRMSD>
1.0961349

$$$$
