
 OpenBabel03272504573D

 33 35  0  0  1  0  0  0  0  0999 V2000
   37.0040   29.4620   49.9100 C   0  0  1  0  0  0  0  0  0  0  0  0
   36.6170   29.5300   51.3020 C   0  0  0  0  0  0  0  0  0  0  0  0
   35.5750   29.5040   50.2370 C   0  0  2  0  0  0  0  0  0  0  0  0
   37.3280   28.4880   49.4010 H   0  0  0  0  0  0  0  0  0  0  0  0
   36.7680   30.5060   51.8090 H   0  0  0  0  0  0  0  0  0  0  0  0
   37.1490   28.7400   51.8000 H   0  0  0  0  0  0  0  0  0  0  0  0
   34.9350   30.3670   50.3220 H   0  0  0  0  0  0  0  0  0  0  0  0
   37.5750   30.6650   49.2140 C   0  0  0  0  0  0  0  0  0  0  0  0
   38.2740   31.5720   50.0330 C   0  0  0  0  0  0  0  0  0  0  0  0
   38.7940   32.6610   49.3800 C   0  0  0  0  0  0  0  0  0  0  0  0
   38.6220   32.8070   48.0460 N   0  0  0  0  0  0  0  0  0  0  0  0
   37.9400   31.9080   47.2830 C   0  0  0  0  0  0  0  0  0  0  0  0
   37.4010   30.8040   47.8950 N   0  0  0  0  0  0  0  0  0  0  0  0
   37.7660   32.0220   45.8990 N   0  0  0  0  0  0  0  0  0  0  0  0
   38.4180   31.4710   51.0800 H   0  0  0  0  0  0  0  0  0  0  0  0
   39.3500   33.4320   49.8830 H   0  0  0  0  0  0  0  0  0  0  0  0
   36.9010   31.7570   45.4070 H   0  0  0  0  0  0  0  0  0  0  0  0
   38.5800   32.4040   45.3350 H   0  0  0  0  0  0  0  0  0  0  0  0
   34.8770   28.3070   50.0910 O   0  0  0  0  0  0  0  0  0  0  0  0
   34.0340   27.1270   47.9630 O   0  0  0  0  0  0  0  0  0  0  0  0
   33.8680   28.3780   48.7660 P   0  0  1  0  0  0  0  0  0  0  0  0
   32.2210   28.3310   49.3170 O   0  0  0  0  0  0  0  0  0  0  0  0
   32.0680   27.4030   49.6080 H   0  0  0  0  0  0  0  0  0  0  0  0
   34.1200   29.7880   47.9090 O   0  0  0  0  0  0  0  0  0  0  0  0
   33.8030   30.0960   46.6360 C   0  0  0  0  0  0  0  0  0  0  0  0
   32.6620   30.6230   46.0880 C   0  0  0  0  0  0  0  0  0  0  0  0
   31.8850   30.8220   46.8370 H   0  0  0  0  0  0  0  0  0  0  0  0
   32.5160   30.8760   44.7380 C   0  0  0  0  0  0  0  0  0  0  0  0
   33.5630   30.5860   43.8890 C   0  0  0  0  0  0  0  0  0  0  0  0
   33.4020   30.8010   42.8340 H   0  0  0  0  0  0  0  0  0  0  0  0
   34.7300   30.0570   44.3740 C   0  0  0  0  0  0  0  0  0  0  0  0
   35.5230   29.8440   43.6790 H   0  0  0  0  0  0  0  0  0  0  0  0
   34.8380   29.8180   45.7330 C   0  0  0  0  0  0  0  0  0  0  0  0
  1  4  1  6  0  0  0
  1  3  1  0  0  0  0
  1  2  1  0  0  0  0
  2  6  1  0  0  0  0
  2  5  1  0  0  0  0
  3  7  1  6  0  0  0
  3  2  1  0  0  0  0
  8  1  1  0  0  0  0
  8  9  1  0  0  0  0
  9 15  1  0  0  0  0
 10 16  1  0  0  0  0
 10  9  2  0  0  0  0
 11 10  1  0  0  0  0
 12 13  1  0  0  0  0
 12 11  2  0  0  0  0
 13  8  2  0  0  0  0
 14 12  1  0  0  0  0
 17 14  1  0  0  0  0
 18 14  1  0  0  0  0
 19  3  1  0  0  0  0
 21 20  2  6  0  0  0
 21 22  1  0  0  0  0
 21 19  1  0  0  0  0
 22 23  1  0  0  0  0
 24 21  1  0  0  0  0
 25 24  1  0  0  0  0
 26 25  1  0  0  0  0
 26 27  1  0  0  0  0
 28 26  2  0  0  0  0
 29 31  2  0  0  0  0
 29 28  1  0  0  0  0
 30 29  1  0  0  0  0
 31 33  1  0  0  0  0
 32 31  1  0  0  0  0
 33 25  2  0  0  0  0
M  END
>  <minimizedAffinity>
-5.72602749

>  <minimizedRMSD>
2.84085989

$$$$
