
 OpenBabel03272504583D

 33 35  0  0  1  0  0  0  0  0999 V2000
   37.7550   25.8420   35.1780 C   0  0  1  0  0  0  0  0  0  0  0  0
   38.3970   27.0290   34.6590 C   0  0  0  0  0  0  0  0  0  0  0  0
   37.8860   25.9870   33.7250 C   0  0  2  0  0  0  0  0  0  0  0  0
   36.6690   25.8300   35.5400 H   0  0  0  0  0  0  0  0  0  0  0  0
   39.5010   27.0820   34.7690 H   0  0  0  0  0  0  0  0  0  0  0  0
   37.9130   27.8640   35.1320 H   0  0  0  0  0  0  0  0  0  0  0  0
   38.6820   25.6350   33.0880 H   0  0  0  0  0  0  0  0  0  0  0  0
   38.5660   24.7540   35.8250 C   0  0  0  0  0  0  0  0  0  0  0  0
   39.7160   24.3480   35.1230 C   0  0  0  0  0  0  0  0  0  0  0  0
   40.4470   23.3590   35.7300 C   0  0  0  0  0  0  0  0  0  0  0  0
   40.0520   22.8450   36.9180 N   0  0  0  0  0  0  0  0  0  0  0  0
   38.9320   23.2640   37.5720 C   0  0  0  0  0  0  0  0  0  0  0  0
   38.1700   24.2500   36.9990 N   0  0  0  0  0  0  0  0  0  0  0  0
   38.5120   22.7670   38.8110 N   0  0  0  0  0  0  0  0  0  0  0  0
   40.0390   24.7410   34.1910 H   0  0  0  0  0  0  0  0  0  0  0  0
   41.3470   22.9530   35.3050 H   0  0  0  0  0  0  0  0  0  0  0  0
   37.5250   22.6120   39.0610 H   0  0  0  0  0  0  0  0  0  0  0  0
   39.2630   22.5410   39.5260 H   0  0  0  0  0  0  0  0  0  0  0  0
   36.7190   26.3030   33.0330 O   0  0  0  0  0  0  0  0  0  0  0  0
   35.2160   25.4790   31.1110 O   0  0  0  0  0  0  0  0  0  0  0  0
   36.6210   25.4220   31.6200 P   0  0  1  0  0  0  0  0  0  0  0  0
   37.5640   26.2210   30.3990 O   0  0  0  0  0  0  0  0  0  0  0  0
   37.0450   27.0200   30.1480 H   0  0  0  0  0  0  0  0  0  0  0  0
   37.2130   23.8780   31.8480 O   0  0  0  0  0  0  0  0  0  0  0  0
   36.5780   22.7590   32.2510 C   0  0  0  0  0  0  0  0  0  0  0  0
   35.5400   22.0560   31.6960 C   0  0  0  0  0  0  0  0  0  0  0  0
   35.1790   22.5010   30.7600 H   0  0  0  0  0  0  0  0  0  0  0  0
   35.0130   20.9100   32.2600 C   0  0  0  0  0  3  0  0  0  0  0  0
   35.5500   20.4420   33.4410 C   0  0  0  0  0  0  0  0  0  0  0  0
   35.1020   19.5370   33.8490 H   0  0  0  0  0  0  0  0  0  0  0  0
   36.5880   21.1000   34.0460 C   0  0  0  0  0  0  0  0  0  0  0  0
   36.9790   20.7020   34.9660 H   0  0  0  0  0  0  0  0  0  0  0  0
   37.0890   22.2440   33.4490 C   0  0  0  0  0  3  0  0  0  0  0  0
  1  4  1  1  0  0  0
  1  8  1  0  0  0  0
  2  5  1  0  0  0  0
  2  6  1  0  0  0  0
  2  1  1  0  0  0  0
  3  7  1  6  0  0  0
  3  2  1  0  0  0  0
  3  1  1  0  0  0  0
  8 13  1  0  0  0  0
  9 10  1  0  0  0  0
  9  8  2  0  0  0  0
 10 11  2  0  0  0  0
 11 12  1  0  0  0  0
 12 14  1  0  0  0  0
 13 12  2  0  0  0  0
 14 17  1  0  0  0  0
 14 18  1  0  0  0  0
 15  9  1  0  0  0  0
 16 10  1  0  0  0  0
 19  3  1  0  0  0  0
 21 20  2  6  0  0  0
 21 24  1  0  0  0  0
 21 19  1  0  0  0  0
 22 21  1  0  0  0  0
 23 22  1  0  0  0  0
 24 25  1  0  0  0  0
 25 33  1  0  0  0  0
 26 25  2  0  0  0  0
 26 28  1  0  0  0  0
 27 26  1  0  0  0  0
 28 29  2  0  0  0  0
 29 30  1  0  0  0  0
 29 31  1  0  0  0  0
 31 32  1  0  0  0  0
 33 31  2  0  0  0  0
M  END
>  <minimizedAffinity>
-5.56075191

$$$$

 OpenBabel03272504583D

 33 35  0  0  1  0  0  0  0  0999 V2000
   38.4520   26.9960   34.5660 C   0  0  1  0  0  0  0  0  0  0  0  0
   38.4430   27.2220   35.9940 C   0  0  0  0  0  0  0  0  0  0  0  0
   38.1680   25.8620   35.4520 C   0  0  2  0  0  0  0  0  0  0  0  0
   39.4170   26.8730   33.9620 H   0  0  0  0  0  0  0  0  0  0  0  0
   37.5660   27.7680   36.4010 H   0  0  0  0  0  0  0  0  0  0  0  0
   39.3630   27.7270   36.2240 H   0  0  0  0  0  0  0  0  0  0  0  0
   37.2090   25.5090   35.7980 H   0  0  0  0  0  0  0  0  0  0  0  0
   37.3200   27.4820   33.7050 C   0  0  0  0  0  0  0  0  0  0  0  0
   36.4420   28.4010   34.3110 C   0  0  0  0  0  0  0  0  0  0  0  0
   35.4180   28.8400   33.5100 C   0  0  0  0  0  0  0  0  0  0  0  0
   35.3050   28.3950   32.2370 N   0  0  0  0  0  0  0  0  0  0  0  0
   36.1750   27.5050   31.6820 C   0  0  0  0  0  0  0  0  0  0  0  0
   37.2130   27.0380   32.4490 N   0  0  0  0  0  0  0  0  0  0  0  0
   36.0950   27.0450   30.3620 N   0  0  0  0  0  0  0  0  0  0  0  0
   36.5180   28.7600   35.3080 H   0  0  0  0  0  0  0  0  0  0  0  0
   34.6750   29.5420   33.8440 H   0  0  0  0  0  0  0  0  0  0  0  0
   36.3100   26.0790   30.0790 H   0  0  0  0  0  0  0  0  0  0  0  0
   35.7950   27.7420   29.6200 H   0  0  0  0  0  0  0  0  0  0  0  0
   39.1890   24.9260   35.5970 O   0  0  0  0  0  0  0  0  0  0  0  0
   37.4110   24.0100   37.2180 O   0  0  0  0  0  0  0  0  0  0  0  0
   38.6670   23.6270   36.5020 P   0  0  1  0  0  0  0  0  0  0  0  0
   38.1870   22.3540   35.4230 O   0  0  0  0  0  0  0  0  0  0  0  0
   37.3330   22.6510   35.0300 H   0  0  0  0  0  0  0  0  0  0  0  0
   39.8890   23.0740   37.4950 O   0  0  0  0  0  0  0  0  0  0  0  0
   41.0370   22.4390   37.1840 C   0  0  0  0  0  0  0  0  0  0  0  0
   41.4850   21.1780   37.4820 C   0  0  0  0  0  0  0  0  0  0  0  0
   40.7660   20.6020   38.0780 H   0  0  0  0  0  0  0  0  0  0  0  0
   42.7110   20.6930   37.0690 C   0  0  0  0  0  3  0  0  0  0  0  0
   43.5330   21.5090   36.3220 C   0  0  0  0  0  0  0  0  0  0  0  0
   44.4890   21.0840   36.0200 H   0  0  0  0  0  0  0  0  0  0  0  0
   43.1430   22.7800   35.9920 C   0  0  0  0  0  0  0  0  0  0  0  0
   43.8140   23.3850   35.4070 H   0  0  0  0  0  0  0  0  0  0  0  0
   41.9080   23.2300   36.4230 C   0  0  0  0  0  3  0  0  0  0  0  0
  1  4  1  6  0  0  0
  1  3  1  0  0  0  0
  1  2  1  0  0  0  0
  2  6  1  0  0  0  0
  2  5  1  0  0  0  0
  3 19  1  0  0  0  0
  3  7  1  1  0  0  0
  3  2  1  0  0  0  0
  8  9  1  0  0  0  0
  8  1  1  0  0  0  0
  9 15  1  0  0  0  0
 10 16  1  0  0  0  0
 10  9  2  0  0  0  0
 11 10  1  0  0  0  0
 12 11  2  0  0  0  0
 12 13  1  0  0  0  0
 13  8  2  0  0  0  0
 14 12  1  0  0  0  0
 17 14  1  0  0  0  0
 18 14  1  0  0  0  0
 19 21  1  0  0  0  0
 21 20  2  1  0  0  0
 21 24  1  0  0  0  0
 22 21  1  0  0  0  0
 23 22  1  0  0  0  0
 25 26  1  0  0  0  0
 25 24  1  0  0  0  0
 26 27  1  0  0  0  0
 28 26  2  0  0  0  0
 29 28  1  0  0  0  0
 30 29  1  0  0  0  0
 31 29  2  0  0  0  0
 31 33  1  0  0  0  0
 32 31  1  0  0  0  0
 33 25  2  0  0  0  0
M  END
>  <minimizedAffinity>
-5.48211145

$$$$

 OpenBabel03272504583D

 33 35  0  0  1  0  0  0  0  0999 V2000
   37.6070   26.1010   35.4540 C   0  0  1  0  0  0  0  0  0  0  0  0
   38.4790   27.2440   35.6070 C   0  0  0  0  0  0  0  0  0  0  0  0
   38.0300   26.8240   34.2500 C   0  0  2  0  0  0  0  0  0  0  0  0
   36.4780   26.1500   35.6440 H   0  0  0  0  0  0  0  0  0  0  0  0
   39.5390   27.0270   35.8560 H   0  0  0  0  0  0  0  0  0  0  0  0
   38.0210   27.8740   36.3480 H   0  0  0  0  0  0  0  0  0  0  0  0
   38.8820   26.6290   33.6190 H   0  0  0  0  0  0  0  0  0  0  0  0
   38.1360   24.7050   35.6260 C   0  0  0  0  0  0  0  0  0  0  0  0
   38.1810   23.9200   34.4580 C   0  0  0  0  0  0  0  0  0  0  0  0
   38.6730   22.6510   34.6310 C   0  0  0  0  0  0  0  0  0  0  0  0
   39.0750   22.2320   35.8530 N   0  0  0  0  0  0  0  0  0  0  0  0
   39.0180   23.0200   36.9640 C   0  0  0  0  0  0  0  0  0  0  0  0
   38.5310   24.2970   36.8360 N   0  0  0  0  0  0  0  0  0  0  0  0
   39.4470   22.6210   38.2350 N   0  0  0  0  0  0  0  0  0  0  0  0
   37.8700   24.2340   33.4920 H   0  0  0  0  0  0  0  0  0  0  0  0
   38.7620   21.9450   33.8250 H   0  0  0  0  0  0  0  0  0  0  0  0
   38.9700   22.8840   39.1080 H   0  0  0  0  0  0  0  0  0  0  0  0
   40.3160   22.0140   38.2880 H   0  0  0  0  0  0  0  0  0  0  0  0
   37.0650   27.6280   33.6480 O   0  0  0  0  0  0  0  0  0  0  0  0
   37.0300   29.1360   31.5600 O   0  0  0  0  0  0  0  0  0  0  0  0
   37.3420   27.7430   32.0070 P   0  0  1  0  0  0  0  0  0  0  0  0
   39.0450   27.5600   31.7160 O   0  0  0  0  0  0  0  0  0  0  0  0
   39.4560   28.4000   32.0260 H   0  0  0  0  0  0  0  0  0  0  0  0
   36.5130   26.5500   31.1860 O   0  0  0  0  0  0  0  0  0  0  0  0
   36.7360   25.2220   31.1310 C   0  0  0  0  0  0  0  0  0  0  0  0
   37.8380   24.5030   30.7460 C   0  0  0  0  0  0  0  0  0  0  0  0
   38.6730   25.1420   30.4320 H   0  0  0  0  0  0  0  0  0  0  0  0
   37.8840   23.1220   30.7570 C   0  0  0  0  0  3  0  0  0  0  0  0
   36.7710   22.4220   31.1740 C   0  0  0  0  0  0  0  0  0  0  0  0
   36.8540   21.3370   31.1650 H   0  0  0  0  0  0  0  0  0  0  0  0
   35.6390   23.0830   31.5710 C   0  0  0  0  0  0  0  0  0  0  0  0
   34.7920   22.5000   31.8890 H   0  0  0  0  0  0  0  0  0  0  0  0
   35.6310   24.4660   31.5460 C   0  0  0  0  0  3  0  0  0  0  0  0
  1  2  1  0  0  0  0
  1  8  1  0  0  0  0
  1  4  1  1  0  0  0
  2  5  1  0  0  0  0
  2  6  1  0  0  0  0
  3  7  1  6  0  0  0
  3  1  1  0  0  0  0
  3  2  1  0  0  0  0
  8 13  1  0  0  0  0
  9 10  1  0  0  0  0
  9  8  2  0  0  0  0
 10 11  2  0  0  0  0
 11 12  1  0  0  0  0
 12 14  1  0  0  0  0
 13 12  2  0  0  0  0
 14 18  1  0  0  0  0
 14 17  1  0  0  0  0
 15  9  1  0  0  0  0
 16 10  1  0  0  0  0
 19  3  1  0  0  0  0
 21 20  2  6  0  0  0
 21 19  1  0  0  0  0
 22 21  1  0  0  0  0
 22 23  1  0  0  0  0
 24 21  1  0  0  0  0
 25 24  1  0  0  0  0
 25 33  1  0  0  0  0
 26 28  1  0  0  0  0
 26 25  2  0  0  0  0
 27 26  1  0  0  0  0
 28 29  2  0  0  0  0
 29 31  1  0  0  0  0
 30 29  1  0  0  0  0
 31 32  1  0  0  0  0
 33 31  2  0  0  0  0
M  END
>  <minimizedAffinity>
-5.41337442

$$$$

 OpenBabel03272504583D

 33 35  0  0  1  0  0  0  0  0999 V2000
   39.9040   25.1660   34.5060 C   0  0  1  0  0  0  0  0  0  0  0  0
   41.0720   24.7280   33.7760 C   0  0  0  0  0  0  0  0  0  0  0  0
   39.7100   24.4660   33.2320 C   0  0  2  0  0  0  0  0  0  0  0  0
   39.5310   26.2490   34.4930 H   0  0  0  0  0  0  0  0  0  0  0  0
   41.6090   23.8470   34.1850 H   0  0  0  0  0  0  0  0  0  0  0  0
   41.7180   25.5840   33.7020 H   0  0  0  0  0  0  0  0  0  0  0  0
   39.5720   23.4100   33.0650 H   0  0  0  0  0  0  0  0  0  0  0  0
   39.4610   24.4450   35.7480 C   0  0  0  0  0  0  0  0  0  0  0  0
   38.2500   24.8870   36.3140 C   0  0  0  0  0  0  0  0  0  0  0  0
   37.8570   24.2130   37.4420 C   0  0  0  0  0  0  0  0  0  0  0  0
   38.6120   23.2040   37.9360 N   0  0  0  0  0  0  0  0  0  0  0  0
   39.7800   22.8010   37.3620 C   0  0  0  0  0  0  0  0  0  0  0  0
   40.2110   23.4490   36.2320 N   0  0  0  0  0  0  0  0  0  0  0  0
   40.5690   21.7480   37.8370 N   0  0  0  0  0  0  0  0  0  0  0  0
   37.6460   25.6750   35.9380 H   0  0  0  0  0  0  0  0  0  0  0  0
   36.9540   24.4460   37.9770 H   0  0  0  0  0  0  0  0  0  0  0  0
   41.5980   21.7550   37.8310 H   0  0  0  0  0  0  0  0  0  0  0  0
   40.0650   20.8970   38.2250 H   0  0  0  0  0  0  0  0  0  0  0  0
   39.3180   25.2550   32.1520 O   0  0  0  0  0  0  0  0  0  0  0  0
   36.8350   25.4520   32.8050 O   0  0  0  0  0  0  0  0  0  0  0  0
   37.7380   24.9280   31.7330 P   0  0  1  0  0  0  0  0  0  0  0  0
   37.3320   25.8570   30.3230 O   0  0  0  0  0  0  0  0  0  0  0  0
   37.2440   26.7870   30.6380 H   0  0  0  0  0  0  0  0  0  0  0  0
   37.5420   23.3050   31.3970 O   0  0  0  0  0  0  0  0  0  0  0  0
   36.8670   22.3550   32.0750 C   0  0  0  0  0  0  0  0  0  0  0  0
   37.0350   21.8530   33.3400 C   0  0  0  0  0  0  0  0  0  0  0  0
   37.8720   22.3200   33.8750 H   0  0  0  0  0  0  0  0  0  0  0  0
   36.2320   20.8640   33.8750 C   0  0  0  0  0  3  0  0  0  0  0  0
   35.2080   20.3500   33.1080 C   0  0  0  0  0  0  0  0  0  0  0  0
   34.6020   19.5740   33.5720 H   0  0  0  0  0  0  0  0  0  0  0  0
   34.9880   20.8110   31.8370 C   0  0  0  0  0  0  0  0  0  0  0  0
   34.1790   20.3840   31.2710 H   0  0  0  0  0  0  0  0  0  0  0  0
   35.8140   21.8020   31.3360 C   0  0  0  0  0  3  0  0  0  0  0  0
  1  4  1  6  0  0  0
  1  8  1  0  0  0  0
  2  5  1  0  0  0  0
  2  1  1  0  0  0  0
  3  7  1  1  0  0  0
  3  2  1  0  0  0  0
  3  1  1  0  0  0  0
  6  2  1  0  0  0  0
  8 13  2  0  0  0  0
  8  9  1  0  0  0  0
  9 10  2  0  0  0  0
 10 11  1  0  0  0  0
 10 16  1  0  0  0  0
 12 14  1  0  0  0  0
 12 11  2  0  0  0  0
 13 12  1  0  0  0  0
 14 18  1  0  0  0  0
 15  9  1  0  0  0  0
 17 14  1  0  0  0  0
 19  3  1  0  0  0  0
 21 19  1  0  0  0  0
 21 20  2  1  0  0  0
 22 23  1  0  0  0  0
 22 21  1  0  0  0  0
 24 21  1  0  0  0  0
 24 25  1  0  0  0  0
 25 26  1  0  0  0  0
 26 27  1  0  0  0  0
 26 28  2  0  0  0  0
 29 30  1  0  0  0  0
 29 28  1  0  0  0  0
 31 29  2  0  0  0  0
 32 31  1  0  0  0  0
 33 31  1  0  0  0  0
 33 25  2  0  0  0  0
M  END
>  <minimizedAffinity>
-5.34206009

$$$$

 OpenBabel03272504583D

 33 35  0  0  1  0  0  0  0  0999 V2000
   38.5460   26.7790   34.4880 C   0  0  1  0  0  0  0  0  0  0  0  0
   38.5590   26.9960   35.9170 C   0  0  0  0  0  0  0  0  0  0  0  0
   38.2810   25.6380   35.3700 C   0  0  2  0  0  0  0  0  0  0  0  0
   39.5020   26.6640   33.8670 H   0  0  0  0  0  0  0  0  0  0  0  0
   37.6860   27.5350   36.3420 H   0  0  0  0  0  0  0  0  0  0  0  0
   39.4800   27.5030   36.1350 H   0  0  0  0  0  0  0  0  0  0  0  0
   37.3300   25.2780   35.7290 H   0  0  0  0  0  0  0  0  0  0  0  0
   37.3980   27.2650   33.6480 C   0  0  0  0  0  0  0  0  0  0  0  0
   36.5940   28.2630   34.2320 C   0  0  0  0  0  0  0  0  0  0  0  0
   35.5550   28.7010   33.4490 C   0  0  0  0  0  0  0  0  0  0  0  0
   35.3600   28.1830   32.2150 N   0  0  0  0  0  0  0  0  0  0  0  0
   36.1600   27.2170   31.6810 C   0  0  0  0  0  0  0  0  0  0  0  0
   37.2110   26.7490   32.4290 N   0  0  0  0  0  0  0  0  0  0  0  0
   35.9960   26.6790   30.3990 N   0  0  0  0  0  0  0  0  0  0  0  0
   36.7340   28.6800   35.1980 H   0  0  0  0  0  0  0  0  0  0  0  0
   34.8620   29.4580   33.7700 H   0  0  0  0  0  0  0  0  0  0  0  0
   36.1520   25.6880   30.1710 H   0  0  0  0  0  0  0  0  0  0  0  0
   35.6940   27.3420   29.6270 H   0  0  0  0  0  0  0  0  0  0  0  0
   39.3090   24.7060   35.4930 O   0  0  0  0  0  0  0  0  0  0  0  0
   39.6060   22.7450   37.1360 O   0  0  0  0  0  0  0  0  0  0  0  0
   38.7150   23.2500   36.0460 P   0  0  1  0  0  0  0  0  0  0  0  0
   37.1870   23.5310   36.8230 O   0  0  0  0  0  0  0  0  0  0  0  0
   37.4040   23.9710   37.6780 H   0  0  0  0  0  0  0  0  0  0  0  0
   38.4990   22.1840   34.7800 O   0  0  0  0  0  0  0  0  0  0  0  0
   37.4830   22.0780   33.9010 C   0  0  0  0  0  0  0  0  0  0  0  0
   36.4520   21.1780   33.8110 C   0  0  0  0  0  0  0  0  0  0  0  0
   36.4800   20.4210   34.6040 H   0  0  0  0  0  0  0  0  0  0  0  0
   35.4860   21.2290   32.8240 C   0  0  0  0  0  3  0  0  0  0  0  0
   35.5530   22.2300   31.8780 C   0  0  0  0  0  0  0  0  0  0  0  0
   34.7710   22.2290   31.1200 H   0  0  0  0  0  0  0  0  0  0  0  0
   36.5580   23.1590   31.9130 C   0  0  0  0  0  0  0  0  0  0  0  0
   36.5750   23.9240   31.1560 H   0  0  0  0  0  0  0  0  0  0  0  0
   37.5070   23.0750   32.9170 C   0  0  0  0  0  3  0  0  0  0  0  0
  1  4  1  6  0  0  0
  1  3  1  0  0  0  0
  1  2  1  0  0  0  0
  2  6  1  0  0  0  0
  2  5  1  0  0  0  0
  3 19  1  0  0  0  0
  3  7  1  1  0  0  0
  3  2  1  0  0  0  0
  8  9  1  0  0  0  0
  8  1  1  0  0  0  0
  9 15  1  0  0  0  0
 10 16  1  0  0  0  0
 10  9  2  0  0  0  0
 11 10  1  0  0  0  0
 12 11  2  0  0  0  0
 12 13  1  0  0  0  0
 13  8  2  0  0  0  0
 14 12  1  0  0  0  0
 17 14  1  0  0  0  0
 18 14  1  0  0  0  0
 19 21  1  0  0  0  0
 21 22  1  0  0  0  0
 21 20  2  1  0  0  0
 22 23  1  0  0  0  0
 24 21  1  0  0  0  0
 25 24  1  0  0  0  0
 26 25  1  0  0  0  0
 26 27  1  0  0  0  0
 28 26  2  0  0  0  0
 29 31  2  0  0  0  0
 29 28  1  0  0  0  0
 30 29  1  0  0  0  0
 31 33  1  0  0  0  0
 32 31  1  0  0  0  0
 33 25  2  0  0  0  0
M  END
>  <minimizedAffinity>
-5.31152248

$$$$

 OpenBabel03272504583D

 33 35  0  0  1  0  0  0  0  0999 V2000
   38.7070   23.4530   36.4440 C   0  0  1  0  0  0  0  0  0  0  0  0
   38.0820   23.9670   37.6420 C   0  0  0  0  0  0  0  0  0  0  0  0
   38.4990   24.9000   36.5580 C   0  0  2  0  0  0  0  0  0  0  0  0
   38.1140   22.9710   35.5900 H   0  0  0  0  0  0  0  0  0  0  0  0
   38.7080   23.9790   38.5590 H   0  0  0  0  0  0  0  0  0  0  0  0
   37.1860   23.3910   37.7840 H   0  0  0  0  0  0  0  0  0  0  0  0
   39.1760   25.6430   36.9460 H   0  0  0  0  0  0  0  0  0  0  0  0
   40.1300   22.9700   36.4690 C   0  0  0  0  0  0  0  0  0  0  0  0
   41.0350   23.6940   35.6700 C   0  0  0  0  0  0  0  0  0  0  0  0
   42.3310   23.2440   35.7100 C   0  0  0  0  0  0  0  0  0  0  0  0
   42.6650   22.1820   36.4770 N   0  0  0  0  0  0  0  0  0  0  0  0
   41.7620   21.5040   37.2400 C   0  0  0  0  0  0  0  0  0  0  0  0
   40.4540   21.9190   37.2290 N   0  0  0  0  0  0  0  0  0  0  0  0
   42.0830   20.4160   38.0600 N   0  0  0  0  0  0  0  0  0  0  0  0
   40.7890   24.5300   35.0630 H   0  0  0  0  0  0  0  0  0  0  0  0
   43.1250   23.7030   35.1480 H   0  0  0  0  0  0  0  0  0  0  0  0
   41.4730   19.5970   38.1880 H   0  0  0  0  0  0  0  0  0  0  0  0
   43.0110   20.4500   38.5740 H   0  0  0  0  0  0  0  0  0  0  0  0
   37.4730   25.4340   35.7810 O   0  0  0  0  0  0  0  0  0  0  0  0
   37.3790   27.9510   35.2440 O   0  0  0  0  0  0  0  0  0  0  0  0
   38.0480   26.6790   34.8310 P   0  0  1  0  0  0  0  0  0  0  0  0
   39.7280   26.9280   35.1970 O   0  0  0  0  0  0  0  0  0  0  0  0
   39.7430   27.3590   36.0830 H   0  0  0  0  0  0  0  0  0  0  0  0
   37.8870   26.3060   33.2130 O   0  0  0  0  0  0  0  0  0  0  0  0
   37.2270   25.2910   32.6200 C   0  0  0  0  0  0  0  0  0  0  0  0
   36.1280   25.2800   31.8000 C   0  0  0  0  0  0  0  0  0  0  0  0
   35.7330   26.2860   31.6070 H   0  0  0  0  0  0  0  0  0  0  0  0
   35.5830   24.1230   31.2770 C   0  0  0  0  0  3  0  0  0  0  0  0
   36.1660   22.9130   31.5890 C   0  0  0  0  0  0  0  0  0  0  0  0
   35.7030   22.0290   31.1550 H   0  0  0  0  0  0  0  0  0  0  0  0
   37.2670   22.8570   32.4030 C   0  0  0  0  0  0  0  0  0  0  0  0
   37.6920   21.8920   32.6220 H   0  0  0  0  0  0  0  0  0  0  0  0
   37.7830   24.0370   32.9070 C   0  0  0  0  0  3  0  0  0  0  0  0
  1  4  1  6  0  0  0
  1  8  1  0  0  0  0
  1  3  1  0  0  0  0
  1  2  1  0  0  0  0
  2  6  1  0  0  0  0
  2  5  1  0  0  0  0
  3  7  1  1  0  0  0
  3  2  1  0  0  0  0
  8 13  1  0  0  0  0
  9 10  1  0  0  0  0
  9  8  2  0  0  0  0
 10 11  2  0  0  0  0
 11 12  1  0  0  0  0
 12 14  1  0  0  0  0
 13 12  2  0  0  0  0
 14 17  1  0  0  0  0
 14 18  1  0  0  0  0
 15  9  1  0  0  0  0
 16 10  1  0  0  0  0
 19  3  1  0  0  0  0
 21 22  1  0  0  0  0
 21 20  2  1  0  0  0
 21 19  1  0  0  0  0
 22 23  1  0  0  0  0
 24 21  1  0  0  0  0
 25 33  1  0  0  0  0
 25 24  1  0  0  0  0
 26 25  2  0  0  0  0
 27 26  1  0  0  0  0
 28 29  2  0  0  0  0
 28 26  1  0  0  0  0
 29 31  1  0  0  0  0
 30 29  1  0  0  0  0
 31 32  1  0  0  0  0
 31 33  2  0  0  0  0
M  END
>  <minimizedAffinity>
-5.27628756

$$$$

 OpenBabel03272504583D

 33 35  0  0  1  0  0  0  0  0999 V2000
   36.7740   22.9350   31.1900 C   0  0  1  0  0  0  0  0  0  0  0  0
   35.7990   23.9990   31.1040 C   0  0  0  0  0  0  0  0  0  0  0  0
   36.7340   23.9350   32.2620 C   0  0  2  0  0  0  0  0  0  0  0  0
   37.7540   22.9400   30.5960 H   0  0  0  0  0  0  0  0  0  0  0  0
   34.7450   23.7220   31.3160 H   0  0  0  0  0  0  0  0  0  0  0  0
   35.9050   24.4250   30.1230 H   0  0  0  0  0  0  0  0  0  0  0  0
   36.1810   23.9010   33.1870 H   0  0  0  0  0  0  0  0  0  0  0  0
   36.3540   21.5380   31.5520 C   0  0  0  0  0  0  0  0  0  0  0  0
   35.8320   21.3740   32.8490 C   0  0  0  0  0  0  0  0  0  0  0  0
   35.4470   20.0940   33.1600 C   0  0  0  0  0  0  0  0  0  0  0  0
   35.5780   19.0980   32.2540 N   0  0  0  0  0  0  0  0  0  0  0  0
   36.0880   19.2940   31.0050 C   0  0  0  0  0  0  0  0  0  0  0  0
   36.4870   20.5590   30.6510 N   0  0  0  0  0  0  0  0  0  0  0  0
   36.2140   18.2890   30.0400 N   0  0  0  0  0  0  0  0  0  0  0  0
   35.7220   22.1440   33.5710 H   0  0  0  0  0  0  0  0  0  0  0  0
   35.0320   19.8260   34.1150 H   0  0  0  0  0  0  0  0  0  0  0  0
   37.0080   18.2170   29.3890 H   0  0  0  0  0  0  0  0  0  0  0  0
   35.4400   17.5640   29.9850 H   0  0  0  0  0  0  0  0  0  0  0  0
   37.7680   24.8690   32.2670 O   0  0  0  0  0  0  0  0  0  0  0  0
   40.0920   23.8870   32.7820 O   0  0  0  0  0  0  0  0  0  0  0  0
   38.8920   24.4890   33.4390 P   0  0  1  0  0  0  0  0  0  0  0  0
   39.4740   25.9630   34.1510 O   0  0  0  0  0  0  0  0  0  0  0  0
   40.0580   26.3710   33.4700 H   0  0  0  0  0  0  0  0  0  0  0  0
   38.2040   23.5400   34.6270 O   0  0  0  0  0  0  0  0  0  0  0  0
   38.3490   23.5900   35.9670 C   0  0  0  0  0  0  0  0  0  0  0  0
   37.6010   24.2050   36.9370 C   0  0  0  0  0  0  0  0  0  0  0  0
   36.7380   24.7460   36.5280 H   0  0  0  0  0  0  0  0  0  0  0  0
   37.9070   24.1440   38.2830 C   0  0  0  0  0  3  0  0  0  0  0  0
   39.0180   23.4320   38.6810 C   0  0  0  0  0  0  0  0  0  0  0  0
   39.2200   23.4120   39.7510 H   0  0  0  0  0  0  0  0  0  0  0  0
   39.8070   22.7940   37.7600 C   0  0  0  0  0  0  0  0  0  0  0  0
   40.6650   22.2490   38.1120 H   0  0  0  0  0  0  0  0  0  0  0  0
   39.4670   22.8780   36.4220 C   0  0  0  0  0  3  0  0  0  0  0  0
  1  4  1  6  0  0  0
  1  8  1  0  0  0  0
  1  3  1  0  0  0  0
  2  1  1  0  0  0  0
  2  5  1  0  0  0  0
  2  3  1  0  0  0  0
  3 19  1  0  0  0  0
  3  7  1  1  0  0  0
  6  2  1  0  0  0  0
  8  9  1  0  0  0  0
  9 10  2  0  0  0  0
  9 15  1  0  0  0  0
 10 16  1  0  0  0  0
 11 10  1  0  0  0  0
 12 11  2  0  0  0  0
 13 12  1  0  0  0  0
 13  8  2  0  0  0  0
 14 12  1  0  0  0  0
 17 14  1  0  0  0  0
 18 14  1  0  0  0  0
 19 21  1  0  0  0  0
 21 20  2  6  0  0  0
 21 22  1  0  0  0  0
 21 24  1  0  0  0  0
 23 22  1  0  0  0  0
 24 25  1  0  0  0  0
 25 33  2  0  0  0  0
 25 26  1  0  0  0  0
 26 28  2  0  0  0  0
 27 26  1  0  0  0  0
 28 29  1  0  0  0  0
 29 30  1  0  0  0  0
 31 32  1  0  0  0  0
 31 29  2  0  0  0  0
 33 31  1  0  0  0  0
M  END
>  <minimizedAffinity>
-5.26645899

$$$$

 OpenBabel03272504583D

 33 35  0  0  1  0  0  0  0  0999 V2000
   35.3180   28.6640   33.3250 C   0  0  1  0  0  0  0  0  0  0  0  0
   36.2900   29.0900   32.3440 C   0  0  0  0  0  0  0  0  0  0  0  0
   36.7390   28.4280   33.6020 C   0  0  2  0  0  0  0  0  0  0  0  0
   34.7070   27.7010   33.2190 H   0  0  0  0  0  0  0  0  0  0  0  0
   36.4790   30.1820   32.2770 H   0  0  0  0  0  0  0  0  0  0  0  0
   35.9630   28.6880   31.4030 H   0  0  0  0  0  0  0  0  0  0  0  0
   37.4300   29.0630   34.1310 H   0  0  0  0  0  0  0  0  0  0  0  0
   34.6170   29.6690   34.1960 C   0  0  0  0  0  0  0  0  0  0  0  0
   33.2190   29.7380   34.0490 C   0  0  0  0  0  0  0  0  0  0  0  0
   32.5950   30.6550   34.8560 C   0  0  0  0  0  0  0  0  0  0  0  0
   33.3140   31.4130   35.7160 N   0  0  0  0  0  0  0  0  0  0  0  0
   34.6690   31.3200   35.8330 C   0  0  0  0  0  0  0  0  0  0  0  0
   35.3340   30.4160   35.0430 N   0  0  0  0  0  0  0  0  0  0  0  0
   35.4350   32.0750   36.7290 N   0  0  0  0  0  0  0  0  0  0  0  0
   32.6410   29.1500   33.3800 H   0  0  0  0  0  0  0  0  0  0  0  0
   31.5310   30.8130   34.8460 H   0  0  0  0  0  0  0  0  0  0  0  0
   36.3680   32.4490   36.5090 H   0  0  0  0  0  0  0  0  0  0  0  0
   35.0190   32.2660   37.6860 H   0  0  0  0  0  0  0  0  0  0  0  0
   37.1760   27.1110   33.4790 O   0  0  0  0  0  0  0  0  0  0  0  0
   39.5890   26.8200   34.3300 O   0  0  0  0  0  0  0  0  0  0  0  0
   38.1620   26.7020   34.7600 P   0  0  1  0  0  0  0  0  0  0  0  0
   37.9790   27.8970   36.0080 O   0  0  0  0  0  0  0  0  0  0  0  0
   38.4440   28.6980   35.6740 H   0  0  0  0  0  0  0  0  0  0  0  0
   37.7440   25.2040   35.3680 O   0  0  0  0  0  0  0  0  0  0  0  0
   38.3380   24.4620   36.3250 C   0  0  0  0  0  0  0  0  0  0  0  0
   38.0570   24.3110   37.6580 C   0  0  0  0  0  0  0  0  0  0  0  0
   37.1950   24.9070   37.9810 H   0  0  0  0  0  0  0  0  0  0  0  0
   38.7880   23.4910   38.4980 C   0  0  0  0  0  3  0  0  0  0  0  0
   39.8530   22.7870   37.9790 C   0  0  0  0  0  0  0  0  0  0  0  0
   40.3990   22.1550   38.6770 H   0  0  0  0  0  0  0  0  0  0  0  0
   40.1840   22.8960   36.6540 C   0  0  0  0  0  0  0  0  0  0  0  0
   41.0230   22.3290   36.2880 H   0  0  0  0  0  0  0  0  0  0  0  0
   39.4290   23.7260   35.8450 C   0  0  0  0  0  3  0  0  0  0  0  0
  1  4  1  6  0  0  0
  1  3  1  0  0  0  0
  1  8  1  0  0  0  0
  2  1  1  0  0  0  0
  2  3  1  0  0  0  0
  3  7  1  1  0  0  0
  5  2  1  0  0  0  0
  6  2  1  0  0  0  0
  8 13  1  0  0  0  0
  9  8  2  0  0  0  0
  9 10  1  0  0  0  0
 10 11  2  0  0  0  0
 11 12  1  0  0  0  0
 12 14  1  0  0  0  0
 13 12  2  0  0  0  0
 14 18  1  0  0  0  0
 15  9  1  0  0  0  0
 16 10  1  0  0  0  0
 17 14  1  0  0  0  0
 19  3  1  0  0  0  0
 19 21  1  0  0  0  0
 21 20  2  6  0  0  0
 21 24  1  0  0  0  0
 21 22  1  0  0  0  0
 23 22  1  0  0  0  0
 24 25  1  0  0  0  0
 25 26  1  0  0  0  0
 26 27  1  0  0  0  0
 26 28  2  0  0  0  0
 29 28  1  0  0  0  0
 29 30  1  0  0  0  0
 31 29  2  0  0  0  0
 32 31  1  0  0  0  0
 33 25  2  0  0  0  0
 33 31  1  0  0  0  0
M  END
>  <minimizedAffinity>
-5.22338772

$$$$

 OpenBabel03272504583D

 33 35  0  0  1  0  0  0  0  0999 V2000
   38.2910   25.8900   35.3980 C   0  0  1  0  0  0  0  0  0  0  0  0
   38.3550   27.3040   35.6880 C   0  0  0  0  0  0  0  0  0  0  0  0
   39.4750   26.6390   34.9650 C   0  0  2  0  0  0  0  0  0  0  0  0
   37.6790   25.4590   34.5310 H   0  0  0  0  0  0  0  0  0  0  0  0
   38.5580   27.5840   36.7430 H   0  0  0  0  0  0  0  0  0  0  0  0
   37.4290   27.7250   35.3400 H   0  0  0  0  0  0  0  0  0  0  0  0
   40.4020   26.7880   35.4940 H   0  0  0  0  0  0  0  0  0  0  0  0
   38.4950   24.8740   36.4880 C   0  0  0  0  0  0  0  0  0  0  0  0
   37.8540   25.1510   37.7100 C   0  0  0  0  0  0  0  0  0  0  0  0
   38.0450   24.2110   38.6910 C   0  0  0  0  0  0  0  0  0  0  0  0
   38.8000   23.1150   38.4520 N   0  0  0  0  0  0  0  0  0  0  0  0
   39.4070   22.8780   37.2540 C   0  0  0  0  0  0  0  0  0  0  0  0
   39.2430   23.7930   36.2450 N   0  0  0  0  0  0  0  0  0  0  0  0
   40.1750   21.7420   36.9720 N   0  0  0  0  0  0  0  0  0  0  0  0
   37.2570   26.0060   37.9130 H   0  0  0  0  0  0  0  0  0  0  0  0
   37.6140   24.2960   39.6720 H   0  0  0  0  0  0  0  0  0  0  0  0
   41.0270   21.7570   36.3960 H   0  0  0  0  0  0  0  0  0  0  0  0
   39.8490   20.8190   37.3820 H   0  0  0  0  0  0  0  0  0  0  0  0
   39.5660   26.9040   33.6000 O   0  0  0  0  0  0  0  0  0  0  0  0
   41.1010   26.0320   31.7250 O   0  0  0  0  0  0  0  0  0  0  0  0
   40.1510   25.5720   32.7850 P   0  0  1  0  0  0  0  0  0  0  0  0
   41.1290   24.6370   33.8740 O   0  0  0  0  0  0  0  0  0  0  0  0
   41.9600   25.1540   33.9910 H   0  0  0  0  0  0  0  0  0  0  0  0
   38.8950   24.6270   32.2250 O   0  0  0  0  0  0  0  0  0  0  0  0
   37.6640   24.9820   31.8060 C   0  0  0  0  0  0  0  0  0  0  0  0
   37.1500   26.1960   31.4300 C   0  0  0  0  0  0  0  0  0  0  0  0
   37.8890   27.0060   31.4870 H   0  0  0  0  0  0  0  0  0  0  0  0
   35.8410   26.3720   31.0220 C   0  0  0  0  0  3  0  0  0  0  0  0
   35.0020   25.2790   30.9900 C   0  0  0  0  0  0  0  0  0  0  0  0
   33.9800   25.4650   30.6630 H   0  0  0  0  0  0  0  0  0  0  0  0
   35.4550   24.0380   31.3540 C   0  0  0  0  0  0  0  0  0  0  0  0
   34.7680   23.2110   31.3150 H   0  0  0  0  0  0  0  0  0  0  0  0
   36.7720   23.9030   31.7560 C   0  0  0  0  0  3  0  0  0  0  0  0
  1  4  1  6  0  0  0
  1  2  1  0  0  0  0
  1  8  1  0  0  0  0
  2  5  1  0  0  0  0
  3  1  1  0  0  0  0
  3  7  1  1  0  0  0
  3  2  1  0  0  0  0
  6  2  1  0  0  0  0
  8  9  1  0  0  0  0
  9 15  1  0  0  0  0
  9 10  2  0  0  0  0
 10 16  1  0  0  0  0
 11 10  1  0  0  0  0
 12 11  2  0  0  0  0
 13  8  2  0  0  0  0
 13 12  1  0  0  0  0
 14 12  1  0  0  0  0
 14 18  1  0  0  0  0
 17 14  1  0  0  0  0
 19  3  1  0  0  0  0
 21 20  2  6  0  0  0
 21 19  1  0  0  0  0
 21 22  1  0  0  0  0
 22 23  1  0  0  0  0
 24 21  1  0  0  0  0
 25 24  1  0  0  0  0
 26 27  1  0  0  0  0
 26 25  2  0  0  0  0
 28 26  1  0  0  0  0
 29 28  2  0  0  0  0
 29 31  1  0  0  0  0
 30 29  1  0  0  0  0
 31 33  2  0  0  0  0
 32 31  1  0  0  0  0
 33 25  1  0  0  0  0
M  END
>  <minimizedAffinity>
-5.17012644

$$$$
