
 OpenBabel03272500243D

 31 33  0  0  0  0  0  0  0  0999 V2000
   35.7890   29.8030   49.0560 C   0  0  0  0  0  0  0  0  0  0  0  0
   36.6730   29.3030   50.0100 C   0  0  0  0  0  0  0  0  0  0  0  0
   37.8090   30.0630   49.9540 C   0  0  0  0  0  0  0  0  0  0  0  0
   37.6190   30.9830   49.0050 N   0  0  0  0  0  0  0  0  0  0  0  0
   36.4230   30.8130   48.4870 N   0  0  0  0  0  0  0  0  0  0  0  0
   36.6200   28.4850   50.7290 H   0  0  0  0  0  0  0  0  0  0  0  0
   38.7680   30.0930   50.4670 H   0  0  0  0  0  0  0  0  0  0  0  0
   38.4480   32.0310   48.5110 C   0  0  0  0  0  0  0  0  0  0  0  0
   38.6800   33.0760   49.3810 C   0  0  0  0  0  0  0  0  0  0  0  0
   38.2470   33.0920   50.3910 H   0  0  0  0  0  0  0  0  0  0  0  0
   39.4630   34.1850   49.0700 C   0  0  0  0  0  0  0  0  0  0  0  0
   40.0270   34.1940   47.7930 C   0  0  0  0  0  0  0  0  0  0  0  0
   40.6460   35.0310   47.4970 H   0  0  0  0  0  0  0  0  0  0  0  0
   39.8020   33.1520   46.9130 C   0  0  0  0  0  0  0  0  0  0  0  0
   40.2380   33.1550   45.9190 H   0  0  0  0  0  0  0  0  0  0  0  0
   39.0190   32.0670   47.2520 C   0  0  0  0  0  0  0  0  0  0  0  0
   34.4520   29.1870   48.8660 C   0  0  0  0  0  0  0  0  0  0  0  0
   34.2840   28.3690   49.6330 H   0  0  0  0  0  0  0  0  0  0  0  0
   33.7270   29.9530   49.1740 H   0  0  0  0  0  0  0  0  0  0  0  0
   34.2790   28.5570   47.5420 C   0  0  0  0  0  0  0  0  0  0  0  0
   33.5620   27.6820   47.5630 H   0  0  0  0  0  0  0  0  0  0  0  0
   35.2620   28.0450   47.3050 H   0  0  0  0  0  0  0  0  0  0  0  0
   33.9440   29.3770   46.4140 C   0  0  0  0  0  0  0  0  0  0  0  0
   32.7490   30.0440   46.3610 C   0  0  0  0  0  0  0  0  0  0  0  0
   32.4170   30.8450   45.2430 C   0  0  0  0  0  0  0  0  0  0  0  0
   33.3740   30.8970   44.2380 N   0  0  0  0  0  0  0  0  0  0  0  0
   34.5370   30.2180   44.3430 C   0  0  0  0  0  0  0  0  0  0  0  0
   34.8200   29.4630   45.4240 N   0  0  0  0  0  0  0  0  0  0  0  0
   31.9380   30.0880   47.0650 H   0  0  0  0  0  0  0  0  0  0  0  0
   31.5410   31.4150   45.0610 H   0  0  0  0  0  0  0  0  0  0  0  0
   35.2540   30.2910   43.5280 H   0  0  0  0  0  0  0  0  0  0  0  0
  1  2  1  0  0  0  0
  2  6  1  0  0  0  0
  3  2  2  0  0  0  0
  3  7  1  0  0  0  0
  4  3  1  0  0  0  0
  5  4  1  0  0  0  0
  5  1  2  0  0  0  0
  8  4  1  0  0  0  0
  8  9  1  0  0  0  0
  9 10  1  0  0  0  0
 11  9  2  0  0  0  0
 12 11  1  0  0  0  0
 13 12  1  0  0  0  0
 14 16  1  0  0  0  0
 14 12  2  0  0  0  0
 15 14  1  0  0  0  0
 16  8  2  0  0  0  0
 17  1  1  0  0  0  0
 17 19  1  0  0  0  0
 17 18  1  0  0  0  0
 20 21  1  0  0  0  0
 20 17  1  0  0  0  0
 22 20  1  0  0  0  0
 23 20  1  0  0  0  0
 24 23  1  0  0  0  0
 24 29  1  0  0  0  0
 25 24  2  0  0  0  0
 26 27  2  0  0  0  0
 26 25  1  0  0  0  0
 27 28  1  0  0  0  0
 28 23  2  0  0  0  0
 30 25  1  0  0  0  0
 31 27  1  0  0  0  0
M  END
>  <minimizedAffinity>
-5.25059652

>  <minimizedRMSD>
5.56051874

$$$$
