
 OpenBabel03272509473D

 25 26  0  0  0  0  0  0  0  0999 V2000
   33.8670   28.6460   48.9040 C   0  0  0  0  0  0  0  0  0  0  0  0
   33.1050   29.3400   49.2970 H   0  0  0  0  0  0  0  0  0  0  0  0
   34.4000   29.1880   48.0850 H   0  0  0  0  0  0  0  0  0  0  0  0
   33.2540   27.4290   48.2510 C   0  0  0  0  0  0  0  0  0  0  0  0
   33.4360   26.5440   48.8760 H   0  0  0  0  0  0  0  0  0  0  0  0
   32.1430   27.6150   48.2510 H   0  0  0  0  0  0  0  0  0  0  0  0
   33.6650   27.2320   46.8580 C   0  0  0  0  0  0  0  0  0  0  0  0
   33.9520   28.4180   46.1940 C   0  0  0  0  0  0  0  0  0  0  0  0
   33.8870   29.4040   46.6400 H   0  0  0  0  0  0  0  0  0  0  0  0
   34.3610   28.4400   44.8570 C   0  0  0  0  0  3  0  0  0  0  0  0
   34.4860   27.2440   44.1660 C   0  0  0  0  0  0  0  0  0  0  0  0
   34.8010   27.2870   43.1400 H   0  0  0  0  0  0  0  0  0  0  0  0
   34.1950   26.0860   44.8490 C   0  0  0  0  0  0  0  0  0  0  0  0
   34.2910   25.1460   44.3100 H   0  0  0  0  0  0  0  0  0  0  0  0
   33.7910   26.0460   46.1650 C   0  0  0  0  0  3  0  0  0  0  0  0
   34.7750   28.2630   49.9180 O   0  0  0  0  0  0  0  0  0  0  0  0
   37.4120   30.2920   51.3520 C   0  0  0  0  0  0  0  0  0  0  0  0
   38.0700   30.7150   50.2020 C   0  0  0  0  0  0  0  0  0  0  0  0
   37.5720   30.2780   48.9820 C   0  0  0  0  0  0  0  0  0  0  0  0
   36.4710   29.4660   49.0080 N   0  0  0  0  0  0  0  0  0  0  0  0
   35.8610   29.0780   50.1500 C   0  0  0  0  0  0  0  0  0  0  0  0
   36.3550   29.5100   51.3210 N   0  0  0  0  0  0  0  0  0  0  0  0
   37.8440   30.6630   52.2710 H   0  0  0  0  0  0  0  0  0  0  0  0
   38.9380   31.3520   50.1070 H   0  0  0  0  0  0  0  0  0  0  0  0
   38.0080   30.5460   48.0110 H   0  0  0  0  0  0  0  0  0  0  0  0
  1  2  1  0  0  0  0
  1 16  1  0  0  0  0
  3  1  1  0  0  0  0
  4  5  1  0  0  0  0
  4  1  1  0  0  0  0
  6  4  1  0  0  0  0
  7  4  1  0  0  0  0
  8  9  1  0  0  0  0
  8  7  1  0  0  0  0
 10  8  2  0  0  0  0
 11 13  2  0  0  0  0
 11 10  1  0  0  0  0
 12 11  1  0  0  0  0
 13 15  1  0  0  0  0
 14 13  1  0  0  0  0
 15  7  2  0  0  0  0
 16 21  1  0  0  0  0
 17 23  1  0  0  0  0
 18 17  2  0  0  0  0
 19 20  2  0  0  0  0
 19 18  1  0  0  0  0
 20 21  1  0  0  0  0
 21 22  2  0  0  0  0
 22 17  1  0  0  0  0
 24 18  1  0  0  0  0
 25 19  1  0  0  0  0
M  END
>  <minimizedAffinity>
-4.04831457

>  <minimizedRMSD>
0.987594128

$$$$
