
 OpenBabel03272509473D

 25 26  0  0  0  0  0  0  0  0999 V2000
   34.2000   28.3910   48.4850 C   0  0  0  0  0  0  0  0  0  0  0  0
   33.3210   29.0570   48.4460 H   0  0  0  0  0  0  0  0  0  0  0  0
   34.9580   28.8240   47.7870 H   0  0  0  0  0  0  0  0  0  0  0  0
   33.9000   27.0100   47.9510 C   0  0  0  0  0  0  0  0  0  0  0  0
   34.8100   26.3970   47.9840 H   0  0  0  0  0  0  0  0  0  0  0  0
   33.1660   26.5600   48.6770 H   0  0  0  0  0  0  0  0  0  0  0  0
   33.2640   27.0090   46.6300 C   0  0  0  0  0  0  0  0  0  0  0  0
   31.9290   27.3980   46.6610 C   0  0  0  0  0  0  0  0  0  0  0  0
   31.3910   27.6790   47.5590 H   0  0  0  0  0  0  0  0  0  0  0  0
   31.1480   27.4620   45.5030 C   0  0  0  0  0  3  0  0  0  0  0  0
   31.7160   27.1260   44.2820 C   0  0  0  0  0  0  0  0  0  0  0  0
   31.0950   27.1820   43.4080 H   0  0  0  0  0  0  0  0  0  0  0  0
   33.0370   26.7450   44.2840 C   0  0  0  0  0  0  0  0  0  0  0  0
   33.4860   26.4810   43.3280 H   0  0  0  0  0  0  0  0  0  0  0  0
   33.8210   26.6770   45.4140 C   0  0  0  0  0  3  0  0  0  0  0  0
   34.7210   28.3160   49.7970 O   0  0  0  0  0  0  0  0  0  0  0  0
   37.3460   30.2290   51.4020 C   0  0  0  0  0  0  0  0  0  0  0  0
   38.0660   30.6640   50.2950 C   0  0  0  0  0  0  0  0  0  0  0  0
   37.6090   30.2760   49.0430 C   0  0  0  0  0  0  0  0  0  0  0  0
   36.4870   29.4960   48.9970 N   0  0  0  0  0  0  0  0  0  0  0  0
   35.8170   29.0930   50.1000 C   0  0  0  0  0  0  0  0  0  0  0  0
   36.2700   29.4780   51.3040 N   0  0  0  0  0  0  0  0  0  0  0  0
   37.7470   30.5610   52.3500 H   0  0  0  0  0  0  0  0  0  0  0  0
   38.9540   31.2790   50.2570 H   0  0  0  0  0  0  0  0  0  0  0  0
   38.0950   30.5590   48.0990 H   0  0  0  0  0  0  0  0  0  0  0  0
  1 16  1  0  0  0  0
  2  1  1  0  0  0  0
  3  1  1  0  0  0  0
  4  5  1  0  0  0  0
  4  1  1  0  0  0  0
  4  6  1  0  0  0  0
  7  8  1  0  0  0  0
  7  4  1  0  0  0  0
  8  9  1  0  0  0  0
 10  8  2  0  0  0  0
 11 13  2  0  0  0  0
 11 10  1  0  0  0  0
 12 11  1  0  0  0  0
 13 15  1  0  0  0  0
 14 13  1  0  0  0  0
 15  7  2  0  0  0  0
 16 21  1  0  0  0  0
 17 23  1  0  0  0  0
 18 17  2  0  0  0  0
 19 18  1  0  0  0  0
 20 19  2  0  0  0  0
 20 21  1  0  0  0  0
 21 22  2  0  0  0  0
 22 17  1  0  0  0  0
 24 18  1  0  0  0  0
 25 19  1  0  0  0  0
M  END
>  <minimizedAffinity>
-3.75085115

>  <minimizedRMSD>
0.165200785

$$$$
