
 OpenBabel03272510043D

 37 39  0  0  0  0  0  0  0  0999 V2000
   38.5650   32.2400   45.3510 C   0  0  0  0  0  0  0  0  0  0  0  0
   38.0710   31.8060   44.1620 C   0  0  0  0  0  0  0  0  0  0  0  0
   38.5740   32.3340   42.9760 C   0  0  0  0  0  0  0  0  0  0  0  0
   39.5630   33.2940   42.9460 C   0  0  0  0  0  0  0  0  0  0  0  0
   40.0820   33.7570   44.1320 C   0  0  0  0  0  0  0  0  0  0  0  0
   39.5660   33.2150   45.2850 C   0  0  0  0  0  0  0  0  0  0  0  0
   38.1540   31.9600   42.0280 H   0  0  0  0  0  0  0  0  0  0  0  0
   39.8750   33.6270   41.9910 H   0  0  0  0  0  0  0  0  0  0  0  0
   40.8380   34.4950   44.0550 H   0  0  0  0  0  0  0  0  0  0  0  0
   40.0560   33.6660   46.1570 H   0  0  0  0  0  0  0  0  0  0  0  0
   34.7340   30.2960   44.4620 C   0  0  0  0  0  0  0  0  0  0  0  0
   35.7780   31.2070   44.5000 C   0  0  0  0  0  0  0  0  0  0  0  0
   37.0230   30.8460   44.0940 C   0  0  0  0  0  0  0  0  0  0  0  0
   37.1860   29.5680   43.6510 N   0  0  0  0  0  0  0  0  0  0  0  0
   36.1820   28.6850   43.6080 C   0  0  0  0  0  0  0  0  0  0  0  0
   34.9640   29.0540   44.0160 N   0  0  0  0  0  0  0  0  0  0  0  0
   33.7080   30.4110   44.7440 H   0  0  0  0  0  0  0  0  0  0  0  0
   35.3270   32.1050   44.8490 H   0  0  0  0  0  0  0  0  0  0  0  0
   36.4880   27.3440   43.0410 C   0  0  0  0  0  0  0  0  0  0  0  0
   35.6660   26.3610   43.5620 F   0  0  0  0  0  0  0  0  0  0  0  0
   36.1200   27.3450   41.6410 F   0  0  0  0  0  0  0  0  0  0  0  0
   37.7460   26.9660   43.0300 F   0  0  0  0  0  0  0  0  0  0  0  0
   38.0640   31.6400   46.8710 S   0  0  0  0  0  0  0  0  0  0  0  0
   37.8640   32.7320   47.8530 O   0  0  0  0  0  0  0  0  0  0  0  0
   39.4090   31.1860   47.4040 O   0  0  0  0  0  0  0  0  0  0  0  0
   37.5030   30.0870   47.2710 C   0  0  0  0  0  0  0  0  0  0  0  0
   36.5410   29.9710   46.6300 H   0  0  0  0  0  0  0  0  0  0  0  0
   38.0900   29.2620   46.8290 H   0  0  0  0  0  0  0  0  0  0  0  0
   36.9820   29.8800   48.6050 C   0  0  0  0  0  0  0  0  0  0  0  0
   35.6400   29.6430   48.6740 C   0  0  0  0  0  0  0  0  0  0  0  0
   34.9760   29.6070   47.7980 H   0  0  0  0  0  0  0  0  0  0  0  0
   34.9320   29.4180   49.8540 C   0  0  0  0  0  3  0  0  0  0  0  0
   35.6600   29.4390   51.0390 C   0  0  0  0  0  0  0  0  0  0  0  0
   35.1270   29.2660   51.9630 H   0  0  0  0  0  0  0  0  0  0  0  0
   37.0160   29.6760   50.9790 C   0  0  0  0  0  0  0  0  0  0  0  0
   37.5820   29.6920   51.9070 H   0  0  0  0  0  0  0  0  0  0  0  0
   37.6750   29.8950   49.7860 C   0  0  0  0  0  3  0  0  0  0  0  0
  1 23  1  0  0  0  0
  2  1  2  0  0  0  0
  3  2  1  0  0  0  0
  4  3  2  0  0  0  0
  4  5  1  0  0  0  0
  5  6  2  0  0  0  0
  6  1  1  0  0  0  0
  6 10  1  0  0  0  0
  7  3  1  0  0  0  0
  8  4  1  0  0  0  0
  9  5  1  0  0  0  0
 11 12  1  0  0  0  0
 11 17  1  0  0  0  0
 12 18  1  0  0  0  0
 13  2  1  0  0  0  0
 13 12  2  0  0  0  0
 14 13  1  0  0  0  0
 15 14  2  0  0  0  0
 15 16  1  0  0  0  0
 16 11  2  0  0  0  0
 19 20  1  0  0  0  0
 19 15  1  0  0  0  0
 21 19  1  0  0  0  0
 22 19  1  0  0  0  0
 23 26  1  0  0  0  0
 23 25  2  0  0  0  0
 23 24  2  0  0  0  0
 26 29  1  0  0  0  0
 27 26  1  0  0  0  0
 28 26  1  0  0  0  0
 29 30  2  0  0  0  0
 29 37  1  0  0  0  0
 30 32  1  0  0  0  0
 31 30  1  0  0  0  0
 32 33  2  0  0  0  0
 33 34  1  0  0  0  0
 35 33  1  0  0  0  0
 35 36  1  0  0  0  0
 37 35  2  0  0  0  0
M  END
>  <minimizedAffinity>
-4.91581106

>  <minimizedRMSD>
6.55650425

$$$$
