
 OpenBabel03272509473D

 25 26  0  0  0  0  0  0  0  0999 V2000
   34.1340   28.4730   48.6350 C   0  0  0  0  0  0  0  0  0  0  0  0
   33.2250   29.0920   48.7290 H   0  0  0  0  0  0  0  0  0  0  0  0
   34.8040   29.0000   47.9120 H   0  0  0  0  0  0  0  0  0  0  0  0
   33.8500   27.1250   48.0140 C   0  0  0  0  0  0  0  0  0  0  0  0
   34.7960   26.5990   47.8280 H   0  0  0  0  0  0  0  0  0  0  0  0
   33.2930   26.5430   48.8010 H   0  0  0  0  0  0  0  0  0  0  0  0
   32.9930   27.1870   46.8260 C   0  0  0  0  0  0  0  0  0  0  0  0
   33.7000   27.1260   45.6320 C   0  0  0  0  0  0  0  0  0  0  0  0
   34.7790   27.0420   45.5590 H   0  0  0  0  0  0  0  0  0  0  0  0
   33.0620   27.1700   44.3880 C   0  0  0  0  0  3  0  0  0  0  0  0
   31.6800   27.2770   44.3380 C   0  0  0  0  0  0  0  0  0  0  0  0
   31.2120   27.3080   43.3720 H   0  0  0  0  0  0  0  0  0  0  0  0
   31.0070   27.3340   45.5360 C   0  0  0  0  0  0  0  0  0  0  0  0
   29.9220   27.4180   45.5030 H   0  0  0  0  0  0  0  0  0  0  0  0
   31.6190   27.2920   46.7710 C   0  0  0  0  0  3  0  0  0  0  0  0
   34.7750   28.3210   49.8850 O   0  0  0  0  0  0  0  0  0  0  0  0
   37.4180   30.2870   51.3940 C   0  0  0  0  0  0  0  0  0  0  0  0
   38.1040   30.7140   50.2620 C   0  0  0  0  0  0  0  0  0  0  0  0
   37.6210   30.3010   49.0280 C   0  0  0  0  0  0  0  0  0  0  0  0
   36.5070   29.5080   49.0220 N   0  0  0  0  0  0  0  0  0  0  0  0
   35.8700   29.1150   50.1490 C   0  0  0  0  0  0  0  0  0  0  0  0
   36.3490   29.5230   51.3340 N   0  0  0  0  0  0  0  0  0  0  0  0
   37.8390   30.6380   52.3260 H   0  0  0  0  0  0  0  0  0  0  0  0
   38.9840   31.3370   50.1920 H   0  0  0  0  0  0  0  0  0  0  0  0
   38.0790   30.5750   48.0680 H   0  0  0  0  0  0  0  0  0  0  0  0
  1  2  1  0  0  0  0
  1 16  1  0  0  0  0
  3  1  1  0  0  0  0
  4  1  1  0  0  0  0
  4  6  1  0  0  0  0
  5  4  1  0  0  0  0
  7  4  1  0  0  0  0
  8  7  2  0  0  0  0
  9  8  1  0  0  0  0
 10  8  1  0  0  0  0
 11 10  2  0  0  0  0
 11 13  1  0  0  0  0
 12 11  1  0  0  0  0
 13 15  2  0  0  0  0
 14 13  1  0  0  0  0
 15  7  1  0  0  0  0
 16 21  1  0  0  0  0
 17 23  1  0  0  0  0
 18 17  2  0  0  0  0
 19 18  1  0  0  0  0
 20 19  2  0  0  0  0
 20 21  1  0  0  0  0
 21 22  2  0  0  0  0
 22 17  1  0  0  0  0
 24 18  1  0  0  0  0
 25 19  1  0  0  0  0
M  END
>  <minimizedAffinity>
-3.74458694

>  <minimizedRMSD>
0.499458522

$$$$
