
 OpenBabel03272509473D

 25 26  0  0  0  0  0  0  0  0999 V2000
   33.8020   28.6990   49.5420 C   0  0  0  0  0  0  0  0  0  0  0  0
   33.2920   28.5140   50.5030 H   0  0  0  0  0  0  0  0  0  0  0  0
   33.7860   29.8050   49.3810 H   0  0  0  0  0  0  0  0  0  0  0  0
   33.0510   28.1100   48.3710 C   0  0  0  0  0  0  0  0  0  0  0  0
   32.9830   27.0200   48.4870 H   0  0  0  0  0  0  0  0  0  0  0  0
   32.0050   28.5210   48.4460 H   0  0  0  0  0  0  0  0  0  0  0  0
   33.5840   28.5070   47.0630 C   0  0  0  0  0  0  0  0  0  0  0  0
   33.6820   27.4500   46.1650 C   0  0  0  0  0  0  0  0  0  0  0  0
   33.4000   26.4270   46.3850 H   0  0  0  0  0  0  0  0  0  0  0  0
   34.1660   27.6240   44.8650 C   0  0  0  0  0  3  0  0  0  0  0  0
   34.5630   28.8880   44.4530 C   0  0  0  0  0  0  0  0  0  0  0  0
   34.9310   28.9960   43.4490 H   0  0  0  0  0  0  0  0  0  0  0  0
   34.4540   29.9120   45.3630 C   0  0  0  0  0  0  0  0  0  0  0  0
   34.7660   30.9060   45.0440 H   0  0  0  0  0  0  0  0  0  0  0  0
   33.9800   29.7590   46.6480 C   0  0  0  0  0  3  0  0  0  0  0  0
   35.1310   28.2210   49.5740 O   0  0  0  0  0  0  0  0  0  0  0  0
   37.4710   30.3330   51.3610 C   0  0  0  0  0  0  0  0  0  0  0  0
   38.1720   30.9000   50.3020 C   0  0  0  0  0  0  0  0  0  0  0  0
   37.8020   30.5250   49.0170 C   0  0  0  0  0  0  0  0  0  0  0  0
   36.7780   29.6280   48.8940 N   0  0  0  0  0  0  0  0  0  0  0  0
   36.1220   29.1000   49.9530 C   0  0  0  0  0  0  0  0  0  0  0  0
   36.4910   29.4730   51.1880 N   0  0  0  0  0  0  0  0  0  0  0  0
   37.8010   30.6620   52.3360 H   0  0  0  0  0  0  0  0  0  0  0  0
   38.9860   31.6110   50.3240 H   0  0  0  0  0  0  0  0  0  0  0  0
   38.2830   30.9060   48.1060 H   0  0  0  0  0  0  0  0  0  0  0  0
  1 16  1  0  0  0  0
  1  2  1  0  0  0  0
  3  1  1  0  0  0  0
  4  6  1  0  0  0  0
  4  5  1  0  0  0  0
  4  1  1  0  0  0  0
  7  4  1  0  0  0  0
  8  9  1  0  0  0  0
  8  7  2  0  0  0  0
 10  8  1  0  0  0  0
 11 10  2  0  0  0  0
 11 13  1  0  0  0  0
 12 11  1  0  0  0  0
 13 15  2  0  0  0  0
 14 13  1  0  0  0  0
 15  7  1  0  0  0  0
 16 21  1  0  0  0  0
 17 23  1  0  0  0  0
 18 24  1  0  0  0  0
 18 17  2  0  0  0  0
 19 18  1  0  0  0  0
 20 19  2  0  0  0  0
 20 21  1  0  0  0  0
 21 22  2  0  0  0  0
 22 17  1  0  0  0  0
 25 19  1  0  0  0  0
M  END
>  <minimizedAffinity>
-4.13701773

>  <minimizedRMSD>
1.69065583

$$$$
