
 OpenBabel03272508033D

 28 30  0  0  0  0  0  0  0  0999 V2000
   38.8120   30.8380   45.7050 C   0  0  0  0  0  0  0  0  0  0  0  0
   40.0500   31.3850   45.9260 C   0  0  0  0  0  0  0  0  0  0  0  0
   40.8240   31.3040   44.7520 C   0  0  0  0  0  0  0  0  0  0  0  0
   39.9900   30.6970   43.8650 N   0  0  0  0  0  0  0  0  0  0  0  0
   38.8400   30.4380   44.4310 N   0  0  0  0  0  0  0  0  0  0  0  0
   40.4280   31.8260   46.8430 H   0  0  0  0  0  0  0  0  0  0  0  0
   41.8470   31.6490   44.6040 H   0  0  0  0  0  0  0  0  0  0  0  0
   40.4570   30.4450   42.5310 C   0  0  0  0  0  0  0  0  0  0  0  0
   40.0720   31.2990   41.5170 C   0  0  0  0  0  0  0  0  0  0  0  0
   39.4430   32.1440   41.6560 H   0  0  0  0  0  0  0  0  0  0  0  0
   40.5950   30.9380   40.2800 C   0  0  0  0  0  0  0  0  0  0  0  0
   41.4160   29.8560   40.0330 C   0  0  0  0  0  0  0  0  0  0  0  0
   41.7650   29.6720   39.0250 H   0  0  0  0  0  0  0  0  0  0  0  0
   41.7350   29.0730   41.1240 C   0  0  0  0  0  0  0  0  0  0  0  0
   42.3820   28.2060   40.9730 H   0  0  0  0  0  0  0  0  0  0  0  0
   41.2700   29.3390   42.3960 C   0  0  0  0  0  0  0  0  0  0  0  0
   37.7080   30.7220   46.6580 C   0  0  0  0  0  0  0  0  0  0  0  0
   37.9860   30.9780   48.0160 C   0  0  0  0  0  0  0  0  0  0  0  0
   36.9320   30.8660   48.9230 C   0  0  0  0  0  0  0  0  0  0  0  0
   35.7100   30.5190   48.4450 N   0  0  0  0  0  0  0  0  0  0  0  0
   35.4790   30.2810   47.1410 C   0  0  0  0  0  0  0  0  0  0  0  0
   36.4920   30.3870   46.2620 N   0  0  0  0  0  0  0  0  0  0  0  0
   38.9860   31.2460   48.2990 H   0  0  0  0  0  0  0  0  0  0  0  0
   34.4690   30.0110   46.8650 H   0  0  0  0  0  0  0  0  0  0  0  0
   37.1910   31.1290   50.3630 C   0  0  0  0  0  0  0  0  0  0  0  0
   36.6750   32.3930   50.6150 F   0  0  0  0  0  0  0  0  0  0  0  0
   36.5670   30.2220   51.1940 F   0  0  0  0  0  0  0  0  0  0  0  0
   38.5460   31.1470   50.6460 F   0  0  0  0  0  0  0  0  0  0  0  0
  1  2  1  0  0  0  0
  1 17  1  0  0  0  0
  2  6  1  0  0  0  0
  3  2  2  0  0  0  0
  4  5  1  0  0  0  0
  4  3  1  0  0  0  0
  5  1  2  0  0  0  0
  7  3  1  0  0  0  0
  8  4  1  0  0  0  0
  9 10  1  0  0  0  0
  9  8  2  0  0  0  0
 11  9  1  0  0  0  0
 12 11  2  0  0  0  0
 12 14  1  0  0  0  0
 13 12  1  0  0  0  0
 14 16  2  0  0  0  0
 15 14  1  0  0  0  0
 16  8  1  0  0  0  0
 17 18  1  0  0  0  0
 18 23  1  0  0  0  0
 18 19  2  0  0  0  0
 19 25  1  0  0  0  0
 20 19  1  0  0  0  0
 21 20  2  0  0  0  0
 22 17  2  0  0  0  0
 22 21  1  0  0  0  0
 24 21  1  0  0  0  0
 25 26  1  0  0  0  0
 25 28  1  0  0  0  0
 25 27  1  0  0  0  0
M  END
>  <minimizedAffinity>
-6.20836639

>  <minimizedRMSD>
1.12659013

$$$$
