
 OpenBabel03272510043D

 37 39  0  0  0  0  0  0  0  0999 V2000
   38.5540   30.1750   43.9320 C   0  0  0  0  0  0  0  0  0  0  0  0
   37.4380   29.4840   43.5810 C   0  0  0  0  0  0  0  0  0  0  0  0
   37.5440   28.4140   42.6970 C   0  0  0  0  0  0  0  0  0  0  0  0
   38.7440   28.0140   42.1490 C   0  0  0  0  0  0  0  0  0  0  0  0
   39.8920   28.6940   42.4810 C   0  0  0  0  0  0  0  0  0  0  0  0
   39.7540   29.7450   43.3570 C   0  0  0  0  0  0  0  0  0  0  0  0
   36.6220   27.8720   42.4330 H   0  0  0  0  0  0  0  0  0  0  0  0
   38.7140   27.1860   41.4890 H   0  0  0  0  0  0  0  0  0  0  0  0
   40.7870   28.3500   42.0320 H   0  0  0  0  0  0  0  0  0  0  0  0
   40.7330   30.2060   43.5390 H   0  0  0  0  0  0  0  0  0  0  0  0
   34.0260   30.8470   43.6600 C   0  0  0  0  0  0  0  0  0  0  0  0
   35.2840   30.4650   43.2210 C   0  0  0  0  0  0  0  0  0  0  0  0
   36.1500   29.8460   44.0650 C   0  0  0  0  0  0  0  0  0  0  0  0
   35.7220   29.6210   45.3380 N   0  0  0  0  0  0  0  0  0  0  0  0
   34.5080   29.9820   45.7680 C   0  0  0  0  0  0  0  0  0  0  0  0
   33.6690   30.5960   44.9260 N   0  0  0  0  0  0  0  0  0  0  0  0
   33.2330   31.3400   43.1360 H   0  0  0  0  0  0  0  0  0  0  0  0
   35.2960   30.7410   42.1940 H   0  0  0  0  0  0  0  0  0  0  0  0
   34.1490   29.6160   47.1640 C   0  0  0  0  0  0  0  0  0  0  0  0
   34.0870   30.7220   47.9910 F   0  0  0  0  0  0  0  0  0  0  0  0
   32.7820   29.1430   47.1740 F   0  0  0  0  0  0  0  0  0  0  0  0
   34.8210   28.6340   47.7210 F   0  0  0  0  0  0  0  0  0  0  0  0
   38.5630   31.4780   45.0390 S   0  0  0  0  0  0  0  0  0  0  0  0
   37.5570   32.5080   44.6840 O   0  0  0  0  0  0  0  0  0  0  0  0
   39.7650   32.2340   44.5080 O   0  0  0  0  0  0  0  0  0  0  0  0
   39.3100   31.5760   46.5620 C   0  0  0  0  0  0  0  0  0  0  0  0
   39.8990   30.5780   46.6420 H   0  0  0  0  0  0  0  0  0  0  0  0
   40.1660   32.2720   46.6060 H   0  0  0  0  0  0  0  0  0  0  0  0
   38.4640   31.5020   47.7340 C   0  0  0  0  0  0  0  0  0  0  0  0
   38.3450   32.6650   48.4380 C   0  0  0  0  0  0  0  0  0  0  0  0
   38.8420   33.6070   48.1590 H   0  0  0  0  0  0  0  0  0  0  0  0
   37.5830   32.8190   49.5950 C   0  0  0  0  0  3  0  0  0  0  0  0
   36.9010   31.6970   50.0550 C   0  0  0  0  0  0  0  0  0  0  0  0
   36.3060   31.7990   50.9510 H   0  0  0  0  0  0  0  0  0  0  0  0
   37.0170   30.5180   49.3500 C   0  0  0  0  0  0  0  0  0  0  0  0
   36.4820   29.6420   49.7130 H   0  0  0  0  0  0  0  0  0  0  0  0
   37.7830   30.4120   48.2080 C   0  0  0  0  0  3  0  0  0  0  0  0
  1 23  1  0  0  0  0
  2  1  1  0  0  0  0
  2 13  1  0  0  0  0
  3  2  2  0  0  0  0
  4  5  2  0  0  0  0
  4  3  1  0  0  0  0
  5  6  1  0  0  0  0
  6 10  1  0  0  0  0
  6  1  2  0  0  0  0
  7  3  1  0  0  0  0
  8  4  1  0  0  0  0
  9  5  1  0  0  0  0
 11 16  1  0  0  0  0
 12 11  2  0  0  0  0
 12 13  1  0  0  0  0
 13 14  2  0  0  0  0
 14 15  1  0  0  0  0
 15 19  1  0  0  0  0
 16 15  2  0  0  0  0
 17 11  1  0  0  0  0
 18 12  1  0  0  0  0
 19 21  1  0  0  0  0
 19 22  1  0  0  0  0
 19 20  1  0  0  0  0
 23 26  1  0  0  0  0
 24 23  2  0  0  0  0
 25 23  2  0  0  0  0
 26 28  1  0  0  0  0
 26 27  1  0  0  0  0
 26 29  1  0  0  0  0
 29 37  2  0  0  0  0
 29 30  1  0  0  0  0
 30 32  2  0  0  0  0
 31 30  1  0  0  0  0
 32 33  1  0  0  0  0
 33 34  1  0  0  0  0
 35 36  1  0  0  0  0
 35 33  2  0  0  0  0
 37 35  1  0  0  0  0
M  END
>  <minimizedAffinity>
-5.81140471

>  <minimizedRMSD>
5.03112125

$$$$
