
 OpenBabel03262523503D

 21 22  0  0  0  0  0  0  0  0999 V2000
   37.3210   30.8830   46.5240 C   0  0  0  0  0  0  0  0  0  0  0  0
   37.1000   29.9110   46.0560 H   0  0  0  0  0  0  0  0  0  0  0  0
   36.4670   31.5890   46.3150 H   0  0  0  0  0  0  0  0  0  0  0  0
   38.5480   31.4680   45.9390 C   0  0  0  0  0  0  0  0  0  0  0  0
   39.7000   30.6820   45.8870 C   0  0  0  0  0  0  0  0  0  0  0  0
   40.8630   31.2430   45.3300 C   0  0  0  0  0  0  0  0  0  0  0  0
   40.8050   32.5380   44.8650 N   0  0  0  0  0  0  0  0  0  0  0  0
   39.6770   33.2570   44.9360 C   0  0  0  0  0  0  0  0  0  0  0  0
   38.5630   32.7320   45.4650 N   0  0  0  0  0  0  0  0  0  0  0  0
   39.7650   29.6630   46.2460 H   0  0  0  0  0  0  0  0  0  0  0  0
   41.7870   30.7320   45.2440 H   0  0  0  0  0  0  0  0  0  0  0  0
   39.6310   34.2770   44.5700 H   0  0  0  0  0  0  0  0  0  0  0  0
   37.4420   30.7430   47.9980 C   0  0  0  0  0  0  0  0  0  0  0  0
   38.2400   31.5340   48.7990 C   0  0  0  0  0  0  0  0  0  0  0  0
   38.8290   32.3250   48.3110 H   0  0  0  0  0  0  0  0  0  0  0  0
   38.3310   31.3800   50.1650 C   0  0  0  0  0  0  0  0  0  0  0  0
   37.5840   30.3760   50.7940 C   0  0  0  0  0  0  0  0  0  0  0  0
   37.6150   30.2070   51.8680 H   0  0  0  0  0  0  0  0  0  0  0  0
   36.7730   29.5630   50.0230 C   0  0  0  0  0  0  0  0  0  0  0  0
   36.1710   28.7630   50.4790 H   0  0  0  0  0  0  0  0  0  0  0  0
   36.7090   29.7490   48.6580 C   0  0  0  0  0  0  0  0  0  0  0  0
  1 13  1  0  0  0  0
  2  1  1  0  0  0  0
  3  1  1  0  0  0  0
  4  1  1  0  0  0  0
  5  4  1  0  0  0  0
  5 10  1  0  0  0  0
  6  5  2  0  0  0  0
  7  8  2  0  0  0  0
  7  6  1  0  0  0  0
  8  9  1  0  0  0  0
  9  4  2  0  0  0  0
 11  6  1  0  0  0  0
 12  8  1  0  0  0  0
 13 21  2  0  0  0  0
 13 14  1  0  0  0  0
 14 16  2  0  0  0  0
 15 14  1  0  0  0  0
 16 17  1  0  0  0  0
 17 18  1  0  0  0  0
 19 20  1  0  0  0  0
 19 17  2  0  0  0  0
 21 19  1  0  0  0  0
M  END
>  <minimizedAffinity>
-5.32790327

>  <minimizedRMSD>
4.99549437

$$$$
