
 OpenBabel03272510303D

 28 30  0  0  0  0  0  0  0  0999 V2000
   37.2100   31.3530   49.1700 C   0  0  0  0  0  0  0  0  0  0  0  0
   37.3460   32.6100   49.7610 C   0  0  0  0  0  0  0  0  0  0  0  0
   38.3010   33.4300   49.2130 C   0  0  0  0  0  0  0  0  0  0  0  0
   39.0450   33.0070   48.1610 N   0  0  0  0  0  0  0  0  0  0  0  0
   38.8820   31.7700   47.6090 C   0  0  0  0  0  0  0  0  0  0  0  0
   37.9420   30.9110   48.1210 N   0  0  0  0  0  0  0  0  0  0  0  0
   36.7030   32.8460   50.5910 H   0  0  0  0  0  0  0  0  0  0  0  0
   38.4360   34.4130   49.6450 H   0  0  0  0  0  0  0  0  0  0  0  0
   36.1550   30.4240   49.7140 C   0  0  0  0  0  0  0  0  0  0  0  0
   36.2010   28.9950   49.5430 C   0  0  0  0  0  0  0  0  0  0  0  0
   36.6810   29.5550   50.8680 C   0  0  0  0  0  0  0  0  0  0  0  0
   35.1990   30.9490   49.9340 H   0  0  0  0  0  0  0  0  0  0  0  0
   35.2130   28.4520   49.5840 H   0  0  0  0  0  0  0  0  0  0  0  0
   36.9990   28.4560   48.9930 H   0  0  0  0  0  0  0  0  0  0  0  0
   35.9920   29.4570   51.7320 H   0  0  0  0  0  0  0  0  0  0  0  0
   37.7640   29.5620   51.0870 H   0  0  0  0  0  0  0  0  0  0  0  0
   39.6640   31.3140   46.4670 C   0  0  0  0  0  0  0  0  0  0  0  0
   40.4080   32.0930   46.2000 H   0  0  0  0  0  0  0  0  0  0  0  0
   40.1490   30.3340   46.6540 H   0  0  0  0  0  0  0  0  0  0  0  0
   38.7470   31.1890   45.2990 C   0  0  0  0  0  0  0  0  0  0  0  0
   38.0800   32.3220   44.8280 C   0  0  0  0  0  0  0  0  0  0  0  0
   38.2800   33.2530   45.3640 H   0  0  0  0  0  0  0  0  0  0  0  0
   37.2060   32.3690   43.7660 C   0  0  0  0  0  3  0  0  0  0  0  0
   36.9720   31.1600   43.1040 C   0  0  0  0  0  0  0  0  0  0  0  0
   36.2890   31.1920   42.2710 H   0  0  0  0  0  0  0  0  0  0  0  0
   37.6250   30.0230   43.5540 C   0  0  0  0  0  0  0  0  0  0  0  0
   37.4300   29.0830   43.0240 H   0  0  0  0  0  0  0  0  0  0  0  0
   38.4900   30.0010   44.6140 C   0  0  0  0  0  3  0  0  0  0  0  0
  1  9  1  0  0  0  0
  1  2  1  0  0  0  0
  2  7  1  0  0  0  0
  3  8  1  0  0  0  0
  3  2  2  0  0  0  0
  4  3  1  0  0  0  0
  5  6  1  0  0  0  0
  5  4  2  0  0  0  0
  6  1  2  0  0  0  0
  9 12  1  0  0  0  0
  9 11  1  0  0  0  0
 10 13  1  0  0  0  0
 10  9  1  0  0  0  0
 10 11  1  0  0  0  0
 11 16  1  0  0  0  0
 11 15  1  0  0  0  0
 14 10  1  0  0  0  0
 17 19  1  0  0  0  0
 17  5  1  0  0  0  0
 18 17  1  0  0  0  0
 20 17  1  0  0  0  0
 21 20  1  0  0  0  0
 21 22  1  0  0  0  0
 23 21  2  0  0  0  0
 24 26  2  0  0  0  0
 24 23  1  0  0  0  0
 25 24  1  0  0  0  0
 26 28  1  0  0  0  0
 27 26  1  0  0  0  0
 28 20  2  0  0  0  0
M  END
>  <minimizedAffinity>
-5.30515099

>  <minimizedRMSD>
0.612783372

$$$$
