
 OpenBabel03272510303D

 28 30  0  0  0  0  0  0  0  0999 V2000
   37.3250   31.4030   49.2820 C   0  0  0  0  0  0  0  0  0  0  0  0
   37.4810   32.7170   49.7240 C   0  0  0  0  0  0  0  0  0  0  0  0
   38.3800   33.4840   49.0240 C   0  0  0  0  0  0  0  0  0  0  0  0
   39.0540   32.9570   47.9720 N   0  0  0  0  0  0  0  0  0  0  0  0
   38.8740   31.6670   47.5680 C   0  0  0  0  0  0  0  0  0  0  0  0
   37.9880   30.8580   48.2350 N   0  0  0  0  0  0  0  0  0  0  0  0
   36.8950   33.0340   50.5700 H   0  0  0  0  0  0  0  0  0  0  0  0
   38.5280   34.5080   49.3390 H   0  0  0  0  0  0  0  0  0  0  0  0
   36.3280   30.5270   49.9970 C   0  0  0  0  0  0  0  0  0  0  0  0
   36.3520   29.0890   49.9260 C   0  0  0  0  0  0  0  0  0  0  0  0
   36.9670   29.7370   51.1520 C   0  0  0  0  0  0  0  0  0  0  0  0
   35.4020   31.0770   50.2750 H   0  0  0  0  0  0  0  0  0  0  0  0
   35.3710   28.5620   50.1070 H   0  0  0  0  0  0  0  0  0  0  0  0
   37.0870   28.5030   49.3380 H   0  0  0  0  0  0  0  0  0  0  0  0
   36.3710   29.7090   52.0850 H   0  0  0  0  0  0  0  0  0  0  0  0
   38.0670   29.7480   51.2570 H   0  0  0  0  0  0  0  0  0  0  0  0
   39.5800   31.0990   46.4260 C   0  0  0  0  0  0  0  0  0  0  0  0
   40.6450   31.4100   46.4650 H   0  0  0  0  0  0  0  0  0  0  0  0
   39.4790   29.9950   46.3760 H   0  0  0  0  0  0  0  0  0  0  0  0
   39.0120   31.6970   45.1860 C   0  0  0  0  0  0  0  0  0  0  0  0
   39.8720   32.2470   44.2330 C   0  0  0  0  0  0  0  0  0  0  0  0
   40.9390   32.2010   44.4690 H   0  0  0  0  0  0  0  0  0  0  0  0
   39.5030   32.8320   43.0450 C   0  0  0  0  0  0  0  0  0  0  0  0
   38.1310   32.8750   42.7750 C   0  0  0  0  0  0  0  0  0  0  0  0
   37.8380   33.3330   41.8450 H   0  0  0  0  0  0  0  0  0  0  0  0
   37.2590   32.3350   43.7070 C   0  0  0  0  0  0  0  0  0  0  0  0
   36.1870   32.3770   43.4810 H   0  0  0  0  0  0  0  0  0  0  0  0
   37.6500   31.7570   44.8840 C   0  0  0  0  0  0  0  0  0  0  0  0
  1  2  1  0  0  0  0
  1  9  1  0  0  0  0
  2  7  1  0  0  0  0
  3  8  1  0  0  0  0
  3  2  2  0  0  0  0
  4  3  1  0  0  0  0
  5  4  2  0  0  0  0
  5  6  1  0  0  0  0
  6  1  2  0  0  0  0
  9 12  1  0  0  0  0
  9 11  1  0  0  0  0
 10  9  1  0  0  0  0
 10 13  1  0  0  0  0
 10 11  1  0  0  0  0
 11 16  1  0  0  0  0
 11 15  1  0  0  0  0
 14 10  1  0  0  0  0
 17 18  1  0  0  0  0
 17  5  1  0  0  0  0
 19 17  1  0  0  0  0
 20 17  1  0  0  0  0
 21 22  1  0  0  0  0
 21 20  2  0  0  0  0
 23 21  1  0  0  0  0
 24 23  2  0  0  0  0
 24 26  1  0  0  0  0
 25 24  1  0  0  0  0
 26 28  2  0  0  0  0
 27 26  1  0  0  0  0
 28 20  1  0  0  0  0
M  END
>  <minimizedAffinity>
-5.42194891

>  <minimizedRMSD>
0.981118679

$$$$
