
 OpenBabel03272506323D

 40 42  0  0  1  0  0  0  0  0999 V2000
   34.2190   29.4130   48.6970 C   0  0  1  0  0  0  0  0  0  0  0  0
   33.8880   30.0520   49.9510 C   0  0  0  0  0  0  0  0  0  0  0  0
   34.6760   29.6240   51.1710 C   0  0  0  0  0  0  0  0  0  0  0  0
   36.1220   29.3450   50.9360 C   0  0  0  0  0  0  0  0  0  0  0  0
   36.4970   28.7260   49.6420 C   0  0  0  0  0  0  0  0  0  0  0  0
   35.7100   29.2590   48.5040 C   0  0  2  0  0  0  0  0  0  0  0  0
   33.9420   30.1060   47.8420 H   0  0  0  0  0  0  0  0  0  0  0  0
   32.8470   30.0850   50.2590 H   0  0  0  0  0  0  0  0  0  0  0  0
   34.1760   31.1450   49.8490 H   0  0  0  0  0  0  0  0  0  0  0  0
   34.1920   28.7140   51.6200 H   0  0  0  0  0  0  0  0  0  0  0  0
   34.5900   30.4160   51.9470 H   0  0  0  0  0  0  0  0  0  0  0  0
   36.7300   30.2570   51.1040 H   0  0  0  0  0  0  0  0  0  0  0  0
   36.4440   28.6340   51.7430 H   0  0  0  0  0  0  0  0  0  0  0  0
   37.5510   28.9310   49.4500 H   0  0  0  0  0  0  0  0  0  0  0  0
   36.3730   27.6190   49.6720 H   0  0  0  0  0  0  0  0  0  0  0  0
   35.9990   28.7330   47.5880 H   0  0  0  0  0  0  0  0  0  0  0  0
   32.1670   27.8950   48.8100 C   0  0  0  0  0  0  0  0  0  0  0  0
   33.4950   28.1740   48.3630 C   0  0  0  0  0  0  0  0  0  0  0  0
   34.0870   27.1900   47.5870 C   0  0  0  0  0  0  0  0  0  0  0  0
   33.3880   26.0410   47.2990 N   0  0  0  0  0  0  0  0  0  0  0  0
   32.1420   25.8380   47.7490 C   0  0  0  0  0  0  0  0  0  0  0  0
   31.5240   26.7800   48.5150 N   0  0  0  0  0  0  0  0  0  0  0  0
   31.6810   28.6480   49.4180 H   0  0  0  0  0  0  0  0  0  0  0  0
   35.0810   27.2860   47.1950 H   0  0  0  0  0  0  0  0  0  0  0  0
   31.7370   24.8870   47.4350 H   0  0  0  0  0  0  0  0  0  0  0  0
   36.2250   30.7080   48.3150 C   0  0  0  0  0  0  0  0  0  0  0  0
   35.6120   31.2650   47.5940 H   0  0  0  0  0  0  0  0  0  0  0  0
   36.2080   31.2640   49.2630 H   0  0  0  0  0  0  0  0  0  0  0  0
   37.6580   30.6910   47.7870 C   0  0  0  0  0  0  0  0  0  0  0  0
   37.6590   30.5770   46.6950 H   0  0  0  0  0  0  0  0  0  0  0  0
   38.2250   29.8650   48.2920 H   0  0  0  0  0  0  0  0  0  0  0  0
   38.3800   31.9440   48.1210 C   0  0  0  0  0  0  0  0  0  0  0  0
   38.3380   32.5960   49.3340 C   0  0  0  0  0  0  0  0  0  0  0  0
   37.7220   32.1510   50.1090 H   0  0  0  0  0  0  0  0  0  0  0  0
   39.0440   33.7600   49.5580 C   0  0  0  0  0  0  0  0  0  0  0  0
   39.8230   34.2970   48.5330 C   0  0  0  0  0  0  0  0  0  0  0  0
   40.3970   35.2100   48.6580 H   0  0  0  0  0  0  0  0  0  0  0  0
   39.9030   33.6770   47.2820 C   0  0  0  0  0  0  0  0  0  0  0  0
   40.5000   34.0860   46.4920 H   0  0  0  0  0  0  0  0  0  0  0  0
   39.1740   32.5220   47.1280 C   0  0  0  0  0  0  0  0  0  0  0  0
  1  7  1  6  0  0  0
  1  2  1  0  0  0  0
  2  8  1  0  0  0  0
  2  3  1  0  0  0  0
  3 10  1  0  0  0  0
  3 11  1  0  0  0  0
  4 12  1  0  0  0  0
  4  3  1  0  0  0  0
  4 13  1  0  0  0  0
  5 15  1  0  0  0  0
  5  4  1  0  0  0  0
  6 16  1  6  0  0  0
  6  1  1  0  0  0  0
  6  5  1  0  0  0  0
  9  2  1  0  0  0  0
 14  5  1  0  0  0  0
 17 23  1  0  0  0  0
 18  1  1  0  0  0  0
 18 17  2  0  0  0  0
 19 18  1  0  0  0  0
 20 19  2  0  0  0  0
 20 21  1  0  0  0  0
 21 22  2  0  0  0  0
 22 17  1  0  0  0  0
 24 19  1  0  0  0  0
 25 21  1  0  0  0  0
 26  6  1  0  0  0  0
 26 28  1  0  0  0  0
 27 26  1  0  0  0  0
 29 32  1  0  0  0  0
 29 31  1  0  0  0  0
 29 26  1  0  0  0  0
 30 29  1  0  0  0  0
 32 33  1  0  0  0  0
 33 35  2  0  0  0  0
 33 34  1  0  0  0  0
 36 37  1  0  0  0  0
 36 35  1  0  0  0  0
 38 36  2  0  0  0  0
 39 38  1  0  0  0  0
 40 38  1  0  0  0  0
 40 32  2  0  0  0  0
M  END
>  <minimizedAffinity>
-5.79798698

>  <minimizedRMSD>
2.87437057

$$$$
