
 OpenBabel03272504013D

 31 33  0  0  0  0  0  0  0  0999 V2000
   37.3860   24.2310   32.5820 C   0  0  0  0  0  0  0  0  0  0  0  0
   37.5150   25.5950   32.8340 C   0  0  0  0  0  0  0  0  0  0  0  0
   37.9550   25.7340   34.1230 C   0  0  0  0  0  0  0  0  0  0  0  0
   38.0860   24.5040   34.6260 N   0  0  0  0  0  0  0  0  0  0  0  0
   37.7450   23.6330   33.7030 N   0  0  0  0  0  0  0  0  0  0  0  0
   37.3410   26.4910   32.2370 H   0  0  0  0  0  0  0  0  0  0  0  0
   38.2080   26.5550   34.7890 H   0  0  0  0  0  0  0  0  0  0  0  0
   38.5030   24.0350   35.9050 C   0  0  0  0  0  0  0  0  0  0  0  0
   37.7420   24.4530   36.9770 C   0  0  0  0  0  0  0  0  0  0  0  0
   36.8700   25.1060   36.8440 H   0  0  0  0  0  0  0  0  0  0  0  0
   38.0020   24.0950   38.2970 C   0  0  0  0  0  3  0  0  0  0  0  0
   39.1050   23.2660   38.4990 C   0  0  0  0  0  0  0  0  0  0  0  0
   39.3540   22.9550   39.5070 H   0  0  0  0  0  0  0  0  0  0  0  0
   39.8750   22.8400   37.4330 C   0  0  0  0  0  0  0  0  0  0  0  0
   40.7350   22.1940   37.5850 H   0  0  0  0  0  0  0  0  0  0  0  0
   39.5920   23.2130   36.1340 C   0  0  0  0  0  3  0  0  0  0  0  0
   36.9210   23.7470   31.2580 C   0  0  0  0  0  0  0  0  0  0  0  0
   36.7120   24.6240   30.5690 H   0  0  0  0  0  0  0  0  0  0  0  0
   37.7990   23.2820   30.7880 H   0  0  0  0  0  0  0  0  0  0  0  0
   35.6710   22.9650   31.3250 C   0  0  0  0  0  0  0  0  0  0  0  0
   34.9270   23.2570   30.5240 H   0  0  0  0  0  0  0  0  0  0  0  0
   35.1390   23.3000   32.2670 H   0  0  0  0  0  0  0  0  0  0  0  0
   35.7410   21.5330   31.3620 C   0  0  0  0  0  0  0  0  0  0  0  0
   34.8250   20.8030   32.0700 C   0  0  0  0  0  0  0  0  0  0  0  0
   34.9010   19.3900   32.1120 C   0  0  0  0  0  0  0  0  0  0  0  0
   35.9500   18.8260   31.3980 N   0  0  0  0  0  0  0  0  0  0  0  0
   36.8270   19.5960   30.7160 C   0  0  0  0  0  0  0  0  0  0  0  0
   36.7230   20.9410   30.6990 N   0  0  0  0  0  0  0  0  0  0  0  0
   33.9770   21.1160   32.6520 H   0  0  0  0  0  0  0  0  0  0  0  0
   34.2710   18.6980   32.6110 H   0  0  0  0  0  0  0  0  0  0  0  0
   37.6310   19.1060   30.1720 H   0  0  0  0  0  0  0  0  0  0  0  0
  1  2  1  0  0  0  0
  1  5  2  0  0  0  0
  2  3  2  0  0  0  0
  3  4  1  0  0  0  0
  3  7  1  0  0  0  0
  4  8  1  0  0  0  0
  5  4  1  0  0  0  0
  6  2  1  0  0  0  0
  8 16  2  0  0  0  0
  8  9  1  0  0  0  0
  9 11  2  0  0  0  0
 10  9  1  0  0  0  0
 11 12  1  0  0  0  0
 12 13  1  0  0  0  0
 14 15  1  0  0  0  0
 14 12  2  0  0  0  0
 16 14  1  0  0  0  0
 17 20  1  0  0  0  0
 17  1  1  0  0  0  0
 18 17  1  0  0  0  0
 19 17  1  0  0  0  0
 20 23  1  0  0  0  0
 20 22  1  0  0  0  0
 21 20  1  0  0  0  0
 23 24  1  0  0  0  0
 24 25  2  0  0  0  0
 24 29  1  0  0  0  0
 25 30  1  0  0  0  0
 26 25  1  0  0  0  0
 27 26  2  0  0  0  0
 28 27  1  0  0  0  0
 28 23  2  0  0  0  0
 31 27  1  0  0  0  0
M  END
>  <minimizedAffinity>
-5.20827675

$$$$

 OpenBabel03272504013D

 31 33  0  0  0  0  0  0  0  0999 V2000
   37.5410   24.5990   33.1260 C   0  0  0  0  0  0  0  0  0  0  0  0
   36.7130   25.0820   32.1150 C   0  0  0  0  0  0  0  0  0  0  0  0
   36.0880   24.0050   31.5470 C   0  0  0  0  0  0  0  0  0  0  0  0
   36.5220   22.9170   32.1890 N   0  0  0  0  0  0  0  0  0  0  0  0
   37.3770   23.2890   33.1150 N   0  0  0  0  0  0  0  0  0  0  0  0
   36.4960   26.0800   31.7320 H   0  0  0  0  0  0  0  0  0  0  0  0
   35.3690   23.8370   30.7490 H   0  0  0  0  0  0  0  0  0  0  0  0
   36.2220   21.5340   32.0320 C   0  0  0  0  0  0  0  0  0  0  0  0
   35.7250   20.8950   33.1490 C   0  0  0  0  0  0  0  0  0  0  0  0
   35.5720   21.4280   34.0970 H   0  0  0  0  0  0  0  0  0  0  0  0
   35.3780   19.5470   33.1800 C   0  0  0  0  0  3  0  0  0  0  0  0
   35.5620   18.8420   31.9900 C   0  0  0  0  0  0  0  0  0  0  0  0
   35.3080   17.7890   31.9560 H   0  0  0  0  0  0  0  0  0  0  0  0
   36.0590   19.4720   30.8650 C   0  0  0  0  0  0  0  0  0  0  0  0
   36.2030   18.9270   29.9360 H   0  0  0  0  0  0  0  0  0  0  0  0
   36.3940   20.8100   30.8660 C   0  0  0  0  0  3  0  0  0  0  0  0
   38.3640   25.5290   33.9390 C   0  0  0  0  0  0  0  0  0  0  0  0
   39.4560   25.2250   33.9000 H   0  0  0  0  0  0  0  0  0  0  0  0
   38.3640   26.4810   33.3900 H   0  0  0  0  0  0  0  0  0  0  0  0
   37.9880   25.5490   35.3660 C   0  0  0  0  0  0  0  0  0  0  0  0
   36.8680   25.5220   35.5260 H   0  0  0  0  0  0  0  0  0  0  0  0
   38.2520   26.5820   35.7480 H   0  0  0  0  0  0  0  0  0  0  0  0
   38.5850   24.5990   36.2610 C   0  0  0  0  0  0  0  0  0  0  0  0
   38.0270   24.3400   37.4830 C   0  0  0  0  0  0  0  0  0  0  0  0
   38.6220   23.4090   38.3690 C   0  0  0  0  0  0  0  0  0  0  0  0
   39.7820   22.8020   37.9060 N   0  0  0  0  0  0  0  0  0  0  0  0
   40.2900   23.0960   36.6890 C   0  0  0  0  0  0  0  0  0  0  0  0
   39.6950   23.9900   35.8720 N   0  0  0  0  0  0  0  0  0  0  0  0
   37.1420   24.7350   37.9500 H   0  0  0  0  0  0  0  0  0  0  0  0
   38.3090   23.1080   39.3360 H   0  0  0  0  0  0  0  0  0  0  0  0
   41.2010   22.5930   36.3730 H   0  0  0  0  0  0  0  0  0  0  0  0
  1 17  1  0  0  0  0
  2  1  1  0  0  0  0
  3  2  2  0  0  0  0
  3  4  1  0  0  0  0
  4  5  1  0  0  0  0
  5  1  2  0  0  0  0
  6  2  1  0  0  0  0
  7  3  1  0  0  0  0
  8  4  1  0  0  0  0
  8  9  1  0  0  0  0
  9 11  2  0  0  0  0
  9 10  1  0  0  0  0
 12 11  1  0  0  0  0
 13 12  1  0  0  0  0
 14 16  1  0  0  0  0
 14 12  2  0  0  0  0
 15 14  1  0  0  0  0
 16  8  2  0  0  0  0
 17 20  1  0  0  0  0
 18 17  1  0  0  0  0
 19 17  1  0  0  0  0
 20 21  1  0  0  0  0
 20 22  1  0  0  0  0
 20 23  1  0  0  0  0
 23 24  1  0  0  0  0
 24 29  1  0  0  0  0
 24 25  2  0  0  0  0
 25 30  1  0  0  0  0
 26 25  1  0  0  0  0
 27 26  2  0  0  0  0
 28 23  2  0  0  0  0
 28 27  1  0  0  0  0
 31 27  1  0  0  0  0
M  END
>  <minimizedAffinity>
-5.06404114

$$$$

 OpenBabel03272504013D

 31 33  0  0  0  0  0  0  0  0999 V2000
   36.7400   27.8470   33.2640 C   0  0  0  0  0  0  0  0  0  0  0  0
   36.4150   28.6460   32.1700 C   0  0  0  0  0  0  0  0  0  0  0  0
   35.7630   29.7500   32.6470 C   0  0  0  0  0  0  0  0  0  0  0  0
   35.6970   29.6220   33.9750 N   0  0  0  0  0  0  0  0  0  0  0  0
   36.2770   28.4940   34.3180 N   0  0  0  0  0  0  0  0  0  0  0  0
   36.5770   28.5520   31.0950 H   0  0  0  0  0  0  0  0  0  0  0  0
   35.3160   30.6480   32.2290 H   0  0  0  0  0  0  0  0  0  0  0  0
   35.1380   30.4530   34.9880 C   0  0  0  0  0  0  0  0  0  0  0  0
   33.7760   30.3400   35.1750 C   0  0  0  0  0  0  0  0  0  0  0  0
   33.1670   29.6500   34.5760 H   0  0  0  0  0  0  0  0  0  0  0  0
   33.0600   31.0750   36.1180 C   0  0  0  0  0  3  0  0  0  0  0  0
   33.8060   31.9620   36.8940 C   0  0  0  0  0  0  0  0  0  0  0  0
   33.3020   32.5590   37.6440 H   0  0  0  0  0  0  0  0  0  0  0  0
   35.1720   32.0820   36.7160 C   0  0  0  0  0  0  0  0  0  0  0  0
   35.7570   32.7720   37.3180 H   0  0  0  0  0  0  0  0  0  0  0  0
   35.8530   31.3410   35.7720 C   0  0  0  0  0  3  0  0  0  0  0  0
   37.4600   26.5620   33.0760 C   0  0  0  0  0  0  0  0  0  0  0  0
   36.7310   25.6940   33.1120 H   0  0  0  0  0  0  0  0  0  0  0  0
   37.7840   26.5560   32.0260 H   0  0  0  0  0  0  0  0  0  0  0  0
   38.4710   26.2990   34.1180 C   0  0  0  0  0  0  0  0  0  0  0  0
   38.7270   27.2210   34.7230 H   0  0  0  0  0  0  0  0  0  0  0  0
   39.4440   26.1030   33.5720 H   0  0  0  0  0  0  0  0  0  0  0  0
   38.2700   25.2120   35.0320 C   0  0  0  0  0  0  0  0  0  0  0  0
   38.1060   25.4420   36.3710 C   0  0  0  0  0  0  0  0  0  0  0  0
   37.9160   24.3670   37.2730 C   0  0  0  0  0  0  0  0  0  0  0  0
   37.9110   23.1010   36.7010 N   0  0  0  0  0  0  0  0  0  0  0  0
   38.0770   22.9320   35.3710 C   0  0  0  0  0  0  0  0  0  0  0  0
   38.2560   23.9820   34.5420 N   0  0  0  0  0  0  0  0  0  0  0  0
   38.0870   26.3610   36.9290 H   0  0  0  0  0  0  0  0  0  0  0  0
   37.7760   24.3880   38.3240 H   0  0  0  0  0  0  0  0  0  0  0  0
   38.0650   21.9210   34.9720 H   0  0  0  0  0  0  0  0  0  0  0  0
  1  5  2  0  0  0  0
  2  3  2  0  0  0  0
  2  1  1  0  0  0  0
  3  4  1  0  0  0  0
  4  5  1  0  0  0  0
  4  8  1  0  0  0  0
  6  2  1  0  0  0  0
  7  3  1  0  0  0  0
  8  9  2  0  0  0  0
  8 16  1  0  0  0  0
  9 11  1  0  0  0  0
 10  9  1  0  0  0  0
 11 12  2  0  0  0  0
 12 13  1  0  0  0  0
 14 12  1  0  0  0  0
 14 15  1  0  0  0  0
 16 14  2  0  0  0  0
 17 18  1  0  0  0  0
 17  1  1  0  0  0  0
 17 20  1  0  0  0  0
 19 17  1  0  0  0  0
 20 21  1  0  0  0  0
 20 23  1  0  0  0  0
 22 20  1  0  0  0  0
 23 24  1  0  0  0  0
 24 29  1  0  0  0  0
 24 25  2  0  0  0  0
 25 30  1  0  0  0  0
 26 25  1  0  0  0  0
 27 26  2  0  0  0  0
 28 23  2  0  0  0  0
 28 27  1  0  0  0  0
 31 27  1  0  0  0  0
M  END
>  <minimizedAffinity>
-4.99654245

$$$$

 OpenBabel03272504013D

 31 33  0  0  0  0  0  0  0  0999 V2000
   37.3060   25.7300   33.1470 C   0  0  0  0  0  0  0  0  0  0  0  0
   37.0480   26.8530   33.9290 C   0  0  0  0  0  0  0  0  0  0  0  0
   37.4530   26.5660   35.2050 C   0  0  0  0  0  0  0  0  0  0  0  0
   37.9350   25.3200   35.1910 N   0  0  0  0  0  0  0  0  0  0  0  0
   37.8390   24.8450   33.9700 N   0  0  0  0  0  0  0  0  0  0  0  0
   36.6190   27.8330   33.7200 H   0  0  0  0  0  0  0  0  0  0  0  0
   37.4740   27.0790   36.1630 H   0  0  0  0  0  0  0  0  0  0  0  0
   38.4880   24.5000   36.2160 C   0  0  0  0  0  0  0  0  0  0  0  0
   39.6310   23.8050   35.8800 C   0  0  0  0  0  0  0  0  0  0  0  0
   40.0800   23.8850   34.8810 H   0  0  0  0  0  0  0  0  0  0  0  0
   40.3070   22.9560   36.7530 C   0  0  0  0  0  3  0  0  0  0  0  0
   39.7590   22.8340   38.0300 C   0  0  0  0  0  0  0  0  0  0  0  0
   40.2440   22.1870   38.7520 H   0  0  0  0  0  0  0  0  0  0  0  0
   38.6150   23.5260   38.3790 C   0  0  0  0  0  0  0  0  0  0  0  0
   38.1850   23.4330   39.3720 H   0  0  0  0  0  0  0  0  0  0  0  0
   37.9670   24.3600   37.4900 C   0  0  0  0  0  3  0  0  0  0  0  0
   36.9750   25.7230   31.6990 C   0  0  0  0  0  0  0  0  0  0  0  0
   36.5210   26.7170   31.3950 H   0  0  0  0  0  0  0  0  0  0  0  0
   37.9410   25.7350   31.1750 H   0  0  0  0  0  0  0  0  0  0  0  0
   35.9940   24.6860   31.3270 C   0  0  0  0  0  0  0  0  0  0  0  0
   35.3500   24.9870   30.4460 H   0  0  0  0  0  0  0  0  0  0  0  0
   35.2350   24.6520   32.1670 H   0  0  0  0  0  0  0  0  0  0  0  0
   36.4440   23.3420   31.1050 C   0  0  0  0  0  0  0  0  0  0  0  0
   37.7370   23.0870   30.7350 C   0  0  0  0  0  0  0  0  0  0  0  0
   38.1770   21.7600   30.5080 C   0  0  0  0  0  0  0  0  0  0  0  0
   37.2170   20.7730   30.6880 N   0  0  0  0  0  0  0  0  0  0  0  0
   35.9540   21.0830   31.0550 C   0  0  0  0  0  0  0  0  0  0  0  0
   35.5710   22.3590   31.2620 N   0  0  0  0  0  0  0  0  0  0  0  0
   38.5650   23.7530   30.5680 H   0  0  0  0  0  0  0  0  0  0  0  0
   39.1360   21.4110   30.2210 H   0  0  0  0  0  0  0  0  0  0  0  0
   35.2390   20.2730   31.1830 H   0  0  0  0  0  0  0  0  0  0  0  0
  1  2  1  0  0  0  0
  1  5  2  0  0  0  0
  2  3  2  0  0  0  0
  3  7  1  0  0  0  0
  4  3  1  0  0  0  0
  4  8  1  0  0  0  0
  5  4  1  0  0  0  0
  6  2  1  0  0  0  0
  8 16  1  0  0  0  0
  9  8  2  0  0  0  0
  9 11  1  0  0  0  0
 10  9  1  0  0  0  0
 11 12  2  0  0  0  0
 12 14  1  0  0  0  0
 12 13  1  0  0  0  0
 14 15  1  0  0  0  0
 16 14  2  0  0  0  0
 17  1  1  0  0  0  0
 18 17  1  0  0  0  0
 19 17  1  0  0  0  0
 20 17  1  0  0  0  0
 20 22  1  0  0  0  0
 21 20  1  0  0  0  0
 23 28  1  0  0  0  0
 23 20  1  0  0  0  0
 24 23  2  0  0  0  0
 25 26  2  0  0  0  0
 25 24  1  0  0  0  0
 26 27  1  0  0  0  0
 27 31  1  0  0  0  0
 27 28  2  0  0  0  0
 29 24  1  0  0  0  0
 30 25  1  0  0  0  0
M  END
>  <minimizedAffinity>
-4.99054861

$$$$

 OpenBabel03272504013D

 31 33  0  0  0  0  0  0  0  0999 V2000
   37.0490   27.0160   33.8150 C   0  0  0  0  0  0  0  0  0  0  0  0
   37.2840   26.0250   32.8640 C   0  0  0  0  0  0  0  0  0  0  0  0
   37.8010   24.9410   33.5200 C   0  0  0  0  0  0  0  0  0  0  0  0
   37.8750   25.2650   34.8140 N   0  0  0  0  0  0  0  0  0  0  0  0
   37.4270   26.4910   34.9670 N   0  0  0  0  0  0  0  0  0  0  0  0
   37.1400   25.9690   31.7850 H   0  0  0  0  0  0  0  0  0  0  0  0
   38.1430   23.9440   33.2550 H   0  0  0  0  0  0  0  0  0  0  0  0
   38.3280   24.5420   35.9550 C   0  0  0  0  0  0  0  0  0  0  0  0
   39.4600   23.7760   35.7710 C   0  0  0  0  0  0  0  0  0  0  0  0
   39.9740   23.7310   34.8020 H   0  0  0  0  0  0  0  0  0  0  0  0
   40.0440   23.0040   36.7720 C   0  0  0  0  0  3  0  0  0  0  0  0
   39.4120   23.0390   38.0160 C   0  0  0  0  0  0  0  0  0  0  0  0
   39.8230   22.4580   38.8330 H   0  0  0  0  0  0  0  0  0  0  0  0
   38.2780   23.8040   38.2120 C   0  0  0  0  0  0  0  0  0  0  0  0
   37.7830   23.8340   39.1780 H   0  0  0  0  0  0  0  0  0  0  0  0
   37.7230   24.5590   37.1990 C   0  0  0  0  0  3  0  0  0  0  0  0
   36.4840   28.3290   33.4160 C   0  0  0  0  0  0  0  0  0  0  0  0
   37.3170   29.0760   33.2320 H   0  0  0  0  0  0  0  0  0  0  0  0
   36.0730   28.1800   32.4080 H   0  0  0  0  0  0  0  0  0  0  0  0
   35.6090   28.9270   34.4430 C   0  0  0  0  0  0  0  0  0  0  0  0
   35.7890   28.5010   35.4760 H   0  0  0  0  0  0  0  0  0  0  0  0
   34.5610   28.5570   34.2210 H   0  0  0  0  0  0  0  0  0  0  0  0
   35.5390   30.3550   34.5600 C   0  0  0  0  0  0  0  0  0  0  0  0
   36.0700   30.9970   35.6470 C   0  0  0  0  0  0  0  0  0  0  0  0
   35.9930   32.4060   35.7640 C   0  0  0  0  0  0  0  0  0  0  0  0
   35.3540   33.0590   34.7190 N   0  0  0  0  0  0  0  0  0  0  0  0
   34.8480   32.3740   33.6690 C   0  0  0  0  0  0  0  0  0  0  0  0
   34.9400   31.0310   33.5920 N   0  0  0  0  0  0  0  0  0  0  0  0
   36.5850   30.6110   36.5080 H   0  0  0  0  0  0  0  0  0  0  0  0
   36.3540   33.0360   36.5370 H   0  0  0  0  0  0  0  0  0  0  0  0
   34.3570   32.9330   32.8760 H   0  0  0  0  0  0  0  0  0  0  0  0
  1  5  2  0  0  0  0
  2  3  2  0  0  0  0
  2  1  1  0  0  0  0
  3  4  1  0  0  0  0
  4  5  1  0  0  0  0
  4  8  1  0  0  0  0
  6  2  1  0  0  0  0
  7  3  1  0  0  0  0
  8 16  1  0  0  0  0
  9  8  2  0  0  0  0
  9 11  1  0  0  0  0
 10  9  1  0  0  0  0
 11 12  2  0  0  0  0
 12 14  1  0  0  0  0
 12 13  1  0  0  0  0
 14 15  1  0  0  0  0
 16 14  2  0  0  0  0
 17  1  1  0  0  0  0
 17 20  1  0  0  0  0
 18 17  1  0  0  0  0
 19 17  1  0  0  0  0
 20 23  1  0  0  0  0
 20 21  1  0  0  0  0
 22 20  1  0  0  0  0
 23 24  1  0  0  0  0
 24 25  2  0  0  0  0
 24 29  1  0  0  0  0
 25 30  1  0  0  0  0
 26 25  1  0  0  0  0
 27 26  2  0  0  0  0
 28 27  1  0  0  0  0
 28 23  2  0  0  0  0
 31 27  1  0  0  0  0
M  END
>  <minimizedAffinity>
-4.98466969

$$$$

 OpenBabel03272504013D

 31 33  0  0  0  0  0  0  0  0999 V2000
   36.9140   27.1580   34.2690 C   0  0  0  0  0  0  0  0  0  0  0  0
   37.1770   26.3320   33.1780 C   0  0  0  0  0  0  0  0  0  0  0  0
   37.8070   25.2140   33.6530 C   0  0  0  0  0  0  0  0  0  0  0  0
   37.9190   25.3600   34.9760 N   0  0  0  0  0  0  0  0  0  0  0  0
   37.3880   26.5120   35.3190 N   0  0  0  0  0  0  0  0  0  0  0  0
   36.9850   26.4150   32.1080 H   0  0  0  0  0  0  0  0  0  0  0  0
   38.2100   24.2950   33.2350 H   0  0  0  0  0  0  0  0  0  0  0  0
   38.4820   24.5250   35.9840 C   0  0  0  0  0  0  0  0  0  0  0  0
   37.8890   24.5990   37.2270 C   0  0  0  0  0  0  0  0  0  0  0  0
   37.0360   25.2630   37.4200 H   0  0  0  0  0  0  0  0  0  0  0  0
   38.3060   23.8570   38.3290 C   0  0  0  0  0  3  0  0  0  0  0  0
   39.3900   23.0040   38.1160 C   0  0  0  0  0  0  0  0  0  0  0  0
   39.7570   22.4020   38.9380 H   0  0  0  0  0  0  0  0  0  0  0  0
   39.9910   22.9210   36.8740 C   0  0  0  0  0  0  0  0  0  0  0  0
   40.8350   22.2590   36.7040 H   0  0  0  0  0  0  0  0  0  0  0  0
   39.5550   23.6710   35.8010 C   0  0  0  0  0  3  0  0  0  0  0  0
   36.2310   28.4630   34.0830 C   0  0  0  0  0  0  0  0  0  0  0  0
   35.2530   28.4800   34.6560 H   0  0  0  0  0  0  0  0  0  0  0  0
   36.8400   29.1950   34.6320 H   0  0  0  0  0  0  0  0  0  0  0  0
   35.8940   28.7530   32.6760 C   0  0  0  0  0  0  0  0  0  0  0  0
   35.8910   27.8260   32.0250 H   0  0  0  0  0  0  0  0  0  0  0  0
   36.7730   29.3290   32.2520 H   0  0  0  0  0  0  0  0  0  0  0  0
   34.7100   29.5060   32.3790 C   0  0  0  0  0  0  0  0  0  0  0  0
   34.7540   30.5800   31.5320 C   0  0  0  0  0  0  0  0  0  0  0  0
   33.5860   31.3270   31.2480 C   0  0  0  0  0  0  0  0  0  0  0  0
   32.4290   30.8910   31.8810 N   0  0  0  0  0  0  0  0  0  0  0  0
   32.4430   29.8230   32.7080 C   0  0  0  0  0  0  0  0  0  0  0  0
   33.5770   29.1350   32.9560 N   0  0  0  0  0  0  0  0  0  0  0  0
   35.5740   31.0090   30.9850 H   0  0  0  0  0  0  0  0  0  0  0  0
   33.4650   32.1720   30.6190 H   0  0  0  0  0  0  0  0  0  0  0  0
   31.5100   29.5220   33.1800 H   0  0  0  0  0  0  0  0  0  0  0  0
  1  5  2  0  0  0  0
  2  3  2  0  0  0  0
  2  1  1  0  0  0  0
  3  4  1  0  0  0  0
  4  5  1  0  0  0  0
  4  8  1  0  0  0  0
  6  2  1  0  0  0  0
  7  3  1  0  0  0  0
  8  9  1  0  0  0  0
  9 10  1  0  0  0  0
  9 11  2  0  0  0  0
 12 11  1  0  0  0  0
 12 13  1  0  0  0  0
 14 12  2  0  0  0  0
 15 14  1  0  0  0  0
 16  8  2  0  0  0  0
 16 14  1  0  0  0  0
 17  1  1  0  0  0  0
 17 19  1  0  0  0  0
 17 18  1  0  0  0  0
 20 17  1  0  0  0  0
 21 20  1  0  0  0  0
 22 20  1  0  0  0  0
 23 20  1  0  0  0  0
 23 28  1  0  0  0  0
 24 23  2  0  0  0  0
 25 24  1  0  0  0  0
 25 26  2  0  0  0  0
 26 27  1  0  0  0  0
 27 28  2  0  0  0  0
 27 31  1  0  0  0  0
 29 24  1  0  0  0  0
 30 25  1  0  0  0  0
M  END
>  <minimizedAffinity>
-4.93145752

$$$$

 OpenBabel03272504013D

 31 33  0  0  0  0  0  0  0  0999 V2000
   37.0430   27.4730   33.5620 C   0  0  0  0  0  0  0  0  0  0  0  0
   36.3060   27.7480   32.4130 C   0  0  0  0  0  0  0  0  0  0  0  0
   35.4320   28.7560   32.7180 C   0  0  0  0  0  0  0  0  0  0  0  0
   35.6340   29.0750   34.0000 N   0  0  0  0  0  0  0  0  0  0  0  0
   36.5870   28.3070   34.4790 N   0  0  0  0  0  0  0  0  0  0  0  0
   36.3050   27.3370   31.4030 H   0  0  0  0  0  0  0  0  0  0  0  0
   34.6630   29.3220   32.1980 H   0  0  0  0  0  0  0  0  0  0  0  0
   35.0220   30.0390   34.8510 C   0  0  0  0  0  0  0  0  0  0  0  0
   35.8810   30.9090   35.4900 C   0  0  0  0  0  0  0  0  0  0  0  0
   36.9690   30.8550   35.3450 H   0  0  0  0  0  0  0  0  0  0  0  0
   35.4620   31.9140   36.3580 C   0  0  0  0  0  3  0  0  0  0  0  0
   34.0850   32.0070   36.5630 C   0  0  0  0  0  0  0  0  0  0  0  0
   33.7010   32.7710   37.2290 H   0  0  0  0  0  0  0  0  0  0  0  0
   33.2150   31.1410   35.9280 C   0  0  0  0  0  0  0  0  0  0  0  0
   32.1420   31.2100   36.0850 H   0  0  0  0  0  0  0  0  0  0  0  0
   33.6620   30.1550   35.0730 C   0  0  0  0  0  3  0  0  0  0  0  0
   38.0860   26.4160   33.5570 C   0  0  0  0  0  0  0  0  0  0  0  0
   37.6050   25.3890   33.5130 H   0  0  0  0  0  0  0  0  0  0  0  0
   38.5760   26.4890   32.5770 H   0  0  0  0  0  0  0  0  0  0  0  0
   38.9360   26.4250   34.7640 C   0  0  0  0  0  0  0  0  0  0  0  0
   38.7840   27.3490   35.4000 H   0  0  0  0  0  0  0  0  0  0  0  0
   39.9990   26.5680   34.4000 H   0  0  0  0  0  0  0  0  0  0  0  0
   38.9320   25.2840   35.6330 C   0  0  0  0  0  0  0  0  0  0  0  0
   37.9710   25.1380   36.5960 C   0  0  0  0  0  0  0  0  0  0  0  0
   37.9760   24.0150   37.4590 C   0  0  0  0  0  0  0  0  0  0  0  0
   39.0030   23.1050   37.2500 N   0  0  0  0  0  0  0  0  0  0  0  0
   39.9260   23.2990   36.2820 C   0  0  0  0  0  0  0  0  0  0  0  0
   39.8910   24.3830   35.4790 N   0  0  0  0  0  0  0  0  0  0  0  0
   37.1330   25.7610   36.8530 H   0  0  0  0  0  0  0  0  0  0  0  0
   37.3050   23.7680   38.2420 H   0  0  0  0  0  0  0  0  0  0  0  0
   40.7110   22.5570   36.1600 H   0  0  0  0  0  0  0  0  0  0  0  0
  1  5  2  0  0  0  0
  2  3  2  0  0  0  0
  2  1  1  0  0  0  0
  3  4  1  0  0  0  0
  4  5  1  0  0  0  0
  4  8  1  0  0  0  0
  6  2  1  0  0  0  0
  7  3  1  0  0  0  0
  8 16  2  0  0  0  0
  8  9  1  0  0  0  0
  9 11  2  0  0  0  0
 10  9  1  0  0  0  0
 11 12  1  0  0  0  0
 12 13  1  0  0  0  0
 14 15  1  0  0  0  0
 14 12  2  0  0  0  0
 16 14  1  0  0  0  0
 17  1  1  0  0  0  0
 17 20  1  0  0  0  0
 18 17  1  0  0  0  0
 19 17  1  0  0  0  0
 20 21  1  0  0  0  0
 20 23  1  0  0  0  0
 22 20  1  0  0  0  0
 23 24  1  0  0  0  0
 24 29  1  0  0  0  0
 24 25  2  0  0  0  0
 25 30  1  0  0  0  0
 26 25  1  0  0  0  0
 27 26  2  0  0  0  0
 28 23  2  0  0  0  0
 28 27  1  0  0  0  0
 31 27  1  0  0  0  0
M  END
>  <minimizedAffinity>
-4.92353201

$$$$

 OpenBabel03272504013D

 31 33  0  0  0  0  0  0  0  0999 V2000
   37.0330   26.9320   34.0360 C   0  0  0  0  0  0  0  0  0  0  0  0
   37.2940   25.9820   33.0500 C   0  0  0  0  0  0  0  0  0  0  0  0
   37.8610   24.8990   33.6650 C   0  0  0  0  0  0  0  0  0  0  0  0
   37.9390   25.1850   34.9670 N   0  0  0  0  0  0  0  0  0  0  0  0
   37.4470   26.3870   35.1650 N   0  0  0  0  0  0  0  0  0  0  0  0
   37.1370   25.9550   31.9710 H   0  0  0  0  0  0  0  0  0  0  0  0
   38.2370   23.9250   33.3630 H   0  0  0  0  0  0  0  0  0  0  0  0
   38.4360   24.4440   36.0780 C   0  0  0  0  0  0  0  0  0  0  0  0
   39.5890   23.7220   35.8540 C   0  0  0  0  0  0  0  0  0  0  0  0
   40.0880   23.7230   34.8750 H   0  0  0  0  0  0  0  0  0  0  0  0
   40.2150   22.9410   36.8220 C   0  0  0  0  0  3  0  0  0  0  0  0
   39.6050   22.9180   38.0760 C   0  0  0  0  0  0  0  0  0  0  0  0
   40.0480   22.3280   38.8680 H   0  0  0  0  0  0  0  0  0  0  0  0
   38.4490   23.6390   38.3130 C   0  0  0  0  0  0  0  0  0  0  0  0
   37.9700   23.6240   39.2880 H   0  0  0  0  0  0  0  0  0  0  0  0
   37.8520   24.4030   37.3320 C   0  0  0  0  0  3  0  0  0  0  0  0
   36.4120   28.2350   33.6860 C   0  0  0  0  0  0  0  0  0  0  0  0
   35.6140   28.5060   34.4450 H   0  0  0  0  0  0  0  0  0  0  0  0
   37.1860   28.9910   33.8760 H   0  0  0  0  0  0  0  0  0  0  0  0
   35.7490   28.2330   32.3680 C   0  0  0  0  0  0  0  0  0  0  0  0
   34.6500   28.4970   32.4290 H   0  0  0  0  0  0  0  0  0  0  0  0
   35.7090   27.1510   32.0350 H   0  0  0  0  0  0  0  0  0  0  0  0
   36.3260   28.9870   31.2920 C   0  0  0  0  0  0  0  0  0  0  0  0
   36.8090   28.3600   30.1750 C   0  0  0  0  0  0  0  0  0  0  0  0
   37.3850   29.1060   29.1190 C   0  0  0  0  0  0  0  0  0  0  0  0
   37.4170   30.4820   29.3060 N   0  0  0  0  0  0  0  0  0  0  0  0
   36.9250   31.0470   30.4300 C   0  0  0  0  0  0  0  0  0  0  0  0
   36.3830   30.3040   31.4170 N   0  0  0  0  0  0  0  0  0  0  0  0
   36.8390   27.3180   29.9120 H   0  0  0  0  0  0  0  0  0  0  0  0
   37.7960   28.7650   28.2030 H   0  0  0  0  0  0  0  0  0  0  0  0
   36.9740   32.1290   30.5280 H   0  0  0  0  0  0  0  0  0  0  0  0
  1  5  2  0  0  0  0
  2  3  2  0  0  0  0
  2  1  1  0  0  0  0
  3  4  1  0  0  0  0
  4  5  1  0  0  0  0
  4  8  1  0  0  0  0
  6  2  1  0  0  0  0
  7  3  1  0  0  0  0
  8 16  1  0  0  0  0
  9  8  2  0  0  0  0
  9 11  1  0  0  0  0
 10  9  1  0  0  0  0
 11 12  2  0  0  0  0
 12 14  1  0  0  0  0
 12 13  1  0  0  0  0
 14 15  1  0  0  0  0
 16 14  2  0  0  0  0
 17 19  1  0  0  0  0
 17  1  1  0  0  0  0
 17 18  1  0  0  0  0
 20 21  1  0  0  0  0
 20 17  1  0  0  0  0
 22 20  1  0  0  0  0
 23 28  1  0  0  0  0
 23 20  1  0  0  0  0
 24 23  2  0  0  0  0
 25 26  2  0  0  0  0
 25 24  1  0  0  0  0
 26 27  1  0  0  0  0
 27 31  1  0  0  0  0
 27 28  2  0  0  0  0
 29 24  1  0  0  0  0
 30 25  1  0  0  0  0
M  END
>  <minimizedAffinity>
-4.9113059

$$$$

 OpenBabel03272504013D

 31 33  0  0  0  0  0  0  0  0999 V2000
   37.1700   26.6170   33.6460 C   0  0  0  0  0  0  0  0  0  0  0  0
   37.3470   27.6670   34.5440 C   0  0  0  0  0  0  0  0  0  0  0  0
   37.9050   27.1460   35.6800 C   0  0  0  0  0  0  0  0  0  0  0  0
   38.0570   25.8350   35.4740 N   0  0  0  0  0  0  0  0  0  0  0  0
   37.6180   25.5440   34.2710 N   0  0  0  0  0  0  0  0  0  0  0  0
   37.1380   28.7370   34.5020 H   0  0  0  0  0  0  0  0  0  0  0  0
   38.2320   27.5220   36.6460 H   0  0  0  0  0  0  0  0  0  0  0  0
   38.5790   24.7950   36.2950 C   0  0  0  0  0  0  0  0  0  0  0  0
   39.6700   24.1190   35.7900 C   0  0  0  0  0  0  0  0  0  0  0  0
   40.1040   24.3730   34.8130 H   0  0  0  0  0  0  0  0  0  0  0  0
   40.3100   23.0740   36.4530 C   0  0  0  0  0  3  0  0  0  0  0  0
   39.7820   22.7270   37.6970 C   0  0  0  0  0  0  0  0  0  0  0  0
   40.2400   21.9220   38.2580 H   0  0  0  0  0  0  0  0  0  0  0  0
   38.6890   23.3980   38.2140 C   0  0  0  0  0  0  0  0  0  0  0  0
   38.2750   23.1320   39.1820 H   0  0  0  0  0  0  0  0  0  0  0  0
   38.0770   24.4300   37.5320 C   0  0  0  0  0  3  0  0  0  0  0  0
   36.5780   26.8590   32.3060 C   0  0  0  0  0  0  0  0  0  0  0  0
   36.9450   26.0800   31.5680 H   0  0  0  0  0  0  0  0  0  0  0  0
   35.5130   26.6090   32.4040 H   0  0  0  0  0  0  0  0  0  0  0  0
   36.9350   28.1730   31.7360 C   0  0  0  0  0  0  0  0  0  0  0  0
   37.4870   28.8350   32.4700 H   0  0  0  0  0  0  0  0  0  0  0  0
   35.9610   28.7360   31.6040 H   0  0  0  0  0  0  0  0  0  0  0  0
   37.6320   28.2270   30.4830 C   0  0  0  0  0  0  0  0  0  0  0  0
   37.2840   29.1420   29.5260 C   0  0  0  0  0  0  0  0  0  0  0  0
   37.9670   29.1880   28.2860 C   0  0  0  0  0  0  0  0  0  0  0  0
   38.9850   28.2580   28.1300 N   0  0  0  0  0  0  0  0  0  0  0  0
   39.2860   27.3770   29.1090 C   0  0  0  0  0  0  0  0  0  0  0  0
   38.6130   27.3620   30.2780 N   0  0  0  0  0  0  0  0  0  0  0  0
   36.5280   29.9070   29.5270 H   0  0  0  0  0  0  0  0  0  0  0  0
   37.8130   29.8330   27.4590 H   0  0  0  0  0  0  0  0  0  0  0  0
   40.0930   26.6680   28.9370 H   0  0  0  0  0  0  0  0  0  0  0  0
  1  5  2  0  0  0  0
  1  2  1  0  0  0  0
  2  3  2  0  0  0  0
  3  7  1  0  0  0  0
  4  3  1  0  0  0  0
  4  8  1  0  0  0  0
  5  4  1  0  0  0  0
  6  2  1  0  0  0  0
  8 16  1  0  0  0  0
  9  8  2  0  0  0  0
  9 11  1  0  0  0  0
 10  9  1  0  0  0  0
 11 12  2  0  0  0  0
 12 14  1  0  0  0  0
 12 13  1  0  0  0  0
 14 15  1  0  0  0  0
 16 14  2  0  0  0  0
 17 19  1  0  0  0  0
 17  1  1  0  0  0  0
 18 17  1  0  0  0  0
 20 17  1  0  0  0  0
 20 21  1  0  0  0  0
 22 20  1  0  0  0  0
 23 20  1  0  0  0  0
 24 29  1  0  0  0  0
 24 23  2  0  0  0  0
 25 24  1  0  0  0  0
 26 25  2  0  0  0  0
 26 27  1  0  0  0  0
 27 28  2  0  0  0  0
 28 23  1  0  0  0  0
 30 25  1  0  0  0  0
 31 27  1  0  0  0  0
M  END
>  <minimizedAffinity>
-4.82651615

$$$$
