
 OpenBabel03272502593D

 34 36  0  0  1  0  0  0  0  0999 V2000
   35.9100   29.6680   48.7760 N   0  0  0  0  0  0  0  0  0  0  0  0
   36.6780   28.8880   49.7100 C   0  0  0  0  0  0  0  0  0  0  0  0
   37.1810   29.5780   50.9010 C   0  0  0  0  0  0  0  0  0  0  0  0
   37.3970   31.0370   50.8550 C   0  0  0  0  0  0  0  0  0  0  0  0
   36.6180   31.7410   49.7830 C   0  0  0  0  0  0  0  0  0  0  0  0
   36.6250   30.9050   48.4980 C   0  0  1  0  0  0  0  0  0  0  0  0
   36.0700   28.0050   50.0000 H   0  0  0  0  0  0  0  0  0  0  0  0
   37.5350   28.4530   49.1310 H   0  0  0  0  0  0  0  0  0  0  0  0
   38.1620   29.1030   51.1990 H   0  0  0  0  0  0  0  0  0  0  0  0
   36.5100   29.3390   51.7650 H   0  0  0  0  0  0  0  0  0  0  0  0
   38.4860   31.3030   50.7350 H   0  0  0  0  0  0  0  0  0  0  0  0
   37.1110   31.5250   51.8270 H   0  0  0  0  0  0  0  0  0  0  0  0
   37.0910   32.7190   49.5620 H   0  0  0  0  0  0  0  0  0  0  0  0
   35.5580   31.8740   50.1000 H   0  0  0  0  0  0  0  0  0  0  0  0
   36.1650   31.5020   47.7200 H   0  0  0  0  0  0  0  0  0  0  0  0
   34.6440   29.2890   48.2090 C   0  0  0  0  0  0  0  0  0  0  0  0
   34.1020   29.8250   47.0460 C   0  0  0  0  0  0  0  0  0  0  0  0
   32.8720   29.3580   46.6270 C   0  0  0  0  0  0  0  0  0  0  0  0
   32.2520   28.4040   47.3610 N   0  0  0  0  0  0  0  0  0  0  0  0
   32.8060   27.9090   48.4810 C   0  0  0  0  0  0  0  0  0  0  0  0
   34.0010   28.3580   48.8960 N   0  0  0  0  0  0  0  0  0  0  0  0
   34.6640   30.5640   46.5440 H   0  0  0  0  0  0  0  0  0  0  0  0
   32.4300   29.7550   45.7310 H   0  0  0  0  0  0  0  0  0  0  0  0
   32.2960   27.1360   49.0710 H   0  0  0  0  0  0  0  0  0  0  0  0
   37.9690   30.6610   48.2470 O   0  0  0  0  0  0  0  0  0  0  0  0
   38.7280   31.3510   47.3320 C   0  0  0  0  0  0  0  0  0  0  0  0
   39.0200   30.5620   46.2280 C   0  0  0  0  0  0  0  0  0  0  0  0
   38.7090   29.5300   46.0660 H   0  0  0  0  0  0  0  0  0  0  0  0
   39.7690   31.0090   45.1570 C   0  0  0  0  0  0  0  0  0  0  0  0
   40.2600   32.3150   45.1810 C   0  0  0  0  0  0  0  0  0  0  0  0
   40.8590   32.7810   44.4030 H   0  0  0  0  0  0  0  0  0  0  0  0
   39.9690   33.1040   46.2830 C   0  0  0  0  0  0  0  0  0  0  0  0
   40.3290   34.1070   46.3340 H   0  0  0  0  0  0  0  0  0  0  0  0
   39.2200   32.6360   47.3410 C   0  0  0  0  0  0  0  0  0  0  0  0
  1  2  1  0  0  0  0
  2  7  1  0  0  0  0
  2  3  1  0  0  0  0
  3  9  1  0  0  0  0
  3 10  1  0  0  0  0
  4  3  1  0  0  0  0
  4 12  1  0  0  0  0
  5 14  1  0  0  0  0
  5  4  1  0  0  0  0
  6 15  1  6  0  0  0
  6  1  1  0  0  0  0
  6  5  1  0  0  0  0
  8  2  1  0  0  0  0
 11  4  1  0  0  0  0
 13  5  1  0  0  0  0
 16  1  1  0  0  0  0
 16 21  1  0  0  0  0
 17 16  2  0  0  0  0
 18 17  1  0  0  0  0
 18 19  2  0  0  0  0
 19 20  1  0  0  0  0
 20 21  2  0  0  0  0
 20 24  1  0  0  0  0
 22 17  1  0  0  0  0
 23 18  1  0  0  0  0
 25  6  1  0  0  0  0
 26 34  1  0  0  0  0
 26 25  1  0  0  0  0
 27 26  2  0  0  0  0
 28 27  1  0  0  0  0
 29 30  2  0  0  0  0
 29 27  1  0  0  0  0
 30 32  1  0  0  0  0
 31 30  1  0  0  0  0
 32 33  1  0  0  0  0
 32 34  2  0  0  0  0
M  END
>  <minimizedAffinity>
-5.98221731

>  <minimizedRMSD>
0.717342377

$$$$
