
 OpenBabel03272510303D

 28 30  0  0  0  0  0  0  0  0999 V2000
   37.5130   31.4800   49.3870 C   0  0  0  0  0  0  0  0  0  0  0  0
   37.9030   32.7740   49.7340 C   0  0  0  0  0  0  0  0  0  0  0  0
   38.7340   33.4100   48.8440 C   0  0  0  0  0  0  0  0  0  0  0  0
   39.1260   32.7830   47.7070 N   0  0  0  0  0  0  0  0  0  0  0  0
   38.7220   31.5170   47.4010 C   0  0  0  0  0  0  0  0  0  0  0  0
   37.8930   30.8370   48.2580 N   0  0  0  0  0  0  0  0  0  0  0  0
   37.5330   33.1780   50.6610 H   0  0  0  0  0  0  0  0  0  0  0  0
   39.0580   34.4140   49.0800 H   0  0  0  0  0  0  0  0  0  0  0  0
   36.5780   30.7480   50.3150 C   0  0  0  0  0  0  0  0  0  0  0  0
   36.5440   29.3120   50.4270 C   0  0  0  0  0  0  0  0  0  0  0  0
   37.3200   30.0770   51.4830 C   0  0  0  0  0  0  0  0  0  0  0  0
   35.7090   31.3720   50.6220 H   0  0  0  0  0  0  0  0  0  0  0  0
   35.5750   28.8590   50.7830 H   0  0  0  0  0  0  0  0  0  0  0  0
   37.1860   28.6240   49.8400 H   0  0  0  0  0  0  0  0  0  0  0  0
   36.8360   30.1930   52.4730 H   0  0  0  0  0  0  0  0  0  0  0  0
   38.4250   30.0480   51.4630 H   0  0  0  0  0  0  0  0  0  0  0  0
   39.1230   30.8430   46.1720 C   0  0  0  0  0  0  0  0  0  0  0  0
   40.1150   31.2260   45.8540 H   0  0  0  0  0  0  0  0  0  0  0  0
   39.1280   29.7390   46.2800 H   0  0  0  0  0  0  0  0  0  0  0  0
   38.1610   31.2240   45.1000 C   0  0  0  0  0  0  0  0  0  0  0  0
   37.0350   30.4300   44.8770 C   0  0  0  0  0  0  0  0  0  0  0  0
   36.9290   29.5540   45.5230 H   0  0  0  0  0  0  0  0  0  0  0  0
   36.0600   30.6480   43.9300 C   0  0  0  0  0  3  0  0  0  0  0  0
   36.2250   31.7760   43.1210 C   0  0  0  0  0  0  0  0  0  0  0  0
   35.4630   31.9500   42.3780 H   0  0  0  0  0  0  0  0  0  0  0  0
   37.3360   32.5790   43.3250 C   0  0  0  0  0  0  0  0  0  0  0  0
   37.4500   33.4590   42.6820 H   0  0  0  0  0  0  0  0  0  0  0  0
   38.2920   32.3420   44.2740 C   0  0  0  0  0  3  0  0  0  0  0  0
  1  2  1  0  0  0  0
  1  9  1  0  0  0  0
  2  7  1  0  0  0  0
  3  8  1  0  0  0  0
  3  2  2  0  0  0  0
  4  3  1  0  0  0  0
  5  4  2  0  0  0  0
  5  6  1  0  0  0  0
  6  1  2  0  0  0  0
  9 10  1  0  0  0  0
  9 12  1  0  0  0  0
  9 11  1  0  0  0  0
 10 13  1  0  0  0  0
 10 11  1  0  0  0  0
 11 15  1  0  0  0  0
 14 10  1  0  0  0  0
 16 11  1  0  0  0  0
 17 19  1  0  0  0  0
 17  5  1  0  0  0  0
 18 17  1  0  0  0  0
 20 17  1  0  0  0  0
 21 20  1  0  0  0  0
 21 22  1  0  0  0  0
 23 21  2  0  0  0  0
 24 26  2  0  0  0  0
 24 23  1  0  0  0  0
 25 24  1  0  0  0  0
 26 28  1  0  0  0  0
 27 26  1  0  0  0  0
 28 20  2  0  0  0  0
M  END
>  <minimizedAffinity>
-5.25146246

>  <minimizedRMSD>
0.632418334

$$$$
