
 OpenBabel03272510303D

 28 30  0  0  0  0  0  0  0  0999 V2000
   37.3620   31.3860   49.2110 C   0  0  0  0  0  0  0  0  0  0  0  0
   37.6290   32.7040   49.5830 C   0  0  0  0  0  0  0  0  0  0  0  0
   38.5280   33.3790   48.7940 C   0  0  0  0  0  0  0  0  0  0  0  0
   39.0960   32.7660   47.7260 N   0  0  0  0  0  0  0  0  0  0  0  0
   38.8090   31.4760   47.3940 C   0  0  0  0  0  0  0  0  0  0  0  0
   37.9190   30.7560   48.1510 N   0  0  0  0  0  0  0  0  0  0  0  0
   37.1210   33.0940   50.4480 H   0  0  0  0  0  0  0  0  0  0  0  0
   38.7610   34.4040   49.0520 H   0  0  0  0  0  0  0  0  0  0  0  0
   36.3600   30.6090   50.0270 C   0  0  0  0  0  0  0  0  0  0  0  0
   36.2900   29.1700   50.0230 C   0  0  0  0  0  0  0  0  0  0  0  0
   37.0210   29.8300   51.1760 C   0  0  0  0  0  0  0  0  0  0  0  0
   35.4890   31.2290   50.3330 H   0  0  0  0  0  0  0  0  0  0  0  0
   35.2920   28.7160   50.2880 H   0  0  0  0  0  0  0  0  0  0  0  0
   36.9480   28.5130   49.4200 H   0  0  0  0  0  0  0  0  0  0  0  0
   36.4840   29.8820   52.1450 H   0  0  0  0  0  0  0  0  0  0  0  0
   38.1240   29.7740   51.2150 H   0  0  0  0  0  0  0  0  0  0  0  0
   39.4020   30.8150   46.2370 C   0  0  0  0  0  0  0  0  0  0  0  0
   40.5080   30.8820   46.3060 H   0  0  0  0  0  0  0  0  0  0  0  0
   39.0620   29.7640   46.1340 H   0  0  0  0  0  0  0  0  0  0  0  0
   39.0090   31.5760   45.0180 C   0  0  0  0  0  0  0  0  0  0  0  0
   37.6620   31.6400   44.6540 C   0  0  0  0  0  0  0  0  0  0  0  0
   36.9630   31.1120   45.3080 H   0  0  0  0  0  0  0  0  0  0  0  0
   37.1440   32.3000   43.5630 C   0  0  0  0  0  3  0  0  0  0  0  0
   38.0650   32.9650   42.7480 C   0  0  0  0  0  0  0  0  0  0  0  0
   37.6630   33.4820   41.8920 H   0  0  0  0  0  0  0  0  0  0  0  0
   39.4070   32.9150   43.0900 C   0  0  0  0  0  0  0  0  0  0  0  0
   40.1160   33.4410   42.4410 H   0  0  0  0  0  0  0  0  0  0  0  0
   39.8990   32.2520   44.1810 C   0  0  0  0  0  3  0  0  0  0  0  0
  1  2  1  0  0  0  0
  1  9  1  0  0  0  0
  2  7  1  0  0  0  0
  3  8  1  0  0  0  0
  3  2  2  0  0  0  0
  4  3  1  0  0  0  0
  5  4  2  0  0  0  0
  5  6  1  0  0  0  0
  6  1  2  0  0  0  0
  9 12  1  0  0  0  0
  9 11  1  0  0  0  0
 10  9  1  0  0  0  0
 10 13  1  0  0  0  0
 10 11  1  0  0  0  0
 11 16  1  0  0  0  0
 11 15  1  0  0  0  0
 14 10  1  0  0  0  0
 17 18  1  0  0  0  0
 17  5  1  0  0  0  0
 19 17  1  0  0  0  0
 20 17  1  0  0  0  0
 21 20  1  0  0  0  0
 21 22  1  0  0  0  0
 23 21  2  0  0  0  0
 24 26  2  0  0  0  0
 24 23  1  0  0  0  0
 25 24  1  0  0  0  0
 26 28  1  0  0  0  0
 27 26  1  0  0  0  0
 28 20  2  0  0  0  0
M  END
>  <minimizedAffinity>
-5.37056255

>  <minimizedRMSD>
1.07562423

$$$$
