
 OpenBabel03262523213D

 41 44  0  0  1  0  0  0  0  0999 V2000
   37.0910   33.5800   41.8040 C   0  0  0  0  0  0  0  0  0  0  0  0
   37.9860   34.0360   40.8440 C   0  0  0  0  0  0  0  0  0  0  0  0
   38.8080   33.1150   40.2160 C   0  0  0  0  0  0  0  0  0  0  0  0
   38.7110   31.8060   40.5580 N   0  0  0  0  0  0  0  0  0  0  0  0
   37.8720   31.3700   41.4590 C   0  0  0  0  0  0  0  0  0  0  0  0
   37.1240   32.2850   42.0160 N   0  0  0  0  0  0  0  0  0  0  0  0
   37.8000   30.0000   41.7830 N   0  0  0  0  0  0  0  0  0  0  0  0
   37.4950   28.9730   40.7810 C   0  0  0  0  0  0  0  0  0  0  0  0
   37.6050   27.6960   41.5030 C   0  0  0  0  0  0  0  0  0  0  0  0
   38.3960   28.0370   42.7670 C   0  0  0  0  0  0  0  0  0  0  0  0
   37.9490   29.3750   43.1060 C   0  0  1  0  0  0  0  0  0  0  0  0
   36.4590   34.3090   42.2830 H   0  0  0  0  0  0  0  0  0  0  0  0
   38.1050   35.0570   40.5360 H   0  0  0  0  0  0  0  0  0  0  0  0
   39.5330   33.4000   39.4530 H   0  0  0  0  0  0  0  0  0  0  0  0
   38.1150   29.0740   39.8710 H   0  0  0  0  0  0  0  0  0  0  0  0
   36.4540   29.1760   40.4560 H   0  0  0  0  0  0  0  0  0  0  0  0
   38.0500   26.8840   40.9110 H   0  0  0  0  0  0  0  0  0  0  0  0
   36.5650   27.3310   41.7440 H   0  0  0  0  0  0  0  0  0  0  0  0
   38.1040   27.2090   43.3730 H   0  0  0  0  0  0  0  0  0  0  0  0
   39.3690   28.0940   42.2520 H   0  0  0  0  0  0  0  0  0  0  0  0
   36.8540   29.4360   43.4060 H   0  0  0  0  0  0  0  0  0  0  0  0
   38.2040   30.4520   45.3680 C   0  0  0  0  0  0  0  0  0  0  0  0
   38.6780   30.1040   44.1000 C   0  0  0  0  0  0  0  0  0  0  0  0
   40.0060   30.4690   43.9430 C   0  0  0  0  0  0  0  0  0  0  0  0
   40.7940   31.0840   44.8850 C   0  0  0  0  0  0  0  0  0  0  0  0
   40.2120   31.3890   46.1360 C   0  0  0  0  0  0  0  0  0  0  0  0
   38.8860   31.0770   46.4090 C   0  0  0  0  0  0  0  0  0  0  0  0
   40.6150   30.4190   43.0770 H   0  0  0  0  0  0  0  0  0  0  0  0
   41.8080   31.3950   44.8650 H   0  0  0  0  0  0  0  0  0  0  0  0
   40.7440   31.8810   46.9610 H   0  0  0  0  0  0  0  0  0  0  0  0
   38.2970   31.3940   47.6980 C   0  0  0  0  0  0  0  0  0  0  0  0
   38.4150   32.7490   48.0300 C   0  0  0  0  0  0  0  0  0  0  0  0
   38.8890   33.4960   47.4020 H   0  0  0  0  0  0  0  0  0  0  0  0
   37.9110   33.2250   49.2220 C   0  0  0  0  0  0  0  0  0  0  0  0
   37.2830   32.3300   50.0920 C   0  0  0  0  0  0  0  0  0  0  0  0
   36.8870   32.6830   51.0200 H   0  0  0  0  0  0  0  0  0  0  0  0
   37.1790   30.9950   49.7440 C   0  0  0  0  0  0  0  0  0  0  0  0
   36.7020   30.2620   50.3820 H   0  0  0  0  0  0  0  0  0  0  0  0
   37.6790   30.5030   48.5500 C   0  0  0  0  0  0  0  0  0  0  0  0
   35.7020   30.0560   45.8660 N   0  0  0  0  0  0  0  0  0  0  0  0
   36.8000   30.2180   45.6470 C   0  0  0  0  0  0  0  0  0  0  0  0
  1  6  1  0  0  0  0
  1 12  1  0  0  0  0
  2  1  2  0  0  0  0
  3  4  2  0  0  0  0
  3  2  1  0  0  0  0
  4  5  1  0  0  0  0
  5  7  1  0  0  0  0
  5  6  2  0  0  0  0
  7 11  1  0  0  0  0
  8  9  1  0  0  0  0
  8  7  1  0  0  0  0
  9 18  1  0  0  0  0
  9 10  1  0  0  0  0
 10 11  1  0  0  0  0
 10 19  1  0  0  0  0
 11 21  1  1  0  0  0
 11 23  1  0  0  0  0
 13  2  1  0  0  0  0
 14  3  1  0  0  0  0
 15  8  1  0  0  0  0
 16  8  1  0  0  0  0
 17  9  1  0  0  0  0
 20 10  1  0  0  0  0
 22 41  1  0  0  0  0
 22 27  1  0  0  0  0
 23 22  2  0  0  0  0
 24 23  1  0  0  0  0
 24 25  2  0  0  0  0
 25 26  1  0  0  0  0
 26 27  2  0  0  0  0
 26 30  1  0  0  0  0
 27 31  1  0  0  0  0
 28 24  1  0  0  0  0
 29 25  1  0  0  0  0
 31 32  2  0  0  0  0
 31 39  1  0  0  0  0
 32 34  1  0  0  0  0
 33 32  1  0  0  0  0
 34 35  2  0  0  0  0
 35 36  1  0  0  0  0
 37 35  1  0  0  0  0
 37 38  1  0  0  0  0
 39 37  2  0  0  0  0
 41 40  3  0  0  0  0
M  END
>  <minimizedAffinity>
-5.88606977

>  <minimizedRMSD>
5.43481112

$$$$
