
 OpenBabel03272506023D

 46 49  0  0  1  0  0  0  0  0999 V2000
   35.2760   30.0380   49.4300 C   0  0  2  0  0  0  0  0  0  0  0  0
   36.1830   31.1270   49.0770 C   0  0  0  0  0  0  0  0  0  0  0  0
   37.6830   30.7170   49.1990 C   0  0  2  0  0  0  0  0  0  0  0  0
   38.0510   30.2690   50.5180 C   0  0  0  0  0  0  0  0  0  0  0  0
   36.9870   29.4020   51.1940 C   0  0  0  0  0  0  0  0  0  0  0  0
   35.9810   28.9100   50.1980 C   0  0  0  0  0  0  0  0  0  0  0  0
   34.5100   30.4000   50.1790 H   0  0  0  0  0  0  0  0  0  0  0  0
   36.1650   31.6140   48.1250 H   0  0  0  0  0  0  0  0  0  0  0  0
   36.1150   31.9730   49.8400 H   0  0  0  0  0  0  0  0  0  0  0  0
   37.8830   29.9730   48.4050 H   0  0  0  0  0  0  0  0  0  0  0  0
   39.0300   29.7470   50.4750 H   0  0  0  0  0  0  0  0  0  0  0  0
   38.2090   31.1120   51.2170 H   0  0  0  0  0  0  0  0  0  0  0  0
   37.5100   28.5090   51.5780 H   0  0  0  0  0  0  0  0  0  0  0  0
   36.5050   29.8870   52.0450 H   0  0  0  0  0  0  0  0  0  0  0  0
   36.4910   28.2360   49.4740 H   0  0  0  0  0  0  0  0  0  0  0  0
   35.2200   28.3350   50.7380 H   0  0  0  0  0  0  0  0  0  0  0  0
   38.5420   30.9270   46.3810 Cl  0  0  0  0  0  0  0  0  0  0  0  0
   38.8920   32.1670   47.5650 C   0  0  0  0  0  0  0  0  0  0  0  0
   38.4020   31.9790   48.8320 C   0  0  0  0  0  0  0  0  0  0  0  0
   38.6940   33.0180   49.6910 C   0  0  0  0  0  0  0  0  0  0  0  0
   39.4100   34.1390   49.3190 C   0  0  0  0  0  0  0  0  0  0  0  0
   39.8740   34.2510   48.0090 C   0  0  0  0  0  0  0  0  0  0  0  0
   39.6050   33.2350   47.1100 C   0  0  0  0  0  0  0  0  0  0  0  0
   38.3390   32.9540   50.7110 H   0  0  0  0  0  0  0  0  0  0  0  0
   39.5920   34.9040   50.0600 H   0  0  0  0  0  0  0  0  0  0  0  0
   40.4370   35.1250   47.7050 H   0  0  0  0  0  0  0  0  0  0  0  0
   40.0660   33.3370   45.7660 N   0  0  0  0  0  0  0  0  0  0  0  0
   39.7120   32.6640   45.0470 H   0  0  0  0  0  0  0  0  0  0  0  0
   40.7500   34.0830   45.5140 H   0  0  0  0  0  0  0  0  0  0  0  0
   34.5650   29.4070   48.3220 C   0  0  0  0  0  0  0  0  0  0  0  0
   34.1400   30.2910   47.3410 C   0  0  0  0  0  0  0  0  0  0  0  0
   33.4780   29.7870   46.2260 C   0  0  0  0  0  0  0  0  0  0  0  0
   33.2710   28.4150   46.1490 N   0  0  0  0  0  0  0  0  0  0  0  0
   33.6950   27.5790   47.1200 C   0  0  0  0  0  0  0  0  0  0  0  0
   34.3270   28.1170   48.1690 N   0  0  0  0  0  0  0  0  0  0  0  0
   34.1490   31.3530   47.1340 H   0  0  0  0  0  0  0  0  0  0  0  0
   33.0600   30.2380   45.3530 H   0  0  0  0  0  0  0  0  0  0  0  0
   33.4700   26.1390   47.0230 C   0  0  0  0  0  0  0  0  0  0  0  0
   34.3450   25.3820   46.2740 C   0  0  0  0  0  0  0  0  0  0  0  0
   35.1820   25.7850   45.7580 H   0  0  0  0  0  0  0  0  0  0  0  0
   34.1110   24.0180   46.1980 C   0  0  0  0  0  0  0  0  0  0  0  0
   33.0320   23.4590   46.8580 C   0  0  0  0  0  0  0  0  0  0  0  0
   32.8020   22.3910   46.8310 H   0  0  0  0  0  0  0  0  0  0  0  0
   32.1830   24.2720   47.5970 C   0  0  0  0  0  0  0  0  0  0  0  0
   31.3170   23.8750   48.1370 H   0  0  0  0  0  0  0  0  0  0  0  0
   32.3690   25.6520   47.7110 C   0  0  0  0  0  0  0  0  0  0  0  0
  1  7  1  1  0  0  0
  1  6  1  0  0  0  0
  2  3  1  0  0  0  0
  2  1  1  0  0  0  0
  2  9  1  0  0  0  0
  3 10  1  6  0  0  0
  3  4  1  0  0  0  0
  4  5  1  0  0  0  0
  4 12  1  0  0  0  0
  5 13  1  0  0  0  0
  5 14  1  0  0  0  0
  6 16  1  0  0  0  0
  6  5  1  0  0  0  0
  8  2  1  0  0  0  0
 11  4  1  0  0  0  0
 15  6  1  0  0  0  0
 17 18  1  0  0  0  0
 18 19  1  0  0  0  0
 19  3  1  0  0  0  0
 19 20  2  0  0  0  0
 20 24  1  0  0  0  0
 21 20  1  0  0  0  0
 21 25  1  0  0  0  0
 22 21  2  0  0  0  0
 23 18  2  0  0  0  0
 23 22  1  0  0  0  0
 26 22  1  0  0  0  0
 27 23  1  0  0  0  0
 28 27  1  0  0  0  0
 29 27  1  0  0  0  0
 30  1  1  0  0  0  0
 31 30  2  0  0  0  0
 32 31  1  0  0  0  0
 33 32  2  0  0  0  0
 33 34  1  0  0  0  0
 34 35  2  0  0  0  0
 35 30  1  0  0  0  0
 36 31  1  0  0  0  0
 37 32  1  0  0  0  0
 38 34  1  0  0  0  0
 38 46  1  0  0  0  0
 39 38  2  0  0  0  0
 40 39  1  0  0  0  0
 41 39  1  0  0  0  0
 41 42  2  0  0  0  0
 42 44  1  0  0  0  0
 43 42  1  0  0  0  0
 44 46  2  0  0  0  0
 44 45  1  0  0  0  0
M  END
>  <minimizedAffinity>
-7.70577431

>  <minimizedRMSD>
1.49853718

$$$$
