
 OpenBabel03272506023D

 46 49  0  0  1  0  0  0  0  0999 V2000
   35.3000   30.2110   49.5920 C   0  0  2  0  0  0  0  0  0  0  0  0
   36.2170   31.2810   49.2090 C   0  0  0  0  0  0  0  0  0  0  0  0
   37.7090   30.8220   49.2240 C   0  0  2  0  0  0  0  0  0  0  0  0
   38.1450   30.3260   50.5050 C   0  0  0  0  0  0  0  0  0  0  0  0
   37.0980   29.4750   51.2260 C   0  0  0  0  0  0  0  0  0  0  0  0
   36.0150   29.0420   50.2840 C   0  0  0  0  0  0  0  0  0  0  0  0
   34.5960   30.5770   50.3970 H   0  0  0  0  0  0  0  0  0  0  0  0
   36.1550   31.7940   48.2730 H   0  0  0  0  0  0  0  0  0  0  0  0
   36.2260   32.1070   49.9960 H   0  0  0  0  0  0  0  0  0  0  0  0
   37.8340   30.0940   48.4000 H   0  0  0  0  0  0  0  0  0  0  0  0
   39.1010   29.7770   50.3860 H   0  0  0  0  0  0  0  0  0  0  0  0
   38.3740   31.1450   51.2130 H   0  0  0  0  0  0  0  0  0  0  0  0
   37.6150   28.5560   51.5520 H   0  0  0  0  0  0  0  0  0  0  0  0
   36.6870   29.9510   52.1180 H   0  0  0  0  0  0  0  0  0  0  0  0
   36.4560   28.3720   49.5120 H   0  0  0  0  0  0  0  0  0  0  0  0
   35.2720   28.4750   50.8570 H   0  0  0  0  0  0  0  0  0  0  0  0
   38.5450   31.0030   46.3970 Cl  0  0  0  0  0  0  0  0  0  0  0  0
   38.9250   32.2440   47.5700 C   0  0  0  0  0  0  0  0  0  0  0  0
   38.4430   32.0700   48.8440 C   0  0  0  0  0  0  0  0  0  0  0  0
   38.7590   33.1100   49.6940 C   0  0  0  0  0  0  0  0  0  0  0  0
   39.4890   34.2180   49.3090 C   0  0  0  0  0  0  0  0  0  0  0  0
   39.9430   34.3150   47.9940 C   0  0  0  0  0  0  0  0  0  0  0  0
   39.6500   33.2980   47.1040 C   0  0  0  0  0  0  0  0  0  0  0  0
   38.4120   33.0560   50.7170 H   0  0  0  0  0  0  0  0  0  0  0  0
   39.6890   34.9840   50.0440 H   0  0  0  0  0  0  0  0  0  0  0  0
   40.5160   35.1780   47.6800 H   0  0  0  0  0  0  0  0  0  0  0  0
   40.1000   33.3860   45.7540 N   0  0  0  0  0  0  0  0  0  0  0  0
   39.7300   32.7140   45.0430 H   0  0  0  0  0  0  0  0  0  0  0  0
   40.7940   34.1200   45.4920 H   0  0  0  0  0  0  0  0  0  0  0  0
   34.5000   29.6330   48.5170 C   0  0  0  0  0  0  0  0  0  0  0  0
   35.0950   29.6970   47.2650 C   0  0  0  0  0  0  0  0  0  0  0  0
   34.4260   29.1470   46.1760 C   0  0  0  0  0  0  0  0  0  0  0  0
   33.1880   28.5560   46.3950 N   0  0  0  0  0  0  0  0  0  0  0  0
   32.6320   28.5090   47.6240 C   0  0  0  0  0  0  0  0  0  0  0  0
   33.3190   29.0530   48.6360 N   0  0  0  0  0  0  0  0  0  0  0  0
   35.9970   30.0770   46.8050 H   0  0  0  0  0  0  0  0  0  0  0  0
   34.6570   29.0660   45.1370 H   0  0  0  0  0  0  0  0  0  0  0  0
   31.3300   27.8840   47.8380 C   0  0  0  0  0  0  0  0  0  0  0  0
   30.8940   27.6910   49.1310 C   0  0  0  0  0  0  0  0  0  0  0  0
   31.4530   27.9710   49.9900 H   0  0  0  0  0  0  0  0  0  0  0  0
   29.6540   27.0970   49.3090 C   0  0  0  0  0  3  0  0  0  0  0  0
   28.9000   26.7200   48.2130 C   0  0  0  0  0  0  0  0  0  0  0  0
   27.9180   26.2480   48.2970 H   0  0  0  0  0  0  0  0  0  0  0  0
   29.3900   26.9400   46.9320 C   0  0  0  0  0  0  0  0  0  0  0  0
   28.8290   26.6580   46.0360 H   0  0  0  0  0  0  0  0  0  0  0  0
   30.6320   27.5340   46.6920 C   0  0  0  0  0  3  0  0  0  0  0  0
  1  6  1  0  0  0  0
  1  7  1  1  0  0  0
  2  3  1  0  0  0  0
  2  1  1  0  0  0  0
  2  9  1  0  0  0  0
  3 10  1  6  0  0  0
  3  4  1  0  0  0  0
  4 12  1  0  0  0  0
  4  5  1  0  0  0  0
  5 13  1  0  0  0  0
  5 14  1  0  0  0  0
  6 16  1  0  0  0  0
  6  5  1  0  0  0  0
  8  2  1  0  0  0  0
 11  4  1  0  0  0  0
 15  6  1  0  0  0  0
 17 18  1  0  0  0  0
 18 19  1  0  0  0  0
 19  3  1  0  0  0  0
 19 20  2  0  0  0  0
 20 24  1  0  0  0  0
 21 20  1  0  0  0  0
 21 25  1  0  0  0  0
 22 21  2  0  0  0  0
 23 18  2  0  0  0  0
 23 22  1  0  0  0  0
 26 22  1  0  0  0  0
 27 23  1  0  0  0  0
 28 27  1  0  0  0  0
 29 27  1  0  0  0  0
 30 35  1  0  0  0  0
 30  1  1  0  0  0  0
 31 30  2  0  0  0  0
 32 33  2  0  0  0  0
 32 31  1  0  0  0  0
 33 34  1  0  0  0  0
 34 38  1  0  0  0  0
 34 35  2  0  0  0  0
 36 31  1  0  0  0  0
 37 32  1  0  0  0  0
 38 39  1  0  0  0  0
 39 41  2  0  0  0  0
 39 40  1  0  0  0  0
 42 43  1  0  0  0  0
 42 41  1  0  0  0  0
 44 42  2  0  0  0  0
 45 44  1  0  0  0  0
 46 44  1  0  0  0  0
 46 38  2  0  0  0  0
M  END
>  <minimizedAffinity>
-7.70433569

>  <minimizedRMSD>
1.28376508

$$$$
