
 OpenBabel03272507553D

 23 24  0  0  0  0  0  0  0  0999 V2000
   34.9170   29.1580   50.0540 C   0  0  0  0  0  0  0  0  0  0  0  0
   36.1290   29.8320   49.7330 C   0  0  0  0  0  0  0  0  0  0  0  0
   36.2490   30.4360   48.4900 C   0  0  0  0  0  0  0  0  0  0  0  0
   35.1730   30.3470   47.6360 N   0  0  0  0  0  0  0  0  0  0  0  0
   34.0370   29.7070   47.9590 C   0  0  0  0  0  0  0  0  0  0  0  0
   33.9080   29.1220   49.1460 N   0  0  0  0  0  0  0  0  0  0  0  0
   33.0620   29.7470   46.9420 N   0  0  0  0  0  0  0  0  0  0  0  0
   34.8360   28.6890   51.0280 H   0  0  0  0  0  0  0  0  0  0  0  0
   32.6370   28.8110   46.6850 H   0  0  0  0  0  0  0  0  0  0  0  0
   32.6930   30.5600   46.4010 H   0  0  0  0  0  0  0  0  0  0  0  0
   37.3850   31.2010   48.0250 C   0  0  0  0  0  0  0  0  0  0  0  0
   37.9950   32.3840   48.3380 C   0  0  0  0  0  0  0  0  0  0  0  0
   37.5530   32.8700   49.1880 H   0  0  0  0  0  0  0  0  0  0  0  0
   39.0760   32.8890   47.6630 C   0  0  0  0  0  3  0  0  0  0  0  0
   39.6400   32.2250   46.5970 C   0  0  0  0  0  0  0  0  0  0  0  0
   40.4820   32.7570   46.1780 H   0  0  0  0  0  0  0  0  0  0  0  0
   39.0660   31.0260   46.2380 C   0  0  0  0  0  0  0  0  0  0  0  0
   39.5460   30.5460   45.3990 H   0  0  0  0  0  0  0  0  0  0  0  0
   37.9790   30.5400   46.9340 C   0  0  0  0  0  3  0  0  0  0  0  0
   37.2080   29.8810   50.7530 C   0  0  0  0  0  0  0  0  0  0  0  0
   38.4340   29.5840   50.2220 F   0  0  0  0  0  0  0  0  0  0  0  0
   37.2340   31.1560   51.2830 F   0  0  0  0  0  0  0  0  0  0  0  0
   36.9790   29.0030   51.8010 F   0  0  0  0  0  0  0  0  0  0  0  0
  1  8  1  0  0  0  0
  2  1  1  0  0  0  0
  2 20  1  0  0  0  0
  3  2  2  0  0  0  0
  4  5  2  0  0  0  0
  4  3  1  0  0  0  0
  5  6  1  0  0  0  0
  6  1  2  0  0  0  0
  7  5  1  0  0  0  0
  9  7  1  0  0  0  0
 10  7  1  0  0  0  0
 11 12  1  0  0  0  0
 11  3  1  0  0  0  0
 12 13  1  0  0  0  0
 14 12  2  0  0  0  0
 15 14  1  0  0  0  0
 16 15  1  0  0  0  0
 17 15  2  0  0  0  0
 17 19  1  0  0  0  0
 18 17  1  0  0  0  0
 19 11  2  0  0  0  0
 20 22  1  0  0  0  0
 20 23  1  0  0  0  0
 21 20  1  0  0  0  0
M  END
>  <minimizedAffinity>
-5.95326757

>  <minimizedRMSD>
1.36098039

$$$$
