
 OpenBabel03272507553D

 23 24  0  0  0  0  0  0  0  0999 V2000
   35.0340   29.2340   50.4740 C   0  0  0  0  0  0  0  0  0  0  0  0
   36.1030   29.9790   49.9010 C   0  0  0  0  0  0  0  0  0  0  0  0
   36.1110   30.1880   48.5300 C   0  0  0  0  0  0  0  0  0  0  0  0
   35.0710   29.6580   47.8020 N   0  0  0  0  0  0  0  0  0  0  0  0
   34.0700   28.9590   48.3630 C   0  0  0  0  0  0  0  0  0  0  0  0
   34.0490   28.7490   49.6760 N   0  0  0  0  0  0  0  0  0  0  0  0
   33.1040   28.5180   47.4350 N   0  0  0  0  0  0  0  0  0  0  0  0
   35.0390   29.0760   51.5470 H   0  0  0  0  0  0  0  0  0  0  0  0
   32.8570   27.4900   47.4930 H   0  0  0  0  0  0  0  0  0  0  0  0
   32.5940   29.0520   46.6970 H   0  0  0  0  0  0  0  0  0  0  0  0
   37.0900   30.9600   47.7960 C   0  0  0  0  0  0  0  0  0  0  0  0
   38.0610   31.8810   48.0810 C   0  0  0  0  0  0  0  0  0  0  0  0
   38.1720   32.0580   49.1350 H   0  0  0  0  0  0  0  0  0  0  0  0
   38.8340   32.4940   47.1310 C   0  0  0  0  0  3  0  0  0  0  0  0
   38.6890   32.2210   45.7880 C   0  0  0  0  0  0  0  0  0  0  0  0
   39.3730   32.7870   45.1750 H   0  0  0  0  0  0  0  0  0  0  0  0
   37.7260   31.2980   45.4440 C   0  0  0  0  0  0  0  0  0  0  0  0
   37.6530   31.1200   44.3820 H   0  0  0  0  0  0  0  0  0  0  0  0
   36.9600   30.6950   46.4200 C   0  0  0  0  0  3  0  0  0  0  0  0
   37.1550   30.5220   50.7990 C   0  0  0  0  0  0  0  0  0  0  0  0
   38.4130   30.1810   50.3850 F   0  0  0  0  0  0  0  0  0  0  0  0
   37.0330   31.8970   50.8130 F   0  0  0  0  0  0  0  0  0  0  0  0
   37.0070   30.0810   52.1060 F   0  0  0  0  0  0  0  0  0  0  0  0
  1  8  1  0  0  0  0
  2  1  1  0  0  0  0
  2 20  1  0  0  0  0
  3  2  2  0  0  0  0
  4  5  2  0  0  0  0
  4  3  1  0  0  0  0
  5  6  1  0  0  0  0
  6  1  2  0  0  0  0
  7  9  1  0  0  0  0
  7  5  1  0  0  0  0
 10  7  1  0  0  0  0
 11 12  1  0  0  0  0
 11  3  1  0  0  0  0
 12 13  1  0  0  0  0
 14 12  2  0  0  0  0
 15 14  1  0  0  0  0
 16 15  1  0  0  0  0
 17 15  2  0  0  0  0
 17 19  1  0  0  0  0
 18 17  1  0  0  0  0
 19 11  2  0  0  0  0
 20 22  1  0  0  0  0
 20 23  1  0  0  0  0
 21 20  1  0  0  0  0
M  END
>  <minimizedAffinity>
-6.03648567

>  <minimizedRMSD>
1.09750891

$$$$
