
 OpenBabel03272505273D

 31 33  0  0  0  0  0  0  0  0999 V2000
   37.5770   31.0450   47.3220 N   0  0  0  0  0  0  0  0  0  0  0  0
   36.8650   30.6920   46.2190 C   0  0  0  0  0  0  0  0  0  0  0  0
   37.1800   31.1630   44.9510 C   0  0  0  0  0  0  0  0  0  0  0  0
   38.2820   32.0320   44.8500 C   0  0  0  0  0  0  0  0  0  0  0  0
   38.6050   32.4810   43.7240 O   0  0  0  0  0  0  0  0  0  0  0  0
   38.9960   32.3840   45.9590 N   0  0  0  0  0  0  0  0  0  0  0  0
   38.5910   31.8640   47.1200 C   0  0  0  0  0  0  0  0  0  0  0  0
   39.2680   32.2110   48.1140 O   0  0  0  0  0  0  0  0  0  0  0  0
   36.0220   30.0240   46.3200 H   0  0  0  0  0  0  0  0  0  0  0  0
   37.4440   30.6090   51.0050 C   0  0  0  0  0  0  0  0  0  0  0  0
   37.7910   31.0960   49.7330 C   0  0  0  0  0  0  0  0  0  0  0  0
   37.2440   30.5670   48.5920 C   0  0  0  0  0  0  0  0  0  0  0  0
   36.3470   29.5490   48.7260 N   0  0  0  0  0  0  0  0  0  0  0  0
   35.9950   29.0590   49.9500 C   0  0  0  0  0  0  0  0  0  0  0  0
   36.5390   29.5860   51.0820 N   0  0  0  0  0  0  0  0  0  0  0  0
   37.8240   30.9670   51.9340 H   0  0  0  0  0  0  0  0  0  0  0  0
   38.5120   31.8820   49.8270 H   0  0  0  0  0  0  0  0  0  0  0  0
   35.2740   28.2450   49.9990 H   0  0  0  0  0  0  0  0  0  0  0  0
   36.4190   30.7880   43.7630 C   0  0  0  0  0  0  0  0  0  0  0  0
   36.7370   29.5830   43.1400 C   0  0  0  0  0  0  0  0  0  0  0  0
   37.5110   28.9230   43.4950 H   0  0  0  0  0  0  0  0  0  0  0  0
   36.0670   29.1480   42.0070 C   0  0  0  0  0  0  0  0  0  0  0  0
   35.0590   29.9250   41.4770 C   0  0  0  0  0  0  0  0  0  0  0  0
   34.5260   29.5820   40.5790 H   0  0  0  0  0  0  0  0  0  0  0  0
   34.7410   31.1300   42.0990 C   0  0  0  0  0  0  0  0  0  0  0  0
   33.9440   31.7600   41.6930 H   0  0  0  0  0  0  0  0  0  0  0  0
   35.4100   31.5470   43.2150 C   0  0  0  0  0  0  0  0  0  0  0  0
   40.1310   33.2770   45.8450 C   0  0  0  0  0  0  0  0  0  0  0  0
   39.9290   34.1590   44.8330 F   0  0  0  0  0  0  0  0  0  0  0  0
   41.3110   32.6090   45.5570 F   0  0  0  0  0  0  0  0  0  0  0  0
   40.2580   33.9900   47.0300 F   0  0  0  0  0  0  0  0  0  0  0  0
  1 12  1  0  0  0  0
  2  9  1  0  0  0  0
  2  1  1  0  0  0  0
  3  2  2  0  0  0  0
  4  3  1  0  0  0  0
  4  6  1  0  0  0  0
  5  4  2  0  0  0  0
  6  7  1  0  0  0  0
  7  1  1  0  0  0  0
  7  8  2  0  0  0  0
 10 15  1  0  0  0  0
 10 16  1  0  0  0  0
 11 17  1  0  0  0  0
 11 10  2  0  0  0  0
 12 13  2  0  0  0  0
 12 11  1  0  0  0  0
 13 14  1  0  0  0  0
 14 18  1  0  0  0  0
 14 15  2  0  0  0  0
 19  3  1  0  0  0  0
 20 21  1  0  0  0  0
 20 19  2  0  0  0  0
 22 20  1  0  0  0  0
 23 22  2  0  0  0  0
 23 25  1  0  0  0  0
 24 23  1  0  0  0  0
 25 27  2  0  0  0  0
 26 25  1  0  0  0  0
 27 19  1  0  0  0  0
 28  6  1  0  0  0  0
 28 31  1  0  0  0  0
 29 28  1  0  0  0  0
 30 28  1  0  0  0  0
M  END
>  <minimizedAffinity>
-6.29076767

>  <minimizedRMSD>
0.839128435

$$$$
