
 OpenBabel03272507553D

 23 24  0  0  0  0  0  0  0  0999 V2000
   35.3010   30.2480   49.3960 C   0  0  0  0  0  0  0  0  0  0  0  0
   36.5500   30.8100   49.0120 C   0  0  0  0  0  0  0  0  0  0  0  0
   36.8680   30.8740   47.6630 C   0  0  0  0  0  0  0  0  0  0  0  0
   35.9420   30.3840   46.7710 N   0  0  0  0  0  0  0  0  0  0  0  0
   34.7670   29.8580   47.1540 C   0  0  0  0  0  0  0  0  0  0  0  0
   34.4480   29.7900   48.4430 N   0  0  0  0  0  0  0  0  0  0  0  0
   33.9660   29.4290   46.0760 N   0  0  0  0  0  0  0  0  0  0  0  0
   35.0640   30.2030   50.4530 H   0  0  0  0  0  0  0  0  0  0  0  0
   33.5840   28.4440   46.1600 H   0  0  0  0  0  0  0  0  0  0  0  0
   33.6910   29.9340   45.2050 H   0  0  0  0  0  0  0  0  0  0  0  0
   38.0670   31.4570   47.1010 C   0  0  0  0  0  0  0  0  0  0  0  0
   38.7060   32.6650   47.1370 C   0  0  0  0  0  0  0  0  0  0  0  0
   38.2320   33.3700   47.7920 H   0  0  0  0  0  0  0  0  0  0  0  0
   39.8520   32.9440   46.4370 C   0  0  0  0  0  3  0  0  0  0  0  0
   40.4560   32.0060   45.6290 C   0  0  0  0  0  0  0  0  0  0  0  0
   41.3460   32.3850   45.1500 H   0  0  0  0  0  0  0  0  0  0  0  0
   39.8530   30.7700   45.5560 C   0  0  0  0  0  0  0  0  0  0  0  0
   40.3640   30.0720   44.9110 H   0  0  0  0  0  0  0  0  0  0  0  0
   38.7010   30.5150   46.2700 C   0  0  0  0  0  3  0  0  0  0  0  0
   37.4540   31.3290   50.0710 C   0  0  0  0  0  0  0  0  0  0  0  0
   38.7480   30.9230   49.8900 F   0  0  0  0  0  0  0  0  0  0  0  0
   37.3970   32.7080   50.0400 F   0  0  0  0  0  0  0  0  0  0  0  0
   37.0600   30.9280   51.3390 F   0  0  0  0  0  0  0  0  0  0  0  0
  1  8  1  0  0  0  0
  2  1  1  0  0  0  0
  2 20  1  0  0  0  0
  3  2  2  0  0  0  0
  4  5  2  0  0  0  0
  4  3  1  0  0  0  0
  5  6  1  0  0  0  0
  6  1  2  0  0  0  0
  7  9  1  0  0  0  0
  7  5  1  0  0  0  0
 10  7  1  0  0  0  0
 11 12  1  0  0  0  0
 11  3  1  0  0  0  0
 12 13  1  0  0  0  0
 14 12  2  0  0  0  0
 15 14  1  0  0  0  0
 16 15  1  0  0  0  0
 17 15  2  0  0  0  0
 17 19  1  0  0  0  0
 18 17  1  0  0  0  0
 19 11  2  0  0  0  0
 20 23  1  0  0  0  0
 21 20  1  0  0  0  0
 22 20  1  0  0  0  0
M  END
>  <minimizedAffinity>
-5.99676132

>  <minimizedRMSD>
1.83730888

$$$$
