
 OpenBabel03272503213D

 35 38  0  0  0  0  0  0  0  0999 V2000
   37.3300   26.7100   33.5870 C   0  0  0  0  0  0  0  0  0  0  0  0
   37.1750   25.5180   33.0110 C   0  0  0  0  0  0  0  0  0  0  0  0
   37.8150   24.4410   33.4920 C   0  0  0  0  0  0  0  0  0  0  0  0
   38.6250   24.6380   34.5940 C   0  0  0  0  0  0  0  0  0  0  0  0
   38.4330   26.4280   34.9130 S   0  0  0  0  0  0  0  0  0  0  0  0
   36.5100   25.4380   32.1320 H   0  0  0  0  0  0  0  0  0  0  0  0
   37.7830   23.4220   33.1290 H   0  0  0  0  0  0  0  0  0  0  0  0
   37.6320   24.0730   37.4240 Cl  0  0  0  0  0  0  0  0  0  0  0  0
   39.0770   23.4560   36.6600 C   0  0  0  0  0  0  0  0  0  0  0  0
   39.4560   23.7560   35.3830 C   0  0  0  0  0  0  0  0  0  0  0  0
   40.5660   23.3040   34.7450 C   0  0  0  0  0  0  0  0  0  0  0  0
   41.4180   22.4440   35.4530 C   0  0  0  0  0  0  0  0  0  0  0  0
   41.0940   22.1010   36.7450 C   0  0  0  0  0  0  0  0  0  0  0  0
   42.1370   21.0290   37.6540 Cl  0  0  0  0  0  0  0  0  0  0  0  0
   39.9350   22.5990   37.3490 C   0  0  0  0  0  0  0  0  0  0  0  0
   40.8470   23.5550   33.7310 H   0  0  0  0  0  0  0  0  0  0  0  0
   42.3170   22.0510   34.9970 H   0  0  0  0  0  0  0  0  0  0  0  0
   39.6770   22.3320   38.3650 H   0  0  0  0  0  0  0  0  0  0  0  0
   36.2320   29.8210   31.7610 C   0  0  0  0  0  0  0  0  0  0  0  0
   36.8210   28.5590   31.9730 C   0  0  0  0  0  0  0  0  0  0  0  0
   36.7520   28.0160   33.2610 C   0  0  0  0  0  0  0  0  0  0  0  0
   36.1320   28.7030   34.2500 N   0  0  0  0  0  0  0  0  0  0  0  0
   35.5810   29.9150   33.9920 C   0  0  0  0  0  0  0  0  0  0  0  0
   35.6310   30.4580   32.7750 N   0  0  0  0  0  0  0  0  0  0  0  0
   36.3160   30.1870   30.7520 H   0  0  0  0  0  0  0  0  0  0  0  0
   37.3120   27.9970   31.2210 H   0  0  0  0  0  0  0  0  0  0  0  0
   34.9180   30.6330   35.0830 C   0  0  0  0  0  0  0  0  0  0  0  0
   35.6270   31.4960   35.8930 C   0  0  0  0  0  0  0  0  0  0  0  0
   36.6950   31.6610   35.7390 H   0  0  0  0  0  0  0  0  0  0  0  0
   34.9630   32.1600   36.9190 C   0  0  0  0  0  3  0  0  0  0  0  0
   33.6250   31.9750   37.1370 C   0  0  0  0  0  0  0  0  0  0  0  0
   33.0320   32.4570   37.9200 H   0  0  0  0  0  0  0  0  0  0  0  0
   32.8990   31.1190   36.3410 C   0  0  0  0  0  0  0  0  0  0  0  0
   31.8330   30.9480   36.4870 H   0  0  0  0  0  0  0  0  0  0  0  0
   33.5680   30.4510   35.3090 C   0  0  0  0  0  3  0  0  0  0  0  0
  1  5  1  0  0  0  0
  2  3  1  0  0  0  0
  2  1  2  0  0  0  0
  3  4  2  0  0  0  0
  4  5  1  0  0  0  0
  4 10  1  0  0  0  0
  6  2  1  0  0  0  0
  7  3  1  0  0  0  0
  9 15  1  0  0  0  0
  9  8  1  0  0  0  0
 10  9  2  0  0  0  0
 11 10  1  0  0  0  0
 11 12  2  0  0  0  0
 12 13  1  0  0  0  0
 13 15  2  0  0  0  0
 13 14  1  0  0  0  0
 15 18  1  0  0  0  0
 16 11  1  0  0  0  0
 17 12  1  0  0  0  0
 19 20  2  0  0  0  0
 19 24  1  0  0  0  0
 20 21  1  0  0  0  0
 21  1  1  0  0  0  0
 21 22  2  0  0  0  0
 23 22  1  0  0  0  0
 23 27  1  0  0  0  0
 24 23  2  0  0  0  0
 25 19  1  0  0  0  0
 26 20  1  0  0  0  0
 27 35  2  0  0  0  0
 27 28  1  0  0  0  0
 28 30  2  0  0  0  0
 29 28  1  0  0  0  0
 30 31  1  0  0  0  0
 31 32  1  0  0  0  0
 33 34  1  0  0  0  0
 33 31  2  0  0  0  0
 35 33  1  0  0  0  0
M  END
>  <minimizedAffinity>
-6.69613361

$$$$

 OpenBabel03272503213D

 35 38  0  0  0  0  0  0  0  0999 V2000
   36.6850   26.9490   32.6220 C   0  0  0  0  0  0  0  0  0  0  0  0
   37.3940   26.2200   33.4820 C   0  0  0  0  0  0  0  0  0  0  0  0
   37.5480   24.9000   33.2930 C   0  0  0  0  0  0  0  0  0  0  0  0
   36.9390   24.3560   32.1780 C   0  0  0  0  0  0  0  0  0  0  0  0
   36.1390   25.8100   31.4120 S   0  0  0  0  0  0  0  0  0  0  0  0
   37.8520   26.7250   34.3510 H   0  0  0  0  0  0  0  0  0  0  0  0
   38.0920   24.1920   33.9030 H   0  0  0  0  0  0  0  0  0  0  0  0
   39.4700   23.3640   30.7910 Cl  0  0  0  0  0  0  0  0  0  0  0  0
   37.9670   22.5010   31.0060 C   0  0  0  0  0  0  0  0  0  0  0  0
   36.8730   23.0150   31.6410 C   0  0  0  0  0  0  0  0  0  0  0  0
   35.6840   22.3870   31.8330 C   0  0  0  0  0  0  0  0  0  0  0  0
   35.5500   21.0820   31.3370 C   0  0  0  0  0  0  0  0  0  0  0  0
   36.6160   20.5050   30.6870 C   0  0  0  0  0  0  0  0  0  0  0  0
   36.4790   18.8780   30.0570 Cl  0  0  0  0  0  0  0  0  0  0  0  0
   37.8160   21.2020   30.5190 C   0  0  0  0  0  0  0  0  0  0  0  0
   34.8290   22.8140   32.3410 H   0  0  0  0  0  0  0  0  0  0  0  0
   34.6270   20.5320   31.4610 H   0  0  0  0  0  0  0  0  0  0  0  0
   38.6570   20.7520   30.0080 H   0  0  0  0  0  0  0  0  0  0  0  0
   36.3120   30.5510   31.5680 C   0  0  0  0  0  0  0  0  0  0  0  0
   36.6500   29.1850   31.4910 C   0  0  0  0  0  0  0  0  0  0  0  0
   36.3750   28.3800   32.6020 C   0  0  0  0  0  0  0  0  0  0  0  0
   35.8010   28.9240   33.7020 N   0  0  0  0  0  0  0  0  0  0  0  0
   35.4950   30.2450   33.7250 C   0  0  0  0  0  0  0  0  0  0  0  0
   35.7460   31.0370   32.6810 N   0  0  0  0  0  0  0  0  0  0  0  0
   36.5470   31.1180   30.6850 H   0  0  0  0  0  0  0  0  0  0  0  0
   37.0990   28.7300   30.6450 H   0  0  0  0  0  0  0  0  0  0  0  0
   34.8750   30.8020   34.9290 C   0  0  0  0  0  0  0  0  0  0  0  0
   35.5930   31.6180   35.7800 C   0  0  0  0  0  0  0  0  0  0  0  0
   36.6370   31.8650   35.5730 H   0  0  0  0  0  0  0  0  0  0  0  0
   34.9710   32.1290   36.9130 C   0  0  0  0  0  3  0  0  0  0  0  0
   33.6640   31.8390   37.1990 C   0  0  0  0  0  0  0  0  0  0  0  0
   33.1040   32.1980   38.0670 H   0  0  0  0  0  0  0  0  0  0  0  0
   32.9300   31.0270   36.3650 C   0  0  0  0  0  0  0  0  0  0  0  0
   31.8890   30.7760   36.5630 H   0  0  0  0  0  0  0  0  0  0  0  0
   33.5580   30.5140   35.2240 C   0  0  0  0  0  3  0  0  0  0  0  0
  1  2  2  0  0  0  0
  2  6  1  0  0  0  0
  3  2  1  0  0  0  0
  3  7  1  0  0  0  0
  4  3  2  0  0  0  0
  5  4  1  0  0  0  0
  5  1  1  0  0  0  0
  8  9  1  0  0  0  0
  9 10  1  0  0  0  0
 10 11  2  0  0  0  0
 10  4  1  0  0  0  0
 11 16  1  0  0  0  0
 12 17  1  0  0  0  0
 12 11  1  0  0  0  0
 13 12  2  0  0  0  0
 14 13  1  0  0  0  0
 15 13  1  0  0  0  0
 15  9  2  0  0  0  0
 18 15  1  0  0  0  0
 19 24  1  0  0  0  0
 20 19  2  0  0  0  0
 20 21  1  0  0  0  0
 21  1  1  0  0  0  0
 21 22  2  0  0  0  0
 22 23  1  0  0  0  0
 23 27  1  0  0  0  0
 24 23  2  0  0  0  0
 25 19  1  0  0  0  0
 26 20  1  0  0  0  0
 27 35  2  0  0  0  0
 27 28  1  0  0  0  0
 28 30  2  0  0  0  0
 29 28  1  0  0  0  0
 30 31  1  0  0  0  0
 31 32  1  0  0  0  0
 33 34  1  0  0  0  0
 33 31  2  0  0  0  0
 35 33  1  0  0  0  0
M  END
>  <minimizedAffinity>
-6.40812969

$$$$

 OpenBabel03272503213D

 35 38  0  0  0  0  0  0  0  0999 V2000
   36.7940   27.4950   32.8450 C   0  0  0  0  0  0  0  0  0  0  0  0
   36.1910   28.3950   32.0690 C   0  0  0  0  0  0  0  0  0  0  0  0
   35.5850   29.4630   32.6090 C   0  0  0  0  0  0  0  0  0  0  0  0
   35.6230   29.5710   33.9870 C   0  0  0  0  0  0  0  0  0  0  0  0
   36.5620   28.0810   34.4760 S   0  0  0  0  0  0  0  0  0  0  0  0
   36.2020   28.2410   30.9750 H   0  0  0  0  0  0  0  0  0  0  0  0
   35.0610   30.2660   32.1060 H   0  0  0  0  0  0  0  0  0  0  0  0
   32.6450   29.3410   34.6110 Cl  0  0  0  0  0  0  0  0  0  0  0  0
   33.7790   30.5070   35.2470 C   0  0  0  0  0  0  0  0  0  0  0  0
   35.1030   30.5460   34.9190 C   0  0  0  0  0  0  0  0  0  0  0  0
   36.0230   31.4300   35.3850 C   0  0  0  0  0  0  0  0  0  0  0  0
   35.5860   32.4060   36.2930 C   0  0  0  0  0  0  0  0  0  0  0  0
   34.2630   32.4210   36.6670 C   0  0  0  0  0  0  0  0  0  0  0  0
   33.6880   33.6250   37.7990 Cl  0  0  0  0  0  0  0  0  0  0  0  0
   33.3620   31.4840   36.1530 C   0  0  0  0  0  0  0  0  0  0  0  0
   37.0700   31.4430   35.1100 H   0  0  0  0  0  0  0  0  0  0  0  0
   36.2740   33.1360   36.6980 H   0  0  0  0  0  0  0  0  0  0  0  0
   32.3200   31.4930   36.4440 H   0  0  0  0  0  0  0  0  0  0  0  0
   39.4700   25.0390   31.8290 C   0  0  0  0  0  0  0  0  0  0  0  0
   38.8640   26.2750   32.1310 C   0  0  0  0  0  0  0  0  0  0  0  0
   37.5160   26.2660   32.5080 C   0  0  0  0  0  0  0  0  0  0  0  0
   36.8430   25.0930   32.5730 N   0  0  0  0  0  0  0  0  0  0  0  0
   37.4730   23.9300   32.2720 C   0  0  0  0  0  0  0  0  0  0  0  0
   38.7570   23.9080   31.9090 N   0  0  0  0  0  0  0  0  0  0  0  0
   40.5060   25.1090   31.5470 H   0  0  0  0  0  0  0  0  0  0  0  0
   39.3630   27.2090   32.0910 H   0  0  0  0  0  0  0  0  0  0  0  0
   36.7170   22.6790   32.3510 C   0  0  0  0  0  0  0  0  0  0  0  0
   35.8550   22.3090   31.3380 C   0  0  0  0  0  0  0  0  0  0  0  0
   35.7190   22.9420   30.4580 H   0  0  0  0  0  0  0  0  0  0  0  0
   35.1550   21.1140   31.4490 C   0  0  0  0  0  3  0  0  0  0  0  0
   35.3030   20.3000   32.5390 C   0  0  0  0  0  0  0  0  0  0  0  0
   34.7900   19.3480   32.7010 H   0  0  0  0  0  0  0  0  0  0  0  0
   36.1570   20.6490   33.5600 C   0  0  0  0  0  0  0  0  0  0  0  0
   36.2990   20.0250   34.4410 H   0  0  0  0  0  0  0  0  0  0  0  0
   36.8620   21.8530   33.4480 C   0  0  0  0  0  3  0  0  0  0  0  0
  1  5  1  0  0  0  0
  2  3  1  0  0  0  0
  2  1  2  0  0  0  0
  3  4  2  0  0  0  0
  4  5  1  0  0  0  0
  4 10  1  0  0  0  0
  6  2  1  0  0  0  0
  7  3  1  0  0  0  0
  8  9  1  0  0  0  0
  9 15  1  0  0  0  0
 10  9  2  0  0  0  0
 10 11  1  0  0  0  0
 11 12  2  0  0  0  0
 12 13  1  0  0  0  0
 12 17  1  0  0  0  0
 13 14  1  0  0  0  0
 15 18  1  0  0  0  0
 15 13  2  0  0  0  0
 16 11  1  0  0  0  0
 19 24  2  0  0  0  0
 19 20  1  0  0  0  0
 20 21  2  0  0  0  0
 21 22  1  0  0  0  0
 21  1  1  0  0  0  0
 23 27  1  0  0  0  0
 23 22  2  0  0  0  0
 24 23  1  0  0  0  0
 25 19  1  0  0  0  0
 26 20  1  0  0  0  0
 27 35  1  0  0  0  0
 28 30  1  0  0  0  0
 28 27  2  0  0  0  0
 29 28  1  0  0  0  0
 30 31  2  0  0  0  0
 31 32  1  0  0  0  0
 31 33  1  0  0  0  0
 33 34  1  0  0  0  0
 35 33  2  0  0  0  0
M  END
>  <minimizedAffinity>
-6.2666502

$$$$

 OpenBabel03272503213D

 35 38  0  0  0  0  0  0  0  0999 V2000
   38.3990   26.6290   34.1700 C   0  0  0  0  0  0  0  0  0  0  0  0
   39.6240   27.0290   34.5050 C   0  0  0  0  0  0  0  0  0  0  0  0
   40.5250   26.1500   34.9700 C   0  0  0  0  0  0  0  0  0  0  0  0
   40.1140   24.8350   35.0780 C   0  0  0  0  0  0  0  0  0  0  0  0
   38.3860   24.9090   34.4870 S   0  0  0  0  0  0  0  0  0  0  0  0
   39.8810   28.0980   34.3920 H   0  0  0  0  0  0  0  0  0  0  0  0
   41.5470   26.3330   35.2780 H   0  0  0  0  0  0  0  0  0  0  0  0
   42.1660   23.6630   33.1480 Cl  0  0  0  0  0  0  0  0  0  0  0  0
   41.7000   23.0420   34.7120 C   0  0  0  0  0  0  0  0  0  0  0  0
   40.7690   23.6260   35.5220 C   0  0  0  0  0  0  0  0  0  0  0  0
   40.3740   23.1830   36.7440 C   0  0  0  0  0  0  0  0  0  0  0  0
   40.9700   22.0130   37.2370 C   0  0  0  0  0  0  0  0  0  0  0  0
   41.9170   21.3760   36.4700 C   0  0  0  0  0  0  0  0  0  0  0  0
   42.6790   19.9140   37.0580 Cl  0  0  0  0  0  0  0  0  0  0  0  0
   42.2840   21.8790   35.2190 C   0  0  0  0  0  0  0  0  0  0  0  0
   39.6330   23.6630   37.3700 H   0  0  0  0  0  0  0  0  0  0  0  0
   40.6950   21.6140   38.2040 H   0  0  0  0  0  0  0  0  0  0  0  0
   43.0280   21.3810   34.6120 H   0  0  0  0  0  0  0  0  0  0  0  0
   35.6200   27.9000   31.9600 C   0  0  0  0  0  0  0  0  0  0  0  0
   36.7250   27.1300   32.3730 C   0  0  0  0  0  0  0  0  0  0  0  0
   37.2530   27.3770   33.6450 C   0  0  0  0  0  0  0  0  0  0  0  0
   36.7000   28.3300   34.4320 N   0  0  0  0  0  0  0  0  0  0  0  0
   35.6360   29.0440   33.9860 C   0  0  0  0  0  0  0  0  0  0  0  0
   35.1110   28.8320   32.7780 N   0  0  0  0  0  0  0  0  0  0  0  0
   35.2570   27.6660   30.9750 H   0  0  0  0  0  0  0  0  0  0  0  0
   37.1800   26.3770   31.7820 H   0  0  0  0  0  0  0  0  0  0  0  0
   35.0600   30.0680   34.8610 C   0  0  0  0  0  0  0  0  0  0  0  0
   35.8730   30.9500   35.5450 C   0  0  0  0  0  0  0  0  0  0  0  0
   36.9600   30.9010   35.4490 H   0  0  0  0  0  0  0  0  0  0  0  0
   35.2910   31.9080   36.3650 C   0  0  0  0  0  3  0  0  0  0  0  0
   33.9310   31.9940   36.5060 C   0  0  0  0  0  0  0  0  0  0  0  0
   33.3980   32.7160   37.1300 H   0  0  0  0  0  0  0  0  0  0  0  0
   33.1040   31.1250   35.8330 C   0  0  0  0  0  0  0  0  0  0  0  0
   32.0190   31.1650   35.9230 H   0  0  0  0  0  0  0  0  0  0  0  0
   33.6910   30.1610   35.0070 C   0  0  0  0  0  3  0  0  0  0  0  0
  1  5  1  0  0  0  0
  1  2  2  0  0  0  0
  2  3  1  0  0  0  0
  3  4  2  0  0  0  0
  3  7  1  0  0  0  0
  4 10  1  0  0  0  0
  5  4  1  0  0  0  0
  6  2  1  0  0  0  0
  8  9  1  0  0  0  0
  9 15  2  0  0  0  0
  9 10  1  0  0  0  0
 10 11  2  0  0  0  0
 11 12  1  0  0  0  0
 11 16  1  0  0  0  0
 12 17  1  0  0  0  0
 13 14  1  0  0  0  0
 13 12  2  0  0  0  0
 15 13  1  0  0  0  0
 18 15  1  0  0  0  0
 19 20  2  0  0  0  0
 19 24  1  0  0  0  0
 20 21  1  0  0  0  0
 21  1  1  0  0  0  0
 21 22  2  0  0  0  0
 23 22  1  0  0  0  0
 23 27  1  0  0  0  0
 24 23  2  0  0  0  0
 25 19  1  0  0  0  0
 26 20  1  0  0  0  0
 27 35  2  0  0  0  0
 27 28  1  0  0  0  0
 28 30  2  0  0  0  0
 29 28  1  0  0  0  0
 30 31  1  0  0  0  0
 31 32  1  0  0  0  0
 33 34  1  0  0  0  0
 33 31  2  0  0  0  0
 35 33  1  0  0  0  0
M  END
>  <minimizedAffinity>
-6.21360922

$$$$

 OpenBabel03272503213D

 35 38  0  0  0  0  0  0  0  0999 V2000
   37.1490   27.2510   33.2720 C   0  0  0  0  0  0  0  0  0  0  0  0
   36.6300   28.0990   32.3850 C   0  0  0  0  0  0  0  0  0  0  0  0
   35.9470   29.1800   32.7940 C   0  0  0  0  0  0  0  0  0  0  0  0
   35.8180   29.3540   34.1590 C   0  0  0  0  0  0  0  0  0  0  0  0
   36.7130   27.9100   34.8310 S   0  0  0  0  0  0  0  0  0  0  0  0
   36.7740   27.8930   31.3090 H   0  0  0  0  0  0  0  0  0  0  0  0
   35.4760   29.9460   32.1920 H   0  0  0  0  0  0  0  0  0  0  0  0
   32.7670   29.2840   34.1800 Cl  0  0  0  0  0  0  0  0  0  0  0  0
   33.8120   30.3950   35.0310 C   0  0  0  0  0  0  0  0  0  0  0  0
   35.1750   30.3630   34.9710 C   0  0  0  0  0  0  0  0  0  0  0  0
   36.0290   31.2020   35.6130 C   0  0  0  0  0  0  0  0  0  0  0  0
   35.4730   32.2060   36.4190 C   0  0  0  0  0  0  0  0  0  0  0  0
   34.1040   32.2930   36.5230 C   0  0  0  0  0  0  0  0  0  0  0  0
   33.3800   33.5340   37.5210 Cl  0  0  0  0  0  0  0  0  0  0  0  0
   33.2750   31.3990   35.8380 C   0  0  0  0  0  0  0  0  0  0  0  0
   37.1090   31.1580   35.5510 H   0  0  0  0  0  0  0  0  0  0  0  0
   36.1030   32.9020   36.9540 H   0  0  0  0  0  0  0  0  0  0  0  0
   32.1980   31.4640   35.9170 H   0  0  0  0  0  0  0  0  0  0  0  0
   38.9350   24.3010   31.7430 C   0  0  0  0  0  0  0  0  0  0  0  0
   38.1760   25.4860   31.8170 C   0  0  0  0  0  0  0  0  0  0  0  0
   37.9240   26.0220   33.0860 C   0  0  0  0  0  0  0  0  0  0  0  0
   38.4080   25.4000   34.1880 N   0  0  0  0  0  0  0  0  0  0  0  0
   39.1320   24.2610   34.0610 C   0  0  0  0  0  0  0  0  0  0  0  0
   39.3880   23.7270   32.8660 N   0  0  0  0  0  0  0  0  0  0  0  0
   39.0950   23.9380   30.7440 H   0  0  0  0  0  0  0  0  0  0  0  0
   37.7840   25.9970   30.9750 H   0  0  0  0  0  0  0  0  0  0  0  0
   39.6410   23.6130   35.2720 C   0  0  0  0  0  0  0  0  0  0  0  0
   40.8450   22.9390   35.2590 C   0  0  0  0  0  0  0  0  0  0  0  0
   41.4420   22.8740   34.3460 H   0  0  0  0  0  0  0  0  0  0  0  0
   41.2960   22.3370   36.4270 C   0  0  0  0  0  3  0  0  0  0  0  0
   40.5710   22.4000   37.5870 C   0  0  0  0  0  0  0  0  0  0  0  0
   40.8550   21.9540   38.5440 H   0  0  0  0  0  0  0  0  0  0  0  0
   39.3680   23.0670   37.6210 C   0  0  0  0  0  0  0  0  0  0  0  0
   38.7660   23.1360   38.5260 H   0  0  0  0  0  0  0  0  0  0  0  0
   38.9150   23.6730   36.4440 C   0  0  0  0  0  3  0  0  0  0  0  0
  1  5  1  0  0  0  0
  2  3  1  0  0  0  0
  2  1  2  0  0  0  0
  3  4  2  0  0  0  0
  4  5  1  0  0  0  0
  4 10  1  0  0  0  0
  6  2  1  0  0  0  0
  7  3  1  0  0  0  0
  8  9  1  0  0  0  0
  9 15  1  0  0  0  0
 10  9  2  0  0  0  0
 10 11  1  0  0  0  0
 11 12  2  0  0  0  0
 12 13  1  0  0  0  0
 12 17  1  0  0  0  0
 13 14  1  0  0  0  0
 15 18  1  0  0  0  0
 15 13  2  0  0  0  0
 16 11  1  0  0  0  0
 19 20  2  0  0  0  0
 19 24  1  0  0  0  0
 20 21  1  0  0  0  0
 21  1  1  0  0  0  0
 21 22  2  0  0  0  0
 23 22  1  0  0  0  0
 23 27  1  0  0  0  0
 24 23  2  0  0  0  0
 25 19  1  0  0  0  0
 26 20  1  0  0  0  0
 27 35  1  0  0  0  0
 28 27  2  0  0  0  0
 28 30  1  0  0  0  0
 29 28  1  0  0  0  0
 30 31  2  0  0  0  0
 31 33  1  0  0  0  0
 31 32  1  0  0  0  0
 33 34  1  0  0  0  0
 35 33  2  0  0  0  0
M  END
>  <minimizedAffinity>
-6.17195511

$$$$

 OpenBabel03272503213D

 35 38  0  0  0  0  0  0  0  0999 V2000
   36.9990   26.6800   32.9620 C   0  0  0  0  0  0  0  0  0  0  0  0
   37.1700   26.7560   34.2810 C   0  0  0  0  0  0  0  0  0  0  0  0
   36.7010   27.8070   34.9700 C   0  0  0  0  0  0  0  0  0  0  0  0
   36.0440   28.7830   34.2450 C   0  0  0  0  0  0  0  0  0  0  0  0
   36.1260   28.1350   32.5380 S   0  0  0  0  0  0  0  0  0  0  0  0
   37.7060   25.9360   34.7920 H   0  0  0  0  0  0  0  0  0  0  0  0
   36.7660   27.9990   36.0330 H   0  0  0  0  0  0  0  0  0  0  0  0
   33.2370   29.2170   33.1290 Cl  0  0  0  0  0  0  0  0  0  0  0  0
   34.1550   30.2970   34.1480 C   0  0  0  0  0  0  0  0  0  0  0  0
   35.4120   30.0320   34.6100 C   0  0  0  0  0  0  0  0  0  0  0  0
   36.1660   30.8370   35.4030 C   0  0  0  0  0  0  0  0  0  0  0  0
   35.6140   32.0650   35.7950 C   0  0  0  0  0  0  0  0  0  0  0  0
   34.3500   32.3940   35.3640 C   0  0  0  0  0  0  0  0  0  0  0  0
   33.6340   33.9190   35.8370 Cl  0  0  0  0  0  0  0  0  0  0  0  0
   33.6210   31.5230   34.5490 C   0  0  0  0  0  0  0  0  0  0  0  0
   37.1620   30.6050   35.7570 H   0  0  0  0  0  0  0  0  0  0  0  0
   36.1670   32.7470   36.4260 H   0  0  0  0  0  0  0  0  0  0  0  0
   32.6260   31.7780   34.2080 H   0  0  0  0  0  0  0  0  0  0  0  0
   38.6800   24.8580   30.1200 C   0  0  0  0  0  0  0  0  0  0  0  0
   38.3520   25.9100   30.9970 C   0  0  0  0  0  0  0  0  0  0  0  0
   37.4060   25.6550   31.9970 C   0  0  0  0  0  0  0  0  0  0  0  0
   36.8420   24.4280   32.0940 N   0  0  0  0  0  0  0  0  0  0  0  0
   37.1930   23.4490   31.2220 C   0  0  0  0  0  0  0  0  0  0  0  0
   38.0910   23.6620   30.2600 N   0  0  0  0  0  0  0  0  0  0  0  0
   39.4120   25.1130   29.3740 H   0  0  0  0  0  0  0  0  0  0  0  0
   38.7760   26.8800   30.9490 H   0  0  0  0  0  0  0  0  0  0  0  0
   36.5640   22.1330   31.3540 C   0  0  0  0  0  0  0  0  0  0  0  0
   35.3820   21.9820   32.0490 C   0  0  0  0  0  0  0  0  0  0  0  0
   34.8920   22.8390   32.5160 H   0  0  0  0  0  0  0  0  0  0  0  0
   34.8150   20.7170   32.1520 C   0  0  0  0  0  3  0  0  0  0  0  0
   35.4050   19.6230   31.5780 C   0  0  0  0  0  0  0  0  0  0  0  0
   35.0240   18.5990   31.6140 H   0  0  0  0  0  0  0  0  0  0  0  0
   36.5830   19.7520   30.8800 C   0  0  0  0  0  0  0  0  0  0  0  0
   37.0800   18.9030   30.4110 H   0  0  0  0  0  0  0  0  0  0  0  0
   37.1540   21.0260   30.7770 C   0  0  0  0  0  3  0  0  0  0  0  0
  1  2  2  0  0  0  0
  2  6  1  0  0  0  0
  2  3  1  0  0  0  0
  3  7  1  0  0  0  0
  4 10  1  0  0  0  0
  4  3  2  0  0  0  0
  5  1  1  0  0  0  0
  5  4  1  0  0  0  0
  8  9  1  0  0  0  0
  9 15  2  0  0  0  0
  9 10  1  0  0  0  0
 10 11  2  0  0  0  0
 11 16  1  0  0  0  0
 11 12  1  0  0  0  0
 12 17  1  0  0  0  0
 13 12  2  0  0  0  0
 13 14  1  0  0  0  0
 15 13  1  0  0  0  0
 18 15  1  0  0  0  0
 19 24  2  0  0  0  0
 19 20  1  0  0  0  0
 20 21  2  0  0  0  0
 21 22  1  0  0  0  0
 21  1  1  0  0  0  0
 23 27  1  0  0  0  0
 23 22  2  0  0  0  0
 24 23  1  0  0  0  0
 25 19  1  0  0  0  0
 26 20  1  0  0  0  0
 27 28  1  0  0  0  0
 28 30  2  0  0  0  0
 28 29  1  0  0  0  0
 31 32  1  0  0  0  0
 31 30  1  0  0  0  0
 33 31  2  0  0  0  0
 34 33  1  0  0  0  0
 35 33  1  0  0  0  0
 35 27  2  0  0  0  0
M  END
>  <minimizedAffinity>
-6.09665442

$$$$

 OpenBabel03272503213D

 35 38  0  0  0  0  0  0  0  0999 V2000
   37.9780   25.1930   34.8430 C   0  0  0  0  0  0  0  0  0  0  0  0
   37.6850   24.8300   33.5950 C   0  0  0  0  0  0  0  0  0  0  0  0
   37.2160   25.7290   32.7160 C   0  0  0  0  0  0  0  0  0  0  0  0
   37.0610   27.0240   33.1720 C   0  0  0  0  0  0  0  0  0  0  0  0
   37.6120   26.9020   34.9110 S   0  0  0  0  0  0  0  0  0  0  0  0
   37.8350   23.7750   33.3030 H   0  0  0  0  0  0  0  0  0  0  0  0
   36.9400   25.5770   31.6810 H   0  0  0  0  0  0  0  0  0  0  0  0
   38.5530   27.8650   30.6470 Cl  0  0  0  0  0  0  0  0  0  0  0  0
   37.2170   28.6850   31.4160 C   0  0  0  0  0  0  0  0  0  0  0  0
   36.5980   28.2440   32.5500 C   0  0  0  0  0  0  0  0  0  0  0  0
   35.5580   28.8440   33.1850 C   0  0  0  0  0  0  0  0  0  0  0  0
   35.0590   30.0340   32.6350 C   0  0  0  0  0  0  0  0  0  0  0  0
   35.6380   30.5330   31.4920 C   0  0  0  0  0  0  0  0  0  0  0  0
   35.0370   32.0150   30.7820 Cl  0  0  0  0  0  0  0  0  0  0  0  0
   36.7070   29.8690   30.8820 C   0  0  0  0  0  0  0  0  0  0  0  0
   35.0820   28.4760   34.0850 H   0  0  0  0  0  0  0  0  0  0  0  0
   34.2320   30.5560   33.0970 H   0  0  0  0  0  0  0  0  0  0  0  0
   37.1660   30.2580   29.9830 H   0  0  0  0  0  0  0  0  0  0  0  0
   38.4320   23.6230   38.2420 C   0  0  0  0  0  0  0  0  0  0  0  0
   37.8570   24.4030   37.2190 C   0  0  0  0  0  0  0  0  0  0  0  0
   38.4960   24.4180   35.9730 C   0  0  0  0  0  0  0  0  0  0  0  0
   39.6270   23.6970   35.7870 N   0  0  0  0  0  0  0  0  0  0  0  0
   40.1400   22.9630   36.8060 C   0  0  0  0  0  0  0  0  0  0  0  0
   39.5530   22.9290   38.0030 N   0  0  0  0  0  0  0  0  0  0  0  0
   37.8980   23.6500   39.1750 H   0  0  0  0  0  0  0  0  0  0  0  0
   36.9740   24.9770   37.3320 H   0  0  0  0  0  0  0  0  0  0  0  0
   41.3640   22.1940   36.5720 C   0  0  0  0  0  0  0  0  0  0  0  0
   42.1700   22.4650   35.4850 C   0  0  0  0  0  0  0  0  0  0  0  0
   41.9110   23.2560   34.7770 H   0  0  0  0  0  0  0  0  0  0  0  0
   43.3250   21.7150   35.2950 C   0  0  0  0  0  3  0  0  0  0  0  0
   43.6760   20.7170   36.1650 C   0  0  0  0  0  0  0  0  0  0  0  0
   44.5640   20.0830   36.0860 H   0  0  0  0  0  0  0  0  0  0  0  0
   42.8860   20.4310   37.2550 C   0  0  0  0  0  0  0  0  0  0  0  0
   43.1360   19.6450   37.9660 H   0  0  0  0  0  0  0  0  0  0  0  0
   41.7240   21.1870   37.4440 C   0  0  0  0  0  3  0  0  0  0  0  0
  1  5  1  0  0  0  0
  1 21  1  0  0  0  0
  2  1  2  0  0  0  0
  3  4  2  0  0  0  0
  3  2  1  0  0  0  0
  4  5  1  0  0  0  0
  6  2  1  0  0  0  0
  7  3  1  0  0  0  0
  8  9  1  0  0  0  0
  9 10  1  0  0  0  0
 10  4  1  0  0  0  0
 10 11  2  0  0  0  0
 11 16  1  0  0  0  0
 12 17  1  0  0  0  0
 12 11  1  0  0  0  0
 13 12  2  0  0  0  0
 14 13  1  0  0  0  0
 15  9  2  0  0  0  0
 15 13  1  0  0  0  0
 18 15  1  0  0  0  0
 19 25  1  0  0  0  0
 20 26  1  0  0  0  0
 20 19  2  0  0  0  0
 21 20  1  0  0  0  0
 22 21  2  0  0  0  0
 22 23  1  0  0  0  0
 23 24  2  0  0  0  0
 24 19  1  0  0  0  0
 27 23  1  0  0  0  0
 27 35  1  0  0  0  0
 28 27  2  0  0  0  0
 29 28  1  0  0  0  0
 30 28  1  0  0  0  0
 30 31  2  0  0  0  0
 31 33  1  0  0  0  0
 32 31  1  0  0  0  0
 33 35  2  0  0  0  0
 33 34  1  0  0  0  0
M  END
>  <minimizedAffinity>
-6.07769156

$$$$

 OpenBabel03272503213D

 35 38  0  0  0  0  0  0  0  0999 V2000
   37.4030   27.4900   34.0640 C   0  0  0  0  0  0  0  0  0  0  0  0
   37.7910   27.7930   35.3010 C   0  0  0  0  0  0  0  0  0  0  0  0
   38.5170   26.9240   36.0210 C   0  0  0  0  0  0  0  0  0  0  0  0
   38.8300   25.7230   35.4130 C   0  0  0  0  0  0  0  0  0  0  0  0
   38.0430   25.8890   33.7720 S   0  0  0  0  0  0  0  0  0  0  0  0
   37.5020   28.7740   35.7210 H   0  0  0  0  0  0  0  0  0  0  0  0
   38.8970   27.0360   37.0280 H   0  0  0  0  0  0  0  0  0  0  0  0
   37.4000   23.9070   37.4060 Cl  0  0  0  0  0  0  0  0  0  0  0  0
   38.9990   23.7000   36.7350 C   0  0  0  0  0  0  0  0  0  0  0  0
   39.5730   24.5590   35.8440 C   0  0  0  0  0  0  0  0  0  0  0  0
   40.8100   24.4420   35.2940 C   0  0  0  0  0  0  0  0  0  0  0  0
   41.5860   23.3360   35.6690 C   0  0  0  0  0  0  0  0  0  0  0  0
   41.0660   22.4300   36.5640 C   0  0  0  0  0  0  0  0  0  0  0  0
   42.0100   21.0390   37.0500 Cl  0  0  0  0  0  0  0  0  0  0  0  0
   39.7840   22.6040   37.0960 C   0  0  0  0  0  0  0  0  0  0  0  0
   41.2450   25.1370   34.5880 H   0  0  0  0  0  0  0  0  0  0  0  0
   42.5780   23.1900   35.2640 H   0  0  0  0  0  0  0  0  0  0  0  0
   39.3720   21.8940   37.8010 H   0  0  0  0  0  0  0  0  0  0  0  0
   36.2680   29.2630   30.9350 C   0  0  0  0  0  0  0  0  0  0  0  0
   37.0980   28.5250   31.8010 C   0  0  0  0  0  0  0  0  0  0  0  0
   36.6200   28.2520   33.0880 C   0  0  0  0  0  0  0  0  0  0  0  0
   35.3950   28.6960   33.4600 N   0  0  0  0  0  0  0  0  0  0  0  0
   34.6360   29.4040   32.5870 C   0  0  0  0  0  0  0  0  0  0  0  0
   35.0650   29.6790   31.3540 N   0  0  0  0  0  0  0  0  0  0  0  0
   36.6890   29.4410   29.9600 H   0  0  0  0  0  0  0  0  0  0  0  0
   38.0600   28.1630   31.5410 H   0  0  0  0  0  0  0  0  0  0  0  0
   33.3170   29.8700   33.0190 C   0  0  0  0  0  0  0  0  0  0  0  0
   32.2390   29.0090   33.0450 C   0  0  0  0  0  0  0  0  0  0  0  0
   32.3460   27.9650   32.7430 H   0  0  0  0  0  0  0  0  0  0  0  0
   31.0020   29.4870   33.4620 C   0  0  0  0  0  3  0  0  0  0  0  0
   30.8350   30.7900   33.8470 C   0  0  0  0  0  0  0  0  0  0  0  0
   29.8980   31.2420   34.1850 H   0  0  0  0  0  0  0  0  0  0  0  0
   31.8960   31.6640   33.8280 C   0  0  0  0  0  0  0  0  0  0  0  0
   31.7990   32.7070   34.1270 H   0  0  0  0  0  0  0  0  0  0  0  0
   33.1410   31.1830   33.4080 C   0  0  0  0  0  3  0  0  0  0  0  0
  1  2  2  0  0  0  0
  2  6  1  0  0  0  0
  2  3  1  0  0  0  0
  3  7  1  0  0  0  0
  4 10  1  0  0  0  0
  4  3  2  0  0  0  0
  5  1  1  0  0  0  0
  5  4  1  0  0  0  0
  9 15  1  0  0  0  0
  9  8  1  0  0  0  0
 10  9  2  0  0  0  0
 11 12  2  0  0  0  0
 11 10  1  0  0  0  0
 12 13  1  0  0  0  0
 13 14  1  0  0  0  0
 13 15  2  0  0  0  0
 15 18  1  0  0  0  0
 16 11  1  0  0  0  0
 17 12  1  0  0  0  0
 19 24  2  0  0  0  0
 19 20  1  0  0  0  0
 20 21  2  0  0  0  0
 21 22  1  0  0  0  0
 21  1  1  0  0  0  0
 23 27  1  0  0  0  0
 23 22  2  0  0  0  0
 24 23  1  0  0  0  0
 25 19  1  0  0  0  0
 26 20  1  0  0  0  0
 27 28  2  0  0  0  0
 27 35  1  0  0  0  0
 28 30  1  0  0  0  0
 29 28  1  0  0  0  0
 30 31  2  0  0  0  0
 31 32  1  0  0  0  0
 33 31  1  0  0  0  0
 33 34  1  0  0  0  0
 35 33  2  0  0  0  0
M  END
>  <minimizedAffinity>
-6.01303673

$$$$

 OpenBabel03272503213D

 35 38  0  0  0  0  0  0  0  0999 V2000
   38.0800   25.1490   34.6150 C   0  0  0  0  0  0  0  0  0  0  0  0
   37.4310   24.7330   33.5280 C   0  0  0  0  0  0  0  0  0  0  0  0
   37.0680   25.6060   32.5750 C   0  0  0  0  0  0  0  0  0  0  0  0
   37.3990   26.9310   32.7860 C   0  0  0  0  0  0  0  0  0  0  0  0
   38.2520   26.8760   34.4020 S   0  0  0  0  0  0  0  0  0  0  0  0
   37.2010   23.6570   33.4290 H   0  0  0  0  0  0  0  0  0  0  0  0
   36.5420   25.4110   31.6500 H   0  0  0  0  0  0  0  0  0  0  0  0
   35.4090   28.9190   33.9690 Cl  0  0  0  0  0  0  0  0  0  0  0  0
   36.3130   29.0750   32.4830 C   0  0  0  0  0  0  0  0  0  0  0  0
   37.1900   28.1380   32.0180 C   0  0  0  0  0  0  0  0  0  0  0  0
   37.9150   28.2130   30.8720 C   0  0  0  0  0  0  0  0  0  0  0  0
   37.7600   29.3580   30.0770 C   0  0  0  0  0  0  0  0  0  0  0  0
   36.8920   30.3420   30.4900 C   0  0  0  0  0  0  0  0  0  0  0  0
   36.6780   31.7830   29.5200 Cl  0  0  0  0  0  0  0  0  0  0  0  0
   36.1720   30.2090   31.6810 C   0  0  0  0  0  0  0  0  0  0  0  0
   38.6060   27.4560   30.5220 H   0  0  0  0  0  0  0  0  0  0  0  0
   38.3120   29.4730   29.1540 H   0  0  0  0  0  0  0  0  0  0  0  0
   35.4880   30.9800   32.0090 H   0  0  0  0  0  0  0  0  0  0  0  0
   38.4120   23.5730   38.0250 C   0  0  0  0  0  0  0  0  0  0  0  0
   37.8460   24.3080   36.9640 C   0  0  0  0  0  0  0  0  0  0  0  0
   38.5800   24.4110   35.7770 C   0  0  0  0  0  0  0  0  0  0  0  0
   39.7910   23.8120   35.6790 N   0  0  0  0  0  0  0  0  0  0  0  0
   40.2910   23.1160   36.7300 C   0  0  0  0  0  0  0  0  0  0  0  0
   39.6140   23.0010   37.8740 N   0  0  0  0  0  0  0  0  0  0  0  0
   37.8030   23.5290   38.9100 H   0  0  0  0  0  0  0  0  0  0  0  0
   36.9020   24.7880   37.0090 H   0  0  0  0  0  0  0  0  0  0  0  0
   41.6030   22.4800   36.5930 C   0  0  0  0  0  0  0  0  0  0  0  0
   42.6900   23.1970   36.1370 C   0  0  0  0  0  0  0  0  0  0  0  0
   42.5950   24.2520   35.8690 H   0  0  0  0  0  0  0  0  0  0  0  0
   43.9200   22.5600   36.0200 C   0  0  0  0  0  3  0  0  0  0  0  0
   44.0710   21.2390   36.3470 C   0  0  0  0  0  0  0  0  0  0  0  0
   45.0010   20.6670   36.2830 H   0  0  0  0  0  0  0  0  0  0  0  0
   43.0000   20.5060   36.8040 C   0  0  0  0  0  0  0  0  0  0  0  0
   43.0860   19.4540   37.0730 H   0  0  0  0  0  0  0  0  0  0  0  0
   41.7630   21.1490   36.9210 C   0  0  0  0  0  3  0  0  0  0  0  0
  1 21  1  0  0  0  0
  2  1  2  0  0  0  0
  3  4  2  0  0  0  0
  3  2  1  0  0  0  0
  4  5  1  0  0  0  0
  5  1  1  0  0  0  0
  6  2  1  0  0  0  0
  7  3  1  0  0  0  0
  9  8  1  0  0  0  0
 10  9  1  0  0  0  0
 10  4  1  0  0  0  0
 11 10  2  0  0  0  0
 12 13  2  0  0  0  0
 12 11  1  0  0  0  0
 13 15  1  0  0  0  0
 14 13  1  0  0  0  0
 15 18  1  0  0  0  0
 15  9  2  0  0  0  0
 16 11  1  0  0  0  0
 17 12  1  0  0  0  0
 19 25  1  0  0  0  0
 20 26  1  0  0  0  0
 20 19  2  0  0  0  0
 21 20  1  0  0  0  0
 22 21  2  0  0  0  0
 22 23  1  0  0  0  0
 23 24  2  0  0  0  0
 24 19  1  0  0  0  0
 27 23  1  0  0  0  0
 27 35  1  0  0  0  0
 28 27  2  0  0  0  0
 29 28  1  0  0  0  0
 30 28  1  0  0  0  0
 30 31  2  0  0  0  0
 31 33  1  0  0  0  0
 32 31  1  0  0  0  0
 33 35  2  0  0  0  0
 33 34  1  0  0  0  0
M  END
>  <minimizedAffinity>
-5.97555161

$$$$
