
 OpenBabel03272508153D

 28 30  0  0  0  0  0  0  0  0999 V2000
   38.1910   31.2140   48.4850 Cl  0  0  0  0  0  0  0  0  0  0  0  0
   37.1430   30.7500   47.1710 C   0  0  0  0  0  0  0  0  0  0  0  0
   35.9800   30.1480   47.5740 C   0  0  0  0  0  0  0  0  0  0  0  0
   35.0690   29.7360   46.5880 C   0  0  0  0  0  0  0  0  0  0  0  0
   35.3160   29.9220   45.2640 C   0  0  0  0  0  0  0  0  0  0  0  0
   36.4920   30.5310   44.8780 C   0  0  0  0  0  0  0  0  0  0  0  0
   36.8420   30.7860   43.1890 Cl  0  0  0  0  0  0  0  0  0  0  0  0
   37.3810   30.9320   45.8210 C   0  0  0  0  0  0  0  0  0  0  0  0
   34.1260   29.2530   46.8050 H   0  0  0  0  0  0  0  0  0  0  0  0
   34.6190   29.6100   44.4770 H   0  0  0  0  0  0  0  0  0  0  0  0
   36.4530   29.3970   49.8780 C   0  0  0  0  0  0  0  0  0  0  0  0
   35.5100   29.8480   48.9320 C   0  0  0  0  0  0  0  0  0  0  0  0
   34.1710   29.9850   49.3430 C   0  0  0  0  0  0  0  0  0  0  0  0
   33.8590   29.6760   50.6270 N   0  0  0  0  0  0  0  0  0  0  0  0
   34.8010   29.2440   51.5100 C   0  0  0  0  0  0  0  0  0  0  0  0
   36.0900   29.1060   51.1310 N   0  0  0  0  0  0  0  0  0  0  0  0
   37.4790   29.2730   49.6290 H   0  0  0  0  0  0  0  0  0  0  0  0
   33.4960   30.3280   48.5990 H   0  0  0  0  0  0  0  0  0  0  0  0
   34.3160   29.0640   52.4590 H   0  0  0  0  0  0  0  0  0  0  0  0
   38.6500   31.5840   45.5120 C   0  0  0  0  0  0  0  0  0  0  0  0
   38.7580   32.9190   45.1370 C   0  0  0  0  0  0  0  0  0  0  0  0
   37.8420   33.4900   45.0770 H   0  0  0  0  0  0  0  0  0  0  0  0
   40.0210   33.4070   44.8740 C   0  0  0  0  0  3  0  0  0  0  0  0
   41.1620   32.6480   44.9620 C   0  0  0  0  0  0  0  0  0  0  0  0
   42.1390   33.0550   44.7500 H   0  0  0  0  0  0  0  0  0  0  0  0
   41.0750   31.3250   45.3320 C   0  0  0  0  0  0  0  0  0  0  0  0
   41.9260   30.6700   45.4210 H   0  0  0  0  0  0  0  0  0  0  0  0
   39.8250   30.8380   45.5930 C   0  0  0  0  0  3  0  0  0  0  0  0
  2  3  1  0  0  0  0
  2  1  1  0  0  0  0
  3 12  1  0  0  0  0
  4  9  1  0  0  0  0
  4  3  2  0  0  0  0
  5  4  1  0  0  0  0
  6  5  2  0  0  0  0
  6  8  1  0  0  0  0
  7  6  1  0  0  0  0
  8  2  2  0  0  0  0
 10  5  1  0  0  0  0
 11 16  1  0  0  0  0
 12 13  1  0  0  0  0
 12 11  2  0  0  0  0
 13 14  2  0  0  0  0
 14 15  1  0  0  0  0
 15 19  1  0  0  0  0
 16 15  2  0  0  0  0
 17 11  1  0  0  0  0
 18 13  1  0  0  0  0
 20 28  1  0  0  0  0
 20  8  1  0  0  0  0
 21 20  2  0  0  0  0
 22 21  1  0  0  0  0
 23 24  2  0  0  0  0
 23 21  1  0  0  0  0
 24 26  1  0  0  0  0
 25 24  1  0  0  0  0
 26 27  1  0  0  0  0
 26 28  2  0  0  0  0
M  END
>  <minimizedAffinity>
-5.33935499

>  <minimizedRMSD>
3.38157248

$$$$
