
 OpenBabel03272507553D

 23 24  0  0  0  0  0  0  0  0999 V2000
   35.0830   29.1970   50.4170 C   0  0  0  0  0  0  0  0  0  0  0  0
   36.1490   29.9700   49.8750 C   0  0  0  0  0  0  0  0  0  0  0  0
   36.1900   30.1830   48.5060 C   0  0  0  0  0  0  0  0  0  0  0  0
   35.1840   29.6280   47.7480 N   0  0  0  0  0  0  0  0  0  0  0  0
   34.1860   28.9030   48.2790 C   0  0  0  0  0  0  0  0  0  0  0  0
   34.1330   28.6890   49.5910 N   0  0  0  0  0  0  0  0  0  0  0  0
   33.2580   28.4400   47.3230 N   0  0  0  0  0  0  0  0  0  0  0  0
   35.0620   29.0360   51.4890 H   0  0  0  0  0  0  0  0  0  0  0  0
   33.0350   27.4060   47.3730 H   0  0  0  0  0  0  0  0  0  0  0  0
   32.7550   28.9630   46.5720 H   0  0  0  0  0  0  0  0  0  0  0  0
   37.1690   30.9810   47.8010 C   0  0  0  0  0  0  0  0  0  0  0  0
   38.1260   31.9060   48.1180 C   0  0  0  0  0  0  0  0  0  0  0  0
   38.2240   32.0590   49.1760 H   0  0  0  0  0  0  0  0  0  0  0  0
   38.9040   32.5480   47.1900 C   0  0  0  0  0  3  0  0  0  0  0  0
   38.7760   32.3040   45.8400 C   0  0  0  0  0  0  0  0  0  0  0  0
   39.4610   32.8910   45.2470 H   0  0  0  0  0  0  0  0  0  0  0  0
   37.8260   31.3800   45.4650 C   0  0  0  0  0  0  0  0  0  0  0  0
   37.7670   31.2250   44.3980 H   0  0  0  0  0  0  0  0  0  0  0  0
   37.0560   30.7480   46.4180 C   0  0  0  0  0  3  0  0  0  0  0  0
   37.1600   30.5370   50.8030 C   0  0  0  0  0  0  0  0  0  0  0  0
   38.4390   30.2340   50.4210 F   0  0  0  0  0  0  0  0  0  0  0  0
   37.0000   31.9080   50.8210 F   0  0  0  0  0  0  0  0  0  0  0  0
   36.9920   30.0840   52.1040 F   0  0  0  0  0  0  0  0  0  0  0  0
  1  8  1  0  0  0  0
  2  1  1  0  0  0  0
  2 20  1  0  0  0  0
  3  2  2  0  0  0  0
  4  5  2  0  0  0  0
  4  3  1  0  0  0  0
  5  6  1  0  0  0  0
  6  1  2  0  0  0  0
  7  9  1  0  0  0  0
  7  5  1  0  0  0  0
 10  7  1  0  0  0  0
 11 12  1  0  0  0  0
 11  3  1  0  0  0  0
 12 13  1  0  0  0  0
 14 12  2  0  0  0  0
 15 14  1  0  0  0  0
 16 15  1  0  0  0  0
 17 15  2  0  0  0  0
 17 19  1  0  0  0  0
 18 17  1  0  0  0  0
 19 11  2  0  0  0  0
 20 22  1  0  0  0  0
 20 23  1  0  0  0  0
 21 20  1  0  0  0  0
M  END
>  <minimizedAffinity>
-6.03942156

>  <minimizedRMSD>
0.964444041

$$$$
