
 OpenBabel03272506023D

 46 49  0  0  1  0  0  0  0  0999 V2000
   35.2420   30.0730   49.4610 C   0  0  2  0  0  0  0  0  0  0  0  0
   36.1570   31.1560   49.1110 C   0  0  0  0  0  0  0  0  0  0  0  0
   37.6530   30.7170   49.1750 C   0  0  2  0  0  0  0  0  0  0  0  0
   38.0530   30.2240   50.4690 C   0  0  0  0  0  0  0  0  0  0  0  0
   36.9940   29.3560   51.1530 C   0  0  0  0  0  0  0  0  0  0  0  0
   35.9490   28.9110   50.1740 C   0  0  0  0  0  0  0  0  0  0  0  0
   34.5060   30.4270   50.2430 H   0  0  0  0  0  0  0  0  0  0  0  0
   36.1200   31.6710   48.1750 H   0  0  0  0  0  0  0  0  0  0  0  0
   36.1290   31.9800   49.9000 H   0  0  0  0  0  0  0  0  0  0  0  0
   37.8150   29.9930   48.3550 H   0  0  0  0  0  0  0  0  0  0  0  0
   39.0200   29.6870   50.3810 H   0  0  0  0  0  0  0  0  0  0  0  0
   38.2460   31.0440   51.1870 H   0  0  0  0  0  0  0  0  0  0  0  0
   37.5120   28.4440   51.4940 H   0  0  0  0  0  0  0  0  0  0  0  0
   36.5470   29.8250   52.0310 H   0  0  0  0  0  0  0  0  0  0  0  0
   36.4240   28.2500   49.4160 H   0  0  0  0  0  0  0  0  0  0  0  0
   35.1940   28.3340   50.7200 H   0  0  0  0  0  0  0  0  0  0  0  0
   38.5250   30.9450   46.3630 Cl  0  0  0  0  0  0  0  0  0  0  0  0
   38.8800   32.1720   47.5590 C   0  0  0  0  0  0  0  0  0  0  0  0
   38.3830   31.9760   48.8230 C   0  0  0  0  0  0  0  0  0  0  0  0
   38.6800   33.0050   49.6920 C   0  0  0  0  0  0  0  0  0  0  0  0
   39.4070   34.1240   49.3330 C   0  0  0  0  0  0  0  0  0  0  0  0
   39.8770   34.2440   48.0270 C   0  0  0  0  0  0  0  0  0  0  0  0
   39.6040   33.2380   47.1170 C   0  0  0  0  0  0  0  0  0  0  0  0
   38.3210   32.9340   50.7100 H   0  0  0  0  0  0  0  0  0  0  0  0
   39.5910   34.8810   50.0830 H   0  0  0  0  0  0  0  0  0  0  0  0
   40.4480   35.1160   47.7330 H   0  0  0  0  0  0  0  0  0  0  0  0
   40.0700   33.3490   45.7760 N   0  0  0  0  0  0  0  0  0  0  0  0
   39.7140   32.6850   45.0500 H   0  0  0  0  0  0  0  0  0  0  0  0
   40.7620   34.0920   45.5340 H   0  0  0  0  0  0  0  0  0  0  0  0
   34.4860   29.4880   48.3580 C   0  0  0  0  0  0  0  0  0  0  0  0
   34.1910   30.3760   47.3340 C   0  0  0  0  0  0  0  0  0  0  0  0
   33.4990   29.9100   46.2210 C   0  0  0  0  0  0  0  0  0  0  0  0
   33.1330   28.5700   46.1880 N   0  0  0  0  0  0  0  0  0  0  0  0
   33.4330   27.7280   47.1990 C   0  0  0  0  0  0  0  0  0  0  0  0
   34.1000   28.2290   48.2450 N   0  0  0  0  0  0  0  0  0  0  0  0
   34.3310   31.4210   47.0900 H   0  0  0  0  0  0  0  0  0  0  0  0
   33.1570   30.3730   45.3210 H   0  0  0  0  0  0  0  0  0  0  0  0
   33.0410   26.3230   47.1490 C   0  0  0  0  0  0  0  0  0  0  0  0
   33.9920   25.3610   47.4180 C   0  0  0  0  0  0  0  0  0  0  0  0
   35.0020   25.5830   47.6620 H   0  0  0  0  0  0  0  0  0  0  0  0
   33.5960   24.0340   47.3650 C   0  0  0  0  0  3  0  0  0  0  0  0
   32.2900   23.7100   47.0520 C   0  0  0  0  0  0  0  0  0  0  0  0
   31.9270   22.6800   46.9960 H   0  0  0  0  0  0  0  0  0  0  0  0
   31.3740   24.7210   46.7890 C   0  0  0  0  0  0  0  0  0  0  0  0
   30.3300   24.5120   46.5370 H   0  0  0  0  0  0  0  0  0  0  0  0
   31.7150   26.0760   46.8280 C   0  0  0  0  0  3  0  0  0  0  0  0
  1  6  1  0  0  0  0
  1  7  1  1  0  0  0
  2  3  1  0  0  0  0
  2  1  1  0  0  0  0
  2  9  1  0  0  0  0
  3 10  1  6  0  0  0
  3  4  1  0  0  0  0
  4  5  1  0  0  0  0
  4 12  1  0  0  0  0
  5 13  1  0  0  0  0
  5 14  1  0  0  0  0
  6 16  1  0  0  0  0
  6  5  1  0  0  0  0
  8  2  1  0  0  0  0
 11  4  1  0  0  0  0
 15  6  1  0  0  0  0
 17 18  1  0  0  0  0
 18 19  1  0  0  0  0
 19  3  1  0  0  0  0
 19 20  2  0  0  0  0
 20 24  1  0  0  0  0
 21 20  1  0  0  0  0
 21 25  1  0  0  0  0
 22 21  2  0  0  0  0
 23 18  2  0  0  0  0
 23 22  1  0  0  0  0
 26 22  1  0  0  0  0
 27 23  1  0  0  0  0
 28 27  1  0  0  0  0
 29 27  1  0  0  0  0
 30  1  1  0  0  0  0
 31 30  2  0  0  0  0
 32 31  1  0  0  0  0
 33 32  2  0  0  0  0
 33 34  1  0  0  0  0
 34 35  2  0  0  0  0
 35 30  1  0  0  0  0
 36 31  1  0  0  0  0
 37 32  1  0  0  0  0
 38 34  1  0  0  0  0
 38 39  1  0  0  0  0
 39 40  1  0  0  0  0
 41 39  2  0  0  0  0
 42 41  1  0  0  0  0
 43 42  1  0  0  0  0
 44 46  1  0  0  0  0
 44 42  2  0  0  0  0
 45 44  1  0  0  0  0
 46 38  2  0  0  0  0
M  END
>  <minimizedAffinity>
-7.56405306

>  <minimizedRMSD>
1.25322509

$$$$
