
 OpenBabel03272503113D

 45 49  0  0  0  0  0  0  0  0999 V2000
   37.8610   26.5550   35.2930 C   0  0  0  0  0  0  0  0  0  0  0  0
   38.7290   26.9040   36.1520 O   0  0  0  0  0  0  0  0  0  0  0  0
   37.6120   25.1500   35.2300 N   0  0  0  0  0  0  0  0  0  0  0  0
   36.9240   24.8080   34.5450 H   0  0  0  0  0  0  0  0  0  0  0  0
   36.5540   28.5500   35.1660 C   0  0  0  0  0  0  0  0  0  0  0  0
   37.2200   27.5460   34.4810 C   0  0  0  0  0  0  0  0  0  0  0  0
   37.2690   27.4980   33.1090 C   0  0  0  0  0  0  0  0  0  0  0  0
   36.6350   28.4770   32.3710 C   0  0  0  0  0  0  0  0  0  0  0  0
   36.5130   28.6870   31.0430 N   0  0  0  0  0  0  0  0  0  0  0  0
   35.7880   29.7940   30.8850 C   0  0  0  0  0  0  0  0  0  0  0  0
   35.4500   30.2880   32.0830 N   0  0  0  0  0  0  0  0  0  0  0  0
   35.9690   29.4800   33.0500 C   0  0  0  0  0  0  0  0  0  0  0  0
   35.9100   29.5450   34.4210 C   0  0  0  0  0  0  0  0  0  0  0  0
   36.5050   28.6050   36.2420 H   0  0  0  0  0  0  0  0  0  0  0  0
   37.7970   26.7020   32.5940 H   0  0  0  0  0  0  0  0  0  0  0  0
   36.9070   28.1000   30.2890 H   0  0  0  0  0  0  0  0  0  0  0  0
   35.4760   30.2870   29.9660 H   0  0  0  0  0  0  0  0  0  0  0  0
   35.1980   30.6180   35.1260 C   0  0  0  0  0  0  0  0  0  0  0  0
   33.8030   30.6310   35.2140 C   0  0  0  0  0  0  0  0  0  0  0  0
   33.2320   29.8240   34.7470 H   0  0  0  0  0  0  0  0  0  0  0  0
   33.2010   31.6710   35.8940 C   0  0  0  0  0  3  0  0  0  0  0  0
   33.9130   32.6920   36.4860 C   0  0  0  0  0  0  0  0  0  0  0  0
   33.4270   33.4860   37.0060 H   0  0  0  0  0  0  0  0  0  0  0  0
   35.2960   32.6470   36.3790 C   0  0  0  0  0  0  0  0  0  0  0  0
   35.8260   33.4790   36.8640 H   0  0  0  0  0  0  0  0  0  0  0  0
   35.9590   31.6180   35.7030 C   0  0  0  0  0  3  0  0  0  0  0  0
   40.0670   24.1640   34.5470 F   0  0  0  0  0  0  0  0  0  0  0  0
   39.6140   23.8830   35.7950 C   0  0  0  0  0  0  0  0  0  0  0  0
   40.3850   23.1370   36.6410 C   0  0  0  0  0  0  0  0  0  0  0  0
   39.8600   22.8940   37.8910 C   0  0  0  0  0  0  0  0  0  0  0  0
   38.6340   23.3590   38.3010 C   0  0  0  0  0  0  0  0  0  0  0  0
   37.8800   24.1110   37.4160 C   0  0  0  0  0  0  0  0  0  0  0  0
   38.3760   24.3720   36.1610 C   0  0  0  0  0  0  0  0  0  0  0  0
   40.4580   22.3030   38.5770 H   0  0  0  0  0  0  0  0  0  0  0  0
   38.2970   23.1200   39.3010 H   0  0  0  0  0  0  0  0  0  0  0  0
   36.9180   24.4680   37.7550 H   0  0  0  0  0  0  0  0  0  0  0  0
   44.0950   22.8200   36.0020 C   0  0  0  0  0  0  0  0  0  0  0  0
   42.8630   23.3000   36.4710 C   0  0  0  0  0  0  0  0  0  0  0  0
   41.6830   22.6630   36.1680 C   0  0  0  0  0  0  0  0  0  0  0  0
   41.7740   21.5490   35.3910 N   0  0  0  0  0  0  0  0  0  0  0  0
   42.9470   21.0810   34.9360 C   0  0  0  0  0  0  0  0  0  0  0  0
   44.0850   21.7140   35.2420 N   0  0  0  0  0  0  0  0  0  0  0  0
   44.9570   23.4010   36.3040 H   0  0  0  0  0  0  0  0  0  0  0  0
   42.8130   24.1820   37.0830 H   0  0  0  0  0  0  0  0  0  0  0  0
   43.0310   20.1930   34.3170 H   0  0  0  0  0  0  0  0  0  0  0  0
  1  2  2  0  0  0  0
  3  1  1  0  0  0  0
  3 33  1  0  0  0  0
  4  3  1  0  0  0  0
  5 14  1  0  0  0  0
  6  5  1  0  0  0  0
  6  1  1  0  0  0  0
  7  6  2  0  0  0  0
  8 12  2  0  0  0  0
  8  7  1  0  0  0  0
  9  8  1  0  0  0  0
 10  9  1  0  0  0  0
 10 11  2  0  0  0  0
 11 12  1  0  0  0  0
 12 13  1  0  0  0  0
 13 18  1  0  0  0  0
 13  5  2  0  0  0  0
 15  7  1  0  0  0  0
 16  9  1  0  0  0  0
 17 10  1  0  0  0  0
 18 19  2  0  0  0  0
 18 26  1  0  0  0  0
 19 21  1  0  0  0  0
 20 19  1  0  0  0  0
 21 22  2  0  0  0  0
 22 23  1  0  0  0  0
 24 22  1  0  0  0  0
 24 25  1  0  0  0  0
 26 24  2  0  0  0  0
 27 28  1  0  0  0  0
 28 33  2  0  0  0  0
 28 29  1  0  0  0  0
 29 30  2  0  0  0  0
 30 31  1  0  0  0  0
 30 34  1  0  0  0  0
 31 35  1  0  0  0  0
 32 36  1  0  0  0  0
 32 31  2  0  0  0  0
 33 32  1  0  0  0  0
 37 43  1  0  0  0  0
 37 38  1  0  0  0  0
 38 44  1  0  0  0  0
 39 38  2  0  0  0  0
 39 29  1  0  0  0  0
 40 39  1  0  0  0  0
 41 42  1  0  0  0  0
 41 40  2  0  0  0  0
 42 37  2  0  0  0  0
 45 41  1  0  0  0  0
M  END
>  <minimizedAffinity>
-7.40160704

$$$$

 OpenBabel03272503113D

 45 49  0  0  0  0  0  0  0  0999 V2000
   37.8460   26.4670   35.0960 C   0  0  0  0  0  0  0  0  0  0  0  0
   38.4870   26.8940   36.1070 O   0  0  0  0  0  0  0  0  0  0  0  0
   37.7540   25.0440   35.0030 N   0  0  0  0  0  0  0  0  0  0  0  0
   37.2530   24.6410   34.1990 H   0  0  0  0  0  0  0  0  0  0  0  0
   37.8260   27.3760   32.8880 C   0  0  0  0  0  0  0  0  0  0  0  0
   37.2830   27.3960   34.1620 C   0  0  0  0  0  0  0  0  0  0  0  0
   36.2670   28.2500   34.5170 C   0  0  0  0  0  0  0  0  0  0  0  0
   35.7580   29.1270   33.5800 C   0  0  0  0  0  0  0  0  0  0  0  0
   34.7840   30.0610   33.6350 N   0  0  0  0  0  0  0  0  0  0  0  0
   34.7080   30.6220   32.4290 C   0  0  0  0  0  0  0  0  0  0  0  0
   35.6120   30.0630   31.6130 N   0  0  0  0  0  0  0  0  0  0  0  0
   36.2970   29.1110   32.3080 C   0  0  0  0  0  0  0  0  0  0  0  0
   37.3120   28.2650   31.9350 C   0  0  0  0  0  0  0  0  0  0  0  0
   38.6240   26.7130   32.5910 H   0  0  0  0  0  0  0  0  0  0  0  0
   35.8560   28.2480   35.5210 H   0  0  0  0  0  0  0  0  0  0  0  0
   34.2050   30.2980   34.4590 H   0  0  0  0  0  0  0  0  0  0  0  0
   34.0470   31.4120   32.0770 H   0  0  0  0  0  0  0  0  0  0  0  0
   37.8740   28.2610   30.5790 C   0  0  0  0  0  0  0  0  0  0  0  0
   37.4030   29.1320   29.5930 C   0  0  0  0  0  0  0  0  0  0  0  0
   36.5990   29.8310   29.8390 H   0  0  0  0  0  0  0  0  0  0  0  0
   37.9780   29.0730   28.3390 C   0  0  0  0  0  3  0  0  0  0  0  0
   38.9920   28.1950   28.0190 C   0  0  0  0  0  0  0  0  0  0  0  0
   39.4220   28.1660   27.0440 H   0  0  0  0  0  0  0  0  0  0  0  0
   39.4340   27.3440   29.0230 C   0  0  0  0  0  0  0  0  0  0  0  0
   40.2430   26.6610   28.7280 H   0  0  0  0  0  0  0  0  0  0  0  0
   38.8890   27.3610   30.3100 C   0  0  0  0  0  3  0  0  0  0  0  0
   40.2650   24.0080   34.7000 F   0  0  0  0  0  0  0  0  0  0  0  0
   39.6610   23.8240   35.9010 C   0  0  0  0  0  0  0  0  0  0  0  0
   40.3160   23.1430   36.8880 C   0  0  0  0  0  0  0  0  0  0  0  0
   39.6400   22.9970   38.0800 C   0  0  0  0  0  0  0  0  0  0  0  0
   38.3780   23.4920   38.3010 C   0  0  0  0  0  0  0  0  0  0  0  0
   37.7440   24.1750   37.2770 C   0  0  0  0  0  0  0  0  0  0  0  0
   38.3920   24.3400   36.0760 C   0  0  0  0  0  0  0  0  0  0  0  0
   40.1450   22.4590   38.8760 H   0  0  0  0  0  0  0  0  0  0  0  0
   37.9200   23.3300   39.2680 H   0  0  0  0  0  0  0  0  0  0  0  0
   36.7520   24.5570   37.4680 H   0  0  0  0  0  0  0  0  0  0  0  0
   43.2280   20.8320   36.2170 C   0  0  0  0  0  0  0  0  0  0  0  0
   41.9290   21.2920   36.4810 C   0  0  0  0  0  0  0  0  0  0  0  0
   41.6570   22.6330   36.6140 C   0  0  0  0  0  0  0  0  0  0  0  0
   42.7090   23.4860   36.4770 N   0  0  0  0  0  0  0  0  0  0  0  0
   43.9560   23.0570   36.2240 C   0  0  0  0  0  0  0  0  0  0  0  0
   44.2010   21.7480   36.0990 N   0  0  0  0  0  0  0  0  0  0  0  0
   43.3240   19.7570   36.1320 H   0  0  0  0  0  0  0  0  0  0  0  0
   41.1120   20.6020   36.5860 H   0  0  0  0  0  0  0  0  0  0  0  0
   44.8020   23.7280   36.1120 H   0  0  0  0  0  0  0  0  0  0  0  0
  1  2  2  0  0  0  0
  3  1  1  0  0  0  0
  3 33  1  0  0  0  0
  4  3  1  0  0  0  0
  5  6  1  0  0  0  0
  6  7  2  0  0  0  0
  6  1  1  0  0  0  0
  7 15  1  0  0  0  0
  8  9  1  0  0  0  0
  8  7  1  0  0  0  0
  9 16  1  0  0  0  0
 10  9  1  0  0  0  0
 11 12  1  0  0  0  0
 11 10  2  0  0  0  0
 12  8  2  0  0  0  0
 13 12  1  0  0  0  0
 13  5  2  0  0  0  0
 14  5  1  0  0  0  0
 17 10  1  0  0  0  0
 18 13  1  0  0  0  0
 19 20  1  0  0  0  0
 19 18  2  0  0  0  0
 21 19  1  0  0  0  0
 22 21  2  0  0  0  0
 22 24  1  0  0  0  0
 23 22  1  0  0  0  0
 24 26  2  0  0  0  0
 25 24  1  0  0  0  0
 26 18  1  0  0  0  0
 27 28  1  0  0  0  0
 28 33  2  0  0  0  0
 28 29  1  0  0  0  0
 29 30  2  0  0  0  0
 30 31  1  0  0  0  0
 30 34  1  0  0  0  0
 31 35  1  0  0  0  0
 32 36  1  0  0  0  0
 32 31  2  0  0  0  0
 33 32  1  0  0  0  0
 37 38  1  0  0  0  0
 38 44  1  0  0  0  0
 38 39  2  0  0  0  0
 39 29  1  0  0  0  0
 40 39  1  0  0  0  0
 41 40  2  0  0  0  0
 42 37  2  0  0  0  0
 42 41  1  0  0  0  0
 43 37  1  0  0  0  0
 45 41  1  0  0  0  0
M  END
>  <minimizedAffinity>
-7.07946587

$$$$

 OpenBabel03272503113D

 45 49  0  0  0  0  0  0  0  0999 V2000
   37.0360   26.8990   33.0470 C   0  0  0  0  0  0  0  0  0  0  0  0
   36.9940   26.3530   34.1930 O   0  0  0  0  0  0  0  0  0  0  0  0
   37.6910   26.1270   32.0390 N   0  0  0  0  0  0  0  0  0  0  0  0
   37.7630   26.5250   31.0920 H   0  0  0  0  0  0  0  0  0  0  0  0
   35.9230   28.7950   33.9800 C   0  0  0  0  0  0  0  0  0  0  0  0
   36.4530   28.1930   32.8510 C   0  0  0  0  0  0  0  0  0  0  0  0
   36.4250   28.7920   31.6150 C   0  0  0  0  0  0  0  0  0  0  0  0
   35.8510   30.0410   31.4770 C   0  0  0  0  0  0  0  0  0  0  0  0
   35.6810   30.8560   30.4150 N   0  0  0  0  0  0  0  0  0  0  0  0
   35.0590   31.9500   30.8550 C   0  0  0  0  0  0  0  0  0  0  0  0
   34.8330   31.8420   32.1710 N   0  0  0  0  0  0  0  0  0  0  0  0
   35.3210   30.6440   32.6010 C   0  0  0  0  0  0  0  0  0  0  0  0
   35.3400   30.0620   33.8450 C   0  0  0  0  0  0  0  0  0  0  0  0
   35.9350   28.3410   34.9590 H   0  0  0  0  0  0  0  0  0  0  0  0
   36.8460   28.3020   30.7430 H   0  0  0  0  0  0  0  0  0  0  0  0
   35.9770   30.6700   29.4420 H   0  0  0  0  0  0  0  0  0  0  0  0
   34.7490   32.8350   30.3030 H   0  0  0  0  0  0  0  0  0  0  0  0
   34.7720   30.7170   35.0290 C   0  0  0  0  0  0  0  0  0  0  0  0
   35.5400   31.5670   35.8290 C   0  0  0  0  0  0  0  0  0  0  0  0
   36.5870   31.7460   35.5660 H   0  0  0  0  0  0  0  0  0  0  0  0
   34.9400   32.1500   36.9270 C   0  0  0  0  0  3  0  0  0  0  0  0
   33.6220   31.9310   37.2670 C   0  0  0  0  0  0  0  0  0  0  0  0
   33.1780   32.3910   38.1200 H   0  0  0  0  0  0  0  0  0  0  0  0
   32.8890   31.0810   36.4500 C   0  0  0  0  0  0  0  0  0  0  0  0
   31.8440   30.9330   36.7540 H   0  0  0  0  0  0  0  0  0  0  0  0
   33.4450   30.4640   35.3250 C   0  0  0  0  0  3  0  0  0  0  0  0
   36.2050   23.8580   31.7050 F   0  0  0  0  0  0  0  0  0  0  0  0
   37.4100   23.7230   32.3130 C   0  0  0  0  0  0  0  0  0  0  0  0
   37.8240   22.4880   32.7250 C   0  0  0  0  0  0  0  0  0  0  0  0
   39.0590   22.4290   33.3330 C   0  0  0  0  0  0  0  0  0  0  0  0
   39.8570   23.5290   33.5330 C   0  0  0  0  0  0  0  0  0  0  0  0
   39.4050   24.7650   33.1030 C   0  0  0  0  0  0  0  0  0  0  0  0
   38.1770   24.8570   32.4920 C   0  0  0  0  0  0  0  0  0  0  0  0
   39.4040   21.4560   33.6660 H   0  0  0  0  0  0  0  0  0  0  0  0
   40.8140   23.3920   34.0200 H   0  0  0  0  0  0  0  0  0  0  0  0
   40.0460   25.6180   33.2690 H   0  0  0  0  0  0  0  0  0  0  0  0
   35.3290   19.6960   33.2300 C   0  0  0  0  0  0  0  0  0  0  0  0
   36.1640   20.7950   33.4830 C   0  0  0  0  0  0  0  0  0  0  0  0
   36.9450   21.3450   32.4930 C   0  0  0  0  0  0  0  0  0  0  0  0
   36.8660   20.7680   31.2630 N   0  0  0  0  0  0  0  0  0  0  0  0
   36.0710   19.7160   31.0100 C   0  0  0  0  0  0  0  0  0  0  0  0
   35.3190   19.1950   31.9860 N   0  0  0  0  0  0  0  0  0  0  0  0
   34.7600   19.3480   34.0830 H   0  0  0  0  0  0  0  0  0  0  0  0
   36.2130   21.2360   34.4620 H   0  0  0  0  0  0  0  0  0  0  0  0
   36.0000   19.2490   30.0320 H   0  0  0  0  0  0  0  0  0  0  0  0
  1  2  2  0  0  0  0
  3 33  1  0  0  0  0
  3  1  1  0  0  0  0
  4  3  1  0  0  0  0
  5 14  1  0  0  0  0
  6  1  1  0  0  0  0
  6  5  2  0  0  0  0
  7  6  1  0  0  0  0
  8  7  2  0  0  0  0
  8 12  1  0  0  0  0
  9 10  1  0  0  0  0
  9  8  1  0  0  0  0
 10 11  2  0  0  0  0
 11 12  1  0  0  0  0
 12 13  2  0  0  0  0
 13  5  1  0  0  0  0
 13 18  1  0  0  0  0
 15  7  1  0  0  0  0
 16  9  1  0  0  0  0
 17 10  1  0  0  0  0
 18 26  2  0  0  0  0
 18 19  1  0  0  0  0
 19 21  2  0  0  0  0
 20 19  1  0  0  0  0
 21 22  1  0  0  0  0
 22 23  1  0  0  0  0
 24 25  1  0  0  0  0
 24 22  2  0  0  0  0
 26 24  1  0  0  0  0
 27 28  1  0  0  0  0
 28 33  2  0  0  0  0
 28 29  1  0  0  0  0
 29 30  2  0  0  0  0
 30 31  1  0  0  0  0
 30 34  1  0  0  0  0
 31 35  1  0  0  0  0
 32 36  1  0  0  0  0
 32 31  2  0  0  0  0
 33 32  1  0  0  0  0
 37 38  1  0  0  0  0
 37 43  1  0  0  0  0
 38 44  1  0  0  0  0
 39 29  1  0  0  0  0
 39 38  2  0  0  0  0
 40 39  1  0  0  0  0
 41 40  2  0  0  0  0
 41 42  1  0  0  0  0
 42 37  2  0  0  0  0
 45 41  1  0  0  0  0
M  END
>  <minimizedAffinity>
-6.9867363

$$$$

 OpenBabel03272503113D

 45 49  0  0  0  0  0  0  0  0999 V2000
   36.8550   27.4970   31.7900 C   0  0  0  0  0  0  0  0  0  0  0  0
   37.5770   27.0640   32.7420 O   0  0  0  0  0  0  0  0  0  0  0  0
   36.7030   26.5920   30.6950 N   0  0  0  0  0  0  0  0  0  0  0  0
   36.1350   26.8930   29.8910 H   0  0  0  0  0  0  0  0  0  0  0  0
   35.8520   29.1970   33.1340 C   0  0  0  0  0  0  0  0  0  0  0  0
   36.2690   28.8010   31.8740 C   0  0  0  0  0  0  0  0  0  0  0  0
   36.1330   29.6040   30.7670 C   0  0  0  0  0  0  0  0  0  0  0  0
   35.5620   30.8540   30.9000 C   0  0  0  0  0  0  0  0  0  0  0  0
   35.3030   31.8400   30.0150 N   0  0  0  0  0  0  0  0  0  0  0  0
   34.7360   32.8380   30.6920 C   0  0  0  0  0  0  0  0  0  0  0  0
   34.6310   32.5030   31.9860 N   0  0  0  0  0  0  0  0  0  0  0  0
   35.1440   31.2520   32.1560 C   0  0  0  0  0  0  0  0  0  0  0  0
   35.2710   30.4640   33.2730 C   0  0  0  0  0  0  0  0  0  0  0  0
   35.9500   28.5810   34.0150 H   0  0  0  0  0  0  0  0  0  0  0  0
   36.4680   29.2740   29.7890 H   0  0  0  0  0  0  0  0  0  0  0  0
   35.5060   31.8260   29.0010 H   0  0  0  0  0  0  0  0  0  0  0  0
   34.3850   33.8030   30.3320 H   0  0  0  0  0  0  0  0  0  0  0  0
   34.8220   30.9030   34.6000 C   0  0  0  0  0  0  0  0  0  0  0  0
   35.6730   31.5980   35.4640 C   0  0  0  0  0  0  0  0  0  0  0  0
   36.6950   31.8180   35.1430 H   0  0  0  0  0  0  0  0  0  0  0  0
   35.1820   31.9790   36.6970 C   0  0  0  0  0  3  0  0  0  0  0  0
   33.8960   31.7060   37.1100 C   0  0  0  0  0  0  0  0  0  0  0  0
   33.5370   32.0110   38.0670 H   0  0  0  0  0  0  0  0  0  0  0  0
   33.0790   31.0140   36.2260 C   0  0  0  0  0  0  0  0  0  0  0  0
   32.0620   30.8170   36.5930 H   0  0  0  0  0  0  0  0  0  0  0  0
   33.5230   30.6030   34.9660 C   0  0  0  0  0  3  0  0  0  0  0  0
   35.3950   24.4120   31.6970 F   0  0  0  0  0  0  0  0  0  0  0  0
   36.7030   24.2530   31.3720 C   0  0  0  0  0  0  0  0  0  0  0  0
   37.3000   23.0370   31.5540 C   0  0  0  0  0  0  0  0  0  0  0  0
   38.6290   22.9510   31.2010 C   0  0  0  0  0  0  0  0  0  0  0  0
   39.3470   24.0060   30.6920 C   0  0  0  0  0  0  0  0  0  0  0  0
   38.7090   25.2230   30.5220 C   0  0  0  0  0  0  0  0  0  0  0  0
   37.3820   25.3410   30.8640 C   0  0  0  0  0  0  0  0  0  0  0  0
   39.1200   21.9940   31.3390 H   0  0  0  0  0  0  0  0  0  0  0  0
   40.3880   23.8510   30.4420 H   0  0  0  0  0  0  0  0  0  0  0  0
   39.2890   26.0410   30.1210 H   0  0  0  0  0  0  0  0  0  0  0  0
   34.9300   20.1110   31.8670 C   0  0  0  0  0  0  0  0  0  0  0  0
   35.6850   21.1580   31.3160 C   0  0  0  0  0  0  0  0  0  0  0  0
   36.5010   21.9420   32.0980 C   0  0  0  0  0  0  0  0  0  0  0  0
   36.5360   21.6500   33.4270 N   0  0  0  0  0  0  0  0  0  0  0  0
   35.8170   20.6520   33.9640 C   0  0  0  0  0  0  0  0  0  0  0  0
   35.0290   19.9000   33.1880 N   0  0  0  0  0  0  0  0  0  0  0  0
   34.3250   19.5610   31.1570 H   0  0  0  0  0  0  0  0  0  0  0  0
   35.6440   21.3720   30.2630 H   0  0  0  0  0  0  0  0  0  0  0  0
   35.8370   20.4110   35.0230 H   0  0  0  0  0  0  0  0  0  0  0  0
  1  6  1  0  0  0  0
  1  2  2  0  0  0  0
  3 33  1  0  0  0  0
  3  1  1  0  0  0  0
  4  3  1  0  0  0  0
  5 13  1  0  0  0  0
  5 14  1  0  0  0  0
  6  5  2  0  0  0  0
  7  8  2  0  0  0  0
  7  6  1  0  0  0  0
  8 12  1  0  0  0  0
  9 10  1  0  0  0  0
  9  8  1  0  0  0  0
 10 11  2  0  0  0  0
 11 12  1  0  0  0  0
 12 13  2  0  0  0  0
 13 18  1  0  0  0  0
 15  7  1  0  0  0  0
 16  9  1  0  0  0  0
 17 10  1  0  0  0  0
 18 26  2  0  0  0  0
 18 19  1  0  0  0  0
 19 21  2  0  0  0  0
 20 19  1  0  0  0  0
 21 22  1  0  0  0  0
 22 23  1  0  0  0  0
 24 25  1  0  0  0  0
 24 22  2  0  0  0  0
 26 24  1  0  0  0  0
 28 29  1  0  0  0  0
 28 27  1  0  0  0  0
 29 39  1  0  0  0  0
 30 34  1  0  0  0  0
 30 29  2  0  0  0  0
 31 30  1  0  0  0  0
 32 31  2  0  0  0  0
 32 33  1  0  0  0  0
 33 28  2  0  0  0  0
 35 31  1  0  0  0  0
 36 32  1  0  0  0  0
 37 42  1  0  0  0  0
 38 37  2  0  0  0  0
 38 39  1  0  0  0  0
 39 40  2  0  0  0  0
 40 41  1  0  0  0  0
 41 45  1  0  0  0  0
 42 41  2  0  0  0  0
 43 37  1  0  0  0  0
 44 38  1  0  0  0  0
M  END
>  <minimizedAffinity>
-6.97662592

$$$$

 OpenBabel03272503113D

 45 49  0  0  0  0  0  0  0  0999 V2000
   37.1880   27.3940   34.0270 C   0  0  0  0  0  0  0  0  0  0  0  0
   37.3410   26.4240   33.2210 O   0  0  0  0  0  0  0  0  0  0  0  0
   37.8540   27.2420   35.2810 N   0  0  0  0  0  0  0  0  0  0  0  0
   37.7580   27.9940   35.9780 H   0  0  0  0  0  0  0  0  0  0  0  0
   35.8740   29.2780   34.6810 C   0  0  0  0  0  0  0  0  0  0  0  0
   36.3950   28.5240   33.6420 C   0  0  0  0  0  0  0  0  0  0  0  0
   36.1710   28.8330   32.3230 C   0  0  0  0  0  0  0  0  0  0  0  0
   35.4000   29.9330   32.0030 C   0  0  0  0  0  0  0  0  0  0  0  0
   35.0160   30.4700   30.8260 N   0  0  0  0  0  0  0  0  0  0  0  0
   34.2700   31.5390   31.1060 C   0  0  0  0  0  0  0  0  0  0  0  0
   34.1740   31.6880   32.4340 N   0  0  0  0  0  0  0  0  0  0  0  0
   34.8780   30.6880   33.0370 C   0  0  0  0  0  0  0  0  0  0  0  0
   35.0910   30.3950   34.3610 C   0  0  0  0  0  0  0  0  0  0  0  0
   36.0390   29.0510   35.7230 H   0  0  0  0  0  0  0  0  0  0  0  0
   36.5900   28.2280   31.5250 H   0  0  0  0  0  0  0  0  0  0  0  0
   35.2560   30.1200   29.8830 H   0  0  0  0  0  0  0  0  0  0  0  0
   33.7810   32.2340   30.4260 H   0  0  0  0  0  0  0  0  0  0  0  0
   34.5280   31.2070   35.4460 C   0  0  0  0  0  0  0  0  0  0  0  0
   35.2790   32.2050   36.0730 C   0  0  0  0  0  0  0  0  0  0  0  0
   36.3070   32.3830   35.7460 H   0  0  0  0  0  0  0  0  0  0  0  0
   34.6850   32.9310   37.0860 C   0  0  0  0  0  3  0  0  0  0  0  0
   33.3900   32.7140   37.5050 C   0  0  0  0  0  0  0  0  0  0  0  0
   32.9500   33.2860   38.2900 H   0  0  0  0  0  0  0  0  0  0  0  0
   32.6740   31.7140   36.8610 C   0  0  0  0  0  0  0  0  0  0  0  0
   31.6460   31.5730   37.2230 H   0  0  0  0  0  0  0  0  0  0  0  0
   33.2240   30.9490   35.8280 C   0  0  0  0  0  3  0  0  0  0  0  0
   40.4660   27.0980   34.4890 F   0  0  0  0  0  0  0  0  0  0  0  0
   39.9140   25.9710   35.0040 C   0  0  0  0  0  0  0  0  0  0  0  0
   40.6670   24.8350   35.1050 C   0  0  0  0  0  0  0  0  0  0  0  0
   40.0380   23.7310   35.6390 C   0  0  0  0  0  0  0  0  0  0  0  0
   38.7300   23.7330   36.0570 C   0  0  0  0  0  0  0  0  0  0  0  0
   37.9970   24.9020   35.9390 C   0  0  0  0  0  0  0  0  0  0  0  0
   38.5960   26.0220   35.4110 C   0  0  0  0  0  0  0  0  0  0  0  0
   40.6210   22.8200   35.7270 H   0  0  0  0  0  0  0  0  0  0  0  0
   38.3150   22.8200   36.4640 H   0  0  0  0  0  0  0  0  0  0  0  0
   36.9700   24.8850   36.2720 H   0  0  0  0  0  0  0  0  0  0  0  0
   43.7630   24.6220   32.9500 C   0  0  0  0  0  0  0  0  0  0  0  0
   42.4220   24.5740   33.3590 C   0  0  0  0  0  0  0  0  0  0  0  0
   42.0540   24.8750   34.6490 C   0  0  0  0  0  0  0  0  0  0  0  0
   43.0560   25.2180   35.5040 N   0  0  0  0  0  0  0  0  0  0  0  0
   44.3430   25.2660   35.1250 C   0  0  0  0  0  0  0  0  0  0  0  0
   44.6810   24.9700   33.8650 N   0  0  0  0  0  0  0  0  0  0  0  0
   43.9340   24.3660   31.9120 H   0  0  0  0  0  0  0  0  0  0  0  0
   41.6450   24.3010   32.6680 H   0  0  0  0  0  0  0  0  0  0  0  0
   45.1500   25.5390   35.7990 H   0  0  0  0  0  0  0  0  0  0  0  0
  1  3  1  0  0  0  0
  2  1  2  0  0  0  0
  3 33  1  0  0  0  0
  3  4  1  0  0  0  0
  5 14  1  0  0  0  0
  6  1  1  0  0  0  0
  6  5  2  0  0  0  0
  7  6  1  0  0  0  0
  8  7  2  0  0  0  0
  8 12  1  0  0  0  0
  9 10  1  0  0  0  0
  9  8  1  0  0  0  0
 10 11  2  0  0  0  0
 11 12  1  0  0  0  0
 12 13  2  0  0  0  0
 13  5  1  0  0  0  0
 13 18  1  0  0  0  0
 15  7  1  0  0  0  0
 16  9  1  0  0  0  0
 17 10  1  0  0  0  0
 18 26  2  0  0  0  0
 18 19  1  0  0  0  0
 19 21  2  0  0  0  0
 20 19  1  0  0  0  0
 21 22  1  0  0  0  0
 22 23  1  0  0  0  0
 24 25  1  0  0  0  0
 24 22  2  0  0  0  0
 26 24  1  0  0  0  0
 27 28  1  0  0  0  0
 28 29  2  0  0  0  0
 28 33  1  0  0  0  0
 29 30  1  0  0  0  0
 30 34  1  0  0  0  0
 30 31  2  0  0  0  0
 31 35  1  0  0  0  0
 32 31  1  0  0  0  0
 32 36  1  0  0  0  0
 33 32  2  0  0  0  0
 37 38  2  0  0  0  0
 37 42  1  0  0  0  0
 38 39  1  0  0  0  0
 39 29  1  0  0  0  0
 39 40  2  0  0  0  0
 41 40  1  0  0  0  0
 41 45  1  0  0  0  0
 42 41  2  0  0  0  0
 43 37  1  0  0  0  0
 44 38  1  0  0  0  0
M  END
>  <minimizedAffinity>
-6.78384733

$$$$

 OpenBabel03272503113D

 45 49  0  0  0  0  0  0  0  0999 V2000
   37.1480   27.3650   32.5310 C   0  0  0  0  0  0  0  0  0  0  0  0
   36.5160   26.2750   32.6920 O   0  0  0  0  0  0  0  0  0  0  0  0
   38.5660   27.2260   32.4360 N   0  0  0  0  0  0  0  0  0  0  0  0
   39.1320   28.0780   32.3130 H   0  0  0  0  0  0  0  0  0  0  0  0
   35.8890   29.0590   33.6480 C   0  0  0  0  0  0  0  0  0  0  0  0
   36.4310   28.6030   32.4580 C   0  0  0  0  0  0  0  0  0  0  0  0
   36.2940   29.2890   31.2750 C   0  0  0  0  0  0  0  0  0  0  0  0
   35.5930   30.4790   31.2570 C   0  0  0  0  0  0  0  0  0  0  0  0
   35.3000   31.3520   30.2710 N   0  0  0  0  0  0  0  0  0  0  0  0
   34.5910   32.3390   30.8170 C   0  0  0  0  0  0  0  0  0  0  0  0
   34.4290   32.1080   32.1260 N   0  0  0  0  0  0  0  0  0  0  0  0
   35.0510   30.9370   32.4430 C   0  0  0  0  0  0  0  0  0  0  0  0
   35.1770   30.2650   33.6340 C   0  0  0  0  0  0  0  0  0  0  0  0
   35.9860   28.5340   34.5860 H   0  0  0  0  0  0  0  0  0  0  0  0
   36.7270   28.9130   30.3540 H   0  0  0  0  0  0  0  0  0  0  0  0
   35.5740   31.2730   29.2760 H   0  0  0  0  0  0  0  0  0  0  0  0
   34.1720   33.2280   30.3480 H   0  0  0  0  0  0  0  0  0  0  0  0
   34.5950   30.7660   34.8840 C   0  0  0  0  0  0  0  0  0  0  0  0
   33.2770   30.4700   35.2440 C   0  0  0  0  0  0  0  0  0  0  0  0
   32.6690   29.8510   34.5790 H   0  0  0  0  0  0  0  0  0  0  0  0
   32.7960   30.9750   36.4350 C   0  0  0  0  0  3  0  0  0  0  0  0
   33.5540   31.7560   37.2810 C   0  0  0  0  0  0  0  0  0  0  0  0
   33.1630   32.1360   38.1970 H   0  0  0  0  0  0  0  0  0  0  0  0
   34.8580   32.0310   36.8910 C   0  0  0  0  0  0  0  0  0  0  0  0
   35.4300   32.6550   37.5920 H   0  0  0  0  0  0  0  0  0  0  0  0
   35.3980   31.5450   35.6960 C   0  0  0  0  0  3  0  0  0  0  0  0
   39.1440   26.1010   34.8580 F   0  0  0  0  0  0  0  0  0  0  0  0
   39.3210   25.3260   33.7600 C   0  0  0  0  0  0  0  0  0  0  0  0
   39.7700   24.0440   33.9040 C   0  0  0  0  0  0  0  0  0  0  0  0
   39.9250   23.3170   32.7440 C   0  0  0  0  0  0  0  0  0  0  0  0
   39.6540   23.8180   31.4940 C   0  0  0  0  0  0  0  0  0  0  0  0
   39.2010   25.1220   31.3860 C   0  0  0  0  0  0  0  0  0  0  0  0
   39.0350   25.8740   32.5260 C   0  0  0  0  0  0  0  0  0  0  0  0
   40.2810   22.2960   32.8390 H   0  0  0  0  0  0  0  0  0  0  0  0
   39.8040   23.1780   30.6350 H   0  0  0  0  0  0  0  0  0  0  0  0
   38.9920   25.5000   30.3960 H   0  0  0  0  0  0  0  0  0  0  0  0
   41.5420   22.7100   36.9630 C   0  0  0  0  0  0  0  0  0  0  0  0
   41.3060   23.1820   35.6630 C   0  0  0  0  0  0  0  0  0  0  0  0
   40.0470   23.5480   35.2500 C   0  0  0  0  0  0  0  0  0  0  0  0
   39.0460   23.4260   36.1640 N   0  0  0  0  0  0  0  0  0  0  0  0
   39.2590   22.9750   37.4100 C   0  0  0  0  0  0  0  0  0  0  0  0
   40.4920   22.6240   37.7940 N   0  0  0  0  0  0  0  0  0  0  0  0
   42.5710   22.4530   37.1770 H   0  0  0  0  0  0  0  0  0  0  0  0
   42.1110   23.2710   34.9560 H   0  0  0  0  0  0  0  0  0  0  0  0
   38.4680   22.8740   38.1480 H   0  0  0  0  0  0  0  0  0  0  0  0
  1  2  2  0  0  0  0
  3 33  1  0  0  0  0
  3  1  1  0  0  0  0
  4  3  1  0  0  0  0
  5 14  1  0  0  0  0
  6  1  1  0  0  0  0
  6  5  2  0  0  0  0
  7  6  1  0  0  0  0
  8  7  2  0  0  0  0
  8 12  1  0  0  0  0
  9 10  1  0  0  0  0
  9  8  1  0  0  0  0
 10 11  2  0  0  0  0
 11 12  1  0  0  0  0
 12 13  2  0  0  0  0
 13  5  1  0  0  0  0
 13 18  1  0  0  0  0
 15  7  1  0  0  0  0
 16  9  1  0  0  0  0
 17 10  1  0  0  0  0
 18 19  2  0  0  0  0
 18 26  1  0  0  0  0
 19 21  1  0  0  0  0
 20 19  1  0  0  0  0
 21 22  2  0  0  0  0
 22 23  1  0  0  0  0
 24 22  1  0  0  0  0
 24 25  1  0  0  0  0
 26 24  2  0  0  0  0
 28 29  1  0  0  0  0
 28 27  1  0  0  0  0
 29 39  1  0  0  0  0
 30 34  1  0  0  0  0
 30 29  2  0  0  0  0
 31 30  1  0  0  0  0
 32 31  2  0  0  0  0
 32 33  1  0  0  0  0
 33 28  2  0  0  0  0
 35 31  1  0  0  0  0
 36 32  1  0  0  0  0
 37 43  1  0  0  0  0
 37 42  1  0  0  0  0
 38 37  2  0  0  0  0
 39 38  1  0  0  0  0
 39 40  2  0  0  0  0
 40 41  1  0  0  0  0
 41 42  2  0  0  0  0
 41 45  1  0  0  0  0
 44 38  1  0  0  0  0
M  END
>  <minimizedAffinity>
-6.78247452

$$$$

 OpenBabel03272503113D

 45 49  0  0  0  0  0  0  0  0999 V2000
   37.0800   26.7100   32.7010 C   0  0  0  0  0  0  0  0  0  0  0  0
   37.9630   27.5280   33.1070 O   0  0  0  0  0  0  0  0  0  0  0  0
   35.9440   27.3160   32.0810 N   0  0  0  0  0  0  0  0  0  0  0  0
   35.1910   26.7020   31.7400 H   0  0  0  0  0  0  0  0  0  0  0  0
   38.0420   24.9320   33.9720 C   0  0  0  0  0  0  0  0  0  0  0  0
   37.2710   25.3020   32.8820 C   0  0  0  0  0  0  0  0  0  0  0  0
   36.7200   24.3820   32.0230 C   0  0  0  0  0  0  0  0  0  0  0  0
   36.9340   23.0350   32.2410 C   0  0  0  0  0  0  0  0  0  0  0  0
   36.5310   21.9280   31.5830 N   0  0  0  0  0  0  0  0  0  0  0  0
   37.0310   20.8790   32.2350 C   0  0  0  0  0  0  0  0  0  0  0  0
   37.7410   21.3000   33.2900 N   0  0  0  0  0  0  0  0  0  0  0  0
   37.7030   22.6620   33.3270 C   0  0  0  0  0  0  0  0  0  0  0  0
   38.2610   23.5670   34.1960 C   0  0  0  0  0  0  0  0  0  0  0  0
   38.4830   25.6390   34.6570 H   0  0  0  0  0  0  0  0  0  0  0  0
   36.1190   24.6950   31.1750 H   0  0  0  0  0  0  0  0  0  0  0  0
   35.9440   21.8960   30.7320 H   0  0  0  0  0  0  0  0  0  0  0  0
   36.9280   19.8180   32.0150 H   0  0  0  0  0  0  0  0  0  0  0  0
   39.0750   23.1530   35.3450 C   0  0  0  0  0  0  0  0  0  0  0  0
   40.3270   22.5570   35.1730 C   0  0  0  0  0  0  0  0  0  0  0  0
   40.7070   22.3960   34.1600 H   0  0  0  0  0  0  0  0  0  0  0  0
   41.0380   22.1930   36.3000 C   0  0  0  0  0  3  0  0  0  0  0  0
   40.5680   22.3910   37.5800 C   0  0  0  0  0  0  0  0  0  0  0  0
   41.1340   22.1030   38.4370 H   0  0  0  0  0  0  0  0  0  0  0  0
   39.3200   22.9860   37.7130 C   0  0  0  0  0  0  0  0  0  0  0  0
   38.9820   23.1260   38.7490 H   0  0  0  0  0  0  0  0  0  0  0  0
   38.5570   23.3740   36.6080 C   0  0  0  0  0  3  0  0  0  0  0  0
   35.0740   28.8560   34.1640 F   0  0  0  0  0  0  0  0  0  0  0  0
   35.5570   29.5060   33.0750 C   0  0  0  0  0  0  0  0  0  0  0  0
   35.5890   30.8720   33.0620 C   0  0  0  0  0  0  0  0  0  0  0  0
   36.0930   31.4600   31.9230 C   0  0  0  0  0  0  0  0  0  0  0  0
   36.5470   30.7470   30.8400 C   0  0  0  0  0  0  0  0  0  0  0  0
   36.4990   29.3640   30.8880 C   0  0  0  0  0  0  0  0  0  0  0  0
   36.0020   28.7460   32.0110 C   0  0  0  0  0  0  0  0  0  0  0  0
   36.1260   32.5440   31.8950 H   0  0  0  0  0  0  0  0  0  0  0  0
   36.9270   31.2910   29.9850 H   0  0  0  0  0  0  0  0  0  0  0  0
   36.8600   28.8200   30.0280 H   0  0  0  0  0  0  0  0  0  0  0  0
   35.3520   32.4630   36.4800 C   0  0  0  0  0  0  0  0  0  0  0  0
   35.8510   31.7650   35.3710 C   0  0  0  0  0  0  0  0  0  0  0  0
   35.0970   31.5920   34.2340 C   0  0  0  0  0  0  0  0  0  0  0  0
   33.8460   32.1290   34.2440 N   0  0  0  0  0  0  0  0  0  0  0  0
   33.3580   32.7980   35.3010 C   0  0  0  0  0  0  0  0  0  0  0  0
   34.1070   32.9560   36.3980 N   0  0  0  0  0  0  0  0  0  0  0  0
   36.0330   32.5380   37.3180 H   0  0  0  0  0  0  0  0  0  0  0  0
   36.8420   31.3490   35.3820 H   0  0  0  0  0  0  0  0  0  0  0  0
   32.3620   33.2310   35.3190 H   0  0  0  0  0  0  0  0  0  0  0  0
  1  6  1  0  0  0  0
  1  2  2  0  0  0  0
  3  1  1  0  0  0  0
  4  3  1  0  0  0  0
  5 13  1  0  0  0  0
  5 14  1  0  0  0  0
  6  5  2  0  0  0  0
  7  8  2  0  0  0  0
  7  6  1  0  0  0  0
  8 12  1  0  0  0  0
  9 10  1  0  0  0  0
  9  8  1  0  0  0  0
 10 11  2  0  0  0  0
 11 12  1  0  0  0  0
 12 13  2  0  0  0  0
 13 18  1  0  0  0  0
 15  7  1  0  0  0  0
 16  9  1  0  0  0  0
 17 10  1  0  0  0  0
 18 26  1  0  0  0  0
 19 18  2  0  0  0  0
 19 21  1  0  0  0  0
 20 19  1  0  0  0  0
 21 22  2  0  0  0  0
 22 24  1  0  0  0  0
 22 23  1  0  0  0  0
 24 25  1  0  0  0  0
 26 24  2  0  0  0  0
 28 27  1  0  0  0  0
 29 28  1  0  0  0  0
 29 39  1  0  0  0  0
 30 29  2  0  0  0  0
 31 32  2  0  0  0  0
 31 30  1  0  0  0  0
 32 33  1  0  0  0  0
 33  3  1  0  0  0  0
 33 28  2  0  0  0  0
 34 30  1  0  0  0  0
 35 31  1  0  0  0  0
 36 32  1  0  0  0  0
 37 43  1  0  0  0  0
 38 44  1  0  0  0  0
 38 37  2  0  0  0  0
 39 40  2  0  0  0  0
 39 38  1  0  0  0  0
 40 41  1  0  0  0  0
 41 45  1  0  0  0  0
 41 42  2  0  0  0  0
 42 37  1  0  0  0  0
M  END
>  <minimizedAffinity>
-6.78098822

$$$$

 OpenBabel03272503113D

 45 49  0  0  0  0  0  0  0  0999 V2000
   36.6590   27.4520   31.8730 C   0  0  0  0  0  0  0  0  0  0  0  0
   37.4370   27.0490   32.7920 O   0  0  0  0  0  0  0  0  0  0  0  0
   36.4880   26.5370   30.7890 N   0  0  0  0  0  0  0  0  0  0  0  0
   35.8750   26.8150   30.0100 H   0  0  0  0  0  0  0  0  0  0  0  0
   35.4800   29.0420   33.2100 C   0  0  0  0  0  0  0  0  0  0  0  0
   36.0340   28.7370   31.9770 C   0  0  0  0  0  0  0  0  0  0  0  0
   35.9910   29.6080   30.9150 C   0  0  0  0  0  0  0  0  0  0  0  0
   35.3770   30.8360   31.0670 C   0  0  0  0  0  0  0  0  0  0  0  0
   35.1850   31.8720   30.2240 N   0  0  0  0  0  0  0  0  0  0  0  0
   34.5260   32.8120   30.9000 C   0  0  0  0  0  0  0  0  0  0  0  0
   34.2980   32.3920   32.1520 N   0  0  0  0  0  0  0  0  0  0  0  0
   34.8240   31.1430   32.2950 C   0  0  0  0  0  0  0  0  0  0  0  0
   34.8560   30.2860   33.3680 C   0  0  0  0  0  0  0  0  0  0  0  0
   35.5040   28.3710   34.0550 H   0  0  0  0  0  0  0  0  0  0  0  0
   36.4320   29.3490   29.9580 H   0  0  0  0  0  0  0  0  0  0  0  0
   35.4910   31.9280   29.2370 H   0  0  0  0  0  0  0  0  0  0  0  0
   34.1890   33.7920   30.5670 H   0  0  0  0  0  0  0  0  0  0  0  0
   34.2630   30.6280   34.6660 C   0  0  0  0  0  0  0  0  0  0  0  0
   33.0280   30.1080   35.0620 C   0  0  0  0  0  0  0  0  0  0  0  0
   32.4940   29.4310   34.3890 H   0  0  0  0  0  0  0  0  0  0  0  0
   32.5310   30.4730   36.2970 C   0  0  0  0  0  3  0  0  0  0  0  0
   33.1960   31.3260   37.1520 C   0  0  0  0  0  0  0  0  0  0  0  0
   32.7940   31.5950   38.1020 H   0  0  0  0  0  0  0  0  0  0  0  0
   34.4200   31.8240   36.7260 C   0  0  0  0  0  0  0  0  0  0  0  0
   34.9180   32.4990   37.4360 H   0  0  0  0  0  0  0  0  0  0  0  0
   34.9720   31.4870   35.4850 C   0  0  0  0  0  3  0  0  0  0  0  0
   35.2650   24.2860   31.7410 F   0  0  0  0  0  0  0  0  0  0  0  0
   36.5790   24.1850   31.4160 C   0  0  0  0  0  0  0  0  0  0  0  0
   37.2230   22.9910   31.5730 C   0  0  0  0  0  0  0  0  0  0  0  0
   38.5540   22.9640   31.2200 C   0  0  0  0  0  0  0  0  0  0  0  0
   39.2310   24.0570   30.7360 C   0  0  0  0  0  0  0  0  0  0  0  0
   38.5460   25.2510   30.5900 C   0  0  0  0  0  0  0  0  0  0  0  0
   37.2160   25.3100   30.9320 C   0  0  0  0  0  0  0  0  0  0  0  0
   39.0820   22.0240   31.3380 H   0  0  0  0  0  0  0  0  0  0  0  0
   40.2780   23.9480   30.4840 H   0  0  0  0  0  0  0  0  0  0  0  0
   39.0940   26.1000   30.2080 H   0  0  0  0  0  0  0  0  0  0  0  0
   35.6670   20.4530   33.9000 C   0  0  0  0  0  0  0  0  0  0  0  0
   36.4020   21.5520   33.4310 C   0  0  0  0  0  0  0  0  0  0  0  0
   36.4670   21.8530   32.0910 C   0  0  0  0  0  0  0  0  0  0  0  0
   35.7870   21.0300   31.2480 N   0  0  0  0  0  0  0  0  0  0  0  0
   35.0810   19.9740   31.6850 C   0  0  0  0  0  0  0  0  0  0  0  0
   35.0290   19.6980   32.9920 N   0  0  0  0  0  0  0  0  0  0  0  0
   35.6860   20.3140   34.9730 H   0  0  0  0  0  0  0  0  0  0  0  0
   36.9330   22.1910   34.1140 H   0  0  0  0  0  0  0  0  0  0  0  0
   34.5340   19.3120   31.0210 H   0  0  0  0  0  0  0  0  0  0  0  0
  1  6  1  0  0  0  0
  1  2  2  0  0  0  0
  3 33  1  0  0  0  0
  3  1  1  0  0  0  0
  4  3  1  0  0  0  0
  5 13  1  0  0  0  0
  5 14  1  0  0  0  0
  6  5  2  0  0  0  0
  7  8  2  0  0  0  0
  7  6  1  0  0  0  0
  8 12  1  0  0  0  0
  9 10  1  0  0  0  0
  9  8  1  0  0  0  0
 10 11  2  0  0  0  0
 11 12  1  0  0  0  0
 12 13  2  0  0  0  0
 13 18  1  0  0  0  0
 15  7  1  0  0  0  0
 16  9  1  0  0  0  0
 17 10  1  0  0  0  0
 18 19  2  0  0  0  0
 18 26  1  0  0  0  0
 19 21  1  0  0  0  0
 20 19  1  0  0  0  0
 21 22  2  0  0  0  0
 22 23  1  0  0  0  0
 24 22  1  0  0  0  0
 24 25  1  0  0  0  0
 26 24  2  0  0  0  0
 28 29  1  0  0  0  0
 28 27  1  0  0  0  0
 29 39  1  0  0  0  0
 30 34  1  0  0  0  0
 30 29  2  0  0  0  0
 31 30  1  0  0  0  0
 32 31  2  0  0  0  0
 32 33  1  0  0  0  0
 33 28  2  0  0  0  0
 35 31  1  0  0  0  0
 36 32  1  0  0  0  0
 37 43  1  0  0  0  0
 38 37  1  0  0  0  0
 38 44  1  0  0  0  0
 39 38  2  0  0  0  0
 40 41  2  0  0  0  0
 40 39  1  0  0  0  0
 41 42  1  0  0  0  0
 42 37  2  0  0  0  0
 45 41  1  0  0  0  0
M  END
>  <minimizedAffinity>
-6.70414972

$$$$

 OpenBabel03272503113D

 45 49  0  0  0  0  0  0  0  0999 V2000
   36.3080   26.7390   31.8060 C   0  0  0  0  0  0  0  0  0  0  0  0
   36.8260   26.1600   32.8120 O   0  0  0  0  0  0  0  0  0  0  0  0
   35.9900   25.8730   30.7160 N   0  0  0  0  0  0  0  0  0  0  0  0
   35.5760   26.2890   29.8700 H   0  0  0  0  0  0  0  0  0  0  0  0
   35.6740   28.6800   33.0450 C   0  0  0  0  0  0  0  0  0  0  0  0
   36.0880   28.1540   31.8320 C   0  0  0  0  0  0  0  0  0  0  0  0
   36.2780   28.9350   30.7170 C   0  0  0  0  0  0  0  0  0  0  0  0
   36.0520   30.2950   30.7920 C   0  0  0  0  0  0  0  0  0  0  0  0
   36.1520   31.2900   29.8860 N   0  0  0  0  0  0  0  0  0  0  0  0
   35.8110   32.4200   30.5040 C   0  0  0  0  0  0  0  0  0  0  0  0
   35.4980   32.1610   31.7800 N   0  0  0  0  0  0  0  0  0  0  0  0
   35.6390   30.8230   32.0010 C   0  0  0  0  0  0  0  0  0  0  0  0
   35.4440   30.0590   33.1260 C   0  0  0  0  0  0  0  0  0  0  0  0
   35.5190   28.0840   33.9300 H   0  0  0  0  0  0  0  0  0  0  0  0
   36.6030   28.5010   29.7770 H   0  0  0  0  0  0  0  0  0  0  0  0
   36.4390   31.1950   28.8970 H   0  0  0  0  0  0  0  0  0  0  0  0
   35.7670   33.4340   30.1100 H   0  0  0  0  0  0  0  0  0  0  0  0
   35.0040   30.6370   34.4010 C   0  0  0  0  0  0  0  0  0  0  0  0
   35.8880   31.3400   35.2250 C   0  0  0  0  0  0  0  0  0  0  0  0
   36.9280   31.4600   34.9110 H   0  0  0  0  0  0  0  0  0  0  0  0
   35.4050   31.8560   36.4110 C   0  0  0  0  0  3  0  0  0  0  0  0
   34.0950   31.7090   36.8160 C   0  0  0  0  0  0  0  0  0  0  0  0
   33.7430   32.1160   37.7360 H   0  0  0  0  0  0  0  0  0  0  0  0
   33.2460   31.0050   35.9730 C   0  0  0  0  0  0  0  0  0  0  0  0
   32.2110   30.9110   36.3310 H   0  0  0  0  0  0  0  0  0  0  0  0
   33.6810   30.4610   34.7600 C   0  0  0  0  0  3  0  0  0  0  0  0
   38.4340   24.8510   30.0440 F   0  0  0  0  0  0  0  0  0  0  0  0
   37.5390   23.9970   30.6010 C   0  0  0  0  0  0  0  0  0  0  0  0
   37.8860   22.6910   30.7990 C   0  0  0  0  0  0  0  0  0  0  0  0
   36.9260   21.8840   31.3690 C   0  0  0  0  0  0  0  0  0  0  0  0
   35.6790   22.3310   31.7310 C   0  0  0  0  0  0  0  0  0  0  0  0
   35.3620   23.6610   31.5140 C   0  0  0  0  0  0  0  0  0  0  0  0
   36.2980   24.4930   30.9480 C   0  0  0  0  0  0  0  0  0  0  0  0
   37.1840   20.8430   31.5350 H   0  0  0  0  0  0  0  0  0  0  0  0
   34.9850   21.6280   32.1720 H   0  0  0  0  0  0  0  0  0  0  0  0
   34.3760   23.9950   31.8050 H   0  0  0  0  0  0  0  0  0  0  0  0
   40.7800   21.2770   28.8230 C   0  0  0  0  0  0  0  0  0  0  0  0
   39.4850   21.6850   29.1770 C   0  0  0  0  0  0  0  0  0  0  0  0
   39.2220   22.2550   30.4010 C   0  0  0  0  0  0  0  0  0  0  0  0
   40.2800   22.4000   31.2450 N   0  0  0  0  0  0  0  0  0  0  0  0
   41.5230   22.0130   30.9170 C   0  0  0  0  0  0  0  0  0  0  0  0
   41.7580   21.4600   29.7220 N   0  0  0  0  0  0  0  0  0  0  0  0
   40.8680   20.8430   27.8350 H   0  0  0  0  0  0  0  0  0  0  0  0
   38.6630   21.5620   28.4960 H   0  0  0  0  0  0  0  0  0  0  0  0
   42.3740   22.1240   31.5830 H   0  0  0  0  0  0  0  0  0  0  0  0
  1  6  1  0  0  0  0
  1  2  2  0  0  0  0
  3 33  1  0  0  0  0
  3  1  1  0  0  0  0
  4  3  1  0  0  0  0
  5 13  1  0  0  0  0
  5 14  1  0  0  0  0
  6  5  2  0  0  0  0
  7  8  2  0  0  0  0
  7  6  1  0  0  0  0
  8 12  1  0  0  0  0
  9 10  1  0  0  0  0
  9  8  1  0  0  0  0
 10 11  2  0  0  0  0
 11 12  1  0  0  0  0
 12 13  2  0  0  0  0
 13 18  1  0  0  0  0
 15  7  1  0  0  0  0
 16  9  1  0  0  0  0
 17 10  1  0  0  0  0
 18 26  2  0  0  0  0
 18 19  1  0  0  0  0
 19 21  2  0  0  0  0
 20 19  1  0  0  0  0
 21 22  1  0  0  0  0
 22 23  1  0  0  0  0
 24 25  1  0  0  0  0
 24 22  2  0  0  0  0
 26 24  1  0  0  0  0
 27 28  1  0  0  0  0
 28 29  2  0  0  0  0
 28 33  1  0  0  0  0
 29 30  1  0  0  0  0
 30 34  1  0  0  0  0
 30 31  2  0  0  0  0
 31 35  1  0  0  0  0
 32 31  1  0  0  0  0
 32 36  1  0  0  0  0
 33 32  2  0  0  0  0
 37 38  2  0  0  0  0
 37 42  1  0  0  0  0
 38 39  1  0  0  0  0
 39 29  1  0  0  0  0
 39 40  2  0  0  0  0
 41 40  1  0  0  0  0
 41 45  1  0  0  0  0
 42 41  2  0  0  0  0
 43 37  1  0  0  0  0
 44 38  1  0  0  0  0
M  END
>  <minimizedAffinity>
-6.59981155

$$$$
