
 OpenBabel03272503203D

 35 38  0  0  0  0  0  0  0  0999 V2000
   39.0360   32.4370   45.9380 C   0  0  0  0  0  0  0  0  0  0  0  0
   40.0460   33.1640   45.4620 C   0  0  0  0  0  0  0  0  0  0  0  0
   40.3620   33.1210   44.1590 C   0  0  0  0  0  0  0  0  0  0  0  0
   39.5930   32.2960   43.3590 C   0  0  0  0  0  0  0  0  0  0  0  0
   38.4020   31.5850   44.5490 S   0  0  0  0  0  0  0  0  0  0  0  0
   40.6160   33.8000   46.1630 H   0  0  0  0  0  0  0  0  0  0  0  0
   41.1480   33.6530   43.6390 H   0  0  0  0  0  0  0  0  0  0  0  0
   41.1750   29.8050   42.5820 Cl  0  0  0  0  0  0  0  0  0  0  0  0
   40.3030   30.8850   41.5220 C   0  0  0  0  0  0  0  0  0  0  0  0
   39.6150   31.9850   41.9470 C   0  0  0  0  0  0  0  0  0  0  0  0
   38.9230   32.8540   41.1650 C   0  0  0  0  0  0  0  0  0  0  0  0
   38.9030   32.6120   39.7840 C   0  0  0  0  0  0  0  0  0  0  0  0
   39.5760   31.5190   39.2900 C   0  0  0  0  0  0  0  0  0  0  0  0
   39.5690   31.1900   37.5710 Cl  0  0  0  0  0  0  0  0  0  0  0  0
   40.2720   30.6590   40.1450 C   0  0  0  0  0  0  0  0  0  0  0  0
   38.3840   33.7210   41.5250 H   0  0  0  0  0  0  0  0  0  0  0  0
   38.3680   33.2690   39.1120 H   0  0  0  0  0  0  0  0  0  0  0  0
   40.8030   29.7990   39.7610 H   0  0  0  0  0  0  0  0  0  0  0  0
   38.3850   32.9000   49.6240 C   0  0  0  0  0  0  0  0  0  0  0  0
   38.9680   33.0940   48.3560 C   0  0  0  0  0  0  0  0  0  0  0  0
   38.4990   32.3100   47.2960 C   0  0  0  0  0  0  0  0  0  0  0  0
   37.5160   31.4050   47.5100 N   0  0  0  0  0  0  0  0  0  0  0  0
   36.9880   31.2570   48.7510 C   0  0  0  0  0  0  0  0  0  0  0  0
   37.4150   31.9890   49.7810 N   0  0  0  0  0  0  0  0  0  0  0  0
   38.7860   33.5300   50.3990 H   0  0  0  0  0  0  0  0  0  0  0  0
   39.7380   33.7940   48.1560 H   0  0  0  0  0  0  0  0  0  0  0  0
   35.9260   30.2690   48.9510 C   0  0  0  0  0  0  0  0  0  0  0  0
   35.6060   29.8220   50.2170 C   0  0  0  0  0  0  0  0  0  0  0  0
   36.1390   30.1950   51.0950 H   0  0  0  0  0  0  0  0  0  0  0  0
   34.5920   28.8840   50.3670 C   0  0  0  0  0  0  0  0  0  0  0  0
   33.9060   28.3980   49.2870 C   0  0  0  0  0  0  0  0  0  0  0  0
   33.0990   27.6610   49.3210 H   0  0  0  0  0  0  0  0  0  0  0  0
   34.2090   28.8300   48.0160 C   0  0  0  0  0  0  0  0  0  0  0  0
   33.6830   28.4640   47.1350 H   0  0  0  0  0  0  0  0  0  0  0  0
   35.2300   29.7740   47.8660 C   0  0  0  0  0  0  0  0  0  0  0  0
  1 21  1  0  0  0  0
  2  1  2  0  0  0  0
  2  6  1  0  0  0  0
  3  2  1  0  0  0  0
  4  3  2  0  0  0  0
  4  5  1  0  0  0  0
  5  1  1  0  0  0  0
  7  3  1  0  0  0  0
  9 10  1  0  0  0  0
  9  8  1  0  0  0  0
 10  4  1  0  0  0  0
 11 16  1  0  0  0  0
 11 10  2  0  0  0  0
 12 11  1  0  0  0  0
 13 12  2  0  0  0  0
 13 15  1  0  0  0  0
 14 13  1  0  0  0  0
 15  9  2  0  0  0  0
 17 12  1  0  0  0  0
 18 15  1  0  0  0  0
 19 24  1  0  0  0  0
 19 25  1  0  0  0  0
 20 19  2  0  0  0  0
 21 22  2  0  0  0  0
 21 20  1  0  0  0  0
 22 23  1  0  0  0  0
 23 27  1  0  0  0  0
 23 24  2  0  0  0  0
 26 20  1  0  0  0  0
 27 28  1  0  0  0  0
 28 30  2  0  0  0  0
 28 29  1  0  0  0  0
 31 32  1  0  0  0  0
 31 30  1  0  0  0  0
 33 31  2  0  0  0  0
 34 33  1  0  0  0  0
 35 33  1  0  0  0  0
 35 27  2  0  0  0  0
M  END
>  <minimizedAffinity>
-6.89877558

>  <minimizedRMSD>
3.23875809

$$$$
