
 OpenBabel03272510203D

 36 39  0  0  0  0  0  0  0  0999 V2000
   37.4680   29.1850   50.8300 Br  0  0  0  0  0  0  0  0  0  0  0  0
   36.0360   29.2750   49.5740 C   0  0  0  0  0  0  0  0  0  0  0  0
   36.0130   30.2740   48.6050 C   0  0  0  0  0  0  0  0  0  0  0  0
   34.9440   30.2760   47.7280 C   0  0  0  0  0  0  0  0  0  0  0  0
   33.9190   29.3480   47.7760 C   0  0  0  0  0  0  0  0  0  0  0  0
   33.9750   28.3870   48.7360 C   0  0  0  0  0  0  0  0  0  0  0  0
   35.0330   28.3640   49.6220 C   0  0  0  0  0  0  0  0  0  0  0  0
   34.8720   31.0280   46.9530 H   0  0  0  0  0  0  0  0  0  0  0  0
   33.2250   27.6150   48.8600 H   0  0  0  0  0  0  0  0  0  0  0  0
   35.0820   27.5920   50.3980 H   0  0  0  0  0  0  0  0  0  0  0  0
   38.0250   33.1990   49.4390 C   0  0  0  0  0  0  0  0  0  0  0  0
   39.0410   33.1930   48.4410 C   0  0  0  0  0  0  0  0  0  0  0  0
   39.0120   32.1780   47.4970 C   0  0  0  0  0  0  0  0  0  0  0  0
   38.0240   31.2360   47.5610 N   0  0  0  0  0  0  0  0  0  0  0  0
   37.0730   31.2690   48.5220 C   0  0  0  0  0  0  0  0  0  0  0  0
   37.0860   32.2560   49.4550 N   0  0  0  0  0  0  0  0  0  0  0  0
   38.0880   34.0130   50.1570 H   0  0  0  0  0  0  0  0  0  0  0  0
   39.8360   33.9220   48.3620 H   0  0  0  0  0  0  0  0  0  0  0  0
   39.7150   32.0610   46.6980 H   0  0  0  0  0  0  0  0  0  0  0  0
   32.8030   29.3680   46.8450 C   0  0  0  0  0  0  0  0  0  0  0  0
   31.8980   28.3380   46.6870 C   0  0  0  0  0  0  0  0  0  0  0  0
   30.8460   28.3900   45.7890 C   0  0  0  0  0  0  0  0  0  0  0  0
   30.6930   29.4930   45.0350 N   0  0  0  0  0  0  0  0  0  0  0  0
   31.5610   30.5020   45.1770 C   0  0  0  0  0  0  0  0  0  0  0  0
   32.5620   30.4210   46.0470 N   0  0  0  0  0  0  0  0  0  0  0  0
   32.0250   27.4420   47.3000 H   0  0  0  0  0  0  0  0  0  0  0  0
   30.1700   27.5370   45.7180 H   0  0  0  0  0  0  0  0  0  0  0  0
   31.3990   31.7010   44.3600 C   0  0  0  0  0  0  0  0  0  0  0  0
   30.1290   32.2150   44.1200 C   0  0  0  0  0  0  0  0  0  0  0  0
   29.3090   31.6720   44.5690 H   0  0  0  0  0  0  0  0  0  0  0  0
   30.0050   33.3490   43.3460 C   0  0  0  0  0  3  0  0  0  0  0  0
   31.0690   34.0150   42.7890 C   0  0  0  0  0  0  0  0  0  0  0  0
   30.8080   34.8840   42.2110 H   0  0  0  0  0  0  0  0  0  0  0  0
   32.3280   33.5020   43.0290 C   0  0  0  0  0  0  0  0  0  0  0  0
   33.1530   34.0380   42.5850 H   0  0  0  0  0  0  0  0  0  0  0  0
   32.4560   32.3660   43.8050 C   0  0  0  0  0  3  0  0  0  0  0  0
  2  7  1  0  0  0  0
  2  1  1  0  0  0  0
  3  2  2  0  0  0  0
  4  5  2  0  0  0  0
  4  3  1  0  0  0  0
  5  6  1  0  0  0  0
  6  9  1  0  0  0  0
  6  7  2  0  0  0  0
  7 10  1  0  0  0  0
  8  4  1  0  0  0  0
 11 16  1  0  0  0  0
 11 17  1  0  0  0  0
 12 11  2  0  0  0  0
 13 14  2  0  0  0  0
 13 12  1  0  0  0  0
 14 15  1  0  0  0  0
 15  3  1  0  0  0  0
 15 16  2  0  0  0  0
 18 12  1  0  0  0  0
 19 13  1  0  0  0  0
 20  5  1  0  0  0  0
 21 20  1  0  0  0  0
 21 26  1  0  0  0  0
 22 21  2  0  0  0  0
 23 24  2  0  0  0  0
 23 22  1  0  0  0  0
 24 25  1  0  0  0  0
 25 20  2  0  0  0  0
 27 22  1  0  0  0  0
 28 24  1  0  0  0  0
 29 28  1  0  0  0  0
 29 30  1  0  0  0  0
 31 29  2  0  0  0  0
 32 34  2  0  0  0  0
 32 31  1  0  0  0  0
 33 32  1  0  0  0  0
 34 36  1  0  0  0  0
 35 34  1  0  0  0  0
 36 28  2  0  0  0  0
M  END
>  <minimizedAffinity>
-6.4091444

>  <minimizedRMSD>
0.463297814

$$$$
