
 OpenBabel03272510213D

 36 39  0  0  0  0  0  0  0  0999 V2000
   37.4100   29.1950   50.8570 Br  0  0  0  0  0  0  0  0  0  0  0  0
   36.0050   29.2660   49.5700 C   0  0  0  0  0  0  0  0  0  0  0  0
   36.0010   30.2530   48.5890 C   0  0  0  0  0  0  0  0  0  0  0  0
   34.9500   30.2420   47.6900 C   0  0  0  0  0  0  0  0  0  0  0  0
   33.9260   29.3120   47.7260 C   0  0  0  0  0  0  0  0  0  0  0  0
   33.9640   28.3630   48.6990 C   0  0  0  0  0  0  0  0  0  0  0  0
   35.0030   28.3540   49.6070 C   0  0  0  0  0  0  0  0  0  0  0  0
   34.8930   30.9860   46.9050 H   0  0  0  0  0  0  0  0  0  0  0  0
   33.2140   27.5910   48.8160 H   0  0  0  0  0  0  0  0  0  0  0  0
   35.0370   27.5910   50.3930 H   0  0  0  0  0  0  0  0  0  0  0  0
   38.0020   33.1780   49.4460 C   0  0  0  0  0  0  0  0  0  0  0  0
   39.0260   33.1770   48.4560 C   0  0  0  0  0  0  0  0  0  0  0  0
   39.0050   32.1640   47.5090 C   0  0  0  0  0  0  0  0  0  0  0  0
   38.0180   31.2210   47.5630 N   0  0  0  0  0  0  0  0  0  0  0  0
   37.0600   31.2500   48.5160 C   0  0  0  0  0  0  0  0  0  0  0  0
   37.0640   32.2350   49.4520 N   0  0  0  0  0  0  0  0  0  0  0  0
   38.0590   33.9910   50.1670 H   0  0  0  0  0  0  0  0  0  0  0  0
   39.8200   33.9070   48.3850 H   0  0  0  0  0  0  0  0  0  0  0  0
   39.7150   32.0490   46.7150 H   0  0  0  0  0  0  0  0  0  0  0  0
   32.8300   29.3190   46.7720 C   0  0  0  0  0  0  0  0  0  0  0  0
   31.9650   28.2630   46.5680 C   0  0  0  0  0  0  0  0  0  0  0  0
   30.9310   28.3030   45.6490 C   0  0  0  0  0  0  0  0  0  0  0  0
   30.7560   29.4200   44.9200 N   0  0  0  0  0  0  0  0  0  0  0  0
   31.5860   30.4530   45.1060 C   0  0  0  0  0  0  0  0  0  0  0  0
   32.5700   30.3840   45.9960 N   0  0  0  0  0  0  0  0  0  0  0  0
   32.1100   27.3570   47.1610 H   0  0  0  0  0  0  0  0  0  0  0  0
   30.2870   27.4300   45.5410 H   0  0  0  0  0  0  0  0  0  0  0  0
   31.4000   31.6670   44.3170 C   0  0  0  0  0  0  0  0  0  0  0  0
   32.5020   32.3340   43.7930 C   0  0  0  0  0  0  0  0  0  0  0  0
   33.4660   31.8950   44.0110 H   0  0  0  0  0  0  0  0  0  0  0  0
   32.2990   33.4780   43.0520 C   0  0  0  0  0  3  0  0  0  0  0  0
   31.0600   34.0110   42.7930 C   0  0  0  0  0  0  0  0  0  0  0  0
   31.0660   34.9090   42.2000 H   0  0  0  0  0  0  0  0  0  0  0  0
   29.9670   33.3460   43.3140 C   0  0  0  0  0  0  0  0  0  0  0  0
   29.0020   33.7790   43.1020 H   0  0  0  0  0  0  0  0  0  0  0  0
   30.1680   32.1990   44.0570 C   0  0  0  0  0  3  0  0  0  0  0  0
  2  7  1  0  0  0  0
  2  1  1  0  0  0  0
  3  2  2  0  0  0  0
  4  5  2  0  0  0  0
  4  3  1  0  0  0  0
  5  6  1  0  0  0  0
  6  9  1  0  0  0  0
  6  7  2  0  0  0  0
  7 10  1  0  0  0  0
  8  4  1  0  0  0  0
 11 16  1  0  0  0  0
 11 17  1  0  0  0  0
 12 11  2  0  0  0  0
 13 14  2  0  0  0  0
 13 12  1  0  0  0  0
 14 15  1  0  0  0  0
 15  3  1  0  0  0  0
 15 16  2  0  0  0  0
 18 12  1  0  0  0  0
 19 13  1  0  0  0  0
 20  5  1  0  0  0  0
 21 20  1  0  0  0  0
 21 26  1  0  0  0  0
 22 21  2  0  0  0  0
 23 24  2  0  0  0  0
 23 22  1  0  0  0  0
 24 25  1  0  0  0  0
 25 20  2  0  0  0  0
 27 22  1  0  0  0  0
 28 24  1  0  0  0  0
 29 30  1  0  0  0  0
 29 28  2  0  0  0  0
 31 29  1  0  0  0  0
 32 31  2  0  0  0  0
 32 34  1  0  0  0  0
 33 32  1  0  0  0  0
 34 36  2  0  0  0  0
 35 34  1  0  0  0  0
 36 28  1  0  0  0  0
M  END
>  <minimizedAffinity>
-6.4058876

>  <minimizedRMSD>
0.394597828

$$$$
