
 OpenBabel03272502433D

 28 30  0  0  0  0  0  0  0  0999 V2000
   36.5190   29.5490   31.5780 C   0  0  0  0  0  0  0  0  0  0  0  0
   35.8350   30.3320   32.5350 C   0  0  0  0  0  0  0  0  0  0  0  0
   35.6500   29.7680   33.8040 C   0  0  0  0  0  0  0  0  0  0  0  0
   36.1260   28.5220   34.0480 N   0  0  0  0  0  0  0  0  0  0  0  0
   36.7810   27.8020   33.0900 C   0  0  0  0  0  0  0  0  0  0  0  0
   36.9750   28.3210   31.8570 N   0  0  0  0  0  0  0  0  0  0  0  0
   36.6470   30.0120   30.6040 H   0  0  0  0  0  0  0  0  0  0  0  0
   35.4610   31.3140   32.3420 H   0  0  0  0  0  0  0  0  0  0  0  0
   38.3160   27.6240   35.6040 Cl  0  0  0  0  0  0  0  0  0  0  0  0
   37.9870   26.2770   34.5640 C   0  0  0  0  0  0  0  0  0  0  0  0
   37.2650   26.4730   33.4200 C   0  0  0  0  0  0  0  0  0  0  0  0
   36.9800   25.4270   32.5610 C   0  0  0  0  0  0  0  0  0  0  0  0
   37.4190   24.1440   32.8360 C   0  0  0  0  0  0  0  0  0  0  0  0
   38.1500   23.9150   33.9830 C   0  0  0  0  0  0  0  0  0  0  0  0
   38.7900   22.3670   34.5060 Cl  0  0  0  0  0  0  0  0  0  0  0  0
   38.4130   24.9940   34.8160 C   0  0  0  0  0  0  0  0  0  0  0  0
   36.4080   25.5730   31.6520 H   0  0  0  0  0  0  0  0  0  0  0  0
   37.2380   23.2900   32.2210 H   0  0  0  0  0  0  0  0  0  0  0  0
   38.9920   24.8710   35.7450 H   0  0  0  0  0  0  0  0  0  0  0  0
   34.9660   30.4520   34.8920 C   0  0  0  0  0  0  0  0  0  0  0  0
   35.7200   31.2840   35.6910 C   0  0  0  0  0  0  0  0  0  0  0  0
   36.7910   31.4730   35.5760 H   0  0  0  0  0  0  0  0  0  0  0  0
   35.1090   31.9650   36.7520 C   0  0  0  0  0  3  0  0  0  0  0  0
   33.7660   31.8250   37.0190 C   0  0  0  0  0  0  0  0  0  0  0  0
   33.3150   32.3620   37.8460 H   0  0  0  0  0  0  0  0  0  0  0  0
   33.0420   30.9900   36.2080 C   0  0  0  0  0  0  0  0  0  0  0  0
   31.9850   30.8830   36.4220 H   0  0  0  0  0  0  0  0  0  0  0  0
   33.6230   30.3120   35.1600 C   0  0  0  0  0  3  0  0  0  0  0  0
  1  6  2  0  0  0  0
  1  2  1  0  0  0  0
  2  3  2  0  0  0  0
  3  4  1  0  0  0  0
  3 20  1  0  0  0  0
  5 11  1  0  0  0  0
  5  4  2  0  0  0  0
  6  5  1  0  0  0  0
  7  1  1  0  0  0  0
  8  2  1  0  0  0  0
 10 16  1  0  0  0  0
 10  9  1  0  0  0  0
 11 10  2  0  0  0  0
 12 13  2  0  0  0  0
 12 11  1  0  0  0  0
 13 14  1  0  0  0  0
 14 15  1  0  0  0  0
 14 16  2  0  0  0  0
 16 19  1  0  0  0  0
 17 12  1  0  0  0  0
 18 13  1  0  0  0  0
 20 28  2  0  0  0  0
 20 21  1  0  0  0  0
 21 23  2  0  0  0  0
 22 21  1  0  0  0  0
 23 24  1  0  0  0  0
 24 25  1  0  0  0  0
 26 27  1  0  0  0  0
 26 24  2  0  0  0  0
 28 26  1  0  0  0  0
M  END
>  <minimizedAffinity>
-5.65459299

$$$$

 OpenBabel03272502433D

 28 30  0  0  0  0  0  0  0  0999 V2000
   36.3890   30.2680   30.9020 C   0  0  0  0  0  0  0  0  0  0  0  0
   35.9370   30.9350   32.0630 C   0  0  0  0  0  0  0  0  0  0  0  0
   35.5560   30.1360   33.1490 C   0  0  0  0  0  0  0  0  0  0  0  0
   35.6370   28.7880   33.0370 N   0  0  0  0  0  0  0  0  0  0  0  0
   36.0810   28.1870   31.8930 C   0  0  0  0  0  0  0  0  0  0  0  0
   36.4550   28.9320   30.8290 N   0  0  0  0  0  0  0  0  0  0  0  0
   36.6770   30.9130   30.0770 H   0  0  0  0  0  0  0  0  0  0  0  0
   35.8730   31.9990   32.1500 H   0  0  0  0  0  0  0  0  0  0  0  0
   38.3240   26.9830   33.3860 Cl  0  0  0  0  0  0  0  0  0  0  0  0
   37.1430   26.0750   32.4990 C   0  0  0  0  0  0  0  0  0  0  0  0
   36.1440   26.7370   31.8410 C   0  0  0  0  0  0  0  0  0  0  0  0
   35.1810   26.0530   31.1220 C   0  0  0  0  0  0  0  0  0  0  0  0
   35.2000   24.6710   31.0460 C   0  0  0  0  0  0  0  0  0  0  0  0
   36.1960   23.9760   31.7000 C   0  0  0  0  0  0  0  0  0  0  0  0
   36.3890   22.2320   31.7270 Cl  0  0  0  0  0  0  0  0  0  0  0  0
   37.1410   24.7030   32.4100 C   0  0  0  0  0  0  0  0  0  0  0  0
   34.3850   26.5690   30.5970 H   0  0  0  0  0  0  0  0  0  0  0  0
   34.4920   24.0770   30.5110 H   0  0  0  0  0  0  0  0  0  0  0  0
   37.9590   24.2020   32.9510 H   0  0  0  0  0  0  0  0  0  0  0  0
   35.0700   30.6780   34.4100 C   0  0  0  0  0  0  0  0  0  0  0  0
   33.7430   30.4760   34.7180 C   0  0  0  0  0  0  0  0  0  0  0  0
   33.0220   29.9410   34.0920 H   0  0  0  0  0  0  0  0  0  0  0  0
   33.2270   30.9780   35.9200 C   0  0  0  0  0  3  0  0  0  0  0  0
   34.0170   31.6720   36.8080 C   0  0  0  0  0  0  0  0  0  0  0  0
   33.5950   32.0510   37.7310 H   0  0  0  0  0  0  0  0  0  0  0  0
   35.3330   31.8570   36.4750 C   0  0  0  0  0  0  0  0  0  0  0  0
   35.9510   32.4040   37.1770 H   0  0  0  0  0  0  0  0  0  0  0  0
   35.8600   31.3720   35.2990 C   0  0  0  0  0  3  0  0  0  0  0  0
  1  2  1  0  0  0  0
  2  8  1  0  0  0  0
  2  3  2  0  0  0  0
  3 20  1  0  0  0  0
  4  3  1  0  0  0  0
  5  4  2  0  0  0  0
  6  1  2  0  0  0  0
  6  5  1  0  0  0  0
  7  1  1  0  0  0  0
 10  9  1  0  0  0  0
 11  5  1  0  0  0  0
 11 10  2  0  0  0  0
 12 11  1  0  0  0  0
 13 12  2  0  0  0  0
 13 14  1  0  0  0  0
 14 15  1  0  0  0  0
 14 16  2  0  0  0  0
 16 10  1  0  0  0  0
 16 19  1  0  0  0  0
 17 12  1  0  0  0  0
 18 13  1  0  0  0  0
 20 21  2  0  0  0  0
 20 28  1  0  0  0  0
 21 23  1  0  0  0  0
 22 21  1  0  0  0  0
 23 24  2  0  0  0  0
 24 25  1  0  0  0  0
 26 24  1  0  0  0  0
 26 27  1  0  0  0  0
 28 26  2  0  0  0  0
M  END
>  <minimizedAffinity>
-5.62702179

$$$$

 OpenBabel03272502433D

 28 30  0  0  0  0  0  0  0  0999 V2000
   38.0440   23.6530   37.8680 C   0  0  0  0  0  0  0  0  0  0  0  0
   39.3040   23.0130   37.8820 C   0  0  0  0  0  0  0  0  0  0  0  0
   40.1030   23.1540   36.7400 C   0  0  0  0  0  0  0  0  0  0  0  0
   39.6390   23.8840   35.6970 N   0  0  0  0  0  0  0  0  0  0  0  0
   38.4130   24.4860   35.7290 C   0  0  0  0  0  0  0  0  0  0  0  0
   37.6200   24.3670   36.8170 N   0  0  0  0  0  0  0  0  0  0  0  0
   37.4480   23.5260   38.7670 H   0  0  0  0  0  0  0  0  0  0  0  0
   39.6690   22.4380   38.7060 H   0  0  0  0  0  0  0  0  0  0  0  0
   38.6280   27.4140   36.0300 Cl  0  0  0  0  0  0  0  0  0  0  0  0
   38.0370   26.6200   34.6070 C   0  0  0  0  0  0  0  0  0  0  0  0
   37.9780   25.2540   34.5760 C   0  0  0  0  0  0  0  0  0  0  0  0
   37.5130   24.5800   33.4620 C   0  0  0  0  0  0  0  0  0  0  0  0
   37.0900   25.2700   32.3390 C   0  0  0  0  0  0  0  0  0  0  0  0
   37.1370   26.6490   32.3420 C   0  0  0  0  0  0  0  0  0  0  0  0
   36.6510   27.7000   31.0230 Cl  0  0  0  0  0  0  0  0  0  0  0  0
   37.6110   27.2850   33.4810 C   0  0  0  0  0  0  0  0  0  0  0  0
   37.4640   23.4970   33.4270 H   0  0  0  0  0  0  0  0  0  0  0  0
   36.7200   24.8190   31.4450 H   0  0  0  0  0  0  0  0  0  0  0  0
   37.6710   28.3830   33.5400 H   0  0  0  0  0  0  0  0  0  0  0  0
   41.4230   22.5540   36.6070 C   0  0  0  0  0  0  0  0  0  0  0  0
   42.4340   23.3490   36.1140 C   0  0  0  0  0  0  0  0  0  0  0  0
   42.3280   24.3950   35.8150 H   0  0  0  0  0  0  0  0  0  0  0  0
   43.7220   22.8170   35.9670 C   0  0  0  0  0  3  0  0  0  0  0  0
   44.0060   21.5140   36.3040 C   0  0  0  0  0  0  0  0  0  0  0  0
   45.0100   21.1250   36.1810 H   0  0  0  0  0  0  0  0  0  0  0  0
   42.9800   20.7470   36.7910 C   0  0  0  0  0  0  0  0  0  0  0  0
   43.2080   19.7210   37.0540 H   0  0  0  0  0  0  0  0  0  0  0  0
   41.7070   21.2490   36.9440 C   0  0  0  0  0  3  0  0  0  0  0  0
  1  2  1  0  0  0  0
  1  7  1  0  0  0  0
  2  8  1  0  0  0  0
  3  2  2  0  0  0  0
  4  5  2  0  0  0  0
  4  3  1  0  0  0  0
  5  6  1  0  0  0  0
  6  1  2  0  0  0  0
 10  9  1  0  0  0  0
 11 10  1  0  0  0  0
 11  5  1  0  0  0  0
 12 11  2  0  0  0  0
 13 14  2  0  0  0  0
 13 12  1  0  0  0  0
 14 16  1  0  0  0  0
 15 14  1  0  0  0  0
 16 19  1  0  0  0  0
 16 10  2  0  0  0  0
 17 12  1  0  0  0  0
 18 13  1  0  0  0  0
 20  3  1  0  0  0  0
 20 28  1  0  0  0  0
 21 20  2  0  0  0  0
 22 21  1  0  0  0  0
 23 21  1  0  0  0  0
 23 24  2  0  0  0  0
 24 26  1  0  0  0  0
 25 24  1  0  0  0  0
 26 28  2  0  0  0  0
 26 27  1  0  0  0  0
M  END
>  <minimizedAffinity>
-5.57193327

$$$$

 OpenBabel03272502433D

 28 30  0  0  0  0  0  0  0  0999 V2000
   36.4920   28.7690   31.8230 C   0  0  0  0  0  0  0  0  0  0  0  0
   37.0520   27.5740   32.3280 C   0  0  0  0  0  0  0  0  0  0  0  0
   36.9850   27.3760   33.7140 C   0  0  0  0  0  0  0  0  0  0  0  0
   36.3970   28.3200   34.4870 N   0  0  0  0  0  0  0  0  0  0  0  0
   35.8680   29.4610   33.9530 C   0  0  0  0  0  0  0  0  0  0  0  0
   35.9180   29.6790   32.6200 N   0  0  0  0  0  0  0  0  0  0  0  0
   36.5590   28.8950   30.7460 H   0  0  0  0  0  0  0  0  0  0  0  0
   37.5150   26.8300   31.7160 H   0  0  0  0  0  0  0  0  0  0  0  0
   32.9190   29.3850   34.0270 Cl  0  0  0  0  0  0  0  0  0  0  0  0
   33.8910   30.4820   34.9530 C   0  0  0  0  0  0  0  0  0  0  0  0
   35.2520   30.4310   34.8410 C   0  0  0  0  0  0  0  0  0  0  0  0
   36.0650   31.2870   35.5610 C   0  0  0  0  0  0  0  0  0  0  0  0
   35.5220   32.2260   36.4200 C   0  0  0  0  0  0  0  0  0  0  0  0
   34.1510   32.3020   36.5530 C   0  0  0  0  0  0  0  0  0  0  0  0
   33.2750   33.4160   37.5880 Cl  0  0  0  0  0  0  0  0  0  0  0  0
   33.3740   31.4230   35.8120 C   0  0  0  0  0  0  0  0  0  0  0  0
   37.1460   31.2540   35.4790 H   0  0  0  0  0  0  0  0  0  0  0  0
   36.0860   32.9190   37.0060 H   0  0  0  0  0  0  0  0  0  0  0  0
   32.2740   31.4370   35.8780 H   0  0  0  0  0  0  0  0  0  0  0  0
   37.5180   26.1960   34.3800 C   0  0  0  0  0  0  0  0  0  0  0  0
   37.7740   26.2920   35.7310 C   0  0  0  0  0  0  0  0  0  0  0  0
   37.6080   27.1820   36.3450 H   0  0  0  0  0  0  0  0  0  0  0  0
   38.2870   25.1840   36.4180 C   0  0  0  0  0  3  0  0  0  0  0  0
   38.5450   23.9950   35.7760 C   0  0  0  0  0  0  0  0  0  0  0  0
   38.9430   23.1520   36.3290 H   0  0  0  0  0  0  0  0  0  0  0  0
   38.2820   23.9290   34.4320 C   0  0  0  0  0  0  0  0  0  0  0  0
   38.4870   22.9910   33.9310 H   0  0  0  0  0  0  0  0  0  0  0  0
   37.7770   25.0050   33.7380 C   0  0  0  0  0  3  0  0  0  0  0  0
  1  2  2  0  0  0  0
  1  6  1  0  0  0  0
  2  3  1  0  0  0  0
  3 20  1  0  0  0  0
  3  4  2  0  0  0  0
  5  4  1  0  0  0  0
  5 11  1  0  0  0  0
  6  5  2  0  0  0  0
  7  1  1  0  0  0  0
  8  2  1  0  0  0  0
  9 10  1  0  0  0  0
 10 16  1  0  0  0  0
 11 10  2  0  0  0  0
 11 12  1  0  0  0  0
 12 13  2  0  0  0  0
 13 14  1  0  0  0  0
 13 18  1  0  0  0  0
 14 15  1  0  0  0  0
 16 19  1  0  0  0  0
 16 14  2  0  0  0  0
 17 12  1  0  0  0  0
 20 21  1  0  0  0  0
 21 22  1  0  0  0  0
 21 23  2  0  0  0  0
 24 25  1  0  0  0  0
 24 23  1  0  0  0  0
 26 24  2  0  0  0  0
 27 26  1  0  0  0  0
 28 20  2  0  0  0  0
 28 26  1  0  0  0  0
M  END
>  <minimizedAffinity>
-5.53883839

$$$$

 OpenBabel03272502433D

 28 30  0  0  0  0  0  0  0  0999 V2000
   34.8190   29.8070   32.2480 C   0  0  0  0  0  0  0  0  0  0  0  0
   35.6580   28.7080   32.5430 C   0  0  0  0  0  0  0  0  0  0  0  0
   36.1720   28.6300   33.8440 C   0  0  0  0  0  0  0  0  0  0  0  0
   35.8470   29.5940   34.7400 N   0  0  0  0  0  0  0  0  0  0  0  0
   35.0310   30.6380   34.4090 C   0  0  0  0  0  0  0  0  0  0  0  0
   34.5200   30.7390   33.1620 N   0  0  0  0  0  0  0  0  0  0  0  0
   34.4360   29.8400   31.2320 H   0  0  0  0  0  0  0  0  0  0  0  0
   35.9130   27.9480   31.8350 H   0  0  0  0  0  0  0  0  0  0  0  0
   36.6970   33.0710   34.3060 Cl  0  0  0  0  0  0  0  0  0  0  0  0
   35.4330   32.8020   35.4610 C   0  0  0  0  0  0  0  0  0  0  0  0
   34.7230   31.6350   35.4190 C   0  0  0  0  0  0  0  0  0  0  0  0
   33.7060   31.3790   36.3220 C   0  0  0  0  0  0  0  0  0  0  0  0
   33.3770   32.3010   37.2990 C   0  0  0  0  0  0  0  0  0  0  0  0
   34.0770   33.4880   37.3670 C   0  0  0  0  0  0  0  0  0  0  0  0
   33.8090   34.7780   38.5260 Cl  0  0  0  0  0  0  0  0  0  0  0  0
   35.0880   33.7030   36.4410 C   0  0  0  0  0  0  0  0  0  0  0  0
   33.1370   30.4570   36.2960 H   0  0  0  0  0  0  0  0  0  0  0  0
   32.6070   32.1720   38.0280 H   0  0  0  0  0  0  0  0  0  0  0  0
   35.6800   34.6320   36.4480 H   0  0  0  0  0  0  0  0  0  0  0  0
   37.0480   27.5590   34.2960 C   0  0  0  0  0  0  0  0  0  0  0  0
   37.7780   27.7790   35.4440 C   0  0  0  0  0  0  0  0  0  0  0  0
   37.7530   28.6920   36.0450 H   0  0  0  0  0  0  0  0  0  0  0  0
   38.6360   26.7790   35.9200 C   0  0  0  0  0  3  0  0  0  0  0  0
   38.7700   25.5750   35.2670 C   0  0  0  0  0  0  0  0  0  0  0  0
   39.4410   24.8160   35.6550 H   0  0  0  0  0  0  0  0  0  0  0  0
   38.0320   25.3850   34.1280 C   0  0  0  0  0  0  0  0  0  0  0  0
   38.1410   24.4350   33.6180 H   0  0  0  0  0  0  0  0  0  0  0  0
   37.1830   26.3540   33.6440 C   0  0  0  0  0  3  0  0  0  0  0  0
  1  2  2  0  0  0  0
  1  6  1  0  0  0  0
  2  3  1  0  0  0  0
  3 20  1  0  0  0  0
  3  4  2  0  0  0  0
  5  4  1  0  0  0  0
  5 11  1  0  0  0  0
  6  5  2  0  0  0  0
  7  1  1  0  0  0  0
  8  2  1  0  0  0  0
  9 10  1  0  0  0  0
 10 16  1  0  0  0  0
 11 10  2  0  0  0  0
 11 12  1  0  0  0  0
 12 13  2  0  0  0  0
 13 14  1  0  0  0  0
 13 18  1  0  0  0  0
 14 15  1  0  0  0  0
 16 19  1  0  0  0  0
 16 14  2  0  0  0  0
 17 12  1  0  0  0  0
 20 21  1  0  0  0  0
 21 23  2  0  0  0  0
 21 22  1  0  0  0  0
 24 25  1  0  0  0  0
 24 23  1  0  0  0  0
 26 24  2  0  0  0  0
 27 26  1  0  0  0  0
 28 26  1  0  0  0  0
 28 20  2  0  0  0  0
M  END
>  <minimizedAffinity>
-5.4913125

$$$$

 OpenBabel03272502433D

 28 30  0  0  0  0  0  0  0  0999 V2000
   40.2670   24.9220   32.4590 C   0  0  0  0  0  0  0  0  0  0  0  0
   40.2200   24.3440   33.7480 C   0  0  0  0  0  0  0  0  0  0  0  0
   39.2210   24.8050   34.6160 C   0  0  0  0  0  0  0  0  0  0  0  0
   38.3640   25.7620   34.1870 N   0  0  0  0  0  0  0  0  0  0  0  0
   38.4480   26.2920   32.9300 C   0  0  0  0  0  0  0  0  0  0  0  0
   39.4010   25.8670   32.0710 N   0  0  0  0  0  0  0  0  0  0  0  0
   41.0510   24.5450   31.8090 H   0  0  0  0  0  0  0  0  0  0  0  0
   40.8970   23.5880   34.0850 H   0  0  0  0  0  0  0  0  0  0  0  0
   37.3230   27.8710   35.1540 Cl  0  0  0  0  0  0  0  0  0  0  0  0
   36.9150   28.1060   33.4860 C   0  0  0  0  0  0  0  0  0  0  0  0
   37.4960   27.3150   32.5350 C   0  0  0  0  0  0  0  0  0  0  0  0
   37.2000   27.4680   31.1930 C   0  0  0  0  0  0  0  0  0  0  0  0
   36.3010   28.4310   30.7700 C   0  0  0  0  0  0  0  0  0  0  0  0
   35.6980   29.2450   31.7070 C   0  0  0  0  0  0  0  0  0  0  0  0
   34.5400   30.5200   31.3720 Cl  0  0  0  0  0  0  0  0  0  0  0  0
   36.0250   29.0560   33.0430 C   0  0  0  0  0  0  0  0  0  0  0  0
   37.6570   26.8450   30.4310 H   0  0  0  0  0  0  0  0  0  0  0  0
   36.0240   28.6070   29.7530 H   0  0  0  0  0  0  0  0  0  0  0  0
   35.5750   29.6760   33.8340 H   0  0  0  0  0  0  0  0  0  0  0  0
   39.0480   24.3060   35.9730 C   0  0  0  0  0  0  0  0  0  0  0  0
   39.9090   23.3190   36.4010 C   0  0  0  0  0  0  0  0  0  0  0  0
   40.7140   22.8790   35.8050 H   0  0  0  0  0  0  0  0  0  0  0  0
   39.7840   22.8060   37.6980 C   0  0  0  0  0  3  0  0  0  0  0  0
   38.8170   23.2650   38.5630 C   0  0  0  0  0  0  0  0  0  0  0  0
   38.7390   22.8520   39.5630 H   0  0  0  0  0  0  0  0  0  0  0  0
   37.9750   24.2460   38.1100 C   0  0  0  0  0  0  0  0  0  0  0  0
   37.2150   24.6040   38.7950 H   0  0  0  0  0  0  0  0  0  0  0  0
   38.0810   24.7640   36.8400 C   0  0  0  0  0  3  0  0  0  0  0  0
  1  2  1  0  0  0  0
  2  8  1  0  0  0  0
  2  3  2  0  0  0  0
  3 20  1  0  0  0  0
  4  3  1  0  0  0  0
  5  4  2  0  0  0  0
  6  1  2  0  0  0  0
  6  5  1  0  0  0  0
  7  1  1  0  0  0  0
 10  9  1  0  0  0  0
 11  5  1  0  0  0  0
 11 10  2  0  0  0  0
 12 11  1  0  0  0  0
 13 12  2  0  0  0  0
 13 14  1  0  0  0  0
 14 16  2  0  0  0  0
 15 14  1  0  0  0  0
 16 10  1  0  0  0  0
 16 19  1  0  0  0  0
 17 12  1  0  0  0  0
 18 13  1  0  0  0  0
 20 21  2  0  0  0  0
 20 28  1  0  0  0  0
 21 23  1  0  0  0  0
 22 21  1  0  0  0  0
 23 24  2  0  0  0  0
 24 25  1  0  0  0  0
 26 24  1  0  0  0  0
 26 27  1  0  0  0  0
 28 26  2  0  0  0  0
M  END
>  <minimizedAffinity>
-5.46824169

$$$$

 OpenBabel03272502433D

 28 30  0  0  0  0  0  0  0  0999 V2000
   42.7810   26.8060   34.0290 C   0  0  0  0  0  0  0  0  0  0  0  0
   42.9380   25.6050   34.7590 C   0  0  0  0  0  0  0  0  0  0  0  0
   41.7730   24.8880   35.0630 C   0  0  0  0  0  0  0  0  0  0  0  0
   40.5760   25.3700   34.6510 N   0  0  0  0  0  0  0  0  0  0  0  0
   40.4730   26.5370   33.9470 C   0  0  0  0  0  0  0  0  0  0  0  0
   41.5790   27.2500   33.6390 N   0  0  0  0  0  0  0  0  0  0  0  0
   43.7010   27.3390   33.8090 H   0  0  0  0  0  0  0  0  0  0  0  0
   43.8840   25.2260   35.0830 H   0  0  0  0  0  0  0  0  0  0  0  0
   38.6240   27.1590   36.1610 Cl  0  0  0  0  0  0  0  0  0  0  0  0
   38.2230   27.3130   34.4820 C   0  0  0  0  0  0  0  0  0  0  0  0
   39.1580   26.9950   33.5370 C   0  0  0  0  0  0  0  0  0  0  0  0
   38.8800   27.1020   32.1860 C   0  0  0  0  0  0  0  0  0  0  0  0
   37.6410   27.5370   31.7480 C   0  0  0  0  0  0  0  0  0  0  0  0
   36.6770   27.8640   32.6790 C   0  0  0  0  0  0  0  0  0  0  0  0
   35.0550   28.4340   32.3270 Cl  0  0  0  0  0  0  0  0  0  0  0  0
   36.9990   27.7420   34.0240 C   0  0  0  0  0  0  0  0  0  0  0  0
   39.6160   26.8530   31.4290 H   0  0  0  0  0  0  0  0  0  0  0  0
   37.3560   27.6440   30.7250 H   0  0  0  0  0  0  0  0  0  0  0  0
   36.2690   27.9890   34.8110 H   0  0  0  0  0  0  0  0  0  0  0  0
   41.7750   23.6370   35.8070 C   0  0  0  0  0  0  0  0  0  0  0  0
   42.9670   22.9500   35.8900 C   0  0  0  0  0  0  0  0  0  0  0  0
   43.9130   23.2680   35.4430 H   0  0  0  0  0  0  0  0  0  0  0  0
   43.0210   21.7410   36.5940 C   0  0  0  0  0  3  0  0  0  0  0  0
   41.9080   21.2170   37.2110 C   0  0  0  0  0  0  0  0  0  0  0  0
   41.9740   20.2780   37.7500 H   0  0  0  0  0  0  0  0  0  0  0  0
   40.7370   21.9210   37.1110 C   0  0  0  0  0  0  0  0  0  0  0  0
   39.8630   21.5040   37.5980 H   0  0  0  0  0  0  0  0  0  0  0  0
   40.6620   23.1110   36.4240 C   0  0  0  0  0  3  0  0  0  0  0  0
  1  2  1  0  0  0  0
  2  3  2  0  0  0  0
  2  8  1  0  0  0  0
  3 20  1  0  0  0  0
  4  3  1  0  0  0  0
  5  4  2  0  0  0  0
  6  5  1  0  0  0  0
  6  1  2  0  0  0  0
  7  1  1  0  0  0  0
 10  9  1  0  0  0  0
 11  5  1  0  0  0  0
 11 10  2  0  0  0  0
 12 11  1  0  0  0  0
 13 12  2  0  0  0  0
 13 14  1  0  0  0  0
 14 16  2  0  0  0  0
 15 14  1  0  0  0  0
 16 10  1  0  0  0  0
 16 19  1  0  0  0  0
 17 12  1  0  0  0  0
 18 13  1  0  0  0  0
 20 21  2  0  0  0  0
 20 28  1  0  0  0  0
 21 23  1  0  0  0  0
 22 21  1  0  0  0  0
 23 24  2  0  0  0  0
 24 25  1  0  0  0  0
 26 24  1  0  0  0  0
 26 27  1  0  0  0  0
 28 26  2  0  0  0  0
M  END
>  <minimizedAffinity>
-5.44065762

$$$$

 OpenBabel03272502433D

 28 30  0  0  0  0  0  0  0  0999 V2000
   36.5340   29.6920   30.5510 C   0  0  0  0  0  0  0  0  0  0  0  0
   36.6440   28.2840   30.4750 C   0  0  0  0  0  0  0  0  0  0  0  0
   36.1830   27.5490   31.5750 C   0  0  0  0  0  0  0  0  0  0  0  0
   35.6630   28.2090   32.6380 N   0  0  0  0  0  0  0  0  0  0  0  0
   35.5760   29.5720   32.6670 C   0  0  0  0  0  0  0  0  0  0  0  0
   36.0140   30.3080   31.6200 N   0  0  0  0  0  0  0  0  0  0  0  0
   36.9000   30.2340   29.6850 H   0  0  0  0  0  0  0  0  0  0  0  0
   37.0540   27.7650   29.6350 H   0  0  0  0  0  0  0  0  0  0  0  0
   32.6270   29.6290   32.7470 Cl  0  0  0  0  0  0  0  0  0  0  0  0
   33.6500   30.2950   33.9780 C   0  0  0  0  0  0  0  0  0  0  0  0
   35.0070   30.2140   33.8380 C   0  0  0  0  0  0  0  0  0  0  0  0
   35.8600   30.7320   34.7960 C   0  0  0  0  0  0  0  0  0  0  0  0
   35.3630   31.3510   35.9290 C   0  0  0  0  0  0  0  0  0  0  0  0
   33.9970   31.4480   36.0970 C   0  0  0  0  0  0  0  0  0  0  0  0
   33.1760   32.1890   37.4590 Cl  0  0  0  0  0  0  0  0  0  0  0  0
   33.1790   30.9140   35.1110 C   0  0  0  0  0  0  0  0  0  0  0  0
   36.9380   30.6730   34.6940 H   0  0  0  0  0  0  0  0  0  0  0  0
   35.9590   31.7730   36.7080 H   0  0  0  0  0  0  0  0  0  0  0  0
   32.0810   30.9630   35.1920 H   0  0  0  0  0  0  0  0  0  0  0  0
   36.2300   26.0960   31.6420 C   0  0  0  0  0  0  0  0  0  0  0  0
   37.3060   25.5250   32.2870 C   0  0  0  0  0  0  0  0  0  0  0  0
   38.1280   26.0750   32.7540 H   0  0  0  0  0  0  0  0  0  0  0  0
   37.3970   24.1300   32.3790 C   0  0  0  0  0  3  0  0  0  0  0  0
   36.4350   23.3090   31.8390 C   0  0  0  0  0  0  0  0  0  0  0  0
   36.5280   22.2320   31.9210 H   0  0  0  0  0  0  0  0  0  0  0  0
   35.3770   23.9040   31.2030 C   0  0  0  0  0  0  0  0  0  0  0  0
   34.6210   23.2530   30.7790 H   0  0  0  0  0  0  0  0  0  0  0  0
   35.2670   25.2730   31.1020 C   0  0  0  0  0  3  0  0  0  0  0  0
  1  6  1  0  0  0  0
  2  1  2  0  0  0  0
  2  3  1  0  0  0  0
  3 20  1  0  0  0  0
  3  4  2  0  0  0  0
  4  5  1  0  0  0  0
  5 11  1  0  0  0  0
  6  5  2  0  0  0  0
  7  1  1  0  0  0  0
  8  2  1  0  0  0  0
  9 10  1  0  0  0  0
 10 16  1  0  0  0  0
 11 10  2  0  0  0  0
 11 12  1  0  0  0  0
 12 13  2  0  0  0  0
 13 14  1  0  0  0  0
 13 18  1  0  0  0  0
 14 15  1  0  0  0  0
 16 19  1  0  0  0  0
 16 14  2  0  0  0  0
 17 12  1  0  0  0  0
 20 21  1  0  0  0  0
 21 23  2  0  0  0  0
 21 22  1  0  0  0  0
 24 25  1  0  0  0  0
 24 23  1  0  0  0  0
 26 24  2  0  0  0  0
 27 26  1  0  0  0  0
 28 26  1  0  0  0  0
 28 20  2  0  0  0  0
M  END
>  <minimizedAffinity>
-5.35233212

$$$$

 OpenBabel03272502433D

 28 30  0  0  0  0  0  0  0  0999 V2000
   38.9020   24.8480   30.2180 C   0  0  0  0  0  0  0  0  0  0  0  0
   38.3380   23.5550   30.3020 C   0  0  0  0  0  0  0  0  0  0  0  0
   37.2200   23.4000   31.1310 C   0  0  0  0  0  0  0  0  0  0  0  0
   36.7400   24.4770   31.8000 N   0  0  0  0  0  0  0  0  0  0  0  0
   37.3190   25.7090   31.6880 C   0  0  0  0  0  0  0  0  0  0  0  0
   38.3990   25.8890   30.8960 N   0  0  0  0  0  0  0  0  0  0  0  0
   39.7670   24.9370   29.5680 H   0  0  0  0  0  0  0  0  0  0  0  0
   38.7170   22.7070   29.7730 H   0  0  0  0  0  0  0  0  0  0  0  0
   38.3520   26.0210   34.4340 Cl  0  0  0  0  0  0  0  0  0  0  0  0
   37.1630   27.0570   33.7160 C   0  0  0  0  0  0  0  0  0  0  0  0
   36.7540   26.8200   32.4330 C   0  0  0  0  0  0  0  0  0  0  0  0
   35.8070   27.6220   31.8210 C   0  0  0  0  0  0  0  0  0  0  0  0
   35.2430   28.6920   32.4910 C   0  0  0  0  0  0  0  0  0  0  0  0
   35.6360   28.9560   33.7870 C   0  0  0  0  0  0  0  0  0  0  0  0
   35.0430   30.2610   34.8000 Cl  0  0  0  0  0  0  0  0  0  0  0  0
   36.5890   28.1260   34.3630 C   0  0  0  0  0  0  0  0  0  0  0  0
   35.4770   27.4420   30.8040 H   0  0  0  0  0  0  0  0  0  0  0  0
   34.5090   29.3520   32.0840 H   0  0  0  0  0  0  0  0  0  0  0  0
   36.9400   28.2880   35.3940 H   0  0  0  0  0  0  0  0  0  0  0  0
   36.5320   22.1310   31.3180 C   0  0  0  0  0  0  0  0  0  0  0  0
   37.1060   21.0100   30.7590 C   0  0  0  0  0  0  0  0  0  0  0  0
   38.0370   20.9950   30.1860 H   0  0  0  0  0  0  0  0  0  0  0  0
   36.4830   19.7650   30.9110 C   0  0  0  0  0  3  0  0  0  0  0  0
   35.3040   19.6300   31.6090 C   0  0  0  0  0  0  0  0  0  0  0  0
   34.8400   18.6550   31.7120 H   0  0  0  0  0  0  0  0  0  0  0  0
   34.7560   20.7610   32.1530 C   0  0  0  0  0  0  0  0  0  0  0  0
   33.8280   20.6500   32.7010 H   0  0  0  0  0  0  0  0  0  0  0  0
   35.3520   21.9950   32.0160 C   0  0  0  0  0  3  0  0  0  0  0  0
  1  2  2  0  0  0  0
  1  6  1  0  0  0  0
  2  3  1  0  0  0  0
  3 20  1  0  0  0  0
  3  4  2  0  0  0  0
  5  4  1  0  0  0  0
  5 11  1  0  0  0  0
  6  5  2  0  0  0  0
  7  1  1  0  0  0  0
  8  2  1  0  0  0  0
 10 16  1  0  0  0  0
 10  9  1  0  0  0  0
 11 10  2  0  0  0  0
 12 11  1  0  0  0  0
 12 13  2  0  0  0  0
 13 14  1  0  0  0  0
 14 16  2  0  0  0  0
 14 15  1  0  0  0  0
 16 19  1  0  0  0  0
 17 12  1  0  0  0  0
 18 13  1  0  0  0  0
 20 28  1  0  0  0  0
 21 23  1  0  0  0  0
 21 20  2  0  0  0  0
 22 21  1  0  0  0  0
 23 24  2  0  0  0  0
 24 25  1  0  0  0  0
 24 26  1  0  0  0  0
 26 27  1  0  0  0  0
 28 26  2  0  0  0  0
M  END
>  <minimizedAffinity>
-5.33357763

$$$$
