
 OpenBabel03272500433D

 33 35  0  0  1  0  0  0  0  0999 V2000
   38.8010   32.2140   47.0940 C   0  0  0  0  0  0  0  0  0  0  0  0
   39.7320   31.5140   46.3160 C   0  0  0  0  0  0  0  0  0  0  0  0
   39.2820   30.4220   45.5910 C   0  0  0  0  0  0  0  0  0  0  0  0
   37.9680   30.0780   45.6640 N   0  0  0  0  0  0  0  0  0  0  0  0
   37.0960   30.7600   46.4120 C   0  0  0  0  0  0  0  0  0  0  0  0
   37.5080   31.8320   47.1310 N   0  0  0  0  0  0  0  0  0  0  0  0
   35.7120   30.3860   46.4780 N   0  0  0  0  0  0  0  0  0  0  0  0
   34.9910   30.3650   47.7540 C   0  0  1  0  0  0  0  0  0  0  0  0
   33.9790   29.2610   47.8310 C   0  0  0  0  0  0  0  0  0  0  0  0
   34.2600   28.2510   46.7570 C   0  0  0  0  0  0  0  0  0  0  0  0
   34.0020   28.9530   45.4350 C   0  0  0  0  0  0  0  0  0  0  0  0
   35.0230   30.0270   45.2560 C   0  0  0  0  0  0  0  0  0  0  0  0
   39.0730   33.0790   47.6900 H   0  0  0  0  0  0  0  0  0  0  0  0
   40.7690   31.8430   46.3030 H   0  0  0  0  0  0  0  0  0  0  0  0
   39.9820   29.8570   44.9770 H   0  0  0  0  0  0  0  0  0  0  0  0
   34.4220   31.3200   47.7660 H   0  0  0  0  0  0  0  0  0  0  0  0
   32.9320   29.5750   47.7550 H   0  0  0  0  0  0  0  0  0  0  0  0
   34.0670   28.7850   48.8440 H   0  0  0  0  0  0  0  0  0  0  0  0
   35.3540   28.0350   46.7510 H   0  0  0  0  0  0  0  0  0  0  0  0
   33.6930   27.3120   46.8690 H   0  0  0  0  0  0  0  0  0  0  0  0
   32.9520   29.3430   45.4430 H   0  0  0  0  0  0  0  0  0  0  0  0
   34.0970   28.2350   44.5970 H   0  0  0  0  0  0  0  0  0  0  0  0
   34.4720   30.9370   44.9260 H   0  0  0  0  0  0  0  0  0  0  0  0
   35.7510   29.8140   44.4510 H   0  0  0  0  0  0  0  0  0  0  0  0
   35.9240   30.3730   48.9020 C   0  0  0  0  0  0  0  0  0  0  0  0
   36.2400   31.4970   49.6570 C   0  0  0  0  0  0  0  0  0  0  0  0
   35.7650   32.4350   49.3830 H   0  0  0  0  0  0  0  0  0  0  0  0
   37.1120   31.4680   50.7180 C   0  0  0  0  0  0  0  0  0  0  0  0
   37.7230   30.2810   51.0780 C   0  0  0  0  0  0  0  0  0  0  0  0
   38.4170   30.2230   51.9100 H   0  0  0  0  0  0  0  0  0  0  0  0
   37.4460   29.1420   50.3640 C   0  0  0  0  0  0  0  0  0  0  0  0
   37.9350   28.2290   50.6630 H   0  0  0  0  0  0  0  0  0  0  0  0
   36.5560   29.2110   49.2940 C   0  0  0  0  0  0  0  0  0  0  0  0
  1  6  1  0  0  0  0
  1 13  1  0  0  0  0
  2  1  2  0  0  0  0
  3  4  2  0  0  0  0
  3  2  1  0  0  0  0
  4  5  1  0  0  0  0
  5  7  1  0  0  0  0
  5  6  2  0  0  0  0
  7  8  1  0  0  0  0
  8 16  1  1  0  0  0
  8  9  1  0  0  0  0
  8 25  1  0  0  0  0
  9 18  1  0  0  0  0
 10 20  1  0  0  0  0
 10  9  1  0  0  0  0
 11 21  1  0  0  0  0
 11 10  1  0  0  0  0
 12 11  1  0  0  0  0
 12  7  1  0  0  0  0
 14  2  1  0  0  0  0
 15  3  1  0  0  0  0
 17  9  1  0  0  0  0
 19 10  1  0  0  0  0
 22 11  1  0  0  0  0
 23 12  1  0  0  0  0
 24 12  1  0  0  0  0
 25 33  2  0  0  0  0
 25 26  1  0  0  0  0
 26 28  2  0  0  0  0
 27 26  1  0  0  0  0
 28 29  1  0  0  0  0
 29 30  1  0  0  0  0
 31 32  1  0  0  0  0
 31 29  2  0  0  0  0
 33 31  1  0  0  0  0
M  END
>  <minimizedAffinity>
-5.61109257

>  <minimizedRMSD>
2.31219602

$$$$
