
 OpenBabel03272509563D

 43 46  0  0  0  0  0  0  0  0999 V2000
   36.8230   26.1130   32.0100 C   0  0  0  0  0  0  0  0  0  0  0  0
   35.8760   25.6300   32.3590 H   0  0  0  0  0  0  0  0  0  0  0  0
   36.6370   26.5610   31.0020 H   0  0  0  0  0  0  0  0  0  0  0  0
   37.3050   27.2000   32.9280 C   0  0  0  0  0  0  0  0  0  0  0  0
   38.3420   27.5010   32.7040 H   0  0  0  0  0  0  0  0  0  0  0  0
   37.2850   26.8160   33.9780 H   0  0  0  0  0  0  0  0  0  0  0  0
   36.4220   28.3920   32.9020 C   0  0  0  0  0  0  0  0  0  0  0  0
   36.1110   28.9230   31.6560 C   0  0  0  0  0  0  0  0  0  0  0  0
   35.3000   30.0270   31.5290 C   0  0  0  0  0  0  0  0  0  0  0  0
   34.8040   30.5980   32.6040 N   0  0  0  0  0  0  0  0  0  0  0  0
   35.1030   30.0840   33.8270 C   0  0  0  0  0  0  0  0  0  0  0  0
   35.8980   29.0000   33.9840 N   0  0  0  0  0  0  0  0  0  0  0  0
   36.5110   28.4670   30.7610 H   0  0  0  0  0  0  0  0  0  0  0  0
   35.0970   30.3920   30.5140 H   0  0  0  0  0  0  0  0  0  0  0  0
   34.5610   30.7060   35.0310 C   0  0  0  0  0  0  0  0  0  0  0  0
   33.2410   30.4400   35.4040 C   0  0  0  0  0  0  0  0  0  0  0  0
   32.6710   29.7640   34.7580 H   0  0  0  0  0  0  0  0  0  0  0  0
   32.7080   31.0130   36.5330 C   0  0  0  0  0  3  0  0  0  0  0  0
   33.4920   31.8480   37.2860 C   0  0  0  0  0  0  0  0  0  0  0  0
   33.0280   32.2680   38.1570 H   0  0  0  0  0  0  0  0  0  0  0  0
   34.8180   32.1560   36.9700 C   0  0  0  0  0  0  0  0  0  0  0  0
   35.4190   32.8240   37.5870 H   0  0  0  0  0  0  0  0  0  0  0  0
   35.2960   31.5550   35.8320 C   0  0  0  0  0  3  0  0  0  0  0  0
   37.7970   25.0820   31.9020 O   0  0  0  0  0  0  0  0  0  0  0  0
   36.8510   21.6990   32.7390 C   0  0  0  0  0  0  0  0  0  0  0  0
   37.2930   21.6420   34.0850 C   0  0  0  0  0  0  0  0  0  0  0  0
   37.8890   22.7780   34.6100 C   0  0  0  0  0  0  0  0  0  0  0  0
   37.9950   23.8600   33.7720 N   0  0  0  0  0  0  0  0  0  0  0  0
   37.5690   23.8850   32.5090 C   0  0  0  0  0  0  0  0  0  0  0  0
   36.9930   22.7870   31.9980 N   0  0  0  0  0  0  0  0  0  0  0  0
   36.3900   20.7860   32.3710 H   0  0  0  0  0  0  0  0  0  0  0  0
   37.2070   20.7980   34.7290 H   0  0  0  0  0  0  0  0  0  0  0  0
   40.4710   21.9420   35.6340 F   0  0  0  0  0  0  0  0  0  0  0  0
   39.5950   22.5340   36.4500 C   0  0  0  0  0  0  0  0  0  0  0  0
   38.4010   22.9140   35.9520 C   0  0  0  0  0  0  0  0  0  0  0  0
   37.5770   23.5170   36.8930 C   0  0  0  0  0  0  0  0  0  0  0  0
   37.9490   23.7050   38.2060 C   0  0  0  0  0  0  0  0  0  0  0  0
   39.1770   23.2990   38.6570 C   0  0  0  0  0  0  0  0  0  0  0  0
   40.0120   22.7000   37.7520 C   0  0  0  0  0  0  0  0  0  0  0  0
   36.5770   23.8780   36.6380 H   0  0  0  0  0  0  0  0  0  0  0  0
   37.2750   24.1840   38.9150 H   0  0  0  0  0  0  0  0  0  0  0  0
   39.4750   23.4430   39.6850 H   0  0  0  0  0  0  0  0  0  0  0  0
   40.9780   22.3760   38.0930 H   0  0  0  0  0  0  0  0  0  0  0  0
  1  2  1  0  0  0  0
  1  4  1  0  0  0  0
  3  1  1  0  0  0  0
  4  6  1  0  0  0  0
  5  4  1  0  0  0  0
  7  4  1  0  0  0  0
  7 12  1  0  0  0  0
  8  7  2  0  0  0  0
  9  8  1  0  0  0  0
  9 10  2  0  0  0  0
 10 11  1  0  0  0  0
 11 12  2  0  0  0  0
 11 15  1  0  0  0  0
 13  8  1  0  0  0  0
 14  9  1  0  0  0  0
 15 16  2  0  0  0  0
 15 23  1  0  0  0  0
 16 18  1  0  0  0  0
 17 16  1  0  0  0  0
 18 19  2  0  0  0  0
 19 20  1  0  0  0  0
 21 19  1  0  0  0  0
 21 22  1  0  0  0  0
 23 21  2  0  0  0  0
 24  1  1  0  0  0  0
 24 29  1  0  0  0  0
 25 26  1  0  0  0  0
 26 27  2  0  0  0  0
 26 32  1  0  0  0  0
 27 35  1  0  0  0  0
 28 27  1  0  0  0  0
 29 28  2  0  0  0  0
 30 29  1  0  0  0  0
 30 25  2  0  0  0  0
 31 25  1  0  0  0  0
 33 34  1  0  0  0  0
 34 39  1  0  0  0  0
 35 34  2  0  0  0  0
 35 36  1  0  0  0  0
 36 37  2  0  0  0  0
 37 38  1  0  0  0  0
 37 41  1  0  0  0  0
 38 42  1  0  0  0  0
 39 43  1  0  0  0  0
 39 38  2  0  0  0  0
 40 36  1  0  0  0  0
M  END
>  <minimizedAffinity>
-6.55071878

$$$$

 OpenBabel03272509563D

 43 46  0  0  0  0  0  0  0  0999 V2000
   36.3690   26.8730   31.1140 C   0  0  0  0  0  0  0  0  0  0  0  0
   37.2690   27.5080   30.9190 H   0  0  0  0  0  0  0  0  0  0  0  0
   35.8910   26.6320   30.1310 H   0  0  0  0  0  0  0  0  0  0  0  0
   36.6940   25.5820   31.8100 C   0  0  0  0  0  0  0  0  0  0  0  0
   36.9860   24.7910   31.1000 H   0  0  0  0  0  0  0  0  0  0  0  0
   35.7820   25.2290   32.3510 H   0  0  0  0  0  0  0  0  0  0  0  0
   37.7510   25.7480   32.8380 C   0  0  0  0  0  0  0  0  0  0  0  0
   38.7650   26.6570   32.5630 C   0  0  0  0  0  0  0  0  0  0  0  0
   39.7900   26.8800   33.4530 C   0  0  0  0  0  0  0  0  0  0  0  0
   39.8180   26.2230   34.5920 N   0  0  0  0  0  0  0  0  0  0  0  0
   38.8280   25.3330   34.8690 C   0  0  0  0  0  0  0  0  0  0  0  0
   37.8080   25.0920   34.0130 N   0  0  0  0  0  0  0  0  0  0  0  0
   38.7590   27.2050   31.6310 H   0  0  0  0  0  0  0  0  0  0  0  0
   40.5570   27.6110   33.1700 H   0  0  0  0  0  0  0  0  0  0  0  0
   38.8440   24.5950   36.1290 C   0  0  0  0  0  0  0  0  0  0  0  0
   39.7680   23.5620   36.3050 C   0  0  0  0  0  0  0  0  0  0  0  0
   40.4450   23.3560   35.4700 H   0  0  0  0  0  0  0  0  0  0  0  0
   39.8020   22.8530   37.4810 C   0  0  0  0  0  3  0  0  0  0  0  0
   38.9170   23.1770   38.4760 C   0  0  0  0  0  0  0  0  0  0  0  0
   38.9870   22.5930   39.3740 H   0  0  0  0  0  0  0  0  0  0  0  0
   37.9690   24.1970   38.3660 C   0  0  0  0  0  0  0  0  0  0  0  0
   37.2760   24.4330   39.1740 H   0  0  0  0  0  0  0  0  0  0  0  0
   37.9810   24.8700   37.1690 C   0  0  0  0  0  3  0  0  0  0  0  0
   35.4760   27.6530   31.8990 O   0  0  0  0  0  0  0  0  0  0  0  0
   36.4200   31.1070   31.4350 C   0  0  0  0  0  0  0  0  0  0  0  0
   35.9250   31.6660   32.6400 C   0  0  0  0  0  0  0  0  0  0  0  0
   35.2980   30.8090   33.5310 C   0  0  0  0  0  0  0  0  0  0  0  0
   35.2150   29.4900   33.1600 N   0  0  0  0  0  0  0  0  0  0  0  0
   35.6900   28.9920   32.0180 C   0  0  0  0  0  0  0  0  0  0  0  0
   36.2980   29.8190   31.1540 N   0  0  0  0  0  0  0  0  0  0  0  0
   36.9040   31.8170   30.7670 H   0  0  0  0  0  0  0  0  0  0  0  0
   35.9940   32.6910   32.9200 H   0  0  0  0  0  0  0  0  0  0  0  0
   36.6730   31.8490   35.8640 F   0  0  0  0  0  0  0  0  0  0  0  0
   35.3500   31.6710   35.8990 C   0  0  0  0  0  0  0  0  0  0  0  0
   34.7320   31.1870   34.8030 C   0  0  0  0  0  0  0  0  0  0  0  0
   33.3600   31.0460   34.9590 C   0  0  0  0  0  0  0  0  0  0  0  0
   32.7000   31.3710   36.1240 C   0  0  0  0  0  0  0  0  0  0  0  0
   33.3800   31.8600   37.2070 C   0  0  0  0  0  0  0  0  0  0  0  0
   34.7350   32.0100   37.0830 C   0  0  0  0  0  0  0  0  0  0  0  0
   32.7240   30.6640   34.1570 H   0  0  0  0  0  0  0  0  0  0  0  0
   31.6210   31.2470   36.2080 H   0  0  0  0  0  0  0  0  0  0  0  0
   32.8680   32.1170   38.1230 H   0  0  0  0  0  0  0  0  0  0  0  0
   35.2800   32.3930   37.9260 H   0  0  0  0  0  0  0  0  0  0  0  0
  1  4  1  0  0  0  0
  1 24  1  0  0  0  0
  2  1  1  0  0  0  0
  3  1  1  0  0  0  0
  4  6  1  0  0  0  0
  4  7  1  0  0  0  0
  5  4  1  0  0  0  0
  7 12  1  0  0  0  0
  8  7  2  0  0  0  0
  8  9  1  0  0  0  0
  9 10  2  0  0  0  0
 10 11  1  0  0  0  0
 11 15  1  0  0  0  0
 12 11  2  0  0  0  0
 13  8  1  0  0  0  0
 14  9  1  0  0  0  0
 15 16  2  0  0  0  0
 15 23  1  0  0  0  0
 16 18  1  0  0  0  0
 17 16  1  0  0  0  0
 18 19  2  0  0  0  0
 19 20  1  0  0  0  0
 21 19  1  0  0  0  0
 21 22  1  0  0  0  0
 23 21  2  0  0  0  0
 24 29  1  0  0  0  0
 25 26  1  0  0  0  0
 26 32  1  0  0  0  0
 26 27  2  0  0  0  0
 27 35  1  0  0  0  0
 28 27  1  0  0  0  0
 29 28  2  0  0  0  0
 30 25  2  0  0  0  0
 30 29  1  0  0  0  0
 31 25  1  0  0  0  0
 33 34  1  0  0  0  0
 34 39  1  0  0  0  0
 35 36  1  0  0  0  0
 35 34  2  0  0  0  0
 36 37  2  0  0  0  0
 37 41  1  0  0  0  0
 37 38  1  0  0  0  0
 38 42  1  0  0  0  0
 39 38  2  0  0  0  0
 39 43  1  0  0  0  0
 40 36  1  0  0  0  0
M  END
>  <minimizedAffinity>
-6.53784704

$$$$

 OpenBabel03272509563D

 43 46  0  0  0  0  0  0  0  0999 V2000
   38.5700   25.8970   34.3550 C   0  0  0  0  0  0  0  0  0  0  0  0
   38.2200   26.8540   33.8930 H   0  0  0  0  0  0  0  0  0  0  0  0
   39.5960   26.0620   34.7700 H   0  0  0  0  0  0  0  0  0  0  0  0
   37.6830   25.4190   35.4700 C   0  0  0  0  0  0  0  0  0  0  0  0
   36.7660   24.9380   35.0910 H   0  0  0  0  0  0  0  0  0  0  0  0
   37.3730   26.3010   36.0820 H   0  0  0  0  0  0  0  0  0  0  0  0
   38.3880   24.4960   36.3940 C   0  0  0  0  0  0  0  0  0  0  0  0
   37.9620   24.4750   37.7160 C   0  0  0  0  0  0  0  0  0  0  0  0
   38.5530   23.6540   38.6470 C   0  0  0  0  0  0  0  0  0  0  0  0
   39.5430   22.8670   38.2870 N   0  0  0  0  0  0  0  0  0  0  0  0
   39.9650   22.8800   36.9940 C   0  0  0  0  0  0  0  0  0  0  0  0
   39.4030   23.6780   36.0560 N   0  0  0  0  0  0  0  0  0  0  0  0
   37.1500   25.1170   38.0310 H   0  0  0  0  0  0  0  0  0  0  0  0
   38.1660   23.6900   39.6730 H   0  0  0  0  0  0  0  0  0  0  0  0
   41.0620   22.0130   36.5770 C   0  0  0  0  0  0  0  0  0  0  0  0
   41.4360   21.9820   35.2310 C   0  0  0  0  0  0  0  0  0  0  0  0
   40.8720   22.6240   34.5470 H   0  0  0  0  0  0  0  0  0  0  0  0
   42.4660   21.1740   34.8140 C   0  0  0  0  0  3  0  0  0  0  0  0
   43.1190   20.4020   35.7380 C   0  0  0  0  0  0  0  0  0  0  0  0
   43.9150   19.7900   35.3600 H   0  0  0  0  0  0  0  0  0  0  0  0
   42.7960   20.3850   37.0980 C   0  0  0  0  0  0  0  0  0  0  0  0
   43.3330   19.7600   37.8120 H   0  0  0  0  0  0  0  0  0  0  0  0
   41.7600   21.2110   37.4560 C   0  0  0  0  0  3  0  0  0  0  0  0
   38.6270   24.9310   33.3130 O   0  0  0  0  0  0  0  0  0  0  0  0
   35.5880   25.0250   31.3630 C   0  0  0  0  0  0  0  0  0  0  0  0
   35.2960   23.6400   31.2900 C   0  0  0  0  0  0  0  0  0  0  0  0
   36.1690   22.7680   31.9200 C   0  0  0  0  0  0  0  0  0  0  0  0
   37.2450   23.3320   32.5610 N   0  0  0  0  0  0  0  0  0  0  0  0
   37.4950   24.6400   32.6140 C   0  0  0  0  0  0  0  0  0  0  0  0
   36.6510   25.4870   32.0040 N   0  0  0  0  0  0  0  0  0  0  0  0
   34.8750   25.6700   30.8550 H   0  0  0  0  0  0  0  0  0  0  0  0
   34.4580   23.2110   30.7900 H   0  0  0  0  0  0  0  0  0  0  0  0
   35.3040   21.1040   34.1330 F   0  0  0  0  0  0  0  0  0  0  0  0
   35.6430   20.5380   32.9720 C   0  0  0  0  0  0  0  0  0  0  0  0
   36.0420   21.3320   31.9570 C   0  0  0  0  0  0  0  0  0  0  0  0
   36.3680   20.6310   30.8040 C   0  0  0  0  0  0  0  0  0  0  0  0
   36.2890   19.2590   30.7110 C   0  0  0  0  0  0  0  0  0  0  0  0
   35.8760   18.5030   31.7750 C   0  0  0  0  0  0  0  0  0  0  0  0
   35.5480   19.1660   32.9280 C   0  0  0  0  0  0  0  0  0  0  0  0
   36.7080   21.1380   29.8970 H   0  0  0  0  0  0  0  0  0  0  0  0
   36.5520   18.7450   29.7880 H   0  0  0  0  0  0  0  0  0  0  0  0
   35.8120   17.4270   31.7100 H   0  0  0  0  0  0  0  0  0  0  0  0
   35.2230   18.5840   33.7700 H   0  0  0  0  0  0  0  0  0  0  0  0
  1  3  1  0  0  0  0
  1  4  1  0  0  0  0
  2  1  1  0  0  0  0
  4  6  1  0  0  0  0
  4  7  1  0  0  0  0
  5  4  1  0  0  0  0
  7  8  1  0  0  0  0
  8 13  1  0  0  0  0
  8  9  2  0  0  0  0
  9 14  1  0  0  0  0
 10  9  1  0  0  0  0
 11 10  2  0  0  0  0
 12  7  2  0  0  0  0
 12 11  1  0  0  0  0
 15 11  1  0  0  0  0
 15 23  1  0  0  0  0
 16 15  2  0  0  0  0
 17 16  1  0  0  0  0
 18 16  1  0  0  0  0
 18 19  2  0  0  0  0
 19 21  1  0  0  0  0
 20 19  1  0  0  0  0
 21 23  2  0  0  0  0
 21 22  1  0  0  0  0
 24  1  1  0  0  0  0
 25 30  1  0  0  0  0
 26 25  2  0  0  0  0
 26 27  1  0  0  0  0
 27 35  1  0  0  0  0
 27 28  2  0  0  0  0
 28 29  1  0  0  0  0
 29 24  1  0  0  0  0
 30 29  2  0  0  0  0
 31 25  1  0  0  0  0
 32 26  1  0  0  0  0
 34 33  1  0  0  0  0
 35 34  2  0  0  0  0
 36 35  1  0  0  0  0
 37 36  2  0  0  0  0
 37 38  1  0  0  0  0
 38 39  2  0  0  0  0
 39 34  1  0  0  0  0
 39 43  1  0  0  0  0
 40 36  1  0  0  0  0
 41 37  1  0  0  0  0
 42 38  1  0  0  0  0
M  END
>  <minimizedAffinity>
-6.51233292

$$$$

 OpenBabel03272509563D

 43 46  0  0  0  0  0  0  0  0999 V2000
   37.3450   26.1030   34.4020 C   0  0  0  0  0  0  0  0  0  0  0  0
   36.7420   26.7000   35.1310 H   0  0  0  0  0  0  0  0  0  0  0  0
   36.8160   25.1340   34.2200 H   0  0  0  0  0  0  0  0  0  0  0  0
   37.5290   26.7950   33.0810 C   0  0  0  0  0  0  0  0  0  0  0  0
   37.3370   26.1200   32.2300 H   0  0  0  0  0  0  0  0  0  0  0  0
   38.5900   27.1400   33.0040 H   0  0  0  0  0  0  0  0  0  0  0  0
   36.6840   28.0090   32.9580 C   0  0  0  0  0  0  0  0  0  0  0  0
   36.4140   28.4650   31.6740 C   0  0  0  0  0  0  0  0  0  0  0  0
   35.6410   29.5820   31.4580 C   0  0  0  0  0  0  0  0  0  0  0  0
   35.1420   30.2380   32.4830 N   0  0  0  0  0  0  0  0  0  0  0  0
   35.4010   29.7970   33.7420 C   0  0  0  0  0  0  0  0  0  0  0  0
   36.1590   28.7020   33.9870 N   0  0  0  0  0  0  0  0  0  0  0  0
   36.8170   27.9390   30.8190 H   0  0  0  0  0  0  0  0  0  0  0  0
   35.4690   29.8860   30.4180 H   0  0  0  0  0  0  0  0  0  0  0  0
   34.8560   30.5130   34.8920 C   0  0  0  0  0  0  0  0  0  0  0  0
   33.5070   30.3570   35.2170 C   0  0  0  0  0  0  0  0  0  0  0  0
   32.9170   29.6920   34.5780 H   0  0  0  0  0  0  0  0  0  0  0  0
   32.9700   31.0200   36.2940 C   0  0  0  0  0  3  0  0  0  0  0  0
   33.7800   31.8330   37.0420 C   0  0  0  0  0  0  0  0  0  0  0  0
   33.3110   32.3270   37.8720 H   0  0  0  0  0  0  0  0  0  0  0  0
   35.1360   32.0330   36.7730 C   0  0  0  0  0  0  0  0  0  0  0  0
   35.7580   32.6870   37.3850 H   0  0  0  0  0  0  0  0  0  0  0  0
   35.6160   31.3460   35.6860 C   0  0  0  0  0  3  0  0  0  0  0  0
   38.6040   25.8530   35.0140 O   0  0  0  0  0  0  0  0  0  0  0  0
   38.0400   23.7230   37.8760 C   0  0  0  0  0  0  0  0  0  0  0  0
   39.2360   22.9640   37.8620 C   0  0  0  0  0  0  0  0  0  0  0  0
   40.1570   23.2410   36.8630 C   0  0  0  0  0  0  0  0  0  0  0  0
   39.8210   24.2310   35.9750 N   0  0  0  0  0  0  0  0  0  0  0  0
   38.6860   24.9300   36.0120 C   0  0  0  0  0  0  0  0  0  0  0  0
   37.7930   24.6650   36.9780 N   0  0  0  0  0  0  0  0  0  0  0  0
   37.3480   23.4720   38.6770 H   0  0  0  0  0  0  0  0  0  0  0  0
   39.4900   22.1960   38.5560 H   0  0  0  0  0  0  0  0  0  0  0  0
   42.6180   24.3480   35.8010 F   0  0  0  0  0  0  0  0  0  0  0  0
   42.5810   23.0720   36.1930 C   0  0  0  0  0  0  0  0  0  0  0  0
   41.4260   22.5790   36.6840 C   0  0  0  0  0  0  0  0  0  0  0  0
   41.5100   21.2440   37.0570 C   0  0  0  0  0  0  0  0  0  0  0  0
   42.6640   20.5020   36.9350 C   0  0  0  0  0  0  0  0  0  0  0  0
   43.8090   21.0560   36.4300 C   0  0  0  0  0  0  0  0  0  0  0  0
   43.7580   22.3710   36.0520 C   0  0  0  0  0  0  0  0  0  0  0  0
   40.6540   20.7060   37.4720 H   0  0  0  0  0  0  0  0  0  0  0  0
   42.6910   19.4570   37.2410 H   0  0  0  0  0  0  0  0  0  0  0  0
   44.7180   20.4800   36.3310 H   0  0  0  0  0  0  0  0  0  0  0  0
   44.6500   22.8170   35.6540 H   0  0  0  0  0  0  0  0  0  0  0  0
  1 24  1  0  0  0  0
  1  2  1  0  0  0  0
  3  1  1  0  0  0  0
  4  1  1  0  0  0  0
  5  4  1  0  0  0  0
  6  4  1  0  0  0  0
  7  4  1  0  0  0  0
  7 12  1  0  0  0  0
  8  7  2  0  0  0  0
  9  8  1  0  0  0  0
  9 10  2  0  0  0  0
 10 11  1  0  0  0  0
 11 12  2  0  0  0  0
 11 15  1  0  0  0  0
 13  8  1  0  0  0  0
 14  9  1  0  0  0  0
 15 16  2  0  0  0  0
 15 23  1  0  0  0  0
 16 18  1  0  0  0  0
 17 16  1  0  0  0  0
 18 19  2  0  0  0  0
 19 20  1  0  0  0  0
 21 19  1  0  0  0  0
 21 22  1  0  0  0  0
 23 21  2  0  0  0  0
 24 29  1  0  0  0  0
 25 31  1  0  0  0  0
 26 25  1  0  0  0  0
 26 32  1  0  0  0  0
 27 26  2  0  0  0  0
 28 29  2  0  0  0  0
 28 27  1  0  0  0  0
 29 30  1  0  0  0  0
 30 25  2  0  0  0  0
 33 34  1  0  0  0  0
 34 35  1  0  0  0  0
 35 27  1  0  0  0  0
 35 36  2  0  0  0  0
 36 40  1  0  0  0  0
 37 36  1  0  0  0  0
 37 41  1  0  0  0  0
 38 37  2  0  0  0  0
 39 34  2  0  0  0  0
 39 38  1  0  0  0  0
 42 38  1  0  0  0  0
 43 39  1  0  0  0  0
M  END
>  <minimizedAffinity>
-6.42210007

$$$$

 OpenBabel03272509563D

 43 46  0  0  0  0  0  0  0  0999 V2000
   36.9890   26.4170   31.6020 C   0  0  0  0  0  0  0  0  0  0  0  0
   38.0900   26.6030   31.6810 H   0  0  0  0  0  0  0  0  0  0  0  0
   36.6400   26.7910   30.6080 H   0  0  0  0  0  0  0  0  0  0  0  0
   36.6270   24.9630   31.7130 C   0  0  0  0  0  0  0  0  0  0  0  0
   36.4890   24.4940   30.7250 H   0  0  0  0  0  0  0  0  0  0  0  0
   35.6590   24.8770   32.2650 H   0  0  0  0  0  0  0  0  0  0  0  0
   37.6240   24.1920   32.4970 C   0  0  0  0  0  0  0  0  0  0  0  0
   38.5260   23.4130   31.7840 C   0  0  0  0  0  0  0  0  0  0  0  0
   39.4870   22.6630   32.4210 C   0  0  0  0  0  0  0  0  0  0  0  0
   39.5620   22.6790   33.7330 N   0  0  0  0  0  0  0  0  0  0  0  0
   38.6830   23.4400   34.4390 C   0  0  0  0  0  0  0  0  0  0  0  0
   37.7270   24.1870   33.8410 N   0  0  0  0  0  0  0  0  0  0  0  0
   38.4790   23.3870   30.7030 H   0  0  0  0  0  0  0  0  0  0  0  0
   40.1660   22.0710   31.7940 H   0  0  0  0  0  0  0  0  0  0  0  0
   38.7510   23.4680   35.8970 C   0  0  0  0  0  0  0  0  0  0  0  0
   39.7870   22.7930   36.5470 C   0  0  0  0  0  0  0  0  0  0  0  0
   40.5080   22.2670   35.9130 H   0  0  0  0  0  0  0  0  0  0  0  0
   39.8730   22.8060   37.9180 C   0  0  0  0  0  3  0  0  0  0  0  0
   38.9270   23.4910   38.6350 C   0  0  0  0  0  0  0  0  0  0  0  0
   39.0410   23.4690   39.7020 H   0  0  0  0  0  0  0  0  0  0  0  0
   37.8660   24.1860   38.0490 C   0  0  0  0  0  0  0  0  0  0  0  0
   37.1270   24.7230   38.6440 H   0  0  0  0  0  0  0  0  0  0  0  0
   37.8320   24.1390   36.6770 C   0  0  0  0  0  3  0  0  0  0  0  0
   36.3680   27.1660   32.6390 O   0  0  0  0  0  0  0  0  0  0  0  0
   36.3850   30.5900   31.4900 C   0  0  0  0  0  0  0  0  0  0  0  0
   35.8030   31.2320   32.6110 C   0  0  0  0  0  0  0  0  0  0  0  0
   35.4450   30.4370   33.6890 C   0  0  0  0  0  0  0  0  0  0  0  0
   35.6880   29.0920   33.5680 N   0  0  0  0  0  0  0  0  0  0  0  0
   36.2380   28.5140   32.4990 C   0  0  0  0  0  0  0  0  0  0  0  0
   36.5860   29.2810   31.4550 N   0  0  0  0  0  0  0  0  0  0  0  0
   36.6500   31.2530   30.6700 H   0  0  0  0  0  0  0  0  0  0  0  0
   35.6170   32.2780   32.6970 H   0  0  0  0  0  0  0  0  0  0  0  0
   36.6720   31.9940   35.8070 F   0  0  0  0  0  0  0  0  0  0  0  0
   35.3920   31.6270   35.9110 C   0  0  0  0  0  0  0  0  0  0  0  0
   34.8420   30.9040   34.9140 C   0  0  0  0  0  0  0  0  0  0  0  0
   33.5100   30.5830   35.1340 C   0  0  0  0  0  0  0  0  0  0  0  0
   32.8220   30.9680   36.2630 C   0  0  0  0  0  0  0  0  0  0  0  0
   33.4310   31.7040   37.2450 C   0  0  0  0  0  0  0  0  0  0  0  0
   34.7460   32.0360   37.0560 C   0  0  0  0  0  0  0  0  0  0  0  0
   32.9300   29.9990   34.4140 H   0  0  0  0  0  0  0  0  0  0  0  0
   31.7760   30.6980   36.4000 H   0  0  0  0  0  0  0  0  0  0  0  0
   32.8980   32.0100   38.1320 H   0  0  0  0  0  0  0  0  0  0  0  0
   35.2360   32.6130   37.8180 H   0  0  0  0  0  0  0  0  0  0  0  0
  1  2  1  0  0  0  0
  1  4  1  0  0  0  0
  1 24  1  0  0  0  0
  3  1  1  0  0  0  0
  4  6  1  0  0  0  0
  4  7  1  0  0  0  0
  5  4  1  0  0  0  0
  7 12  1  0  0  0  0
  8  9  1  0  0  0  0
  8  7  2  0  0  0  0
  9 10  2  0  0  0  0
 10 11  1  0  0  0  0
 11 15  1  0  0  0  0
 12 11  2  0  0  0  0
 13  8  1  0  0  0  0
 14  9  1  0  0  0  0
 15 16  2  0  0  0  0
 15 23  1  0  0  0  0
 16 18  1  0  0  0  0
 17 16  1  0  0  0  0
 18 19  2  0  0  0  0
 19 20  1  0  0  0  0
 21 19  1  0  0  0  0
 21 22  1  0  0  0  0
 23 21  2  0  0  0  0
 25 26  1  0  0  0  0
 26 32  1  0  0  0  0
 26 27  2  0  0  0  0
 27 35  1  0  0  0  0
 28 27  1  0  0  0  0
 29 24  1  0  0  0  0
 29 28  2  0  0  0  0
 30 25  2  0  0  0  0
 30 29  1  0  0  0  0
 31 25  1  0  0  0  0
 33 34  1  0  0  0  0
 34 39  1  0  0  0  0
 35 36  1  0  0  0  0
 35 34  2  0  0  0  0
 36 37  2  0  0  0  0
 37 41  1  0  0  0  0
 37 38  1  0  0  0  0
 38 42  1  0  0  0  0
 39 38  2  0  0  0  0
 39 43  1  0  0  0  0
 40 36  1  0  0  0  0
M  END
>  <minimizedAffinity>
-6.4126296

$$$$

 OpenBabel03272509563D

 43 46  0  0  0  0  0  0  0  0999 V2000
   35.5380   21.6420   32.3910 C   0  0  0  0  0  0  0  0  0  0  0  0
   35.6540   22.2140   33.3450 H   0  0  0  0  0  0  0  0  0  0  0  0
   34.5460   21.1250   32.4100 H   0  0  0  0  0  0  0  0  0  0  0  0
   35.5920   22.5130   31.1680 C   0  0  0  0  0  0  0  0  0  0  0  0
   34.6730   22.4360   30.5640 H   0  0  0  0  0  0  0  0  0  0  0  0
   36.4450   22.1790   30.5280 H   0  0  0  0  0  0  0  0  0  0  0  0
   35.8530   23.9360   31.5020 C   0  0  0  0  0  0  0  0  0  0  0  0
   35.1710   24.8950   30.7650 C   0  0  0  0  0  0  0  0  0  0  0  0
   35.3460   26.2390   31.0000 C   0  0  0  0  0  0  0  0  0  0  0  0
   36.1750   26.6330   31.9420 N   0  0  0  0  0  0  0  0  0  0  0  0
   36.8460   25.7000   32.6680 C   0  0  0  0  0  0  0  0  0  0  0  0
   36.6950   24.3710   32.4600 N   0  0  0  0  0  0  0  0  0  0  0  0
   34.4860   24.5900   29.9860 H   0  0  0  0  0  0  0  0  0  0  0  0
   34.7750   26.9410   30.3790 H   0  0  0  0  0  0  0  0  0  0  0  0
   37.7710   26.1200   33.7170 C   0  0  0  0  0  0  0  0  0  0  0  0
   37.3040   26.9250   34.7580 C   0  0  0  0  0  0  0  0  0  0  0  0
   36.2460   27.2050   34.7310 H   0  0  0  0  0  0  0  0  0  0  0  0
   38.1550   27.3330   35.7570 C   0  0  0  0  0  3  0  0  0  0  0  0
   39.4650   26.9360   35.7140 C   0  0  0  0  0  0  0  0  0  0  0  0
   40.0860   27.2820   36.5190 H   0  0  0  0  0  0  0  0  0  0  0  0
   39.9970   26.1310   34.7030 C   0  0  0  0  0  0  0  0  0  0  0  0
   41.0450   25.8300   34.6940 H   0  0  0  0  0  0  0  0  0  0  0  0
   39.1010   25.7550   33.7330 C   0  0  0  0  0  3  0  0  0  0  0  0
   36.5790   20.6740   32.3600 O   0  0  0  0  0  0  0  0  0  0  0  0
   40.1250   21.3510   32.4840 C   0  0  0  0  0  0  0  0  0  0  0  0
   40.2240   21.9280   33.7740 C   0  0  0  0  0  0  0  0  0  0  0  0
   39.0570   22.0440   34.5140 C   0  0  0  0  0  0  0  0  0  0  0  0
   37.9070   21.5850   33.9220 N   0  0  0  0  0  0  0  0  0  0  0  0
   37.8430   21.0460   32.7050 C   0  0  0  0  0  0  0  0  0  0  0  0
   38.9710   20.9320   31.9870 N   0  0  0  0  0  0  0  0  0  0  0  0
   41.0650   21.2800   31.9420 H   0  0  0  0  0  0  0  0  0  0  0  0
   41.1220   22.2820   34.2260 H   0  0  0  0  0  0  0  0  0  0  0  0
   40.9180   21.7630   36.7220 F   0  0  0  0  0  0  0  0  0  0  0  0
   39.8050   22.4850   36.8810 C   0  0  0  0  0  0  0  0  0  0  0  0
   38.9550   22.6020   35.8400 C   0  0  0  0  0  0  0  0  0  0  0  0
   37.8380   23.3750   36.1240 C   0  0  0  0  0  0  0  0  0  0  0  0
   37.6240   23.9630   37.3520 C   0  0  0  0  0  0  0  0  0  0  0  0
   38.5230   23.8100   38.3740 C   0  0  0  0  0  0  0  0  0  0  0  0
   39.6360   23.0530   38.1230 C   0  0  0  0  0  0  0  0  0  0  0  0
   37.0590   23.5600   35.3800 H   0  0  0  0  0  0  0  0  0  0  0  0
   36.7350   24.5640   37.5360 H   0  0  0  0  0  0  0  0  0  0  0  0
   38.3620   24.2680   39.3380 H   0  0  0  0  0  0  0  0  0  0  0  0
   40.3480   22.9250   38.9170 H   0  0  0  0  0  0  0  0  0  0  0  0
  1  3  1  0  0  0  0
  1  2  1  0  0  0  0
  4  7  1  0  0  0  0
  4  1  1  0  0  0  0
  5  4  1  0  0  0  0
  6  4  1  0  0  0  0
  7 12  1  0  0  0  0
  8  9  1  0  0  0  0
  8  7  2  0  0  0  0
  9 10  2  0  0  0  0
 10 11  1  0  0  0  0
 11 15  1  0  0  0  0
 12 11  2  0  0  0  0
 13  8  1  0  0  0  0
 14  9  1  0  0  0  0
 15 23  2  0  0  0  0
 15 16  1  0  0  0  0
 16 18  2  0  0  0  0
 17 16  1  0  0  0  0
 19 18  1  0  0  0  0
 19 20  1  0  0  0  0
 21 19  2  0  0  0  0
 22 21  1  0  0  0  0
 23 21  1  0  0  0  0
 24  1  1  0  0  0  0
 24 29  1  0  0  0  0
 25 26  1  0  0  0  0
 26 32  1  0  0  0  0
 26 27  2  0  0  0  0
 27 35  1  0  0  0  0
 28 27  1  0  0  0  0
 29 28  2  0  0  0  0
 30 25  2  0  0  0  0
 30 29  1  0  0  0  0
 31 25  1  0  0  0  0
 33 34  1  0  0  0  0
 34 39  1  0  0  0  0
 35 36  1  0  0  0  0
 35 34  2  0  0  0  0
 36 37  2  0  0  0  0
 37 41  1  0  0  0  0
 37 38  1  0  0  0  0
 38 42  1  0  0  0  0
 39 38  2  0  0  0  0
 39 43  1  0  0  0  0
 40 36  1  0  0  0  0
M  END
>  <minimizedAffinity>
-6.38412666

$$$$

 OpenBabel03272509563D

 43 46  0  0  0  0  0  0  0  0999 V2000
   36.1500   26.7360   30.9580 C   0  0  0  0  0  0  0  0  0  0  0  0
   37.2510   26.6200   30.7950 H   0  0  0  0  0  0  0  0  0  0  0  0
   35.7350   27.3540   30.1230 H   0  0  0  0  0  0  0  0  0  0  0  0
   35.4150   25.4250   30.9850 C   0  0  0  0  0  0  0  0  0  0  0  0
   34.6810   25.3460   30.1670 H   0  0  0  0  0  0  0  0  0  0  0  0
   34.8550   25.3500   31.9490 H   0  0  0  0  0  0  0  0  0  0  0  0
   36.3370   24.2630   30.9460 C   0  0  0  0  0  0  0  0  0  0  0  0
   37.6450   24.5050   30.5460 C   0  0  0  0  0  0  0  0  0  0  0  0
   38.5730   23.4920   30.4760 C   0  0  0  0  0  0  0  0  0  0  0  0
   38.2240   22.2650   30.7950 N   0  0  0  0  0  0  0  0  0  0  0  0
   36.9460   22.0200   31.1880 C   0  0  0  0  0  0  0  0  0  0  0  0
   36.0100   22.9950   31.2650 N   0  0  0  0  0  0  0  0  0  0  0  0
   37.9510   25.5080   30.2790 H   0  0  0  0  0  0  0  0  0  0  0  0
   39.5880   23.7560   30.1520 H   0  0  0  0  0  0  0  0  0  0  0  0
   36.5400   20.6640   31.5440 C   0  0  0  0  0  0  0  0  0  0  0  0
   35.7880   20.4570   32.7030 C   0  0  0  0  0  0  0  0  0  0  0  0
   35.5380   21.3430   33.2950 H   0  0  0  0  0  0  0  0  0  0  0  0
   35.3940   19.1900   33.0600 C   0  0  0  0  0  3  0  0  0  0  0  0
   35.7500   18.1360   32.2610 C   0  0  0  0  0  0  0  0  0  0  0  0
   35.4170   17.1680   32.5840 H   0  0  0  0  0  0  0  0  0  0  0  0
   36.5000   18.2720   31.0900 C   0  0  0  0  0  0  0  0  0  0  0  0
   36.7700   17.4150   30.4720 H   0  0  0  0  0  0  0  0  0  0  0  0
   36.8650   19.5600   30.7840 C   0  0  0  0  0  3  0  0  0  0  0  0
   35.9840   27.4260   32.1900 O   0  0  0  0  0  0  0  0  0  0  0  0
   36.3500   30.9370   31.4260 C   0  0  0  0  0  0  0  0  0  0  0  0
   35.7660   31.5070   32.5850 C   0  0  0  0  0  0  0  0  0  0  0  0
   35.2850   30.6380   33.5510 C   0  0  0  0  0  0  0  0  0  0  0  0
   35.4210   29.2960   33.2940 N   0  0  0  0  0  0  0  0  0  0  0  0
   35.9760   28.7880   32.1940 C   0  0  0  0  0  0  0  0  0  0  0  0
   36.4420   29.6270   31.2560 N   0  0  0  0  0  0  0  0  0  0  0  0
   36.7130   31.6570   30.6960 H   0  0  0  0  0  0  0  0  0  0  0  0
   35.6640   32.5500   32.7770 H   0  0  0  0  0  0  0  0  0  0  0  0
   32.5480   30.1800   34.3950 F   0  0  0  0  0  0  0  0  0  0  0  0
   33.3920   30.8230   35.2060 C   0  0  0  0  0  0  0  0  0  0  0  0
   34.6600   31.0240   34.7930 C   0  0  0  0  0  0  0  0  0  0  0  0
   35.4420   31.7010   35.7190 C   0  0  0  0  0  0  0  0  0  0  0  0
   34.9630   32.1230   36.9390 C   0  0  0  0  0  0  0  0  0  0  0  0
   33.6640   31.8900   37.3070 C   0  0  0  0  0  0  0  0  0  0  0  0
   32.8680   31.2240   36.4140 C   0  0  0  0  0  0  0  0  0  0  0  0
   36.4910   31.9380   35.5260 H   0  0  0  0  0  0  0  0  0  0  0  0
   35.6080   32.6510   37.6410 H   0  0  0  0  0  0  0  0  0  0  0  0
   33.2820   32.2190   38.2630 H   0  0  0  0  0  0  0  0  0  0  0  0
   31.8480   31.0360   36.6900 H   0  0  0  0  0  0  0  0  0  0  0  0
  1  4  1  0  0  0  0
  1 24  1  0  0  0  0
  2  1  1  0  0  0  0
  3  1  1  0  0  0  0
  4  6  1  0  0  0  0
  5  4  1  0  0  0  0
  7  4  1  0  0  0  0
  7 12  1  0  0  0  0
  8  7  2  0  0  0  0
  9  8  1  0  0  0  0
  9 10  2  0  0  0  0
 10 11  1  0  0  0  0
 11 12  2  0  0  0  0
 11 15  1  0  0  0  0
 13  8  1  0  0  0  0
 14  9  1  0  0  0  0
 15 16  1  0  0  0  0
 16 18  2  0  0  0  0
 16 17  1  0  0  0  0
 19 20  1  0  0  0  0
 19 18  1  0  0  0  0
 21 19  2  0  0  0  0
 22 21  1  0  0  0  0
 23 21  1  0  0  0  0
 23 15  2  0  0  0  0
 24 29  1  0  0  0  0
 25 26  1  0  0  0  0
 26 32  1  0  0  0  0
 26 27  2  0  0  0  0
 27 35  1  0  0  0  0
 28 27  1  0  0  0  0
 29 28  2  0  0  0  0
 30 25  2  0  0  0  0
 30 29  1  0  0  0  0
 31 25  1  0  0  0  0
 33 34  1  0  0  0  0
 34 39  1  0  0  0  0
 35 34  2  0  0  0  0
 35 36  1  0  0  0  0
 36 37  2  0  0  0  0
 37 38  1  0  0  0  0
 37 41  1  0  0  0  0
 38 42  1  0  0  0  0
 39 43  1  0  0  0  0
 39 38  2  0  0  0  0
 40 36  1  0  0  0  0
M  END
>  <minimizedAffinity>
-6.20380259

$$$$

 OpenBabel03272509563D

 43 46  0  0  0  0  0  0  0  0999 V2000
   36.4360   27.3000   31.4290 C   0  0  0  0  0  0  0  0  0  0  0  0
   36.9070   26.9280   30.4840 H   0  0  0  0  0  0  0  0  0  0  0  0
   35.5520   26.6530   31.6580 H   0  0  0  0  0  0  0  0  0  0  0  0
   37.3670   27.2630   32.6080 C   0  0  0  0  0  0  0  0  0  0  0  0
   37.0080   27.8930   33.4380 H   0  0  0  0  0  0  0  0  0  0  0  0
   38.3620   27.6590   32.2890 H   0  0  0  0  0  0  0  0  0  0  0  0
   37.6040   25.8810   33.0940 C   0  0  0  0  0  0  0  0  0  0  0  0
   37.4920   24.8540   32.1660 C   0  0  0  0  0  0  0  0  0  0  0  0
   37.6920   23.5400   32.5200 C   0  0  0  0  0  0  0  0  0  0  0  0
   37.9970   23.2410   33.7640 N   0  0  0  0  0  0  0  0  0  0  0  0
   38.1090   24.2400   34.6790 C   0  0  0  0  0  0  0  0  0  0  0  0
   37.9170   25.5410   34.3600 N   0  0  0  0  0  0  0  0  0  0  0  0
   37.2400   25.0810   31.1380 H   0  0  0  0  0  0  0  0  0  0  0  0
   37.5870   22.7810   31.7350 H   0  0  0  0  0  0  0  0  0  0  0  0
   38.4470   23.9260   36.0640 C   0  0  0  0  0  0  0  0  0  0  0  0
   37.6670   24.4550   37.0950 C   0  0  0  0  0  0  0  0  0  0  0  0
   36.8260   25.0920   36.8020 H   0  0  0  0  0  0  0  0  0  0  0  0
   37.9650   24.1730   38.4060 C   0  0  0  0  0  3  0  0  0  0  0  0
   39.0360   23.3660   38.6840 C   0  0  0  0  0  0  0  0  0  0  0  0
   39.2240   23.1770   39.7240 H   0  0  0  0  0  0  0  0  0  0  0  0
   39.8570   22.8040   37.7020 C   0  0  0  0  0  0  0  0  0  0  0  0
   40.7040   22.1650   37.9520 H   0  0  0  0  0  0  0  0  0  0  0  0
   39.5120   23.1200   36.4120 C   0  0  0  0  0  3  0  0  0  0  0  0
   36.0010   28.6300   31.1780 O   0  0  0  0  0  0  0  0  0  0  0  0
   33.5350   29.7200   33.5800 C   0  0  0  0  0  0  0  0  0  0  0  0
   34.1600   30.8970   34.0630 C   0  0  0  0  0  0  0  0  0  0  0  0
   35.3910   31.2340   33.5240 C   0  0  0  0  0  0  0  0  0  0  0  0
   35.8950   30.3890   32.5670 N   0  0  0  0  0  0  0  0  0  0  0  0
   35.2840   29.2870   32.1310 C   0  0  0  0  0  0  0  0  0  0  0  0
   34.0920   28.9580   32.6510 N   0  0  0  0  0  0  0  0  0  0  0  0
   32.5710   29.4970   34.0310 H   0  0  0  0  0  0  0  0  0  0  0  0
   33.7620   31.5480   34.8070 H   0  0  0  0  0  0  0  0  0  0  0  0
   36.0720   32.1770   36.1820 F   0  0  0  0  0  0  0  0  0  0  0  0
   36.5080   32.8440   35.1100 C   0  0  0  0  0  0  0  0  0  0  0  0
   36.1790   32.3870   33.8840 C   0  0  0  0  0  0  0  0  0  0  0  0
   36.6890   33.1620   32.8520 C   0  0  0  0  0  0  0  0  0  0  0  0
   37.4550   34.2870   33.0640 C   0  0  0  0  0  0  0  0  0  0  0  0
   37.7580   34.7050   34.3320 C   0  0  0  0  0  0  0  0  0  0  0  0
   37.2690   33.9610   35.3730 C   0  0  0  0  0  0  0  0  0  0  0  0
   36.5060   32.9170   31.8020 H   0  0  0  0  0  0  0  0  0  0  0  0
   37.8380   34.8690   32.2270 H   0  0  0  0  0  0  0  0  0  0  0  0
   38.3580   35.5860   34.5060 H   0  0  0  0  0  0  0  0  0  0  0  0
   37.5000   34.2780   36.3730 H   0  0  0  0  0  0  0  0  0  0  0  0
  1  3  1  0  0  0  0
  1  4  1  0  0  0  0
  2  1  1  0  0  0  0
  4  7  1  0  0  0  0
  4  5  1  0  0  0  0
  6  4  1  0  0  0  0
  7 12  1  0  0  0  0
  8  9  1  0  0  0  0
  8  7  2  0  0  0  0
  9 10  2  0  0  0  0
 10 11  1  0  0  0  0
 11 15  1  0  0  0  0
 12 11  2  0  0  0  0
 13  8  1  0  0  0  0
 14  9  1  0  0  0  0
 15 23  2  0  0  0  0
 15 16  1  0  0  0  0
 16 18  2  0  0  0  0
 17 16  1  0  0  0  0
 18 19  1  0  0  0  0
 19 20  1  0  0  0  0
 21 22  1  0  0  0  0
 21 19  2  0  0  0  0
 23 21  1  0  0  0  0
 24  1  1  0  0  0  0
 24 29  1  0  0  0  0
 25 31  1  0  0  0  0
 25 26  1  0  0  0  0
 26 32  1  0  0  0  0
 27 35  1  0  0  0  0
 27 26  2  0  0  0  0
 28 27  1  0  0  0  0
 29 28  2  0  0  0  0
 29 30  1  0  0  0  0
 30 25  2  0  0  0  0
 34 39  1  0  0  0  0
 34 33  1  0  0  0  0
 35 34  2  0  0  0  0
 36 37  2  0  0  0  0
 36 35  1  0  0  0  0
 37 38  1  0  0  0  0
 38 42  1  0  0  0  0
 38 39  2  0  0  0  0
 39 43  1  0  0  0  0
 40 36  1  0  0  0  0
 41 37  1  0  0  0  0
M  END
>  <minimizedAffinity>
-6.17830372

$$$$

 OpenBabel03272509563D

 43 46  0  0  0  0  0  0  0  0999 V2000
   38.3490   26.1970   33.9400 C   0  0  0  0  0  0  0  0  0  0  0  0
   39.4120   26.3110   34.2680 H   0  0  0  0  0  0  0  0  0  0  0  0
   38.2920   26.4250   32.8470 H   0  0  0  0  0  0  0  0  0  0  0  0
   37.8080   24.8130   34.1620 C   0  0  0  0  0  0  0  0  0  0  0  0
   37.9130   24.1790   33.2660 H   0  0  0  0  0  0  0  0  0  0  0  0
   36.7170   24.8890   34.3950 H   0  0  0  0  0  0  0  0  0  0  0  0
   38.4380   24.1420   35.3260 C   0  0  0  0  0  0  0  0  0  0  0  0
   37.8440   24.3370   36.5670 C   0  0  0  0  0  0  0  0  0  0  0  0
   38.3550   23.7580   37.7060 C   0  0  0  0  0  0  0  0  0  0  0  0
   39.4270   23.0010   37.6270 N   0  0  0  0  0  0  0  0  0  0  0  0
   40.0130   22.8040   36.4160 C   0  0  0  0  0  0  0  0  0  0  0  0
   39.5350   23.3610   35.2790 N   0  0  0  0  0  0  0  0  0  0  0  0
   36.9620   24.9570   36.6510 H   0  0  0  0  0  0  0  0  0  0  0  0
   37.8350   23.9550   38.6520 H   0  0  0  0  0  0  0  0  0  0  0  0
   41.2050   21.9680   36.3100 C   0  0  0  0  0  0  0  0  0  0  0  0
   41.6240   21.2320   37.4210 C   0  0  0  0  0  0  0  0  0  0  0  0
   41.0240   21.3250   38.3310 H   0  0  0  0  0  0  0  0  0  0  0  0
   42.7430   20.4370   37.3460 C   0  0  0  0  0  3  0  0  0  0  0  0
   43.4360   20.3780   36.1660 C   0  0  0  0  0  0  0  0  0  0  0  0
   44.3010   19.7420   36.1610 H   0  0  0  0  0  0  0  0  0  0  0  0
   43.0710   21.0870   35.0180 C   0  0  0  0  0  0  0  0  0  0  0  0
   43.6420   21.0220   34.0910 H   0  0  0  0  0  0  0  0  0  0  0  0
   41.9470   21.8640   35.1520 C   0  0  0  0  0  3  0  0  0  0  0  0
   37.5870   27.1530   34.6670 O   0  0  0  0  0  0  0  0  0  0  0  0
   35.4970   28.7820   32.2140 C   0  0  0  0  0  0  0  0  0  0  0  0
   34.8780   29.7660   33.0270 C   0  0  0  0  0  0  0  0  0  0  0  0
   35.2270   29.7970   34.3680 C   0  0  0  0  0  0  0  0  0  0  0  0
   36.1450   28.8670   34.7870 N   0  0  0  0  0  0  0  0  0  0  0  0
   36.7110   27.9530   33.9990 C   0  0  0  0  0  0  0  0  0  0  0  0
   36.3760   27.9190   32.7000 N   0  0  0  0  0  0  0  0  0  0  0  0
   35.1940   28.7960   31.1700 H   0  0  0  0  0  0  0  0  0  0  0  0
   34.1660   30.4850   32.6940 H   0  0  0  0  0  0  0  0  0  0  0  0
   36.6820   31.7790   35.9070 F   0  0  0  0  0  0  0  0  0  0  0  0
   35.3640   31.6470   36.0760 C   0  0  0  0  0  0  0  0  0  0  0  0
   34.7080   30.7190   35.3490 C   0  0  0  0  0  0  0  0  0  0  0  0
   33.3450   30.6750   35.6100 C   0  0  0  0  0  0  0  0  0  0  0  0
   32.7290   31.5010   36.5240 C   0  0  0  0  0  0  0  0  0  0  0  0
   33.4460   32.4270   37.2350 C   0  0  0  0  0  0  0  0  0  0  0  0
   34.7930   32.4940   36.9990 C   0  0  0  0  0  0  0  0  0  0  0  0
   32.6820   29.9730   35.0990 H   0  0  0  0  0  0  0  0  0  0  0  0
   31.6560   31.4370   36.7010 H   0  0  0  0  0  0  0  0  0  0  0  0
   32.9690   33.0780   37.9530 H   0  0  0  0  0  0  0  0  0  0  0  0
   35.3670   33.2160   37.5500 H   0  0  0  0  0  0  0  0  0  0  0  0
  1  4  1  0  0  0  0
  1  2  1  0  0  0  0
  1 24  1  0  0  0  0
  3  1  1  0  0  0  0
  4  6  1  0  0  0  0
  4  7  1  0  0  0  0
  5  4  1  0  0  0  0
  7  8  1  0  0  0  0
  8 13  1  0  0  0  0
  8  9  2  0  0  0  0
  9 14  1  0  0  0  0
 10  9  1  0  0  0  0
 11 10  2  0  0  0  0
 12  7  2  0  0  0  0
 12 11  1  0  0  0  0
 15 11  1  0  0  0  0
 15 16  1  0  0  0  0
 16 17  1  0  0  0  0
 18 16  2  0  0  0  0
 19 18  1  0  0  0  0
 20 19  1  0  0  0  0
 21 23  1  0  0  0  0
 21 19  2  0  0  0  0
 22 21  1  0  0  0  0
 23 15  2  0  0  0  0
 25 30  2  0  0  0  0
 25 26  1  0  0  0  0
 26 27  2  0  0  0  0
 27 28  1  0  0  0  0
 27 35  1  0  0  0  0
 29 24  1  0  0  0  0
 29 28  2  0  0  0  0
 30 29  1  0  0  0  0
 31 25  1  0  0  0  0
 32 26  1  0  0  0  0
 33 34  1  0  0  0  0
 34 39  1  0  0  0  0
 35 36  1  0  0  0  0
 35 34  2  0  0  0  0
 36 37  2  0  0  0  0
 37 41  1  0  0  0  0
 37 38  1  0  0  0  0
 38 42  1  0  0  0  0
 39 38  2  0  0  0  0
 39 43  1  0  0  0  0
 40 36  1  0  0  0  0
M  END
>  <minimizedAffinity>
-6.16854954

$$$$
