
 OpenBabel03272510223D

 36 39  0  0  0  0  0  0  0  0999 V2000
   35.2290   31.7430   31.9540 Br  0  0  0  0  0  0  0  0  0  0  0  0
   35.9160   30.0100   32.3560 C   0  0  0  0  0  0  0  0  0  0  0  0
   35.7940   29.4880   33.6400 C   0  0  0  0  0  0  0  0  0  0  0  0
   36.3160   28.2260   33.8580 C   0  0  0  0  0  0  0  0  0  0  0  0
   36.9410   27.4800   32.8740 C   0  0  0  0  0  0  0  0  0  0  0  0
   37.0410   28.0240   31.6320 C   0  0  0  0  0  0  0  0  0  0  0  0
   36.5270   29.2820   31.3910 C   0  0  0  0  0  0  0  0  0  0  0  0
   36.2500   27.7670   34.8360 H   0  0  0  0  0  0  0  0  0  0  0  0
   37.5110   27.5260   30.7930 H   0  0  0  0  0  0  0  0  0  0  0  0
   36.6070   29.7250   30.3910 H   0  0  0  0  0  0  0  0  0  0  0  0
   35.3880   31.7770   36.4500 C   0  0  0  0  0  0  0  0  0  0  0  0
   33.9950   31.7020   36.7350 C   0  0  0  0  0  0  0  0  0  0  0  0
   33.2210   30.8610   35.9510 C   0  0  0  0  0  0  0  0  0  0  0  0
   33.8160   30.1470   34.9490 N   0  0  0  0  0  0  0  0  0  0  0  0
   35.1430   30.2410   34.7040 C   0  0  0  0  0  0  0  0  0  0  0  0
   35.9170   31.0600   35.4610 N   0  0  0  0  0  0  0  0  0  0  0  0
   35.9550   32.4490   37.0900 H   0  0  0  0  0  0  0  0  0  0  0  0
   33.4920   32.2520   37.5190 H   0  0  0  0  0  0  0  0  0  0  0  0
   32.1650   30.7140   36.0610 H   0  0  0  0  0  0  0  0  0  0  0  0
   37.4830   26.1550   33.1240 C   0  0  0  0  0  0  0  0  0  0  0  0
   37.7860   25.2360   32.1390 C   0  0  0  0  0  0  0  0  0  0  0  0
   38.3010   23.9820   32.4130 C   0  0  0  0  0  0  0  0  0  0  0  0
   38.5200   23.6370   33.6950 N   0  0  0  0  0  0  0  0  0  0  0  0
   38.2320   24.5170   34.6610 C   0  0  0  0  0  0  0  0  0  0  0  0
   37.7380   25.7140   34.3670 N   0  0  0  0  0  0  0  0  0  0  0  0
   37.6070   25.5180   31.0990 H   0  0  0  0  0  0  0  0  0  0  0  0
   38.5170   23.3070   31.5840 H   0  0  0  0  0  0  0  0  0  0  0  0
   38.4680   24.1470   36.0530 C   0  0  0  0  0  0  0  0  0  0  0  0
   39.4810   23.2510   36.3760 C   0  0  0  0  0  0  0  0  0  0  0  0
   40.0550   22.8690   35.5430 H   0  0  0  0  0  0  0  0  0  0  0  0
   39.6820   22.9200   37.6990 C   0  0  0  0  0  3  0  0  0  0  0  0
   38.9350   23.4240   38.7350 C   0  0  0  0  0  0  0  0  0  0  0  0
   39.2150   23.0680   39.7110 H   0  0  0  0  0  0  0  0  0  0  0  0
   37.9300   24.3140   38.4120 C   0  0  0  0  0  0  0  0  0  0  0  0
   37.3520   24.7000   39.2390 H   0  0  0  0  0  0  0  0  0  0  0  0
   37.7260   24.6480   37.0870 C   0  0  0  0  0  3  0  0  0  0  0  0
  1  2  1  0  0  0  0
  2  3  1  0  0  0  0
  3  4  2  0  0  0  0
  3 15  1  0  0  0  0
  4  8  1  0  0  0  0
  5 20  1  0  0  0  0
  5  4  1  0  0  0  0
  6  5  2  0  0  0  0
  7  6  1  0  0  0  0
  7  2  2  0  0  0  0
  9  6  1  0  0  0  0
 10  7  1  0  0  0  0
 11 12  1  0  0  0  0
 11 17  1  0  0  0  0
 12 18  1  0  0  0  0
 13 19  1  0  0  0  0
 13 12  2  0  0  0  0
 14 13  1  0  0  0  0
 15 14  2  0  0  0  0
 15 16  1  0  0  0  0
 16 11  2  0  0  0  0
 20 25  1  0  0  0  0
 21 22  1  0  0  0  0
 21 20  2  0  0  0  0
 22 23  2  0  0  0  0
 23 24  1  0  0  0  0
 24 28  1  0  0  0  0
 25 24  2  0  0  0  0
 26 21  1  0  0  0  0
 27 22  1  0  0  0  0
 28 29  2  0  0  0  0
 28 36  1  0  0  0  0
 29 31  1  0  0  0  0
 30 29  1  0  0  0  0
 31 32  2  0  0  0  0
 32 33  1  0  0  0  0
 34 32  1  0  0  0  0
 34 35  1  0  0  0  0
 36 34  2  0  0  0  0
M  END
>  <minimizedAffinity>
-6.80488253

$$$$

 OpenBabel03272510223D

 36 39  0  0  0  0  0  0  0  0999 V2000
   35.6990   31.5470   31.7460 Br  0  0  0  0  0  0  0  0  0  0  0  0
   36.2350   29.7760   32.2090 C   0  0  0  0  0  0  0  0  0  0  0  0
   36.0080   29.2870   33.4920 C   0  0  0  0  0  0  0  0  0  0  0  0
   36.4230   27.9940   33.7550 C   0  0  0  0  0  0  0  0  0  0  0  0
   37.0420   27.1880   32.8170 C   0  0  0  0  0  0  0  0  0  0  0  0
   37.2470   27.7000   31.5740 C   0  0  0  0  0  0  0  0  0  0  0  0
   36.8410   28.9880   31.2880 C   0  0  0  0  0  0  0  0  0  0  0  0
   36.2730   27.5590   34.7350 H   0  0  0  0  0  0  0  0  0  0  0  0
   37.7220   27.1530   30.7680 H   0  0  0  0  0  0  0  0  0  0  0  0
   37.0050   29.4050   30.2880 H   0  0  0  0  0  0  0  0  0  0  0  0
   33.3490   30.7500   35.5140 C   0  0  0  0  0  0  0  0  0  0  0  0
   34.0500   31.6150   36.4010 C   0  0  0  0  0  0  0  0  0  0  0  0
   35.4310   31.6780   36.2840 C   0  0  0  0  0  0  0  0  0  0  0  0
   36.0540   30.9170   35.3360 N   0  0  0  0  0  0  0  0  0  0  0  0
   35.3600   30.1050   34.5080 C   0  0  0  0  0  0  0  0  0  0  0  0
   34.0070   30.0310   34.6080 N   0  0  0  0  0  0  0  0  0  0  0  0
   32.2700   30.7340   35.6430 H   0  0  0  0  0  0  0  0  0  0  0  0
   33.5890   32.2300   37.1620 H   0  0  0  0  0  0  0  0  0  0  0  0
   36.0730   32.2870   36.8880 H   0  0  0  0  0  0  0  0  0  0  0  0
   37.4710   25.8320   33.1140 C   0  0  0  0  0  0  0  0  0  0  0  0
   37.6060   24.8300   32.1740 C   0  0  0  0  0  0  0  0  0  0  0  0
   38.0170   23.5480   32.4920 C   0  0  0  0  0  0  0  0  0  0  0  0
   38.3010   23.2590   33.7750 N   0  0  0  0  0  0  0  0  0  0  0  0
   38.1760   24.2190   34.6990 C   0  0  0  0  0  0  0  0  0  0  0  0
   37.7780   25.4410   34.3620 N   0  0  0  0  0  0  0  0  0  0  0  0
   37.3750   25.0670   31.1320 H   0  0  0  0  0  0  0  0  0  0  0  0
   38.1010   22.8070   31.6960 H   0  0  0  0  0  0  0  0  0  0  0  0
   38.4830   23.9090   36.0920 C   0  0  0  0  0  0  0  0  0  0  0  0
   37.7000   24.4380   37.1130 C   0  0  0  0  0  0  0  0  0  0  0  0
   36.8800   25.0700   36.8000 H   0  0  0  0  0  0  0  0  0  0  0  0
   38.0120   24.1290   38.4200 C   0  0  0  0  0  3  0  0  0  0  0  0
   39.0610   23.3220   38.7850 C   0  0  0  0  0  0  0  0  0  0  0  0
   39.1750   23.1770   39.8450 H   0  0  0  0  0  0  0  0  0  0  0  0
   39.8370   22.7990   37.7690 C   0  0  0  0  0  0  0  0  0  0  0  0
   40.6580   22.1670   38.0750 H   0  0  0  0  0  0  0  0  0  0  0  0
   39.5260   23.1060   36.4590 C   0  0  0  0  0  3  0  0  0  0  0  0
  1  2  1  0  0  0  0
  2  3  1  0  0  0  0
  3  4  2  0  0  0  0
  3 15  1  0  0  0  0
  4  8  1  0  0  0  0
  5 20  1  0  0  0  0
  5  4  1  0  0  0  0
  6  5  2  0  0  0  0
  7  6  1  0  0  0  0
  7  2  2  0  0  0  0
  9  6  1  0  0  0  0
 10  7  1  0  0  0  0
 11 17  1  0  0  0  0
 11 12  1  0  0  0  0
 12 18  1  0  0  0  0
 13 12  2  0  0  0  0
 13 19  1  0  0  0  0
 14 13  1  0  0  0  0
 15 16  1  0  0  0  0
 15 14  2  0  0  0  0
 16 11  2  0  0  0  0
 20 25  1  0  0  0  0
 21 22  1  0  0  0  0
 21 20  2  0  0  0  0
 22 23  2  0  0  0  0
 23 24  1  0  0  0  0
 24 28  1  0  0  0  0
 25 24  2  0  0  0  0
 26 21  1  0  0  0  0
 27 22  1  0  0  0  0
 28 36  2  0  0  0  0
 28 29  1  0  0  0  0
 29 31  2  0  0  0  0
 30 29  1  0  0  0  0
 31 32  1  0  0  0  0
 32 33  1  0  0  0  0
 34 35  1  0  0  0  0
 34 32  2  0  0  0  0
 36 34  1  0  0  0  0
M  END
>  <minimizedAffinity>
-6.70335674

$$$$

 OpenBabel03272510223D

 36 39  0  0  0  0  0  0  0  0999 V2000
   38.2740   22.0890   33.3120 Br  0  0  0  0  0  0  0  0  0  0  0  0
   37.7740   23.9260   33.1990 C   0  0  0  0  0  0  0  0  0  0  0  0
   37.8640   24.7480   34.3190 C   0  0  0  0  0  0  0  0  0  0  0  0
   37.4850   26.0680   34.1620 C   0  0  0  0  0  0  0  0  0  0  0  0
   37.0280   26.5920   32.9660 C   0  0  0  0  0  0  0  0  0  0  0  0
   36.9530   25.7590   31.8940 C   0  0  0  0  0  0  0  0  0  0  0  0
   37.3270   24.4370   32.0270 C   0  0  0  0  0  0  0  0  0  0  0  0
   37.5330   26.7550   34.9970 H   0  0  0  0  0  0  0  0  0  0  0  0
   36.6090   26.0670   30.9140 H   0  0  0  0  0  0  0  0  0  0  0  0
   37.2680   23.7620   31.1650 H   0  0  0  0  0  0  0  0  0  0  0  0
   37.8520   23.8190   37.8450 C   0  0  0  0  0  0  0  0  0  0  0  0
   39.1560   23.2850   38.0480 C   0  0  0  0  0  0  0  0  0  0  0  0
   40.0170   23.2550   36.9610 C   0  0  0  0  0  0  0  0  0  0  0  0
   39.5860   23.7330   35.7560 N   0  0  0  0  0  0  0  0  0  0  0  0
   38.3410   24.2340   35.5960 C   0  0  0  0  0  0  0  0  0  0  0  0
   37.4840   24.2710   36.6490 N   0  0  0  0  0  0  0  0  0  0  0  0
   37.2130   23.8220   38.7250 H   0  0  0  0  0  0  0  0  0  0  0  0
   39.5290   22.8990   38.9870 H   0  0  0  0  0  0  0  0  0  0  0  0
   41.0210   22.8800   36.9800 H   0  0  0  0  0  0  0  0  0  0  0  0
   36.6330   27.9830   32.8230 C   0  0  0  0  0  0  0  0  0  0  0  0
   36.8400   28.7420   31.6890 C   0  0  0  0  0  0  0  0  0  0  0  0
   36.4510   30.0660   31.5860 C   0  0  0  0  0  0  0  0  0  0  0  0
   35.8420   30.6450   32.6370 N   0  0  0  0  0  0  0  0  0  0  0  0
   35.6320   29.9230   33.7440 C   0  0  0  0  0  0  0  0  0  0  0  0
   36.0180   28.6530   33.8110 N   0  0  0  0  0  0  0  0  0  0  0  0
   37.3360   28.2700   30.8370 H   0  0  0  0  0  0  0  0  0  0  0  0
   36.6490   30.6040   30.6590 H   0  0  0  0  0  0  0  0  0  0  0  0
   34.9710   30.5460   34.8860 C   0  0  0  0  0  0  0  0  0  0  0  0
   33.6200   30.3190   35.1200 C   0  0  0  0  0  0  0  0  0  0  0  0
   33.1210   29.6680   34.4130 H   0  0  0  0  0  0  0  0  0  0  0  0
   33.0210   30.9210   36.2060 C   0  0  0  0  0  3  0  0  0  0  0  0
   33.6810   31.7430   37.0850 C   0  0  0  0  0  0  0  0  0  0  0  0
   33.0750   32.1360   37.8820 H   0  0  0  0  0  0  0  0  0  0  0  0
   35.0240   31.9660   36.8500 C   0  0  0  0  0  0  0  0  0  0  0  0
   35.5270   32.6150   37.5520 H   0  0  0  0  0  0  0  0  0  0  0  0
   35.6270   31.3650   35.7630 C   0  0  0  0  0  3  0  0  0  0  0  0
  2  1  1  0  0  0  0
  2  3  1  0  0  0  0
  3 15  1  0  0  0  0
  4  3  2  0  0  0  0
  4  8  1  0  0  0  0
  5  4  1  0  0  0  0
  6  7  1  0  0  0  0
  6  5  2  0  0  0  0
  7  2  2  0  0  0  0
  9  6  1  0  0  0  0
 10  7  1  0  0  0  0
 11 12  1  0  0  0  0
 11 17  1  0  0  0  0
 12 18  1  0  0  0  0
 13 19  1  0  0  0  0
 13 12  2  0  0  0  0
 14 13  1  0  0  0  0
 15 14  2  0  0  0  0
 15 16  1  0  0  0  0
 16 11  2  0  0  0  0
 20  5  1  0  0  0  0
 20 25  1  0  0  0  0
 21 20  2  0  0  0  0
 22 21  1  0  0  0  0
 22 23  2  0  0  0  0
 23 24  1  0  0  0  0
 24 25  2  0  0  0  0
 24 28  1  0  0  0  0
 26 21  1  0  0  0  0
 27 22  1  0  0  0  0
 28 29  2  0  0  0  0
 28 36  1  0  0  0  0
 29 31  1  0  0  0  0
 30 29  1  0  0  0  0
 31 32  2  0  0  0  0
 32 33  1  0  0  0  0
 34 32  1  0  0  0  0
 34 35  1  0  0  0  0
 36 34  2  0  0  0  0
M  END
>  <minimizedAffinity>
-6.51535606

$$$$

 OpenBabel03272510223D

 36 39  0  0  0  0  0  0  0  0999 V2000
   39.0620   22.4690   35.3030 Br  0  0  0  0  0  0  0  0  0  0  0  0
   38.3260   24.1280   34.7170 C   0  0  0  0  0  0  0  0  0  0  0  0
   37.8100   24.2510   33.4300 C   0  0  0  0  0  0  0  0  0  0  0  0
   37.2930   25.4840   33.0750 C   0  0  0  0  0  0  0  0  0  0  0  0
   37.2710   26.5740   33.9270 C   0  0  0  0  0  0  0  0  0  0  0  0
   37.7840   26.4150   35.1760 C   0  0  0  0  0  0  0  0  0  0  0  0
   38.3050   25.1940   35.5530 C   0  0  0  0  0  0  0  0  0  0  0  0
   36.8780   25.6400   32.0880 H   0  0  0  0  0  0  0  0  0  0  0  0
   37.8150   27.2040   35.9190 H   0  0  0  0  0  0  0  0  0  0  0  0
   38.7200   25.0620   36.5590 H   0  0  0  0  0  0  0  0  0  0  0  0
   36.6620   21.2710   31.6690 C   0  0  0  0  0  0  0  0  0  0  0  0
   37.7390   20.9800   30.7840 C   0  0  0  0  0  0  0  0  0  0  0  0
   38.8420   21.8180   30.8110 C   0  0  0  0  0  0  0  0  0  0  0  0
   38.8530   22.8780   31.6750 N   0  0  0  0  0  0  0  0  0  0  0  0
   37.8150   23.1280   32.5040 C   0  0  0  0  0  0  0  0  0  0  0  0
   36.7260   22.3170   32.4900 N   0  0  0  0  0  0  0  0  0  0  0  0
   35.8200   20.5870   31.6120 H   0  0  0  0  0  0  0  0  0  0  0  0
   37.7620   20.1510   30.0880 H   0  0  0  0  0  0  0  0  0  0  0  0
   39.7140   21.7100   30.1980 H   0  0  0  0  0  0  0  0  0  0  0  0
   36.7230   27.8610   33.5340 C   0  0  0  0  0  0  0  0  0  0  0  0
   36.7950   28.3850   32.2590 C   0  0  0  0  0  0  0  0  0  0  0  0
   36.2620   29.6170   31.9200 C   0  0  0  0  0  0  0  0  0  0  0  0
   35.6450   30.3400   32.8710 N   0  0  0  0  0  0  0  0  0  0  0  0
   35.5670   29.8460   34.1130 C   0  0  0  0  0  0  0  0  0  0  0  0
   36.0880   28.6600   34.4080 N   0  0  0  0  0  0  0  0  0  0  0  0
   37.2970   27.7960   31.4880 H   0  0  0  0  0  0  0  0  0  0  0  0
   36.3570   29.9670   30.8910 H   0  0  0  0  0  0  0  0  0  0  0  0
   34.8990   30.6280   35.1490 C   0  0  0  0  0  0  0  0  0  0  0  0
   33.5340   30.4750   35.3670 C   0  0  0  0  0  0  0  0  0  0  0  0
   33.0320   29.7580   34.7310 H   0  0  0  0  0  0  0  0  0  0  0  0
   32.9290   31.2250   36.3520 C   0  0  0  0  0  3  0  0  0  0  0  0
   33.5940   32.1280   37.1430 C   0  0  0  0  0  0  0  0  0  0  0  0
   32.9810   32.6360   37.8670 H   0  0  0  0  0  0  0  0  0  0  0  0
   34.9500   32.2780   36.9240 C   0  0  0  0  0  0  0  0  0  0  0  0
   35.4570   32.9920   37.5550 H   0  0  0  0  0  0  0  0  0  0  0  0
   35.5590   31.5270   35.9380 C   0  0  0  0  0  3  0  0  0  0  0  0
  2  1  1  0  0  0  0
  2  7  1  0  0  0  0
  3  2  2  0  0  0  0
  4  3  1  0  0  0  0
  4  5  2  0  0  0  0
  5  6  1  0  0  0  0
  6  7  2  0  0  0  0
  6  9  1  0  0  0  0
  7 10  1  0  0  0  0
  8  4  1  0  0  0  0
 11 16  1  0  0  0  0
 12 13  1  0  0  0  0
 12 11  2  0  0  0  0
 13 14  2  0  0  0  0
 14 15  1  0  0  0  0
 15  3  1  0  0  0  0
 16 15  2  0  0  0  0
 17 11  1  0  0  0  0
 18 12  1  0  0  0  0
 19 13  1  0  0  0  0
 20  5  1  0  0  0  0
 20 25  1  0  0  0  0
 21 20  2  0  0  0  0
 22 21  1  0  0  0  0
 22 23  2  0  0  0  0
 23 24  1  0  0  0  0
 24 25  2  0  0  0  0
 24 28  1  0  0  0  0
 26 21  1  0  0  0  0
 27 22  1  0  0  0  0
 28 29  2  0  0  0  0
 28 36  1  0  0  0  0
 29 31  1  0  0  0  0
 30 29  1  0  0  0  0
 31 32  2  0  0  0  0
 32 33  1  0  0  0  0
 34 32  1  0  0  0  0
 34 35  1  0  0  0  0
 36 34  2  0  0  0  0
M  END
>  <minimizedAffinity>
-6.15843916

$$$$

 OpenBabel03272510223D

 36 39  0  0  0  0  0  0  0  0999 V2000
   34.3930   31.8430   32.2030 Br  0  0  0  0  0  0  0  0  0  0  0  0
   35.3520   30.2390   32.5810 C   0  0  0  0  0  0  0  0  0  0  0  0
   35.4640   29.7800   33.8910 C   0  0  0  0  0  0  0  0  0  0  0  0
   36.1740   28.6090   34.0890 C   0  0  0  0  0  0  0  0  0  0  0  0
   36.7650   27.8950   33.0630 C   0  0  0  0  0  0  0  0  0  0  0  0
   36.6350   28.3750   31.7970 C   0  0  0  0  0  0  0  0  0  0  0  0
   35.9310   29.5400   31.5750 C   0  0  0  0  0  0  0  0  0  0  0  0
   36.2940   28.2040   35.0850 H   0  0  0  0  0  0  0  0  0  0  0  0
   37.0590   27.8930   30.9240 H   0  0  0  0  0  0  0  0  0  0  0  0
   35.8240   29.9300   30.5560 H   0  0  0  0  0  0  0  0  0  0  0  0
   32.9260   30.8860   36.2640 C   0  0  0  0  0  0  0  0  0  0  0  0
   33.6240   31.8250   37.0750 C   0  0  0  0  0  0  0  0  0  0  0  0
   34.9590   32.0600   36.7870 C   0  0  0  0  0  0  0  0  0  0  0  0
   35.5450   31.3890   35.7510 N   0  0  0  0  0  0  0  0  0  0  0  0
   34.8550   30.5030   34.9990 C   0  0  0  0  0  0  0  0  0  0  0  0
   33.5460   30.2610   35.2670 N   0  0  0  0  0  0  0  0  0  0  0  0
   31.8820   30.7350   36.5270 H   0  0  0  0  0  0  0  0  0  0  0  0
   33.1910   32.3730   37.9020 H   0  0  0  0  0  0  0  0  0  0  0  0
   35.5940   32.7390   37.3190 H   0  0  0  0  0  0  0  0  0  0  0  0
   37.5080   26.6670   33.2920 C   0  0  0  0  0  0  0  0  0  0  0  0
   38.7330   26.6010   33.9240 C   0  0  0  0  0  0  0  0  0  0  0  0
   39.4140   25.4140   34.1260 C   0  0  0  0  0  0  0  0  0  0  0  0
   38.8600   24.2680   33.6890 N   0  0  0  0  0  0  0  0  0  0  0  0
   37.6730   24.3140   33.0750 C   0  0  0  0  0  0  0  0  0  0  0  0
   37.0440   25.4710   32.8960 N   0  0  0  0  0  0  0  0  0  0  0  0
   39.1810   27.5330   34.2780 H   0  0  0  0  0  0  0  0  0  0  0  0
   40.3790   25.4380   34.6330 H   0  0  0  0  0  0  0  0  0  0  0  0
   37.0690   23.0740   32.5990 C   0  0  0  0  0  0  0  0  0  0  0  0
   37.4160   21.8600   33.1810 C   0  0  0  0  0  0  0  0  0  0  0  0
   38.1400   21.9120   33.9830 H   0  0  0  0  0  0  0  0  0  0  0  0
   36.8300   20.7040   32.7130 C   0  0  0  0  0  3  0  0  0  0  0  0
   35.9120   20.6710   31.6920 C   0  0  0  0  0  0  0  0  0  0  0  0
   35.5460   19.6910   31.4410 H   0  0  0  0  0  0  0  0  0  0  0  0
   35.5690   21.8790   31.1150 C   0  0  0  0  0  0  0  0  0  0  0  0
   34.8460   21.8340   30.3140 H   0  0  0  0  0  0  0  0  0  0  0  0
   36.1540   23.0390   31.5830 C   0  0  0  0  0  3  0  0  0  0  0  0
  1  2  1  0  0  0  0
  2  3  1  0  0  0  0
  3  4  2  0  0  0  0
  3 15  1  0  0  0  0
  4  8  1  0  0  0  0
  5 20  1  0  0  0  0
  5  4  1  0  0  0  0
  6  5  2  0  0  0  0
  7  6  1  0  0  0  0
  7  2  2  0  0  0  0
  9  6  1  0  0  0  0
 10  7  1  0  0  0  0
 11 17  1  0  0  0  0
 11 12  1  0  0  0  0
 12 18  1  0  0  0  0
 13 12  2  0  0  0  0
 13 19  1  0  0  0  0
 14 13  1  0  0  0  0
 15 16  1  0  0  0  0
 15 14  2  0  0  0  0
 16 11  2  0  0  0  0
 20 21  1  0  0  0  0
 21 22  2  0  0  0  0
 21 26  1  0  0  0  0
 22 27  1  0  0  0  0
 23 22  1  0  0  0  0
 24 23  2  0  0  0  0
 25 24  1  0  0  0  0
 25 20  2  0  0  0  0
 28 24  1  0  0  0  0
 28 29  1  0  0  0  0
 29 30  1  0  0  0  0
 31 29  2  0  0  0  0
 32 31  1  0  0  0  0
 33 32  1  0  0  0  0
 34 36  1  0  0  0  0
 34 32  2  0  0  0  0
 35 34  1  0  0  0  0
 36 28  2  0  0  0  0
M  END
>  <minimizedAffinity>
-6.06901598

$$$$

 OpenBabel03272510223D

 36 39  0  0  0  0  0  0  0  0999 V2000
   39.8010   23.0210   35.8560 Br  0  0  0  0  0  0  0  0  0  0  0  0
   38.8460   24.5240   35.1720 C   0  0  0  0  0  0  0  0  0  0  0  0
   38.1410   24.4230   33.9770 C   0  0  0  0  0  0  0  0  0  0  0  0
   37.4720   25.5530   33.5430 C   0  0  0  0  0  0  0  0  0  0  0  0
   37.4780   26.7520   34.2330 C   0  0  0  0  0  0  0  0  0  0  0  0
   38.1780   26.8130   35.3970 C   0  0  0  0  0  0  0  0  0  0  0  0
   38.8530   25.6970   35.8500 C   0  0  0  0  0  0  0  0  0  0  0  0
   36.9060   25.5350   32.6210 H   0  0  0  0  0  0  0  0  0  0  0  0
   38.2470   27.7020   36.0130 H   0  0  0  0  0  0  0  0  0  0  0  0
   39.4190   25.7420   36.7870 H   0  0  0  0  0  0  0  0  0  0  0  0
   39.0520   21.9100   31.4960 C   0  0  0  0  0  0  0  0  0  0  0  0
   38.1250   20.8570   31.7410 C   0  0  0  0  0  0  0  0  0  0  0  0
   37.2020   21.0340   32.7600 C   0  0  0  0  0  0  0  0  0  0  0  0
   37.2170   22.1960   33.4790 N   0  0  0  0  0  0  0  0  0  0  0  0
   38.1100   23.1780   33.2210 C   0  0  0  0  0  0  0  0  0  0  0  0
   39.0220   23.0220   32.2270 N   0  0  0  0  0  0  0  0  0  0  0  0
   39.7560   21.7270   30.6880 H   0  0  0  0  0  0  0  0  0  0  0  0
   38.0860   19.9260   31.1920 H   0  0  0  0  0  0  0  0  0  0  0  0
   36.4540   20.3220   33.0440 H   0  0  0  0  0  0  0  0  0  0  0  0
   36.7690   27.9290   33.7600 C   0  0  0  0  0  0  0  0  0  0  0  0
   36.6700   28.3020   32.4350 C   0  0  0  0  0  0  0  0  0  0  0  0
   35.9860   29.4310   32.0190 C   0  0  0  0  0  0  0  0  0  0  0  0
   35.3890   30.2040   32.9440 N   0  0  0  0  0  0  0  0  0  0  0  0
   35.4750   29.8560   34.2330 C   0  0  0  0  0  0  0  0  0  0  0  0
   36.1390   28.7660   34.6010 N   0  0  0  0  0  0  0  0  0  0  0  0
   37.1560   27.6730   31.6850 H   0  0  0  0  0  0  0  0  0  0  0  0
   35.9500   29.6640   30.9540 H   0  0  0  0  0  0  0  0  0  0  0  0
   34.8280   30.6910   35.2410 C   0  0  0  0  0  0  0  0  0  0  0  0
   35.5760   31.6050   35.9760 C   0  0  0  0  0  0  0  0  0  0  0  0
   36.6330   31.6420   35.7460 H   0  0  0  0  0  0  0  0  0  0  0  0
   34.9400   32.3810   36.9200 C   0  0  0  0  0  3  0  0  0  0  0  0
   33.5950   32.3100   37.1880 C   0  0  0  0  0  0  0  0  0  0  0  0
   33.2490   32.9820   37.9540 H   0  0  0  0  0  0  0  0  0  0  0  0
   32.8550   31.4020   36.4560 C   0  0  0  0  0  0  0  0  0  0  0  0
   31.7990   31.3600   36.6800 H   0  0  0  0  0  0  0  0  0  0  0  0
   33.4890   30.6230   35.5090 C   0  0  0  0  0  3  0  0  0  0  0  0
  2  7  1  0  0  0  0
  2  1  1  0  0  0  0
  3  2  2  0  0  0  0
  4  3  1  0  0  0  0
  4  5  2  0  0  0  0
  5  6  1  0  0  0  0
  6  7  2  0  0  0  0
  6  9  1  0  0  0  0
  7 10  1  0  0  0  0
  8  4  1  0  0  0  0
 11 12  2  0  0  0  0
 11 16  1  0  0  0  0
 12 13  1  0  0  0  0
 13 19  1  0  0  0  0
 13 14  2  0  0  0  0
 15 14  1  0  0  0  0
 15  3  1  0  0  0  0
 16 15  2  0  0  0  0
 17 11  1  0  0  0  0
 18 12  1  0  0  0  0
 20  5  1  0  0  0  0
 20 25  1  0  0  0  0
 21 20  2  0  0  0  0
 22 21  1  0  0  0  0
 22 23  2  0  0  0  0
 23 24  1  0  0  0  0
 24 25  2  0  0  0  0
 24 28  1  0  0  0  0
 26 21  1  0  0  0  0
 27 22  1  0  0  0  0
 28 36  2  0  0  0  0
 28 29  1  0  0  0  0
 29 31  2  0  0  0  0
 30 29  1  0  0  0  0
 31 32  1  0  0  0  0
 32 33  1  0  0  0  0
 34 35  1  0  0  0  0
 34 32  2  0  0  0  0
 36 34  1  0  0  0  0
M  END
>  <minimizedAffinity>
-6.01592064

$$$$

 OpenBabel03272510223D

 36 39  0  0  0  0  0  0  0  0999 V2000
   35.5580   30.6390   35.1510 Br  0  0  0  0  0  0  0  0  0  0  0  0
   36.0120   29.0930   34.1310 C   0  0  0  0  0  0  0  0  0  0  0  0
   35.5310   28.9410   32.8340 C   0  0  0  0  0  0  0  0  0  0  0  0
   35.9020   27.7940   32.1550 C   0  0  0  0  0  0  0  0  0  0  0  0
   36.7120   26.8150   32.7020 C   0  0  0  0  0  0  0  0  0  0  0  0
   37.1630   26.9980   33.9710 C   0  0  0  0  0  0  0  0  0  0  0  0
   36.8060   28.1350   34.6680 C   0  0  0  0  0  0  0  0  0  0  0  0
   35.5580   27.6210   31.1440 H   0  0  0  0  0  0  0  0  0  0  0  0
   37.8010   26.2940   34.4910 H   0  0  0  0  0  0  0  0  0  0  0  0
   37.1670   28.2860   35.6920 H   0  0  0  0  0  0  0  0  0  0  0  0
   32.5000   30.7590   31.9350 C   0  0  0  0  0  0  0  0  0  0  0  0
   32.9840   31.8130   31.1090 C   0  0  0  0  0  0  0  0  0  0  0  0
   34.3500   31.8770   30.8770 C   0  0  0  0  0  0  0  0  0  0  0  0
   35.1660   30.9380   31.4430 N   0  0  0  0  0  0  0  0  0  0  0  0
   34.6760   29.9490   32.2230 C   0  0  0  0  0  0  0  0  0  0  0  0
   33.3410   29.8710   32.4610 N   0  0  0  0  0  0  0  0  0  0  0  0
   31.4240   30.7500   32.0880 H   0  0  0  0  0  0  0  0  0  0  0  0
   32.3670   32.5710   30.6460 H   0  0  0  0  0  0  0  0  0  0  0  0
   34.8390   32.6170   30.2770 H   0  0  0  0  0  0  0  0  0  0  0  0
   37.0900   25.6170   31.9720 C   0  0  0  0  0  0  0  0  0  0  0  0
   37.9750   25.5930   30.9120 C   0  0  0  0  0  0  0  0  0  0  0  0
   38.3120   24.4320   30.2390 C   0  0  0  0  0  0  0  0  0  0  0  0
   37.7560   23.2710   30.6300 N   0  0  0  0  0  0  0  0  0  0  0  0
   36.8970   23.2770   31.6560 C   0  0  0  0  0  0  0  0  0  0  0  0
   36.5930   24.4080   32.2830 N   0  0  0  0  0  0  0  0  0  0  0  0
   38.4240   26.5370   30.5960 H   0  0  0  0  0  0  0  0  0  0  0  0
   39.0180   24.4890   29.4100 H   0  0  0  0  0  0  0  0  0  0  0  0
   36.2920   22.0200   32.0850 C   0  0  0  0  0  0  0  0  0  0  0  0
   35.6480   21.2040   31.1600 C   0  0  0  0  0  0  0  0  0  0  0  0
   35.6360   21.5650   30.1400 H   0  0  0  0  0  0  0  0  0  0  0  0
   35.0860   20.0220   31.5920 C   0  0  0  0  0  3  0  0  0  0  0  0
   35.1190   19.5910   32.8960 C   0  0  0  0  0  0  0  0  0  0  0  0
   34.6340   18.6470   33.0740 H   0  0  0  0  0  0  0  0  0  0  0  0
   35.7580   20.4040   33.8110 C   0  0  0  0  0  0  0  0  0  0  0  0
   35.7740   20.0490   34.8320 H   0  0  0  0  0  0  0  0  0  0  0  0
   36.3230   21.5880   33.3810 C   0  0  0  0  0  3  0  0  0  0  0  0
  2  7  1  0  0  0  0
  2  1  1  0  0  0  0
  3  2  2  0  0  0  0
  4  5  2  0  0  0  0
  4  3  1  0  0  0  0
  5  6  1  0  0  0  0
  6  9  1  0  0  0  0
  6  7  2  0  0  0  0
  7 10  1  0  0  0  0
  8  4  1  0  0  0  0
 11 17  1  0  0  0  0
 11 16  1  0  0  0  0
 12 11  2  0  0  0  0
 13 12  1  0  0  0  0
 13 14  2  0  0  0  0
 14 15  1  0  0  0  0
 15 16  2  0  0  0  0
 15  3  1  0  0  0  0
 18 12  1  0  0  0  0
 19 13  1  0  0  0  0
 20 25  1  0  0  0  0
 20  5  1  0  0  0  0
 21 20  2  0  0  0  0
 22 23  2  0  0  0  0
 22 21  1  0  0  0  0
 23 24  1  0  0  0  0
 24 28  1  0  0  0  0
 24 25  2  0  0  0  0
 26 21  1  0  0  0  0
 27 22  1  0  0  0  0
 28 36  1  0  0  0  0
 29 31  1  0  0  0  0
 29 28  2  0  0  0  0
 30 29  1  0  0  0  0
 31 32  2  0  0  0  0
 32 33  1  0  0  0  0
 32 34  1  0  0  0  0
 34 35  1  0  0  0  0
 36 34  2  0  0  0  0
M  END
>  <minimizedAffinity>
-5.93096113

$$$$

 OpenBabel03272510223D

 36 39  0  0  0  0  0  0  0  0999 V2000
   40.1610   22.6610   37.0780 Br  0  0  0  0  0  0  0  0  0  0  0  0
   39.3400   24.0790   36.1020 C   0  0  0  0  0  0  0  0  0  0  0  0
   40.0030   24.6700   35.0300 C   0  0  0  0  0  0  0  0  0  0  0  0
   39.3460   25.6920   34.3700 C   0  0  0  0  0  0  0  0  0  0  0  0
   38.0860   26.1400   34.7240 C   0  0  0  0  0  0  0  0  0  0  0  0
   37.4690   25.5390   35.7760 C   0  0  0  0  0  0  0  0  0  0  0  0
   38.1060   24.5170   36.4500 C   0  0  0  0  0  0  0  0  0  0  0  0
   39.8120   26.1900   33.5290 H   0  0  0  0  0  0  0  0  0  0  0  0
   36.4840   25.8140   36.1340 H   0  0  0  0  0  0  0  0  0  0  0  0
   37.6120   24.0290   37.2990 H   0  0  0  0  0  0  0  0  0  0  0  0
   43.6420   24.4950   34.8610 C   0  0  0  0  0  0  0  0  0  0  0  0
   43.8760   23.4520   33.9210 C   0  0  0  0  0  0  0  0  0  0  0  0
   42.7720   22.8280   33.3610 C   0  0  0  0  0  0  0  0  0  0  0  0
   41.5200   23.2320   33.7300 N   0  0  0  0  0  0  0  0  0  0  0  0
   41.3300   24.2270   34.6260 C   0  0  0  0  0  0  0  0  0  0  0  0
   42.4000   24.8500   35.1850 N   0  0  0  0  0  0  0  0  0  0  0  0
   44.5370   24.9560   35.2730 H   0  0  0  0  0  0  0  0  0  0  0  0
   44.8530   23.1080   33.6080 H   0  0  0  0  0  0  0  0  0  0  0  0
   42.8120   22.0320   32.6450 H   0  0  0  0  0  0  0  0  0  0  0  0
   37.4130   27.2170   34.0170 C   0  0  0  0  0  0  0  0  0  0  0  0
   37.4270   27.3820   32.6460 C   0  0  0  0  0  0  0  0  0  0  0  0
   36.7750   28.4200   32.0060 C   0  0  0  0  0  0  0  0  0  0  0  0
   36.0930   29.3110   32.7470 N   0  0  0  0  0  0  0  0  0  0  0  0
   36.0680   29.1660   34.0770 C   0  0  0  0  0  0  0  0  0  0  0  0
   36.7050   28.1580   34.6630 N   0  0  0  0  0  0  0  0  0  0  0  0
   37.9830   26.6560   32.0470 H   0  0  0  0  0  0  0  0  0  0  0  0
   36.8300   28.4870   30.9190 H   0  0  0  0  0  0  0  0  0  0  0  0
   35.3290   30.1310   34.8850 C   0  0  0  0  0  0  0  0  0  0  0  0
   33.9380   30.1320   34.8730 C   0  0  0  0  0  0  0  0  0  0  0  0
   33.4710   29.3880   34.2420 H   0  0  0  0  0  0  0  0  0  0  0  0
   33.2660   31.0540   35.6460 C   0  0  0  0  0  3  0  0  0  0  0  0
   33.8880   31.9870   36.4380 C   0  0  0  0  0  0  0  0  0  0  0  0
   33.2250   32.6370   36.9810 H   0  0  0  0  0  0  0  0  0  0  0  0
   35.2700   31.9830   36.4480 C   0  0  0  0  0  0  0  0  0  0  0  0
   35.7420   32.7240   37.0760 H   0  0  0  0  0  0  0  0  0  0  0  0
   35.9460   31.0600   35.6750 C   0  0  0  0  0  3  0  0  0  0  0  0
  2  7  1  0  0  0  0
  2  1  1  0  0  0  0
  3  2  2  0  0  0  0
  4  5  2  0  0  0  0
  4  3  1  0  0  0  0
  5  6  1  0  0  0  0
  6  9  1  0  0  0  0
  6  7  2  0  0  0  0
  7 10  1  0  0  0  0
  8  4  1  0  0  0  0
 11 16  1  0  0  0  0
 11 17  1  0  0  0  0
 12 11  2  0  0  0  0
 13 14  2  0  0  0  0
 13 12  1  0  0  0  0
 14 15  1  0  0  0  0
 15  3  1  0  0  0  0
 15 16  2  0  0  0  0
 18 12  1  0  0  0  0
 19 13  1  0  0  0  0
 20 25  1  0  0  0  0
 20  5  1  0  0  0  0
 21 20  2  0  0  0  0
 22 21  1  0  0  0  0
 22 23  2  0  0  0  0
 23 24  1  0  0  0  0
 24 25  2  0  0  0  0
 24 28  1  0  0  0  0
 26 21  1  0  0  0  0
 27 22  1  0  0  0  0
 28 36  1  0  0  0  0
 29 28  2  0  0  0  0
 29 31  1  0  0  0  0
 30 29  1  0  0  0  0
 31 32  2  0  0  0  0
 32 34  1  0  0  0  0
 32 33  1  0  0  0  0
 34 35  1  0  0  0  0
 36 34  2  0  0  0  0
M  END
>  <minimizedAffinity>
-5.81350708

$$$$

 OpenBabel03272510223D

 36 39  0  0  0  0  0  0  0  0999 V2000
   41.1650   24.3660   34.8710 Br  0  0  0  0  0  0  0  0  0  0  0  0
   39.8310   25.5380   34.1760 C   0  0  0  0  0  0  0  0  0  0  0  0
   38.5760   25.6060   34.7740 C   0  0  0  0  0  0  0  0  0  0  0  0
   37.6600   26.4790   34.2150 C   0  0  0  0  0  0  0  0  0  0  0  0
   37.9340   27.2650   33.1100 C   0  0  0  0  0  0  0  0  0  0  0  0
   39.1700   27.1710   32.5530 C   0  0  0  0  0  0  0  0  0  0  0  0
   40.1020   26.3070   33.0940 C   0  0  0  0  0  0  0  0  0  0  0  0
   36.6680   26.5750   34.6370 H   0  0  0  0  0  0  0  0  0  0  0  0
   39.4860   27.7410   31.6880 H   0  0  0  0  0  0  0  0  0  0  0  0
   41.0990   26.2280   32.6470 H   0  0  0  0  0  0  0  0  0  0  0  0
   37.5420   22.7140   36.7400 C   0  0  0  0  0  0  0  0  0  0  0  0
   37.6110   23.1880   38.0800 C   0  0  0  0  0  0  0  0  0  0  0  0
   38.0140   24.4990   38.2820 C   0  0  0  0  0  0  0  0  0  0  0  0
   38.3250   25.2740   37.2000 N   0  0  0  0  0  0  0  0  0  0  0  0
   38.2490   24.7950   35.9380 C   0  0  0  0  0  0  0  0  0  0  0  0
   37.8560   23.5120   35.7220 N   0  0  0  0  0  0  0  0  0  0  0  0
   37.2220   21.6810   36.6310 H   0  0  0  0  0  0  0  0  0  0  0  0
   37.3730   22.6020   38.9580 H   0  0  0  0  0  0  0  0  0  0  0  0
   38.1080   24.9750   39.2360 H   0  0  0  0  0  0  0  0  0  0  0  0
   36.9560   28.1750   32.5380 C   0  0  0  0  0  0  0  0  0  0  0  0
   37.1220   28.8530   31.3460 C   0  0  0  0  0  0  0  0  0  0  0  0
   36.1690   29.7130   30.8300 C   0  0  0  0  0  0  0  0  0  0  0  0
   35.0270   29.9010   31.5160 N   0  0  0  0  0  0  0  0  0  0  0  0
   34.8500   29.2520   32.6720 C   0  0  0  0  0  0  0  0  0  0  0  0
   35.7840   28.4320   33.1420 N   0  0  0  0  0  0  0  0  0  0  0  0
   38.0510   28.6990   30.7920 H   0  0  0  0  0  0  0  0  0  0  0  0
   36.3690   30.2150   29.8830 H   0  0  0  0  0  0  0  0  0  0  0  0
   33.6130   29.4530   33.4200 C   0  0  0  0  0  0  0  0  0  0  0  0
   33.6470   30.0310   34.6840 C   0  0  0  0  0  0  0  0  0  0  0  0
   34.6270   30.3080   35.0500 H   0  0  0  0  0  0  0  0  0  0  0  0
   32.4630   30.2100   35.3670 C   0  0  0  0  0  3  0  0  0  0  0  0
   31.2340   29.8470   34.8740 C   0  0  0  0  0  0  0  0  0  0  0  0
   30.4040   30.0520   35.5280 H   0  0  0  0  0  0  0  0  0  0  0  0
   31.2030   29.2730   33.6190 C   0  0  0  0  0  0  0  0  0  0  0  0
   30.2280   28.9940   33.2470 H   0  0  0  0  0  0  0  0  0  0  0  0
   32.3880   29.0930   32.9310 C   0  0  0  0  0  3  0  0  0  0  0  0
  2  3  1  0  0  0  0
  2  1  1  0  0  0  0
  3 15  1  0  0  0  0
  4  8  1  0  0  0  0
  4  3  2  0  0  0  0
  5  4  1  0  0  0  0
  6  7  1  0  0  0  0
  6  5  2  0  0  0  0
  7  2  2  0  0  0  0
  9  6  1  0  0  0  0
 10  7  1  0  0  0  0
 11 12  1  0  0  0  0
 12 13  2  0  0  0  0
 12 18  1  0  0  0  0
 13 19  1  0  0  0  0
 14 13  1  0  0  0  0
 15 14  2  0  0  0  0
 16 15  1  0  0  0  0
 16 11  2  0  0  0  0
 17 11  1  0  0  0  0
 20  5  1  0  0  0  0
 20 25  1  0  0  0  0
 21 20  2  0  0  0  0
 22 21  1  0  0  0  0
 22 23  2  0  0  0  0
 23 24  1  0  0  0  0
 24 25  2  0  0  0  0
 24 28  1  0  0  0  0
 26 21  1  0  0  0  0
 27 22  1  0  0  0  0
 28 29  1  0  0  0  0
 29 30  1  0  0  0  0
 29 31  2  0  0  0  0
 32 31  1  0  0  0  0
 32 33  1  0  0  0  0
 34 32  2  0  0  0  0
 35 34  1  0  0  0  0
 36 28  2  0  0  0  0
 36 34  1  0  0  0  0
M  END
>  <minimizedAffinity>
-5.7551322

$$$$
