
 OpenBabel03272502123D

 26 28  0  0  0  0  0  0  0  0999 V2000
   36.6840   27.8510   33.5540 C   0  0  0  0  0  0  0  0  0  0  0  0
   36.7850   28.3440   32.2720 C   0  0  0  0  0  0  0  0  0  0  0  0
   36.2820   29.5800   31.8660 C   0  0  0  0  0  0  0  0  0  0  0  0
   35.6550   30.3300   32.8100 N   0  0  0  0  0  0  0  0  0  0  0  0
   35.5510   29.8560   34.0640 C   0  0  0  0  0  0  0  0  0  0  0  0
   36.0460   28.6600   34.4270 N   0  0  0  0  0  0  0  0  0  0  0  0
   37.2840   27.7650   31.4920 H   0  0  0  0  0  0  0  0  0  0  0  0
   36.3880   29.9220   30.8420 H   0  0  0  0  0  0  0  0  0  0  0  0
   37.5310   26.2300   35.2740 C   0  0  0  0  0  0  0  0  0  0  0  0
   37.2070   26.5830   33.9510 C   0  0  0  0  0  0  0  0  0  0  0  0
   37.4250   25.6050   32.9900 C   0  0  0  0  0  0  0  0  0  0  0  0
   37.9180   24.4020   33.3470 N   0  0  0  0  0  0  0  0  0  0  0  0
   38.2170   24.1060   34.6500 C   0  0  0  0  0  0  0  0  0  0  0  0
   38.0180   25.0360   35.6080 N   0  0  0  0  0  0  0  0  0  0  0  0
   37.3700   26.9750   36.0440 H   0  0  0  0  0  0  0  0  0  0  0  0
   37.1950   25.8100   31.9380 H   0  0  0  0  0  0  0  0  0  0  0  0
   38.6020   23.0910   34.7330 H   0  0  0  0  0  0  0  0  0  0  0  0
   34.8800   30.6350   35.1180 C   0  0  0  0  0  0  0  0  0  0  0  0
   35.6160   31.5050   35.8920 C   0  0  0  0  0  0  0  0  0  0  0  0
   36.6910   31.6530   35.7680 H   0  0  0  0  0  0  0  0  0  0  0  0
   35.0210   32.2560   36.8920 C   0  0  0  0  0  3  0  0  0  0  0  0
   33.6590   32.1350   37.1230 C   0  0  0  0  0  0  0  0  0  0  0  0
   33.0770   32.6680   37.8780 H   0  0  0  0  0  0  0  0  0  0  0  0
   32.9010   31.2700   36.3620 C   0  0  0  0  0  0  0  0  0  0  0  0
   31.8320   31.0910   36.4490 H   0  0  0  0  0  0  0  0  0  0  0  0
   33.5270   30.5390   35.3740 C   0  0  0  0  0  3  0  0  0  0  0  0
  1 10  1  0  0  0  0
  1  6  1  0  0  0  0
  2  1  2  0  0  0  0
  3  2  1  0  0  0  0
  3  4  2  0  0  0  0
  4  5  1  0  0  0  0
  5  6  2  0  0  0  0
  5 18  1  0  0  0  0
  7  2  1  0  0  0  0
  8  3  1  0  0  0  0
  9 14  1  0  0  0  0
  9 15  1  0  0  0  0
 10  9  2  0  0  0  0
 11 12  2  0  0  0  0
 11 10  1  0  0  0  0
 12 13  1  0  0  0  0
 13 17  1  0  0  0  0
 13 14  2  0  0  0  0
 16 11  1  0  0  0  0
 18 26  2  0  0  0  0
 18 19  1  0  0  0  0
 19 21  2  0  0  0  0
 20 19  1  0  0  0  0
 21 22  1  0  0  0  0
 22 23  1  0  0  0  0
 24 25  1  0  0  0  0
 24 22  2  0  0  0  0
 26 24  1  0  0  0  0
M  END
>  <minimizedAffinity>
-5.16062403

$$$$

 OpenBabel03272502123D

 26 28  0  0  0  0  0  0  0  0999 V2000
   36.0110   23.4820   31.6550 C   0  0  0  0  0  0  0  0  0  0  0  0
   35.2410   24.2860   30.8450 C   0  0  0  0  0  0  0  0  0  0  0  0
   35.2500   25.6800   30.8890 C   0  0  0  0  0  0  0  0  0  0  0  0
   36.0790   26.2630   31.7950 N   0  0  0  0  0  0  0  0  0  0  0  0
   36.8340   25.4850   32.5890 C   0  0  0  0  0  0  0  0  0  0  0  0
   36.8050   24.1430   32.5250 N   0  0  0  0  0  0  0  0  0  0  0  0
   34.5650   23.8470   30.1080 H   0  0  0  0  0  0  0  0  0  0  0  0
   34.6220   26.2680   30.2290 H   0  0  0  0  0  0  0  0  0  0  0  0
   34.9880   21.2460   32.1660 C   0  0  0  0  0  0  0  0  0  0  0  0
   35.9890   22.0550   31.5940 C   0  0  0  0  0  0  0  0  0  0  0  0
   37.0090   21.3840   30.9340 C   0  0  0  0  0  0  0  0  0  0  0  0
   37.0030   20.0380   30.8680 N   0  0  0  0  0  0  0  0  0  0  0  0
   36.0050   19.2950   31.4400 C   0  0  0  0  0  0  0  0  0  0  0  0
   35.0000   19.9170   32.0900 N   0  0  0  0  0  0  0  0  0  0  0  0
   34.1790   21.7440   32.6870 H   0  0  0  0  0  0  0  0  0  0  0  0
   37.8220   21.9500   30.4660 H   0  0  0  0  0  0  0  0  0  0  0  0
   36.1800   18.2320   31.2780 H   0  0  0  0  0  0  0  0  0  0  0  0
   37.7460   26.0740   33.5850 C   0  0  0  0  0  0  0  0  0  0  0  0
   37.2310   26.5940   34.7530 C   0  0  0  0  0  0  0  0  0  0  0  0
   36.1650   26.5950   34.9880 H   0  0  0  0  0  0  0  0  0  0  0  0
   38.0570   27.1560   35.7120 C   0  0  0  0  0  3  0  0  0  0  0  0
   39.4260   27.1990   35.5010 C   0  0  0  0  0  0  0  0  0  0  0  0
   40.1760   27.6140   36.1760 H   0  0  0  0  0  0  0  0  0  0  0  0
   39.9640   26.6860   34.3390 C   0  0  0  0  0  0  0  0  0  0  0  0
   41.0160   26.6630   34.0640 H   0  0  0  0  0  0  0  0  0  0  0  0
   39.1130   26.1330   33.4060 C   0  0  0  0  0  3  0  0  0  0  0  0
  1  6  1  0  0  0  0
  2  3  1  0  0  0  0
  2  1  2  0  0  0  0
  3  4  2  0  0  0  0
  4  5  1  0  0  0  0
  5 18  1  0  0  0  0
  6  5  2  0  0  0  0
  7  2  1  0  0  0  0
  8  3  1  0  0  0  0
  9 15  1  0  0  0  0
 10  1  1  0  0  0  0
 10  9  2  0  0  0  0
 11 10  1  0  0  0  0
 12 11  2  0  0  0  0
 12 13  1  0  0  0  0
 13 14  2  0  0  0  0
 14  9  1  0  0  0  0
 16 11  1  0  0  0  0
 17 13  1  0  0  0  0
 18 19  1  0  0  0  0
 19 20  1  0  0  0  0
 19 21  2  0  0  0  0
 22 21  1  0  0  0  0
 22 23  1  0  0  0  0
 24 22  2  0  0  0  0
 25 24  1  0  0  0  0
 26 18  2  0  0  0  0
 26 24  1  0  0  0  0
M  END
>  <minimizedAffinity>
-5.10536861

$$$$

 OpenBabel03272502123D

 26 28  0  0  0  0  0  0  0  0999 V2000
   37.5080   26.3930   33.3740 C   0  0  0  0  0  0  0  0  0  0  0  0
   37.8960   25.6290   32.2970 C   0  0  0  0  0  0  0  0  0  0  0  0
   38.5190   24.3860   32.4010 C   0  0  0  0  0  0  0  0  0  0  0  0
   38.7480   23.9150   33.6550 N   0  0  0  0  0  0  0  0  0  0  0  0
   38.3720   24.6550   34.7130 C   0  0  0  0  0  0  0  0  0  0  0  0
   37.7730   25.8510   34.5820 N   0  0  0  0  0  0  0  0  0  0  0  0
   37.7250   25.9800   31.2760 H   0  0  0  0  0  0  0  0  0  0  0  0
   38.8060   23.8230   31.5190 H   0  0  0  0  0  0  0  0  0  0  0  0
   36.7210   28.3660   32.0350 C   0  0  0  0  0  0  0  0  0  0  0  0
   36.8700   27.6650   33.2460 C   0  0  0  0  0  0  0  0  0  0  0  0
   36.3500   28.2830   34.3750 C   0  0  0  0  0  0  0  0  0  0  0  0
   35.7460   29.4830   34.2720 N   0  0  0  0  0  0  0  0  0  0  0  0
   35.6240   30.1260   33.0690 C   0  0  0  0  0  0  0  0  0  0  0  0
   36.1200   29.5520   31.9540 N   0  0  0  0  0  0  0  0  0  0  0  0
   37.1180   27.9050   31.1380 H   0  0  0  0  0  0  0  0  0  0  0  0
   36.4310   27.7940   35.3530 H   0  0  0  0  0  0  0  0  0  0  0  0
   35.1090   31.0770   33.1950 H   0  0  0  0  0  0  0  0  0  0  0  0
   38.6020   24.1830   36.0890 C   0  0  0  0  0  0  0  0  0  0  0  0
   37.7970   24.6450   37.1080 C   0  0  0  0  0  0  0  0  0  0  0  0
   36.9830   25.3550   36.9520 H   0  0  0  0  0  0  0  0  0  0  0  0
   37.9810   24.2240   38.4150 C   0  0  0  0  0  3  0  0  0  0  0  0
   38.9920   23.3220   38.7100 C   0  0  0  0  0  0  0  0  0  0  0  0
   39.2370   22.9180   39.6940 H   0  0  0  0  0  0  0  0  0  0  0  0
   39.8110   22.8460   37.7070 C   0  0  0  0  0  0  0  0  0  0  0  0
   40.6310   22.1400   37.8160 H   0  0  0  0  0  0  0  0  0  0  0  0
   39.5980   23.2860   36.4180 C   0  0  0  0  0  3  0  0  0  0  0  0
  1  6  1  0  0  0  0
  2  3  1  0  0  0  0
  2  1  2  0  0  0  0
  3  4  2  0  0  0  0
  4  5  1  0  0  0  0
  5 18  1  0  0  0  0
  6  5  2  0  0  0  0
  7  2  1  0  0  0  0
  8  3  1  0  0  0  0
  9 10  1  0  0  0  0
 10  1  1  0  0  0  0
 10 11  2  0  0  0  0
 11 16  1  0  0  0  0
 12 11  1  0  0  0  0
 13 17  1  0  0  0  0
 13 12  2  0  0  0  0
 14  9  2  0  0  0  0
 14 13  1  0  0  0  0
 15  9  1  0  0  0  0
 18 26  2  0  0  0  0
 18 19  1  0  0  0  0
 19 21  2  0  0  0  0
 20 19  1  0  0  0  0
 21 22  1  0  0  0  0
 22 23  1  0  0  0  0
 24 25  1  0  0  0  0
 24 22  2  0  0  0  0
 26 24  1  0  0  0  0
M  END
>  <minimizedAffinity>
-5.1031723

$$$$

 OpenBabel03272502123D

 26 28  0  0  0  0  0  0  0  0999 V2000
   38.3590   24.6250   36.0740 C   0  0  0  0  0  0  0  0  0  0  0  0
   37.6860   24.4290   37.2580 C   0  0  0  0  0  0  0  0  0  0  0  0
   38.1520   23.6320   38.3030 C   0  0  0  0  0  0  0  0  0  0  0  0
   39.3510   23.0170   38.1210 N   0  0  0  0  0  0  0  0  0  0  0  0
   40.0150   23.2030   36.9660 C   0  0  0  0  0  0  0  0  0  0  0  0
   39.5400   23.9780   35.9770 N   0  0  0  0  0  0  0  0  0  0  0  0
   36.7200   24.9100   37.4350 H   0  0  0  0  0  0  0  0  0  0  0  0
   37.5820   23.5100   39.2170 H   0  0  0  0  0  0  0  0  0  0  0  0
   37.7640   25.0450   33.6710 C   0  0  0  0  0  0  0  0  0  0  0  0
   37.8640   25.4470   35.0160 C   0  0  0  0  0  0  0  0  0  0  0  0
   37.4440   26.7400   35.2970 C   0  0  0  0  0  0  0  0  0  0  0  0
   36.9740   27.5290   34.3100 N   0  0  0  0  0  0  0  0  0  0  0  0
   36.8960   27.0910   33.0150 C   0  0  0  0  0  0  0  0  0  0  0  0
   37.2970   25.8390   32.7090 N   0  0  0  0  0  0  0  0  0  0  0  0
   38.0850   24.0400   33.4240 H   0  0  0  0  0  0  0  0  0  0  0  0
   37.4940   27.1210   36.3230 H   0  0  0  0  0  0  0  0  0  0  0  0
   36.4930   27.8710   32.3710 H   0  0  0  0  0  0  0  0  0  0  0  0
   41.3160   22.5560   36.7270 C   0  0  0  0  0  0  0  0  0  0  0  0
   42.3040   23.2460   36.0570 C   0  0  0  0  0  0  0  0  0  0  0  0
   42.1750   24.2640   35.6850 H   0  0  0  0  0  0  0  0  0  0  0  0
   43.5410   22.6720   35.8130 C   0  0  0  0  0  3  0  0  0  0  0  0
   43.7970   21.3800   36.2480 C   0  0  0  0  0  0  0  0  0  0  0  0
   44.7250   20.8210   36.1170 H   0  0  0  0  0  0  0  0  0  0  0  0
   42.8240   20.6700   36.9200 C   0  0  0  0  0  0  0  0  0  0  0  0
   42.9070   19.6570   37.3070 H   0  0  0  0  0  0  0  0  0  0  0  0
   41.6040   21.2730   37.1460 C   0  0  0  0  0  3  0  0  0  0  0  0
  1  2  1  0  0  0  0
  2  7  1  0  0  0  0
  2  3  2  0  0  0  0
  3  8  1  0  0  0  0
  4  3  1  0  0  0  0
  5  4  2  0  0  0  0
  6  1  2  0  0  0  0
  6  5  1  0  0  0  0
  9 10  1  0  0  0  0
 10 11  2  0  0  0  0
 10  1  1  0  0  0  0
 11 16  1  0  0  0  0
 12 11  1  0  0  0  0
 13 12  2  0  0  0  0
 14 13  1  0  0  0  0
 14  9  2  0  0  0  0
 15  9  1  0  0  0  0
 17 13  1  0  0  0  0
 18  5  1  0  0  0  0
 18 26  1  0  0  0  0
 19 18  2  0  0  0  0
 20 19  1  0  0  0  0
 21 19  1  0  0  0  0
 21 22  2  0  0  0  0
 22 24  1  0  0  0  0
 23 22  1  0  0  0  0
 24 26  2  0  0  0  0
 24 25  1  0  0  0  0
M  END
>  <minimizedAffinity>
-5.06584692

$$$$

 OpenBabel03272502123D

 26 28  0  0  0  0  0  0  0  0999 V2000
   38.3410   24.7740   34.7350 C   0  0  0  0  0  0  0  0  0  0  0  0
   38.7150   24.1120   33.5870 C   0  0  0  0  0  0  0  0  0  0  0  0
   38.5090   24.6020   32.2970 C   0  0  0  0  0  0  0  0  0  0  0  0
   37.8980   25.8120   32.1880 N   0  0  0  0  0  0  0  0  0  0  0  0
   37.5300   26.4640   33.3040 C   0  0  0  0  0  0  0  0  0  0  0  0
   37.7420   25.9670   34.5350 N   0  0  0  0  0  0  0  0  0  0  0  0
   39.2080   23.1390   33.6420 H   0  0  0  0  0  0  0  0  0  0  0  0
   38.8230   24.0400   31.4240 H   0  0  0  0  0  0  0  0  0  0  0  0
   39.5490   23.3070   36.3760 C   0  0  0  0  0  0  0  0  0  0  0  0
   38.5620   24.2550   36.0470 C   0  0  0  0  0  0  0  0  0  0  0  0
   37.7660   24.6940   37.0960 C   0  0  0  0  0  0  0  0  0  0  0  0
   37.9610   24.2150   38.3400 N   0  0  0  0  0  0  0  0  0  0  0  0
   38.9360   23.2920   38.6110 C   0  0  0  0  0  0  0  0  0  0  0  0
   39.7260   22.8450   37.6130 N   0  0  0  0  0  0  0  0  0  0  0  0
   40.1850   22.9470   35.5760 H   0  0  0  0  0  0  0  0  0  0  0  0
   36.9780   25.4320   36.9120 H   0  0  0  0  0  0  0  0  0  0  0  0
   38.9340   23.0320   39.6680 H   0  0  0  0  0  0  0  0  0  0  0  0
   36.8650   27.7760   33.2320 C   0  0  0  0  0  0  0  0  0  0  0  0
   36.3080   28.3190   34.3700 C   0  0  0  0  0  0  0  0  0  0  0  0
   36.3310   27.8220   35.3420 H   0  0  0  0  0  0  0  0  0  0  0  0
   35.6760   29.5510   34.3430 C   0  0  0  0  0  3  0  0  0  0  0  0
   35.5980   30.2570   33.1520 C   0  0  0  0  0  0  0  0  0  0  0  0
   35.1280   31.2300   33.0010 H   0  0  0  0  0  0  0  0  0  0  0  0
   36.1470   29.7340   31.9990 C   0  0  0  0  0  0  0  0  0  0  0  0
   36.1490   30.1910   31.0130 H   0  0  0  0  0  0  0  0  0  0  0  0
   36.7700   28.5050   32.0640 C   0  0  0  0  0  3  0  0  0  0  0  0
  1 10  1  0  0  0  0
  2  7  1  0  0  0  0
  2  1  2  0  0  0  0
  3  2  1  0  0  0  0
  4  3  2  0  0  0  0
  4  5  1  0  0  0  0
  5  6  2  0  0  0  0
  6  1  1  0  0  0  0
  8  3  1  0  0  0  0
  9 14  1  0  0  0  0
 10  9  2  0  0  0  0
 10 11  1  0  0  0  0
 11 12  2  0  0  0  0
 12 13  1  0  0  0  0
 13 17  1  0  0  0  0
 14 13  2  0  0  0  0
 15  9  1  0  0  0  0
 16 11  1  0  0  0  0
 18  5  1  0  0  0  0
 18 19  1  0  0  0  0
 19 20  1  0  0  0  0
 21 19  2  0  0  0  0
 22 21  1  0  0  0  0
 23 22  1  0  0  0  0
 24 26  1  0  0  0  0
 24 22  2  0  0  0  0
 25 24  1  0  0  0  0
 26 18  2  0  0  0  0
M  END
>  <minimizedAffinity>
-5.02449083

$$$$

 OpenBabel03272502123D

 26 28  0  0  0  0  0  0  0  0999 V2000
   38.1540   24.8280   34.8180 C   0  0  0  0  0  0  0  0  0  0  0  0
   38.4590   24.1390   33.6660 C   0  0  0  0  0  0  0  0  0  0  0  0
   38.2190   24.6180   32.3790 C   0  0  0  0  0  0  0  0  0  0  0  0
   37.6460   25.8470   32.2750 N   0  0  0  0  0  0  0  0  0  0  0  0
   37.3440   26.5270   33.3950 C   0  0  0  0  0  0  0  0  0  0  0  0
   37.5880   26.0390   34.6240 N   0  0  0  0  0  0  0  0  0  0  0  0
   38.9200   23.1500   33.7160 H   0  0  0  0  0  0  0  0  0  0  0  0
   38.4790   24.0340   31.5020 H   0  0  0  0  0  0  0  0  0  0  0  0
   37.7560   24.7570   37.2960 C   0  0  0  0  0  0  0  0  0  0  0  0
   38.4080   24.3200   36.1280 C   0  0  0  0  0  0  0  0  0  0  0  0
   39.3600   23.3240   36.2990 C   0  0  0  0  0  0  0  0  0  0  0  0
   39.6130   22.8340   37.5290 N   0  0  0  0  0  0  0  0  0  0  0  0
   38.9500   23.2920   38.6360 C   0  0  0  0  0  0  0  0  0  0  0  0
   38.0190   24.2600   38.5030 N   0  0  0  0  0  0  0  0  0  0  0  0
   37.0070   25.5340   37.1900 H   0  0  0  0  0  0  0  0  0  0  0  0
   39.9080   22.9360   35.4340 H   0  0  0  0  0  0  0  0  0  0  0  0
   39.2940   22.7730   39.5300 H   0  0  0  0  0  0  0  0  0  0  0  0
   36.7230   27.8600   33.3300 C   0  0  0  0  0  0  0  0  0  0  0  0
   36.6350   28.5090   32.1170 C   0  0  0  0  0  0  0  0  0  0  0  0
   37.0070   28.0840   31.1830 H   0  0  0  0  0  0  0  0  0  0  0  0
   36.0570   29.7640   32.0160 C   0  0  0  0  0  3  0  0  0  0  0  0
   35.5560   30.3840   33.1500 C   0  0  0  0  0  0  0  0  0  0  0  0
   35.0820   31.3650   33.2000 H   0  0  0  0  0  0  0  0  0  0  0  0
   35.6340   29.7540   34.3750 C   0  0  0  0  0  0  0  0  0  0  0  0
   35.2780   30.1380   35.3280 H   0  0  0  0  0  0  0  0  0  0  0  0
   36.2140   28.5050   34.4390 C   0  0  0  0  0  3  0  0  0  0  0  0
  1 10  1  0  0  0  0
  2  7  1  0  0  0  0
  2  1  2  0  0  0  0
  3  2  1  0  0  0  0
  4  3  2  0  0  0  0
  4  5  1  0  0  0  0
  5  6  2  0  0  0  0
  6  1  1  0  0  0  0
  8  3  1  0  0  0  0
  9 14  1  0  0  0  0
 10 11  1  0  0  0  0
 10  9  2  0  0  0  0
 11 12  2  0  0  0  0
 12 13  1  0  0  0  0
 13 17  1  0  0  0  0
 14 13  2  0  0  0  0
 15  9  1  0  0  0  0
 16 11  1  0  0  0  0
 18  5  1  0  0  0  0
 18 26  1  0  0  0  0
 19 18  2  0  0  0  0
 20 19  1  0  0  0  0
 21 19  1  0  0  0  0
 21 22  2  0  0  0  0
 22 23  1  0  0  0  0
 22 24  1  0  0  0  0
 24 26  2  0  0  0  0
 24 25  1  0  0  0  0
M  END
>  <minimizedAffinity>
-5.01030159

$$$$

 OpenBabel03272502123D

 26 28  0  0  0  0  0  0  0  0999 V2000
   37.6910   24.9570   32.7150 C   0  0  0  0  0  0  0  0  0  0  0  0
   37.5080   23.7840   32.0160 C   0  0  0  0  0  0  0  0  0  0  0  0
   37.5990   22.5130   32.5820 C   0  0  0  0  0  0  0  0  0  0  0  0
   37.8870   22.4480   33.9090 N   0  0  0  0  0  0  0  0  0  0  0  0
   38.0670   23.5880   34.5980 C   0  0  0  0  0  0  0  0  0  0  0  0
   37.9730   24.8000   34.0260 N   0  0  0  0  0  0  0  0  0  0  0  0
   37.2760   23.8040   30.9490 H   0  0  0  0  0  0  0  0  0  0  0  0
   37.4470   21.6190   31.9860 H   0  0  0  0  0  0  0  0  0  0  0  0
   38.2670   26.6420   30.9450 C   0  0  0  0  0  0  0  0  0  0  0  0
   37.5930   26.2500   32.1170 C   0  0  0  0  0  0  0  0  0  0  0  0
   36.7860   27.2140   32.7060 C   0  0  0  0  0  0  0  0  0  0  0  0
   36.6830   28.4390   32.1550 N   0  0  0  0  0  0  0  0  0  0  0  0
   37.3580   28.7730   31.0120 C   0  0  0  0  0  0  0  0  0  0  0  0
   38.1510   27.8590   30.4160 N   0  0  0  0  0  0  0  0  0  0  0  0
   38.9030   25.9090   30.4640 H   0  0  0  0  0  0  0  0  0  0  0  0
   36.2320   26.9780   33.6220 H   0  0  0  0  0  0  0  0  0  0  0  0
   37.1450   29.8030   30.7290 H   0  0  0  0  0  0  0  0  0  0  0  0
   38.3810   23.5640   36.0370 C   0  0  0  0  0  0  0  0  0  0  0  0
   39.4670   22.8420   36.4830 C   0  0  0  0  0  0  0  0  0  0  0  0
   40.1210   22.2750   35.8180 H   0  0  0  0  0  0  0  0  0  0  0  0
   39.7940   22.7950   37.8280 C   0  0  0  0  0  3  0  0  0  0  0  0
   39.0190   23.4850   38.7480 C   0  0  0  0  0  0  0  0  0  0  0  0
   39.1720   23.5260   39.8280 H   0  0  0  0  0  0  0  0  0  0  0  0
   37.9270   24.2140   38.3250 C   0  0  0  0  0  0  0  0  0  0  0  0
   37.2490   24.7930   38.9490 H   0  0  0  0  0  0  0  0  0  0  0  0
   37.6310   24.2390   36.9790 C   0  0  0  0  0  3  0  0  0  0  0  0
  1  6  1  0  0  0  0
  2  3  1  0  0  0  0
  2  1  2  0  0  0  0
  3  4  2  0  0  0  0
  4  5  1  0  0  0  0
  5 18  1  0  0  0  0
  6  5  2  0  0  0  0
  7  2  1  0  0  0  0
  8  3  1  0  0  0  0
  9 10  1  0  0  0  0
 10 11  2  0  0  0  0
 10  1  1  0  0  0  0
 11 16  1  0  0  0  0
 12 11  1  0  0  0  0
 13 12  2  0  0  0  0
 14  9  2  0  0  0  0
 14 13  1  0  0  0  0
 15  9  1  0  0  0  0
 17 13  1  0  0  0  0
 18 19  2  0  0  0  0
 18 26  1  0  0  0  0
 19 21  1  0  0  0  0
 20 19  1  0  0  0  0
 21 22  2  0  0  0  0
 22 23  1  0  0  0  0
 24 22  1  0  0  0  0
 24 25  1  0  0  0  0
 26 24  2  0  0  0  0
M  END
>  <minimizedAffinity>
-4.84520483

$$$$

 OpenBabel03272502123D

 26 28  0  0  0  0  0  0  0  0999 V2000
   38.5340   25.7690   33.1480 C   0  0  0  0  0  0  0  0  0  0  0  0
   39.3040   26.9060   33.0510 C   0  0  0  0  0  0  0  0  0  0  0  0
   40.4670   27.1300   33.7860 C   0  0  0  0  0  0  0  0  0  0  0  0
   40.8500   26.1520   34.6490 N   0  0  0  0  0  0  0  0  0  0  0  0
   40.1030   25.0380   34.7500 C   0  0  0  0  0  0  0  0  0  0  0  0
   38.9850   24.8500   34.0280 N   0  0  0  0  0  0  0  0  0  0  0  0
   39.0230   27.7100   32.3660 H   0  0  0  0  0  0  0  0  0  0  0  0
   41.0390   28.0450   33.6720 H   0  0  0  0  0  0  0  0  0  0  0  0
   36.8090   24.2950   32.0740 C   0  0  0  0  0  0  0  0  0  0  0  0
   37.3450   25.5580   32.3860 C   0  0  0  0  0  0  0  0  0  0  0  0
   36.6420   26.6530   31.9020 C   0  0  0  0  0  0  0  0  0  0  0  0
   35.5190   26.4720   31.1800 N   0  0  0  0  0  0  0  0  0  0  0  0
   35.0370   25.2200   30.9030 C   0  0  0  0  0  0  0  0  0  0  0  0
   35.6970   24.1360   31.3580 N   0  0  0  0  0  0  0  0  0  0  0  0
   37.3380   23.4220   32.4400 H   0  0  0  0  0  0  0  0  0  0  0  0
   37.0020   27.6680   32.1060 H   0  0  0  0  0  0  0  0  0  0  0  0
   34.1250   25.2850   30.3110 H   0  0  0  0  0  0  0  0  0  0  0  0
   40.4790   23.9530   35.6720 C   0  0  0  0  0  0  0  0  0  0  0  0
   39.5320   23.4250   36.5230 C   0  0  0  0  0  0  0  0  0  0  0  0
   38.4970   23.7720   36.5540 H   0  0  0  0  0  0  0  0  0  0  0  0
   39.8480   22.4040   37.4030 C   0  0  0  0  0  3  0  0  0  0  0  0
   41.1390   21.8980   37.4350 C   0  0  0  0  0  0  0  0  0  0  0  0
   41.5100   21.1010   38.0800 H   0  0  0  0  0  0  0  0  0  0  0  0
   42.1040   22.4120   36.5940 C   0  0  0  0  0  0  0  0  0  0  0  0
   43.1440   22.0980   36.5280 H   0  0  0  0  0  0  0  0  0  0  0  0
   41.7540   23.4270   35.7300 C   0  0  0  0  0  3  0  0  0  0  0  0
  1  6  1  0  0  0  0
  2  1  2  0  0  0  0
  2  3  1  0  0  0  0
  3  4  2  0  0  0  0
  4  5  1  0  0  0  0
  5 18  1  0  0  0  0
  6  5  2  0  0  0  0
  7  2  1  0  0  0  0
  8  3  1  0  0  0  0
  9 10  1  0  0  0  0
  9 15  1  0  0  0  0
 10  1  1  0  0  0  0
 11 16  1  0  0  0  0
 11 10  2  0  0  0  0
 12 11  1  0  0  0  0
 13 12  2  0  0  0  0
 13 14  1  0  0  0  0
 14  9  2  0  0  0  0
 17 13  1  0  0  0  0
 18 26  2  0  0  0  0
 18 19  1  0  0  0  0
 19 20  1  0  0  0  0
 19 21  2  0  0  0  0
 21 22  1  0  0  0  0
 22 23  1  0  0  0  0
 24 22  2  0  0  0  0
 25 24  1  0  0  0  0
 26 24  1  0  0  0  0
M  END
>  <minimizedAffinity>
-4.84346485

$$$$

 OpenBabel03272502123D

 26 28  0  0  0  0  0  0  0  0999 V2000
   35.5370   29.9430   34.2200 C   0  0  0  0  0  0  0  0  0  0  0  0
   35.6060   30.3000   32.8930 C   0  0  0  0  0  0  0  0  0  0  0  0
   36.2080   29.5240   31.9030 C   0  0  0  0  0  0  0  0  0  0  0  0
   36.7570   28.3430   32.2940 N   0  0  0  0  0  0  0  0  0  0  0  0
   36.6940   27.9880   33.5890 C   0  0  0  0  0  0  0  0  0  0  0  0
   36.1060   28.7570   34.5220 N   0  0  0  0  0  0  0  0  0  0  0  0
   35.1740   31.2430   32.5470 H   0  0  0  0  0  0  0  0  0  0  0  0
   36.2360   29.8520   30.8690 H   0  0  0  0  0  0  0  0  0  0  0  0
   35.6010   31.6300   36.0800 C   0  0  0  0  0  0  0  0  0  0  0  0
   34.9140   30.7520   35.2200 C   0  0  0  0  0  0  0  0  0  0  0  0
   33.5370   30.6940   35.3830 C   0  0  0  0  0  0  0  0  0  0  0  0
   32.9340   31.4510   36.3210 N   0  0  0  0  0  0  0  0  0  0  0  0
   33.6460   32.2910   37.1340 C   0  0  0  0  0  0  0  0  0  0  0  0
   34.9860   32.3700   37.0010 N   0  0  0  0  0  0  0  0  0  0  0  0
   36.6770   31.6950   35.9730 H   0  0  0  0  0  0  0  0  0  0  0  0
   32.9390   30.0320   34.7480 H   0  0  0  0  0  0  0  0  0  0  0  0
   32.9820   32.8120   37.8220 H   0  0  0  0  0  0  0  0  0  0  0  0
   37.2750   26.7180   34.0560 C   0  0  0  0  0  0  0  0  0  0  0  0
   37.6630   26.5920   35.3730 C   0  0  0  0  0  0  0  0  0  0  0  0
   37.5630   27.3960   36.1050 H   0  0  0  0  0  0  0  0  0  0  0  0
   38.2130   25.4140   35.8500 C   0  0  0  0  0  3  0  0  0  0  0  0
   38.3780   24.3370   34.9930 C   0  0  0  0  0  0  0  0  0  0  0  0
   38.7980   23.3620   35.2460 H   0  0  0  0  0  0  0  0  0  0  0  0
   37.9990   24.4390   33.6710 C   0  0  0  0  0  0  0  0  0  0  0  0
   38.0790   23.6670   32.9090 H   0  0  0  0  0  0  0  0  0  0  0  0
   37.4540   25.6270   33.2300 C   0  0  0  0  0  3  0  0  0  0  0  0
  1  6  1  0  0  0  0
  1 10  1  0  0  0  0
  2  1  2  0  0  0  0
  3  4  2  0  0  0  0
  3  2  1  0  0  0  0
  4  5  1  0  0  0  0
  5 18  1  0  0  0  0
  5  6  2  0  0  0  0
  7  2  1  0  0  0  0
  8  3  1  0  0  0  0
  9 14  1  0  0  0  0
 10 11  1  0  0  0  0
 10  9  2  0  0  0  0
 11 12  2  0  0  0  0
 12 13  1  0  0  0  0
 13 17  1  0  0  0  0
 14 13  2  0  0  0  0
 15  9  1  0  0  0  0
 16 11  1  0  0  0  0
 18 19  1  0  0  0  0
 19 21  2  0  0  0  0
 19 20  1  0  0  0  0
 22 23  1  0  0  0  0
 22 21  1  0  0  0  0
 24 22  2  0  0  0  0
 25 24  1  0  0  0  0
 26 24  1  0  0  0  0
 26 18  2  0  0  0  0
M  END
>  <minimizedAffinity>
-4.83918095

$$$$
