
 OpenBabel03272504543D

 25 27  0  0  0  0  0  0  0  0999 V2000
   37.0680   25.9720   32.8190 C   0  0  0  0  0  0  0  0  0  0  0  0
   36.6910   27.2750   33.1940 C   0  0  0  0  0  0  0  0  0  0  0  0
   36.9480   27.6190   34.5090 C   0  0  0  0  0  0  0  0  0  0  0  0
   37.5330   26.7280   35.3520 N   0  0  0  0  0  0  0  0  0  0  0  0
   37.8850   25.4840   34.9600 C   0  0  0  0  0  0  0  0  0  0  0  0
   37.6470   25.1050   33.6740 N   0  0  0  0  0  0  0  0  0  0  0  0
   36.2310   27.9670   32.5200 H   0  0  0  0  0  0  0  0  0  0  0  0
   36.7020   28.5920   34.9130 H   0  0  0  0  0  0  0  0  0  0  0  0
   38.5080   24.5870   35.9250 C   0  0  0  0  0  0  0  0  0  0  0  0
   39.6350   23.8720   35.5970 C   0  0  0  0  0  0  0  0  0  0  0  0
   40.1080   23.9330   34.6370 H   0  0  0  0  0  0  0  0  0  0  0  0
   40.1590   23.0430   36.5760 C   0  0  0  0  0  3  0  0  0  0  0  0
   39.5630   22.9500   37.8200 C   0  0  0  0  0  0  0  0  0  0  0  0
   39.9410   22.3130   38.6160 H   0  0  0  0  0  0  0  0  0  0  0  0
   38.4280   23.6680   38.1550 C   0  0  0  0  0  0  0  0  0  0  0  0
   37.9480   23.6110   39.1130 H   0  0  0  0  0  0  0  0  0  0  0  0
   37.9030   24.5020   37.1630 C   0  0  0  0  0  3  0  0  0  0  0  0
   36.8270   25.5620   31.3890 C   0  0  0  0  0  0  0  0  0  0  0  0
   36.8410   24.1630   30.9890 C   0  0  0  0  0  0  0  0  0  0  0  0
   35.5100   24.8360   31.1900 C   0  0  0  0  0  0  0  0  0  0  0  0
   37.0630   26.3780   30.6750 H   0  0  0  0  0  0  0  0  0  0  0  0
   37.1110   23.8880   29.9530 H   0  0  0  0  0  0  0  0  0  0  0  0
   37.0880   23.3720   31.7390 H   0  0  0  0  0  0  0  0  0  0  0  0
   34.8810   24.5940   32.0510 H   0  0  0  0  0  0  0  0  0  0  0  0
   34.9760   25.1230   30.2660 H   0  0  0  0  0  0  0  0  0  0  0  0
  1  2  2  0  0  0  0
  1  6  1  0  0  0  0
  2  3  1  0  0  0  0
  3  8  1  0  0  0  0
  3  4  2  0  0  0  0
  5  4  1  0  0  0  0
  5  9  1  0  0  0  0
  6  5  2  0  0  0  0
  7  2  1  0  0  0  0
  9 17  1  0  0  0  0
 10  9  2  0  0  0  0
 10 12  1  0  0  0  0
 11 10  1  0  0  0  0
 12 13  2  0  0  0  0
 13 15  1  0  0  0  0
 13 14  1  0  0  0  0
 15 16  1  0  0  0  0
 17 15  2  0  0  0  0
 18  1  1  0  0  0  0
 19 20  1  0  0  0  0
 19 18  1  0  0  0  0
 19 23  1  0  0  0  0
 20 18  1  0  0  0  0
 20 24  1  0  0  0  0
 21 18  1  0  0  0  0
 22 19  1  0  0  0  0
 25 20  1  0  0  0  0
M  END
>  <minimizedAffinity>
-4.77741718

$$$$

 OpenBabel03272504543D

 25 27  0  0  0  0  0  0  0  0999 V2000
   38.4200   24.4590   36.2120 C   0  0  0  0  0  0  0  0  0  0  0  0
   39.6950   24.0460   35.7830 C   0  0  0  0  0  0  0  0  0  0  0  0
   40.1980   24.7070   34.6760 C   0  0  0  0  0  0  0  0  0  0  0  0
   39.4760   25.6880   34.0740 N   0  0  0  0  0  0  0  0  0  0  0  0
   38.2540   26.0610   34.5120 C   0  0  0  0  0  0  0  0  0  0  0  0
   37.7220   25.4340   35.5970 N   0  0  0  0  0  0  0  0  0  0  0  0
   40.2530   23.2730   36.2670 H   0  0  0  0  0  0  0  0  0  0  0  0
   41.1660   24.4760   34.2540 H   0  0  0  0  0  0  0  0  0  0  0  0
   37.5430   27.1220   33.8090 C   0  0  0  0  0  0  0  0  0  0  0  0
   37.7770   27.3630   32.4760 C   0  0  0  0  0  0  0  0  0  0  0  0
   38.4770   26.7990   31.8940 H   0  0  0  0  0  0  0  0  0  0  0  0
   37.0560   28.3910   31.8900 C   0  0  0  0  0  3  0  0  0  0  0  0
   36.1480   29.1300   32.6250 C   0  0  0  0  0  0  0  0  0  0  0  0
   35.5620   29.9440   32.2040 H   0  0  0  0  0  0  0  0  0  0  0  0
   35.9090   28.8910   33.9670 C   0  0  0  0  0  0  0  0  0  0  0  0
   35.2100   29.4510   34.5580 H   0  0  0  0  0  0  0  0  0  0  0  0
   36.6390   27.8530   34.5540 C   0  0  0  0  0  3  0  0  0  0  0  0
   37.8430   23.7810   37.4290 C   0  0  0  0  0  0  0  0  0  0  0  0
   38.6920   23.3520   38.5320 C   0  0  0  0  0  0  0  0  0  0  0  0
   37.9200   24.6360   38.6810 C   0  0  0  0  0  0  0  0  0  0  0  0
   36.8710   23.2930   37.2150 H   0  0  0  0  0  0  0  0  0  0  0  0
   38.3810   22.5040   39.1690 H   0  0  0  0  0  0  0  0  0  0  0  0
   39.8000   23.4740   38.4600 H   0  0  0  0  0  0  0  0  0  0  0  0
   38.4270   25.6040   38.6540 H   0  0  0  0  0  0  0  0  0  0  0  0
   37.0190   24.5790   39.3180 H   0  0  0  0  0  0  0  0  0  0  0  0
  1 18  1  0  0  0  0
  2  1  1  0  0  0  0
  2  7  1  0  0  0  0
  3  2  2  0  0  0  0
  4  5  2  0  0  0  0
  4  3  1  0  0  0  0
  5  6  1  0  0  0  0
  6  1  2  0  0  0  0
  8  3  1  0  0  0  0
  9  5  1  0  0  0  0
  9 17  1  0  0  0  0
 10  9  2  0  0  0  0
 11 10  1  0  0  0  0
 12 10  1  0  0  0  0
 12 13  2  0  0  0  0
 13 15  1  0  0  0  0
 14 13  1  0  0  0  0
 15 17  2  0  0  0  0
 15 16  1  0  0  0  0
 18 19  1  0  0  0  0
 18 20  1  0  0  0  0
 19 20  1  0  0  0  0
 19 22  1  0  0  0  0
 20 25  1  0  0  0  0
 21 18  1  0  0  0  0
 23 19  1  0  0  0  0
 24 20  1  0  0  0  0
M  END
>  <minimizedAffinity>
-4.7363143

$$$$

 OpenBabel03272504543D

 25 27  0  0  0  0  0  0  0  0999 V2000
   39.9000   22.4930   37.1630 C   0  0  0  0  0  0  0  0  0  0  0  0
   39.2540   23.2170   38.1820 C   0  0  0  0  0  0  0  0  0  0  0  0
   37.9000   23.4370   37.9970 C   0  0  0  0  0  0  0  0  0  0  0  0
   37.2730   22.9640   36.8880 N   0  0  0  0  0  0  0  0  0  0  0  0
   37.9220   22.2710   35.9270 C   0  0  0  0  0  0  0  0  0  0  0  0
   39.2550   22.0350   36.0720 N   0  0  0  0  0  0  0  0  0  0  0  0
   39.7600   23.5830   39.0510 H   0  0  0  0  0  0  0  0  0  0  0  0
   37.2980   23.9810   38.7110 H   0  0  0  0  0  0  0  0  0  0  0  0
   37.1770   21.7990   34.7670 C   0  0  0  0  0  0  0  0  0  0  0  0
   36.1380   20.9110   34.9110 C   0  0  0  0  0  0  0  0  0  0  0  0
   35.8250   20.5260   35.8610 H   0  0  0  0  0  0  0  0  0  0  0  0
   35.4850   20.5160   33.7550 C   0  0  0  0  0  3  0  0  0  0  0  0
   35.8730   21.0020   32.5200 C   0  0  0  0  0  0  0  0  0  0  0  0
   35.3890   20.7190   31.5880 H   0  0  0  0  0  0  0  0  0  0  0  0
   36.9190   21.8960   32.3700 C   0  0  0  0  0  0  0  0  0  0  0  0
   37.2390   22.2870   31.4220 H   0  0  0  0  0  0  0  0  0  0  0  0
   37.5740   22.2910   33.5400 C   0  0  0  0  0  3  0  0  0  0  0  0
   41.3700   22.2100   37.3360 C   0  0  0  0  0  0  0  0  0  0  0  0
   42.1690   21.6610   36.2500 C   0  0  0  0  0  0  0  0  0  0  0  0
   42.2560   23.1380   36.5260 C   0  0  0  0  0  0  0  0  0  0  0  0
   41.6450   22.0570   38.4000 H   0  0  0  0  0  0  0  0  0  0  0  0
   43.0660   21.0560   36.4770 H   0  0  0  0  0  0  0  0  0  0  0  0
   41.6810   21.3900   35.2820 H   0  0  0  0  0  0  0  0  0  0  0  0
   41.8090   23.8660   35.8430 H   0  0  0  0  0  0  0  0  0  0  0  0
   43.1640   23.4700   37.0610 H   0  0  0  0  0  0  0  0  0  0  0  0
  1 18  1  0  0  0  0
  1  2  1  0  0  0  0
  2  7  1  0  0  0  0
  3  2  2  0  0  0  0
  3  8  1  0  0  0  0
  4  3  1  0  0  0  0
  5  6  1  0  0  0  0
  5  4  2  0  0  0  0
  6  1  2  0  0  0  0
  9 10  1  0  0  0  0
  9  5  1  0  0  0  0
 10 11  1  0  0  0  0
 12 10  2  0  0  0  0
 13 12  1  0  0  0  0
 14 13  1  0  0  0  0
 15 13  2  0  0  0  0
 15 17  1  0  0  0  0
 16 15  1  0  0  0  0
 17  9  2  0  0  0  0
 18 21  1  0  0  0  0
 19 22  1  0  0  0  0
 19 20  1  0  0  0  0
 19 18  1  0  0  0  0
 20 25  1  0  0  0  0
 20 18  1  0  0  0  0
 23 19  1  0  0  0  0
 24 20  1  0  0  0  0
M  END
>  <minimizedAffinity>
-4.68448353

$$$$

 OpenBabel03272504543D

 25 27  0  0  0  0  0  0  0  0999 V2000
   38.5630   24.3500   36.0720 C   0  0  0  0  0  0  0  0  0  0  0  0
   39.8250   23.9670   35.5830 C   0  0  0  0  0  0  0  0  0  0  0  0
   40.2870   24.6800   34.4900 C   0  0  0  0  0  0  0  0  0  0  0  0
   39.5380   25.6800   33.9550 N   0  0  0  0  0  0  0  0  0  0  0  0
   38.3290   26.0230   34.4500 C   0  0  0  0  0  0  0  0  0  0  0  0
   37.8380   25.3450   35.5230 N   0  0  0  0  0  0  0  0  0  0  0  0
   40.4050   23.1780   36.0140 H   0  0  0  0  0  0  0  0  0  0  0  0
   41.2420   24.4760   34.0270 H   0  0  0  0  0  0  0  0  0  0  0  0
   37.5870   27.1080   33.8190 C   0  0  0  0  0  0  0  0  0  0  0  0
   36.6700   27.8430   34.5320 C   0  0  0  0  0  0  0  0  0  0  0  0
   36.4550   27.6640   35.5660 H   0  0  0  0  0  0  0  0  0  0  0  0
   36.0120   28.8540   33.8510 C   0  0  0  0  0  3  0  0  0  0  0  0
   36.2750   29.1000   32.5170 C   0  0  0  0  0  0  0  0  0  0  0  0
   35.7810   29.8830   31.9450 H   0  0  0  0  0  0  0  0  0  0  0  0
   37.1970   28.3620   31.7950 C   0  0  0  0  0  0  0  0  0  0  0  0
   37.4180   28.5340   30.7580 H   0  0  0  0  0  0  0  0  0  0  0  0
   37.8590   27.3430   32.4860 C   0  0  0  0  0  3  0  0  0  0  0  0
   38.0320   23.6150   37.2760 C   0  0  0  0  0  0  0  0  0  0  0  0
   38.8910   23.2930   38.4070 C   0  0  0  0  0  0  0  0  0  0  0  0
   37.9700   24.4780   38.5230 C   0  0  0  0  0  0  0  0  0  0  0  0
   37.1300   23.0150   37.0370 H   0  0  0  0  0  0  0  0  0  0  0  0
   38.6610   22.4170   39.0410 H   0  0  0  0  0  0  0  0  0  0  0  0
   39.9790   23.5430   38.3680 H   0  0  0  0  0  0  0  0  0  0  0  0
   38.3610   25.4990   38.5040 H   0  0  0  0  0  0  0  0  0  0  0  0
   37.0630   24.3190   39.1320 H   0  0  0  0  0  0  0  0  0  0  0  0
  1 18  1  0  0  0  0
  2  7  1  0  0  0  0
  2  1  1  0  0  0  0
  3  2  2  0  0  0  0
  4  5  2  0  0  0  0
  4  3  1  0  0  0  0
  5  6  1  0  0  0  0
  6  1  2  0  0  0  0
  8  3  1  0  0  0  0
  9  5  1  0  0  0  0
  9 10  1  0  0  0  0
 10 11  1  0  0  0  0
 12 10  2  0  0  0  0
 13 12  1  0  0  0  0
 14 13  1  0  0  0  0
 15 17  1  0  0  0  0
 15 13  2  0  0  0  0
 16 15  1  0  0  0  0
 17  9  2  0  0  0  0
 18 19  1  0  0  0  0
 18 20  1  0  0  0  0
 19 20  1  0  0  0  0
 19 22  1  0  0  0  0
 20 25  1  0  0  0  0
 21 18  1  0  0  0  0
 23 19  1  0  0  0  0
 24 20  1  0  0  0  0
M  END
>  <minimizedAffinity>
-4.65684795

$$$$

 OpenBabel03272504543D

 25 27  0  0  0  0  0  0  0  0999 V2000
   37.0790   27.6880   33.8540 C   0  0  0  0  0  0  0  0  0  0  0  0
   36.5970   27.4550   32.5530 C   0  0  0  0  0  0  0  0  0  0  0  0
   35.5310   28.2430   32.1570 C   0  0  0  0  0  0  0  0  0  0  0  0
   35.0130   29.1740   33.0020 N   0  0  0  0  0  0  0  0  0  0  0  0
   35.5000   29.3740   34.2460 C   0  0  0  0  0  0  0  0  0  0  0  0
   36.5480   28.6170   34.6730 N   0  0  0  0  0  0  0  0  0  0  0  0
   37.0140   26.7190   31.8980 H   0  0  0  0  0  0  0  0  0  0  0  0
   35.0750   28.1550   31.1810 H   0  0  0  0  0  0  0  0  0  0  0  0
   34.8890   30.3920   35.0910 C   0  0  0  0  0  0  0  0  0  0  0  0
   33.5230   30.4620   35.2320 C   0  0  0  0  0  0  0  0  0  0  0  0
   32.8480   29.7900   34.7410 H   0  0  0  0  0  0  0  0  0  0  0  0
   33.0290   31.4610   36.0550 C   0  0  0  0  0  3  0  0  0  0  0  0
   33.8830   32.3390   36.6970 C   0  0  0  0  0  0  0  0  0  0  0  0
   33.5370   33.1360   37.3510 H   0  0  0  0  0  0  0  0  0  0  0  0
   35.2580   32.2720   36.5580 C   0  0  0  0  0  0  0  0  0  0  0  0
   35.9400   32.9420   37.0450 H   0  0  0  0  0  0  0  0  0  0  0  0
   35.7520   31.2620   35.7260 C   0  0  0  0  0  3  0  0  0  0  0  0
   38.2550   26.8680   34.3170 C   0  0  0  0  0  0  0  0  0  0  0  0
   38.8950   27.1160   35.6020 C   0  0  0  0  0  0  0  0  0  0  0  0
   37.9290   25.9660   35.4940 C   0  0  0  0  0  0  0  0  0  0  0  0
   38.8040   26.4070   33.4710 H   0  0  0  0  0  0  0  0  0  0  0  0
   39.9600   26.8620   35.7450 H   0  0  0  0  0  0  0  0  0  0  0  0
   38.5480   27.9650   36.2400 H   0  0  0  0  0  0  0  0  0  0  0  0
   36.9420   26.0140   35.9640 H   0  0  0  0  0  0  0  0  0  0  0  0
   38.3870   24.9640   35.4300 H   0  0  0  0  0  0  0  0  0  0  0  0
  1 18  1  0  0  0  0
  1  6  1  0  0  0  0
  2  1  2  0  0  0  0
  3  2  1  0  0  0  0
  3  4  2  0  0  0  0
  4  5  1  0  0  0  0
  5  6  2  0  0  0  0
  5  9  1  0  0  0  0
  7  2  1  0  0  0  0
  8  3  1  0  0  0  0
  9 10  2  0  0  0  0
  9 17  1  0  0  0  0
 10 12  1  0  0  0  0
 11 10  1  0  0  0  0
 12 13  2  0  0  0  0
 13 14  1  0  0  0  0
 15 13  1  0  0  0  0
 15 16  1  0  0  0  0
 17 15  2  0  0  0  0
 18 20  1  0  0  0  0
 18 19  1  0  0  0  0
 19 22  1  0  0  0  0
 19 23  1  0  0  0  0
 20 19  1  0  0  0  0
 20 24  1  0  0  0  0
 21 18  1  0  0  0  0
 25 20  1  0  0  0  0
M  END
>  <minimizedAffinity>
-4.64111996

$$$$

 OpenBabel03272504543D

 25 27  0  0  0  0  0  0  0  0999 V2000
   38.7750   24.7760   36.0740 C   0  0  0  0  0  0  0  0  0  0  0  0
   37.9570   24.5600   37.1980 C   0  0  0  0  0  0  0  0  0  0  0  0
   38.4040   23.6030   38.0910 C   0  0  0  0  0  0  0  0  0  0  0  0
   39.5660   22.9370   37.8610 N   0  0  0  0  0  0  0  0  0  0  0  0
   40.3300   23.1690   36.7710 C   0  0  0  0  0  0  0  0  0  0  0  0
   39.9240   24.1020   35.8670 N   0  0  0  0  0  0  0  0  0  0  0  0
   37.0440   25.0910   37.3670 H   0  0  0  0  0  0  0  0  0  0  0  0
   37.8600   23.3490   38.9900 H   0  0  0  0  0  0  0  0  0  0  0  0
   41.5640   22.4130   36.5960 C   0  0  0  0  0  0  0  0  0  0  0  0
   42.6080   22.9270   35.8660 C   0  0  0  0  0  0  0  0  0  0  0  0
   42.5750   23.8900   35.3960 H   0  0  0  0  0  0  0  0  0  0  0  0
   43.7420   22.1390   35.7520 C   0  0  0  0  0  3  0  0  0  0  0  0
   43.8040   20.8950   36.3510 C   0  0  0  0  0  0  0  0  0  0  0  0
   44.6740   20.2440   36.2870 H   0  0  0  0  0  0  0  0  0  0  0  0
   42.7550   20.3720   37.0870 C   0  0  0  0  0  0  0  0  0  0  0  0
   42.7800   19.4090   37.5610 H   0  0  0  0  0  0  0  0  0  0  0  0
   41.6130   21.1710   37.1990 C   0  0  0  0  0  3  0  0  0  0  0  0
   38.3370   25.8270   35.0860 C   0  0  0  0  0  0  0  0  0  0  0  0
   37.8460   27.1250   35.5290 C   0  0  0  0  0  0  0  0  0  0  0  0
   39.2660   27.0270   35.0400 C   0  0  0  0  0  0  0  0  0  0  0  0
   38.0360   25.3890   34.1130 H   0  0  0  0  0  0  0  0  0  0  0  0
   37.1380   27.6900   34.8960 H   0  0  0  0  0  0  0  0  0  0  0  0
   37.7360   27.3350   36.6210 H   0  0  0  0  0  0  0  0  0  0  0  0
   40.1070   27.0970   35.7360 H   0  0  0  0  0  0  0  0  0  0  0  0
   39.4470   27.4130   34.0210 H   0  0  0  0  0  0  0  0  0  0  0  0
  1  2  1  0  0  0  0
  2  7  1  0  0  0  0
  2  3  2  0  0  0  0
  3  8  1  0  0  0  0
  4  3  1  0  0  0  0
  5  4  2  0  0  0  0
  6  1  2  0  0  0  0
  6  5  1  0  0  0  0
  9  5  1  0  0  0  0
  9 17  1  0  0  0  0
 10  9  2  0  0  0  0
 11 10  1  0  0  0  0
 12 10  1  0  0  0  0
 12 13  2  0  0  0  0
 13 15  1  0  0  0  0
 14 13  1  0  0  0  0
 15 17  2  0  0  0  0
 15 16  1  0  0  0  0
 18 19  1  0  0  0  0
 18  1  1  0  0  0  0
 19 23  1  0  0  0  0
 20 18  1  0  0  0  0
 20 19  1  0  0  0  0
 20 24  1  0  0  0  0
 21 18  1  0  0  0  0
 22 19  1  0  0  0  0
 25 20  1  0  0  0  0
M  END
>  <minimizedAffinity>
-4.60115528

$$$$

 OpenBabel03272504543D

 25 27  0  0  0  0  0  0  0  0999 V2000
   37.1730   26.9370   33.7150 C   0  0  0  0  0  0  0  0  0  0  0  0
   36.6060   27.9210   32.8840 C   0  0  0  0  0  0  0  0  0  0  0  0
   36.1180   27.4720   31.6700 C   0  0  0  0  0  0  0  0  0  0  0  0
   36.1970   26.1560   31.3410 N   0  0  0  0  0  0  0  0  0  0  0  0
   36.7460   25.2360   32.1640 C   0  0  0  0  0  0  0  0  0  0  0  0
   37.2400   25.6370   33.3660 N   0  0  0  0  0  0  0  0  0  0  0  0
   36.5500   28.9540   33.1550 H   0  0  0  0  0  0  0  0  0  0  0  0
   35.6610   28.1350   30.9480 H   0  0  0  0  0  0  0  0  0  0  0  0
   36.7940   23.8430   31.7370 C   0  0  0  0  0  0  0  0  0  0  0  0
   37.9970   23.2160   31.5110 C   0  0  0  0  0  0  0  0  0  0  0  0
   38.9430   23.7040   31.6330 H   0  0  0  0  0  0  0  0  0  0  0  0
   37.9470   21.8920   31.1070 C   0  0  0  0  0  3  0  0  0  0  0  0
   36.7370   21.2440   30.9440 C   0  0  0  0  0  0  0  0  0  0  0  0
   36.6530   20.2070   30.6290 H   0  0  0  0  0  0  0  0  0  0  0  0
   35.5240   21.8710   31.1700 C   0  0  0  0  0  0  0  0  0  0  0  0
   34.5720   21.3900   31.0490 H   0  0  0  0  0  0  0  0  0  0  0  0
   35.5790   23.2080   31.5770 C   0  0  0  0  0  3  0  0  0  0  0  0
   37.6970   27.3790   35.0580 C   0  0  0  0  0  0  0  0  0  0  0  0
   38.1490   26.4140   36.0500 C   0  0  0  0  0  0  0  0  0  0  0  0
   39.1850   27.1340   35.2290 C   0  0  0  0  0  0  0  0  0  0  0  0
   37.3170   28.3810   35.3470 H   0  0  0  0  0  0  0  0  0  0  0  0
   38.1000   26.6650   37.1250 H   0  0  0  0  0  0  0  0  0  0  0  0
   38.0590   25.3200   35.8430 H   0  0  0  0  0  0  0  0  0  0  0  0
   39.7480   26.6120   34.4500 H   0  0  0  0  0  0  0  0  0  0  0  0
   39.7160   27.9540   35.7450 H   0  0  0  0  0  0  0  0  0  0  0  0
  1 18  1  0  0  0  0
  2  7  1  0  0  0  0
  2  1  2  0  0  0  0
  3  2  1  0  0  0  0
  4  3  2  0  0  0  0
  4  5  1  0  0  0  0
  5  6  2  0  0  0  0
  6  1  1  0  0  0  0
  8  3  1  0  0  0  0
  9  5  1  0  0  0  0
 10 11  1  0  0  0  0
 10  9  2  0  0  0  0
 12 10  1  0  0  0  0
 13 12  2  0  0  0  0
 13 15  1  0  0  0  0
 14 13  1  0  0  0  0
 15 17  2  0  0  0  0
 16 15  1  0  0  0  0
 17  9  1  0  0  0  0
 18 20  1  0  0  0  0
 18 21  1  0  0  0  0
 18 19  1  0  0  0  0
 19 22  1  0  0  0  0
 20 25  1  0  0  0  0
 20 19  1  0  0  0  0
 23 19  1  0  0  0  0
 24 20  1  0  0  0  0
M  END
>  <minimizedAffinity>
-4.55307961

$$$$

 OpenBabel03272504543D

 25 27  0  0  0  0  0  0  0  0999 V2000
   36.9470   27.9310   33.6890 C   0  0  0  0  0  0  0  0  0  0  0  0
   36.8320   28.1890   32.3110 C   0  0  0  0  0  0  0  0  0  0  0  0
   36.0550   29.2820   31.9680 C   0  0  0  0  0  0  0  0  0  0  0  0
   35.4620   30.0330   32.9330 N   0  0  0  0  0  0  0  0  0  0  0  0
   35.5940   29.7580   34.2490 C   0  0  0  0  0  0  0  0  0  0  0  0
   36.3480   28.6910   34.6270 N   0  0  0  0  0  0  0  0  0  0  0  0
   37.3040   27.5890   31.5620 H   0  0  0  0  0  0  0  0  0  0  0  0
   35.8920   29.5780   30.9410 H   0  0  0  0  0  0  0  0  0  0  0  0
   34.9250   30.6130   35.2210 C   0  0  0  0  0  0  0  0  0  0  0  0
   35.6420   31.4890   36.0010 C   0  0  0  0  0  0  0  0  0  0  0  0
   36.7070   31.5910   35.9380 H   0  0  0  0  0  0  0  0  0  0  0  0
   34.9240   32.2620   36.8990 C   0  0  0  0  0  3  0  0  0  0  0  0
   33.5490   32.1460   36.9940 C   0  0  0  0  0  0  0  0  0  0  0  0
   32.9480   32.7330   37.6850 H   0  0  0  0  0  0  0  0  0  0  0  0
   32.8230   31.2650   36.2120 C   0  0  0  0  0  0  0  0  0  0  0  0
   31.7560   31.1570   36.2690 H   0  0  0  0  0  0  0  0  0  0  0  0
   33.5530   30.4870   35.3080 C   0  0  0  0  0  3  0  0  0  0  0  0
   37.8040   26.7630   34.1080 C   0  0  0  0  0  0  0  0  0  0  0  0
   39.2020   26.6670   33.7120 C   0  0  0  0  0  0  0  0  0  0  0  0
   38.8830   27.1410   35.1060 C   0  0  0  0  0  0  0  0  0  0  0  0
   37.1990   25.8630   34.3410 H   0  0  0  0  0  0  0  0  0  0  0  0
   39.6810   25.6760   33.6190 H   0  0  0  0  0  0  0  0  0  0  0  0
   39.6440   27.4430   33.0400 H   0  0  0  0  0  0  0  0  0  0  0  0
   39.0250   28.1880   35.3900 H   0  0  0  0  0  0  0  0  0  0  0  0
   39.0320   26.3960   35.9080 H   0  0  0  0  0  0  0  0  0  0  0  0
  1 18  1  0  0  0  0
  1  6  1  0  0  0  0
  2  1  2  0  0  0  0
  3  2  1  0  0  0  0
  3  4  2  0  0  0  0
  4  5  1  0  0  0  0
  5  6  2  0  0  0  0
  5  9  1  0  0  0  0
  7  2  1  0  0  0  0
  8  3  1  0  0  0  0
  9 17  2  0  0  0  0
  9 10  1  0  0  0  0
 10 12  2  0  0  0  0
 11 10  1  0  0  0  0
 12 13  1  0  0  0  0
 13 14  1  0  0  0  0
 15 16  1  0  0  0  0
 15 13  2  0  0  0  0
 17 15  1  0  0  0  0
 18 21  1  0  0  0  0
 18 20  1  0  0  0  0
 19 18  1  0  0  0  0
 19 20  1  0  0  0  0
 20 24  1  0  0  0  0
 20 25  1  0  0  0  0
 22 19  1  0  0  0  0
 23 19  1  0  0  0  0
M  END
>  <minimizedAffinity>
-4.55002499

$$$$

 OpenBabel03272504543D

 25 27  0  0  0  0  0  0  0  0999 V2000
   39.7390   22.9870   37.0040 C   0  0  0  0  0  0  0  0  0  0  0  0
   39.1760   23.0860   38.2890 C   0  0  0  0  0  0  0  0  0  0  0  0
   38.1860   24.0400   38.4400 C   0  0  0  0  0  0  0  0  0  0  0  0
   37.8070   24.8100   37.3860 N   0  0  0  0  0  0  0  0  0  0  0  0
   38.3670   24.6900   36.1630 C   0  0  0  0  0  0  0  0  0  0  0  0
   39.3470   23.7640   35.9740 N   0  0  0  0  0  0  0  0  0  0  0  0
   39.4830   22.4730   39.1110 H   0  0  0  0  0  0  0  0  0  0  0  0
   37.6810   24.2090   39.3810 H   0  0  0  0  0  0  0  0  0  0  0  0
   37.9060   25.5550   35.0840 C   0  0  0  0  0  0  0  0  0  0  0  0
   37.5370   26.8550   35.3330 C   0  0  0  0  0  0  0  0  0  0  0  0
   37.5680   27.2950   36.3100 H   0  0  0  0  0  0  0  0  0  0  0  0
   37.1110   27.6050   34.2480 C   0  0  0  0  0  3  0  0  0  0  0  0
   37.0650   27.0550   32.9800 C   0  0  0  0  0  0  0  0  0  0  0  0
   36.7370   27.6080   32.1030 H   0  0  0  0  0  0  0  0  0  0  0  0
   37.4350   25.7460   32.7250 C   0  0  0  0  0  0  0  0  0  0  0  0
   37.4060   25.2980   31.7500 H   0  0  0  0  0  0  0  0  0  0  0  0
   37.8630   24.9940   33.8230 C   0  0  0  0  0  3  0  0  0  0  0  0
   40.8060   21.9440   36.7890 C   0  0  0  0  0  0  0  0  0  0  0  0
   41.5400   21.8580   35.5350 C   0  0  0  0  0  0  0  0  0  0  0  0
   42.2040   22.5280   36.7090 C   0  0  0  0  0  0  0  0  0  0  0  0
   40.6680   21.0630   37.4490 H   0  0  0  0  0  0  0  0  0  0  0  0
   41.9610   20.8890   35.2090 H   0  0  0  0  0  0  0  0  0  0  0  0
   41.2780   22.5390   34.6890 H   0  0  0  0  0  0  0  0  0  0  0  0
   42.3480   23.6120   36.7300 H   0  0  0  0  0  0  0  0  0  0  0  0
   42.9700   21.9270   37.2300 H   0  0  0  0  0  0  0  0  0  0  0  0
  1  2  1  0  0  0  0
  2  3  2  0  0  0  0
  2  7  1  0  0  0  0
  3  8  1  0  0  0  0
  4  3  1  0  0  0  0
  5  4  2  0  0  0  0
  6  5  1  0  0  0  0
  6  1  2  0  0  0  0
  9 10  1  0  0  0  0
  9  5  1  0  0  0  0
 10 11  1  0  0  0  0
 12 10  2  0  0  0  0
 13 12  1  0  0  0  0
 14 13  1  0  0  0  0
 15 13  2  0  0  0  0
 15 17  1  0  0  0  0
 16 15  1  0  0  0  0
 17  9  2  0  0  0  0
 18  1  1  0  0  0  0
 18 21  1  0  0  0  0
 19 20  1  0  0  0  0
 19 18  1  0  0  0  0
 20 24  1  0  0  0  0
 20 18  1  0  0  0  0
 20 25  1  0  0  0  0
 22 19  1  0  0  0  0
 23 19  1  0  0  0  0
M  END
>  <minimizedAffinity>
-4.52588511

$$$$
