
 OpenBabel03272503033D

 28 30  0  0  0  0  0  0  0  0999 V2000
   37.9230   30.6320   47.2290 F   0  0  0  0  0  0  0  0  0  0  0  0
   38.4030   31.7630   47.8230 C   0  0  0  0  0  0  0  0  0  0  0  0
   38.0570   32.0220   49.1050 C   0  0  0  0  0  0  0  0  0  0  0  0
   38.5750   33.1860   49.6550 C   0  0  0  0  0  0  0  0  0  0  0  0
   39.3980   34.0370   48.9390 C   0  0  0  0  0  0  0  0  0  0  0  0
   39.7200   33.7260   47.6340 C   0  0  0  0  0  0  0  0  0  0  0  0
   39.2130   32.5700   47.0690 C   0  0  0  0  0  0  0  0  0  0  0  0
   38.3190   33.4280   50.6840 H   0  0  0  0  0  0  0  0  0  0  0  0
   39.7920   34.9450   49.3950 H   0  0  0  0  0  0  0  0  0  0  0  0
   40.3670   34.4070   47.0910 H   0  0  0  0  0  0  0  0  0  0  0  0
   36.7400   29.5010   51.5960 C   0  0  0  0  0  0  0  0  0  0  0  0
   37.6130   30.3850   50.9430 C   0  0  0  0  0  0  0  0  0  0  0  0
   37.1930   31.1000   49.8120 C   0  0  0  0  0  0  0  0  0  0  0  0
   35.9250   30.8760   49.4190 N   0  0  0  0  0  0  0  0  0  0  0  0
   35.1000   30.0290   50.0510 C   0  0  0  0  0  0  0  0  0  0  0  0
   35.5050   29.3490   51.1300 N   0  0  0  0  0  0  0  0  0  0  0  0
   37.2020   29.0090   52.4660 H   0  0  0  0  0  0  0  0  0  0  0  0
   38.6290   30.5400   51.2900 H   0  0  0  0  0  0  0  0  0  0  0  0
   34.0880   29.9040   49.6680 H   0  0  0  0  0  0  0  0  0  0  0  0
   39.5530   32.2370   45.6860 C   0  0  0  0  0  0  0  0  0  0  0  0
   38.9570   32.9200   44.6470 C   0  0  0  0  0  0  0  0  0  0  0  0
   38.2490   33.6920   44.9200 H   0  0  0  0  0  0  0  0  0  0  0  0
   39.2010   32.6900   43.3120 C   0  0  0  0  0  0  0  0  0  0  0  0
   40.1320   31.6710   43.0870 C   0  0  0  0  0  0  0  0  0  0  0  0
   40.3940   31.4110   42.0590 H   0  0  0  0  0  0  0  0  0  0  0  0
   40.7620   30.9510   44.0580 C   0  0  0  0  0  0  0  0  0  0  0  0
   41.4730   30.1750   43.8110 H   0  0  0  0  0  0  0  0  0  0  0  0
   40.4600   31.2460   45.3700 C   0  0  0  0  0  0  0  0  0  0  0  0
  1  2  1  0  0  0  0
  2  3  1  0  0  0  0
  3  4  2  0  0  0  0
  3 13  1  0  0  0  0
  4  8  1  0  0  0  0
  5  9  1  0  0  0  0
  5  4  1  0  0  0  0
  6  5  2  0  0  0  0
  7  6  1  0  0  0  0
  7  2  2  0  0  0  0
 10  6  1  0  0  0  0
 11 17  1  0  0  0  0
 12 18  1  0  0  0  0
 12 11  2  0  0  0  0
 13 12  1  0  0  0  0
 14 13  2  0  0  0  0
 14 15  1  0  0  0  0
 15 16  2  0  0  0  0
 16 11  1  0  0  0  0
 19 15  1  0  0  0  0
 20  7  1  0  0  0  0
 21 22  1  0  0  0  0
 21 20  2  0  0  0  0
 23 21  1  0  0  0  0
 24 23  2  0  0  0  0
 24 26  1  0  0  0  0
 25 24  1  0  0  0  0
 26 28  2  0  0  0  0
 27 26  1  0  0  0  0
 28 20  1  0  0  0  0
M  END
>  <minimizedAffinity>
-6.88130951

>  <minimizedRMSD>
0.540110707

$$$$
