
 OpenBabel03272502183D

 33 35  0  0  1  0  0  0  0  0999 V2000
   37.1990   30.4780   49.1430 C   0  0  0  0  0  0  0  0  0  0  0  0
   37.3400   31.5360   50.0620 C   0  0  0  0  0  0  0  0  0  0  0  0
   38.1320   32.6190   49.6950 C   0  0  0  0  0  0  0  0  0  0  0  0
   38.7360   32.5910   48.4470 N   0  0  0  0  0  0  0  0  0  0  0  0
   38.5730   31.5680   47.6130 C   0  0  0  0  0  0  0  0  0  0  0  0
   37.8140   30.5200   47.9520 N   0  0  0  0  0  0  0  0  0  0  0  0
   36.8770   31.5770   51.0400 H   0  0  0  0  0  0  0  0  0  0  0  0
   38.2640   33.4570   50.3800 H   0  0  0  0  0  0  0  0  0  0  0  0
   39.2440   31.6170   46.3170 C   0  0  0  0  0  0  0  0  0  0  0  0
   39.9770   32.7280   45.9110 C   0  0  0  0  0  0  0  0  0  0  0  0
   40.0600   33.5910   46.5710 H   0  0  0  0  0  0  0  0  0  0  0  0
   40.5900   32.7080   44.6640 C   0  0  0  0  0  0  0  0  0  0  0  0
   40.4720   31.5910   43.8320 C   0  0  0  0  0  0  0  0  0  0  0  0
   40.9460   31.5590   42.8530 H   0  0  0  0  0  0  0  0  0  0  0  0
   39.7510   30.4850   44.2160 C   0  0  0  0  0  0  0  0  0  0  0  0
   39.6420   29.6000   43.5900 H   0  0  0  0  0  0  0  0  0  0  0  0
   39.1570   30.5400   45.4590 C   0  0  0  0  0  0  0  0  0  0  0  0
   36.1660   29.1750   49.7460 S   0  0  0  0  0  0  0  0  0  0  0  0
   33.7210   28.2020   49.1440 N   0  0  0  0  0  0  0  0  0  0  0  0
   34.4140   29.4680   49.3250 C   0  0  2  0  0  0  0  0  0  0  0  0
   34.3500   30.2310   48.0180 C   0  0  0  0  0  0  0  0  0  0  0  0
   33.3260   29.7140   47.1940 O   0  0  0  0  0  0  0  0  0  0  0  0
   33.7970   28.4680   46.7790 C   0  0  0  0  0  0  0  0  0  0  0  0
   34.2030   27.5870   47.9400 C   0  0  2  0  0  0  0  0  0  0  0  0
   32.7010   28.3290   49.1780 H   0  0  0  0  0  0  0  0  0  0  0  0
   33.9190   30.0080   50.1640 H   0  0  0  0  0  0  0  0  0  0  0  0
   35.3110   30.2740   47.4800 H   0  0  0  0  0  0  0  0  0  0  0  0
   34.0570   31.2820   48.2820 H   0  0  0  0  0  0  0  0  0  0  0  0
   32.9450   27.9730   46.2510 H   0  0  0  0  0  0  0  0  0  0  0  0
   34.6260   28.6350   46.0830 H   0  0  0  0  0  0  0  0  0  0  0  0
   35.3090   27.5370   48.0020 H   0  0  0  0  0  0  0  0  0  0  0  0
   33.6130   26.3120   47.8280 O   0  0  0  0  0  0  0  0  0  0  0  0
   33.5990   26.0780   46.8620 H   0  0  0  0  0  0  0  0  0  0  0  0
  1 18  1  0  0  0  0
  1  2  1  0  0  0  0
  2  7  1  0  0  0  0
  3  2  2  0  0  0  0
  3  8  1  0  0  0  0
  4  3  1  0  0  0  0
  5  6  1  0  0  0  0
  5  4  2  0  0  0  0
  6  1  2  0  0  0  0
  9  5  1  0  0  0  0
 10  9  1  0  0  0  0
 10 11  1  0  0  0  0
 12 10  2  0  0  0  0
 13 15  2  0  0  0  0
 13 12  1  0  0  0  0
 14 13  1  0  0  0  0
 15 17  1  0  0  0  0
 16 15  1  0  0  0  0
 17  9  2  0  0  0  0
 19 25  1  0  0  0  0
 19 20  1  0  0  0  0
 20 18  1  0  0  0  0
 20 26  1  1  0  0  0
 21 28  1  0  0  0  0
 21 20  1  0  0  0  0
 22 21  1  0  0  0  0
 23 22  1  0  0  0  0
 23 24  1  0  0  0  0
 24 31  1  1  0  0  0
 24 19  1  0  0  0  0
 27 21  1  0  0  0  0
 29 23  1  0  0  0  0
 30 23  1  0  0  0  0
 32 24  1  0  0  0  0
 33 32  1  0  0  0  0
M  END
>  <minimizedAffinity>
-6.0086565

>  <minimizedRMSD>
0.757399917

$$$$
