
 OpenBabel03272510033D

 21 22  0  0  0  0  0  0  0  0999 V2000
   39.5340   22.8760   35.2000 C   0  0  0  0  0  0  0  0  0  0  0  0
   38.9840   23.8840   34.3980 C   0  0  0  0  0  0  0  0  0  0  0  0
   38.1930   24.8450   35.0090 C   0  0  0  0  0  0  0  0  0  0  0  0
   37.9980   24.7500   36.3510 N   0  0  0  0  0  0  0  0  0  0  0  0
   38.5450   23.7600   37.0990 C   0  0  0  0  0  0  0  0  0  0  0  0
   39.3080   22.8300   36.5290 N   0  0  0  0  0  0  0  0  0  0  0  0
   40.1620   22.1110   34.7170 H   0  0  0  0  0  0  0  0  0  0  0  0
   39.1450   23.9450   33.3500 H   0  0  0  0  0  0  0  0  0  0  0  0
   37.5540   25.9510   34.3090 C   0  0  0  0  0  0  0  0  0  0  0  0
   37.2290   27.0680   35.0420 C   0  0  0  0  0  0  0  0  0  0  0  0
   37.4220   27.1690   36.1080 H   0  0  0  0  0  0  0  0  0  0  0  0
   36.6160   28.1490   34.4080 C   0  0  0  0  0  3  0  0  0  0  0  0
   36.3300   28.1170   33.0580 C   0  0  0  0  0  0  0  0  0  0  0  0
   35.8580   28.9110   32.4970 H   0  0  0  0  0  0  0  0  0  0  0  0
   36.6550   26.9970   32.3210 C   0  0  0  0  0  0  0  0  0  0  0  0
   36.4580   26.9180   31.2800 H   0  0  0  0  0  0  0  0  0  0  0  0
   37.2700   25.9130   32.9600 C   0  0  0  0  0  3  0  0  0  0  0  0
   38.2540   23.7760   38.5470 C   0  0  0  0  0  0  0  0  0  0  0  0
   37.3480   22.7860   38.9120 F   0  0  0  0  0  0  0  0  0  0  0  0
   39.3940   23.5620   39.3020 F   0  0  0  0  0  0  0  0  0  0  0  0
   37.7280   24.9620   38.9990 F   0  0  0  0  0  0  0  0  0  0  0  0
  1  6  1  0  0  0  0
  2  3  1  0  0  0  0
  2  1  2  0  0  0  0
  3  4  2  0  0  0  0
  4  5  1  0  0  0  0
  5 18  1  0  0  0  0
  6  5  2  0  0  0  0
  7  1  1  0  0  0  0
  8  2  1  0  0  0  0
  9  3  1  0  0  0  0
  9 10  1  0  0  0  0
 10 11  1  0  0  0  0
 12 10  2  0  0  0  0
 13 12  1  0  0  0  0
 14 13  1  0  0  0  0
 15 17  1  0  0  0  0
 15 13  2  0  0  0  0
 16 15  1  0  0  0  0
 17  9  2  0  0  0  0
 18 19  1  0  0  0  0
 18 21  1  0  0  0  0
 18 20  1  0  0  0  0
M  END
>  <minimizedAffinity>
-5.21555567

$$$$

 OpenBabel03272510033D

 21 22  0  0  0  0  0  0  0  0999 V2000
   40.6060   22.5460   35.5440 C   0  0  0  0  0  0  0  0  0  0  0  0
   39.6980   22.1890   34.5380 C   0  0  0  0  0  0  0  0  0  0  0  0
   38.3440   22.3180   34.8090 C   0  0  0  0  0  0  0  0  0  0  0  0
   37.9800   22.7810   36.0330 N   0  0  0  0  0  0  0  0  0  0  0  0
   38.8850   23.1170   36.9850 C   0  0  0  0  0  0  0  0  0  0  0  0
   40.1890   23.0010   36.7430 N   0  0  0  0  0  0  0  0  0  0  0  0
   41.6820   22.4440   35.3320 H   0  0  0  0  0  0  0  0  0  0  0  0
   39.9980   21.8280   33.5860 H   0  0  0  0  0  0  0  0  0  0  0  0
   37.2820   21.9880   33.8660 C   0  0  0  0  0  0  0  0  0  0  0  0
   36.4050   20.9890   34.2180 C   0  0  0  0  0  0  0  0  0  0  0  0
   36.4600   20.4360   35.1550 H   0  0  0  0  0  0  0  0  0  0  0  0
   35.3750   20.6420   33.3440 C   0  0  0  0  0  3  0  0  0  0  0  0
   35.2210   21.2860   32.1320 C   0  0  0  0  0  0  0  0  0  0  0  0
   34.4500   21.0750   31.4030 H   0  0  0  0  0  0  0  0  0  0  0  0
   36.1000   22.2870   31.7770 C   0  0  0  0  0  0  0  0  0  0  0  0
   36.0280   22.8150   30.8580 H   0  0  0  0  0  0  0  0  0  0  0  0
   37.1330   22.6330   32.6570 C   0  0  0  0  0  3  0  0  0  0  0  0
   38.3530   23.6080   38.2730 C   0  0  0  0  0  0  0  0  0  0  0  0
   37.2980   22.8310   38.7360 F   0  0  0  0  0  0  0  0  0  0  0  0
   39.3180   23.5920   39.2650 F   0  0  0  0  0  0  0  0  0  0  0  0
   37.8880   24.9000   38.2290 F   0  0  0  0  0  0  0  0  0  0  0  0
  1  6  1  0  0  0  0
  2  3  1  0  0  0  0
  2  1  2  0  0  0  0
  3  4  2  0  0  0  0
  4  5  1  0  0  0  0
  5 18  1  0  0  0  0
  6  5  2  0  0  0  0
  7  1  1  0  0  0  0
  8  2  1  0  0  0  0
  9 10  1  0  0  0  0
  9  3  1  0  0  0  0
 10 11  1  0  0  0  0
 12 10  2  0  0  0  0
 13 12  1  0  0  0  0
 14 13  1  0  0  0  0
 15 13  2  0  0  0  0
 15 17  1  0  0  0  0
 16 15  1  0  0  0  0
 17  9  2  0  0  0  0
 18 19  1  0  0  0  0
 18 20  1  0  0  0  0
 21 18  1  0  0  0  0
M  END
>  <minimizedAffinity>
-5.08038807

$$$$

 OpenBabel03272510033D

 21 22  0  0  0  0  0  0  0  0999 V2000
   37.5780   23.3730   32.3790 C   0  0  0  0  0  0  0  0  0  0  0  0
   38.1430   23.6550   33.6300 C   0  0  0  0  0  0  0  0  0  0  0  0
   37.8940   22.7730   34.6710 C   0  0  0  0  0  0  0  0  0  0  0  0
   37.1150   21.6880   34.4150 N   0  0  0  0  0  0  0  0  0  0  0  0
   36.5830   21.4450   33.1920 C   0  0  0  0  0  0  0  0  0  0  0  0
   36.8120   22.2800   32.1800 N   0  0  0  0  0  0  0  0  0  0  0  0
   37.7740   24.0720   31.5510 H   0  0  0  0  0  0  0  0  0  0  0  0
   38.7490   24.5070   33.8150 H   0  0  0  0  0  0  0  0  0  0  0  0
   38.4100   22.9310   36.0240 C   0  0  0  0  0  0  0  0  0  0  0  0
   37.6120   23.5760   36.9400 C   0  0  0  0  0  0  0  0  0  0  0  0
   36.6240   23.9710   36.7100 H   0  0  0  0  0  0  0  0  0  0  0  0
   38.0690   23.7480   38.2470 C   0  0  0  0  0  3  0  0  0  0  0  0
   39.3090   23.2820   38.6360 C   0  0  0  0  0  0  0  0  0  0  0  0
   39.7330   23.3760   39.6260 H   0  0  0  0  0  0  0  0  0  0  0  0
   40.1110   22.6350   37.7190 C   0  0  0  0  0  0  0  0  0  0  0  0
   41.0740   22.2570   37.9640 H   0  0  0  0  0  0  0  0  0  0  0  0
   39.6490   22.4640   36.4080 C   0  0  0  0  0  3  0  0  0  0  0  0
   35.7560   20.2300   33.0510 C   0  0  0  0  0  0  0  0  0  0  0  0
   36.4110   19.2280   32.3440 F   0  0  0  0  0  0  0  0  0  0  0  0
   35.4240   19.6900   34.2810 F   0  0  0  0  0  0  0  0  0  0  0  0
   34.5620   20.4370   32.4030 F   0  0  0  0  0  0  0  0  0  0  0  0
  1  2  1  0  0  0  0
  2  8  1  0  0  0  0
  2  3  2  0  0  0  0
  3  9  1  0  0  0  0
  4  3  1  0  0  0  0
  5  4  2  0  0  0  0
  6  1  2  0  0  0  0
  6  5  1  0  0  0  0
  7  1  1  0  0  0  0
  9 17  2  0  0  0  0
  9 10  1  0  0  0  0
 10 12  2  0  0  0  0
 11 10  1  0  0  0  0
 12 13  1  0  0  0  0
 13 14  1  0  0  0  0
 15 16  1  0  0  0  0
 15 13  2  0  0  0  0
 17 15  1  0  0  0  0
 18  5  1  0  0  0  0
 18 20  1  0  0  0  0
 19 18  1  0  0  0  0
 21 18  1  0  0  0  0
M  END
>  <minimizedAffinity>
-4.90413189

$$$$

 OpenBabel03272510033D

 21 22  0  0  0  0  0  0  0  0999 V2000
   38.3570   23.4420   38.0370 C   0  0  0  0  0  0  0  0  0  0  0  0
   37.4930   23.0740   36.9980 C   0  0  0  0  0  0  0  0  0  0  0  0
   38.0080   22.3090   35.9620 C   0  0  0  0  0  0  0  0  0  0  0  0
   39.3200   21.9610   36.0180 N   0  0  0  0  0  0  0  0  0  0  0  0
   40.1310   22.3350   37.0390 C   0  0  0  0  0  0  0  0  0  0  0  0
   39.6540   23.0690   38.0430 N   0  0  0  0  0  0  0  0  0  0  0  0
   37.9510   24.0500   38.8600 H   0  0  0  0  0  0  0  0  0  0  0  0
   36.4690   23.3540   36.9680 H   0  0  0  0  0  0  0  0  0  0  0  0
   37.2340   21.8510   34.8150 C   0  0  0  0  0  0  0  0  0  0  0  0
   37.5590   22.3640   33.5810 C   0  0  0  0  0  0  0  0  0  0  0  0
   38.3560   23.0880   33.4170 H   0  0  0  0  0  0  0  0  0  0  0  0
   36.8430   21.9520   32.4570 C   0  0  0  0  0  3  0  0  0  0  0  0
   35.8140   21.0380   32.5630 C   0  0  0  0  0  0  0  0  0  0  0  0
   35.2150   20.6700   31.7410 H   0  0  0  0  0  0  0  0  0  0  0  0
   35.4870   20.5220   33.7990 C   0  0  0  0  0  0  0  0  0  0  0  0
   34.7040   19.8160   33.9380 H   0  0  0  0  0  0  0  0  0  0  0  0
   36.2070   20.9380   34.9260 C   0  0  0  0  0  3  0  0  0  0  0  0
   41.5370   21.8880   36.9760 C   0  0  0  0  0  0  0  0  0  0  0  0
   42.4300   22.9520   37.0460 F   0  0  0  0  0  0  0  0  0  0  0  0
   41.8540   21.0400   38.0230 F   0  0  0  0  0  0  0  0  0  0  0  0
   41.8530   21.1980   35.8310 F   0  0  0  0  0  0  0  0  0  0  0  0
  1  6  1  0  0  0  0
  1  7  1  0  0  0  0
  2  1  2  0  0  0  0
  3  4  2  0  0  0  0
  3  2  1  0  0  0  0
  4  5  1  0  0  0  0
  5  6  2  0  0  0  0
  8  2  1  0  0  0  0
  9 17  1  0  0  0  0
  9  3  1  0  0  0  0
 10  9  2  0  0  0  0
 11 10  1  0  0  0  0
 12 13  2  0  0  0  0
 12 10  1  0  0  0  0
 13 15  1  0  0  0  0
 14 13  1  0  0  0  0
 15 16  1  0  0  0  0
 15 17  2  0  0  0  0
 18  5  1  0  0  0  0
 18 19  1  0  0  0  0
 18 20  1  0  0  0  0
 21 18  1  0  0  0  0
M  END
>  <minimizedAffinity>
-4.79759502

$$$$

 OpenBabel03272510033D

 21 22  0  0  0  0  0  0  0  0999 V2000
   38.3180   23.6830   38.5380 C   0  0  0  0  0  0  0  0  0  0  0  0
   37.7920   24.4810   37.5140 C   0  0  0  0  0  0  0  0  0  0  0  0
   38.4560   24.5000   36.2960 C   0  0  0  0  0  0  0  0  0  0  0  0
   39.5780   23.7430   36.1700 N   0  0  0  0  0  0  0  0  0  0  0  0
   40.0620   22.9820   37.1830 C   0  0  0  0  0  0  0  0  0  0  0  0
   39.4370   22.9510   38.3580 N   0  0  0  0  0  0  0  0  0  0  0  0
   37.7930   23.6670   39.5060 H   0  0  0  0  0  0  0  0  0  0  0  0
   36.9140   25.0670   37.6270 H   0  0  0  0  0  0  0  0  0  0  0  0
   38.0310   25.2790   35.1400 C   0  0  0  0  0  0  0  0  0  0  0  0
   37.6530   26.5840   35.3550 C   0  0  0  0  0  0  0  0  0  0  0  0
   37.6530   27.0610   36.3330 H   0  0  0  0  0  0  0  0  0  0  0  0
   37.2400   27.3640   34.2750 C   0  0  0  0  0  3  0  0  0  0  0  0
   37.2050   26.8490   32.9940 C   0  0  0  0  0  0  0  0  0  0  0  0
   36.8990   27.3880   32.1090 H   0  0  0  0  0  0  0  0  0  0  0  0
   37.5840   25.5410   32.7770 C   0  0  0  0  0  0  0  0  0  0  0  0
   37.5760   25.0930   31.8140 H   0  0  0  0  0  0  0  0  0  0  0  0
   37.9980   24.7600   33.8640 C   0  0  0  0  0  3  0  0  0  0  0  0
   41.2900   22.2080   36.9110 C   0  0  0  0  0  0  0  0  0  0  0  0
   41.5200   21.2320   37.8740 F   0  0  0  0  0  0  0  0  0  0  0  0
   41.2230   21.5510   35.6950 F   0  0  0  0  0  0  0  0  0  0  0  0
   42.4310   22.9710   36.8590 F   0  0  0  0  0  0  0  0  0  0  0  0
  1  7  1  0  0  0  0
  2  8  1  0  0  0  0
  2  1  2  0  0  0  0
  3  2  1  0  0  0  0
  4  3  2  0  0  0  0
  4  5  1  0  0  0  0
  5  6  2  0  0  0  0
  6  1  1  0  0  0  0
  9 10  1  0  0  0  0
  9  3  1  0  0  0  0
 10 11  1  0  0  0  0
 12 10  2  0  0  0  0
 13 12  1  0  0  0  0
 14 13  1  0  0  0  0
 15 13  2  0  0  0  0
 15 17  1  0  0  0  0
 16 15  1  0  0  0  0
 17  9  2  0  0  0  0
 18  5  1  0  0  0  0
 18 19  1  0  0  0  0
 20 18  1  0  0  0  0
 21 18  1  0  0  0  0
M  END
>  <minimizedAffinity>
-4.77600098

$$$$

 OpenBabel03272510033D

 21 22  0  0  0  0  0  0  0  0999 V2000
   36.7330   27.6050   32.5900 C   0  0  0  0  0  0  0  0  0  0  0  0
   35.9490   28.6780   33.0360 C   0  0  0  0  0  0  0  0  0  0  0  0
   36.0820   29.0760   34.3570 C   0  0  0  0  0  0  0  0  0  0  0  0
   36.9630   28.4020   35.1410 N   0  0  0  0  0  0  0  0  0  0  0  0
   37.7070   27.3660   34.6790 C   0  0  0  0  0  0  0  0  0  0  0  0
   37.5940   26.9700   33.4120 N   0  0  0  0  0  0  0  0  0  0  0  0
   36.6290   27.2870   31.5410 H   0  0  0  0  0  0  0  0  0  0  0  0
   35.2640   29.1950   32.4110 H   0  0  0  0  0  0  0  0  0  0  0  0
   35.3360   30.1720   34.9640 C   0  0  0  0  0  0  0  0  0  0  0  0
   36.0410   31.0880   35.7090 C   0  0  0  0  0  0  0  0  0  0  0  0
   37.1170   31.0390   35.8690 H   0  0  0  0  0  0  0  0  0  0  0  0
   35.3650   32.1520   36.3070 C   0  0  0  0  0  3  0  0  0  0  0  0
   34.0000   32.3000   36.1620 C   0  0  0  0  0  0  0  0  0  0  0  0
   33.4060   33.0950   36.5920 H   0  0  0  0  0  0  0  0  0  0  0  0
   33.2910   31.3830   35.4150 C   0  0  0  0  0  0  0  0  0  0  0  0
   32.2400   31.4490   35.2720 H   0  0  0  0  0  0  0  0  0  0  0  0
   33.9730   30.3160   34.8170 C   0  0  0  0  0  3  0  0  0  0  0  0
   38.6270   26.7210   35.6370 C   0  0  0  0  0  0  0  0  0  0  0  0
   38.6430   25.3380   35.5010 F   0  0  0  0  0  0  0  0  0  0  0  0
   39.9310   27.1490   35.4620 F   0  0  0  0  0  0  0  0  0  0  0  0
   38.3280   26.9720   36.9540 F   0  0  0  0  0  0  0  0  0  0  0  0
  1  2  2  0  0  0  0
  1  6  1  0  0  0  0
  2  3  1  0  0  0  0
  3  9  1  0  0  0  0
  3  4  2  0  0  0  0
  5  4  1  0  0  0  0
  5 18  1  0  0  0  0
  6  5  2  0  0  0  0
  7  1  1  0  0  0  0
  8  2  1  0  0  0  0
  9 10  1  0  0  0  0
 10 11  1  0  0  0  0
 10 12  2  0  0  0  0
 13 12  1  0  0  0  0
 13 14  1  0  0  0  0
 15 13  2  0  0  0  0
 16 15  1  0  0  0  0
 17  9  2  0  0  0  0
 17 15  1  0  0  0  0
 18 21  1  0  0  0  0
 19 18  1  0  0  0  0
 20 18  1  0  0  0  0
M  END
>  <minimizedAffinity>
-4.75974941

$$$$

 OpenBabel03272510033D

 21 22  0  0  0  0  0  0  0  0999 V2000
   37.7340   23.8780   32.3680 C   0  0  0  0  0  0  0  0  0  0  0  0
   38.0990   23.4020   33.6350 C   0  0  0  0  0  0  0  0  0  0  0  0
   38.0910   24.2970   34.6940 C   0  0  0  0  0  0  0  0  0  0  0  0
   37.7300   25.5820   34.4400 N   0  0  0  0  0  0  0  0  0  0  0  0
   37.3830   26.0110   33.2010 C   0  0  0  0  0  0  0  0  0  0  0  0
   37.3830   25.1650   32.1720 N   0  0  0  0  0  0  0  0  0  0  0  0
   37.7390   23.1690   31.5260 H   0  0  0  0  0  0  0  0  0  0  0  0
   38.3790   22.3940   33.8180 H   0  0  0  0  0  0  0  0  0  0  0  0
   38.4470   23.9520   36.0640 C   0  0  0  0  0  0  0  0  0  0  0  0
   37.6860   24.4890   37.0760 C   0  0  0  0  0  0  0  0  0  0  0  0
   36.8390   25.1540   36.9080 H   0  0  0  0  0  0  0  0  0  0  0  0
   37.9920   24.1830   38.4010 C   0  0  0  0  0  3  0  0  0  0  0  0
   39.0470   23.3500   38.7160 C   0  0  0  0  0  0  0  0  0  0  0  0
   39.3470   23.0660   39.7150 H   0  0  0  0  0  0  0  0  0  0  0  0
   39.8120   22.8100   37.7030 C   0  0  0  0  0  0  0  0  0  0  0  0
   40.6350   22.1630   37.8870 H   0  0  0  0  0  0  0  0  0  0  0  0
   39.5010   23.1190   36.3730 C   0  0  0  0  0  3  0  0  0  0  0  0
   37.0100   27.4340   33.0640 C   0  0  0  0  0  0  0  0  0  0  0  0
   36.9880   28.0910   34.2880 F   0  0  0  0  0  0  0  0  0  0  0  0
   37.9050   28.1230   32.2640 F   0  0  0  0  0  0  0  0  0  0  0  0
   35.7750   27.6360   32.4980 F   0  0  0  0  0  0  0  0  0  0  0  0
  1  2  1  0  0  0  0
  2  8  1  0  0  0  0
  2  3  2  0  0  0  0
  3  9  1  0  0  0  0
  4  3  1  0  0  0  0
  5  4  2  0  0  0  0
  6  1  2  0  0  0  0
  6  5  1  0  0  0  0
  7  1  1  0  0  0  0
  9 17  2  0  0  0  0
  9 10  1  0  0  0  0
 10 12  2  0  0  0  0
 11 10  1  0  0  0  0
 12 13  1  0  0  0  0
 13 14  1  0  0  0  0
 15 16  1  0  0  0  0
 15 13  2  0  0  0  0
 17 15  1  0  0  0  0
 18  5  1  0  0  0  0
 18 19  1  0  0  0  0
 20 18  1  0  0  0  0
 21 18  1  0  0  0  0
M  END
>  <minimizedAffinity>
-4.72295713

$$$$

 OpenBabel03272510033D

 21 22  0  0  0  0  0  0  0  0999 V2000
   36.2440   29.5810   31.8460 C   0  0  0  0  0  0  0  0  0  0  0  0
   35.6000   30.4130   32.7710 C   0  0  0  0  0  0  0  0  0  0  0  0
   35.5110   29.9800   34.0860 C   0  0  0  0  0  0  0  0  0  0  0  0
   36.0540   28.7730   34.3970 N   0  0  0  0  0  0  0  0  0  0  0  0
   36.6700   27.9910   33.4760 C   0  0  0  0  0  0  0  0  0  0  0  0
   36.7650   28.3910   32.2100 N   0  0  0  0  0  0  0  0  0  0  0  0
   36.3150   29.9220   30.8020 H   0  0  0  0  0  0  0  0  0  0  0  0
   35.1800   31.3540   32.5130 H   0  0  0  0  0  0  0  0  0  0  0  0
   34.8730   30.7320   35.1580 C   0  0  0  0  0  0  0  0  0  0  0  0
   33.5230   30.5520   35.3490 C   0  0  0  0  0  0  0  0  0  0  0  0
   32.9110   29.8820   34.7460 H   0  0  0  0  0  0  0  0  0  0  0  0
   32.8740   31.2530   36.3650 C   0  0  0  0  0  3  0  0  0  0  0  0
   33.5640   32.1260   37.1820 C   0  0  0  0  0  0  0  0  0  0  0  0
   33.1340   32.7040   37.9880 H   0  0  0  0  0  0  0  0  0  0  0  0
   34.9180   32.3090   36.9930 C   0  0  0  0  0  0  0  0  0  0  0  0
   35.4980   32.9670   37.5920 H   0  0  0  0  0  0  0  0  0  0  0  0
   35.5670   31.6030   35.9720 C   0  0  0  0  0  3  0  0  0  0  0  0
   37.2170   26.7030   33.9500 C   0  0  0  0  0  0  0  0  0  0  0  0
   38.6050   26.7160   34.0200 F   0  0  0  0  0  0  0  0  0  0  0  0
   36.7620   26.3880   35.2180 F   0  0  0  0  0  0  0  0  0  0  0  0
   36.8830   25.6300   33.1600 F   0  0  0  0  0  0  0  0  0  0  0  0
  1  6  2  0  0  0  0
  1  2  1  0  0  0  0
  2  3  2  0  0  0  0
  3  4  1  0  0  0  0
  3  9  1  0  0  0  0
  5 18  1  0  0  0  0
  5  4  2  0  0  0  0
  6  5  1  0  0  0  0
  7  1  1  0  0  0  0
  8  2  1  0  0  0  0
  9 10  2  0  0  0  0
  9 17  1  0  0  0  0
 10 12  1  0  0  0  0
 11 10  1  0  0  0  0
 12 13  2  0  0  0  0
 13 14  1  0  0  0  0
 15 13  1  0  0  0  0
 15 16  1  0  0  0  0
 17 15  2  0  0  0  0
 18 19  1  0  0  0  0
 18 20  1  0  0  0  0
 21 18  1  0  0  0  0
M  END
>  <minimizedAffinity>
-4.7049222

$$$$

 OpenBabel03272510033D

 21 22  0  0  0  0  0  0  0  0999 V2000
   38.1070   27.1810   33.1910 C   0  0  0  0  0  0  0  0  0  0  0  0
   38.5560   26.5810   34.3750 C   0  0  0  0  0  0  0  0  0  0  0  0
   38.2250   25.2530   34.5990 C   0  0  0  0  0  0  0  0  0  0  0  0
   37.4840   24.6130   33.6560 N   0  0  0  0  0  0  0  0  0  0  0  0
   37.0640   25.2240   32.5210 C   0  0  0  0  0  0  0  0  0  0  0  0
   37.3730   26.4980   32.2880 N   0  0  0  0  0  0  0  0  0  0  0  0
   38.3690   28.2350   33.0110 H   0  0  0  0  0  0  0  0  0  0  0  0
   39.1350   27.0940   35.1030 H   0  0  0  0  0  0  0  0  0  0  0  0
   38.6180   24.4960   35.7800 C   0  0  0  0  0  0  0  0  0  0  0  0
   39.7480   23.7160   35.6920 C   0  0  0  0  0  0  0  0  0  0  0  0
   40.3580   23.6340   34.7940 H   0  0  0  0  0  0  0  0  0  0  0  0
   40.1580   22.9760   36.8000 C   0  0  0  0  0  3  0  0  0  0  0  0
   39.4500   23.0130   37.9850 C   0  0  0  0  0  0  0  0  0  0  0  0
   39.7040   22.4700   38.8850 H   0  0  0  0  0  0  0  0  0  0  0  0
   38.3180   23.7950   38.0760 C   0  0  0  0  0  0  0  0  0  0  0  0
   37.7350   23.8610   38.9630 H   0  0  0  0  0  0  0  0  0  0  0  0
   37.9080   24.5370   36.9610 C   0  0  0  0  0  3  0  0  0  0  0  0
   36.2650   24.4120   31.5800 C   0  0  0  0  0  0  0  0  0  0  0  0
   35.9430   23.1660   32.1040 F   0  0  0  0  0  0  0  0  0  0  0  0
   35.0670   25.0270   31.2630 F   0  0  0  0  0  0  0  0  0  0  0  0
   36.8890   24.1740   30.3790 F   0  0  0  0  0  0  0  0  0  0  0  0
  1  2  1  0  0  0  0
  2  3  2  0  0  0  0
  2  8  1  0  0  0  0
  3  9  1  0  0  0  0
  4  3  1  0  0  0  0
  5  4  2  0  0  0  0
  6  5  1  0  0  0  0
  6  1  2  0  0  0  0
  7  1  1  0  0  0  0
  9 17  1  0  0  0  0
 10  9  2  0  0  0  0
 10 12  1  0  0  0  0
 11 10  1  0  0  0  0
 12 13  2  0  0  0  0
 13 15  1  0  0  0  0
 13 14  1  0  0  0  0
 15 16  1  0  0  0  0
 17 15  2  0  0  0  0
 18 19  1  0  0  0  0
 18  5  1  0  0  0  0
 20 18  1  0  0  0  0
 21 18  1  0  0  0  0
M  END
>  <minimizedAffinity>
-4.70183563

$$$$
