
 OpenBabel03272510213D

 36 39  0  0  0  0  0  0  0  0999 V2000
   37.3940   29.1680   50.8060 Br  0  0  0  0  0  0  0  0  0  0  0  0
   35.9870   29.2770   49.5220 C   0  0  0  0  0  0  0  0  0  0  0  0
   35.9900   30.2850   48.5620 C   0  0  0  0  0  0  0  0  0  0  0  0
   34.9380   30.3010   47.6650 C   0  0  0  0  0  0  0  0  0  0  0  0
   33.9070   29.3790   47.6840 C   0  0  0  0  0  0  0  0  0  0  0  0
   33.9380   28.4100   48.6370 C   0  0  0  0  0  0  0  0  0  0  0  0
   34.9780   28.3730   49.5430 C   0  0  0  0  0  0  0  0  0  0  0  0
   34.8860   31.0610   46.8950 H   0  0  0  0  0  0  0  0  0  0  0  0
   33.1810   27.6410   48.7390 H   0  0  0  0  0  0  0  0  0  0  0  0
   35.0070   27.5940   50.3130 H   0  0  0  0  0  0  0  0  0  0  0  0
   38.0120   33.1810   49.4700 C   0  0  0  0  0  0  0  0  0  0  0  0
   39.0380   33.1860   48.4840 C   0  0  0  0  0  0  0  0  0  0  0  0
   39.0130   32.1880   47.5220 C   0  0  0  0  0  0  0  0  0  0  0  0
   38.0190   31.2510   47.5580 N   0  0  0  0  0  0  0  0  0  0  0  0
   37.0570   31.2740   48.5080 C   0  0  0  0  0  0  0  0  0  0  0  0
   37.0660   32.2440   49.4590 N   0  0  0  0  0  0  0  0  0  0  0  0
   38.0720   33.9820   50.2030 H   0  0  0  0  0  0  0  0  0  0  0  0
   39.8390   33.9100   48.4260 H   0  0  0  0  0  0  0  0  0  0  0  0
   39.7250   32.0790   46.7280 H   0  0  0  0  0  0  0  0  0  0  0  0
   32.8090   29.4140   46.7320 C   0  0  0  0  0  0  0  0  0  0  0  0
   31.9610   28.3560   46.4770 C   0  0  0  0  0  0  0  0  0  0  0  0
   30.9250   28.4240   45.5620 C   0  0  0  0  0  0  0  0  0  0  0  0
   30.7310   29.5720   44.8880 N   0  0  0  0  0  0  0  0  0  0  0  0
   31.5450   30.6080   45.1230 C   0  0  0  0  0  0  0  0  0  0  0  0
   32.5310   30.5110   46.0080 N   0  0  0  0  0  0  0  0  0  0  0  0
   32.1210   27.4240   47.0260 H   0  0  0  0  0  0  0  0  0  0  0  0
   30.2950   27.5470   45.4120 H   0  0  0  0  0  0  0  0  0  0  0  0
   31.3380   31.8550   44.3940 C   0  0  0  0  0  0  0  0  0  0  0  0
   31.7070   33.0670   44.9670 C   0  0  0  0  0  0  0  0  0  0  0  0
   32.1390   33.0090   45.9570 H   0  0  0  0  0  0  0  0  0  0  0  0
   31.5010   34.2300   44.2570 C   0  0  0  0  0  3  0  0  0  0  0  0
   30.9480   34.2710   43.0000 C   0  0  0  0  0  0  0  0  0  0  0  0
   30.8530   35.2570   42.5780 H   0  0  0  0  0  0  0  0  0  0  0  0
   30.5840   33.0660   42.4340 C   0  0  0  0  0  0  0  0  0  0  0  0
   30.1510   33.1170   41.4460 H   0  0  0  0  0  0  0  0  0  0  0  0
   30.7890   31.8990   43.1430 C   0  0  0  0  0  3  0  0  0  0  0  0
  2  7  1  0  0  0  0
  2  1  1  0  0  0  0
  3  2  2  0  0  0  0
  4  5  2  0  0  0  0
  4  3  1  0  0  0  0
  5  6  1  0  0  0  0
  6  9  1  0  0  0  0
  6  7  2  0  0  0  0
  7 10  1  0  0  0  0
  8  4  1  0  0  0  0
 11 17  1  0  0  0  0
 12 11  2  0  0  0  0
 13 14  2  0  0  0  0
 13 12  1  0  0  0  0
 14 15  1  0  0  0  0
 15  3  1  0  0  0  0
 15 16  2  0  0  0  0
 16 11  1  0  0  0  0
 18 12  1  0  0  0  0
 19 13  1  0  0  0  0
 20  5  1  0  0  0  0
 21 20  1  0  0  0  0
 21 26  1  0  0  0  0
 22 21  2  0  0  0  0
 23 24  2  0  0  0  0
 23 22  1  0  0  0  0
 24 25  1  0  0  0  0
 25 20  2  0  0  0  0
 27 22  1  0  0  0  0
 28 29  1  0  0  0  0
 28 24  1  0  0  0  0
 29 30  1  0  0  0  0
 31 29  2  0  0  0  0
 32 31  1  0  0  0  0
 33 32  1  0  0  0  0
 34 32  2  0  0  0  0
 34 36  1  0  0  0  0
 35 34  1  0  0  0  0
 36 28  2  0  0  0  0
M  END
>  <minimizedAffinity>
-6.65832281

>  <minimizedRMSD>
0.480472118

$$$$
