
 OpenBabel03272506583D

 28 30  0  0  0  0  0  0  0  0999 V2000
   39.8600   30.8360   44.5340 C   0  0  0  0  0  0  0  0  0  0  0  0
   40.4470   32.0660   44.3110 C   0  0  0  0  0  0  0  0  0  0  0  0
   40.4040   33.1580   45.1410 C   0  0  0  0  0  0  0  0  0  0  0  0
   39.7030   32.9790   46.2960 N   0  0  0  0  0  0  0  0  0  0  0  0
   39.1090   31.7710   46.5480 C   0  0  0  0  0  0  0  0  0  0  0  0
   39.1870   30.7310   45.6910 N   0  0  0  0  0  0  0  0  0  0  0  0
   41.0040   32.2050   43.3890 H   0  0  0  0  0  0  0  0  0  0  0  0
   40.8970   34.0850   44.8790 H   0  0  0  0  0  0  0  0  0  0  0  0
   38.3730   31.6490   47.8060 C   0  0  0  0  0  0  0  0  0  0  0  0
   38.2030   32.6930   48.6620 C   0  0  0  0  0  0  0  0  0  0  0  0
   38.6310   33.6580   48.4020 H   0  0  0  0  0  0  0  0  0  0  0  0
   37.5020   32.5090   49.8260 C   0  0  0  0  0  0  0  0  0  0  0  0
   36.9460   31.2760   50.1710 C   0  0  0  0  0  0  0  0  0  0  0  0
   36.3810   31.1180   51.1030 H   0  0  0  0  0  0  0  0  0  0  0  0
   37.1150   30.1990   49.3030 C   0  0  0  0  0  0  0  0  0  0  0  0
   36.6860   29.2560   49.5750 H   0  0  0  0  0  0  0  0  0  0  0  0
   37.8310   30.4350   48.1410 C   0  0  0  0  0  0  0  0  0  0  0  0
   39.1560   27.7220   42.7990 C   0  0  0  0  0  0  0  0  0  0  0  0
   40.1100   27.6500   41.7680 C   0  0  0  0  0  0  0  0  0  0  0  0
   41.0100   28.7300   41.7000 C   0  0  0  0  0  0  0  0  0  0  0  0
   40.9250   29.7510   42.5910 N   0  0  0  0  0  0  0  0  0  0  0  0
   39.9940   29.7570   43.5480 C   0  0  0  0  0  0  0  0  0  0  0  0
   39.0770   28.7470   43.6880 N   0  0  0  0  0  0  0  0  0  0  0  0
   38.4280   26.9320   42.9200 H   0  0  0  0  0  0  0  0  0  0  0  0
   41.7650   28.7240   40.9240 H   0  0  0  0  0  0  0  0  0  0  0  0
   40.1580   26.5700   40.8680 N   0  0  0  0  0  0  0  0  0  0  0  0
   40.1120   25.5540   41.0820 H   0  0  0  0  0  0  0  0  0  0  0  0
   40.2520   26.9530   39.8860 H   0  0  0  0  0  0  0  0  0  0  0  0
  1  6  1  0  0  0  0
  2  1  2  0  0  0  0
  2  3  1  0  0  0  0
  3  4  2  0  0  0  0
  4  5  1  0  0  0  0
  5  9  1  0  0  0  0
  6  5  2  0  0  0  0
  7  2  1  0  0  0  0
  8  3  1  0  0  0  0
  9 17  2  0  0  0  0
  9 10  1  0  0  0  0
 10 12  2  0  0  0  0
 11 10  1  0  0  0  0
 12 13  1  0  0  0  0
 13 14  1  0  0  0  0
 15 16  1  0  0  0  0
 15 13  2  0  0  0  0
 17 15  1  0  0  0  0
 18 24  1  0  0  0  0
 18 23  1  0  0  0  0
 19 18  2  0  0  0  0
 20 19  1  0  0  0  0
 20 21  2  0  0  0  0
 21 22  1  0  0  0  0
 22 23  2  0  0  0  0
 22  1  1  0  0  0  0
 25 20  1  0  0  0  0
 26 27  1  0  0  0  0
 26 19  1  0  0  0  0
 28 26  1  0  0  0  0
M  END
>  <minimizedAffinity>
-6.34121561

>  <minimizedRMSD>
6.34919214

$$$$
