
 OpenBabel03272504543D

 25 27  0  0  0  0  0  0  0  0999 V2000
   36.9870   31.3440   49.2720 C   0  0  0  0  0  0  0  0  0  0  0  0
   37.2410   32.5380   49.9720 C   0  0  0  0  0  0  0  0  0  0  0  0
   38.1650   33.3900   49.3920 C   0  0  0  0  0  0  0  0  0  0  0  0
   38.7640   33.0570   48.2180 N   0  0  0  0  0  0  0  0  0  0  0  0
   38.4970   31.9020   47.5700 C   0  0  0  0  0  0  0  0  0  0  0  0
   37.5950   31.0360   48.1090 N   0  0  0  0  0  0  0  0  0  0  0  0
   36.7620   32.7880   50.8950 H   0  0  0  0  0  0  0  0  0  0  0  0
   38.4420   34.3350   49.8370 H   0  0  0  0  0  0  0  0  0  0  0  0
   39.1820   31.6190   46.3160 C   0  0  0  0  0  0  0  0  0  0  0  0
   40.1340   32.4800   45.8230 C   0  0  0  0  0  0  0  0  0  0  0  0
   40.4180   33.3850   46.3220 H   0  0  0  0  0  0  0  0  0  0  0  0
   40.7350   32.1310   44.6240 C   0  0  0  0  0  0  0  0  0  0  0  0
   40.3820   30.9680   43.9660 C   0  0  0  0  0  0  0  0  0  0  0  0
   40.8280   30.6570   43.0240 H   0  0  0  0  0  0  0  0  0  0  0  0
   39.4240   30.0980   44.4580 C   0  0  0  0  0  0  0  0  0  0  0  0
   39.1330   29.1900   43.9640 H   0  0  0  0  0  0  0  0  0  0  0  0
   38.8210   30.4540   45.6680 C   0  0  0  0  0  0  0  0  0  0  0  0
   35.9700   30.3980   49.8570 C   0  0  0  0  0  0  0  0  0  0  0  0
   36.0400   28.9640   49.6140 C   0  0  0  0  0  0  0  0  0  0  0  0
   36.5450   29.4920   50.9300 C   0  0  0  0  0  0  0  0  0  0  0  0
   35.0120   30.9050   50.0910 H   0  0  0  0  0  0  0  0  0  0  0  0
   35.1190   28.3550   49.6400 H   0  0  0  0  0  0  0  0  0  0  0  0
   36.8290   28.5530   48.9370 H   0  0  0  0  0  0  0  0  0  0  0  0
   37.6160   29.5160   51.1540 H   0  0  0  0  0  0  0  0  0  0  0  0
   35.8740   29.3390   51.7940 H   0  0  0  0  0  0  0  0  0  0  0  0
  1 18  1  0  0  0  0
  1  2  1  0  0  0  0
  2  7  1  0  0  0  0
  3  8  1  0  0  0  0
  3  2  2  0  0  0  0
  4  3  1  0  0  0  0
  5  6  1  0  0  0  0
  5  4  2  0  0  0  0
  6  1  2  0  0  0  0
  9  5  1  0  0  0  0
 10  9  1  0  0  0  0
 10 11  1  0  0  0  0
 12 10  2  0  0  0  0
 13 15  2  0  0  0  0
 13 12  1  0  0  0  0
 14 13  1  0  0  0  0
 15 17  1  0  0  0  0
 16 15  1  0  0  0  0
 17  9  2  0  0  0  0
 18 21  1  0  0  0  0
 18 20  1  0  0  0  0
 19 22  1  0  0  0  0
 19 18  1  0  0  0  0
 19 20  1  0  0  0  0
 20 24  1  0  0  0  0
 20 25  1  0  0  0  0
 23 19  1  0  0  0  0
M  END
>  <minimizedAffinity>
-5.89280796

>  <minimizedRMSD>
0.832967937

$$$$
