
 OpenBabel03272500363D

 21 22  0  0  0  0  0  0  0  0999 V2000
   37.4120   30.2810   50.0390 C   0  0  0  0  0  0  0  0  0  0  0  0
   38.3030   31.3520   50.1620 C   0  0  0  0  0  0  0  0  0  0  0  0
   38.5380   32.1390   49.0280 C   0  0  0  0  0  0  0  0  0  0  0  0
   37.8820   31.8090   47.8840 N   0  0  0  0  0  0  0  0  0  0  0  0
   37.0290   30.7670   47.8050 C   0  0  0  0  0  0  0  0  0  0  0  0
   36.7990   30.0130   48.8780 N   0  0  0  0  0  0  0  0  0  0  0  0
   38.8260   31.6120   51.0790 H   0  0  0  0  0  0  0  0  0  0  0  0
   39.1950   32.9770   49.0030 H   0  0  0  0  0  0  0  0  0  0  0  0
   36.3690   30.4840   46.5390 C   0  0  0  0  0  0  0  0  0  0  0  0
   35.0970   29.9510   46.5070 C   0  0  0  0  0  0  0  0  0  0  0  0
   34.5520   29.7270   47.4200 H   0  0  0  0  0  0  0  0  0  0  0  0
   34.4720   29.6820   45.3100 C   0  0  0  0  0  0  0  0  0  0  0  0
   35.0730   29.9270   44.0900 C   0  0  0  0  0  0  0  0  0  0  0  0
   34.5770   29.7150   43.1560 H   0  0  0  0  0  0  0  0  0  0  0  0
   36.3480   30.4620   44.1000 C   0  0  0  0  0  0  0  0  0  0  0  0
   36.7930   30.6430   43.1450 H   0  0  0  0  0  0  0  0  0  0  0  0
   36.9550   30.7230   45.3120 C   0  0  0  0  0  0  0  0  0  0  0  0
   37.1640   29.4390   51.2610 C   0  0  0  0  0  0  0  0  0  0  0  0
   35.7980   29.1930   51.3810 F   0  0  0  0  0  0  0  0  0  0  0  0
   37.8970   28.2990   51.1430 F   0  0  0  0  0  0  0  0  0  0  0  0
   37.5270   30.1900   52.3690 F   0  0  0  0  0  0  0  0  0  0  0  0
  1  2  1  0  0  0  0
  1 18  1  0  0  0  0
  2  7  1  0  0  0  0
  3  2  2  0  0  0  0
  4  3  1  0  0  0  0
  5  4  2  0  0  0  0
  5  6  1  0  0  0  0
  6  1  2  0  0  0  0
  8  3  1  0  0  0  0
  9  5  1  0  0  0  0
 10  9  1  0  0  0  0
 10 11  1  0  0  0  0
 12 10  2  0  0  0  0
 13 15  2  0  0  0  0
 13 12  1  0  0  0  0
 14 13  1  0  0  0  0
 15 17  1  0  0  0  0
 16 15  1  0  0  0  0
 17  9  2  0  0  0  0
 18 19  1  0  0  0  0
 18 21  1  0  0  0  0
 20 18  1  0  0  0  0
M  END
>  <minimizedAffinity>
-5.42867565

>  <minimizedRMSD>
0.752708018

$$$$
