
 OpenBabel03272505533D

 44 47  0  0  1  0  0  0  0  0999 V2000
   37.1680   28.9490   29.5930 C   0  0  0  0  0  0  0  0  0  0  0  0
   38.5220   29.0500   29.1920 C   0  0  0  0  0  0  0  0  0  0  0  0
   39.3950   28.0620   29.6440 C   0  0  0  0  0  0  0  0  0  0  0  0
   38.8950   27.0720   30.4340 N   0  0  0  0  0  0  0  0  0  0  0  0
   37.6140   27.0190   30.7850 C   0  0  0  0  0  0  0  0  0  0  0  0
   36.7580   27.9520   30.3660 N   0  0  0  0  0  0  0  0  0  0  0  0
   37.1550   25.9620   31.6110 N   0  0  0  0  0  0  0  0  0  0  0  0
   35.7850   25.4790   31.5470 C   0  0  0  0  0  0  0  0  0  0  0  0
   35.7720   23.9990   31.3300 C   0  0  0  0  0  0  0  0  0  0  0  0
   36.9560   23.3300   31.5500 N   0  0  0  0  0  0  0  0  0  0  0  0
   37.9810   23.8680   32.4090 C   0  0  0  0  0  0  0  0  0  0  0  0
   38.0360   25.3060   32.5660 C   0  0  2  0  0  0  0  0  0  0  0  0
   36.5640   29.7430   29.2050 H   0  0  0  0  0  0  0  0  0  0  0  0
   38.9620   29.8120   28.5700 H   0  0  0  0  0  0  0  0  0  0  0  0
   40.4470   28.0620   29.3860 H   0  0  0  0  0  0  0  0  0  0  0  0
   35.3540   25.9310   30.5980 H   0  0  0  0  0  0  0  0  0  0  0  0
   35.1300   25.8570   32.3310 H   0  0  0  0  0  0  0  0  0  0  0  0
   35.3560   23.7080   30.3430 H   0  0  0  0  0  0  0  0  0  0  0  0
   35.0030   23.6080   32.0590 H   0  0  0  0  0  0  0  0  0  0  0  0
   36.8490   22.3190   31.6600 H   0  0  0  0  0  0  0  0  0  0  0  0
   38.0600   23.1830   33.2400 H   0  0  0  0  0  0  0  0  0  0  0  0
   38.9150   23.5840   31.8080 H   0  0  0  0  0  0  0  0  0  0  0  0
   39.0710   25.7280   32.3840 H   0  0  0  0  0  0  0  0  0  0  0  0
   37.6560   25.7870   33.8850 N   0  0  2  0  0  0  0  0  0  0  0  0
   36.9250   27.0510   33.7910 C   0  0  0  0  0  0  0  0  0  0  0  0
   37.3400   27.8930   34.9840 C   0  0  0  0  0  0  0  0  0  0  0  0
   38.1260   26.9370   35.8040 C   0  0  0  0  0  0  0  0  0  0  0  0
   38.7640   26.0150   34.7420 C   0  0  1  0  0  0  0  0  0  0  0  0
   37.2170   27.5990   32.8640 H   0  0  0  0  0  0  0  0  0  0  0  0
   35.8460   26.8910   33.7260 H   0  0  0  0  0  0  0  0  0  0  0  0
   37.9450   28.7620   34.6650 H   0  0  0  0  0  0  0  0  0  0  0  0
   36.3980   28.2470   35.4720 H   0  0  0  0  0  0  0  0  0  0  0  0
   37.4120   26.3370   36.4000 H   0  0  0  0  0  0  0  0  0  0  0  0
   38.9100   27.4000   36.4350 H   0  0  0  0  0  0  0  0  0  0  0  0
   39.5630   26.6670   34.4040 H   0  0  0  0  0  0  0  0  0  0  0  0
   39.1920   24.8700   35.5800 C   0  0  0  0  0  0  0  0  0  0  0  0
   38.3920   24.4930   36.6420 C   0  0  0  0  0  0  0  0  0  0  0  0
   37.4430   24.9810   36.9160 H   0  0  0  0  0  0  0  0  0  0  0  0
   38.6770   23.4580   37.4980 C   0  0  0  0  0  3  0  0  0  0  0  0
   39.8260   22.7200   37.3200 C   0  0  0  0  0  0  0  0  0  0  0  0
   40.1920   21.8840   37.8960 H   0  0  0  0  0  0  0  0  0  0  0  0
   40.6460   23.0550   36.2810 C   0  0  0  0  0  0  0  0  0  0  0  0
   41.5740   22.5590   36.0340 H   0  0  0  0  0  0  0  0  0  0  0  0
   40.3310   24.1010   35.4420 C   0  0  0  0  0  3  0  0  0  0  0  0
  1  6  1  0  0  0  0
  2  1  2  0  0  0  0
  2  3  1  0  0  0  0
  3  4  2  0  0  0  0
  4  5  1  0  0  0  0
  5  7  1  0  0  0  0
  6  5  2  0  0  0  0
  7 12  1  0  0  0  0
  8  7  1  0  0  0  0
  8 17  1  0  0  0  0
  9  8  1  0  0  0  0
  9 10  1  0  0  0  0
  9 19  1  0  0  0  0
 10 20  1  0  0  0  0
 10 11  1  0  0  0  0
 11 12  1  0  0  0  0
 11 21  1  0  0  0  0
 12 23  1  6  0  0  0
 12 24  1  0  0  0  0
 13  1  1  0  0  0  0
 14  2  1  0  0  0  0
 15  3  1  0  0  0  0
 16  8  1  0  0  0  0
 18  9  1  0  0  0  0
 22 11  1  0  0  0  0
 24 25  1  6  0  0  0
 24 28  1  0  0  0  0
 25 26  1  0  0  0  0
 26 32  1  0  0  0  0
 26 27  1  0  0  0  0
 27 33  1  0  0  0  0
 27 34  1  0  0  0  0
 28 35  1  6  0  0  0
 28 36  1  0  0  0  0
 28 27  1  0  0  0  0
 29 25  1  0  0  0  0
 30 25  1  0  0  0  0
 31 26  1  0  0  0  0
 36 37  1  0  0  0  0
 37 38  1  0  0  0  0
 37 39  2  0  0  0  0
 40 39  1  0  0  0  0
 40 41  1  0  0  0  0
 42 40  2  0  0  0  0
 43 42  1  0  0  0  0
 44 36  2  0  0  0  0
 44 42  1  0  0  0  0
M  END
>  <minimizedAffinity>
-5.88274574

$$$$

 OpenBabel03272505533D

 44 47  0  0  1  0  0  0  0  0999 V2000
   37.5420   27.0780   35.2860 C   0  0  0  0  0  0  0  0  0  0  0  0
   38.8840   27.4800   35.4950 C   0  0  0  0  0  0  0  0  0  0  0  0
   39.8710   26.7820   34.8020 C   0  0  0  0  0  0  0  0  0  0  0  0
   39.4880   25.7690   33.9760 N   0  0  0  0  0  0  0  0  0  0  0  0
   38.2140   25.4270   33.8130 C   0  0  0  0  0  0  0  0  0  0  0  0
   37.2500   26.0790   34.4640 N   0  0  0  0  0  0  0  0  0  0  0  0
   37.8790   24.3620   32.9390 N   0  0  0  0  0  0  0  0  0  0  0  0
   36.6010   24.3130   32.2470 C   0  0  0  0  0  0  0  0  0  0  0  0
   36.8210   24.1430   30.7770 C   0  0  0  0  0  0  0  0  0  0  0  0
   38.0800   23.7500   30.3790 N   0  0  0  0  0  0  0  0  0  0  0  0
   38.9700   23.0480   31.2690 C   0  0  0  0  0  0  0  0  0  0  0  0
   38.8010   23.2640   32.6910 C   0  0  2  0  0  0  0  0  0  0  0  0
   36.8450   27.6610   35.8520 H   0  0  0  0  0  0  0  0  0  0  0  0
   39.2340   28.2720   36.1350 H   0  0  0  0  0  0  0  0  0  0  0  0
   40.9230   27.0230   34.9020 H   0  0  0  0  0  0  0  0  0  0  0  0
   36.1540   25.3490   32.3720 H   0  0  0  0  0  0  0  0  0  0  0  0
   35.8600   23.6570   32.7020 H   0  0  0  0  0  0  0  0  0  0  0  0
   36.5010   25.0260   30.1850 H   0  0  0  0  0  0  0  0  0  0  0  0
   36.0850   23.3450   30.4660 H   0  0  0  0  0  0  0  0  0  0  0  0
   38.1190   23.3850   29.4240 H   0  0  0  0  0  0  0  0  0  0  0  0
   39.1100   22.0690   30.8360 H   0  0  0  0  0  0  0  0  0  0  0  0
   39.9640   23.5490   30.9940 H   0  0  0  0  0  0  0  0  0  0  0  0
   39.7690   23.5390   33.2110 H   0  0  0  0  0  0  0  0  0  0  0  0
   38.2900   22.1160   33.4230 N   0  0  2  0  0  0  0  0  0  0  0  0
   37.4600   21.2730   32.5630 C   0  0  0  0  0  0  0  0  0  0  0  0
   36.3290   20.7400   33.4220 C   0  0  0  0  0  0  0  0  0  0  0  0
   36.7340   21.1500   34.7900 C   0  0  0  0  0  0  0  0  0  0  0  0
   37.4950   22.4710   34.5440 C   0  0  1  0  0  0  0  0  0  0  0  0
   37.0100   21.8820   31.7420 H   0  0  0  0  0  0  0  0  0  0  0  0
   38.0450   20.4880   32.0770 H   0  0  0  0  0  0  0  0  0  0  0  0
   35.3600   21.1840   33.1260 H   0  0  0  0  0  0  0  0  0  0  0  0
   36.3010   19.6330   33.2670 H   0  0  0  0  0  0  0  0  0  0  0  0
   37.4560   20.4000   35.1680 H   0  0  0  0  0  0  0  0  0  0  0  0
   35.8950   21.3130   35.4960 H   0  0  0  0  0  0  0  0  0  0  0  0
   36.6480   23.1340   34.3970 H   0  0  0  0  0  0  0  0  0  0  0  0
   38.2100   22.6320   35.8310 C   0  0  0  0  0  0  0  0  0  0  0  0
   37.5420   23.2180   36.8900 C   0  0  0  0  0  0  0  0  0  0  0  0
   36.5000   23.5730   36.8530 H   0  0  0  0  0  0  0  0  0  0  0  0
   38.0900   23.4330   38.1310 C   0  0  0  0  0  3  0  0  0  0  0  0
   39.3900   23.0530   38.3770 C   0  0  0  0  0  0  0  0  0  0  0  0
   39.9650   23.1490   39.2860 H   0  0  0  0  0  0  0  0  0  0  0  0
   40.0900   22.4690   37.3600 C   0  0  0  0  0  0  0  0  0  0  0  0
   41.1140   22.1280   37.4240 H   0  0  0  0  0  0  0  0  0  0  0  0
   39.5090   22.2700   36.1280 C   0  0  0  0  0  3  0  0  0  0  0  0
  1  2  1  0  0  0  0
  1 13  1  0  0  0  0
  2 14  1  0  0  0  0
  3 15  1  0  0  0  0
  3  2  2  0  0  0  0
  4  3  1  0  0  0  0
  5  4  2  0  0  0  0
  5  6  1  0  0  0  0
  6  1  2  0  0  0  0
  7  5  1  0  0  0  0
  8 16  1  0  0  0  0
  8 17  1  0  0  0  0
  8  7  1  0  0  0  0
  9  8  1  0  0  0  0
 10  9  1  0  0  0  0
 10 11  1  0  0  0  0
 11 12  1  0  0  0  0
 12  7  1  0  0  0  0
 12 23  1  1  0  0  0
 12 24  1  0  0  0  0
 18  9  1  0  0  0  0
 19  9  1  0  0  0  0
 20 10  1  0  0  0  0
 21 11  1  0  0  0  0
 22 11  1  0  0  0  0
 24 25  1  6  0  0  0
 24 28  1  0  0  0  0
 25 26  1  0  0  0  0
 26 27  1  0  0  0  0
 27 33  1  0  0  0  0
 27 34  1  0  0  0  0
 28 35  1  6  0  0  0
 28 27  1  0  0  0  0
 28 36  1  0  0  0  0
 29 25  1  0  0  0  0
 30 25  1  0  0  0  0
 31 26  1  0  0  0  0
 32 26  1  0  0  0  0
 36 44  2  0  0  0  0
 36 37  1  0  0  0  0
 37 39  2  0  0  0  0
 38 37  1  0  0  0  0
 39 40  1  0  0  0  0
 40 41  1  0  0  0  0
 42 43  1  0  0  0  0
 42 40  2  0  0  0  0
 44 42  1  0  0  0  0
M  END
>  <minimizedAffinity>
-5.69556761

$$$$

 OpenBabel03272505533D

 44 47  0  0  1  0  0  0  0  0999 V2000
   37.9100   23.0440   31.0630 C   0  0  0  0  0  0  0  0  0  0  0  0
   36.6010   22.5270   31.2180 C   0  0  0  0  0  0  0  0  0  0  0  0
   35.5640   23.4490   31.3470 C   0  0  0  0  0  0  0  0  0  0  0  0
   35.8720   24.7750   31.3160 N   0  0  0  0  0  0  0  0  0  0  0  0
   37.1180   25.2140   31.1690 C   0  0  0  0  0  0  0  0  0  0  0  0
   38.1280   24.3520   31.0440 N   0  0  0  0  0  0  0  0  0  0  0  0
   37.3740   26.6090   31.1450 N   0  0  0  0  0  0  0  0  0  0  0  0
   38.5020   27.1680   30.4180 C   0  0  0  0  0  0  0  0  0  0  0  0
   38.0300   28.2360   29.4830 C   0  0  0  0  0  0  0  0  0  0  0  0
   36.7570   28.7210   29.6870 N   0  0  0  0  0  0  0  0  0  0  0  0
   36.1070   28.6260   30.9700 C   0  0  0  0  0  0  0  0  0  0  0  0
   36.5160   27.5500   31.8490 C   0  0  2  0  0  0  0  0  0  0  0  0
   38.6480   22.2740   30.9700 H   0  0  0  0  0  0  0  0  0  0  0  0
   36.3090   21.4900   31.2480 H   0  0  0  0  0  0  0  0  0  0  0  0
   34.5330   23.1420   31.4690 H   0  0  0  0  0  0  0  0  0  0  0  0
   38.8770   26.3250   29.7560 H   0  0  0  0  0  0  0  0  0  0  0  0
   39.3660   27.4130   31.0340 H   0  0  0  0  0  0  0  0  0  0  0  0
   38.1610   27.9670   28.4150 H   0  0  0  0  0  0  0  0  0  0  0  0
   38.7610   29.0860   29.6260 H   0  0  0  0  0  0  0  0  0  0  0  0
   36.5730   29.6130   29.2240 H   0  0  0  0  0  0  0  0  0  0  0  0
   35.9720   29.6420   31.3090 H   0  0  0  0  0  0  0  0  0  0  0  0
   35.0410   28.3670   30.6360 H   0  0  0  0  0  0  0  0  0  0  0  0
   35.6410   26.9490   32.2430 H   0  0  0  0  0  0  0  0  0  0  0  0
   37.2470   27.9780   33.0320 N   0  0  2  0  0  0  0  0  0  0  0  0
   38.4200   27.1340   33.2570 C   0  0  0  0  0  0  0  0  0  0  0  0
   38.5720   26.9770   34.7590 C   0  0  0  0  0  0  0  0  0  0  0  0
   37.5820   27.9450   35.2930 C   0  0  0  0  0  0  0  0  0  0  0  0
   36.4710   27.9310   34.2200 C   0  0  1  0  0  0  0  0  0  0  0  0
   38.2570   26.1200   32.8190 H   0  0  0  0  0  0  0  0  0  0  0  0
   39.3100   27.5390   32.7690 H   0  0  0  0  0  0  0  0  0  0  0  0
   38.3500   25.9400   35.0740 H   0  0  0  0  0  0  0  0  0  0  0  0
   39.6340   27.2270   35.0030 H   0  0  0  0  0  0  0  0  0  0  0  0
   38.0540   28.9470   35.2890 H   0  0  0  0  0  0  0  0  0  0  0  0
   37.1640   27.6850   36.2850 H   0  0  0  0  0  0  0  0  0  0  0  0
   35.9820   27.0010   34.4900 H   0  0  0  0  0  0  0  0  0  0  0  0
   35.7250   29.1640   34.5650 C   0  0  0  0  0  0  0  0  0  0  0  0
   36.3560   30.1240   35.3340 C   0  0  0  0  0  0  0  0  0  0  0  0
   37.3880   30.0470   35.7100 H   0  0  0  0  0  0  0  0  0  0  0  0
   35.7760   31.3040   35.7300 C   0  0  0  0  0  3  0  0  0  0  0  0
   34.4810   31.5880   35.3560 C   0  0  0  0  0  0  0  0  0  0  0  0
   33.8860   32.4600   35.5800 H   0  0  0  0  0  0  0  0  0  0  0  0
   33.8190   30.6680   34.5950 C   0  0  0  0  0  0  0  0  0  0  0  0
   32.8040   30.7690   34.2380 H   0  0  0  0  0  0  0  0  0  0  0  0
   34.4300   29.4940   34.2160 C   0  0  0  0  0  3  0  0  0  0  0  0
  1  2  1  0  0  0  0
  2 14  1  0  0  0  0
  2  3  2  0  0  0  0
  3 15  1  0  0  0  0
  4  3  1  0  0  0  0
  5  4  2  0  0  0  0
  6  1  2  0  0  0  0
  6  5  1  0  0  0  0
  7  5  1  0  0  0  0
  7 12  1  0  0  0  0
  8 17  1  0  0  0  0
  8  7  1  0  0  0  0
  9 19  1  0  0  0  0
  9 10  1  0  0  0  0
  9  8  1  0  0  0  0
 10 11  1  0  0  0  0
 11 21  1  0  0  0  0
 11 12  1  0  0  0  0
 12 23  1  1  0  0  0
 12 24  1  0  0  0  0
 13  1  1  0  0  0  0
 16  8  1  0  0  0  0
 18  9  1  0  0  0  0
 20 10  1  0  0  0  0
 22 11  1  0  0  0  0
 24 25  1  1  0  0  0
 24 28  1  0  0  0  0
 25 26  1  0  0  0  0
 26 32  1  0  0  0  0
 26 31  1  0  0  0  0
 26 27  1  0  0  0  0
 27 34  1  0  0  0  0
 28 35  1  1  0  0  0
 28 36  1  0  0  0  0
 28 27  1  0  0  0  0
 29 25  1  0  0  0  0
 30 25  1  0  0  0  0
 33 27  1  0  0  0  0
 36 37  1  0  0  0  0
 37 38  1  0  0  0  0
 37 39  2  0  0  0  0
 40 41  1  0  0  0  0
 40 39  1  0  0  0  0
 42 40  2  0  0  0  0
 43 42  1  0  0  0  0
 44 36  2  0  0  0  0
 44 42  1  0  0  0  0
M  END
>  <minimizedAffinity>
-5.68401718

$$$$

 OpenBabel03272505533D

 44 47  0  0  1  0  0  0  0  0999 V2000
   35.3080   19.4930   33.4020 C   0  0  0  0  0  0  0  0  0  0  0  0
   35.2160   18.8950   32.1220 C   0  0  0  0  0  0  0  0  0  0  0  0
   35.9010   19.5160   31.0800 C   0  0  0  0  0  0  0  0  0  0  0  0
   36.6080   20.6470   31.3550 N   0  0  0  0  0  0  0  0  0  0  0  0
   36.6650   21.1720   32.5740 C   0  0  0  0  0  0  0  0  0  0  0  0
   36.0180   20.5970   33.5900 N   0  0  0  0  0  0  0  0  0  0  0  0
   37.4180   22.3530   32.7970 N   0  0  0  0  0  0  0  0  0  0  0  0
   38.0260   22.6420   34.0860 C   0  0  0  0  0  0  0  0  0  0  0  0
   39.4860   22.9220   33.9120 C   0  0  0  0  0  0  0  0  0  0  0  0
   39.9200   23.1780   32.6310 N   0  0  0  0  0  0  0  0  0  0  0  0
   39.0250   23.6630   31.6100 C   0  0  0  0  0  0  0  0  0  0  0  0
   37.6210   23.3350   31.7420 C   0  0  2  0  0  0  0  0  0  0  0  0
   34.7560   18.9570   34.1480 H   0  0  0  0  0  0  0  0  0  0  0  0
   34.6720   18.0040   31.8570 H   0  0  0  0  0  0  0  0  0  0  0  0
   35.8860   19.1270   30.0690 H   0  0  0  0  0  0  0  0  0  0  0  0
   37.9680   21.6680   34.6680 H   0  0  0  0  0  0  0  0  0  0  0  0
   37.4710   23.3450   34.7060 H   0  0  0  0  0  0  0  0  0  0  0  0
   40.1340   22.1520   34.3800 H   0  0  0  0  0  0  0  0  0  0  0  0
   39.6790   23.8390   34.5430 H   0  0  0  0  0  0  0  0  0  0  0  0
   40.8390   23.6240   32.5850 H   0  0  0  0  0  0  0  0  0  0  0  0
   39.3760   24.6510   31.3550 H   0  0  0  0  0  0  0  0  0  0  0  0
   39.4020   23.0610   30.7100 H   0  0  0  0  0  0  0  0  0  0  0  0
   37.1860   22.8820   30.7990 H   0  0  0  0  0  0  0  0  0  0  0  0
   36.7600   24.4650   32.0530 N   0  0  2  0  0  0  0  0  0  0  0  0
   35.6200   24.5230   31.1380 C   0  0  0  0  0  0  0  0  0  0  0  0
   35.3380   25.9910   30.8730 C   0  0  0  0  0  0  0  0  0  0  0  0
   36.2170   26.6770   31.8520 C   0  0  0  0  0  0  0  0  0  0  0  0
   37.4230   25.7180   31.9660 C   0  0  1  0  0  0  0  0  0  0  0  0
   35.8800   24.0410   30.1650 H   0  0  0  0  0  0  0  0  0  0  0  0
   34.7580   23.9780   31.5300 H   0  0  0  0  0  0  0  0  0  0  0  0
   35.5870   26.2610   29.8300 H   0  0  0  0  0  0  0  0  0  0  0  0
   34.2450   26.1460   31.0530 H   0  0  0  0  0  0  0  0  0  0  0  0
   35.6930   26.6890   32.8280 H   0  0  0  0  0  0  0  0  0  0  0  0
   36.5550   27.6870   31.5480 H   0  0  0  0  0  0  0  0  0  0  0  0
   37.9360   25.9760   31.0450 H   0  0  0  0  0  0  0  0  0  0  0  0
   38.0630   26.2090   33.2080 C   0  0  0  0  0  0  0  0  0  0  0  0
   37.3140   26.2420   34.3690 C   0  0  0  0  0  0  0  0  0  0  0  0
   36.2630   25.9200   34.4460 H   0  0  0  0  0  0  0  0  0  0  0  0
   37.7830   26.6820   35.5830 C   0  0  0  0  0  3  0  0  0  0  0  0
   39.0810   27.1260   35.6930 C   0  0  0  0  0  0  0  0  0  0  0  0
   39.5990   27.4990   36.5630 H   0  0  0  0  0  0  0  0  0  0  0  0
   39.8590   27.1110   34.5710 C   0  0  0  0  0  0  0  0  0  0  0  0
   40.8900   27.4330   34.5230 H   0  0  0  0  0  0  0  0  0  0  0  0
   39.3560   26.6650   33.3690 C   0  0  0  0  0  3  0  0  0  0  0  0
  1  6  1  0  0  0  0
  1 13  1  0  0  0  0
  2  1  2  0  0  0  0
  3  4  2  0  0  0  0
  3  2  1  0  0  0  0
  4  5  1  0  0  0  0
  5  7  1  0  0  0  0
  5  6  2  0  0  0  0
  7  8  1  0  0  0  0
  8 16  1  0  0  0  0
  8 17  1  0  0  0  0
  9  8  1  0  0  0  0
  9 18  1  0  0  0  0
  9 19  1  0  0  0  0
 10  9  1  0  0  0  0
 11 12  1  0  0  0  0
 11 10  1  0  0  0  0
 12 23  1  6  0  0  0
 12 24  1  0  0  0  0
 12  7  1  0  0  0  0
 14  2  1  0  0  0  0
 15  3  1  0  0  0  0
 20 10  1  0  0  0  0
 21 11  1  0  0  0  0
 22 11  1  0  0  0  0
 24 25  1  6  0  0  0
 25 30  1  0  0  0  0
 26 32  1  0  0  0  0
 26 25  1  0  0  0  0
 26 27  1  0  0  0  0
 27 28  1  0  0  0  0
 27 33  1  0  0  0  0
 28 35  1  6  0  0  0
 28 24  1  0  0  0  0
 28 36  1  0  0  0  0
 29 25  1  0  0  0  0
 31 26  1  0  0  0  0
 34 27  1  0  0  0  0
 36 44  2  0  0  0  0
 36 37  1  0  0  0  0
 37 38  1  0  0  0  0
 37 39  2  0  0  0  0
 39 40  1  0  0  0  0
 40 41  1  0  0  0  0
 42 40  2  0  0  0  0
 43 42  1  0  0  0  0
 44 42  1  0  0  0  0
M  END
>  <minimizedAffinity>
-5.6303544

$$$$

 OpenBabel03272505533D

 44 47  0  0  1  0  0  0  0  0999 V2000
   37.7890   24.2310   36.7210 C   0  0  0  0  0  0  0  0  0  0  0  0
   38.3760   22.9950   37.0840 C   0  0  0  0  0  0  0  0  0  0  0  0
   39.0900   22.3170   36.0980 C   0  0  0  0  0  0  0  0  0  0  0  0
   39.1770   22.8790   34.8610 N   0  0  0  0  0  0  0  0  0  0  0  0
   38.6080   24.0440   34.5670 C   0  0  0  0  0  0  0  0  0  0  0  0
   37.9190   24.7130   35.4930 N   0  0  0  0  0  0  0  0  0  0  0  0
   38.7340   24.5780   33.2590 N   0  0  0  0  0  0  0  0  0  0  0  0
   38.7040   26.0100   33.0100 C   0  0  0  0  0  0  0  0  0  0  0  0
   39.9130   26.4200   32.2310 C   0  0  0  0  0  0  0  0  0  0  0  0
   40.6320   25.4130   31.6250 N   0  0  0  0  0  0  0  0  0  0  0  0
   40.0310   24.1430   31.3010 C   0  0  0  0  0  0  0  0  0  0  0  0
   38.9020   23.7140   32.1000 C   0  0  2  0  0  0  0  0  0  0  0  0
   37.2590   24.6890   37.5320 H   0  0  0  0  0  0  0  0  0  0  0  0
   38.3350   22.5120   38.0460 H   0  0  0  0  0  0  0  0  0  0  0  0
   39.5720   21.3650   36.2890 H   0  0  0  0  0  0  0  0  0  0  0  0
   38.8200   26.4920   34.0320 H   0  0  0  0  0  0  0  0  0  0  0  0
   37.7480   26.3910   32.6540 H   0  0  0  0  0  0  0  0  0  0  0  0
   40.6000   27.0750   32.8060 H   0  0  0  0  0  0  0  0  0  0  0  0
   39.5170   27.1060   31.4260 H   0  0  0  0  0  0  0  0  0  0  0  0
   41.2700   25.7380   30.8950 H   0  0  0  0  0  0  0  0  0  0  0  0
   40.0480   24.0750   30.2240 H   0  0  0  0  0  0  0  0  0  0  0  0
   40.8920   23.4380   31.5750 H   0  0  0  0  0  0  0  0  0  0  0  0
   39.0230   22.6620   32.5020 H   0  0  0  0  0  0  0  0  0  0  0  0
   37.6290   23.7080   31.3960 N   0  0  2  0  0  0  0  0  0  0  0  0
   37.3190   25.0320   30.8600 C   0  0  0  0  0  0  0  0  0  0  0  0
   35.8180   25.2220   30.9870 C   0  0  0  0  0  0  0  0  0  0  0  0
   35.3490   23.8730   31.3900 C   0  0  0  0  0  0  0  0  0  0  0  0
   36.5340   23.3280   32.2170 C   0  0  1  0  0  0  0  0  0  0  0  0
   37.8180   25.8230   31.4700 H   0  0  0  0  0  0  0  0  0  0  0  0
   37.6880   25.1530   29.8390 H   0  0  0  0  0  0  0  0  0  0  0  0
   35.5770   25.9900   31.7460 H   0  0  0  0  0  0  0  0  0  0  0  0
   35.4500   25.5530   29.9840 H   0  0  0  0  0  0  0  0  0  0  0  0
   35.2550   23.2590   30.4740 H   0  0  0  0  0  0  0  0  0  0  0  0
   34.4200   23.8640   31.9950 H   0  0  0  0  0  0  0  0  0  0  0  0
   36.3620   23.8670   33.1430 H   0  0  0  0  0  0  0  0  0  0  0  0
   36.2130   21.8820   32.2560 C   0  0  0  0  0  0  0  0  0  0  0  0
   36.2710   21.1600   31.0790 C   0  0  0  0  0  0  0  0  0  0  0  0
   36.5470   21.5810   30.0990 H   0  0  0  0  0  0  0  0  0  0  0  0
   35.9900   19.8190   30.9760 C   0  0  0  0  0  3  0  0  0  0  0  0
   35.6250   19.1110   32.0980 C   0  0  0  0  0  0  0  0  0  0  0  0
   35.3760   18.0640   32.1890 H   0  0  0  0  0  0  0  0  0  0  0  0
   35.5560   19.7820   33.2850 C   0  0  0  0  0  0  0  0  0  0  0  0
   35.2820   19.3440   34.2340 H   0  0  0  0  0  0  0  0  0  0  0  0
   35.8430   21.1280   33.3520 C   0  0  0  0  0  3  0  0  0  0  0  0
  1  2  1  0  0  0  0
  1 13  1  0  0  0  0
  2 14  1  0  0  0  0
  3 15  1  0  0  0  0
  3  2  2  0  0  0  0
  4  3  1  0  0  0  0
  5  4  2  0  0  0  0
  5  6  1  0  0  0  0
  6  1  2  0  0  0  0
  7  5  1  0  0  0  0
  8  7  1  0  0  0  0
  8 16  1  0  0  0  0
  9 18  1  0  0  0  0
  9  8  1  0  0  0  0
 10  9  1  0  0  0  0
 11 22  1  0  0  0  0
 11 10  1  0  0  0  0
 11 12  1  0  0  0  0
 12 23  1  1  0  0  0
 12  7  1  0  0  0  0
 17  8  1  0  0  0  0
 19  9  1  0  0  0  0
 20 10  1  0  0  0  0
 21 11  1  0  0  0  0
 24 25  1  1  0  0  0
 24 12  1  0  0  0  0
 24 28  1  0  0  0  0
 25 26  1  0  0  0  0
 25 29  1  0  0  0  0
 26 27  1  0  0  0  0
 26 31  1  0  0  0  0
 27 34  1  0  0  0  0
 27 28  1  0  0  0  0
 28 36  1  0  0  0  0
 28 35  1  1  0  0  0
 30 25  1  0  0  0  0
 32 26  1  0  0  0  0
 33 27  1  0  0  0  0
 36 44  1  0  0  0  0
 37 36  2  0  0  0  0
 38 37  1  0  0  0  0
 39 37  1  0  0  0  0
 39 40  2  0  0  0  0
 40 41  1  0  0  0  0
 40 42  1  0  0  0  0
 42 44  2  0  0  0  0
 42 43  1  0  0  0  0
M  END
>  <minimizedAffinity>
-5.6242857

$$$$

 OpenBabel03272505533D

 44 47  0  0  1  0  0  0  0  0999 V2000
   42.4080   26.2860   34.2140 C   0  0  0  0  0  0  0  0  0  0  0  0
   41.4900   27.2750   33.7840 C   0  0  0  0  0  0  0  0  0  0  0  0
   40.1340   26.9920   33.9370 C   0  0  0  0  0  0  0  0  0  0  0  0
   39.7810   25.7960   34.4840 N   0  0  0  0  0  0  0  0  0  0  0  0
   40.6800   24.8970   34.8720 C   0  0  0  0  0  0  0  0  0  0  0  0
   41.9850   25.1430   34.7370 N   0  0  0  0  0  0  0  0  0  0  0  0
   40.2500   23.6680   35.4340 N   0  0  0  0  0  0  0  0  0  0  0  0
   41.0610   22.9400   36.3950 C   0  0  0  0  0  0  0  0  0  0  0  0
   40.2610   22.6510   37.6260 C   0  0  0  0  0  0  0  0  0  0  0  0
   38.8960   22.8050   37.5290 N   0  0  0  0  0  0  0  0  0  0  0  0
   38.2140   22.7320   36.2610 C   0  0  0  0  0  0  0  0  0  0  0  0
   38.9690   23.0770   35.0750 C   0  0  2  0  0  0  0  0  0  0  0  0
   43.4280   26.5780   34.0630 H   0  0  0  0  0  0  0  0  0  0  0  0
   41.7210   28.2330   33.3480 H   0  0  0  0  0  0  0  0  0  0  0  0
   39.3630   27.6910   33.6360 H   0  0  0  0  0  0  0  0  0  0  0  0
   41.8680   23.6710   36.7180 H   0  0  0  0  0  0  0  0  0  0  0  0
   41.6230   22.1050   35.9780 H   0  0  0  0  0  0  0  0  0  0  0  0
   40.6350   23.1870   38.5230 H   0  0  0  0  0  0  0  0  0  0  0  0
   40.4810   21.5690   37.8640 H   0  0  0  0  0  0  0  0  0  0  0  0
   38.3720   22.3470   38.2780 H   0  0  0  0  0  0  0  0  0  0  0  0
   37.5750   21.8640   36.3190 H   0  0  0  0  0  0  0  0  0  0  0  0
   37.4470   23.5730   36.3980 H   0  0  0  0  0  0  0  0  0  0  0  0
   38.4400   23.8370   34.4230 H   0  0  0  0  0  0  0  0  0  0  0  0
   39.2590   21.9570   34.1930 N   0  0  2  0  0  0  0  0  0  0  0  0
   40.7010   21.7760   34.0320 C   0  0  0  0  0  0  0  0  0  0  0  0
   40.9360   21.3420   32.5960 C   0  0  0  0  0  0  0  0  0  0  0  0
   39.5610   21.0890   32.1000 C   0  0  0  0  0  0  0  0  0  0  0  0
   38.7140   22.1110   32.8910 C   0  0  1  0  0  0  0  0  0  0  0  0
   41.2330   22.7450   34.1900 H   0  0  0  0  0  0  0  0  0  0  0  0
   41.1080   21.0800   34.7690 H   0  0  0  0  0  0  0  0  0  0  0  0
   41.4470   22.1360   32.0190 H   0  0  0  0  0  0  0  0  0  0  0  0
   41.5820   20.4300   32.6380 H   0  0  0  0  0  0  0  0  0  0  0  0
   39.2660   20.0720   32.4230 H   0  0  0  0  0  0  0  0  0  0  0  0
   39.4240   21.2360   31.0100 H   0  0  0  0  0  0  0  0  0  0  0  0
   38.9520   23.0060   32.3260 H   0  0  0  0  0  0  0  0  0  0  0  0
   37.3500   21.5730   32.6830 C   0  0  0  0  0  0  0  0  0  0  0  0
   36.6730   21.9170   31.5280 C   0  0  0  0  0  0  0  0  0  0  0  0
   37.0780   22.5650   30.7340 H   0  0  0  0  0  0  0  0  0  0  0  0
   35.4030   21.4940   31.2170 C   0  0  0  0  0  3  0  0  0  0  0  0
   34.7260   20.6710   32.0880 C   0  0  0  0  0  0  0  0  0  0  0  0
   33.7350   20.2540   31.9950 H   0  0  0  0  0  0  0  0  0  0  0  0
   35.3560   20.3030   33.2420 C   0  0  0  0  0  0  0  0  0  0  0  0
   34.9350   19.6650   34.0060 H   0  0  0  0  0  0  0  0  0  0  0  0
   36.6290   20.7470   33.5230 C   0  0  0  0  0  3  0  0  0  0  0  0
  1  6  1  0  0  0  0
  2  3  1  0  0  0  0
  2  1  2  0  0  0  0
  3  4  2  0  0  0  0
  4  5  1  0  0  0  0
  5  7  1  0  0  0  0
  6  5  2  0  0  0  0
  7  8  1  0  0  0  0
  8 16  1  0  0  0  0
  8  9  1  0  0  0  0
  9 19  1  0  0  0  0
  9 18  1  0  0  0  0
 10  9  1  0  0  0  0
 10 20  1  0  0  0  0
 11 21  1  0  0  0  0
 11 22  1  0  0  0  0
 11 10  1  0  0  0  0
 12 23  1  6  0  0  0
 12  7  1  0  0  0  0
 12 11  1  0  0  0  0
 13  1  1  0  0  0  0
 14  2  1  0  0  0  0
 15  3  1  0  0  0  0
 17  8  1  0  0  0  0
 24 25  1  6  0  0  0
 24 12  1  0  0  0  0
 25 29  1  0  0  0  0
 25 30  1  0  0  0  0
 26 32  1  0  0  0  0
 26 25  1  0  0  0  0
 27 33  1  0  0  0  0
 27 26  1  0  0  0  0
 27 28  1  0  0  0  0
 28 35  1  6  0  0  0
 28 24  1  0  0  0  0
 31 26  1  0  0  0  0
 34 27  1  0  0  0  0
 36 28  1  0  0  0  0
 36 44  1  0  0  0  0
 37 36  2  0  0  0  0
 38 37  1  0  0  0  0
 39 37  1  0  0  0  0
 39 40  2  0  0  0  0
 40 42  1  0  0  0  0
 41 40  1  0  0  0  0
 42 44  2  0  0  0  0
 42 43  1  0  0  0  0
M  END
>  <minimizedAffinity>
-5.526299

$$$$

 OpenBabel03272505533D

 44 47  0  0  1  0  0  0  0  0999 V2000
   40.0800   22.9110   36.8260 C   0  0  0  0  0  0  0  0  0  0  0  0
   39.0290   23.0990   37.7560 C   0  0  0  0  0  0  0  0  0  0  0  0
   37.7260   22.9970   37.2710 C   0  0  0  0  0  0  0  0  0  0  0  0
   37.5480   22.7270   35.9480 N   0  0  0  0  0  0  0  0  0  0  0  0
   38.5680   22.5590   35.1120 C   0  0  0  0  0  0  0  0  0  0  0  0
   39.8250   22.6510   35.5510 N   0  0  0  0  0  0  0  0  0  0  0  0
   38.3180   22.2800   33.7440 N   0  0  0  0  0  0  0  0  0  0  0  0
   39.2520   21.5150   32.9350 C   0  0  0  0  0  0  0  0  0  0  0  0
   38.5450   20.3710   32.2810 C   0  0  0  0  0  0  0  0  0  0  0  0
   37.1690   20.4150   32.2720 N   0  0  0  0  0  0  0  0  0  0  0  0
   36.4510   21.6590   32.3900 C   0  0  0  0  0  0  0  0  0  0  0  0
   37.1080   22.7470   33.0840 C   0  0  2  0  0  0  0  0  0  0  0  0
   41.0480   23.0040   37.2750 H   0  0  0  0  0  0  0  0  0  0  0  0
   39.1200   23.3130   38.8070 H   0  0  0  0  0  0  0  0  0  0  0  0
   36.8630   23.1260   37.9120 H   0  0  0  0  0  0  0  0  0  0  0  0
   39.9740   21.0470   33.6760 H   0  0  0  0  0  0  0  0  0  0  0  0
   39.8970   22.1140   32.2940 H   0  0  0  0  0  0  0  0  0  0  0  0
   38.8850   19.3810   32.6510 H   0  0  0  0  0  0  0  0  0  0  0  0
   38.9080   20.3830   31.2110 H   0  0  0  0  0  0  0  0  0  0  0  0
   36.7370   19.7810   31.5960 H   0  0  0  0  0  0  0  0  0  0  0  0
   35.9280   21.7890   31.4550 H   0  0  0  0  0  0  0  0  0  0  0  0
   35.5900   21.3290   33.0730 H   0  0  0  0  0  0  0  0  0  0  0  0
   36.4610   23.2070   33.8920 H   0  0  0  0  0  0  0  0  0  0  0  0
   37.5000   23.8600   32.2330 N   0  0  2  0  0  0  0  0  0  0  0  0
   37.8930   23.3910   30.9040 C   0  0  0  0  0  0  0  0  0  0  0  0
   39.0400   24.2720   30.4440 C   0  0  0  0  0  0  0  0  0  0  0  0
   39.0690   25.3400   31.4750 C   0  0  0  0  0  0  0  0  0  0  0  0
   38.5930   24.6050   32.7480 C   0  0  1  0  0  0  0  0  0  0  0  0
   38.2660   22.3400   30.9590 H   0  0  0  0  0  0  0  0  0  0  0  0
   37.0470   23.3810   30.2120 H   0  0  0  0  0  0  0  0  0  0  0  0
   39.9880   23.7030   30.4100 H   0  0  0  0  0  0  0  0  0  0  0  0
   38.7780   24.6330   29.4190 H   0  0  0  0  0  0  0  0  0  0  0  0
   38.3040   26.0920   31.2040 H   0  0  0  0  0  0  0  0  0  0  0  0
   40.0640   25.7990   31.6430 H   0  0  0  0  0  0  0  0  0  0  0  0
   39.5110   24.0820   32.9990 H   0  0  0  0  0  0  0  0  0  0  0  0
   38.2530   25.7480   33.6270 C   0  0  0  0  0  0  0  0  0  0  0  0
   39.1120   26.0630   34.6630 C   0  0  0  0  0  0  0  0  0  0  0  0
   40.0480   25.5260   34.8850 H   0  0  0  0  0  0  0  0  0  0  0  0
   38.9110   27.0900   35.5520 C   0  0  0  0  0  3  0  0  0  0  0  0
   37.7910   27.8830   35.4380 C   0  0  0  0  0  0  0  0  0  0  0  0
   37.4870   28.7210   36.0470 H   0  0  0  0  0  0  0  0  0  0  0  0
   36.9140   27.6090   34.4280 C   0  0  0  0  0  0  0  0  0  0  0  0
   36.0010   28.1530   34.2300 H   0  0  0  0  0  0  0  0  0  0  0  0
   37.1460   26.5700   33.5540 C   0  0  0  0  0  3  0  0  0  0  0  0
  1 13  1  0  0  0  0
  1  2  1  0  0  0  0
  2 14  1  0  0  0  0
  3  2  2  0  0  0  0
  3 15  1  0  0  0  0
  4  3  1  0  0  0  0
  5  6  1  0  0  0  0
  5  4  2  0  0  0  0
  6  1  2  0  0  0  0
  7  5  1  0  0  0  0
  8 16  1  0  0  0  0
  8  7  1  0  0  0  0
  9 18  1  0  0  0  0
  9  8  1  0  0  0  0
 10  9  1  0  0  0  0
 10 11  1  0  0  0  0
 11 22  1  0  0  0  0
 11 12  1  0  0  0  0
 12  7  1  0  0  0  0
 12 23  1  1  0  0  0
 17  8  1  0  0  0  0
 19  9  1  0  0  0  0
 20 10  1  0  0  0  0
 21 11  1  0  0  0  0
 24 25  1  6  0  0  0
 24 28  1  0  0  0  0
 24 12  1  0  0  0  0
 25 29  1  0  0  0  0
 26 25  1  0  0  0  0
 26 27  1  0  0  0  0
 27 34  1  0  0  0  0
 27 28  1  0  0  0  0
 28 35  1  1  0  0  0
 28 36  1  0  0  0  0
 30 25  1  0  0  0  0
 31 26  1  0  0  0  0
 32 26  1  0  0  0  0
 33 27  1  0  0  0  0
 36 37  1  0  0  0  0
 37 38  1  0  0  0  0
 37 39  2  0  0  0  0
 40 39  1  0  0  0  0
 40 41  1  0  0  0  0
 42 40  2  0  0  0  0
 43 42  1  0  0  0  0
 44 36  2  0  0  0  0
 44 42  1  0  0  0  0
M  END
>  <minimizedAffinity>
-5.4796958

$$$$

 OpenBabel03272505533D

 44 47  0  0  1  0  0  0  0  0999 V2000
   38.0560   24.3890   38.2050 C   0  0  0  0  0  0  0  0  0  0  0  0
   38.8300   23.2290   38.4490 C   0  0  0  0  0  0  0  0  0  0  0  0
   39.5970   22.7430   37.3920 C   0  0  0  0  0  0  0  0  0  0  0  0
   39.5540   23.4070   36.2040 N   0  0  0  0  0  0  0  0  0  0  0  0
   38.8110   24.4940   36.0220 C   0  0  0  0  0  0  0  0  0  0  0  0
   38.0670   24.9790   37.0180 N   0  0  0  0  0  0  0  0  0  0  0  0
   38.8090   25.1410   34.7600 N   0  0  0  0  0  0  0  0  0  0  0  0
   38.5610   26.5680   34.6320 C   0  0  0  0  0  0  0  0  0  0  0  0
   39.6670   27.2120   33.8580 C   0  0  0  0  0  0  0  0  0  0  0  0
   40.5020   26.3730   33.1530 N   0  0  0  0  0  0  0  0  0  0  0  0
   40.0790   25.0570   32.7400 C   0  0  0  0  0  0  0  0  0  0  0  0
   39.0560   24.4050   33.5300 C   0  0  2  0  0  0  0  0  0  0  0  0
   37.4960   24.6990   39.0650 H   0  0  0  0  0  0  0  0  0  0  0  0
   38.8960   22.6710   39.3690 H   0  0  0  0  0  0  0  0  0  0  0  0
   40.2190   21.8610   37.4910 H   0  0  0  0  0  0  0  0  0  0  0  0
   38.6440   26.9810   35.6870 H   0  0  0  0  0  0  0  0  0  0  0  0
   37.5470   26.8300   34.3330 H   0  0  0  0  0  0  0  0  0  0  0  0
   40.2720   27.9140   34.4670 H   0  0  0  0  0  0  0  0  0  0  0  0
   39.1450   27.8930   33.1230 H   0  0  0  0  0  0  0  0  0  0  0  0
   41.0570   26.8450   32.4360 H   0  0  0  0  0  0  0  0  0  0  0  0
   40.0660   25.0770   31.6610 H   0  0  0  0  0  0  0  0  0  0  0  0
   41.0440   24.4680   32.9320 H   0  0  0  0  0  0  0  0  0  0  0  0
   39.3440   23.3550   33.8400 H   0  0  0  0  0  0  0  0  0  0  0  0
   37.7720   24.2650   32.8610 N   0  0  2  0  0  0  0  0  0  0  0  0
   37.3290   22.8710   32.8640 C   0  0  0  0  0  0  0  0  0  0  0  0
   36.6270   22.6260   31.5410 C   0  0  0  0  0  0  0  0  0  0  0  0
   36.5270   23.9890   30.9640 C   0  0  0  0  0  0  0  0  0  0  0  0
   37.7930   24.6880   31.5060 C   0  0  1  0  0  0  0  0  0  0  0  0
   38.2080   22.1850   32.9200 H   0  0  0  0  0  0  0  0  0  0  0  0
   36.7080   22.6450   33.7350 H   0  0  0  0  0  0  0  0  0  0  0  0
   37.2160   21.9450   30.8990 H   0  0  0  0  0  0  0  0  0  0  0  0
   35.6400   22.1580   31.7820 H   0  0  0  0  0  0  0  0  0  0  0  0
   35.6420   24.4820   31.4110 H   0  0  0  0  0  0  0  0  0  0  0  0
   36.5090   24.0270   29.8560 H   0  0  0  0  0  0  0  0  0  0  0  0
   38.5290   24.2580   30.8350 H   0  0  0  0  0  0  0  0  0  0  0  0
   37.4630   26.1110   31.2570 C   0  0  0  0  0  0  0  0  0  0  0  0
   36.3320   26.6400   31.8490 C   0  0  0  0  0  0  0  0  0  0  0  0
   35.6490   26.0790   32.5070 H   0  0  0  0  0  0  0  0  0  0  0  0
   35.9090   27.9380   31.6940 C   0  0  0  0  0  3  0  0  0  0  0  0
   36.6350   28.8020   30.9050 C   0  0  0  0  0  0  0  0  0  0  0  0
   36.4440   29.8400   30.6820 H   0  0  0  0  0  0  0  0  0  0  0  0
   37.7620   28.3230   30.3010 C   0  0  0  0  0  0  0  0  0  0  0  0
   38.4160   28.8960   29.6590 H   0  0  0  0  0  0  0  0  0  0  0  0
   38.1560   27.0150   30.4770 C   0  0  0  0  0  3  0  0  0  0  0  0
  1  2  1  0  0  0  0
  1 13  1  0  0  0  0
  2 14  1  0  0  0  0
  3 15  1  0  0  0  0
  3  2  2  0  0  0  0
  4  3  1  0  0  0  0
  5  4  2  0  0  0  0
  5  6  1  0  0  0  0
  6  1  2  0  0  0  0
  7  5  1  0  0  0  0
  8  7  1  0  0  0  0
  8 16  1  0  0  0  0
  9 18  1  0  0  0  0
  9  8  1  0  0  0  0
 10  9  1  0  0  0  0
 11 22  1  0  0  0  0
 11 10  1  0  0  0  0
 11 12  1  0  0  0  0
 12 23  1  1  0  0  0
 12  7  1  0  0  0  0
 17  8  1  0  0  0  0
 19  9  1  0  0  0  0
 20 10  1  0  0  0  0
 21 11  1  0  0  0  0
 24 25  1  6  0  0  0
 24 12  1  0  0  0  0
 25 29  1  0  0  0  0
 25 30  1  0  0  0  0
 26 32  1  0  0  0  0
 26 25  1  0  0  0  0
 27 33  1  0  0  0  0
 27 28  1  0  0  0  0
 27 26  1  0  0  0  0
 28 35  1  6  0  0  0
 28 24  1  0  0  0  0
 31 26  1  0  0  0  0
 34 27  1  0  0  0  0
 36 28  1  0  0  0  0
 36 37  1  0  0  0  0
 37 38  1  0  0  0  0
 39 37  2  0  0  0  0
 40 39  1  0  0  0  0
 41 40  1  0  0  0  0
 42 44  1  0  0  0  0
 42 40  2  0  0  0  0
 43 42  1  0  0  0  0
 44 36  2  0  0  0  0
M  END
>  <minimizedAffinity>
-5.4774909

$$$$

 OpenBabel03272505533D

 44 47  0  0  1  0  0  0  0  0999 V2000
   42.2120   27.9560   31.5920 C   0  0  0  0  0  0  0  0  0  0  0  0
   41.5310   28.2630   30.3890 C   0  0  0  0  0  0  0  0  0  0  0  0
   40.1790   27.9320   30.3220 C   0  0  0  0  0  0  0  0  0  0  0  0
   39.6040   27.3420   31.4050 N   0  0  0  0  0  0  0  0  0  0  0  0
   40.2850   27.0720   32.5150 C   0  0  0  0  0  0  0  0  0  0  0  0
   41.5810   27.3790   32.6050 N   0  0  0  0  0  0  0  0  0  0  0  0
   39.6290   26.4550   33.6100 N   0  0  0  0  0  0  0  0  0  0  0  0
   40.0610   26.6700   34.9810 C   0  0  0  0  0  0  0  0  0  0  0  0
   38.9070   27.1250   35.8170 C   0  0  0  0  0  0  0  0  0  0  0  0
   37.6490   26.9550   35.2830 N   0  0  0  0  0  0  0  0  0  0  0  0
   37.3850   25.9670   34.2670 C   0  0  0  0  0  0  0  0  0  0  0  0
   38.4870   25.5750   33.4130 C   0  0  2  0  0  0  0  0  0  0  0  0
   43.2450   28.2410   31.5650 H   0  0  0  0  0  0  0  0  0  0  0  0
   41.9420   28.7280   29.5080 H   0  0  0  0  0  0  0  0  0  0  0  0
   39.5820   28.1310   29.4400 H   0  0  0  0  0  0  0  0  0  0  0  0
   40.7730   27.5540   34.9340 H   0  0  0  0  0  0  0  0  0  0  0  0
   40.6730   25.8710   35.3980 H   0  0  0  0  0  0  0  0  0  0  0  0
   39.0200   28.1670   36.1830 H   0  0  0  0  0  0  0  0  0  0  0  0
   38.9770   26.5120   36.7630 H   0  0  0  0  0  0  0  0  0  0  0  0
   36.8940   27.0170   35.9690 H   0  0  0  0  0  0  0  0  0  0  0  0
   36.7080   25.2560   34.7150 H   0  0  0  0  0  0  0  0  0  0  0  0
   36.6660   26.5560   33.5970 H   0  0  0  0  0  0  0  0  0  0  0  0
   38.2300   25.6300   32.3120 H   0  0  0  0  0  0  0  0  0  0  0  0
   38.9650   24.2170   33.6240 N   0  0  2  0  0  0  0  0  0  0  0  0
   39.1190   23.5120   32.3510 C   0  0  0  0  0  0  0  0  0  0  0  0
   38.7180   22.0680   32.5930 C   0  0  0  0  0  0  0  0  0  0  0  0
   38.5750   22.0090   34.0690 C   0  0  0  0  0  0  0  0  0  0  0  0
   38.0960   23.4330   34.4270 C   0  0  1  0  0  0  0  0  0  0  0  0
   38.4260   23.9390   31.5860 H   0  0  0  0  0  0  0  0  0  0  0  0
   40.1280   23.6230   31.9460 H   0  0  0  0  0  0  0  0  0  0  0  0
   37.7720   21.8260   32.0740 H   0  0  0  0  0  0  0  0  0  0  0  0
   39.5450   21.4330   32.1880 H   0  0  0  0  0  0  0  0  0  0  0  0
   39.5840   21.8650   34.5010 H   0  0  0  0  0  0  0  0  0  0  0  0
   37.8520   21.2540   34.4370 H   0  0  0  0  0  0  0  0  0  0  0  0
   37.0540   23.3430   34.1380 H   0  0  0  0  0  0  0  0  0  0  0  0
   38.3480   23.4610   35.8870 C   0  0  0  0  0  0  0  0  0  0  0  0
   39.5800   23.0400   36.3530 C   0  0  0  0  0  0  0  0  0  0  0  0
   40.4040   22.6870   35.7120 H   0  0  0  0  0  0  0  0  0  0  0  0
   39.9390   23.0080   37.6780 C   0  0  0  0  0  3  0  0  0  0  0  0
   39.0400   23.4150   38.6380 C   0  0  0  0  0  0  0  0  0  0  0  0
   39.1630   23.4520   39.7100 H   0  0  0  0  0  0  0  0  0  0  0  0
   37.8100   23.8400   38.2250 C   0  0  0  0  0  0  0  0  0  0  0  0
   37.0180   24.1830   38.8750 H   0  0  0  0  0  0  0  0  0  0  0  0
   37.4830   23.8580   36.8870 C   0  0  0  0  0  3  0  0  0  0  0  0
  1  6  1  0  0  0  0
  2  1  2  0  0  0  0
  3  2  1  0  0  0  0
  3  4  2  0  0  0  0
  4  5  1  0  0  0  0
  5  6  2  0  0  0  0
  5  7  1  0  0  0  0
  7  8  1  0  0  0  0
  8 17  1  0  0  0  0
  8  9  1  0  0  0  0
  9 18  1  0  0  0  0
  9 19  1  0  0  0  0
 10  9  1  0  0  0  0
 10 20  1  0  0  0  0
 11 21  1  0  0  0  0
 11 10  1  0  0  0  0
 12 23  1  6  0  0  0
 12  7  1  0  0  0  0
 12 24  1  0  0  0  0
 12 11  1  0  0  0  0
 13  1  1  0  0  0  0
 14  2  1  0  0  0  0
 15  3  1  0  0  0  0
 16  8  1  0  0  0  0
 22 11  1  0  0  0  0
 24 25  1  6  0  0  0
 24 28  1  0  0  0  0
 25 26  1  0  0  0  0
 26 27  1  0  0  0  0
 27 28  1  0  0  0  0
 27 34  1  0  0  0  0
 27 33  1  0  0  0  0
 28 35  1  6  0  0  0
 28 36  1  0  0  0  0
 29 25  1  0  0  0  0
 30 25  1  0  0  0  0
 31 26  1  0  0  0  0
 32 26  1  0  0  0  0
 36 37  2  0  0  0  0
 36 44  1  0  0  0  0
 37 39  1  0  0  0  0
 38 37  1  0  0  0  0
 39 40  2  0  0  0  0
 40 41  1  0  0  0  0
 42 40  1  0  0  0  0
 42 43  1  0  0  0  0
 44 42  2  0  0  0  0
M  END
>  <minimizedAffinity>
-5.4499135

$$$$
