
 OpenBabel03272510203D

 36 39  0  0  0  0  0  0  0  0999 V2000
   37.4130   29.1930   50.8570 Br  0  0  0  0  0  0  0  0  0  0  0  0
   36.0070   29.2670   49.5710 C   0  0  0  0  0  0  0  0  0  0  0  0
   36.0030   30.2560   48.5910 C   0  0  0  0  0  0  0  0  0  0  0  0
   34.9510   30.2470   47.6930 C   0  0  0  0  0  0  0  0  0  0  0  0
   33.9280   29.3170   47.7280 C   0  0  0  0  0  0  0  0  0  0  0  0
   33.9650   28.3670   48.7000 C   0  0  0  0  0  0  0  0  0  0  0  0
   35.0050   28.3550   49.6080 C   0  0  0  0  0  0  0  0  0  0  0  0
   34.8940   30.9910   46.9090 H   0  0  0  0  0  0  0  0  0  0  0  0
   33.2150   27.5940   48.8160 H   0  0  0  0  0  0  0  0  0  0  0  0
   35.0390   27.5910   50.3920 H   0  0  0  0  0  0  0  0  0  0  0  0
   38.0050   33.1800   49.4510 C   0  0  0  0  0  0  0  0  0  0  0  0
   39.0290   33.1780   48.4610 C   0  0  0  0  0  0  0  0  0  0  0  0
   39.0080   32.1660   47.5140 C   0  0  0  0  0  0  0  0  0  0  0  0
   38.0210   31.2230   47.5670 N   0  0  0  0  0  0  0  0  0  0  0  0
   37.0620   31.2520   48.5200 C   0  0  0  0  0  0  0  0  0  0  0  0
   37.0660   32.2370   49.4560 N   0  0  0  0  0  0  0  0  0  0  0  0
   38.0610   33.9920   50.1710 H   0  0  0  0  0  0  0  0  0  0  0  0
   39.8240   33.9080   48.3900 H   0  0  0  0  0  0  0  0  0  0  0  0
   39.7180   32.0520   46.7200 H   0  0  0  0  0  0  0  0  0  0  0  0
   32.8310   29.3250   46.7750 C   0  0  0  0  0  0  0  0  0  0  0  0
   31.9650   28.2700   46.5690 C   0  0  0  0  0  0  0  0  0  0  0  0
   30.9310   28.3120   45.6510 C   0  0  0  0  0  0  0  0  0  0  0  0
   30.7560   29.4300   44.9230 N   0  0  0  0  0  0  0  0  0  0  0  0
   31.5870   30.4620   45.1100 C   0  0  0  0  0  0  0  0  0  0  0  0
   32.5710   30.3910   46.0000 N   0  0  0  0  0  0  0  0  0  0  0  0
   32.1090   27.3630   47.1610 H   0  0  0  0  0  0  0  0  0  0  0  0
   30.2860   27.4400   45.5420 H   0  0  0  0  0  0  0  0  0  0  0  0
   31.4010   31.6770   44.3230 C   0  0  0  0  0  0  0  0  0  0  0  0
   30.1220   32.1680   44.0890 C   0  0  0  0  0  0  0  0  0  0  0  0
   29.3110   31.5970   44.5210 H   0  0  0  0  0  0  0  0  0  0  0  0
   29.9750   33.3180   43.3430 C   0  0  0  0  0  3  0  0  0  0  0  0
   31.0250   34.0210   42.8060 C   0  0  0  0  0  0  0  0  0  0  0  0
   30.7470   34.8980   42.2490 H   0  0  0  0  0  0  0  0  0  0  0  0
   32.2950   33.5310   43.0410 C   0  0  0  0  0  0  0  0  0  0  0  0
   33.1090   34.0960   42.6120 H   0  0  0  0  0  0  0  0  0  0  0  0
   32.4450   32.3790   43.7890 C   0  0  0  0  0  3  0  0  0  0  0  0
  2  7  1  0  0  0  0
  2  1  1  0  0  0  0
  3  2  2  0  0  0  0
  4  5  2  0  0  0  0
  4  3  1  0  0  0  0
  5  6  1  0  0  0  0
  6  9  1  0  0  0  0
  6  7  2  0  0  0  0
  7 10  1  0  0  0  0
  8  4  1  0  0  0  0
 11 16  1  0  0  0  0
 11 17  1  0  0  0  0
 12 11  2  0  0  0  0
 13 14  2  0  0  0  0
 13 12  1  0  0  0  0
 14 15  1  0  0  0  0
 15  3  1  0  0  0  0
 15 16  2  0  0  0  0
 18 12  1  0  0  0  0
 19 13  1  0  0  0  0
 20  5  1  0  0  0  0
 21 20  1  0  0  0  0
 21 26  1  0  0  0  0
 22 21  2  0  0  0  0
 23 24  2  0  0  0  0
 23 22  1  0  0  0  0
 24 25  1  0  0  0  0
 25 20  2  0  0  0  0
 27 22  1  0  0  0  0
 28 24  1  0  0  0  0
 29 28  1  0  0  0  0
 29 30  1  0  0  0  0
 31 29  2  0  0  0  0
 32 34  2  0  0  0  0
 32 31  1  0  0  0  0
 33 32  1  0  0  0  0
 34 36  1  0  0  0  0
 35 34  1  0  0  0  0
 36 28  2  0  0  0  0
M  END
>  <minimizedAffinity>
-6.41759491

>  <minimizedRMSD>
0.395295709

$$$$
