
 OpenBabel03262523163D

 39 42  0  0  0  0  0  0  0  0999 V2000
   34.7220   29.0170   48.2570 C   0  0  0  0  0  0  0  0  0  0  0  0
   34.3450   27.7740   48.7320 C   0  0  0  0  0  0  0  0  0  0  0  0
   33.1830   27.2870   48.1700 C   0  0  0  0  0  0  0  0  0  0  0  0
   32.4710   27.9760   47.2220 C   0  0  0  0  0  0  0  0  0  0  0  0
   32.9180   29.2010   46.8080 C   0  0  0  0  0  0  0  0  0  0  0  0
   34.0460   29.7080   47.3350 N   0  0  0  0  0  0  0  0  0  0  0  0
   34.9110   27.2250   49.4850 H   0  0  0  0  0  0  0  0  0  0  0  0
   32.8500   26.3020   48.5210 H   0  0  0  0  0  0  0  0  0  0  0  0
   31.5950   27.4940   46.8590 H   0  0  0  0  0  0  0  0  0  0  0  0
   29.8990   29.1130   46.9530 Cl  0  0  0  0  0  0  0  0  0  0  0  0
   30.8260   30.0040   45.7850 C   0  0  0  0  0  0  0  0  0  0  0  0
   32.1980   29.9700   45.8140 C   0  0  0  0  0  0  0  0  0  0  0  0
   32.8030   30.7320   44.8230 C   0  0  0  0  0  0  0  0  0  0  0  0
   32.1400   31.4630   43.8830 C   0  0  0  0  0  0  0  0  0  0  0  0
   30.7610   31.4690   43.8910 C   0  0  0  0  0  0  0  0  0  0  0  0
   29.8560   32.3900   42.7070 Cl  0  0  0  0  0  0  0  0  0  0  0  0
   30.1130   30.7340   44.8480 C   0  0  0  0  0  0  0  0  0  0  0  0
   33.8940   30.7470   44.7920 H   0  0  0  0  0  0  0  0  0  0  0  0
   32.7010   32.0270   43.1480 H   0  0  0  0  0  0  0  0  0  0  0  0
   29.0290   30.7550   44.8320 H   0  0  0  0  0  0  0  0  0  0  0  0
   37.3740   30.0950   50.5630 C   0  0  0  0  0  0  0  0  0  0  0  0
   38.2510   30.7870   49.7280 C   0  0  0  0  0  0  0  0  0  0  0  0
   37.9240   30.8760   48.3890 C   0  0  0  0  0  0  0  0  0  0  0  0
   36.7840   30.2910   47.9760 N   0  0  0  0  0  0  0  0  0  0  0  0
   35.9470   29.6290   48.7840 C   0  0  0  0  0  0  0  0  0  0  0  0
   36.2590   29.5360   50.0950 N   0  0  0  0  0  0  0  0  0  0  0  0
   39.1300   31.2220   50.1230 H   0  0  0  0  0  0  0  0  0  0  0  0
   38.7620   31.5710   47.4280 C   0  0  0  0  0  0  0  0  0  0  0  0
   39.1420   30.8680   46.2920 C   0  0  0  0  0  0  0  0  0  0  0  0
   38.8660   29.8480   46.0620 H   0  0  0  0  0  0  0  0  0  0  0  0
   39.9370   31.4730   45.3410 C   0  0  0  0  0  0  0  0  0  0  0  0
   40.3720   32.7740   45.4900 C   0  0  0  0  0  0  0  0  0  0  0  0
   40.9940   33.2250   44.7290 H   0  0  0  0  0  0  0  0  0  0  0  0
   39.9790   33.4530   46.6310 C   0  0  0  0  0  0  0  0  0  0  0  0
   40.3420   34.4640   46.7040 H   0  0  0  0  0  0  0  0  0  0  0  0
   39.1900   32.8550   47.5770 C   0  0  0  0  0  0  0  0  0  0  0  0
   37.6170   29.9420   51.9790 N   0  0  0  0  0  0  0  0  0  0  0  0
   38.4410   29.3310   52.2120 H   0  0  0  0  0  0  0  0  0  0  0  0
   36.9670   30.4410   52.6180 H   0  0  0  0  0  0  0  0  0  0  0  0
  1  2  1  0  0  0  0
  1 25  1  0  0  0  0
  2  7  1  0  0  0  0
  3  8  1  0  0  0  0
  3  2  2  0  0  0  0
  4  3  1  0  0  0  0
  5  4  2  0  0  0  0
  5  6  1  0  0  0  0
  6  1  2  0  0  0  0
  9  4  1  0  0  0  0
 11 12  1  0  0  0  0
 11 10  1  0  0  0  0
 12  5  1  0  0  0  0
 13 12  2  0  0  0  0
 14 15  2  0  0  0  0
 14 13  1  0  0  0  0
 15 17  1  0  0  0  0
 16 15  1  0  0  0  0
 17 11  2  0  0  0  0
 18 13  1  0  0  0  0
 19 14  1  0  0  0  0
 20 17  1  0  0  0  0
 21 37  1  0  0  0  0
 22 27  1  0  0  0  0
 22 21  2  0  0  0  0
 23 22  1  0  0  0  0
 24 23  2  0  0  0  0
 24 25  1  0  0  0  0
 25 26  2  0  0  0  0
 26 21  1  0  0  0  0
 28 36  1  0  0  0  0
 28 23  1  0  0  0  0
 29 28  2  0  0  0  0
 30 29  1  0  0  0  0
 31 32  2  0  0  0  0
 31 29  1  0  0  0  0
 32 34  1  0  0  0  0
 33 32  1  0  0  0  0
 34 35  1  0  0  0  0
 34 36  2  0  0  0  0
 37 38  1  0  0  0  0
 37 39  1  0  0  0  0
M  END
>  <minimizedAffinity>
-7.41391516

>  <minimizedRMSD>
1.02816582

$$$$
