
 OpenBabel03272505563D

 34 36  0  0  1  0  0  0  0  0999 V2000
   37.7830   26.2840   33.3480 C   0  0  2  0  0  0  0  0  0  0  0  0
   38.3770   25.2340   34.2690 C   0  0  0  0  0  0  0  0  0  0  0  0
   37.9290   25.3810   35.6930 C   0  0  2  0  0  0  0  0  0  0  0  0
   38.2100   26.7620   36.2300 C   0  0  0  0  0  0  0  0  0  0  0  0
   37.8170   27.8580   35.2860 C   0  0  0  0  0  0  0  0  0  0  0  0
   37.0390   27.3380   34.0960 C   0  0  0  0  0  0  0  0  0  0  0  0
   38.6420   26.6950   32.7880 H   0  0  0  0  0  0  0  0  0  0  0  0
   39.4740   25.1930   34.2350 H   0  0  0  0  0  0  0  0  0  0  0  0
   38.0230   24.2280   33.9380 H   0  0  0  0  0  0  0  0  0  0  0  0
   36.8570   25.1030   35.7690 H   0  0  0  0  0  0  0  0  0  0  0  0
   39.3240   26.8290   36.3660 H   0  0  0  0  0  0  0  0  0  0  0  0
   37.7150   26.8190   37.2140 H   0  0  0  0  0  0  0  0  0  0  0  0
   37.2140   28.6380   35.7760 H   0  0  0  0  0  0  0  0  0  0  0  0
   38.7100   28.3830   34.8360 H   0  0  0  0  0  0  0  0  0  0  0  0
   36.7540   28.1610   33.4470 H   0  0  0  0  0  0  0  0  0  0  0  0
   36.0930   26.8470   34.4710 H   0  0  0  0  0  0  0  0  0  0  0  0
   36.8230   25.6300   32.4080 C   0  0  0  0  0  0  0  0  0  0  0  0
   36.9410   24.2360   32.2720 C   0  0  0  0  0  0  0  0  0  0  0  0
   36.0460   23.6220   31.3810 C   0  0  0  0  0  0  0  0  0  0  0  0
   35.1240   24.3960   30.7060 N   0  0  0  0  0  0  0  0  0  0  0  0
   35.0580   25.7400   30.8800 C   0  0  0  0  0  0  0  0  0  0  0  0
   35.9020   26.3370   31.7220 N   0  0  0  0  0  0  0  0  0  0  0  0
   37.6430   23.5930   32.7730 H   0  0  0  0  0  0  0  0  0  0  0  0
   36.0360   22.5530   31.1890 H   0  0  0  0  0  0  0  0  0  0  0  0
   34.3080   26.2440   30.3090 H   0  0  0  0  0  0  0  0  0  0  0  0
   38.7070   24.3980   36.4950 C   0  0  0  0  0  0  0  0  0  0  0  0
   39.8200   23.8430   35.8840 C   0  0  0  0  0  0  0  0  0  0  0  0
   40.1290   24.0930   34.8810 H   0  0  0  0  0  0  0  0  0  0  0  0
   40.5910   22.9120   36.5900 C   0  0  0  0  0  3  0  0  0  0  0  0
   40.1990   22.5900   37.8680 C   0  0  0  0  0  0  0  0  0  0  0  0
   40.8170   21.8710   38.3800 H   0  0  0  0  0  0  0  0  0  0  0  0
   39.0860   23.1520   38.4660 C   0  0  0  0  0  0  0  0  0  0  0  0
   38.7950   22.8840   39.4780 H   0  0  0  0  0  0  0  0  0  0  0  0
   38.3050   24.0830   37.7750 C   0  0  0  0  0  3  0  0  0  0  0  0
  1  7  1  6  0  0  0
  1  6  1  0  0  0  0
  1  2  1  0  0  0  0
  2  3  1  0  0  0  0
  3 10  1  1  0  0  0
  3  4  1  0  0  0  0
  3 26  1  0  0  0  0
  4 11  1  0  0  0  0
  4 12  1  0  0  0  0
  5 13  1  0  0  0  0
  5  4  1  0  0  0  0
  6 16  1  0  0  0  0
  6  5  1  0  0  0  0
  8  2  1  0  0  0  0
  9  2  1  0  0  0  0
 14  5  1  0  0  0  0
 15  6  1  0  0  0  0
 17  1  1  0  0  0  0
 18 17  1  0  0  0  0
 18 23  1  0  0  0  0
 19 18  2  0  0  0  0
 20 21  2  0  0  0  0
 20 19  1  0  0  0  0
 21 22  1  0  0  0  0
 22 17  2  0  0  0  0
 24 19  1  0  0  0  0
 25 21  1  0  0  0  0
 26 34  1  0  0  0  0
 27 26  2  0  0  0  0
 27 29  1  0  0  0  0
 28 27  1  0  0  0  0
 29 30  2  0  0  0  0
 30 31  1  0  0  0  0
 30 32  1  0  0  0  0
 32 33  1  0  0  0  0
 34 32  2  0  0  0  0
M  END
>  <minimizedAffinity>
-5.6998806

$$$$

 OpenBabel03272505563D

 34 36  0  0  1  0  0  0  0  0999 V2000
   37.7520   26.3130   33.3230 C   0  0  2  0  0  0  0  0  0  0  0  0
   38.3820   25.2570   34.2120 C   0  0  0  0  0  0  0  0  0  0  0  0
   37.9520   25.3620   35.6450 C   0  0  2  0  0  0  0  0  0  0  0  0
   38.2080   26.7370   36.2090 C   0  0  0  0  0  0  0  0  0  0  0  0
   37.7760   27.8430   35.2960 C   0  0  0  0  0  0  0  0  0  0  0  0
   36.9930   27.3310   34.1050 C   0  0  0  0  0  0  0  0  0  0  0  0
   38.5930   26.7560   32.7610 H   0  0  0  0  0  0  0  0  0  0  0  0
   39.4800   25.2430   34.1620 H   0  0  0  0  0  0  0  0  0  0  0  0
   38.0480   24.2510   33.8640 H   0  0  0  0  0  0  0  0  0  0  0  0
   36.8880   25.0570   35.7300 H   0  0  0  0  0  0  0  0  0  0  0  0
   39.3210   26.8270   36.3310 H   0  0  0  0  0  0  0  0  0  0  0  0
   37.7250   26.7600   37.2010 H   0  0  0  0  0  0  0  0  0  0  0  0
   37.1620   28.5980   35.8110 H   0  0  0  0  0  0  0  0  0  0  0  0
   38.6490   28.4000   34.8450 H   0  0  0  0  0  0  0  0  0  0  0  0
   36.6800   28.1620   33.4790 H   0  0  0  0  0  0  0  0  0  0  0  0
   36.0650   26.8110   34.4820 H   0  0  0  0  0  0  0  0  0  0  0  0
   36.7940   25.6570   32.3820 C   0  0  0  0  0  0  0  0  0  0  0  0
   36.9370   24.2680   32.2200 C   0  0  0  0  0  0  0  0  0  0  0  0
   36.0440   23.6520   31.3280 C   0  0  0  0  0  0  0  0  0  0  0  0
   35.1010   24.4200   30.6760 N   0  0  0  0  0  0  0  0  0  0  0  0
   35.0110   25.7600   30.8740 C   0  0  0  0  0  0  0  0  0  0  0  0
   35.8530   26.3570   31.7180 N   0  0  0  0  0  0  0  0  0  0  0  0
   37.6570   23.6300   32.7030 H   0  0  0  0  0  0  0  0  0  0  0  0
   36.0530   22.5870   31.1170 H   0  0  0  0  0  0  0  0  0  0  0  0
   34.2450   26.2590   30.3210 H   0  0  0  0  0  0  0  0  0  0  0  0
   38.7630   24.3800   36.4150 C   0  0  0  0  0  0  0  0  0  0  0  0
   38.3340   24.0950   37.7010 C   0  0  0  0  0  0  0  0  0  0  0  0
   37.4610   24.5480   38.1450 H   0  0  0  0  0  0  0  0  0  0  0  0
   39.0580   23.1800   38.4730 C   0  0  0  0  0  3  0  0  0  0  0  0
   40.1710   22.6030   37.9100 C   0  0  0  0  0  0  0  0  0  0  0  0
   40.7020   21.9030   38.5340 H   0  0  0  0  0  0  0  0  0  0  0  0
   40.5890   22.8950   36.6250 C   0  0  0  0  0  0  0  0  0  0  0  0
   41.4720   22.4260   36.1990 H   0  0  0  0  0  0  0  0  0  0  0  0
   39.8770   23.8070   35.8400 C   0  0  0  0  0  3  0  0  0  0  0  0
  1  7  1  6  0  0  0
  1  6  1  0  0  0  0
  1  2  1  0  0  0  0
  2  3  1  0  0  0  0
  3 10  1  1  0  0  0
  3  4  1  0  0  0  0
  3 26  1  0  0  0  0
  4 11  1  0  0  0  0
  4 12  1  0  0  0  0
  5 13  1  0  0  0  0
  5  4  1  0  0  0  0
  6 16  1  0  0  0  0
  6  5  1  0  0  0  0
  8  2  1  0  0  0  0
  9  2  1  0  0  0  0
 14  5  1  0  0  0  0
 15  6  1  0  0  0  0
 17  1  1  0  0  0  0
 18 17  1  0  0  0  0
 18 23  1  0  0  0  0
 19 18  2  0  0  0  0
 20 21  2  0  0  0  0
 20 19  1  0  0  0  0
 21 22  1  0  0  0  0
 22 17  2  0  0  0  0
 24 19  1  0  0  0  0
 25 21  1  0  0  0  0
 26 27  1  0  0  0  0
 27 28  1  0  0  0  0
 27 29  2  0  0  0  0
 30 29  1  0  0  0  0
 30 31  1  0  0  0  0
 32 30  2  0  0  0  0
 33 32  1  0  0  0  0
 34 26  2  0  0  0  0
 34 32  1  0  0  0  0
M  END
>  <minimizedAffinity>
-5.6483326

$$$$

 OpenBabel03272505563D

 34 36  0  0  1  0  0  0  0  0999 V2000
   36.1760   28.2740   31.7430 C   0  0  2  0  0  0  0  0  0  0  0  0
   35.4640   29.2120   32.7010 C   0  0  0  0  0  0  0  0  0  0  0  0
   36.2050   29.4110   33.9890 C   0  0  2  0  0  0  0  0  0  0  0  0
   36.5050   28.1000   34.6730 C   0  0  0  0  0  0  0  0  0  0  0  0
   37.0420   27.0550   33.7430 C   0  0  0  0  0  0  0  0  0  0  0  0
   37.3570   27.6150   32.3710 C   0  0  0  0  0  0  0  0  0  0  0  0
   35.4070   27.5470   31.4270 H   0  0  0  0  0  0  0  0  0  0  0  0
   34.4290   28.9110   32.9190 H   0  0  0  0  0  0  0  0  0  0  0  0
   35.3950   30.2200   32.2270 H   0  0  0  0  0  0  0  0  0  0  0  0
   37.1190   30.0100   33.7960 H   0  0  0  0  0  0  0  0  0  0  0  0
   35.5250   27.7170   35.0670 H   0  0  0  0  0  0  0  0  0  0  0  0
   37.1740   28.3360   35.5170 H   0  0  0  0  0  0  0  0  0  0  0  0
   37.9520   26.5730   34.1330 H   0  0  0  0  0  0  0  0  0  0  0  0
   36.3030   26.2240   33.5490 H   0  0  0  0  0  0  0  0  0  0  0  0
   37.7630   26.8350   31.7340 H   0  0  0  0  0  0  0  0  0  0  0  0
   38.1430   28.4180   32.4820 H   0  0  0  0  0  0  0  0  0  0  0  0
   36.6630   29.0510   30.5630 C   0  0  0  0  0  0  0  0  0  0  0  0
   36.4040   30.4330   30.5800 C   0  0  0  0  0  0  0  0  0  0  0  0
   36.8520   31.1620   29.4670 C   0  0  0  0  0  0  0  0  0  0  0  0
   37.5050   30.5030   28.4450 N   0  0  0  0  0  0  0  0  0  0  0  0
   37.7270   29.1650   28.4850 C   0  0  0  0  0  0  0  0  0  0  0  0
   37.3060   28.4600   29.5360 N   0  0  0  0  0  0  0  0  0  0  0  0
   35.8980   30.9870   31.3510 H   0  0  0  0  0  0  0  0  0  0  0  0
   36.7130   32.2340   29.3620 H   0  0  0  0  0  0  0  0  0  0  0  0
   38.2410   28.7550   27.6430 H   0  0  0  0  0  0  0  0  0  0  0  0
   35.3210   30.2130   34.8790 C   0  0  0  0  0  0  0  0  0  0  0  0
   35.9430   31.1520   35.6860 C   0  0  0  0  0  0  0  0  0  0  0  0
   37.0100   31.3130   35.6890 H   0  0  0  0  0  0  0  0  0  0  0  0
   35.1630   31.9350   36.5440 C   0  0  0  0  0  3  0  0  0  0  0  0
   33.8040   31.7310   36.5430 C   0  0  0  0  0  0  0  0  0  0  0  0
   33.2360   32.3530   37.2160 H   0  0  0  0  0  0  0  0  0  0  0  0
   33.1950   30.7910   35.7320 C   0  0  0  0  0  0  0  0  0  0  0  0
   32.1180   30.6470   35.7470 H   0  0  0  0  0  0  0  0  0  0  0  0
   33.9600   30.0000   34.8690 C   0  0  0  0  0  3  0  0  0  0  0  0
  1  7  1  6  0  0  0
  1  6  1  0  0  0  0
  1  2  1  0  0  0  0
  2  8  1  0  0  0  0
  2  3  1  0  0  0  0
  3 10  1  6  0  0  0
  3  4  1  0  0  0  0
  3 26  1  0  0  0  0
  4 11  1  0  0  0  0
  4 12  1  0  0  0  0
  5 13  1  0  0  0  0
  5  4  1  0  0  0  0
  6 16  1  0  0  0  0
  6  5  1  0  0  0  0
  9  2  1  0  0  0  0
 14  5  1  0  0  0  0
 15  6  1  0  0  0  0
 17 18  1  0  0  0  0
 17  1  1  0  0  0  0
 18 23  1  0  0  0  0
 19 18  2  0  0  0  0
 20 21  2  0  0  0  0
 20 19  1  0  0  0  0
 21 22  1  0  0  0  0
 22 17  2  0  0  0  0
 24 19  1  0  0  0  0
 25 21  1  0  0  0  0
 26 27  1  0  0  0  0
 27 28  1  0  0  0  0
 27 29  2  0  0  0  0
 30 29  1  0  0  0  0
 30 31  1  0  0  0  0
 32 33  1  0  0  0  0
 32 30  2  0  0  0  0
 34 26  2  0  0  0  0
 34 32  1  0  0  0  0
M  END
>  <minimizedAffinity>
-5.18501854

$$$$

 OpenBabel03272505563D

 34 36  0  0  1  0  0  0  0  0999 V2000
   39.3120   22.4650   36.5710 C   0  0  2  0  0  0  0  0  0  0  0  0
   38.7990   23.4960   35.5820 C   0  0  0  0  0  0  0  0  0  0  0  0
   38.7220   24.8770   36.1600 C   0  0  2  0  0  0  0  0  0  0  0  0
   37.8960   24.9130   37.4220 C   0  0  0  0  0  0  0  0  0  0  0  0
   38.2210   23.8030   38.3750 C   0  0  0  0  0  0  0  0  0  0  0  0
   39.4450   23.0200   37.9490 C   0  0  0  0  0  0  0  0  0  0  0  0
   38.5870   21.6330   36.5220 H   0  0  0  0  0  0  0  0  0  0  0  0
   37.8290   23.2310   35.1390 H   0  0  0  0  0  0  0  0  0  0  0  0
   39.5170   23.5590   34.7290 H   0  0  0  0  0  0  0  0  0  0  0  0
   39.7500   25.2670   36.3120 H   0  0  0  0  0  0  0  0  0  0  0  0
   36.8270   24.7710   37.1050 H   0  0  0  0  0  0  0  0  0  0  0  0
   38.0240   25.9210   37.8480 H   0  0  0  0  0  0  0  0  0  0  0  0
   38.3860   24.1650   39.4020 H   0  0  0  0  0  0  0  0  0  0  0  0
   37.3980   23.0320   38.4400 H   0  0  0  0  0  0  0  0  0  0  0  0
   39.6610   22.2400   38.6730 H   0  0  0  0  0  0  0  0  0  0  0  0
   40.3290   23.7220   37.9200 H   0  0  0  0  0  0  0  0  0  0  0  0
   40.6620   21.9950   36.1380 C   0  0  0  0  0  0  0  0  0  0  0  0
   41.5250   21.5570   37.1580 C   0  0  0  0  0  0  0  0  0  0  0  0
   42.7970   21.1260   36.7530 C   0  0  0  0  0  0  0  0  0  0  0  0
   43.1260   21.1520   35.4130 N   0  0  0  0  0  0  0  0  0  0  0  0
   42.2500   21.5850   34.4710 C   0  0  0  0  0  0  0  0  0  0  0  0
   41.0380   21.9980   34.8420 N   0  0  0  0  0  0  0  0  0  0  0  0
   41.3140   21.5220   38.2130 H   0  0  0  0  0  0  0  0  0  0  0  0
   43.5520   20.7650   37.4450 H   0  0  0  0  0  0  0  0  0  0  0  0
   42.6050   21.5640   33.4640 H   0  0  0  0  0  0  0  0  0  0  0  0
   38.0600   25.7370   35.1420 C   0  0  0  0  0  0  0  0  0  0  0  0
   37.7330   27.0250   35.5370 C   0  0  0  0  0  0  0  0  0  0  0  0
   37.9370   27.4080   36.5250 H   0  0  0  0  0  0  0  0  0  0  0  0
   37.1090   27.8790   34.6220 C   0  0  0  0  0  3  0  0  0  0  0  0
   36.8460   27.3930   33.3630 C   0  0  0  0  0  0  0  0  0  0  0  0
   36.3650   28.0800   32.6860 H   0  0  0  0  0  0  0  0  0  0  0  0
   37.1780   26.1060   32.9810 C   0  0  0  0  0  0  0  0  0  0  0  0
   36.9630   25.7420   31.9800 H   0  0  0  0  0  0  0  0  0  0  0  0
   37.8030   25.2390   33.8830 C   0  0  0  0  0  3  0  0  0  0  0  0
  1  7  1  1  0  0  0
  1  6  1  0  0  0  0
  2  3  1  0  0  0  0
  2  1  1  0  0  0  0
  3 10  1  1  0  0  0
  3  4  1  0  0  0  0
  4 12  1  0  0  0  0
  4  5  1  0  0  0  0
  5 14  1  0  0  0  0
  5 13  1  0  0  0  0
  6  5  1  0  0  0  0
  6 15  1  0  0  0  0
  8  2  1  0  0  0  0
  9  2  1  0  0  0  0
 11  4  1  0  0  0  0
 16  6  1  0  0  0  0
 17  1  1  0  0  0  0
 17 18  1  0  0  0  0
 18 23  1  0  0  0  0
 19 18  2  0  0  0  0
 19 24  1  0  0  0  0
 20 19  1  0  0  0  0
 21 22  1  0  0  0  0
 21 20  2  0  0  0  0
 22 17  2  0  0  0  0
 25 21  1  0  0  0  0
 26 27  1  0  0  0  0
 26  3  1  0  0  0  0
 27 28  1  0  0  0  0
 29 27  2  0  0  0  0
 30 29  1  0  0  0  0
 31 30  1  0  0  0  0
 32 30  2  0  0  0  0
 32 34  1  0  0  0  0
 33 32  1  0  0  0  0
 34 26  2  0  0  0  0
M  END
>  <minimizedAffinity>
-5.12319469

$$$$

 OpenBabel03272505563D

 34 36  0  0  1  0  0  0  0  0999 V2000
   37.0420   28.0430   32.0530 C   0  0  2  0  0  0  0  0  0  0  0  0
   36.3610   28.6480   33.2670 C   0  0  0  0  0  0  0  0  0  0  0  0
   35.3360   29.6820   32.9110 C   0  0  2  0  0  0  0  0  0  0  0  0
   35.9150   30.7720   32.0440 C   0  0  0  0  0  0  0  0  0  0  0  0
   36.7620   30.2510   30.9220 C   0  0  0  0  0  0  0  0  0  0  0  0
   36.6750   28.7450   30.7900 C   0  0  0  0  0  0  0  0  0  0  0  0
   38.1240   28.1050   32.2690 H   0  0  0  0  0  0  0  0  0  0  0  0
   37.0650   29.0690   33.9980 H   0  0  0  0  0  0  0  0  0  0  0  0
   35.8090   27.8410   33.8050 H   0  0  0  0  0  0  0  0  0  0  0  0
   34.4620   29.1840   32.4430 H   0  0  0  0  0  0  0  0  0  0  0  0
   36.5880   31.3810   32.7070 H   0  0  0  0  0  0  0  0  0  0  0  0
   35.0650   31.3910   31.7140 H   0  0  0  0  0  0  0  0  0  0  0  0
   36.4940   30.6960   29.9510 H   0  0  0  0  0  0  0  0  0  0  0  0
   37.8610   30.4620   31.0740 H   0  0  0  0  0  0  0  0  0  0  0  0
   37.2830   28.4080   29.9560 H   0  0  0  0  0  0  0  0  0  0  0  0
   35.6030   28.4640   30.5750 H   0  0  0  0  0  0  0  0  0  0  0  0
   36.6270   26.6140   31.9160 C   0  0  0  0  0  0  0  0  0  0  0  0
   35.4830   26.3720   31.1360 C   0  0  0  0  0  0  0  0  0  0  0  0
   35.0860   25.0310   31.0150 C   0  0  0  0  0  0  0  0  0  0  0  0
   35.8190   24.0480   31.6500 N   0  0  0  0  0  0  0  0  0  0  0  0
   36.9170   24.3430   32.3910 C   0  0  0  0  0  0  0  0  0  0  0  0
   37.3050   25.6130   32.5140 N   0  0  0  0  0  0  0  0  0  0  0  0
   34.8800   27.1040   30.6270 H   0  0  0  0  0  0  0  0  0  0  0  0
   34.2200   24.7150   30.4410 H   0  0  0  0  0  0  0  0  0  0  0  0
   37.4110   23.5090   32.8390 H   0  0  0  0  0  0  0  0  0  0  0  0
   34.8750   30.2940   34.1880 C   0  0  0  0  0  0  0  0  0  0  0  0
   33.5630   30.0420   34.5560 C   0  0  0  0  0  0  0  0  0  0  0  0
   32.8900   29.4380   33.9670 H   0  0  0  0  0  0  0  0  0  0  0  0
   33.0740   30.5910   35.7470 C   0  0  0  0  0  3  0  0  0  0  0  0
   33.9290   31.3610   36.4990 C   0  0  0  0  0  0  0  0  0  0  0  0
   33.5170   31.7660   37.4090 H   0  0  0  0  0  0  0  0  0  0  0  0
   35.2360   31.6040   36.1200 C   0  0  0  0  0  0  0  0  0  0  0  0
   35.8950   32.2160   36.7300 H   0  0  0  0  0  0  0  0  0  0  0  0
   35.7410   31.0640   34.9330 C   0  0  0  0  0  3  0  0  0  0  0  0
  1  7  1  1  0  0  0
  1  2  1  0  0  0  0
  2  9  1  0  0  0  0
  2  8  1  0  0  0  0
  3 10  1  6  0  0  0
  3  2  1  0  0  0  0
  3 26  1  0  0  0  0
  4 11  1  0  0  0  0
  4  3  1  0  0  0  0
  5 14  1  0  0  0  0
  5  4  1  0  0  0  0
  6  5  1  0  0  0  0
  6  1  1  0  0  0  0
 12  4  1  0  0  0  0
 13  5  1  0  0  0  0
 15  6  1  0  0  0  0
 16  6  1  0  0  0  0
 17  1  1  0  0  0  0
 17 22  1  0  0  0  0
 18 17  2  0  0  0  0
 19 18  1  0  0  0  0
 19 20  2  0  0  0  0
 20 21  1  0  0  0  0
 21 22  2  0  0  0  0
 21 25  1  0  0  0  0
 23 18  1  0  0  0  0
 24 19  1  0  0  0  0
 26 27  2  0  0  0  0
 26 34  1  0  0  0  0
 27 29  1  0  0  0  0
 28 27  1  0  0  0  0
 29 30  2  0  0  0  0
 30 31  1  0  0  0  0
 32 30  1  0  0  0  0
 32 33  1  0  0  0  0
 34 32  2  0  0  0  0
M  END
>  <minimizedAffinity>
-5.06549311

$$$$

 OpenBabel03272505563D

 34 36  0  0  1  0  0  0  0  0999 V2000
   36.4260   23.5140   31.3520 C   0  0  2  0  0  0  0  0  0  0  0  0
   37.5780   24.1830   32.0810 C   0  0  0  0  0  0  0  0  0  0  0  0
   37.1740   25.4450   32.7830 C   0  0  2  0  0  0  0  0  0  0  0  0
   36.5150   26.4240   31.8440 C   0  0  0  0  0  0  0  0  0  0  0  0
   35.4870   25.7940   30.9540 C   0  0  0  0  0  0  0  0  0  0  0  0
   35.1970   24.3590   31.3410 C   0  0  0  0  0  0  0  0  0  0  0  0
   36.8070   23.3130   30.3350 H   0  0  0  0  0  0  0  0  0  0  0  0
   38.4440   24.3860   31.4350 H   0  0  0  0  0  0  0  0  0  0  0  0
   37.9450   23.4920   32.8760 H   0  0  0  0  0  0  0  0  0  0  0  0
   36.5340   25.1900   33.6530 H   0  0  0  0  0  0  0  0  0  0  0  0
   37.3280   26.8210   31.1780 H   0  0  0  0  0  0  0  0  0  0  0  0
   36.1230   27.2410   32.4730 H   0  0  0  0  0  0  0  0  0  0  0  0
   34.5360   26.3470   30.9530 H   0  0  0  0  0  0  0  0  0  0  0  0
   35.8220   25.7370   29.8770 H   0  0  0  0  0  0  0  0  0  0  0  0
   34.4340   23.9430   30.6890 H   0  0  0  0  0  0  0  0  0  0  0  0
   34.7970   24.3440   32.3970 H   0  0  0  0  0  0  0  0  0  0  0  0
   36.0890   22.2300   32.0370 C   0  0  0  0  0  0  0  0  0  0  0  0
   35.2990   21.3250   31.3060 C   0  0  0  0  0  0  0  0  0  0  0  0
   34.9730   20.1220   31.9530 C   0  0  0  0  0  0  0  0  0  0  0  0
   35.4320   19.8970   33.2350 N   0  0  0  0  0  0  0  0  0  0  0  0
   36.1940   20.8090   33.8910 C   0  0  0  0  0  0  0  0  0  0  0  0
   36.5100   21.9560   33.2880 N   0  0  0  0  0  0  0  0  0  0  0  0
   34.9170   21.4580   30.3090 H   0  0  0  0  0  0  0  0  0  0  0  0
   34.3700   19.3440   31.4950 H   0  0  0  0  0  0  0  0  0  0  0  0
   36.4960   20.5360   34.8780 H   0  0  0  0  0  0  0  0  0  0  0  0
   38.4210   26.0650   33.3090 C   0  0  0  0  0  0  0  0  0  0  0  0
   39.3460   26.4880   32.3680 C   0  0  0  0  0  0  0  0  0  0  0  0
   39.1960   26.3840   31.3040 H   0  0  0  0  0  0  0  0  0  0  0  0
   40.5380   27.0790   32.8020 C   0  0  0  0  0  3  0  0  0  0  0  0
   40.7330   27.2120   34.1570 C   0  0  0  0  0  0  0  0  0  0  0  0
   41.6610   27.6720   34.4540 H   0  0  0  0  0  0  0  0  0  0  0  0
   39.8010   26.7860   35.0860 C   0  0  0  0  0  0  0  0  0  0  0  0
   39.9750   26.9020   36.1520 H   0  0  0  0  0  0  0  0  0  0  0  0
   38.6060   26.1930   34.6680 C   0  0  0  0  0  3  0  0  0  0  0  0
  1  7  1  6  0  0  0
  1 17  1  0  0  0  0
  1  2  1  0  0  0  0
  2  3  1  0  0  0  0
  2  9  1  0  0  0  0
  3 26  1  0  0  0  0
  3 10  1  1  0  0  0
  4 12  1  0  0  0  0
  4  3  1  0  0  0  0
  5  6  1  0  0  0  0
  5  4  1  0  0  0  0
  6  1  1  0  0  0  0
  6 16  1  0  0  0  0
  8  2  1  0  0  0  0
 11  4  1  0  0  0  0
 13  5  1  0  0  0  0
 14  5  1  0  0  0  0
 15  6  1  0  0  0  0
 17 22  1  0  0  0  0
 18 19  1  0  0  0  0
 18 17  2  0  0  0  0
 19 20  2  0  0  0  0
 20 21  1  0  0  0  0
 21 25  1  0  0  0  0
 22 21  2  0  0  0  0
 23 18  1  0  0  0  0
 24 19  1  0  0  0  0
 26 34  1  0  0  0  0
 27 29  1  0  0  0  0
 27 26  2  0  0  0  0
 28 27  1  0  0  0  0
 29 30  2  0  0  0  0
 30 31  1  0  0  0  0
 30 32  1  0  0  0  0
 32 33  1  0  0  0  0
 34 32  2  0  0  0  0
M  END
>  <minimizedAffinity>
-5.00969172

$$$$

 OpenBabel03272505563D

 34 36  0  0  1  0  0  0  0  0999 V2000
   39.4070   26.2140   35.2240 C   0  0  2  0  0  0  0  0  0  0  0  0
   38.5710   26.8490   34.1280 C   0  0  0  0  0  0  0  0  0  0  0  0
   39.2230   26.7820   32.7790 C   0  0  2  0  0  0  0  0  0  0  0  0
   40.6060   27.3840   32.7920 C   0  0  0  0  0  0  0  0  0  0  0  0
   41.4340   26.9430   33.9610 C   0  0  0  0  0  0  0  0  0  0  0  0
   40.7690   25.8340   34.7490 C   0  0  0  0  0  0  0  0  0  0  0  0
   39.4390   26.9650   36.0330 H   0  0  0  0  0  0  0  0  0  0  0  0
   38.2850   27.8880   34.3430 H   0  0  0  0  0  0  0  0  0  0  0  0
   37.6140   26.2820   34.0350 H   0  0  0  0  0  0  0  0  0  0  0  0
   39.2190   25.7310   32.4230 H   0  0  0  0  0  0  0  0  0  0  0  0
   40.4670   28.4950   32.8890 H   0  0  0  0  0  0  0  0  0  0  0  0
   41.0540   27.1530   31.8120 H   0  0  0  0  0  0  0  0  0  0  0  0
   42.4350   26.5960   33.6600 H   0  0  0  0  0  0  0  0  0  0  0  0
   41.5980   27.7690   34.7130 H   0  0  0  0  0  0  0  0  0  0  0  0
   41.4060   25.5270   35.5730 H   0  0  0  0  0  0  0  0  0  0  0  0
   40.6270   24.9440   34.0690 H   0  0  0  0  0  0  0  0  0  0  0  0
   38.7300   24.9710   35.7030 C   0  0  0  0  0  0  0  0  0  0  0  0
   38.7880   23.8610   34.8430 C   0  0  0  0  0  0  0  0  0  0  0  0
   38.1430   22.6960   35.2880 C   0  0  0  0  0  0  0  0  0  0  0  0
   37.5040   22.7020   36.5100 N   0  0  0  0  0  0  0  0  0  0  0  0
   37.4810   23.8060   37.2990 C   0  0  0  0  0  0  0  0  0  0  0  0
   38.0900   24.9190   36.8890 N   0  0  0  0  0  0  0  0  0  0  0  0
   39.2710   23.8120   33.8820 H   0  0  0  0  0  0  0  0  0  0  0  0
   38.1170   21.7740   34.7140 H   0  0  0  0  0  0  0  0  0  0  0  0
   36.9590   23.7020   38.2260 H   0  0  0  0  0  0  0  0  0  0  0  0
   38.3750   27.5750   31.8480 C   0  0  0  0  0  0  0  0  0  0  0  0
   37.1510   28.0030   32.3370 C   0  0  0  0  0  0  0  0  0  0  0  0
   36.8070   27.7850   33.3370 H   0  0  0  0  0  0  0  0  0  0  0  0
   36.3100   28.7530   31.5080 C   0  0  0  0  0  3  0  0  0  0  0  0
   36.7450   29.0300   30.2330 C   0  0  0  0  0  0  0  0  0  0  0  0
   36.0710   29.6100   29.6240 H   0  0  0  0  0  0  0  0  0  0  0  0
   37.9690   28.5980   29.7570 C   0  0  0  0  0  0  0  0  0  0  0  0
   38.2940   28.8290   28.7460 H   0  0  0  0  0  0  0  0  0  0  0  0
   38.8210   27.8470   30.5730 C   0  0  0  0  0  3  0  0  0  0  0  0
  1 17  1  0  0  0  0
  1  7  1  1  0  0  0
  2  8  1  0  0  0  0
  2  1  1  0  0  0  0
  3 10  1  6  0  0  0
  3  4  1  0  0  0  0
  3  2  1  0  0  0  0
  4 11  1  0  0  0  0
  4  5  1  0  0  0  0
  5 14  1  0  0  0  0
  5  6  1  0  0  0  0
  6  1  1  0  0  0  0
  6 15  1  0  0  0  0
  9  2  1  0  0  0  0
 12  4  1  0  0  0  0
 13  5  1  0  0  0  0
 16  6  1  0  0  0  0
 17 22  1  0  0  0  0
 18 19  1  0  0  0  0
 18 17  2  0  0  0  0
 19 20  2  0  0  0  0
 20 21  1  0  0  0  0
 21 25  1  0  0  0  0
 22 21  2  0  0  0  0
 23 18  1  0  0  0  0
 24 19  1  0  0  0  0
 26 27  1  0  0  0  0
 26  3  1  0  0  0  0
 27 28  1  0  0  0  0
 29 27  2  0  0  0  0
 30 29  1  0  0  0  0
 31 30  1  0  0  0  0
 32 30  2  0  0  0  0
 32 34  1  0  0  0  0
 33 32  1  0  0  0  0
 34 26  2  0  0  0  0
M  END
>  <minimizedAffinity>
-4.99507761

$$$$

 OpenBabel03272505563D

 34 36  0  0  1  0  0  0  0  0999 V2000
   39.6600   26.1440   34.6860 C   0  0  2  0  0  0  0  0  0  0  0  0
   38.4880   27.0990   34.5580 C   0  0  0  0  0  0  0  0  0  0  0  0
   37.8540   27.0710   33.1990 C   0  0  2  0  0  0  0  0  0  0  0  0
   38.8590   27.3320   32.1050 C   0  0  0  0  0  0  0  0  0  0  0  0
   40.1300   26.5560   32.2680 C   0  0  0  0  0  0  0  0  0  0  0  0
   40.0360   25.5310   33.3800 C   0  0  0  0  0  0  0  0  0  0  0  0
   40.4780   26.7480   35.1180 H   0  0  0  0  0  0  0  0  0  0  0  0
   38.7380   28.1360   34.8220 H   0  0  0  0  0  0  0  0  0  0  0  0
   37.6920   26.7850   35.2740 H   0  0  0  0  0  0  0  0  0  0  0  0
   37.3180   26.1090   33.0650 H   0  0  0  0  0  0  0  0  0  0  0  0
   39.1280   28.4210   32.1750 H   0  0  0  0  0  0  0  0  0  0  0  0
   38.3370   27.1420   31.1520 H   0  0  0  0  0  0  0  0  0  0  0  0
   40.4260   26.0330   31.3450 H   0  0  0  0  0  0  0  0  0  0  0  0
   41.0040   27.2090   32.5560 H   0  0  0  0  0  0  0  0  0  0  0  0
   40.9670   24.9750   33.4540 H   0  0  0  0  0  0  0  0  0  0  0  0
   39.2140   24.8000   33.1270 H   0  0  0  0  0  0  0  0  0  0  0  0
   39.2930   25.0360   35.6190 C   0  0  0  0  0  0  0  0  0  0  0  0
   38.1410   25.2370   36.3990 C   0  0  0  0  0  0  0  0  0  0  0  0
   37.8010   24.2000   37.2830 C   0  0  0  0  0  0  0  0  0  0  0  0
   38.5930   23.0710   37.3390 N   0  0  0  0  0  0  0  0  0  0  0  0
   39.6950   22.9330   36.5590 C   0  0  0  0  0  0  0  0  0  0  0  0
   40.0300   23.9100   35.7150 N   0  0  0  0  0  0  0  0  0  0  0  0
   37.4970   26.0990   36.3910 H   0  0  0  0  0  0  0  0  0  0  0  0
   36.9360   24.2360   37.9380 H   0  0  0  0  0  0  0  0  0  0  0  0
   40.2370   22.0210   36.6810 H   0  0  0  0  0  0  0  0  0  0  0  0
   36.8380   28.1590   33.1720 C   0  0  0  0  0  0  0  0  0  0  0  0
   36.6170   28.7690   31.9480 C   0  0  0  0  0  0  0  0  0  0  0  0
   37.1390   28.4890   31.0460 H   0  0  0  0  0  0  0  0  0  0  0  0
   35.6730   29.7990   31.8610 C   0  0  0  0  0  3  0  0  0  0  0  0
   35.0060   30.1580   33.0080 C   0  0  0  0  0  0  0  0  0  0  0  0
   34.2870   30.9540   32.9030 H   0  0  0  0  0  0  0  0  0  0  0  0
   35.2360   29.5410   34.2240 C   0  0  0  0  0  0  0  0  0  0  0  0
   34.6970   29.8400   35.1190 H   0  0  0  0  0  0  0  0  0  0  0  0
   36.1760   28.5100   34.3280 C   0  0  0  0  0  3  0  0  0  0  0  0
  1  7  1  1  0  0  0
  1 17  1  0  0  0  0
  2  1  1  0  0  0  0
  2  8  1  0  0  0  0
  2  9  1  0  0  0  0
  3 10  1  6  0  0  0
  3  2  1  0  0  0  0
  4 11  1  0  0  0  0
  4  5  1  0  0  0  0
  4  3  1  0  0  0  0
  5 14  1  0  0  0  0
  5  6  1  0  0  0  0
  6 15  1  0  0  0  0
  6  1  1  0  0  0  0
 12  4  1  0  0  0  0
 13  5  1  0  0  0  0
 16  6  1  0  0  0  0
 17 22  2  0  0  0  0
 17 18  1  0  0  0  0
 18 19  2  0  0  0  0
 19 20  1  0  0  0  0
 19 24  1  0  0  0  0
 21 25  1  0  0  0  0
 21 20  2  0  0  0  0
 22 21  1  0  0  0  0
 23 18  1  0  0  0  0
 26  3  1  0  0  0  0
 26 34  1  0  0  0  0
 27 26  2  0  0  0  0
 28 27  1  0  0  0  0
 29 27  1  0  0  0  0
 29 30  2  0  0  0  0
 30 32  1  0  0  0  0
 31 30  1  0  0  0  0
 32 34  2  0  0  0  0
 32 33  1  0  0  0  0
M  END
>  <minimizedAffinity>
-4.98514891

$$$$

 OpenBabel03272505563D

 34 36  0  0  1  0  0  0  0  0999 V2000
   37.3950   27.0350   33.2800 C   0  0  2  0  0  0  0  0  0  0  0  0
   38.8960   26.9320   33.0790 C   0  0  0  0  0  0  0  0  0  0  0  0
   39.6170   26.4250   34.2920 C   0  0  2  0  0  0  0  0  0  0  0  0
   39.3120   27.2550   35.5150 C   0  0  0  0  0  0  0  0  0  0  0  0
   37.8540   27.5570   35.6780 C   0  0  0  0  0  0  0  0  0  0  0  0
   36.9950   26.7880   34.6950 C   0  0  0  0  0  0  0  0  0  0  0  0
   37.1280   28.0510   32.9390 H   0  0  0  0  0  0  0  0  0  0  0  0
   39.3580   27.8730   32.7470 H   0  0  0  0  0  0  0  0  0  0  0  0
   39.0980   26.1910   32.2700 H   0  0  0  0  0  0  0  0  0  0  0  0
   39.3800   25.3510   34.4360 H   0  0  0  0  0  0  0  0  0  0  0  0
   39.8370   28.2380   35.3700 H   0  0  0  0  0  0  0  0  0  0  0  0
   39.7580   26.7220   36.3710 H   0  0  0  0  0  0  0  0  0  0  0  0
   37.4900   27.3380   36.6940 H   0  0  0  0  0  0  0  0  0  0  0  0
   37.6100   28.6420   35.4820 H   0  0  0  0  0  0  0  0  0  0  0  0
   35.9460   27.0170   34.8580 H   0  0  0  0  0  0  0  0  0  0  0  0
   37.1430   25.6840   34.8760 H   0  0  0  0  0  0  0  0  0  0  0  0
   36.7130   26.0120   32.4300 C   0  0  0  0  0  0  0  0  0  0  0  0
   37.1680   24.6890   32.5660 C   0  0  0  0  0  0  0  0  0  0  0  0
   36.5350   23.7290   31.7610 C   0  0  0  0  0  0  0  0  0  0  0  0
   35.5290   24.1230   30.9030 N   0  0  0  0  0  0  0  0  0  0  0  0
   35.1310   25.4170   30.8150 C   0  0  0  0  0  0  0  0  0  0  0  0
   35.7240   26.3400   31.5740 N   0  0  0  0  0  0  0  0  0  0  0  0
   37.9490   24.3370   33.2170 H   0  0  0  0  0  0  0  0  0  0  0  0
   36.7970   22.6750   31.7740 H   0  0  0  0  0  0  0  0  0  0  0  0
   34.3440   25.6140   30.1200 H   0  0  0  0  0  0  0  0  0  0  0  0
   41.0740   26.5310   34.0060 C   0  0  0  0  0  0  0  0  0  0  0  0
   41.4450   27.4080   33.0000 C   0  0  0  0  0  0  0  0  0  0  0  0
   40.7360   27.9960   32.4390 H   0  0  0  0  0  0  0  0  0  0  0  0
   42.8020   27.5500   32.6860 C   0  0  0  0  0  3  0  0  0  0  0  0
   43.7080   26.8010   33.3990 C   0  0  0  0  0  0  0  0  0  0  0  0
   44.7420   26.9370   33.1290 H   0  0  0  0  0  0  0  0  0  0  0  0
   43.3250   25.9290   34.4010 C   0  0  0  0  0  0  0  0  0  0  0  0
   44.0580   25.3470   34.9520 H   0  0  0  0  0  0  0  0  0  0  0  0
   41.9740   25.7760   34.7270 C   0  0  0  0  0  3  0  0  0  0  0  0
  1  7  1  6  0  0  0
  1  6  1  0  0  0  0
  2  1  1  0  0  0  0
  2  3  1  0  0  0  0
  3 10  1  1  0  0  0
  3  4  1  0  0  0  0
  4  5  1  0  0  0  0
  4 12  1  0  0  0  0
  5 13  1  0  0  0  0
  6 15  1  0  0  0  0
  6 16  1  0  0  0  0
  6  5  1  0  0  0  0
  8  2  1  0  0  0  0
  9  2  1  0  0  0  0
 11  4  1  0  0  0  0
 14  5  1  0  0  0  0
 17 18  1  0  0  0  0
 17  1  1  0  0  0  0
 18 23  1  0  0  0  0
 19 24  1  0  0  0  0
 19 18  2  0  0  0  0
 20 19  1  0  0  0  0
 21 20  2  0  0  0  0
 21 22  1  0  0  0  0
 22 17  2  0  0  0  0
 25 21  1  0  0  0  0
 26  3  1  0  0  0  0
 26 34  1  0  0  0  0
 27 26  2  0  0  0  0
 28 27  1  0  0  0  0
 29 27  1  0  0  0  0
 29 30  2  0  0  0  0
 30 32  1  0  0  0  0
 31 30  1  0  0  0  0
 32 34  2  0  0  0  0
 32 33  1  0  0  0  0
M  END
>  <minimizedAffinity>
-4.97673368

$$$$
