
 OpenBabel03272507583D

 32 34  0  0  0  0  0  0  0  0999 V2000
   36.9640   31.1480   48.4050 C   0  0  0  0  0  0  0  0  0  0  0  0
   37.2410   32.1200   49.3480 C   0  0  0  0  0  0  0  0  0  0  0  0
   38.2030   33.0760   49.0600 C   0  0  0  0  0  0  0  0  0  0  0  0
   38.8640   33.0410   47.8420 C   0  0  0  0  0  0  0  0  0  0  0  0
   38.5570   32.0570   46.9330 C   0  0  0  0  0  0  0  0  0  0  0  0
   37.6280   31.1430   47.2230 N   0  0  0  0  0  0  0  0  0  0  0  0
   36.7980   32.2520   50.3240 H   0  0  0  0  0  0  0  0  0  0  0  0
   38.4770   33.8700   49.7460 H   0  0  0  0  0  0  0  0  0  0  0  0
   39.6040   33.7800   47.6250 H   0  0  0  0  0  0  0  0  0  0  0  0
   35.1050   28.5670   50.4160 C   0  0  0  0  0  0  0  0  0  0  0  0
   36.1300   29.4650   50.0070 C   0  0  0  0  0  0  0  0  0  0  0  0
   35.9270   30.2130   48.8540 C   0  0  0  0  0  0  0  0  0  0  0  0
   34.7550   30.0500   48.1680 N   0  0  0  0  0  0  0  0  0  0  0  0
   33.8000   29.1770   48.5970 C   0  0  0  0  0  0  0  0  0  0  0  0
   33.9680   28.4420   49.7070 N   0  0  0  0  0  0  0  0  0  0  0  0
   32.6770   29.1780   47.7310 N   0  0  0  0  0  0  0  0  0  0  0  0
   35.2500   27.9770   51.3150 H   0  0  0  0  0  0  0  0  0  0  0  0
   32.0770   30.0380   47.6130 H   0  0  0  0  0  0  0  0  0  0  0  0
   32.4790   28.2820   47.2200 H   0  0  0  0  0  0  0  0  0  0  0  0
   37.3610   29.5590   50.8290 C   0  0  0  0  0  0  0  0  0  0  0  0
   38.4800   29.7850   50.0310 F   0  0  0  0  0  0  0  0  0  0  0  0
   37.2380   30.5930   51.7040 F   0  0  0  0  0  0  0  0  0  0  0  0
   37.6130   28.4050   51.5570 F   0  0  0  0  0  0  0  0  0  0  0  0
   39.2090   31.9530   45.6300 C   0  0  0  0  0  0  0  0  0  0  0  0
   38.8810   32.8680   44.6520 C   0  0  0  0  0  0  0  0  0  0  0  0
   38.1470   33.6650   44.8280 H   0  0  0  0  0  0  0  0  0  0  0  0
   39.4360   32.8670   43.3750 C   0  0  0  0  0  0  0  0  0  0  0  0
   40.3700   31.9030   43.0510 C   0  0  0  0  0  0  0  0  0  0  0  0
   40.8190   31.8730   42.0780 H   0  0  0  0  0  0  0  0  0  0  0  0
   40.6880   31.0050   44.0220 C   0  0  0  0  0  0  0  0  0  0  0  0
   41.4200   30.2150   43.8340 H   0  0  0  0  0  0  0  0  0  0  0  0
   40.1440   31.0010   45.2840 C   0  0  0  0  0  0  0  0  0  0  0  0
  1 12  1  0  0  0  0
  1  2  1  0  0  0  0
  2  7  1  0  0  0  0
  3  2  2  0  0  0  0
  3  8  1  0  0  0  0
  4  3  1  0  0  0  0
  5  6  1  0  0  0  0
  5  4  2  0  0  0  0
  6  1  2  0  0  0  0
  9  4  1  0  0  0  0
 10 17  1  0  0  0  0
 11 10  1  0  0  0  0
 11 20  1  0  0  0  0
 12 11  2  0  0  0  0
 13 14  2  0  0  0  0
 13 12  1  0  0  0  0
 14 15  1  0  0  0  0
 15 10  2  0  0  0  0
 16 14  1  0  0  0  0
 18 16  1  0  0  0  0
 19 16  1  0  0  0  0
 20 23  1  0  0  0  0
 20 22  1  0  0  0  0
 21 20  1  0  0  0  0
 24  5  1  0  0  0  0
 25 26  1  0  0  0  0
 25 24  2  0  0  0  0
 27 25  1  0  0  0  0
 28 27  2  0  0  0  0
 28 30  1  0  0  0  0
 29 28  1  0  0  0  0
 30 32  2  0  0  0  0
 31 30  1  0  0  0  0
 32 24  1  0  0  0  0
M  END
>  <minimizedAffinity>
-7.05380583

>  <minimizedRMSD>
1.02880192

$$$$
