
 OpenBabel03272510173D

 28 30  0  0  0  0  0  0  0  0999 V2000
   37.4320   29.2190   50.8730 Br  0  0  0  0  0  0  0  0  0  0  0  0
   36.0360   29.2840   49.5800 C   0  0  0  0  0  0  0  0  0  0  0  0
   36.0100   30.2610   48.6050 C   0  0  0  0  0  0  0  0  0  0  0  0
   34.9600   30.2500   47.6980 C   0  0  0  0  0  0  0  0  0  0  0  0
   33.9510   29.3110   47.7310 C   0  0  0  0  0  0  0  0  0  0  0  0
   34.0020   28.3540   48.7080 C   0  0  0  0  0  0  0  0  0  0  0  0
   35.0370   28.3500   49.6160 C   0  0  0  0  0  0  0  0  0  0  0  0
   34.9780   31.0410   46.9420 H   0  0  0  0  0  0  0  0  0  0  0  0
   33.2430   27.5860   48.7920 H   0  0  0  0  0  0  0  0  0  0  0  0
   35.0530   27.5800   50.3800 H   0  0  0  0  0  0  0  0  0  0  0  0
   38.0140   33.1900   49.4410 C   0  0  0  0  0  0  0  0  0  0  0  0
   39.0400   33.2060   48.4650 C   0  0  0  0  0  0  0  0  0  0  0  0
   39.0160   32.1880   47.5220 C   0  0  0  0  0  0  0  0  0  0  0  0
   38.0310   31.2340   47.5740 N   0  0  0  0  0  0  0  0  0  0  0  0
   37.0630   31.2680   48.5430 C   0  0  0  0  0  0  0  0  0  0  0  0
   37.0680   32.2450   49.4630 N   0  0  0  0  0  0  0  0  0  0  0  0
   37.9490   33.9450   50.2180 H   0  0  0  0  0  0  0  0  0  0  0  0
   39.7770   33.9810   48.4830 H   0  0  0  0  0  0  0  0  0  0  0  0
   39.7780   32.1530   46.7520 H   0  0  0  0  0  0  0  0  0  0  0  0
   32.8700   29.3390   46.7570 C   0  0  0  0  0  0  0  0  0  0  0  0
   32.1580   28.1430   46.6140 C   0  0  0  0  0  0  0  0  0  0  0  0
   32.3940   27.2680   47.1820 H   0  0  0  0  0  0  0  0  0  0  0  0
   31.1090   28.0330   45.7250 C   0  0  0  0  0  3  0  0  0  0  0  0
   30.7400   29.1120   44.9520 C   0  0  0  0  0  0  0  0  0  0  0  0
   29.9010   28.9960   44.2560 H   0  0  0  0  0  0  0  0  0  0  0  0
   31.4440   30.3060   45.0910 C   0  0  0  0  0  0  0  0  0  0  0  0
   31.1640   31.1440   44.4980 H   0  0  0  0  0  0  0  0  0  0  0  0
   32.5000   30.4180   45.9840 C   0  0  0  0  0  3  0  0  0  0  0  0
  2  7  1  0  0  0  0
  2  1  1  0  0  0  0
  3  2  2  0  0  0  0
  4  5  2  0  0  0  0
  4  3  1  0  0  0  0
  5  6  1  0  0  0  0
  6  9  1  0  0  0  0
  6  7  2  0  0  0  0
  7 10  1  0  0  0  0
  8  4  1  0  0  0  0
 11 16  1  0  0  0  0
 11 17  1  0  0  0  0
 12 18  1  0  0  0  0
 12 11  2  0  0  0  0
 13 14  2  0  0  0  0
 13 12  1  0  0  0  0
 14 15  1  0  0  0  0
 15  3  1  0  0  0  0
 15 16  2  0  0  0  0
 19 13  1  0  0  0  0
 20  5  1  0  0  0  0
 21 20  1  0  0  0  0
 21 22  1  0  0  0  0
 23 21  2  0  0  0  0
 24 26  2  0  0  0  0
 24 23  1  0  0  0  0
 25 24  1  0  0  0  0
 26 28  1  0  0  0  0
 27 26  1  0  0  0  0
 28 20  2  0  0  0  0
M  END
>  <minimizedAffinity>
-5.89521313

>  <minimizedRMSD>
0.554690719

$$$$
