
 OpenBabel03272508503D

 40 44  0  0  0  0  0  0  0  0999 V2000
   37.3750   27.8590   32.2970 C   0  0  0  0  0  0  0  0  0  0  0  0
   36.8130   28.5300   31.2170 C   0  0  0  0  0  0  0  0  0  0  0  0
   35.8630   29.3580   31.8120 C   0  0  0  0  0  0  0  0  0  0  0  0
   35.8890   29.1620   33.1740 C   0  0  0  0  0  0  0  0  0  0  0  0
   36.8070   28.2600   33.4180 O   0  0  0  0  0  0  0  0  0  0  0  0
   37.0600   28.4230   30.1860 H   0  0  0  0  0  0  0  0  0  0  0  0
   35.2220   30.0380   31.2470 H   0  0  0  0  0  0  0  0  0  0  0  0
   33.7160   29.5420   34.2400 C   0  0  0  0  0  0  0  0  0  0  0  0
   35.0600   29.8260   34.1710 C   0  0  0  0  0  0  0  0  0  0  0  0
   35.6520   30.7370   35.0340 C   0  0  0  0  0  0  0  0  0  0  0  0
   34.9030   31.3970   36.0030 C   0  0  0  0  0  0  0  0  0  0  0  0
   35.1590   32.3030   36.9580 N   0  0  0  0  0  0  0  0  0  0  0  0
   34.0070   32.5530   37.5780 N   0  0  0  0  0  0  0  0  0  0  0  0
   33.0140   31.8210   37.0370 C   0  0  0  0  0  0  0  0  0  0  0  0
   33.5670   31.0640   36.0140 C   0  0  0  0  0  0  0  0  0  0  0  0
   32.9100   30.1720   35.1910 C   0  0  0  0  0  0  0  0  0  0  0  0
   33.2760   28.8270   33.5560 H   0  0  0  0  0  0  0  0  0  0  0  0
   36.7220   30.9550   34.9700 H   0  0  0  0  0  0  0  0  0  0  0  0
   36.1260   32.6700   37.0940 H   0  0  0  0  0  0  0  0  0  0  0  0
   31.9760   31.8590   37.3820 H   0  0  0  0  0  0  0  0  0  0  0  0
   31.8620   29.9860   35.2850 H   0  0  0  0  0  0  0  0  0  0  0  0
   38.4310   26.8710   32.1760 C   0  0  0  0  0  0  0  0  0  0  0  0
   39.4860   27.2060   31.6080 O   0  0  0  0  0  0  0  0  0  0  0  0
   37.6230   23.3220   32.3370 C   0  0  0  0  0  0  0  0  0  0  0  0
   37.8500   23.0050   33.6620 C   0  0  0  0  0  0  0  0  0  0  0  0
   38.2770   23.9870   34.5170 C   0  0  0  0  0  0  0  0  0  0  0  0
   38.4630   25.2250   34.0330 N   0  0  0  0  0  0  0  0  0  0  0  0
   38.2350   25.5250   32.7180 C   0  0  0  0  0  0  0  0  0  0  0  0
   37.8150   24.5600   31.8830 N   0  0  0  0  0  0  0  0  0  0  0  0
   37.2860   22.5630   31.6430 H   0  0  0  0  0  0  0  0  0  0  0  0
   37.6960   22.0050   34.0350 H   0  0  0  0  0  0  0  0  0  0  0  0
   38.5490   23.7740   35.9320 C   0  0  0  0  0  0  0  0  0  0  0  0
   37.7390   24.4100   36.8500 C   0  0  0  0  0  0  0  0  0  0  0  0
   36.9210   25.0520   36.5670 H   0  0  0  0  0  0  0  0  0  0  0  0
   37.9180   24.2690   38.2300 C   0  0  0  0  0  3  0  0  0  0  0  0
   38.9320   23.4740   38.7210 C   0  0  0  0  0  0  0  0  0  0  0  0
   39.0730   23.3640   39.7820 H   0  0  0  0  0  0  0  0  0  0  0  0
   39.7330   22.8470   37.7780 C   0  0  0  0  0  0  0  0  0  0  0  0
   40.5220   22.2280   38.1800 H   0  0  0  0  0  0  0  0  0  0  0  0
   39.5580   22.9830   36.4250 C   0  0  0  0  0  3  0  0  0  0  0  0
  1  5  1  0  0  0  0
  2  3  1  0  0  0  0
  2  1  2  0  0  0  0
  3  4  2  0  0  0  0
  4  5  1  0  0  0  0
  4  9  1  0  0  0  0
  6  2  1  0  0  0  0
  7  3  1  0  0  0  0
  8 16  1  0  0  0  0
  9  8  2  0  0  0  0
  9 10  1  0  0  0  0
 10 11  2  0  0  0  0
 11 15  1  0  0  0  0
 11 12  1  0  0  0  0
 12 19  1  0  0  0  0
 12 13  1  0  0  0  0
 14 20  1  0  0  0  0
 14 13  2  0  0  0  0
 15 14  1  0  0  0  0
 16 21  1  0  0  0  0
 16 15  2  0  0  0  0
 17  8  1  0  0  0  0
 18 10  1  0  0  0  0
 22  1  1  0  0  0  0
 22 28  1  0  0  0  0
 23 22  2  0  0  0  0
 24 25  1  0  0  0  0
 25 31  1  0  0  0  0
 25 26  2  0  0  0  0
 26 32  1  0  0  0  0
 27 26  1  0  0  0  0
 28 27  2  0  0  0  0
 29 24  2  0  0  0  0
 29 28  1  0  0  0  0
 30 24  1  0  0  0  0
 32 40  2  0  0  0  0
 32 33  1  0  0  0  0
 33 35  2  0  0  0  0
 34 33  1  0  0  0  0
 35 36  1  0  0  0  0
 36 37  1  0  0  0  0
 38 39  1  0  0  0  0
 38 36  2  0  0  0  0
 40 38  1  0  0  0  0
M  END
>  <minimizedAffinity>
-7.07759237

$$$$

 OpenBabel03272508503D

 40 44  0  0  0  0  0  0  0  0999 V2000
   36.4120   27.6060   32.3360 C   0  0  0  0  0  0  0  0  0  0  0  0
   36.5090   28.6420   31.4140 C   0  0  0  0  0  0  0  0  0  0  0  0
   36.0320   29.7450   32.1200 C   0  0  0  0  0  0  0  0  0  0  0  0
   35.6800   29.3460   33.3900 C   0  0  0  0  0  0  0  0  0  0  0  0
   35.9250   28.0620   33.4730 O   0  0  0  0  0  0  0  0  0  0  0  0
   36.8650   28.5890   30.4120 H   0  0  0  0  0  0  0  0  0  0  0  0
   35.9660   30.7470   31.6930 H   0  0  0  0  0  0  0  0  0  0  0  0
   35.9910   30.8510   35.2980 C   0  0  0  0  0  0  0  0  0  0  0  0
   35.1370   30.1820   34.4520 C   0  0  0  0  0  0  0  0  0  0  0  0
   33.7600   30.2850   34.5840 C   0  0  0  0  0  0  0  0  0  0  0  0
   33.1920   31.0710   35.5830 C   0  0  0  0  0  0  0  0  0  0  0  0
   31.9440   31.3730   35.9690 N   0  0  0  0  0  0  0  0  0  0  0  0
   32.0470   32.1960   37.0120 N   0  0  0  0  0  0  0  0  0  0  0  0
   33.3430   32.4270   37.3010 C   0  0  0  0  0  0  0  0  0  0  0  0
   34.1050   31.7090   36.3920 C   0  0  0  0  0  0  0  0  0  0  0  0
   35.4830   31.6550   36.3200 C   0  0  0  0  0  0  0  0  0  0  0  0
   37.0620   30.7550   35.1750 H   0  0  0  0  0  0  0  0  0  0  0  0
   33.0900   29.7480   33.9050 H   0  0  0  0  0  0  0  0  0  0  0  0
   31.1220   30.9750   35.4640 H   0  0  0  0  0  0  0  0  0  0  0  0
   33.6740   33.0720   38.1210 H   0  0  0  0  0  0  0  0  0  0  0  0
   36.1030   32.1940   37.0030 H   0  0  0  0  0  0  0  0  0  0  0  0
   36.7990   26.2350   32.0570 C   0  0  0  0  0  0  0  0  0  0  0  0
   36.1050   25.5790   31.2590 O   0  0  0  0  0  0  0  0  0  0  0  0
   40.2090   25.0490   32.5500 C   0  0  0  0  0  0  0  0  0  0  0  0
   40.2070   24.6130   33.8600 C   0  0  0  0  0  0  0  0  0  0  0  0
   39.0530   24.7130   34.5910 C   0  0  0  0  0  0  0  0  0  0  0  0
   37.9640   25.2360   34.0070 N   0  0  0  0  0  0  0  0  0  0  0  0
   37.9810   25.6640   32.7090 C   0  0  0  0  0  0  0  0  0  0  0  0
   39.1130   25.5640   31.9940 N   0  0  0  0  0  0  0  0  0  0  0  0
   41.1090   24.9810   31.9510 H   0  0  0  0  0  0  0  0  0  0  0  0
   41.0910   24.1960   34.3150 H   0  0  0  0  0  0  0  0  0  0  0  0
   38.9280   24.2870   35.9790 C   0  0  0  0  0  0  0  0  0  0  0  0
   39.7980   23.3210   36.4410 C   0  0  0  0  0  0  0  0  0  0  0  0
   40.5590   22.8720   35.8240 H   0  0  0  0  0  0  0  0  0  0  0  0
   39.7590   22.8460   37.7560 C   0  0  0  0  0  3  0  0  0  0  0  0
   38.8300   23.3420   38.6460 C   0  0  0  0  0  0  0  0  0  0  0  0
   38.7970   22.9780   39.6590 H   0  0  0  0  0  0  0  0  0  0  0  0
   37.9670   24.3120   38.1570 C   0  0  0  0  0  0  0  0  0  0  0  0
   37.2460   24.6890   38.8680 H   0  0  0  0  0  0  0  0  0  0  0  0
   38.0040   24.7790   36.8690 C   0  0  0  0  0  3  0  0  0  0  0  0
  1  5  1  0  0  0  0
  2  3  1  0  0  0  0
  2  1  2  0  0  0  0
  3  4  2  0  0  0  0
  4  5  1  0  0  0  0
  4  9  1  0  0  0  0
  6  2  1  0  0  0  0
  7  3  1  0  0  0  0
  8 16  1  0  0  0  0
  9 10  1  0  0  0  0
  9  8  2  0  0  0  0
 10 11  2  0  0  0  0
 11 12  1  0  0  0  0
 11 15  1  0  0  0  0
 12 13  1  0  0  0  0
 13 14  2  0  0  0  0
 14 20  1  0  0  0  0
 15 14  1  0  0  0  0
 16 15  2  0  0  0  0
 16 21  1  0  0  0  0
 17  8  1  0  0  0  0
 18 10  1  0  0  0  0
 19 12  1  0  0  0  0
 22  1  1  0  0  0  0
 22 28  1  0  0  0  0
 23 22  2  0  0  0  0
 24 25  1  0  0  0  0
 25 31  1  0  0  0  0
 25 26  2  0  0  0  0
 26 32  1  0  0  0  0
 27 26  1  0  0  0  0
 28 27  2  0  0  0  0
 29 24  2  0  0  0  0
 29 28  1  0  0  0  0
 30 24  1  0  0  0  0
 32 33  2  0  0  0  0
 32 40  1  0  0  0  0
 33 35  1  0  0  0  0
 34 33  1  0  0  0  0
 35 36  2  0  0  0  0
 36 37  1  0  0  0  0
 38 36  1  0  0  0  0
 38 39  1  0  0  0  0
 40 38  2  0  0  0  0
M  END
>  <minimizedAffinity>
-6.9645195

$$$$

 OpenBabel03272508503D

 40 44  0  0  0  0  0  0  0  0999 V2000
   36.6590   25.9080   32.2360 C   0  0  0  0  0  0  0  0  0  0  0  0
   35.5270   25.9950   31.4330 C   0  0  0  0  0  0  0  0  0  0  0  0
   35.2480   24.6640   31.1270 C   0  0  0  0  0  0  0  0  0  0  0  0
   36.1850   23.8590   31.7330 C   0  0  0  0  0  0  0  0  0  0  0  0
   37.0070   24.6450   32.3850 O   0  0  0  0  0  0  0  0  0  0  0  0
   35.0100   26.8760   31.1330 H   0  0  0  0  0  0  0  0  0  0  0  0
   34.4080   24.3560   30.5010 H   0  0  0  0  0  0  0  0  0  0  0  0
   37.0080   21.8020   30.6870 C   0  0  0  0  0  0  0  0  0  0  0  0
   36.2630   22.4060   31.6730 C   0  0  0  0  0  0  0  0  0  0  0  0
   35.5780   21.6600   32.6210 C   0  0  0  0  0  0  0  0  0  0  0  0
   35.6200   20.2690   32.6070 C   0  0  0  0  0  0  0  0  0  0  0  0
   35.0910   19.2880   33.3510 N   0  0  0  0  0  0  0  0  0  0  0  0
   35.5050   18.1340   32.8280 N   0  0  0  0  0  0  0  0  0  0  0  0
   36.2930   18.3600   31.7590 C   0  0  0  0  0  0  0  0  0  0  0  0
   36.3830   19.7340   31.5930 C   0  0  0  0  0  0  0  0  0  0  0  0
   37.0900   20.4100   30.6190 C   0  0  0  0  0  0  0  0  0  0  0  0
   37.5340   22.4050   29.9580 H   0  0  0  0  0  0  0  0  0  0  0  0
   34.9890   22.1510   33.4020 H   0  0  0  0  0  0  0  0  0  0  0  0
   34.4820   19.5120   34.1680 H   0  0  0  0  0  0  0  0  0  0  0  0
   36.7510   17.5620   31.1650 H   0  0  0  0  0  0  0  0  0  0  0  0
   37.6540   19.8930   29.8720 H   0  0  0  0  0  0  0  0  0  0  0  0
   37.3330   27.0570   32.8110 C   0  0  0  0  0  0  0  0  0  0  0  0
   38.4340   26.8770   33.3630 O   0  0  0  0  0  0  0  0  0  0  0  0
   36.2280   30.2490   31.4450 C   0  0  0  0  0  0  0  0  0  0  0  0
   35.5860   30.8450   32.5130 C   0  0  0  0  0  0  0  0  0  0  0  0
   35.5210   30.1770   33.7070 C   0  0  0  0  0  0  0  0  0  0  0  0
   36.0830   28.9610   33.7950 N   0  0  0  0  0  0  0  0  0  0  0  0
   36.7140   28.3830   32.7290 C   0  0  0  0  0  0  0  0  0  0  0  0
   36.7780   29.0410   31.5600 N   0  0  0  0  0  0  0  0  0  0  0  0
   36.2920   30.7580   30.4910 H   0  0  0  0  0  0  0  0  0  0  0  0
   35.1400   31.8230   32.4250 H   0  0  0  0  0  0  0  0  0  0  0  0
   34.8730   30.7020   34.9010 C   0  0  0  0  0  0  0  0  0  0  0  0
   33.5640   30.3380   35.1410 C   0  0  0  0  0  0  0  0  0  0  0  0
   33.0060   29.6870   34.4890 H   0  0  0  0  0  0  0  0  0  0  0  0
   32.8550   30.7890   36.2590 C   0  0  0  0  0  3  0  0  0  0  0  0
   33.4580   31.6290   37.1710 C   0  0  0  0  0  0  0  0  0  0  0  0
   32.9150   31.9780   38.0330 H   0  0  0  0  0  0  0  0  0  0  0  0
   34.7740   31.9810   36.9070 C   0  0  0  0  0  0  0  0  0  0  0  0
   35.2310   32.6390   37.6320 H   0  0  0  0  0  0  0  0  0  0  0  0
   35.4710   31.5390   35.8120 C   0  0  0  0  0  3  0  0  0  0  0  0
  1  5  1  0  0  0  0
  1 22  1  0  0  0  0
  2  1  2  0  0  0  0
  3  2  1  0  0  0  0
  3  4  2  0  0  0  0
  4  5  1  0  0  0  0
  6  2  1  0  0  0  0
  7  3  1  0  0  0  0
  8  9  1  0  0  0  0
  9  4  1  0  0  0  0
  9 10  2  0  0  0  0
 10 18  1  0  0  0  0
 11 10  1  0  0  0  0
 11 12  1  0  0  0  0
 12 19  1  0  0  0  0
 13 12  1  0  0  0  0
 14 13  2  0  0  0  0
 15 14  1  0  0  0  0
 15 11  2  0  0  0  0
 16  8  2  0  0  0  0
 16 15  1  0  0  0  0
 17  8  1  0  0  0  0
 20 14  1  0  0  0  0
 21 16  1  0  0  0  0
 22 23  2  0  0  0  0
 24 29  2  0  0  0  0
 24 25  1  0  0  0  0
 25 26  2  0  0  0  0
 26 27  1  0  0  0  0
 26 32  1  0  0  0  0
 28 22  1  0  0  0  0
 28 27  2  0  0  0  0
 29 28  1  0  0  0  0
 30 24  1  0  0  0  0
 31 25  1  0  0  0  0
 32 33  2  0  0  0  0
 32 40  1  0  0  0  0
 33 35  1  0  0  0  0
 34 33  1  0  0  0  0
 35 36  2  0  0  0  0
 36 37  1  0  0  0  0
 38 36  1  0  0  0  0
 38 39  1  0  0  0  0
 40 38  2  0  0  0  0
M  END
>  <minimizedAffinity>
-6.9244175

$$$$

 OpenBabel03272508503D

 40 44  0  0  0  0  0  0  0  0999 V2000
   37.0700   27.3460   32.9450 C   0  0  0  0  0  0  0  0  0  0  0  0
   36.9030   28.1780   31.8430 C   0  0  0  0  0  0  0  0  0  0  0  0
   36.1030   29.2070   32.3350 C   0  0  0  0  0  0  0  0  0  0  0  0
   35.8290   28.9660   33.6620 C   0  0  0  0  0  0  0  0  0  0  0  0
   36.4270   27.8450   33.9830 O   0  0  0  0  0  0  0  0  0  0  0  0
   37.2990   28.0440   30.8630 H   0  0  0  0  0  0  0  0  0  0  0  0
   35.7700   30.0500   31.7270 H   0  0  0  0  0  0  0  0  0  0  0  0
   33.6770   29.5580   34.6740 C   0  0  0  0  0  0  0  0  0  0  0  0
   35.0280   29.7910   34.5560 C   0  0  0  0  0  0  0  0  0  0  0  0
   35.6530   30.8000   35.2730 C   0  0  0  0  0  0  0  0  0  0  0  0
   34.9320   31.6160   36.1400 C   0  0  0  0  0  0  0  0  0  0  0  0
   35.2230   32.6440   36.9510 N   0  0  0  0  0  0  0  0  0  0  0  0
   34.0840   33.0140   37.5350 N   0  0  0  0  0  0  0  0  0  0  0  0
   33.0660   32.2400   37.1120 C   0  0  0  0  0  0  0  0  0  0  0  0
   33.5870   31.3270   36.2070 C   0  0  0  0  0  0  0  0  0  0  0  0
   32.8990   30.3430   35.5270 C   0  0  0  0  0  0  0  0  0  0  0  0
   33.2110   28.7640   34.1040 H   0  0  0  0  0  0  0  0  0  0  0  0
   36.7280   30.9760   35.1720 H   0  0  0  0  0  0  0  0  0  0  0  0
   36.2010   32.9990   37.0270 H   0  0  0  0  0  0  0  0  0  0  0  0
   32.0330   32.3570   37.4540 H   0  0  0  0  0  0  0  0  0  0  0  0
   31.8470   30.2020   35.6530 H   0  0  0  0  0  0  0  0  0  0  0  0
   37.8430   26.1190   32.9240 C   0  0  0  0  0  0  0  0  0  0  0  0
   37.3510   25.1240   32.3610 O   0  0  0  0  0  0  0  0  0  0  0  0
   41.1990   27.1280   33.9250 C   0  0  0  0  0  0  0  0  0  0  0  0
   41.6320   26.0670   34.6950 C   0  0  0  0  0  0  0  0  0  0  0  0
   40.7960   24.9980   34.8840 C   0  0  0  0  0  0  0  0  0  0  0  0
   39.5820   25.0220   34.3140 N   0  0  0  0  0  0  0  0  0  0  0  0
   39.1650   26.0790   33.5540 C   0  0  0  0  0  0  0  0  0  0  0  0
   39.9880   27.1260   33.3690 N   0  0  0  0  0  0  0  0  0  0  0  0
   41.8410   27.9840   33.7610 H   0  0  0  0  0  0  0  0  0  0  0  0
   42.6110   26.0630   35.1470 H   0  0  0  0  0  0  0  0  0  0  0  0
   41.1410   23.8240   35.6750 C   0  0  0  0  0  0  0  0  0  0  0  0
   40.1400   23.2160   36.4020 C   0  0  0  0  0  0  0  0  0  0  0  0
   39.1210   23.5680   36.4110 H   0  0  0  0  0  0  0  0  0  0  0  0
   40.3690   22.0830   37.1910 C   0  0  0  0  0  3  0  0  0  0  0  0
   41.6310   21.5340   37.2650 C   0  0  0  0  0  0  0  0  0  0  0  0
   41.8120   20.6620   37.8720 H   0  0  0  0  0  0  0  0  0  0  0  0
   42.6210   22.1640   36.5250 C   0  0  0  0  0  0  0  0  0  0  0  0
   43.6040   21.7200   36.5940 H   0  0  0  0  0  0  0  0  0  0  0  0
   42.3980   23.2730   35.7510 C   0  0  0  0  0  3  0  0  0  0  0  0
  1  5  1  0  0  0  0
  2  3  1  0  0  0  0
  2  1  2  0  0  0  0
  3  4  2  0  0  0  0
  4  5  1  0  0  0  0
  4  9  1  0  0  0  0
  6  2  1  0  0  0  0
  7  3  1  0  0  0  0
  8 16  1  0  0  0  0
  9  8  2  0  0  0  0
  9 10  1  0  0  0  0
 10 11  2  0  0  0  0
 11 15  1  0  0  0  0
 11 12  1  0  0  0  0
 12 19  1  0  0  0  0
 12 13  1  0  0  0  0
 14 20  1  0  0  0  0
 14 13  2  0  0  0  0
 15 14  1  0  0  0  0
 16 21  1  0  0  0  0
 16 15  2  0  0  0  0
 17  8  1  0  0  0  0
 18 10  1  0  0  0  0
 22  1  1  0  0  0  0
 22 28  1  0  0  0  0
 23 22  2  0  0  0  0
 24 25  1  0  0  0  0
 25 26  2  0  0  0  0
 25 31  1  0  0  0  0
 26 32  1  0  0  0  0
 27 26  1  0  0  0  0
 28 27  2  0  0  0  0
 29 28  1  0  0  0  0
 29 24  2  0  0  0  0
 30 24  1  0  0  0  0
 32 40  2  0  0  0  0
 32 33  1  0  0  0  0
 33 34  1  0  0  0  0
 33 35  2  0  0  0  0
 35 36  1  0  0  0  0
 36 37  1  0  0  0  0
 38 39  1  0  0  0  0
 38 36  2  0  0  0  0
 40 38  1  0  0  0  0
M  END
>  <minimizedAffinity>
-6.75421143

$$$$

 OpenBabel03272508503D

 40 44  0  0  0  0  0  0  0  0999 V2000
   38.1530   26.1770   33.7280 C   0  0  0  0  0  0  0  0  0  0  0  0
   39.1250   27.1080   34.0790 C   0  0  0  0  0  0  0  0  0  0  0  0
   40.0230   26.3620   34.8410 C   0  0  0  0  0  0  0  0  0  0  0  0
   39.5760   25.0630   34.9160 C   0  0  0  0  0  0  0  0  0  0  0  0
   38.4570   24.9990   34.2370 O   0  0  0  0  0  0  0  0  0  0  0  0
   39.1590   28.1410   33.8210 H   0  0  0  0  0  0  0  0  0  0  0  0
   40.9250   26.7850   35.2870 H   0  0  0  0  0  0  0  0  0  0  0  0
   39.6270   23.4280   36.7400 C   0  0  0  0  0  0  0  0  0  0  0  0
   40.2150   23.9550   35.6140 C   0  0  0  0  0  0  0  0  0  0  0  0
   41.4100   23.4550   35.1190 C   0  0  0  0  0  0  0  0  0  0  0  0
   42.0600   22.3970   35.7500 C   0  0  0  0  0  0  0  0  0  0  0  0
   43.1870   21.7030   35.5370 N   0  0  0  0  0  0  0  0  0  0  0  0
   43.2720   20.7910   36.5050 N   0  0  0  0  0  0  0  0  0  0  0  0
   42.2160   20.8880   37.3350 C   0  0  0  0  0  0  0  0  0  0  0  0
   41.4160   21.9210   36.8700 C   0  0  0  0  0  0  0  0  0  0  0  0
   40.2290   22.3660   37.4180 C   0  0  0  0  0  0  0  0  0  0  0  0
   38.6930   23.8360   37.1070 H   0  0  0  0  0  0  0  0  0  0  0  0
   41.8680   23.8820   34.2220 H   0  0  0  0  0  0  0  0  0  0  0  0
   43.8040   21.9300   34.7270 H   0  0  0  0  0  0  0  0  0  0  0  0
   42.0690   20.2410   38.2070 H   0  0  0  0  0  0  0  0  0  0  0  0
   39.8140   21.9220   38.2970 H   0  0  0  0  0  0  0  0  0  0  0  0
   36.9890   26.4880   32.9200 C   0  0  0  0  0  0  0  0  0  0  0  0
   36.3870   25.5480   32.3710 O   0  0  0  0  0  0  0  0  0  0  0  0
   36.3940   29.7540   31.4160 C   0  0  0  0  0  0  0  0  0  0  0  0
   35.7770   30.4610   32.4280 C   0  0  0  0  0  0  0  0  0  0  0  0
   35.5550   29.8430   33.6310 C   0  0  0  0  0  0  0  0  0  0  0  0
   35.9460   28.5680   33.7820 N   0  0  0  0  0  0  0  0  0  0  0  0
   36.5560   27.8800   32.7700 C   0  0  0  0  0  0  0  0  0  0  0  0
   36.7730   28.4880   31.5920 N   0  0  0  0  0  0  0  0  0  0  0  0
   36.5800   30.2200   30.4570 H   0  0  0  0  0  0  0  0  0  0  0  0
   35.4690   31.4850   32.2910 H   0  0  0  0  0  0  0  0  0  0  0  0
   34.9140   30.4850   34.7710 C   0  0  0  0  0  0  0  0  0  0  0  0
   35.6910   31.2800   35.5880 C   0  0  0  0  0  0  0  0  0  0  0  0
   36.7430   31.4450   35.4210 H   0  0  0  0  0  0  0  0  0  0  0  0
   35.1700   31.9390   36.7070 C   0  0  0  0  0  3  0  0  0  0  0  0
   33.8350   31.8090   37.0290 C   0  0  0  0  0  0  0  0  0  0  0  0
   33.4300   32.3150   37.8890 H   0  0  0  0  0  0  0  0  0  0  0  0
   33.0760   31.0050   36.1920 C   0  0  0  0  0  0  0  0  0  0  0  0
   32.0330   30.9140   36.4590 H   0  0  0  0  0  0  0  0  0  0  0  0
   33.5850   30.3580   35.0960 C   0  0  0  0  0  3  0  0  0  0  0  0
  1  2  2  0  0  0  0
  1  5  1  0  0  0  0
  2  3  1  0  0  0  0
  3  4  2  0  0  0  0
  3  7  1  0  0  0  0
  4  9  1  0  0  0  0
  5  4  1  0  0  0  0
  6  2  1  0  0  0  0
  8 17  1  0  0  0  0
  8 16  1  0  0  0  0
  9  8  2  0  0  0  0
 10  9  1  0  0  0  0
 10 11  2  0  0  0  0
 11 15  1  0  0  0  0
 12 11  1  0  0  0  0
 12 13  1  0  0  0  0
 13 14  2  0  0  0  0
 14 20  1  0  0  0  0
 15 14  1  0  0  0  0
 15 16  2  0  0  0  0
 16 21  1  0  0  0  0
 18 10  1  0  0  0  0
 19 12  1  0  0  0  0
 22  1  1  0  0  0  0
 23 22  2  0  0  0  0
 24 29  2  0  0  0  0
 24 25  1  0  0  0  0
 25 26  2  0  0  0  0
 26 27  1  0  0  0  0
 26 32  1  0  0  0  0
 28 22  1  0  0  0  0
 28 27  2  0  0  0  0
 29 28  1  0  0  0  0
 30 24  1  0  0  0  0
 31 25  1  0  0  0  0
 32 40  2  0  0  0  0
 32 33  1  0  0  0  0
 33 35  2  0  0  0  0
 34 33  1  0  0  0  0
 35 36  1  0  0  0  0
 36 37  1  0  0  0  0
 38 39  1  0  0  0  0
 38 36  2  0  0  0  0
 40 38  1  0  0  0  0
M  END
>  <minimizedAffinity>
-6.74869919

$$$$

 OpenBabel03272508503D

 40 44  0  0  0  0  0  0  0  0999 V2000
   36.4040   25.7450   31.8320 C   0  0  0  0  0  0  0  0  0  0  0  0
   35.1850   25.8280   31.1690 C   0  0  0  0  0  0  0  0  0  0  0  0
   34.8560   24.4950   30.9340 C   0  0  0  0  0  0  0  0  0  0  0  0
   35.8500   23.6910   31.4440 C   0  0  0  0  0  0  0  0  0  0  0  0
   36.7530   24.4800   31.9710 O   0  0  0  0  0  0  0  0  0  0  0  0
   34.6460   26.7090   30.9100 H   0  0  0  0  0  0  0  0  0  0  0  0
   33.9430   24.1840   30.4220 H   0  0  0  0  0  0  0  0  0  0  0  0
   34.8950   21.5030   31.9960 C   0  0  0  0  0  0  0  0  0  0  0  0
   35.9030   22.2350   31.4130 C   0  0  0  0  0  0  0  0  0  0  0  0
   36.9770   21.6190   30.7890 C   0  0  0  0  0  0  0  0  0  0  0  0
   37.0730   20.2310   30.7320 C   0  0  0  0  0  0  0  0  0  0  0  0
   37.9500   19.3530   30.2240 N   0  0  0  0  0  0  0  0  0  0  0  0
   37.4820   18.1350   30.4940 N   0  0  0  0  0  0  0  0  0  0  0  0
   36.3190   18.2180   31.1670 C   0  0  0  0  0  0  0  0  0  0  0  0
   36.0310   19.5640   31.3360 C   0  0  0  0  0  0  0  0  0  0  0  0
   34.9340   20.1080   31.9720 C   0  0  0  0  0  0  0  0  0  0  0  0
   34.0660   22.0070   32.4760 H   0  0  0  0  0  0  0  0  0  0  0  0
   37.7730   22.2120   30.3280 H   0  0  0  0  0  0  0  0  0  0  0  0
   38.8050   19.6850   29.7270 H   0  0  0  0  0  0  0  0  0  0  0  0
   35.7470   17.3440   31.4980 H   0  0  0  0  0  0  0  0  0  0  0  0
   34.1770   19.4940   32.4110 H   0  0  0  0  0  0  0  0  0  0  0  0
   37.1570   26.8970   32.2910 C   0  0  0  0  0  0  0  0  0  0  0  0
   36.8120   28.0230   31.8870 O   0  0  0  0  0  0  0  0  0  0  0  0
   40.4730   27.2410   33.7610 C   0  0  0  0  0  0  0  0  0  0  0  0
   40.4180   26.4150   34.8650 C   0  0  0  0  0  0  0  0  0  0  0  0
   39.2600   25.7300   35.1260 C   0  0  0  0  0  0  0  0  0  0  0  0
   38.2170   25.8900   34.2960 N   0  0  0  0  0  0  0  0  0  0  0  0
   38.2860   26.7130   33.2060 C   0  0  0  0  0  0  0  0  0  0  0  0
   39.4230   27.3820   32.9530 N   0  0  0  0  0  0  0  0  0  0  0  0
   41.3770   27.7930   33.5340 H   0  0  0  0  0  0  0  0  0  0  0  0
   41.2650   26.2970   35.5220 H   0  0  0  0  0  0  0  0  0  0  0  0
   39.0820   24.8310   36.2580 C   0  0  0  0  0  0  0  0  0  0  0  0
   38.1850   25.1950   37.2400 C   0  0  0  0  0  0  0  0  0  0  0  0
   37.6150   26.1090   37.2060 H   0  0  0  0  0  0  0  0  0  0  0  0
   37.9430   24.4000   38.3660 C   0  0  0  0  0  3  0  0  0  0  0  0
   38.6110   23.2050   38.5270 C   0  0  0  0  0  0  0  0  0  0  0  0
   38.4270   22.5900   39.3920 H   0  0  0  0  0  0  0  0  0  0  0  0
   39.5080   22.8610   37.5260 C   0  0  0  0  0  0  0  0  0  0  0  0
   40.0210   21.9210   37.6680 H   0  0  0  0  0  0  0  0  0  0  0  0
   39.7450   23.6380   36.4220 C   0  0  0  0  0  3  0  0  0  0  0  0
  1  5  1  0  0  0  0
  1 22  1  0  0  0  0
  2  1  2  0  0  0  0
  3  2  1  0  0  0  0
  3  4  2  0  0  0  0
  4  5  1  0  0  0  0
  6  2  1  0  0  0  0
  7  3  1  0  0  0  0
  8 17  1  0  0  0  0
  9  4  1  0  0  0  0
  9  8  2  0  0  0  0
 10  9  1  0  0  0  0
 11 10  2  0  0  0  0
 11 15  1  0  0  0  0
 12 13  1  0  0  0  0
 12 11  1  0  0  0  0
 13 14  2  0  0  0  0
 14 15  1  0  0  0  0
 14 20  1  0  0  0  0
 15 16  2  0  0  0  0
 16  8  1  0  0  0  0
 16 21  1  0  0  0  0
 18 10  1  0  0  0  0
 19 12  1  0  0  0  0
 22 28  1  0  0  0  0
 23 22  2  0  0  0  0
 24 25  1  0  0  0  0
 25 26  2  0  0  0  0
 25 31  1  0  0  0  0
 26 32  1  0  0  0  0
 27 26  1  0  0  0  0
 28 27  2  0  0  0  0
 29 28  1  0  0  0  0
 29 24  2  0  0  0  0
 30 24  1  0  0  0  0
 32 40  2  0  0  0  0
 32 33  1  0  0  0  0
 33 35  2  0  0  0  0
 34 33  1  0  0  0  0
 35 36  1  0  0  0  0
 36 37  1  0  0  0  0
 38 39  1  0  0  0  0
 38 36  2  0  0  0  0
 40 38  1  0  0  0  0
M  END
>  <minimizedAffinity>
-6.70016336

$$$$

 OpenBabel03272508503D

 40 44  0  0  0  0  0  0  0  0999 V2000
   37.3390   27.6640   32.5010 C   0  0  0  0  0  0  0  0  0  0  0  0
   36.6530   28.1610   31.3990 C   0  0  0  0  0  0  0  0  0  0  0  0
   35.7010   29.0050   31.9670 C   0  0  0  0  0  0  0  0  0  0  0  0
   35.8440   28.9850   33.3360 C   0  0  0  0  0  0  0  0  0  0  0  0
   36.8350   28.1720   33.6090 O   0  0  0  0  0  0  0  0  0  0  0  0
   36.8270   27.9390   30.3710 H   0  0  0  0  0  0  0  0  0  0  0  0
   34.9760   29.5720   31.3800 H   0  0  0  0  0  0  0  0  0  0  0  0
   33.7160   29.4400   34.4600 C   0  0  0  0  0  0  0  0  0  0  0  0
   35.0530   29.7240   34.3100 C   0  0  0  0  0  0  0  0  0  0  0  0
   35.6750   30.7020   35.0720 C   0  0  0  0  0  0  0  0  0  0  0  0
   34.9630   31.4360   36.0170 C   0  0  0  0  0  0  0  0  0  0  0  0
   35.2530   32.4160   36.8840 N   0  0  0  0  0  0  0  0  0  0  0  0
   34.1260   32.7100   37.5310 N   0  0  0  0  0  0  0  0  0  0  0  0
   33.1170   31.9330   37.0930 C   0  0  0  0  0  0  0  0  0  0  0  0
   33.6310   31.1000   36.1110 C   0  0  0  0  0  0  0  0  0  0  0  0
   32.9470   30.1410   35.3910 C   0  0  0  0  0  0  0  0  0  0  0  0
   33.2520   28.6710   33.8550 H   0  0  0  0  0  0  0  0  0  0  0  0
   36.7400   30.9190   34.9440 H   0  0  0  0  0  0  0  0  0  0  0  0
   36.2220   32.7970   36.9490 H   0  0  0  0  0  0  0  0  0  0  0  0
   32.0940   31.9950   37.4790 H   0  0  0  0  0  0  0  0  0  0  0  0
   31.9050   29.9590   35.5450 H   0  0  0  0  0  0  0  0  0  0  0  0
   38.4440   26.7270   32.4120 C   0  0  0  0  0  0  0  0  0  0  0  0
   39.4250   27.0400   31.7140 O   0  0  0  0  0  0  0  0  0  0  0  0
   39.0740   24.1870   34.9480 C   0  0  0  0  0  0  0  0  0  0  0  0
   38.3080   23.1200   34.5250 C   0  0  0  0  0  0  0  0  0  0  0  0
   37.5690   23.2450   33.3770 C   0  0  0  0  0  0  0  0  0  0  0  0
   37.6170   24.4060   32.7050 N   0  0  0  0  0  0  0  0  0  0  0  0
   38.3810   25.4550   33.1360 C   0  0  0  0  0  0  0  0  0  0  0  0
   39.1040   25.3290   34.2610 N   0  0  0  0  0  0  0  0  0  0  0  0
   39.6660   24.1120   35.8510 H   0  0  0  0  0  0  0  0  0  0  0  0
   38.2800   22.1940   35.0760 H   0  0  0  0  0  0  0  0  0  0  0  0
   36.7240   22.1910   32.8320 C   0  0  0  0  0  0  0  0  0  0  0  0
   36.3710   21.1490   33.6640 C   0  0  0  0  0  0  0  0  0  0  0  0
   36.6910   21.0820   34.6920 H   0  0  0  0  0  0  0  0  0  0  0  0
   35.5640   20.0900   33.2370 C   0  0  0  0  0  3  0  0  0  0  0  0
   35.0890   20.0580   31.9430 C   0  0  0  0  0  0  0  0  0  0  0  0
   34.4680   19.2450   31.6090 H   0  0  0  0  0  0  0  0  0  0  0  0
   35.4590   21.1170   31.1260 C   0  0  0  0  0  0  0  0  0  0  0  0
   35.0780   21.0760   30.1150 H   0  0  0  0  0  0  0  0  0  0  0  0
   36.2490   22.1560   31.5430 C   0  0  0  0  0  3  0  0  0  0  0  0
  1  5  1  0  0  0  0
  2  3  1  0  0  0  0
  2  1  2  0  0  0  0
  3  4  2  0  0  0  0
  4  5  1  0  0  0  0
  4  9  1  0  0  0  0
  6  2  1  0  0  0  0
  7  3  1  0  0  0  0
  8 16  1  0  0  0  0
  9  8  2  0  0  0  0
  9 10  1  0  0  0  0
 10 11  2  0  0  0  0
 11 15  1  0  0  0  0
 11 12  1  0  0  0  0
 12 19  1  0  0  0  0
 12 13  1  0  0  0  0
 14 20  1  0  0  0  0
 14 13  2  0  0  0  0
 15 14  1  0  0  0  0
 16 21  1  0  0  0  0
 16 15  2  0  0  0  0
 17  8  1  0  0  0  0
 18 10  1  0  0  0  0
 22  1  1  0  0  0  0
 22 28  1  0  0  0  0
 23 22  2  0  0  0  0
 24 30  1  0  0  0  0
 25 24  1  0  0  0  0
 25 31  1  0  0  0  0
 26 25  2  0  0  0  0
 27 28  2  0  0  0  0
 27 26  1  0  0  0  0
 28 29  1  0  0  0  0
 29 24  2  0  0  0  0
 32 26  1  0  0  0  0
 32 33  1  0  0  0  0
 33 34  1  0  0  0  0
 35 33  2  0  0  0  0
 36 35  1  0  0  0  0
 37 36  1  0  0  0  0
 38 40  1  0  0  0  0
 38 36  2  0  0  0  0
 39 38  1  0  0  0  0
 40 32  2  0  0  0  0
M  END
>  <minimizedAffinity>
-6.68641472

$$$$

 OpenBabel03272508503D

 40 44  0  0  0  0  0  0  0  0999 V2000
   37.2780   27.5060   33.2880 C   0  0  0  0  0  0  0  0  0  0  0  0
   36.9720   28.1500   32.0940 C   0  0  0  0  0  0  0  0  0  0  0  0
   36.0620   29.1320   32.4830 C   0  0  0  0  0  0  0  0  0  0  0  0
   35.8630   29.0440   33.8420 C   0  0  0  0  0  0  0  0  0  0  0  0
   36.6090   28.0610   34.2800 O   0  0  0  0  0  0  0  0  0  0  0  0
   37.3500   27.9320   31.1230 H   0  0  0  0  0  0  0  0  0  0  0  0
   35.6050   29.8360   31.7850 H   0  0  0  0  0  0  0  0  0  0  0  0
   33.6260   29.7420   34.5590 C   0  0  0  0  0  0  0  0  0  0  0  0
   34.9910   29.8810   34.6560 C   0  0  0  0  0  0  0  0  0  0  0  0
   35.5650   30.8050   35.5170 C   0  0  0  0  0  0  0  0  0  0  0  0
   34.7750   31.6280   36.3150 C   0  0  0  0  0  0  0  0  0  0  0  0
   35.0050   32.5900   37.2200 N   0  0  0  0  0  0  0  0  0  0  0  0
   33.8170   33.0130   37.6510 N   0  0  0  0  0  0  0  0  0  0  0  0
   32.8270   32.3370   37.0360 C   0  0  0  0  0  0  0  0  0  0  0  0
   33.4200   31.4340   36.1660 C   0  0  0  0  0  0  0  0  0  0  0  0
   32.7800   30.5370   35.3330 C   0  0  0  0  0  0  0  0  0  0  0  0
   33.2010   29.0130   33.8800 H   0  0  0  0  0  0  0  0  0  0  0  0
   36.6520   30.9070   35.5860 H   0  0  0  0  0  0  0  0  0  0  0  0
   35.9820   32.8690   37.4600 H   0  0  0  0  0  0  0  0  0  0  0  0
   31.7640   32.5120   37.2290 H   0  0  0  0  0  0  0  0  0  0  0  0
   31.7140   30.4680   35.2950 H   0  0  0  0  0  0  0  0  0  0  0  0
   38.2010   26.3920   33.3930 C   0  0  0  0  0  0  0  0  0  0  0  0
   39.0240   26.3970   34.3260 O   0  0  0  0  0  0  0  0  0  0  0  0
   38.8140   24.4710   30.3580 C   0  0  0  0  0  0  0  0  0  0  0  0
   38.0790   23.3190   30.5580 C   0  0  0  0  0  0  0  0  0  0  0  0
   37.3670   23.1790   31.7200 C   0  0  0  0  0  0  0  0  0  0  0  0
   37.4110   24.1680   32.6250 N   0  0  0  0  0  0  0  0  0  0  0  0
   38.1440   25.3030   32.4140 C   0  0  0  0  0  0  0  0  0  0  0  0
   38.8400   25.4380   31.2730 N   0  0  0  0  0  0  0  0  0  0  0  0
   39.3850   24.6050   29.4470 H   0  0  0  0  0  0  0  0  0  0  0  0
   38.0540   22.5330   29.8200 H   0  0  0  0  0  0  0  0  0  0  0  0
   36.5560   22.0120   32.0430 C   0  0  0  0  0  0  0  0  0  0  0  0
   36.5310   21.5840   33.3540 C   0  0  0  0  0  0  0  0  0  0  0  0
   37.0800   22.0720   34.1430 H   0  0  0  0  0  0  0  0  0  0  0  0
   35.7840   20.4750   33.7660 C   0  0  0  0  0  3  0  0  0  0  0  0
   35.0370   19.7640   32.8500 C   0  0  0  0  0  0  0  0  0  0  0  0
   34.4610   18.9100   33.1630 H   0  0  0  0  0  0  0  0  0  0  0  0
   35.0790   20.2140   31.5390 C   0  0  0  0  0  0  0  0  0  0  0  0
   34.4880   19.6450   30.8360 H   0  0  0  0  0  0  0  0  0  0  0  0
   35.8110   21.3010   31.1340 C   0  0  0  0  0  3  0  0  0  0  0  0
  1 22  1  0  0  0  0
  1  5  1  0  0  0  0
  2  3  1  0  0  0  0
  2  1  2  0  0  0  0
  3  4  2  0  0  0  0
  4  5  1  0  0  0  0
  4  9  1  0  0  0  0
  6  2  1  0  0  0  0
  7  3  1  0  0  0  0
  8  9  2  0  0  0  0
  8 16  1  0  0  0  0
  9 10  1  0  0  0  0
 10 18  1  0  0  0  0
 10 11  2  0  0  0  0
 11 12  1  0  0  0  0
 12 19  1  0  0  0  0
 12 13  1  0  0  0  0
 14 20  1  0  0  0  0
 14 13  2  0  0  0  0
 15 11  1  0  0  0  0
 15 14  1  0  0  0  0
 16 15  2  0  0  0  0
 17  8  1  0  0  0  0
 21 16  1  0  0  0  0
 22 23  2  0  0  0  0
 24 25  2  0  0  0  0
 24 29  1  0  0  0  0
 25 26  1  0  0  0  0
 26 32  1  0  0  0  0
 26 27  2  0  0  0  0
 28 27  1  0  0  0  0
 28 22  1  0  0  0  0
 29 28  2  0  0  0  0
 30 24  1  0  0  0  0
 31 25  1  0  0  0  0
 32 33  1  0  0  0  0
 33 35  2  0  0  0  0
 33 34  1  0  0  0  0
 36 37  1  0  0  0  0
 36 35  1  0  0  0  0
 38 36  2  0  0  0  0
 39 38  1  0  0  0  0
 40 38  1  0  0  0  0
 40 32  2  0  0  0  0
M  END
>  <minimizedAffinity>
-6.64296103

$$$$

 OpenBabel03272508503D

 40 44  0  0  0  0  0  0  0  0999 V2000
   37.5990   27.4680   33.7760 C   0  0  0  0  0  0  0  0  0  0  0  0
   36.9410   27.5680   32.5560 C   0  0  0  0  0  0  0  0  0  0  0  0
   35.9050   28.4610   32.8220 C   0  0  0  0  0  0  0  0  0  0  0  0
   35.9770   28.8500   34.1410 C   0  0  0  0  0  0  0  0  0  0  0  0
   37.0040   28.2330   34.6710 O   0  0  0  0  0  0  0  0  0  0  0  0
   37.1830   27.0720   31.6450 H   0  0  0  0  0  0  0  0  0  0  0  0
   35.1760   28.7740   32.0730 H   0  0  0  0  0  0  0  0  0  0  0  0
   33.7300   29.7020   34.6190 C   0  0  0  0  0  0  0  0  0  0  0  0
   35.0870   29.7740   34.8320 C   0  0  0  0  0  0  0  0  0  0  0  0
   35.6360   30.7100   35.6950 C   0  0  0  0  0  0  0  0  0  0  0  0
   34.8280   31.6150   36.3790 C   0  0  0  0  0  0  0  0  0  0  0  0
   35.0340   32.6100   37.2540 N   0  0  0  0  0  0  0  0  0  0  0  0
   33.8400   33.1180   37.5550 N   0  0  0  0  0  0  0  0  0  0  0  0
   32.8700   32.4640   36.8870 C   0  0  0  0  0  0  0  0  0  0  0  0
   33.4830   31.4860   36.1180 C   0  0  0  0  0  0  0  0  0  0  0  0
   32.8670   30.5820   35.2760 C   0  0  0  0  0  0  0  0  0  0  0  0
   33.3250   28.9620   33.9410 H   0  0  0  0  0  0  0  0  0  0  0  0
   36.7170   30.7580   35.8560 H   0  0  0  0  0  0  0  0  0  0  0  0
   36.0010   32.8490   37.5670 H   0  0  0  0  0  0  0  0  0  0  0  0
   31.8060   32.7050   36.9750 H   0  0  0  0  0  0  0  0  0  0  0  0
   31.8060   30.5670   35.1450 H   0  0  0  0  0  0  0  0  0  0  0  0
   38.7680   26.6370   34.0000 C   0  0  0  0  0  0  0  0  0  0  0  0
   39.7760   26.8400   33.2990 O   0  0  0  0  0  0  0  0  0  0  0  0
   37.5520   24.5360   36.7170 C   0  0  0  0  0  0  0  0  0  0  0  0
   38.6130   23.6850   36.9590 C   0  0  0  0  0  0  0  0  0  0  0  0
   39.7520   23.8130   36.2080 C   0  0  0  0  0  0  0  0  0  0  0  0
   39.7940   24.7610   35.2600 N   0  0  0  0  0  0  0  0  0  0  0  0
   38.7360   25.5960   35.0310 C   0  0  0  0  0  0  0  0  0  0  0  0
   37.6210   25.4700   35.7690 N   0  0  0  0  0  0  0  0  0  0  0  0
   36.6420   24.4540   37.2980 H   0  0  0  0  0  0  0  0  0  0  0  0
   38.5630   22.9280   37.7250 H   0  0  0  0  0  0  0  0  0  0  0  0
   40.9330   22.9760   36.3700 C   0  0  0  0  0  0  0  0  0  0  0  0
   42.1030   23.3820   35.7630 C   0  0  0  0  0  0  0  0  0  0  0  0
   42.1800   24.2840   35.1790 H   0  0  0  0  0  0  0  0  0  0  0  0
   43.2900   22.6490   35.8590 C   0  0  0  0  0  3  0  0  0  0  0  0
   43.3230   21.4730   36.5800 C   0  0  0  0  0  0  0  0  0  0  0  0
   44.2350   20.9060   36.6560 H   0  0  0  0  0  0  0  0  0  0  0  0
   42.1340   21.0860   37.1800 C   0  0  0  0  0  0  0  0  0  0  0  0
   42.1780   20.1640   37.7400 H   0  0  0  0  0  0  0  0  0  0  0  0
   40.9700   21.8040   37.0870 C   0  0  0  0  0  3  0  0  0  0  0  0
  1 22  1  0  0  0  0
  1  5  1  0  0  0  0
  2  3  1  0  0  0  0
  2  1  2  0  0  0  0
  3  4  2  0  0  0  0
  4  5  1  0  0  0  0
  4  9  1  0  0  0  0
  6  2  1  0  0  0  0
  7  3  1  0  0  0  0
  8  9  2  0  0  0  0
  8 16  1  0  0  0  0
  9 10  1  0  0  0  0
 10 18  1  0  0  0  0
 10 11  2  0  0  0  0
 11 12  1  0  0  0  0
 12 13  1  0  0  0  0
 12 19  1  0  0  0  0
 14 20  1  0  0  0  0
 14 13  2  0  0  0  0
 15 11  1  0  0  0  0
 15 14  1  0  0  0  0
 16 15  2  0  0  0  0
 17  8  1  0  0  0  0
 21 16  1  0  0  0  0
 22 28  1  0  0  0  0
 23 22  2  0  0  0  0
 24 25  1  0  0  0  0
 24 30  1  0  0  0  0
 25 31  1  0  0  0  0
 26 32  1  0  0  0  0
 26 25  2  0  0  0  0
 27 26  1  0  0  0  0
 28 27  2  0  0  0  0
 28 29  1  0  0  0  0
 29 24  2  0  0  0  0
 32 40  1  0  0  0  0
 33 35  1  0  0  0  0
 33 32  2  0  0  0  0
 34 33  1  0  0  0  0
 35 36  2  0  0  0  0
 36 37  1  0  0  0  0
 36 38  1  0  0  0  0
 38 39  1  0  0  0  0
 40 38  2  0  0  0  0
M  END
>  <minimizedAffinity>
-6.64054251

$$$$
