
 OpenBabel03272509383D

 30 32  0  0  1  0  0  0  0  0999 V2000
   37.1530   31.3250   48.4250 C   0  0  0  0  0  0  0  0  0  0  0  0
   37.0070   31.8910   49.6870 C   0  0  0  0  0  0  0  0  0  0  0  0
   37.7640   32.9740   50.1250 C   0  0  0  0  0  0  0  0  0  0  0  0
   38.7110   33.5220   49.2680 C   0  0  0  0  0  0  0  0  0  0  0  0
   38.8500   32.9490   48.0020 C   0  0  0  0  0  0  0  0  0  0  0  0
   38.0860   31.8740   47.5950 C   0  0  0  0  0  0  0  0  0  0  0  0
   36.2640   31.4690   50.3750 H   0  0  0  0  0  0  0  0  0  0  0  0
   37.5770   33.3380   51.1180 H   0  0  0  0  0  0  0  0  0  0  0  0
   39.2780   34.3530   49.6310 H   0  0  0  0  0  0  0  0  0  0  0  0
   39.6120   33.4570   47.4260 H   0  0  0  0  0  0  0  0  0  0  0  0
   38.4450   31.4370   46.2630 C   0  0  0  0  0  0  0  0  0  0  0  0
   38.0580   32.2980   45.2200 C   0  0  0  0  0  0  0  0  0  0  0  0
   37.5010   33.2170   45.4430 H   0  0  0  0  0  0  0  0  0  0  0  0
   38.3170   32.1000   43.8810 C   0  0  0  0  0  0  0  0  0  0  0  0
   39.0120   30.9710   43.5050 C   0  0  0  0  0  0  0  0  0  0  0  0
   39.2620   30.7290   42.4950 H   0  0  0  0  0  0  0  0  0  0  0  0
   39.4120   30.0980   44.4940 C   0  0  0  0  0  0  0  0  0  0  0  0
   39.9660   29.1760   44.3160 H   0  0  0  0  0  0  0  0  0  0  0  0
   39.1360   30.3310   45.8160 C   0  0  0  0  0  0  0  0  0  0  0  0
   36.3140   30.2040   48.0670 C   0  0  1  0  0  0  0  0  0  0  0  0
   36.5300   29.1520   48.7750 O   0  0  0  0  0  0  0  0  0  0  0  0
   33.0180   30.4980   46.5790 C   0  0  0  0  0  0  0  0  0  0  0  0
   33.2360   30.2580   45.2330 C   0  0  0  0  0  0  0  0  0  0  0  0
   34.5210   29.9840   44.8260 C   0  0  0  0  0  0  0  0  0  0  0  0
   35.5330   29.9570   45.7430 N   0  0  0  0  0  0  0  0  0  0  0  0
   35.3050   30.1900   47.0250 C   0  0  0  0  0  0  0  0  0  0  0  0
   34.0570   30.4500   47.3970 N   0  0  0  0  0  0  0  0  0  0  0  0
   32.0130   30.7140   46.9240 H   0  0  0  0  0  0  0  0  0  0  0  0
   32.4070   30.2930   44.5580 H   0  0  0  0  0  0  0  0  0  0  0  0
   34.7110   29.7960   43.7920 H   0  0  0  0  0  0  0  0  0  0  0  0
  1  2  1  0  0  0  0
  2  3  2  0  0  0  0
  2  7  1  0  0  0  0
  3  8  1  0  0  0  0
  4  9  1  0  0  0  0
  4  3  1  0  0  0  0
  5  4  2  0  0  0  0
  6  5  1  0  0  0  0
  6  1  2  0  0  0  0
 10  5  1  0  0  0  0
 11  6  1  0  0  0  0
 12 13  1  0  0  0  0
 12 11  2  0  0  0  0
 14 12  1  0  0  0  0
 15 14  2  0  0  0  0
 15 17  1  0  0  0  0
 16 15  1  0  0  0  0
 17 19  2  0  0  0  0
 18 17  1  0  0  0  0
 19 11  1  0  0  0  0
 20  1  1  0  0  0  0
 20 21  1  1  0  0  0
 22 28  1  0  0  0  0
 22 27  1  0  0  0  0
 23 22  2  0  0  0  0
 24 23  1  0  0  0  0
 24 25  2  0  0  0  0
 25 26  1  0  0  0  0
 26 27  2  0  0  0  0
 26 20  1  0  0  0  0
 29 23  1  0  0  0  0
 30 24  1  0  0  0  0
M  END
>  <minimizedAffinity>
-5.57471895

>  <minimizedRMSD>
2.10438871

$$$$
