
 OpenBabel03272509223D

 46 50  0  0  0  0  0  0  0  0999 V2000
   37.9780   31.2720   47.7480 C   0  0  0  0  0  0  0  0  0  0  0  0
   37.0770   31.2930   48.7950 C   0  0  0  0  0  0  0  0  0  0  0  0
   37.2150   32.3970   49.6440 C   0  0  0  0  0  0  0  0  0  0  0  0
   38.1890   33.3820   49.4340 C   0  0  0  0  0  0  0  0  0  0  0  0
   39.0570   33.2620   48.3360 C   0  0  0  0  0  0  0  0  0  0  0  0
   38.9390   32.1790   47.4820 C   0  0  0  0  0  0  0  0  0  0  0  0
   36.5460   32.5000   50.5000 H   0  0  0  0  0  0  0  0  0  0  0  0
   38.2870   34.2260   50.0920 H   0  0  0  0  0  0  0  0  0  0  0  0
   39.8040   34.0290   48.1840 H   0  0  0  0  0  0  0  0  0  0  0  0
   34.9040   30.3010   48.2630 C   0  0  0  0  0  0  0  0  0  0  0  0
   36.0870   30.2940   49.0120 C   0  0  0  0  0  0  0  0  0  0  0  0
   36.2390   29.2800   49.9650 C   0  0  0  0  0  0  0  0  0  0  0  0
   35.2400   28.3780   50.0980 N   0  0  0  0  0  0  0  0  0  0  0  0
   34.1100   28.4110   49.3570 C   0  0  0  0  0  0  0  0  0  0  0  0
   33.9490   29.3790   48.4390 N   0  0  0  0  0  0  0  0  0  0  0  0
   34.7540   31.0730   47.5160 H   0  0  0  0  0  0  0  0  0  0  0  0
   33.4620   27.5900   49.6430 H   0  0  0  0  0  0  0  0  0  0  0  0
   37.4760   29.2190   50.7960 C   0  0  0  0  0  0  0  0  0  0  0  0
   38.3810   29.0620   50.2110 H   0  0  0  0  0  0  0  0  0  0  0  0
   37.5430   30.1680   51.3860 H   0  0  0  0  0  0  0  0  0  0  0  0
   37.3360   28.4080   51.5380 H   0  0  0  0  0  0  0  0  0  0  0  0
   37.9280   30.2120   46.8400 O   0  0  0  0  0  0  0  0  0  0  0  0
   38.6940   29.5480   46.8910 H   0  0  0  0  0  0  0  0  0  0  0  0
   39.8250   32.1310   46.4290 O   0  0  0  0  0  0  0  0  0  0  0  0
   40.2070   31.2910   44.1120 C   0  0  0  0  0  0  0  0  0  0  0  0
   39.5240   31.9740   45.1010 C   0  0  0  0  0  0  0  0  0  0  0  0
   38.3350   32.6310   44.7800 C   0  0  0  0  0  0  0  0  0  0  0  0
   37.8440   32.5970   43.4660 C   0  0  0  0  0  0  0  0  0  0  0  0
   36.7620   33.1130   42.8570 N   0  0  0  0  0  0  0  0  0  0  0  0
   36.7610   32.7740   41.5520 C   0  0  0  0  0  0  0  0  0  0  0  0
   37.8820   32.0230   41.3460 N   0  0  0  0  0  0  0  0  0  0  0  0
   38.5490   31.9090   42.5120 C   0  0  0  0  0  0  0  0  0  0  0  0
   39.7220   31.2600   42.8280 C   0  0  0  0  0  0  0  0  0  0  0  0
   41.1100   30.8200   44.4660 H   0  0  0  0  0  0  0  0  0  0  0  0
   37.7050   33.1980   45.4500 H   0  0  0  0  0  0  0  0  0  0  0  0
   36.0190   33.6980   43.3270 H   0  0  0  0  0  0  0  0  0  0  0  0
   36.0370   33.0250   40.7770 H   0  0  0  0  0  0  0  0  0  0  0  0
   40.4880   30.5220   41.8260 C   0  0  0  0  0  0  0  0  0  0  0  0
   40.9950   29.2730   42.1350 C   0  0  0  0  0  0  0  0  0  0  0  0
   40.8360   28.8270   43.1040 H   0  0  0  0  0  0  0  0  0  0  0  0
   41.7030   28.6340   41.1540 C   0  0  0  0  0  0  0  0  0  0  0  0
   41.9670   29.1060   39.8800 C   0  0  0  0  0  0  0  0  0  0  0  0
   42.5370   28.5350   39.1630 H   0  0  0  0  0  0  0  0  0  0  0  0
   41.4400   30.3670   39.6100 C   0  0  0  0  0  0  0  0  0  0  0  0
   41.6260   30.7780   38.6160 H   0  0  0  0  0  0  0  0  0  0  0  0
   40.7090   31.0760   40.5620 C   0  0  0  0  0  0  0  0  0  0  0  0
  1  2  1  0  0  0  0
  2 11  1  0  0  0  0
  2  3  2  0  0  0  0
  3  7  1  0  0  0  0
  4  3  1  0  0  0  0
  4  8  1  0  0  0  0
  5  4  2  0  0  0  0
  6  1  2  0  0  0  0
  6  5  1  0  0  0  0
  9  5  1  0  0  0  0
 10 15  2  0  0  0  0
 10 11  1  0  0  0  0
 11 12  2  0  0  0  0
 12 13  1  0  0  0  0
 12 18  1  0  0  0  0
 14 17  1  0  0  0  0
 14 13  2  0  0  0  0
 15 14  1  0  0  0  0
 16 10  1  0  0  0  0
 18 20  1  0  0  0  0
 18 21  1  0  0  0  0
 19 18  1  0  0  0  0
 22 23  1  0  0  0  0
 22  1  1  0  0  0  0
 24  6  1  0  0  0  0
 25 34  1  0  0  0  0
 25 26  1  0  0  0  0
 26 24  1  0  0  0  0
 27 26  2  0  0  0  0
 27 35  1  0  0  0  0
 28 27  1  0  0  0  0
 29 36  1  0  0  0  0
 29 28  1  0  0  0  0
 30 29  1  0  0  0  0
 31 30  2  0  0  0  0
 31 32  1  0  0  0  0
 32 33  1  0  0  0  0
 32 28  2  0  0  0  0
 33 25  2  0  0  0  0
 37 30  1  0  0  0  0
 38 39  1  0  0  0  0
 38 33  1  0  0  0  0
 39 40  1  0  0  0  0
 41 39  2  0  0  0  0
 42 41  1  0  0  0  0
 43 42  1  0  0  0  0
 44 42  2  0  0  0  0
 44 46  1  0  0  0  0
 45 44  1  0  0  0  0
 46 38  2  0  0  0  0
M  END
>  <minimizedAffinity>
-7.82576799

>  <minimizedRMSD>
0.541044652

$$$$
