
 OpenBabel03272506123D

 44 47  0  0  1  0  0  0  0  0999 V2000
   35.5700   30.1850   47.3110 C   0  0  1  0  0  0  0  0  0  0  0  0
   34.5550   29.0380   47.6920 C   0  0  0  0  0  0  0  0  0  0  0  0
   34.1050   29.2010   49.1440 C   0  0  0  0  0  0  0  0  0  0  0  0
   35.2730   29.4870   50.0320 C   0  0  0  0  0  0  0  0  0  0  0  0
   36.5090   29.0220   49.3250 C   0  0  0  0  0  0  0  0  0  0  0  0
   36.7650   30.0010   48.1970 C   0  0  2  0  0  0  0  0  0  0  0  0
   35.0570   30.9590   47.7790 H   0  0  0  0  0  0  0  0  0  0  0  0
   35.0160   28.0710   47.5240 H   0  0  0  0  0  0  0  0  0  0  0  0
   33.6700   29.2120   47.0620 H   0  0  0  0  0  0  0  0  0  0  0  0
   33.5500   28.3010   49.4000 H   0  0  0  0  0  0  0  0  0  0  0  0
   33.4510   30.1010   49.1360 H   0  0  0  0  0  0  0  0  0  0  0  0
   35.1790   28.9530   50.9870 H   0  0  0  0  0  0  0  0  0  0  0  0
   35.3970   30.5750   50.2030 H   0  0  0  0  0  0  0  0  0  0  0  0
   37.3480   29.0420   50.0160 H   0  0  0  0  0  0  0  0  0  0  0  0
   36.4580   27.9870   48.9300 H   0  0  0  0  0  0  0  0  0  0  0  0
   37.6860   29.6460   47.7080 H   0  0  0  0  0  0  0  0  0  0  0  0
   34.7340   29.9600   45.0170 C   0  0  0  0  0  0  0  0  0  0  0  0
   35.0230   29.9150   43.6560 C   0  0  0  0  0  0  0  0  0  0  0  0
   36.3010   29.9270   43.1350 C   0  0  0  0  0  0  0  0  0  0  0  0
   37.3920   29.9850   44.0110 C   0  0  0  0  0  0  0  0  0  0  0  0
   37.0870   30.0300   45.3580 C   0  0  0  0  0  0  0  0  0  0  0  0
   35.8090   30.0220   45.8980 C   0  0  0  0  0  0  0  0  0  0  0  0
   34.2180   29.8710   42.9090 H   0  0  0  0  0  0  0  0  0  0  0  0
   36.4360   29.8920   42.0720 H   0  0  0  0  0  0  0  0  0  0  0  0
   38.3830   29.9930   43.5870 H   0  0  0  0  0  0  0  0  0  0  0  0
   38.0030   30.0600   45.9320 H   0  0  0  0  0  0  0  0  0  0  0  0
   32.8080   28.5290   45.4180 C   0  0  0  0  0  0  0  0  0  0  0  0
   33.3570   29.8510   45.3610 C   0  0  0  0  0  0  0  0  0  0  0  0
   32.5050   30.8770   45.6600 C   0  0  0  0  0  0  0  0  0  0  0  0
   31.2250   30.6120   45.9930 N   0  0  0  0  0  0  0  0  0  0  0  0
   30.7270   29.3300   46.0400 C   0  0  0  0  0  0  0  0  0  0  0  0
   31.5360   28.2490   45.7430 N   0  0  0  0  0  0  0  0  0  0  0  0
   33.3520   27.6190   45.2100 H   0  0  0  0  0  0  0  0  0  0  0  0
   32.6250   31.9160   45.6230 H   0  0  0  0  0  0  0  0  0  0  0  0
   29.6850   29.1290   46.3110 H   0  0  0  0  0  0  0  0  0  0  0  0
   37.2040   31.3370   48.7720 C   0  0  0  0  0  0  0  0  0  0  0  0
   36.7140   32.0870   49.7810 C   0  0  0  0  0  0  0  0  0  0  0  0
   35.8630   31.6710   50.2630 H   0  0  0  0  0  0  0  0  0  0  0  0
   37.3120   33.2830   50.1100 C   0  0  0  0  0  0  0  0  0  0  0  0
   38.4090   33.7860   49.4640 C   0  0  0  0  0  0  0  0  0  0  0  0
   38.8120   34.7390   49.7940 H   0  0  0  0  0  0  0  0  0  0  0  0
   38.9240   33.0430   48.4370 C   0  0  0  0  0  0  0  0  0  0  0  0
   39.7880   33.4360   47.9250 H   0  0  0  0  0  0  0  0  0  0  0  0
   38.3290   31.8490   48.1080 C   0  0  0  0  0  0  0  0  0  0  0  0
  1  2  1  0  0  0  0
  1  7  1  1  0  0  0
  1  6  1  0  0  0  0
  2  3  1  0  0  0  0
  3 10  1  0  0  0  0
  3  4  1  0  0  0  0
  4 13  1  0  0  0  0
  4 12  1  0  0  0  0
  5 14  1  0  0  0  0
  5  4  1  0  0  0  0
  6 16  1  6  0  0  0
  6 36  1  0  0  0  0
  6  5  1  0  0  0  0
  8  2  1  0  0  0  0
  9  2  1  0  0  0  0
 11  3  1  0  0  0  0
 15  5  1  0  0  0  0
 17 28  1  0  0  0  0
 17 22  1  0  0  0  0
 18 17  2  0  0  0  0
 19 18  1  0  0  0  0
 19 20  2  0  0  0  0
 20 21  1  0  0  0  0
 21 22  2  0  0  0  0
 21 26  1  0  0  0  0
 22  1  1  0  0  0  0
 23 18  1  0  0  0  0
 24 19  1  0  0  0  0
 25 20  1  0  0  0  0
 27 32  1  0  0  0  0
 28 27  2  0  0  0  0
 28 29  1  0  0  0  0
 29 30  2  0  0  0  0
 30 31  1  0  0  0  0
 31 35  1  0  0  0  0
 32 31  2  0  0  0  0
 33 27  1  0  0  0  0
 34 29  1  0  0  0  0
 36 37  1  0  0  0  0
 37 39  2  0  0  0  0
 37 38  1  0  0  0  0
 40 41  1  0  0  0  0
 40 39  1  0  0  0  0
 42 40  2  0  0  0  0
 43 42  1  0  0  0  0
 44 42  1  0  0  0  0
 44 36  2  0  0  0  0
M  END
>  <minimizedAffinity>
-5.81121349

>  <minimizedRMSD>
3.77652359

$$$$
