
 OpenBabel03272510343D

 28 30  0  0  0  0  0  0  0  0999 V2000
   35.8970   30.1640   47.1990 C   0  0  0  0  0  0  0  0  0  0  0  0
   35.5020   30.2460   45.8850 C   0  0  0  0  0  0  0  0  0  0  0  0
   34.4980   29.4160   45.4110 C   0  0  0  0  0  0  0  0  0  0  0  0
   33.9180   28.5190   46.2870 C   0  0  0  0  0  0  0  0  0  0  0  0
   34.3110   28.4330   47.6040 C   0  0  0  0  0  0  0  0  0  0  0  0
   35.3140   29.2630   48.0770 C   0  0  0  0  0  0  0  0  0  0  0  0
   35.9650   30.9570   45.1970 H   0  0  0  0  0  0  0  0  0  0  0  0
   34.1840   29.4780   44.3790 H   0  0  0  0  0  0  0  0  0  0  0  0
   33.1230   27.8390   45.9760 H   0  0  0  0  0  0  0  0  0  0  0  0
   33.9050   27.7550   48.3530 H   0  0  0  0  0  0  0  0  0  0  0  0
   37.6420   32.7240   49.1320 C   0  0  0  0  0  0  0  0  0  0  0  0
   38.8770   32.8630   48.5000 C   0  0  0  0  0  0  0  0  0  0  0  0
   39.1080   32.0440   47.3710 C   0  0  0  0  0  0  0  0  0  0  0  0
   38.1390   31.1830   46.9690 N   0  0  0  0  0  0  0  0  0  0  0  0
   36.9680   31.0840   47.6070 C   0  0  0  0  0  0  0  0  0  0  0  0
   36.7180   31.8610   48.6970 N   0  0  0  0  0  0  0  0  0  0  0  0
   37.4270   33.3360   50.0030 H   0  0  0  0  0  0  0  0  0  0  0  0
   39.6450   33.5530   48.8260 H   0  0  0  0  0  0  0  0  0  0  0  0
   40.0530   32.1090   46.8390 H   0  0  0  0  0  0  0  0  0  0  0  0
   35.8600   29.3140   49.4350 C   0  0  0  0  0  0  0  0  0  0  0  0
   37.2330   29.1040   49.5730 C   0  0  0  0  0  0  0  0  0  0  0  0
   37.9110   28.9070   48.7370 H   0  0  0  0  0  0  0  0  0  0  0  0
   37.8260   29.1390   50.8300 C   0  0  0  0  0  3  0  0  0  0  0  0
   37.0250   29.3870   51.9520 C   0  0  0  0  0  0  0  0  0  0  0  0
   37.5190   29.4080   52.9180 H   0  0  0  0  0  0  0  0  0  0  0  0
   35.6520   29.5940   51.7900 C   0  0  0  0  0  0  0  0  0  0  0  0
   35.0340   29.7880   52.6760 H   0  0  0  0  0  0  0  0  0  0  0  0
   35.0840   29.5570   50.5510 C   0  0  0  0  0  3  0  0  0  0  0  0
  1 15  1  0  0  0  0
  1  6  1  0  0  0  0
  2  1  2  0  0  0  0
  3  2  1  0  0  0  0
  3  4  2  0  0  0  0
  4  5  1  0  0  0  0
  5  6  2  0  0  0  0
  5 10  1  0  0  0  0
  6 20  1  0  0  0  0
  7  2  1  0  0  0  0
  8  3  1  0  0  0  0
  9  4  1  0  0  0  0
 11 17  1  0  0  0  0
 12 18  1  0  0  0  0
 12 11  2  0  0  0  0
 13 12  1  0  0  0  0
 14 13  2  0  0  0  0
 14 15  1  0  0  0  0
 15 16  2  0  0  0  0
 16 11  1  0  0  0  0
 19 13  1  0  0  0  0
 20 21  2  0  0  0  0
 20 28  1  0  0  0  0
 21 23  1  0  0  0  0
 22 21  1  0  0  0  0
 23 24  2  0  0  0  0
 24 25  1  0  0  0  0
 26 24  1  0  0  0  0
 26 27  1  0  0  0  0
 28 26  2  0  0  0  0
M  END
>  <minimizedAffinity>
-4.8531785

>  <minimizedRMSD>
1.72335708

$$$$
