
 OpenBabel03262522493D

 25 27  0  0  0  0  0  0  0  0999 V2000
   36.4260   30.3550   48.7840 C   0  0  0  0  0  0  0  0  0  0  0  0
   36.2680   29.5490   49.8430 C   0  0  0  0  0  0  0  0  0  0  0  0
   35.2890   28.5820   49.8180 C   0  0  0  0  0  0  0  0  0  0  0  0
   34.5340   28.5200   48.6800 C   0  0  0  0  0  0  0  0  0  0  0  0
   35.2260   29.8470   47.6480 S   0  0  0  0  0  0  0  0  0  0  0  0
   36.9260   29.6720   50.7220 H   0  0  0  0  0  0  0  0  0  0  0  0
   35.0840   27.8850   50.6190 H   0  0  0  0  0  0  0  0  0  0  0  0
   38.3470   33.3910   49.3720 C   0  0  0  0  0  0  0  0  0  0  0  0
   39.1910   33.4590   48.2410 C   0  0  0  0  0  0  0  0  0  0  0  0
   39.0800   32.4440   47.2780 C   0  0  0  0  0  0  0  0  0  0  0  0
   38.1710   31.4400   47.4700 N   0  0  0  0  0  0  0  0  0  0  0  0
   37.3920   31.4360   48.5820 C   0  0  0  0  0  0  0  0  0  0  0  0
   37.4720   32.3820   49.5120 N   0  0  0  0  0  0  0  0  0  0  0  0
   38.3810   34.1350   50.1450 H   0  0  0  0  0  0  0  0  0  0  0  0
   39.8850   34.2860   48.1590 H   0  0  0  0  0  0  0  0  0  0  0  0
   39.7120   32.4830   46.4160 H   0  0  0  0  0  0  0  0  0  0  0  0
   33.4370   27.6200   48.3520 C   0  0  0  0  0  0  0  0  0  0  0  0
   32.1560   27.8900   48.7900 C   0  0  0  0  0  0  0  0  0  0  0  0
   32.0080   28.7860   49.3770 H   0  0  0  0  0  0  0  0  0  0  0  0
   31.1810   26.9830   48.4320 C   0  0  0  0  0  0  0  0  0  0  0  0
   31.4970   25.8580   47.6670 C   0  0  0  0  0  0  0  0  0  0  0  0
   30.6700   25.2270   47.4500 H   0  0  0  0  0  0  0  0  0  0  0  0
   32.7880   25.6170   47.2450 C   0  0  0  0  0  0  0  0  0  0  0  0
   32.9900   24.7340   46.6530 H   0  0  0  0  0  0  0  0  0  0  0  0
   33.7810   26.5050   47.5860 C   0  0  0  0  0  0  0  0  0  0  0  0
  1  2  2  0  0  0  0
  2  6  1  0  0  0  0
  3  2  1  0  0  0  0
  3  7  1  0  0  0  0
  4  3  2  0  0  0  0
  5  4  1  0  0  0  0
  5  1  1  0  0  0  0
  8 13  1  0  0  0  0
  8 14  1  0  0  0  0
  9  8  2  0  0  0  0
 10 11  2  0  0  0  0
 10  9  1  0  0  0  0
 11 12  1  0  0  0  0
 12  1  1  0  0  0  0
 12 13  2  0  0  0  0
 15  9  1  0  0  0  0
 16 10  1  0  0  0  0
 17  4  1  0  0  0  0
 17 18  1  0  0  0  0
 18 19  1  0  0  0  0
 20 18  2  0  0  0  0
 21 20  1  0  0  0  0
 22 21  1  0  0  0  0
 23 25  1  0  0  0  0
 23 21  2  0  0  0  0
 24 23  1  0  0  0  0
 25 17  2  0  0  0  0
M  END
>  <minimizedAffinity>
-5.55464125

>  <minimizedRMSD>
0.842583299

$$$$
