
 OpenBabel03272507353D

 36 39  0  0  1  0  0  0  0  0999 V2000
   37.7650   25.5760   34.4760 C   0  0  0  0  0  0  0  0  0  0  0  0
   38.1970   26.5890   35.3050 C   0  0  0  0  0  0  0  0  0  0  0  0
   37.6780   27.7900   34.8000 C   0  0  0  0  0  0  0  0  0  0  0  0
   36.9550   27.4260   33.6850 C   0  0  0  0  0  0  0  0  0  0  0  0
   37.0360   26.1220   33.5360 O   0  0  0  0  0  0  0  0  0  0  0  0
   38.8210   26.5990   36.2070 H   0  0  0  0  0  0  0  0  0  0  0  0
   37.7860   28.8050   35.1630 H   0  0  0  0  0  0  0  0  0  0  0  0
   38.1220   24.1880   34.7090 C   0  0  0  0  0  0  0  0  0  0  0  0
   38.1430   23.3990   33.7500 O   0  0  0  0  0  0  0  0  0  0  0  0
   38.4350   23.8090   36.0580 C   0  0  0  0  0  0  0  0  0  0  0  0
   39.6960   23.2800   36.2900 C   0  0  0  0  0  0  0  0  0  0  0  0
   40.0280   22.9000   37.5930 C   0  0  0  0  0  0  0  0  0  0  0  0
   39.0800   23.0730   38.5780 N   0  0  0  0  0  0  0  0  0  0  0  0
   37.8760   23.5860   38.3180 C   0  0  0  0  0  0  0  0  0  0  0  0
   37.5460   23.9550   37.0700 N   0  0  0  0  0  0  0  0  0  0  0  0
   40.4720   23.1240   35.5560 H   0  0  0  0  0  0  0  0  0  0  0  0
   40.9970   22.4820   37.8250 H   0  0  0  0  0  0  0  0  0  0  0  0
   37.1630   23.7030   39.1280 H   0  0  0  0  0  0  0  0  0  0  0  0
   36.2150   28.3330   32.8130 C   0  0  0  0  0  0  0  0  0  0  0  0
   36.1720   28.0730   31.5640 O   0  0  0  0  0  0  0  0  0  0  0  0
   35.5280   29.5450   33.3740 C   0  0  1  0  0  0  0  0  0  0  0  0
   33.9910   29.5030   33.0020 C   0  0  0  0  0  0  0  0  0  0  0  0
   34.4890   29.4120   34.3940 C   0  0  2  0  0  0  0  0  0  0  0  0
   35.9370   30.5180   33.0260 H   0  0  0  0  0  0  0  0  0  0  0  0
   33.6140   28.6030   32.5270 H   0  0  0  0  0  0  0  0  0  0  0  0
   33.5280   30.4610   32.7370 H   0  0  0  0  0  0  0  0  0  0  0  0
   34.4210   28.4110   34.8680 H   0  0  0  0  0  0  0  0  0  0  0  0
   34.3560   30.5450   35.3440 C   0  0  0  0  0  0  0  0  0  0  0  0
   35.4700   31.3310   35.6260 C   0  0  0  0  0  0  0  0  0  0  0  0
   36.4540   31.1510   35.1730 H   0  0  0  0  0  0  0  0  0  0  0  0
   35.3690   32.4040   36.5190 C   0  0  0  0  0  3  0  0  0  0  0  0
   34.1340   32.6340   37.0910 C   0  0  0  0  0  0  0  0  0  0  0  0
   34.0430   33.4520   37.7770 H   0  0  0  0  0  0  0  0  0  0  0  0
   32.9990   31.8880   36.8480 C   0  0  0  0  0  0  0  0  0  0  0  0
   32.0490   32.1010   37.3170 H   0  0  0  0  0  0  0  0  0  0  0  0
   33.1430   30.8370   35.9590 C   0  0  0  0  0  3  0  0  0  0  0  0
  1  8  1  0  0  0  0
  1  2  2  0  0  0  0
  2  6  1  0  0  0  0
  3  7  1  0  0  0  0
  3  2  1  0  0  0  0
  4  3  2  0  0  0  0
  5  4  1  0  0  0  0
  5  1  1  0  0  0  0
  8 10  1  0  0  0  0
  9  8  2  0  0  0  0
 10 11  2  0  0  0  0
 10 15  1  0  0  0  0
 11 12  1  0  0  0  0
 12 17  1  0  0  0  0
 12 13  2  0  0  0  0
 14 13  1  0  0  0  0
 14 18  1  0  0  0  0
 15 14  2  0  0  0  0
 16 11  1  0  0  0  0
 19 21  1  0  0  0  0
 19  4  1  0  0  0  0
 20 19  2  0  0  0  0
 21 24  1  6  0  0  0
 21 23  1  0  0  0  0
 22 21  1  0  0  0  0
 22 23  1  0  0  0  0
 23 27  1  1  0  0  0
 23 28  1  0  0  0  0
 25 22  1  0  0  0  0
 26 22  1  0  0  0  0
 28 29  2  0  0  0  0
 28 36  1  0  0  0  0
 29 31  1  0  0  0  0
 30 29  1  0  0  0  0
 31 32  2  0  0  0  0
 32 33  1  0  0  0  0
 34 32  1  0  0  0  0
 34 35  1  0  0  0  0
 36 34  2  0  0  0  0
M  END
>  <minimizedAffinity>
-6.02292395

$$$$

 OpenBabel03272507353D

 36 39  0  0  1  0  0  0  0  0999 V2000
   37.9810   25.3740   36.0370 C   0  0  0  0  0  0  0  0  0  0  0  0
   38.4890   26.6050   36.3960 C   0  0  0  0  0  0  0  0  0  0  0  0
   38.1040   27.5190   35.4040 C   0  0  0  0  0  0  0  0  0  0  0  0
   37.3790   26.7790   34.4980 C   0  0  0  0  0  0  0  0  0  0  0  0
   37.3340   25.5310   34.9090 O   0  0  0  0  0  0  0  0  0  0  0  0
   39.0870   26.9440   37.2510 H   0  0  0  0  0  0  0  0  0  0  0  0
   38.3020   28.5810   35.3180 H   0  0  0  0  0  0  0  0  0  0  0  0
   38.1930   24.1900   36.8490 C   0  0  0  0  0  0  0  0  0  0  0  0
   37.3840   23.9220   37.7530 O   0  0  0  0  0  0  0  0  0  0  0  0
   39.3470   23.3890   36.5510 C   0  0  0  0  0  0  0  0  0  0  0  0
   39.9380   22.7130   37.6080 C   0  0  0  0  0  0  0  0  0  0  0  0
   41.0630   21.9270   37.3480 C   0  0  0  0  0  0  0  0  0  0  0  0
   41.5240   21.8680   36.0520 N   0  0  0  0  0  0  0  0  0  0  0  0
   40.9310   22.5320   35.0580 C   0  0  0  0  0  0  0  0  0  0  0  0
   39.8480   23.2900   35.2970 N   0  0  0  0  0  0  0  0  0  0  0  0
   39.6160   22.7260   38.6390 H   0  0  0  0  0  0  0  0  0  0  0  0
   41.5600   21.3820   38.1390 H   0  0  0  0  0  0  0  0  0  0  0  0
   41.3310   22.4530   34.0530 H   0  0  0  0  0  0  0  0  0  0  0  0
   36.7550   27.2910   33.2810 C   0  0  0  0  0  0  0  0  0  0  0  0
   36.5320   26.4750   32.3250 O   0  0  0  0  0  0  0  0  0  0  0  0
   36.3930   28.7430   33.1580 C   0  0  1  0  0  0  0  0  0  0  0  0
   34.8500   28.8790   32.8330 C   0  0  0  0  0  0  0  0  0  0  0  0
   35.4560   29.3630   34.0940 C   0  0  2  0  0  0  0  0  0  0  0  0
   36.9560   29.3020   32.3800 H   0  0  0  0  0  0  0  0  0  0  0  0
   34.2510   27.9760   32.8600 H   0  0  0  0  0  0  0  0  0  0  0  0
   34.5710   29.6650   32.1220 H   0  0  0  0  0  0  0  0  0  0  0  0
   35.2320   28.7630   35.0010 H   0  0  0  0  0  0  0  0  0  0  0  0
   35.6570   30.8110   34.3570 C   0  0  0  0  0  0  0  0  0  0  0  0
   35.6800   31.7000   33.2870 C   0  0  0  0  0  0  0  0  0  0  0  0
   35.5550   31.3780   32.2440 H   0  0  0  0  0  0  0  0  0  0  0  0
   35.8680   33.0690   33.5110 C   0  0  0  0  0  3  0  0  0  0  0  0
   36.0270   33.4780   34.8200 C   0  0  0  0  0  0  0  0  0  0  0  0
   36.1720   34.5230   35.0040 H   0  0  0  0  0  0  0  0  0  0  0  0
   36.0130   32.6410   35.9160 C   0  0  0  0  0  0  0  0  0  0  0  0
   36.1390   33.0010   36.9260 H   0  0  0  0  0  0  0  0  0  0  0  0
   35.8230   31.2960   35.6500 C   0  0  0  0  0  3  0  0  0  0  0  0
  1  2  2  0  0  0  0
  1  8  1  0  0  0  0
  2  6  1  0  0  0  0
  3  2  1  0  0  0  0
  4  5  1  0  0  0  0
  4  3  2  0  0  0  0
  5  1  1  0  0  0  0
  7  3  1  0  0  0  0
  8  9  2  0  0  0  0
 10  8  1  0  0  0  0
 10 11  1  0  0  0  0
 11 16  1  0  0  0  0
 12 11  2  0  0  0  0
 12 17  1  0  0  0  0
 13 12  1  0  0  0  0
 14 15  1  0  0  0  0
 14 13  2  0  0  0  0
 15 10  2  0  0  0  0
 18 14  1  0  0  0  0
 19  4  1  0  0  0  0
 20 19  2  0  0  0  0
 21 24  1  6  0  0  0
 21 19  1  0  0  0  0
 21 23  1  0  0  0  0
 22 25  1  0  0  0  0
 22 21  1  0  0  0  0
 22 23  1  0  0  0  0
 23 28  1  0  0  0  0
 23 27  1  1  0  0  0
 26 22  1  0  0  0  0
 28 36  1  0  0  0  0
 29 31  1  0  0  0  0
 29 28  2  0  0  0  0
 30 29  1  0  0  0  0
 31 32  2  0  0  0  0
 32 33  1  0  0  0  0
 32 34  1  0  0  0  0
 34 35  1  0  0  0  0
 36 34  2  0  0  0  0
M  END
>  <minimizedAffinity>
-6.01904011

$$$$

 OpenBabel03272507353D

 36 39  0  0  1  0  0  0  0  0999 V2000
   42.1960   23.0880   36.2240 C   0  0  0  0  0  0  0  0  0  0  0  0
   43.5110   22.7860   35.9450 C   0  0  0  0  0  0  0  0  0  0  0  0
   44.0300   23.8440   35.1860 C   0  0  0  0  0  0  0  0  0  0  0  0
   42.9860   24.7330   35.0510 C   0  0  0  0  0  0  0  0  0  0  0  0
   41.9350   24.2480   35.6740 O   0  0  0  0  0  0  0  0  0  0  0  0
   44.1490   21.9300   36.2000 H   0  0  0  0  0  0  0  0  0  0  0  0
   45.0210   23.9870   34.7710 H   0  0  0  0  0  0  0  0  0  0  0  0
   41.3510   22.1990   37.0000 C   0  0  0  0  0  0  0  0  0  0  0  0
   41.8560   21.1970   37.5340 O   0  0  0  0  0  0  0  0  0  0  0  0
   39.9610   22.5390   37.1040 C   0  0  0  0  0  0  0  0  0  0  0  0
   39.1600   22.2720   36.0040 C   0  0  0  0  0  0  0  0  0  0  0  0
   37.8020   22.5940   36.0750 C   0  0  0  0  0  0  0  0  0  0  0  0
   37.3340   23.1620   37.2380 N   0  0  0  0  0  0  0  0  0  0  0  0
   38.1330   23.4070   38.2790 C   0  0  0  0  0  0  0  0  0  0  0  0
   39.4390   23.1010   38.2210 N   0  0  0  0  0  0  0  0  0  0  0  0
   39.4770   21.8280   35.0710 H   0  0  0  0  0  0  0  0  0  0  0  0
   37.1380   22.4050   35.2440 H   0  0  0  0  0  0  0  0  0  0  0  0
   37.7170   23.8560   39.1740 H   0  0  0  0  0  0  0  0  0  0  0  0
   43.0350   26.0080   34.3400 C   0  0  0  0  0  0  0  0  0  0  0  0
   44.1480   26.3800   33.8390 O   0  0  0  0  0  0  0  0  0  0  0  0
   41.8050   26.8600   34.2110 C   0  0  1  0  0  0  0  0  0  0  0  0
   41.6060   27.2750   32.6970 C   0  0  0  0  0  0  0  0  0  0  0  0
   40.6570   26.4040   33.4280 C   0  0  2  0  0  0  0  0  0  0  0  0
   41.8130   27.7880   34.8210 H   0  0  0  0  0  0  0  0  0  0  0  0
   42.2620   26.8230   31.9620 H   0  0  0  0  0  0  0  0  0  0  0  0
   41.2510   28.2960   32.5160 H   0  0  0  0  0  0  0  0  0  0  0  0
   40.6740   25.3290   33.1510 H   0  0  0  0  0  0  0  0  0  0  0  0
   39.3280   26.8970   33.8700 C   0  0  0  0  0  0  0  0  0  0  0  0
   38.3410   27.1370   32.9190 C   0  0  0  0  0  0  0  0  0  0  0  0
   38.5000   26.9770   31.8440 H   0  0  0  0  0  0  0  0  0  0  0  0
   37.0800   27.6020   33.3110 C   0  0  0  0  0  3  0  0  0  0  0  0
   36.8760   27.8050   34.6620 C   0  0  0  0  0  0  0  0  0  0  0  0
   35.9150   28.1610   34.9750 H   0  0  0  0  0  0  0  0  0  0  0  0
   37.8170   27.5840   35.6450 C   0  0  0  0  0  0  0  0  0  0  0  0
   37.6170   27.7550   36.6930 H   0  0  0  0  0  0  0  0  0  0  0  0
   39.0490   27.1240   35.2140 C   0  0  0  0  0  3  0  0  0  0  0  0
  1  8  1  0  0  0  0
  2  6  1  0  0  0  0
  2  1  2  0  0  0  0
  3  2  1  0  0  0  0
  4  3  2  0  0  0  0
  4  5  1  0  0  0  0
  5  1  1  0  0  0  0
  7  3  1  0  0  0  0
  8 10  1  0  0  0  0
  8  9  2  0  0  0  0
 10 15  1  0  0  0  0
 11 12  1  0  0  0  0
 11 10  2  0  0  0  0
 12 13  2  0  0  0  0
 13 14  1  0  0  0  0
 14 18  1  0  0  0  0
 15 14  2  0  0  0  0
 16 11  1  0  0  0  0
 17 12  1  0  0  0  0
 19  4  1  0  0  0  0
 20 19  2  0  0  0  0
 21 19  1  0  0  0  0
 21 24  1  1  0  0  0
 22 23  1  0  0  0  0
 22 21  1  0  0  0  0
 23 27  1  6  0  0  0
 23 28  1  0  0  0  0
 23 21  1  0  0  0  0
 25 22  1  0  0  0  0
 26 22  1  0  0  0  0
 28 36  1  0  0  0  0
 29 31  1  0  0  0  0
 29 28  2  0  0  0  0
 30 29  1  0  0  0  0
 31 32  2  0  0  0  0
 32 33  1  0  0  0  0
 32 34  1  0  0  0  0
 34 35  1  0  0  0  0
 36 34  2  0  0  0  0
M  END
>  <minimizedAffinity>
-5.91286993

$$$$

 OpenBabel03272507353D

 36 39  0  0  1  0  0  0  0  0999 V2000
   35.3670   29.1400   33.0900 C   0  0  0  0  0  0  0  0  0  0  0  0
   35.8150   29.2140   31.7880 C   0  0  0  0  0  0  0  0  0  0  0  0
   36.9550   28.4040   31.6930 C   0  0  0  0  0  0  0  0  0  0  0  0
   37.1300   27.8830   32.9560 C   0  0  0  0  0  0  0  0  0  0  0  0
   36.1780   28.3420   33.7380 O   0  0  0  0  0  0  0  0  0  0  0  0
   35.4520   29.7550   30.9050 H   0  0  0  0  0  0  0  0  0  0  0  0
   37.5950   28.1950   30.8440 H   0  0  0  0  0  0  0  0  0  0  0  0
   34.1930   29.8650   33.5400 C   0  0  0  0  0  0  0  0  0  0  0  0
   33.1500   29.8050   32.8690 O   0  0  0  0  0  0  0  0  0  0  0  0
   34.3150   30.6200   34.7550 C   0  0  0  0  0  0  0  0  0  0  0  0
   33.2150   30.6440   35.5990 C   0  0  0  0  0  0  0  0  0  0  0  0
   33.3030   31.3720   36.7880 C   0  0  0  0  0  0  0  0  0  0  0  0
   34.4830   32.0280   37.0560 N   0  0  0  0  0  0  0  0  0  0  0  0
   35.5240   31.9850   36.2210 C   0  0  0  0  0  0  0  0  0  0  0  0
   35.4490   31.2880   35.0760 N   0  0  0  0  0  0  0  0  0  0  0  0
   32.2690   30.1470   35.4350 H   0  0  0  0  0  0  0  0  0  0  0  0
   32.4730   31.4210   37.4770 H   0  0  0  0  0  0  0  0  0  0  0  0
   36.4330   32.5190   36.4770 H   0  0  0  0  0  0  0  0  0  0  0  0
   38.1910   26.9670   33.3630 C   0  0  0  0  0  0  0  0  0  0  0  0
   39.3470   27.1060   32.8380 O   0  0  0  0  0  0  0  0  0  0  0  0
   37.9250   25.8850   34.3700 C   0  0  1  0  0  0  0  0  0  0  0  0
   37.9400   24.4760   33.6510 C   0  0  0  0  0  0  0  0  0  0  0  0
   38.9390   24.8740   34.6690 C   0  0  2  0  0  0  0  0  0  0  0  0
   36.9620   25.9800   34.9160 H   0  0  0  0  0  0  0  0  0  0  0  0
   38.2450   24.4470   32.6100 H   0  0  0  0  0  0  0  0  0  0  0  0
   37.1950   23.7480   33.9930 H   0  0  0  0  0  0  0  0  0  0  0  0
   39.9560   25.1010   34.2870 H   0  0  0  0  0  0  0  0  0  0  0  0
   38.9170   24.3120   36.0430 C   0  0  0  0  0  0  0  0  0  0  0  0
   39.8500   23.3420   36.3970 C   0  0  0  0  0  0  0  0  0  0  0  0
   40.6110   22.9670   35.6990 H   0  0  0  0  0  0  0  0  0  0  0  0
   39.8480   22.7980   37.6860 C   0  0  0  0  0  3  0  0  0  0  0  0
   38.8930   23.2650   38.5670 C   0  0  0  0  0  0  0  0  0  0  0  0
   38.8810   22.8570   39.5570 H   0  0  0  0  0  0  0  0  0  0  0  0
   37.9470   24.2240   38.2700 C   0  0  0  0  0  0  0  0  0  0  0  0
   37.2150   24.5640   38.9880 H   0  0  0  0  0  0  0  0  0  0  0  0
   37.9840   24.7350   36.9840 C   0  0  0  0  0  3  0  0  0  0  0  0
  1  8  1  0  0  0  0
  1  5  1  0  0  0  0
  2  1  2  0  0  0  0
  3  2  1  0  0  0  0
  3  4  2  0  0  0  0
  4 19  1  0  0  0  0
  4  5  1  0  0  0  0
  6  2  1  0  0  0  0
  7  3  1  0  0  0  0
  8 10  1  0  0  0  0
  9  8  2  0  0  0  0
 10 15  2  0  0  0  0
 10 11  1  0  0  0  0
 11 12  2  0  0  0  0
 12 13  1  0  0  0  0
 12 17  1  0  0  0  0
 14 18  1  0  0  0  0
 14 13  2  0  0  0  0
 15 14  1  0  0  0  0
 16 11  1  0  0  0  0
 19 21  1  0  0  0  0
 20 19  2  0  0  0  0
 21 23  1  0  0  0  0
 21 24  1  1  0  0  0
 22 26  1  0  0  0  0
 22 21  1  0  0  0  0
 22 23  1  0  0  0  0
 23 27  1  6  0  0  0
 23 28  1  0  0  0  0
 25 22  1  0  0  0  0
 28 29  2  0  0  0  0
 28 36  1  0  0  0  0
 29 31  1  0  0  0  0
 30 29  1  0  0  0  0
 31 32  2  0  0  0  0
 32 33  1  0  0  0  0
 34 32  1  0  0  0  0
 34 35  1  0  0  0  0
 36 34  2  0  0  0  0
M  END
>  <minimizedAffinity>
-5.8563199

$$$$

 OpenBabel03272507353D

 36 39  0  0  1  0  0  0  0  0999 V2000
   38.0130   26.3260   34.3140 C   0  0  0  0  0  0  0  0  0  0  0  0
   38.7320   27.0400   33.3780 C   0  0  0  0  0  0  0  0  0  0  0  0
   38.1430   26.8000   32.1290 C   0  0  0  0  0  0  0  0  0  0  0  0
   37.0920   25.9480   32.3870 C   0  0  0  0  0  0  0  0  0  0  0  0
   37.0560   25.6980   33.6770 O   0  0  0  0  0  0  0  0  0  0  0  0
   39.6060   27.6990   33.4550 H   0  0  0  0  0  0  0  0  0  0  0  0
   38.4100   27.1740   31.1480 H   0  0  0  0  0  0  0  0  0  0  0  0
   38.3540   26.3470   35.7240 C   0  0  0  0  0  0  0  0  0  0  0  0
   38.3540   27.4310   36.3310 O   0  0  0  0  0  0  0  0  0  0  0  0
   38.6770   25.0910   36.3400 C   0  0  0  0  0  0  0  0  0  0  0  0
   39.5890   24.2800   35.6820 C   0  0  0  0  0  0  0  0  0  0  0  0
   39.9220   23.0500   36.2560 C   0  0  0  0  0  0  0  0  0  0  0  0
   39.3210   22.7120   37.4490 N   0  0  0  0  0  0  0  0  0  0  0  0
   38.4460   23.5170   38.0550 C   0  0  0  0  0  0  0  0  0  0  0  0
   38.1210   24.7010   37.5120 N   0  0  0  0  0  0  0  0  0  0  0  0
   40.0870   24.4990   34.7480 H   0  0  0  0  0  0  0  0  0  0  0  0
   40.6270   22.3830   35.7820 H   0  0  0  0  0  0  0  0  0  0  0  0
   38.0000   23.2060   38.9930 H   0  0  0  0  0  0  0  0  0  0  0  0
   36.1640   25.4110   31.3950 C   0  0  0  0  0  0  0  0  0  0  0  0
   35.4290   26.2290   30.7470 O   0  0  0  0  0  0  0  0  0  0  0  0
   36.0730   23.9320   31.1520 C   0  0  1  0  0  0  0  0  0  0  0  0
   37.4270   23.4160   30.5170 C   0  0  0  0  0  0  0  0  0  0  0  0
   36.9540   23.0020   31.8580 C   0  0  2  0  0  0  0  0  0  0  0  0
   35.2410   23.6170   30.4870 H   0  0  0  0  0  0  0  0  0  0  0  0
   38.2500   24.1180   30.4530 H   0  0  0  0  0  0  0  0  0  0  0  0
   37.3370   22.6500   29.7380 H   0  0  0  0  0  0  0  0  0  0  0  0
   37.5020   23.4360   32.7200 H   0  0  0  0  0  0  0  0  0  0  0  0
   36.4060   21.6440   32.1070 C   0  0  0  0  0  0  0  0  0  0  0  0
   36.1490   21.2440   33.4140 C   0  0  0  0  0  0  0  0  0  0  0  0
   36.3320   21.8920   34.2820 H   0  0  0  0  0  0  0  0  0  0  0  0
   35.6330   19.9680   33.6730 C   0  0  0  0  0  3  0  0  0  0  0  0
   35.4010   19.1500   32.5860 C   0  0  0  0  0  0  0  0  0  0  0  0
   35.0060   18.1710   32.7710 H   0  0  0  0  0  0  0  0  0  0  0  0
   35.6380   19.4950   31.2720 C   0  0  0  0  0  0  0  0  0  0  0  0
   35.4420   18.8250   30.4480 H   0  0  0  0  0  0  0  0  0  0  0  0
   36.1470   20.7650   31.0610 C   0  0  0  0  0  3  0  0  0  0  0  0
  1  8  1  0  0  0  0
  2  6  1  0  0  0  0
  2  1  2  0  0  0  0
  3  4  2  0  0  0  0
  3  2  1  0  0  0  0
  4  5  1  0  0  0  0
  5  1  1  0  0  0  0
  7  3  1  0  0  0  0
  8  9  2  0  0  0  0
  8 10  1  0  0  0  0
 10 15  1  0  0  0  0
 11 12  1  0  0  0  0
 11 10  2  0  0  0  0
 12 13  2  0  0  0  0
 13 14  1  0  0  0  0
 14 18  1  0  0  0  0
 15 14  2  0  0  0  0
 16 11  1  0  0  0  0
 17 12  1  0  0  0  0
 19  4  1  0  0  0  0
 20 19  2  0  0  0  0
 21 24  1  6  0  0  0
 21 19  1  0  0  0  0
 21 23  1  0  0  0  0
 22 21  1  0  0  0  0
 22 23  1  0  0  0  0
 23 28  1  0  0  0  0
 23 27  1  1  0  0  0
 25 22  1  0  0  0  0
 26 22  1  0  0  0  0
 28 29  1  0  0  0  0
 29 31  2  0  0  0  0
 29 30  1  0  0  0  0
 32 33  1  0  0  0  0
 32 31  1  0  0  0  0
 34 32  2  0  0  0  0
 35 34  1  0  0  0  0
 36 34  1  0  0  0  0
 36 28  2  0  0  0  0
M  END
>  <minimizedAffinity>
-5.7830739

$$$$

 OpenBabel03272507353D

 36 39  0  0  1  0  0  0  0  0999 V2000
   36.4160   25.6120   31.5920 C   0  0  0  0  0  0  0  0  0  0  0  0
   36.1390   26.9570   31.4620 C   0  0  0  0  0  0  0  0  0  0  0  0
   37.1820   27.6590   32.0810 C   0  0  0  0  0  0  0  0  0  0  0  0
   38.0370   26.6870   32.5530 C   0  0  0  0  0  0  0  0  0  0  0  0
   37.5470   25.5060   32.2440 O   0  0  0  0  0  0  0  0  0  0  0  0
   35.3110   27.5040   30.9950 H   0  0  0  0  0  0  0  0  0  0  0  0
   37.3360   28.7250   32.1940 H   0  0  0  0  0  0  0  0  0  0  0  0
   35.5330   24.5910   31.0580 C   0  0  0  0  0  0  0  0  0  0  0  0
   34.5530   24.9340   30.3760 O   0  0  0  0  0  0  0  0  0  0  0  0
   35.8540   23.2250   31.3590 C   0  0  0  0  0  0  0  0  0  0  0  0
   37.0120   22.7080   30.7960 C   0  0  0  0  0  0  0  0  0  0  0  0
   37.3490   21.3800   31.0690 C   0  0  0  0  0  0  0  0  0  0  0  0
   36.5090   20.6550   31.8850 N   0  0  0  0  0  0  0  0  0  0  0  0
   35.4010   21.1840   32.4090 C   0  0  0  0  0  0  0  0  0  0  0  0
   35.0680   22.4600   32.1530 N   0  0  0  0  0  0  0  0  0  0  0  0
   37.7030   23.2330   30.1530 H   0  0  0  0  0  0  0  0  0  0  0  0
   38.2410   20.9320   30.6540 H   0  0  0  0  0  0  0  0  0  0  0  0
   34.7710   20.5730   33.0460 H   0  0  0  0  0  0  0  0  0  0  0  0
   39.2850   26.9230   33.2730 C   0  0  0  0  0  0  0  0  0  0  0  0
   40.2130   27.5700   32.6820 O   0  0  0  0  0  0  0  0  0  0  0  0
   39.4710   26.4080   34.6720 C   0  0  1  0  0  0  0  0  0  0  0  0
   38.6990   27.3430   35.6870 C   0  0  0  0  0  0  0  0  0  0  0  0
   38.3310   25.9290   35.4510 C   0  0  2  0  0  0  0  0  0  0  0  0
   40.5280   26.3380   35.0080 H   0  0  0  0  0  0  0  0  0  0  0  0
   38.0660   28.1190   35.2720 H   0  0  0  0  0  0  0  0  0  0  0  0
   39.1990   27.5380   36.6440 H   0  0  0  0  0  0  0  0  0  0  0  0
   37.4010   25.7610   34.8690 H   0  0  0  0  0  0  0  0  0  0  0  0
   38.6210   24.8700   36.4520 C   0  0  0  0  0  0  0  0  0  0  0  0
   39.5500   23.8810   36.1450 C   0  0  0  0  0  0  0  0  0  0  0  0
   40.0860   23.8440   35.1860 H   0  0  0  0  0  0  0  0  0  0  0  0
   39.8390   22.8720   37.0720 C   0  0  0  0  0  3  0  0  0  0  0  0
   39.1680   22.9130   38.2770 C   0  0  0  0  0  0  0  0  0  0  0  0
   39.3810   22.1470   38.9950 H   0  0  0  0  0  0  0  0  0  0  0  0
   38.2400   23.8690   38.6330 C   0  0  0  0  0  0  0  0  0  0  0  0
   37.7370   23.8660   39.5890 H   0  0  0  0  0  0  0  0  0  0  0  0
   37.9840   24.8470   37.6880 C   0  0  0  0  0  3  0  0  0  0  0  0
  1  5  1  0  0  0  0
  2  1  2  0  0  0  0
  2  3  1  0  0  0  0
  3  7  1  0  0  0  0
  3  4  2  0  0  0  0
  4 19  1  0  0  0  0
  5  4  1  0  0  0  0
  6  2  1  0  0  0  0
  8 10  1  0  0  0  0
  8  1  1  0  0  0  0
  9  8  2  0  0  0  0
 10 15  1  0  0  0  0
 11 12  1  0  0  0  0
 11 10  2  0  0  0  0
 12 13  2  0  0  0  0
 13 14  1  0  0  0  0
 14 18  1  0  0  0  0
 15 14  2  0  0  0  0
 16 11  1  0  0  0  0
 17 12  1  0  0  0  0
 19 21  1  0  0  0  0
 20 19  2  0  0  0  0
 21 24  1  1  0  0  0
 21 23  1  0  0  0  0
 21 22  1  0  0  0  0
 22 26  1  0  0  0  0
 23 27  1  6  0  0  0
 23 22  1  0  0  0  0
 23 28  1  0  0  0  0
 25 22  1  0  0  0  0
 28 36  1  0  0  0  0
 29 28  2  0  0  0  0
 29 31  1  0  0  0  0
 30 29  1  0  0  0  0
 31 32  2  0  0  0  0
 32 34  1  0  0  0  0
 32 33  1  0  0  0  0
 34 35  1  0  0  0  0
 36 34  2  0  0  0  0
M  END
>  <minimizedAffinity>
-5.78299332

$$$$

 OpenBabel03272507353D

 36 39  0  0  1  0  0  0  0  0999 V2000
   36.6910   25.3790   31.5190 C   0  0  0  0  0  0  0  0  0  0  0  0
   35.4810   24.8240   31.1580 C   0  0  0  0  0  0  0  0  0  0  0  0
   35.5380   23.4590   31.4740 C   0  0  0  0  0  0  0  0  0  0  0  0
   36.7910   23.2690   32.0150 C   0  0  0  0  0  0  0  0  0  0  0  0
   37.4280   24.4200   32.0190 O   0  0  0  0  0  0  0  0  0  0  0  0
   34.5740   25.2440   30.7060 H   0  0  0  0  0  0  0  0  0  0  0  0
   34.7950   22.6810   31.3470 H   0  0  0  0  0  0  0  0  0  0  0  0
   36.9760   26.7890   31.3280 C   0  0  0  0  0  0  0  0  0  0  0  0
   37.7150   27.1360   30.3920 O   0  0  0  0  0  0  0  0  0  0  0  0
   36.3750   27.7110   32.2510 C   0  0  0  0  0  0  0  0  0  0  0  0
   36.7960   27.6490   33.5700 C   0  0  0  0  0  0  0  0  0  0  0  0
   36.2280   28.5320   34.4920 C   0  0  0  0  0  0  0  0  0  0  0  0
   35.2770   29.4180   34.0350 N   0  0  0  0  0  0  0  0  0  0  0  0
   34.8950   29.4500   32.7570 C   0  0  0  0  0  0  0  0  0  0  0  0
   35.4350   28.6060   31.8630 N   0  0  0  0  0  0  0  0  0  0  0  0
   37.5360   26.9760   33.9780 H   0  0  0  0  0  0  0  0  0  0  0  0
   36.5220   28.5230   35.5320 H   0  0  0  0  0  0  0  0  0  0  0  0
   34.1430   30.1660   32.4450 H   0  0  0  0  0  0  0  0  0  0  0  0
   37.3260   22.0040   32.5070 C   0  0  0  0  0  0  0  0  0  0  0  0
   37.2290   20.9730   31.7610 O   0  0  0  0  0  0  0  0  0  0  0  0
   37.9690   21.9190   33.8620 C   0  0  1  0  0  0  0  0  0  0  0  0
   39.5430   21.9190   33.7030 C   0  0  0  0  0  0  0  0  0  0  0  0
   38.7980   23.0120   34.3670 C   0  0  2  0  0  0  0  0  0  0  0  0
   37.6860   21.0260   34.4600 H   0  0  0  0  0  0  0  0  0  0  0  0
   39.9470   22.0950   32.7120 H   0  0  0  0  0  0  0  0  0  0  0  0
   40.0990   21.2600   34.3800 H   0  0  0  0  0  0  0  0  0  0  0  0
   38.7210   23.9620   33.7980 H   0  0  0  0  0  0  0  0  0  0  0  0
   38.8210   23.1880   35.8420 C   0  0  0  0  0  0  0  0  0  0  0  0
   39.8390   22.5950   36.5820 C   0  0  0  0  0  0  0  0  0  0  0  0
   40.6360   21.9960   36.1220 H   0  0  0  0  0  0  0  0  0  0  0  0
   39.8810   22.7460   37.9730 C   0  0  0  0  0  3  0  0  0  0  0  0
   38.8810   23.4980   38.5550 C   0  0  0  0  0  0  0  0  0  0  0  0
   38.9010   23.6220   39.6190 H   0  0  0  0  0  0  0  0  0  0  0  0
   37.8500   24.1070   37.8710 C   0  0  0  0  0  0  0  0  0  0  0  0
   37.0850   24.6890   38.3650 H   0  0  0  0  0  0  0  0  0  0  0  0
   37.8460   23.9330   36.4980 C   0  0  0  0  0  3  0  0  0  0  0  0
  1  5  1  0  0  0  0
  2  3  1  0  0  0  0
  2  1  2  0  0  0  0
  3  4  2  0  0  0  0
  4  5  1  0  0  0  0
  4 19  1  0  0  0  0
  6  2  1  0  0  0  0
  7  3  1  0  0  0  0
  8  1  1  0  0  0  0
  8 10  1  0  0  0  0
  9  8  2  0  0  0  0
 10 11  1  0  0  0  0
 11 16  1  0  0  0  0
 11 12  2  0  0  0  0
 12 17  1  0  0  0  0
 13 12  1  0  0  0  0
 14 13  2  0  0  0  0
 15 10  2  0  0  0  0
 15 14  1  0  0  0  0
 18 14  1  0  0  0  0
 19 21  1  0  0  0  0
 20 19  2  0  0  0  0
 21 23  1  0  0  0  0
 21 24  1  1  0  0  0
 22 21  1  0  0  0  0
 22 23  1  0  0  0  0
 22 26  1  0  0  0  0
 23 27  1  6  0  0  0
 23 28  1  0  0  0  0
 25 22  1  0  0  0  0
 28 36  2  0  0  0  0
 28 29  1  0  0  0  0
 29 31  2  0  0  0  0
 30 29  1  0  0  0  0
 31 32  1  0  0  0  0
 32 33  1  0  0  0  0
 34 35  1  0  0  0  0
 34 32  2  0  0  0  0
 36 34  1  0  0  0  0
M  END
>  <minimizedAffinity>
-5.64501762

$$$$

 OpenBabel03272507353D

 36 39  0  0  1  0  0  0  0  0999 V2000
   36.1260   22.9260   31.8990 C   0  0  0  0  0  0  0  0  0  0  0  0
   35.5020   23.8160   31.0510 C   0  0  0  0  0  0  0  0  0  0  0  0
   36.0460   25.0840   31.3040 C   0  0  0  0  0  0  0  0  0  0  0  0
   36.9770   24.8810   32.2980 C   0  0  0  0  0  0  0  0  0  0  0  0
   36.9880   23.6050   32.6140 O   0  0  0  0  0  0  0  0  0  0  0  0
   34.7240   23.6960   30.2870 H   0  0  0  0  0  0  0  0  0  0  0  0
   35.8250   26.0420   30.8500 H   0  0  0  0  0  0  0  0  0  0  0  0
   35.8000   21.5120   31.9030 C   0  0  0  0  0  0  0  0  0  0  0  0
   34.6800   21.1500   32.3010 O   0  0  0  0  0  0  0  0  0  0  0  0
   36.8100   20.6040   31.4400 C   0  0  0  0  0  0  0  0  0  0  0  0
   36.5600   19.9310   30.2540 C   0  0  0  0  0  0  0  0  0  0  0  0
   37.5250   19.0390   29.7780 C   0  0  0  0  0  0  0  0  0  0  0  0
   38.6750   18.8770   30.5180 N   0  0  0  0  0  0  0  0  0  0  0  0
   38.8830   19.5420   31.6570 C   0  0  0  0  0  0  0  0  0  0  0  0
   37.9630   20.4010   32.1220 N   0  0  0  0  0  0  0  0  0  0  0  0
   35.6770   20.0220   29.6370 H   0  0  0  0  0  0  0  0  0  0  0  0
   37.3760   18.4900   28.8590 H   0  0  0  0  0  0  0  0  0  0  0  0
   39.8050   19.3800   32.2040 H   0  0  0  0  0  0  0  0  0  0  0  0
   37.8200   25.9090   32.9030 C   0  0  0  0  0  0  0  0  0  0  0  0
   37.9240   27.0340   32.3080 O   0  0  0  0  0  0  0  0  0  0  0  0
   38.5500   25.6440   34.1880 C   0  0  1  0  0  0  0  0  0  0  0  0
   38.1470   26.7340   35.2610 C   0  0  0  0  0  0  0  0  0  0  0  0
   37.8200   25.2970   35.4060 C   0  0  2  0  0  0  0  0  0  0  0  0
   39.6580   25.6400   34.1040 H   0  0  0  0  0  0  0  0  0  0  0  0
   37.3510   27.4220   35.0020 H   0  0  0  0  0  0  0  0  0  0  0  0
   38.9510   27.0940   35.9140 H   0  0  0  0  0  0  0  0  0  0  0  0
   36.7540   25.0250   35.2540 H   0  0  0  0  0  0  0  0  0  0  0  0
   38.5370   24.4280   36.3730 C   0  0  0  0  0  0  0  0  0  0  0  0
   38.0580   24.3190   37.6750 C   0  0  0  0  0  0  0  0  0  0  0  0
   37.1630   24.8500   38.0260 H   0  0  0  0  0  0  0  0  0  0  0  0
   38.7180   23.5050   38.6040 C   0  0  0  0  0  3  0  0  0  0  0  0
   39.8430   22.8350   38.1680 C   0  0  0  0  0  0  0  0  0  0  0  0
   40.3570   22.2100   38.8700 H   0  0  0  0  0  0  0  0  0  0  0  0
   40.3610   22.9070   36.8920 C   0  0  0  0  0  0  0  0  0  0  0  0
   41.2450   22.3650   36.5890 H   0  0  0  0  0  0  0  0  0  0  0  0
   39.6780   23.7210   36.0050 C   0  0  0  0  0  3  0  0  0  0  0  0
  1  8  1  0  0  0  0
  1  5  1  0  0  0  0
  2  3  1  0  0  0  0
  2  1  2  0  0  0  0
  3  4  2  0  0  0  0
  4  5  1  0  0  0  0
  4 19  1  0  0  0  0
  6  2  1  0  0  0  0
  7  3  1  0  0  0  0
  8  9  2  0  0  0  0
 10  8  1  0  0  0  0
 10 15  1  0  0  0  0
 11 10  2  0  0  0  0
 12 11  1  0  0  0  0
 12 13  2  0  0  0  0
 13 14  1  0  0  0  0
 14 15  2  0  0  0  0
 14 18  1  0  0  0  0
 16 11  1  0  0  0  0
 17 12  1  0  0  0  0
 19 21  1  0  0  0  0
 20 19  2  0  0  0  0
 21 24  1  6  0  0  0
 21 22  1  0  0  0  0
 21 23  1  0  0  0  0
 22 23  1  0  0  0  0
 22 26  1  0  0  0  0
 23 27  1  6  0  0  0
 23 28  1  0  0  0  0
 25 22  1  0  0  0  0
 28 29  1  0  0  0  0
 29 30  1  0  0  0  0
 29 31  2  0  0  0  0
 32 31  1  0  0  0  0
 32 33  1  0  0  0  0
 34 32  2  0  0  0  0
 35 34  1  0  0  0  0
 36 28  2  0  0  0  0
 36 34  1  0  0  0  0
M  END
>  <minimizedAffinity>
-5.63284731

$$$$

 OpenBabel03272507353D

 36 39  0  0  1  0  0  0  0  0999 V2000
   35.4600   29.2790   31.9700 C   0  0  0  0  0  0  0  0  0  0  0  0
   36.0790   29.6450   30.7930 C   0  0  0  0  0  0  0  0  0  0  0  0
   36.8070   28.5340   30.3440 C   0  0  0  0  0  0  0  0  0  0  0  0
   36.5820   27.5540   31.2840 C   0  0  0  0  0  0  0  0  0  0  0  0
   35.7890   28.0360   32.2170 O   0  0  0  0  0  0  0  0  0  0  0  0
   36.0870   30.5770   30.2150 H   0  0  0  0  0  0  0  0  0  0  0  0
   37.4250   28.4150   29.4620 H   0  0  0  0  0  0  0  0  0  0  0  0
   34.6170   30.1990   32.7130 C   0  0  0  0  0  0  0  0  0  0  0  0
   33.3930   30.2040   32.5010 O   0  0  0  0  0  0  0  0  0  0  0  0
   35.2640   31.0600   33.6610 C   0  0  0  0  0  0  0  0  0  0  0  0
   35.4200   30.5770   34.9520 C   0  0  0  0  0  0  0  0  0  0  0  0
   36.0440   31.3930   35.8980 C   0  0  0  0  0  0  0  0  0  0  0  0
   36.4710   32.6390   35.4940 N   0  0  0  0  0  0  0  0  0  0  0  0
   36.3040   33.0730   34.2430 C   0  0  0  0  0  0  0  0  0  0  0  0
   35.7060   32.2960   33.3260 N   0  0  0  0  0  0  0  0  0  0  0  0
   35.1040   29.6110   35.3180 H   0  0  0  0  0  0  0  0  0  0  0  0
   36.1880   31.0620   36.9160 H   0  0  0  0  0  0  0  0  0  0  0  0
   36.6580   34.0630   33.9730 H   0  0  0  0  0  0  0  0  0  0  0  0
   37.1260   26.1990   31.2540 C   0  0  0  0  0  0  0  0  0  0  0  0
   38.2840   26.0230   30.7480 O   0  0  0  0  0  0  0  0  0  0  0  0
   36.3360   25.0440   31.8000 C   0  0  1  0  0  0  0  0  0  0  0  0
   35.1250   24.7270   30.8340 C   0  0  0  0  0  0  0  0  0  0  0  0
   36.2440   23.7850   31.0620 C   0  0  2  0  0  0  0  0  0  0  0  0
   35.9270   25.1970   32.8210 H   0  0  0  0  0  0  0  0  0  0  0  0
   35.0820   25.2620   29.8910 H   0  0  0  0  0  0  0  0  0  0  0  0
   34.1800   24.4490   31.3150 H   0  0  0  0  0  0  0  0  0  0  0  0
   36.9650   23.6770   30.2240 H   0  0  0  0  0  0  0  0  0  0  0  0
   36.0760   22.5580   31.8810 C   0  0  0  0  0  0  0  0  0  0  0  0
   36.8820   22.3700   32.9990 C   0  0  0  0  0  0  0  0  0  0  0  0
   37.6460   23.0960   33.3100 H   0  0  0  0  0  0  0  0  0  0  0  0
   36.7410   21.2210   33.7860 C   0  0  0  0  0  3  0  0  0  0  0  0
   35.7820   20.3060   33.3990 C   0  0  0  0  0  0  0  0  0  0  0  0
   35.6650   19.4220   33.9930 H   0  0  0  0  0  0  0  0  0  0  0  0
   34.9580   20.4410   32.3020 C   0  0  0  0  0  0  0  0  0  0  0  0
   34.2180   19.7020   32.0330 H   0  0  0  0  0  0  0  0  0  0  0  0
   35.1290   21.5920   31.5530 C   0  0  0  0  0  3  0  0  0  0  0  0
  1  5  1  0  0  0  0
  1  8  1  0  0  0  0
  2  1  2  0  0  0  0
  3  2  1  0  0  0  0
  3  4  2  0  0  0  0
  4  5  1  0  0  0  0
  6  2  1  0  0  0  0
  7  3  1  0  0  0  0
  8 10  1  0  0  0  0
  9  8  2  0  0  0  0
 10 11  1  0  0  0  0
 11 16  1  0  0  0  0
 11 12  2  0  0  0  0
 12 17  1  0  0  0  0
 13 12  1  0  0  0  0
 14 13  2  0  0  0  0
 15 10  2  0  0  0  0
 15 14  1  0  0  0  0
 18 14  1  0  0  0  0
 19  4  1  0  0  0  0
 19 21  1  0  0  0  0
 20 19  2  0  0  0  0
 21 24  1  1  0  0  0
 22 23  1  0  0  0  0
 22 26  1  0  0  0  0
 22 21  1  0  0  0  0
 23 27  1  6  0  0  0
 23 21  1  0  0  0  0
 23 28  1  0  0  0  0
 25 22  1  0  0  0  0
 28 29  1  0  0  0  0
 29 30  1  0  0  0  0
 29 31  2  0  0  0  0
 32 31  1  0  0  0  0
 32 33  1  0  0  0  0
 34 32  2  0  0  0  0
 35 34  1  0  0  0  0
 36 28  2  0  0  0  0
 36 34  1  0  0  0  0
M  END
>  <minimizedAffinity>
-5.60284328

$$$$
