
 OpenBabel03272509233D

 46 50  0  0  0  0  0  0  0  0999 V2000
   35.8970   29.0430   33.5580 C   0  0  0  0  0  0  0  0  0  0  0  0
   35.3230   30.2960   33.6450 C   0  0  0  0  0  0  0  0  0  0  0  0
   35.3160   31.0060   32.4380 C   0  0  0  0  0  0  0  0  0  0  0  0
   35.8500   30.4730   31.2570 C   0  0  0  0  0  0  0  0  0  0  0  0
   36.4120   29.1860   31.2810 C   0  0  0  0  0  0  0  0  0  0  0  0
   36.4290   28.4650   32.4620 C   0  0  0  0  0  0  0  0  0  0  0  0
   34.8820   32.0070   32.4090 H   0  0  0  0  0  0  0  0  0  0  0  0
   35.8390   31.0260   30.3360 H   0  0  0  0  0  0  0  0  0  0  0  0
   36.8200   28.7850   30.3620 H   0  0  0  0  0  0  0  0  0  0  0  0
   35.5800   31.6170   35.6890 C   0  0  0  0  0  0  0  0  0  0  0  0
   34.7800   30.8410   34.8420 C   0  0  0  0  0  0  0  0  0  0  0  0
   33.4500   30.6340   35.2260 C   0  0  0  0  0  0  0  0  0  0  0  0
   33.0270   31.1930   36.3820 N   0  0  0  0  0  0  0  0  0  0  0  0
   33.8260   31.9400   37.1780 C   0  0  0  0  0  0  0  0  0  0  0  0
   35.1050   32.1470   36.8230 N   0  0  0  0  0  0  0  0  0  0  0  0
   36.6150   31.7970   35.4210 H   0  0  0  0  0  0  0  0  0  0  0  0
   33.2650   32.2780   38.0430 H   0  0  0  0  0  0  0  0  0  0  0  0
   32.5460   29.8160   34.3660 C   0  0  0  0  0  0  0  0  0  0  0  0
   32.3900   30.2420   33.3760 H   0  0  0  0  0  0  0  0  0  0  0  0
   32.9780   28.7860   34.2920 H   0  0  0  0  0  0  0  0  0  0  0  0
   31.5860   29.7050   34.9070 H   0  0  0  0  0  0  0  0  0  0  0  0
   35.9560   28.2500   34.7060 O   0  0  0  0  0  0  0  0  0  0  0  0
   36.8790   28.1250   35.1100 H   0  0  0  0  0  0  0  0  0  0  0  0
   36.9970   27.2110   32.4060 O   0  0  0  0  0  0  0  0  0  0  0  0
   38.0130   25.9070   34.2720 C   0  0  0  0  0  0  0  0  0  0  0  0
   38.0330   26.7380   33.1680 C   0  0  0  0  0  0  0  0  0  0  0  0
   39.2570   27.2120   32.6920 C   0  0  0  0  0  0  0  0  0  0  0  0
   40.4510   26.8460   33.3320 C   0  0  0  0  0  0  0  0  0  0  0  0
   41.7490   27.1260   33.1240 N   0  0  0  0  0  0  0  0  0  0  0  0
   42.5100   26.5060   34.0470 C   0  0  0  0  0  0  0  0  0  0  0  0
   41.6520   25.8170   34.8570 N   0  0  0  0  0  0  0  0  0  0  0  0
   40.3920   26.0200   34.4250 C   0  0  0  0  0  0  0  0  0  0  0  0
   39.1840   25.5510   34.8950 C   0  0  0  0  0  0  0  0  0  0  0  0
   37.0190   25.6000   34.5560 H   0  0  0  0  0  0  0  0  0  0  0  0
   39.4170   27.8630   31.8450 H   0  0  0  0  0  0  0  0  0  0  0  0
   42.1230   27.7420   32.3510 H   0  0  0  0  0  0  0  0  0  0  0  0
   43.5930   26.5190   34.1680 H   0  0  0  0  0  0  0  0  0  0  0  0
   39.0990   24.6710   36.0580 C   0  0  0  0  0  0  0  0  0  0  0  0
   39.9000   23.5450   36.1230 C   0  0  0  0  0  0  0  0  0  0  0  0
   40.5900   23.3000   35.3320 H   0  0  0  0  0  0  0  0  0  0  0  0
   39.7730   22.7620   37.2390 C   0  0  0  0  0  3  0  0  0  0  0  0
   38.9260   22.9770   38.3120 C   0  0  0  0  0  0  0  0  0  0  0  0
   38.8880   22.3070   39.1570 H   0  0  0  0  0  0  0  0  0  0  0  0
   38.1370   24.1200   38.2050 C   0  0  0  0  0  0  0  0  0  0  0  0
   37.4540   24.3280   39.0310 H   0  0  0  0  0  0  0  0  0  0  0  0
   38.2130   24.9640   37.0990 C   0  0  0  0  0  3  0  0  0  0  0  0
  1  2  1  0  0  0  0
  1 22  1  0  0  0  0
  2 11  1  0  0  0  0
  3  2  2  0  0  0  0
  4  5  2  0  0  0  0
  4  3  1  0  0  0  0
  5  6  1  0  0  0  0
  6  1  2  0  0  0  0
  7  3  1  0  0  0  0
  8  4  1  0  0  0  0
  9  5  1  0  0  0  0
 10 15  1  0  0  0  0
 11 12  1  0  0  0  0
 11 10  2  0  0  0  0
 12 13  2  0  0  0  0
 13 14  1  0  0  0  0
 14 17  1  0  0  0  0
 15 14  2  0  0  0  0
 16 10  1  0  0  0  0
 18 21  1  0  0  0  0
 18 12  1  0  0  0  0
 19 18  1  0  0  0  0
 20 18  1  0  0  0  0
 22 23  1  0  0  0  0
 24  6  1  0  0  0  0
 24 26  1  0  0  0  0
 25 34  1  0  0  0  0
 25 33  1  0  0  0  0
 26 25  2  0  0  0  0
 27 26  1  0  0  0  0
 27 28  2  0  0  0  0
 28 32  1  0  0  0  0
 29 28  1  0  0  0  0
 29 30  1  0  0  0  0
 30 37  1  0  0  0  0
 30 31  2  0  0  0  0
 32 31  1  0  0  0  0
 32 33  2  0  0  0  0
 33 38  1  0  0  0  0
 35 27  1  0  0  0  0
 36 29  1  0  0  0  0
 38 39  2  0  0  0  0
 38 46  1  0  0  0  0
 39 41  1  0  0  0  0
 40 39  1  0  0  0  0
 41 42  2  0  0  0  0
 42 43  1  0  0  0  0
 44 42  1  0  0  0  0
 44 45  1  0  0  0  0
 46 44  2  0  0  0  0
M  END
>  <minimizedAffinity>
-6.97042513

$$$$

 OpenBabel03272509233D

 46 50  0  0  0  0  0  0  0  0999 V2000
   35.9220   29.0900   33.6430 C   0  0  0  0  0  0  0  0  0  0  0  0
   34.8390   29.9470   33.6730 C   0  0  0  0  0  0  0  0  0  0  0  0
   34.4590   30.4310   32.4150 C   0  0  0  0  0  0  0  0  0  0  0  0
   35.1330   30.0650   31.2420 C   0  0  0  0  0  0  0  0  0  0  0  0
   36.2250   29.1860   31.3260 C   0  0  0  0  0  0  0  0  0  0  0  0
   36.6180   28.6950   32.5590 C   0  0  0  0  0  0  0  0  0  0  0  0
   33.6120   31.1140   32.3380 H   0  0  0  0  0  0  0  0  0  0  0  0
   34.8340   30.4410   30.2800 H   0  0  0  0  0  0  0  0  0  0  0  0
   36.7370   28.9110   30.4130 H   0  0  0  0  0  0  0  0  0  0  0  0
   32.9650   29.6720   35.2220 C   0  0  0  0  0  0  0  0  0  0  0  0
   34.1510   30.3210   34.8610 C   0  0  0  0  0  0  0  0  0  0  0  0
   34.6140   31.3350   35.7090 C   0  0  0  0  0  0  0  0  0  0  0  0
   33.8890   31.6170   36.8150 N   0  0  0  0  0  0  0  0  0  0  0  0
   32.7460   30.9700   37.1370 C   0  0  0  0  0  0  0  0  0  0  0  0
   32.2900   29.9960   36.3320 N   0  0  0  0  0  0  0  0  0  0  0  0
   32.5790   28.8820   34.5870 H   0  0  0  0  0  0  0  0  0  0  0  0
   32.3480   31.3700   38.0630 H   0  0  0  0  0  0  0  0  0  0  0  0
   35.8720   32.0650   35.3800 C   0  0  0  0  0  0  0  0  0  0  0  0
   36.7510   31.4230   35.3610 H   0  0  0  0  0  0  0  0  0  0  0  0
   35.7280   32.5720   34.3920 H   0  0  0  0  0  0  0  0  0  0  0  0
   35.9880   32.8760   36.1250 H   0  0  0  0  0  0  0  0  0  0  0  0
   36.3830   28.5510   34.8460 O   0  0  0  0  0  0  0  0  0  0  0  0
   37.2750   28.9060   35.1770 H   0  0  0  0  0  0  0  0  0  0  0  0
   37.6970   27.8380   32.5610 O   0  0  0  0  0  0  0  0  0  0  0  0
   38.1990   25.9320   34.0880 C   0  0  0  0  0  0  0  0  0  0  0  0
   37.7050   26.5210   32.9390 C   0  0  0  0  0  0  0  0  0  0  0  0
   37.1090   25.7200   31.9640 C   0  0  0  0  0  0  0  0  0  0  0  0
   37.0150   24.3320   32.1530 C   0  0  0  0  0  0  0  0  0  0  0  0
   36.5130   23.3200   31.4240 N   0  0  0  0  0  0  0  0  0  0  0  0
   36.6790   22.1530   32.0780 C   0  0  0  0  0  0  0  0  0  0  0  0
   37.3080   22.4540   33.2530 N   0  0  0  0  0  0  0  0  0  0  0  0
   37.5150   23.7840   33.3060 C   0  0  0  0  0  0  0  0  0  0  0  0
   38.1030   24.5740   34.2690 C   0  0  0  0  0  0  0  0  0  0  0  0
   38.6370   26.6390   34.7740 H   0  0  0  0  0  0  0  0  0  0  0  0
   36.6850   26.0460   31.0250 H   0  0  0  0  0  0  0  0  0  0  0  0
   36.0540   23.4200   30.4780 H   0  0  0  0  0  0  0  0  0  0  0  0
   36.3910   21.1470   31.7740 H   0  0  0  0  0  0  0  0  0  0  0  0
   38.6430   24.0090   35.5040 C   0  0  0  0  0  0  0  0  0  0  0  0
   39.8650   23.3620   35.4840 C   0  0  0  0  0  0  0  0  0  0  0  0
   40.4330   23.2640   34.5730 H   0  0  0  0  0  0  0  0  0  0  0  0
   40.3140   22.8560   36.6730 C   0  0  0  0  0  3  0  0  0  0  0  0
   39.6740   22.9230   37.8990 C   0  0  0  0  0  0  0  0  0  0  0  0
   40.1010   22.4960   38.7930 H   0  0  0  0  0  0  0  0  0  0  0  0
   38.4480   23.5820   37.8740 C   0  0  0  0  0  0  0  0  0  0  0  0
   37.9080   23.6580   38.8210 H   0  0  0  0  0  0  0  0  0  0  0  0
   37.9270   24.1230   36.7000 C   0  0  0  0  0  3  0  0  0  0  0  0
  1  2  1  0  0  0  0
  1 22  1  0  0  0  0
  2 11  1  0  0  0  0
  3  2  2  0  0  0  0
  4  5  2  0  0  0  0
  4  3  1  0  0  0  0
  5  6  1  0  0  0  0
  6 24  1  0  0  0  0
  6  1  2  0  0  0  0
  7  3  1  0  0  0  0
  8  4  1  0  0  0  0
  9  5  1  0  0  0  0
 10 15  1  0  0  0  0
 11 10  2  0  0  0  0
 11 12  1  0  0  0  0
 12 13  2  0  0  0  0
 13 14  1  0  0  0  0
 14 17  1  0  0  0  0
 15 14  2  0  0  0  0
 16 10  1  0  0  0  0
 18 12  1  0  0  0  0
 18 21  1  0  0  0  0
 19 18  1  0  0  0  0
 20 18  1  0  0  0  0
 22 23  1  0  0  0  0
 24 26  1  0  0  0  0
 25 33  1  0  0  0  0
 25 34  1  0  0  0  0
 26 25  2  0  0  0  0
 27 28  2  0  0  0  0
 27 26  1  0  0  0  0
 28 32  1  0  0  0  0
 29 30  1  0  0  0  0
 29 28  1  0  0  0  0
 30 31  2  0  0  0  0
 31 32  1  0  0  0  0
 32 33  2  0  0  0  0
 33 38  1  0  0  0  0
 35 27  1  0  0  0  0
 36 29  1  0  0  0  0
 37 30  1  0  0  0  0
 38 46  1  0  0  0  0
 39 38  2  0  0  0  0
 39 41  1  0  0  0  0
 40 39  1  0  0  0  0
 41 42  2  0  0  0  0
 42 43  1  0  0  0  0
 44 42  1  0  0  0  0
 44 45  1  0  0  0  0
 46 44  2  0  0  0  0
M  END
>  <minimizedAffinity>
-6.79213476

$$$$

 OpenBabel03272509233D

 46 50  0  0  0  0  0  0  0  0999 V2000
   38.0320   25.9490   34.0350 C   0  0  0  0  0  0  0  0  0  0  0  0
   38.0600   24.5950   34.3030 C   0  0  0  0  0  0  0  0  0  0  0  0
   37.4920   23.8020   33.2990 C   0  0  0  0  0  0  0  0  0  0  0  0
   36.9460   24.3550   32.1320 C   0  0  0  0  0  0  0  0  0  0  0  0
   36.9690   25.7490   31.9610 C   0  0  0  0  0  0  0  0  0  0  0  0
   37.5260   26.5520   32.9400 C   0  0  0  0  0  0  0  0  0  0  0  0
   37.4690   22.7180   33.4210 H   0  0  0  0  0  0  0  0  0  0  0  0
   36.5120   23.7380   31.3670 H   0  0  0  0  0  0  0  0  0  0  0  0
   36.5450   26.1640   31.0560 H   0  0  0  0  0  0  0  0  0  0  0  0
   37.8190   23.8700   36.6280 C   0  0  0  0  0  0  0  0  0  0  0  0
   38.6130   24.0290   35.4860 C   0  0  0  0  0  0  0  0  0  0  0  0
   39.9470   23.6120   35.5670 C   0  0  0  0  0  0  0  0  0  0  0  0
   40.3780   23.0870   36.7350 N   0  0  0  0  0  0  0  0  0  0  0  0
   39.5850   22.9460   37.8220 C   0  0  0  0  0  0  0  0  0  0  0  0
   38.3030   23.3420   37.7590 N   0  0  0  0  0  0  0  0  0  0  0  0
   36.7810   24.1830   36.5990 H   0  0  0  0  0  0  0  0  0  0  0  0
   40.1520   22.5030   38.6330 H   0  0  0  0  0  0  0  0  0  0  0  0
   40.8440   23.7540   34.3840 C   0  0  0  0  0  0  0  0  0  0  0  0
   40.5190   23.1710   33.5240 H   0  0  0  0  0  0  0  0  0  0  0  0
   40.9070   24.8420   34.1270 H   0  0  0  0  0  0  0  0  0  0  0  0
   41.8620   23.4570   34.7040 H   0  0  0  0  0  0  0  0  0  0  0  0
   38.5730   26.8310   34.9730 O   0  0  0  0  0  0  0  0  0  0  0  0
   37.9050   27.3990   35.4840 H   0  0  0  0  0  0  0  0  0  0  0  0
   37.5110   27.9090   32.7010 O   0  0  0  0  0  0  0  0  0  0  0  0
   35.6380   29.0210   33.9150 C   0  0  0  0  0  0  0  0  0  0  0  0
   36.4410   28.7580   32.8220 C   0  0  0  0  0  0  0  0  0  0  0  0
   36.1910   29.4160   31.6170 C   0  0  0  0  0  0  0  0  0  0  0  0
   35.1340   30.3340   31.5220 C   0  0  0  0  0  0  0  0  0  0  0  0
   34.6500   31.1070   30.5330 N   0  0  0  0  0  0  0  0  0  0  0  0
   33.5970   31.8210   30.9780 C   0  0  0  0  0  0  0  0  0  0  0  0
   33.4220   31.4770   32.2890 N   0  0  0  0  0  0  0  0  0  0  0  0
   34.3580   30.5700   32.6280 C   0  0  0  0  0  0  0  0  0  0  0  0
   34.6050   29.9200   33.8180 C   0  0  0  0  0  0  0  0  0  0  0  0
   35.9170   28.4610   34.7930 H   0  0  0  0  0  0  0  0  0  0  0  0
   36.7360   29.3060   30.6900 H   0  0  0  0  0  0  0  0  0  0  0  0
   35.0350   31.1510   29.5510 H   0  0  0  0  0  0  0  0  0  0  0  0
   32.9760   32.5380   30.4420 H   0  0  0  0  0  0  0  0  0  0  0  0
   33.7900   30.1570   35.0080 C   0  0  0  0  0  0  0  0  0  0  0  0
   32.7240   29.3210   35.2840 C   0  0  0  0  0  0  0  0  0  0  0  0
   32.4770   28.4930   34.6390 H   0  0  0  0  0  0  0  0  0  0  0  0
   32.0010   29.5960   36.4130 C   0  0  0  0  0  3  0  0  0  0  0  0
   32.2240   30.6260   37.3110 C   0  0  0  0  0  0  0  0  0  0  0  0
   31.6040   30.7720   38.1820 H   0  0  0  0  0  0  0  0  0  0  0  0
   33.3070   31.4430   36.9960 C   0  0  0  0  0  0  0  0  0  0  0  0
   33.5190   32.2680   37.6790 H   0  0  0  0  0  0  0  0  0  0  0  0
   34.0880   31.2230   35.8620 C   0  0  0  0  0  3  0  0  0  0  0  0
  1  2  1  0  0  0  0
  1 22  1  0  0  0  0
  2 11  1  0  0  0  0
  3  7  1  0  0  0  0
  3  2  2  0  0  0  0
  4  3  1  0  0  0  0
  5  4  2  0  0  0  0
  5  6  1  0  0  0  0
  6  1  2  0  0  0  0
  8  4  1  0  0  0  0
  9  5  1  0  0  0  0
 10 15  1  0  0  0  0
 11 12  1  0  0  0  0
 11 10  2  0  0  0  0
 12 13  2  0  0  0  0
 13 14  1  0  0  0  0
 14 17  1  0  0  0  0
 15 14  2  0  0  0  0
 16 10  1  0  0  0  0
 18 21  1  0  0  0  0
 18 12  1  0  0  0  0
 19 18  1  0  0  0  0
 20 18  1  0  0  0  0
 22 23  1  0  0  0  0
 24 26  1  0  0  0  0
 24  6  1  0  0  0  0
 25 34  1  0  0  0  0
 26 25  2  0  0  0  0
 27 26  1  0  0  0  0
 28 27  2  0  0  0  0
 28 32  1  0  0  0  0
 29 30  1  0  0  0  0
 29 28  1  0  0  0  0
 30 31  2  0  0  0  0
 31 32  1  0  0  0  0
 32 33  2  0  0  0  0
 33 25  1  0  0  0  0
 33 38  1  0  0  0  0
 35 27  1  0  0  0  0
 36 29  1  0  0  0  0
 37 30  1  0  0  0  0
 38 39  2  0  0  0  0
 38 46  1  0  0  0  0
 39 41  1  0  0  0  0
 40 39  1  0  0  0  0
 41 42  2  0  0  0  0
 42 43  1  0  0  0  0
 44 42  1  0  0  0  0
 44 45  1  0  0  0  0
 46 44  2  0  0  0  0
M  END
>  <minimizedAffinity>
-6.65690231

$$$$

 OpenBabel03272509233D

 46 50  0  0  0  0  0  0  0  0999 V2000
   37.5360   24.6680   32.0060 C   0  0  0  0  0  0  0  0  0  0  0  0
   37.0720   23.4750   31.4870 C   0  0  0  0  0  0  0  0  0  0  0  0
   35.7580   23.5330   31.0080 C   0  0  0  0  0  0  0  0  0  0  0  0
   34.9970   24.7080   31.0620 C   0  0  0  0  0  0  0  0  0  0  0  0
   35.5680   25.8680   31.6130 C   0  0  0  0  0  0  0  0  0  0  0  0
   36.8650   25.8340   32.0910 C   0  0  0  0  0  0  0  0  0  0  0  0
   35.3050   22.6380   30.5780 H   0  0  0  0  0  0  0  0  0  0  0  0
   33.9880   24.7430   30.6920 H   0  0  0  0  0  0  0  0  0  0  0  0
   34.9700   26.7690   31.6480 H   0  0  0  0  0  0  0  0  0  0  0  0
   38.6430   22.0090   30.3150 C   0  0  0  0  0  0  0  0  0  0  0  0
   37.8410   22.2790   31.4300 C   0  0  0  0  0  0  0  0  0  0  0  0
   37.8340   21.3320   32.4610 C   0  0  0  0  0  0  0  0  0  0  0  0
   38.5980   20.2260   32.3140 N   0  0  0  0  0  0  0  0  0  0  0  0
   39.3640   19.9960   31.2230 C   0  0  0  0  0  0  0  0  0  0  0  0
   39.3800   20.8950   30.2250 N   0  0  0  0  0  0  0  0  0  0  0  0
   38.6710   22.7220   29.4980 H   0  0  0  0  0  0  0  0  0  0  0  0
   39.8820   19.0490   31.3340 H   0  0  0  0  0  0  0  0  0  0  0  0
   37.0010   21.5610   33.6770 C   0  0  0  0  0  0  0  0  0  0  0  0
   37.2920   22.4460   34.2390 H   0  0  0  0  0  0  0  0  0  0  0  0
   35.9310   21.6280   33.3540 H   0  0  0  0  0  0  0  0  0  0  0  0
   37.0730   20.6500   34.3030 H   0  0  0  0  0  0  0  0  0  0  0  0
   38.8370   24.7190   32.5110 O   0  0  0  0  0  0  0  0  0  0  0  0
   38.9160   24.7950   33.5210 H   0  0  0  0  0  0  0  0  0  0  0  0
   37.3550   27.0100   32.6160 O   0  0  0  0  0  0  0  0  0  0  0  0
   36.1160   28.8250   33.7930 C   0  0  0  0  0  0  0  0  0  0  0  0
   36.7030   28.2120   32.7020 C   0  0  0  0  0  0  0  0  0  0  0  0
   36.6690   28.8490   31.4610 C   0  0  0  0  0  0  0  0  0  0  0  0
   36.0430   30.0980   31.3270 C   0  0  0  0  0  0  0  0  0  0  0  0
   35.8480   30.9430   30.2990 N   0  0  0  0  0  0  0  0  0  0  0  0
   35.1750   32.0320   30.7170 C   0  0  0  0  0  0  0  0  0  0  0  0
   34.9430   31.8560   32.0520 N   0  0  0  0  0  0  0  0  0  0  0  0
   35.4730   30.6760   32.4320 C   0  0  0  0  0  0  0  0  0  0  0  0
   35.5060   30.0480   33.6580 C   0  0  0  0  0  0  0  0  0  0  0  0
   36.1990   28.2500   34.7010 H   0  0  0  0  0  0  0  0  0  0  0  0
   37.0840   28.4850   30.5320 H   0  0  0  0  0  0  0  0  0  0  0  0
   36.1740   30.7800   29.3070 H   0  0  0  0  0  0  0  0  0  0  0  0
   34.8540   32.9040   30.1480 H   0  0  0  0  0  0  0  0  0  0  0  0
   34.9040   30.6470   34.8470 C   0  0  0  0  0  0  0  0  0  0  0  0
   35.6670   31.4600   35.6650 C   0  0  0  0  0  0  0  0  0  0  0  0
   36.7030   31.6650   35.4450 H   0  0  0  0  0  0  0  0  0  0  0  0
   35.0440   31.9900   36.7620 C   0  0  0  0  0  3  0  0  0  0  0  0
   33.7270   31.7980   37.1420 C   0  0  0  0  0  0  0  0  0  0  0  0
   33.3120   32.2560   38.0270 H   0  0  0  0  0  0  0  0  0  0  0  0
   32.9950   30.9730   36.2920 C   0  0  0  0  0  0  0  0  0  0  0  0
   31.9500   30.7940   36.5540 H   0  0  0  0  0  0  0  0  0  0  0  0
   33.5630   30.3980   35.1560 C   0  0  0  0  0  3  0  0  0  0  0  0
  1  6  1  0  0  0  0
  1 22  1  0  0  0  0
  2  1  2  0  0  0  0
  3  4  2  0  0  0  0
  3  2  1  0  0  0  0
  4  5  1  0  0  0  0
  5  9  1  0  0  0  0
  5  6  2  0  0  0  0
  6 24  1  0  0  0  0
  7  3  1  0  0  0  0
  8  4  1  0  0  0  0
 10 11  1  0  0  0  0
 11  2  1  0  0  0  0
 11 12  2  0  0  0  0
 12 18  1  0  0  0  0
 13 12  1  0  0  0  0
 14 17  1  0  0  0  0
 14 13  2  0  0  0  0
 15 10  2  0  0  0  0
 15 14  1  0  0  0  0
 16 10  1  0  0  0  0
 18 19  1  0  0  0  0
 18 21  1  0  0  0  0
 20 18  1  0  0  0  0
 22 23  1  0  0  0  0
 24 26  1  0  0  0  0
 25 34  1  0  0  0  0
 26 25  2  0  0  0  0
 27 26  1  0  0  0  0
 28 27  2  0  0  0  0
 28 32  1  0  0  0  0
 29 30  1  0  0  0  0
 29 28  1  0  0  0  0
 30 31  2  0  0  0  0
 31 32  1  0  0  0  0
 32 33  2  0  0  0  0
 33 25  1  0  0  0  0
 33 38  1  0  0  0  0
 35 27  1  0  0  0  0
 36 29  1  0  0  0  0
 37 30  1  0  0  0  0
 38 46  2  0  0  0  0
 38 39  1  0  0  0  0
 39 41  2  0  0  0  0
 40 39  1  0  0  0  0
 41 42  1  0  0  0  0
 42 43  1  0  0  0  0
 44 45  1  0  0  0  0
 44 42  2  0  0  0  0
 46 44  1  0  0  0  0
M  END
>  <minimizedAffinity>
-6.58591938

$$$$

 OpenBabel03272509233D

 46 50  0  0  0  0  0  0  0  0999 V2000
   35.8790   29.0760   33.5440 C   0  0  0  0  0  0  0  0  0  0  0  0
   34.7820   29.9140   33.5790 C   0  0  0  0  0  0  0  0  0  0  0  0
   34.4600   30.4850   32.3420 C   0  0  0  0  0  0  0  0  0  0  0  0
   35.2000   30.2180   31.1830 C   0  0  0  0  0  0  0  0  0  0  0  0
   36.3020   29.3490   31.2600 C   0  0  0  0  0  0  0  0  0  0  0  0
   36.6380   28.7720   32.4720 C   0  0  0  0  0  0  0  0  0  0  0  0
   33.6060   31.1620   32.2710 H   0  0  0  0  0  0  0  0  0  0  0  0
   34.9450   30.6610   30.2380 H   0  0  0  0  0  0  0  0  0  0  0  0
   36.8650   29.1500   30.3580 H   0  0  0  0  0  0  0  0  0  0  0  0
   32.8680   29.4540   35.0340 C   0  0  0  0  0  0  0  0  0  0  0  0
   34.0270   30.1890   34.7540 C   0  0  0  0  0  0  0  0  0  0  0  0
   34.3940   31.1840   35.6670 C   0  0  0  0  0  0  0  0  0  0  0  0
   33.6110   31.3700   36.7540 N   0  0  0  0  0  0  0  0  0  0  0  0
   32.4970   30.6420   36.9960 C   0  0  0  0  0  0  0  0  0  0  0  0
   32.1320   29.6830   36.1290 N   0  0  0  0  0  0  0  0  0  0  0  0
   32.5560   28.6760   34.3470 H   0  0  0  0  0  0  0  0  0  0  0  0
   32.0400   30.9720   37.9230 H   0  0  0  0  0  0  0  0  0  0  0  0
   35.6180   32.0010   35.4250 C   0  0  0  0  0  0  0  0  0  0  0  0
   36.5340   31.4130   35.4130 H   0  0  0  0  0  0  0  0  0  0  0  0
   35.4830   32.5470   34.4580 H   0  0  0  0  0  0  0  0  0  0  0  0
   35.6560   32.7810   36.2120 H   0  0  0  0  0  0  0  0  0  0  0  0
   36.2870   28.4540   34.7260 O   0  0  0  0  0  0  0  0  0  0  0  0
   37.1540   28.7950   35.1300 H   0  0  0  0  0  0  0  0  0  0  0  0
   37.7300   27.9320   32.4680 O   0  0  0  0  0  0  0  0  0  0  0  0
   37.2230   25.4920   32.4000 C   0  0  0  0  0  0  0  0  0  0  0  0
   37.7960   26.6660   31.9480 C   0  0  0  0  0  0  0  0  0  0  0  0
   38.5790   26.6430   30.7930 C   0  0  0  0  0  0  0  0  0  0  0  0
   38.7780   25.4380   30.1010 C   0  0  0  0  0  0  0  0  0  0  0  0
   39.4570   25.0970   28.9910 N   0  0  0  0  0  0  0  0  0  0  0  0
   39.3200   23.7770   28.7540 C   0  0  0  0  0  0  0  0  0  0  0  0
   38.5280   23.2840   29.7520 N   0  0  0  0  0  0  0  0  0  0  0  0
   38.1930   24.2940   30.5780 C   0  0  0  0  0  0  0  0  0  0  0  0
   37.4200   24.3160   31.7190 C   0  0  0  0  0  0  0  0  0  0  0  0
   36.6400   25.6210   33.2970 H   0  0  0  0  0  0  0  0  0  0  0  0
   39.0830   27.4800   30.3330 H   0  0  0  0  0  0  0  0  0  0  0  0
   40.0170   25.7620   28.3910 H   0  0  0  0  0  0  0  0  0  0  0  0
   39.7350   23.1770   27.9450 H   0  0  0  0  0  0  0  0  0  0  0  0
   36.7870   23.1070   32.2440 C   0  0  0  0  0  0  0  0  0  0  0  0
   35.6020   22.6600   31.6900 C   0  0  0  0  0  0  0  0  0  0  0  0
   35.1300   23.1840   30.8750 H   0  0  0  0  0  0  0  0  0  0  0  0
   35.0620   21.5230   32.2270 C   0  0  0  0  0  3  0  0  0  0  0  0
   35.5760   20.7710   33.2690 C   0  0  0  0  0  0  0  0  0  0  0  0
   35.0840   19.8820   33.6330 H   0  0  0  0  0  0  0  0  0  0  0  0
   36.7700   21.2570   33.7980 C   0  0  0  0  0  0  0  0  0  0  0  0
   37.2110   20.6930   34.6220 H   0  0  0  0  0  0  0  0  0  0  0  0
   37.3780   22.4090   33.3010 C   0  0  0  0  0  3  0  0  0  0  0  0
  1  2  1  0  0  0  0
  1 22  1  0  0  0  0
  2 11  1  0  0  0  0
  3  2  2  0  0  0  0
  4  5  2  0  0  0  0
  4  3  1  0  0  0  0
  5  6  1  0  0  0  0
  6  1  2  0  0  0  0
  7  3  1  0  0  0  0
  8  4  1  0  0  0  0
  9  5  1  0  0  0  0
 10 15  1  0  0  0  0
 11 10  2  0  0  0  0
 11 12  1  0  0  0  0
 12 13  2  0  0  0  0
 13 14  1  0  0  0  0
 14 17  1  0  0  0  0
 15 14  2  0  0  0  0
 16 10  1  0  0  0  0
 18 12  1  0  0  0  0
 18 21  1  0  0  0  0
 19 18  1  0  0  0  0
 20 18  1  0  0  0  0
 22 23  1  0  0  0  0
 24  6  1  0  0  0  0
 25 34  1  0  0  0  0
 26 25  1  0  0  0  0
 26 24  1  0  0  0  0
 27 26  2  0  0  0  0
 28 32  2  0  0  0  0
 28 27  1  0  0  0  0
 29 28  1  0  0  0  0
 30 29  1  0  0  0  0
 30 31  2  0  0  0  0
 31 32  1  0  0  0  0
 32 33  1  0  0  0  0
 33 38  1  0  0  0  0
 33 25  2  0  0  0  0
 35 27  1  0  0  0  0
 36 29  1  0  0  0  0
 37 30  1  0  0  0  0
 38 46  1  0  0  0  0
 39 41  1  0  0  0  0
 39 38  2  0  0  0  0
 40 39  1  0  0  0  0
 41 42  2  0  0  0  0
 42 43  1  0  0  0  0
 42 44  1  0  0  0  0
 44 45  1  0  0  0  0
 46 44  2  0  0  0  0
M  END
>  <minimizedAffinity>
-6.45340061

$$$$

 OpenBabel03272509233D

 46 50  0  0  0  0  0  0  0  0999 V2000
   37.9940   26.1550   32.8300 C   0  0  0  0  0  0  0  0  0  0  0  0
   38.9010   25.4460   33.5930 C   0  0  0  0  0  0  0  0  0  0  0  0
   40.2350   25.8220   33.3900 C   0  0  0  0  0  0  0  0  0  0  0  0
   40.5950   26.8310   32.4860 C   0  0  0  0  0  0  0  0  0  0  0  0
   39.5890   27.4880   31.7580 C   0  0  0  0  0  0  0  0  0  0  0  0
   38.2650   27.1340   31.9440 C   0  0  0  0  0  0  0  0  0  0  0  0
   41.0240   25.3180   33.9490 H   0  0  0  0  0  0  0  0  0  0  0  0
   41.6220   27.1120   32.3370 H   0  0  0  0  0  0  0  0  0  0  0  0
   39.8800   28.2650   31.0640 H   0  0  0  0  0  0  0  0  0  0  0  0
   38.4740   23.0890   34.0890 C   0  0  0  0  0  0  0  0  0  0  0  0
   38.5400   24.4220   34.5120 C   0  0  0  0  0  0  0  0  0  0  0  0
   38.2390   24.6870   35.8530 C   0  0  0  0  0  0  0  0  0  0  0  0
   37.9060   23.6450   36.6470 N   0  0  0  0  0  0  0  0  0  0  0  0
   37.8520   22.3670   36.2080 C   0  0  0  0  0  0  0  0  0  0  0  0
   38.1380   22.0970   34.9240 N   0  0  0  0  0  0  0  0  0  0  0  0
   38.7010   22.8480   33.0570 H   0  0  0  0  0  0  0  0  0  0  0  0
   37.5630   21.7130   37.0240 H   0  0  0  0  0  0  0  0  0  0  0  0
   38.2920   26.0870   36.3640 C   0  0  0  0  0  0  0  0  0  0  0  0
   39.2840   26.5310   36.3050 H   0  0  0  0  0  0  0  0  0  0  0  0
   37.5500   26.6940   35.7870 H   0  0  0  0  0  0  0  0  0  0  0  0
   37.9240   26.0710   37.4100 H   0  0  0  0  0  0  0  0  0  0  0  0
   36.6350   25.8590   32.9560 O   0  0  0  0  0  0  0  0  0  0  0  0
   36.2110   25.3840   32.1650 H   0  0  0  0  0  0  0  0  0  0  0  0
   37.3360   27.8240   31.1950 O   0  0  0  0  0  0  0  0  0  0  0  0
   36.1870   29.3780   32.7700 C   0  0  0  0  0  0  0  0  0  0  0  0
   36.6850   28.9780   31.5440 C   0  0  0  0  0  0  0  0  0  0  0  0
   36.5420   29.8220   30.4410 C   0  0  0  0  0  0  0  0  0  0  0  0
   35.8990   31.0610   30.5820 C   0  0  0  0  0  0  0  0  0  0  0  0
   35.6130   32.0680   29.7380 N   0  0  0  0  0  0  0  0  0  0  0  0
   34.9690   33.0530   30.3950 C   0  0  0  0  0  0  0  0  0  0  0  0
   34.8520   32.6400   31.6920 N   0  0  0  0  0  0  0  0  0  0  0  0
   35.4190   31.4240   31.8130 C   0  0  0  0  0  0  0  0  0  0  0  0
   35.5600   30.5920   32.9020 C   0  0  0  0  0  0  0  0  0  0  0  0
   36.3500   28.6540   33.5520 H   0  0  0  0  0  0  0  0  0  0  0  0
   36.8810   29.6350   29.4320 H   0  0  0  0  0  0  0  0  0  0  0  0
   35.8550   32.0890   28.7100 H   0  0  0  0  0  0  0  0  0  0  0  0
   34.5950   34.0040   30.0160 H   0  0  0  0  0  0  0  0  0  0  0  0
   35.0550   30.9600   34.2240 C   0  0  0  0  0  0  0  0  0  0  0  0
   33.7610   30.6240   34.5790 C   0  0  0  0  0  0  0  0  0  0  0  0
   33.1120   30.0940   33.9010 H   0  0  0  0  0  0  0  0  0  0  0  0
   33.3500   30.9970   35.8300 C   0  0  0  0  0  3  0  0  0  0  0  0
   34.0920   31.6770   36.7800 C   0  0  0  0  0  0  0  0  0  0  0  0
   33.6890   31.9330   37.7480 H   0  0  0  0  0  0  0  0  0  0  0  0
   35.3880   31.9960   36.3810 C   0  0  0  0  0  0  0  0  0  0  0  0
   36.0090   32.5330   37.1010 H   0  0  0  0  0  0  0  0  0  0  0  0
   35.8750   31.6480   35.1220 C   0  0  0  0  0  3  0  0  0  0  0  0
  1 22  1  0  0  0  0
  1  2  1  0  0  0  0
  2 11  1  0  0  0  0
  3  2  2  0  0  0  0
  3  7  1  0  0  0  0
  4  3  1  0  0  0  0
  5  6  1  0  0  0  0
  5  4  2  0  0  0  0
  6  1  2  0  0  0  0
  8  4  1  0  0  0  0
  9  5  1  0  0  0  0
 10 11  2  0  0  0  0
 10 15  1  0  0  0  0
 11 12  1  0  0  0  0
 12 18  1  0  0  0  0
 12 13  2  0  0  0  0
 14 13  1  0  0  0  0
 14 17  1  0  0  0  0
 15 14  2  0  0  0  0
 16 10  1  0  0  0  0
 18 21  1  0  0  0  0
 19 18  1  0  0  0  0
 20 18  1  0  0  0  0
 23 22  1  0  0  0  0
 24 26  1  0  0  0  0
 24  6  1  0  0  0  0
 25 33  1  0  0  0  0
 25 34  1  0  0  0  0
 26 25  2  0  0  0  0
 27 28  2  0  0  0  0
 27 26  1  0  0  0  0
 28 32  1  0  0  0  0
 29 30  1  0  0  0  0
 29 28  1  0  0  0  0
 30 31  2  0  0  0  0
 31 32  1  0  0  0  0
 32 33  2  0  0  0  0
 33 38  1  0  0  0  0
 35 27  1  0  0  0  0
 36 29  1  0  0  0  0
 37 30  1  0  0  0  0
 38 39  2  0  0  0  0
 38 46  1  0  0  0  0
 39 41  1  0  0  0  0
 40 39  1  0  0  0  0
 41 42  2  0  0  0  0
 42 43  1  0  0  0  0
 44 42  1  0  0  0  0
 44 45  1  0  0  0  0
 46 44  2  0  0  0  0
M  END
>  <minimizedAffinity>
-6.32079077

$$$$

 OpenBabel03272509233D

 46 50  0  0  0  0  0  0  0  0999 V2000
   39.3010   27.1100   32.6270 C   0  0  0  0  0  0  0  0  0  0  0  0
   40.6140   26.9140   33.0100 C   0  0  0  0  0  0  0  0  0  0  0  0
   40.7900   26.7730   34.3910 C   0  0  0  0  0  0  0  0  0  0  0  0
   39.7160   26.8280   35.2890 C   0  0  0  0  0  0  0  0  0  0  0  0
   38.4180   27.0320   34.7910 C   0  0  0  0  0  0  0  0  0  0  0  0
   38.2200   27.1740   33.4290 C   0  0  0  0  0  0  0  0  0  0  0  0
   41.7940   26.6140   34.7890 H   0  0  0  0  0  0  0  0  0  0  0  0
   39.8610   26.7180   36.3480 H   0  0  0  0  0  0  0  0  0  0  0  0
   37.5970   27.0730   35.4940 H   0  0  0  0  0  0  0  0  0  0  0  0
   42.4240   28.0190   31.7880 C   0  0  0  0  0  0  0  0  0  0  0  0
   41.7080   26.8570   32.1020 C   0  0  0  0  0  0  0  0  0  0  0  0
   42.1150   25.6660   31.4890 C   0  0  0  0  0  0  0  0  0  0  0  0
   43.1660   25.7140   30.6410 N   0  0  0  0  0  0  0  0  0  0  0  0
   43.8380   26.8540   30.3590 C   0  0  0  0  0  0  0  0  0  0  0  0
   43.4590   28.0050   30.9380 N   0  0  0  0  0  0  0  0  0  0  0  0
   42.1350   28.9590   32.2450 H   0  0  0  0  0  0  0  0  0  0  0  0
   44.6360   26.6420   29.6560 H   0  0  0  0  0  0  0  0  0  0  0  0
   41.3930   24.3940   31.7830 C   0  0  0  0  0  0  0  0  0  0  0  0
   41.4520   24.0960   32.8280 H   0  0  0  0  0  0  0  0  0  0  0  0
   40.3270   24.5210   31.4650 H   0  0  0  0  0  0  0  0  0  0  0  0
   41.8170   23.6130   31.1210 H   0  0  0  0  0  0  0  0  0  0  0  0
   39.0140   27.2630   31.2690 O   0  0  0  0  0  0  0  0  0  0  0  0
   38.7420   28.1970   30.9770 H   0  0  0  0  0  0  0  0  0  0  0  0
   36.9200   27.3720   33.0170 O   0  0  0  0  0  0  0  0  0  0  0  0
   35.6810   29.2060   34.1640 C   0  0  0  0  0  0  0  0  0  0  0  0
   36.2040   28.5390   33.0720 C   0  0  0  0  0  0  0  0  0  0  0  0
   36.0160   29.0680   31.7950 C   0  0  0  0  0  0  0  0  0  0  0  0
   35.3030   30.2650   31.6260 C   0  0  0  0  0  0  0  0  0  0  0  0
   34.9620   31.0100   30.5600 N   0  0  0  0  0  0  0  0  0  0  0  0
   34.2620   32.0910   30.9560 C   0  0  0  0  0  0  0  0  0  0  0  0
   34.1650   32.0130   32.3160 N   0  0  0  0  0  0  0  0  0  0  0  0
   34.8000   30.9000   32.7330 C   0  0  0  0  0  0  0  0  0  0  0  0
   34.9860   30.3780   33.9940 C   0  0  0  0  0  0  0  0  0  0  0  0
   35.8830   28.7130   35.1010 H   0  0  0  0  0  0  0  0  0  0  0  0
   36.3670   28.6530   30.8610 H   0  0  0  0  0  0  0  0  0  0  0  0
   35.2050   30.7850   29.5570 H   0  0  0  0  0  0  0  0  0  0  0  0
   33.8360   32.8940   30.3550 H   0  0  0  0  0  0  0  0  0  0  0  0
   34.4570   31.0380   35.1870 C   0  0  0  0  0  0  0  0  0  0  0  0
   33.1630   30.7750   35.5970 C   0  0  0  0  0  0  0  0  0  0  0  0
   32.5300   30.0900   35.0560 H   0  0  0  0  0  0  0  0  0  0  0  0
   32.7290   31.4250   36.7200 C   0  0  0  0  0  3  0  0  0  0  0  0
   33.4490   32.3200   37.4920 C   0  0  0  0  0  0  0  0  0  0  0  0
   33.0290   32.7900   38.3680 H   0  0  0  0  0  0  0  0  0  0  0  0
   34.7460   32.5570   37.0430 C   0  0  0  0  0  0  0  0  0  0  0  0
   35.3500   33.2570   37.6240 H   0  0  0  0  0  0  0  0  0  0  0  0
   35.2560   31.9300   35.9070 C   0  0  0  0  0  3  0  0  0  0  0  0
  1  2  2  0  0  0  0
  1  6  1  0  0  0  0
  2  3  1  0  0  0  0
  3  7  1  0  0  0  0
  3  4  2  0  0  0  0
  4  8  1  0  0  0  0
  5  4  1  0  0  0  0
  5  9  1  0  0  0  0
  6  5  2  0  0  0  0
 10 11  1  0  0  0  0
 10 16  1  0  0  0  0
 11  2  1  0  0  0  0
 12 18  1  0  0  0  0
 12 11  2  0  0  0  0
 13 12  1  0  0  0  0
 14 13  2  0  0  0  0
 14 15  1  0  0  0  0
 15 10  2  0  0  0  0
 17 14  1  0  0  0  0
 18 19  1  0  0  0  0
 20 18  1  0  0  0  0
 21 18  1  0  0  0  0
 22  1  1  0  0  0  0
 23 22  1  0  0  0  0
 24 26  1  0  0  0  0
 24  6  1  0  0  0  0
 25 34  1  0  0  0  0
 26 25  2  0  0  0  0
 27 26  1  0  0  0  0
 28 27  2  0  0  0  0
 28 32  1  0  0  0  0
 29 30  1  0  0  0  0
 29 28  1  0  0  0  0
 30 31  2  0  0  0  0
 31 32  1  0  0  0  0
 32 33  2  0  0  0  0
 33 25  1  0  0  0  0
 33 38  1  0  0  0  0
 35 27  1  0  0  0  0
 36 29  1  0  0  0  0
 37 30  1  0  0  0  0
 38 39  2  0  0  0  0
 38 46  1  0  0  0  0
 39 41  1  0  0  0  0
 40 39  1  0  0  0  0
 41 42  2  0  0  0  0
 42 43  1  0  0  0  0
 44 42  1  0  0  0  0
 44 45  1  0  0  0  0
 46 44  2  0  0  0  0
M  END
>  <minimizedAffinity>
-6.26722479

$$$$

 OpenBabel03272509233D

 46 50  0  0  0  0  0  0  0  0999 V2000
   35.9380   28.8440   32.0340 C   0  0  0  0  0  0  0  0  0  0  0  0
   35.2590   29.9200   32.5730 C   0  0  0  0  0  0  0  0  0  0  0  0
   35.3080   29.9840   33.9700 C   0  0  0  0  0  0  0  0  0  0  0  0
   35.9910   29.0300   34.7370 C   0  0  0  0  0  0  0  0  0  0  0  0
   36.6490   27.9740   34.0860 C   0  0  0  0  0  0  0  0  0  0  0  0
   36.6150   27.8900   32.7050 C   0  0  0  0  0  0  0  0  0  0  0  0
   34.8000   30.8010   34.4860 H   0  0  0  0  0  0  0  0  0  0  0  0
   36.0230   29.0890   35.8100 H   0  0  0  0  0  0  0  0  0  0  0  0
   37.1730   27.2440   34.6880 H   0  0  0  0  0  0  0  0  0  0  0  0
   33.1940   30.7450   31.5510 C   0  0  0  0  0  0  0  0  0  0  0  0
   34.5640   30.8910   31.7990 C   0  0  0  0  0  0  0  0  0  0  0  0
   35.1990   32.0140   31.2560 C   0  0  0  0  0  0  0  0  0  0  0  0
   34.4530   32.8800   30.5350 N   0  0  0  0  0  0  0  0  0  0  0  0
   33.1290   32.7100   30.3140 C   0  0  0  0  0  0  0  0  0  0  0  0
   32.5060   31.6370   30.8270 N   0  0  0  0  0  0  0  0  0  0  0  0
   32.6710   29.8850   31.9560 H   0  0  0  0  0  0  0  0  0  0  0  0
   32.7520   33.5300   29.7120 H   0  0  0  0  0  0  0  0  0  0  0  0
   36.6580   32.2270   31.4850 C   0  0  0  0  0  0  0  0  0  0  0  0
   36.9160   32.3550   32.5350 H   0  0  0  0  0  0  0  0  0  0  0  0
   37.2070   31.3570   31.0440 H   0  0  0  0  0  0  0  0  0  0  0  0
   36.9600   33.1110   30.8890 H   0  0  0  0  0  0  0  0  0  0  0  0
   35.9520   28.6850   30.6470 O   0  0  0  0  0  0  0  0  0  0  0  0
   35.4010   27.9130   30.2850 H   0  0  0  0  0  0  0  0  0  0  0  0
   37.2830   26.8260   32.1390 O   0  0  0  0  0  0  0  0  0  0  0  0
   38.1370   25.1300   33.7550 C   0  0  0  0  0  0  0  0  0  0  0  0
   37.4170   25.5650   32.6570 C   0  0  0  0  0  0  0  0  0  0  0  0
   36.6890   24.6390   31.9080 C   0  0  0  0  0  0  0  0  0  0  0  0
   36.6920   23.2830   32.2690 C   0  0  0  0  0  0  0  0  0  0  0  0
   36.1100   22.1790   31.7670 N   0  0  0  0  0  0  0  0  0  0  0  0
   36.4440   21.1040   32.5080 C   0  0  0  0  0  0  0  0  0  0  0  0
   37.2620   21.5580   33.5040 N   0  0  0  0  0  0  0  0  0  0  0  0
   37.4170   22.8890   33.3640 C   0  0  0  0  0  0  0  0  0  0  0  0
   38.1350   23.8020   34.1050 C   0  0  0  0  0  0  0  0  0  0  0  0
   38.6620   25.9240   34.2610 H   0  0  0  0  0  0  0  0  0  0  0  0
   36.0880   24.8400   31.0330 H   0  0  0  0  0  0  0  0  0  0  0  0
   35.4830   22.1540   30.9180 H   0  0  0  0  0  0  0  0  0  0  0  0
   36.1500   20.0620   32.3810 H   0  0  0  0  0  0  0  0  0  0  0  0
   38.9150   23.4030   35.2750 C   0  0  0  0  0  0  0  0  0  0  0  0
   40.2390   23.0360   35.1220 C   0  0  0  0  0  0  0  0  0  0  0  0
   40.7150   23.0390   34.1540 H   0  0  0  0  0  0  0  0  0  0  0  0
   40.9130   22.6740   36.2560 C   0  0  0  0  0  3  0  0  0  0  0  0
   40.4090   22.6340   37.5440 C   0  0  0  0  0  0  0  0  0  0  0  0
   41.0130   22.3350   38.3880 H   0  0  0  0  0  0  0  0  0  0  0  0
   39.0730   23.0090   37.6530 C   0  0  0  0  0  0  0  0  0  0  0  0
   38.6340   22.9920   38.6540 H   0  0  0  0  0  0  0  0  0  0  0  0
   38.3240   23.3910   36.5410 C   0  0  0  0  0  3  0  0  0  0  0  0
  1  2  2  0  0  0  0
  1  6  1  0  0  0  0
  2  3  1  0  0  0  0
  3  7  1  0  0  0  0
  3  4  2  0  0  0  0
  4  8  1  0  0  0  0
  5  9  1  0  0  0  0
  5  4  1  0  0  0  0
  6  5  2  0  0  0  0
 10 11  1  0  0  0  0
 10 16  1  0  0  0  0
 11  2  1  0  0  0  0
 12 18  1  0  0  0  0
 12 11  2  0  0  0  0
 13 12  1  0  0  0  0
 14 13  2  0  0  0  0
 14 15  1  0  0  0  0
 15 10  2  0  0  0  0
 17 14  1  0  0  0  0
 18 19  1  0  0  0  0
 20 18  1  0  0  0  0
 21 18  1  0  0  0  0
 22  1  1  0  0  0  0
 23 22  1  0  0  0  0
 24 26  1  0  0  0  0
 24  6  1  0  0  0  0
 25 33  1  0  0  0  0
 25 34  1  0  0  0  0
 26 25  2  0  0  0  0
 27 28  2  0  0  0  0
 27 26  1  0  0  0  0
 28 32  1  0  0  0  0
 29 28  1  0  0  0  0
 29 30  1  0  0  0  0
 30 31  2  0  0  0  0
 32 31  1  0  0  0  0
 32 33  2  0  0  0  0
 33 38  1  0  0  0  0
 35 27  1  0  0  0  0
 36 29  1  0  0  0  0
 37 30  1  0  0  0  0
 38 46  1  0  0  0  0
 39 38  2  0  0  0  0
 39 41  1  0  0  0  0
 40 39  1  0  0  0  0
 41 42  2  0  0  0  0
 42 44  1  0  0  0  0
 42 43  1  0  0  0  0
 44 45  1  0  0  0  0
 46 44  2  0  0  0  0
M  END
>  <minimizedAffinity>
-6.23026323

$$$$

 OpenBabel03272509233D

 46 50  0  0  0  0  0  0  0  0999 V2000
   38.1190   28.6490   30.6760 C   0  0  0  0  0  0  0  0  0  0  0  0
   37.2260   29.6130   30.2530 C   0  0  0  0  0  0  0  0  0  0  0  0
   35.9850   29.5640   30.8980 C   0  0  0  0  0  0  0  0  0  0  0  0
   35.6940   28.6120   31.8840 C   0  0  0  0  0  0  0  0  0  0  0  0
   36.6780   27.6740   32.2400 C   0  0  0  0  0  0  0  0  0  0  0  0
   37.9130   27.7040   31.6150 C   0  0  0  0  0  0  0  0  0  0  0  0
   35.2130   30.2880   30.6300 H   0  0  0  0  0  0  0  0  0  0  0  0
   34.7390   28.5830   32.3750 H   0  0  0  0  0  0  0  0  0  0  0  0
   36.4420   26.9440   33.0030 H   0  0  0  0  0  0  0  0  0  0  0  0
   37.7420   30.1820   27.9290 C   0  0  0  0  0  0  0  0  0  0  0  0
   37.5160   30.5820   29.2520 C   0  0  0  0  0  0  0  0  0  0  0  0
   37.5890   31.9520   29.5310 C   0  0  0  0  0  0  0  0  0  0  0  0
   37.8720   32.7940   28.5120 N   0  0  0  0  0  0  0  0  0  0  0  0
   38.0840   32.3760   27.2440 C   0  0  0  0  0  0  0  0  0  0  0  0
   38.0170   31.0650   26.9600 N   0  0  0  0  0  0  0  0  0  0  0  0
   37.6920   29.1290   27.6790 H   0  0  0  0  0  0  0  0  0  0  0  0
   38.2910   33.2300   26.6080 H   0  0  0  0  0  0  0  0  0  0  0  0
   37.3580   32.4410   30.9210 C   0  0  0  0  0  0  0  0  0  0  0  0
   36.3570   32.2290   31.2920 H   0  0  0  0  0  0  0  0  0  0  0  0
   38.1340   31.9800   31.5830 H   0  0  0  0  0  0  0  0  0  0  0  0
   37.5620   33.5300   30.9260 H   0  0  0  0  0  0  0  0  0  0  0  0
   39.3890   28.6080   30.0960 O   0  0  0  0  0  0  0  0  0  0  0  0
   39.5660   27.8250   29.4750 H   0  0  0  0  0  0  0  0  0  0  0  0
   38.8250   26.7520   32.0160 O   0  0  0  0  0  0  0  0  0  0  0  0
   38.7260   25.3090   34.0480 C   0  0  0  0  0  0  0  0  0  0  0  0
   38.5650   25.5960   32.7050 C   0  0  0  0  0  0  0  0  0  0  0  0
   38.0650   24.6110   31.8520 C   0  0  0  0  0  0  0  0  0  0  0  0
   37.7330   23.3440   32.3570 C   0  0  0  0  0  0  0  0  0  0  0  0
   37.2440   22.2170   31.8110 N   0  0  0  0  0  0  0  0  0  0  0  0
   37.1040   21.2680   32.7580 C   0  0  0  0  0  0  0  0  0  0  0  0
   37.5220   21.8270   33.9320 N   0  0  0  0  0  0  0  0  0  0  0  0
   37.9060   23.0970   33.6950 C   0  0  0  0  0  0  0  0  0  0  0  0
   38.3990   24.0690   34.5370 C   0  0  0  0  0  0  0  0  0  0  0  0
   39.1180   26.1380   34.6160 H   0  0  0  0  0  0  0  0  0  0  0  0
   37.8900   24.6990   30.7900 H   0  0  0  0  0  0  0  0  0  0  0  0
   37.0040   22.0890   30.7900 H   0  0  0  0  0  0  0  0  0  0  0  0
   36.7380   20.2460   32.6590 H   0  0  0  0  0  0  0  0  0  0  0  0
   38.5920   23.8250   35.9660 C   0  0  0  0  0  0  0  0  0  0  0  0
   39.6860   23.0960   36.3930 C   0  0  0  0  0  0  0  0  0  0  0  0
   40.4060   22.7010   35.6940 H   0  0  0  0  0  0  0  0  0  0  0  0
   39.8090   22.9040   37.7420 C   0  0  0  0  0  3  0  0  0  0  0  0
   38.9520   23.3620   38.7280 C   0  0  0  0  0  0  0  0  0  0  0  0
   39.1240   23.1650   39.7750 H   0  0  0  0  0  0  0  0  0  0  0  0
   37.8640   24.0900   38.2540 C   0  0  0  0  0  0  0  0  0  0  0  0
   37.1620   24.4710   38.9990 H   0  0  0  0  0  0  0  0  0  0  0  0
   37.6740   24.3260   36.8930 C   0  0  0  0  0  3  0  0  0  0  0  0
  1  6  1  0  0  0  0
  2  1  2  0  0  0  0
  2  3  1  0  0  0  0
  3  4  2  0  0  0  0
  4  5  1  0  0  0  0
  4  8  1  0  0  0  0
  5  9  1  0  0  0  0
  6 24  1  0  0  0  0
  6  5  2  0  0  0  0
  7  3  1  0  0  0  0
 10 11  1  0  0  0  0
 11 12  2  0  0  0  0
 11  2  1  0  0  0  0
 12 18  1  0  0  0  0
 13 12  1  0  0  0  0
 14 13  2  0  0  0  0
 15 14  1  0  0  0  0
 15 10  2  0  0  0  0
 16 10  1  0  0  0  0
 17 14  1  0  0  0  0
 18 21  1  0  0  0  0
 18 19  1  0  0  0  0
 18 20  1  0  0  0  0
 22  1  1  0  0  0  0
 23 22  1  0  0  0  0
 24 26  1  0  0  0  0
 25 33  1  0  0  0  0
 25 34  1  0  0  0  0
 26 25  2  0  0  0  0
 27 28  2  0  0  0  0
 27 26  1  0  0  0  0
 28 32  1  0  0  0  0
 29 28  1  0  0  0  0
 29 30  1  0  0  0  0
 30 31  2  0  0  0  0
 32 31  1  0  0  0  0
 32 33  2  0  0  0  0
 33 38  1  0  0  0  0
 35 27  1  0  0  0  0
 36 29  1  0  0  0  0
 37 30  1  0  0  0  0
 38 39  2  0  0  0  0
 38 46  1  0  0  0  0
 39 41  1  0  0  0  0
 40 39  1  0  0  0  0
 41 42  2  0  0  0  0
 42 43  1  0  0  0  0
 44 42  1  0  0  0  0
 44 45  1  0  0  0  0
 46 44  2  0  0  0  0
M  END
>  <minimizedAffinity>
-6.19767523

$$$$
