
 OpenBabel03272509393D

 30 32  0  0  1  0  0  0  0  0999 V2000
   39.0320   26.3330   34.1470 C   0  0  0  0  0  0  0  0  0  0  0  0
   40.2480   26.9360   34.4500 C   0  0  0  0  0  0  0  0  0  0  0  0
   41.1470   27.3610   33.4770 C   0  0  0  0  0  0  0  0  0  0  0  0
   40.8230   27.1800   32.1380 C   0  0  0  0  0  0  0  0  0  0  0  0
   39.6000   26.5760   31.8410 C   0  0  0  0  0  0  0  0  0  0  0  0
   38.7270   26.1620   32.8280 C   0  0  0  0  0  0  0  0  0  0  0  0
   40.5170   27.0850   35.5030 H   0  0  0  0  0  0  0  0  0  0  0  0
   42.0610   27.8150   33.8140 H   0  0  0  0  0  0  0  0  0  0  0  0
   41.5340   27.5170   31.4120 H   0  0  0  0  0  0  0  0  0  0  0  0
   39.4570   26.4890   30.7730 H   0  0  0  0  0  0  0  0  0  0  0  0
   37.5520   25.5290   32.2700 C   0  0  0  0  0  0  0  0  0  0  0  0
   36.6090   26.4020   31.6980 C   0  0  0  0  0  0  0  0  0  0  0  0
   36.7800   27.4860   31.7180 H   0  0  0  0  0  0  0  0  0  0  0  0
   35.4340   26.0230   31.0870 C   0  0  0  0  0  3  0  0  0  0  0  0
   35.1340   24.6800   31.0160 C   0  0  0  0  0  0  0  0  0  0  0  0
   34.2500   24.2860   30.5630 H   0  0  0  0  0  0  0  0  0  0  0  0
   36.0290   23.7860   31.5620 C   0  0  0  0  0  0  0  0  0  0  0  0
   35.8970   22.7040   31.5650 H   0  0  0  0  0  0  0  0  0  0  0  0
   37.1880   24.2030   32.1620 C   0  0  0  0  0  3  0  0  0  0  0  0
   38.1680   25.9300   35.2330 C   0  0  1  0  0  3  0  0  0  0  0  0
   37.0420   26.5530   35.2550 O   0  0  0  0  0  1  0  0  0  0  0  0
   38.0560   24.2630   38.4540 C   0  0  0  0  0  0  0  0  0  0  0  0
   38.8560   23.1460   38.2800 C   0  0  0  0  0  0  0  0  0  0  0  0
   39.4490   22.9610   37.0530 C   0  0  0  0  0  0  0  0  0  0  0  0
   39.2370   23.8670   36.0530 N   0  0  0  0  0  0  0  0  0  0  0  0
   38.4690   24.9270   36.2370 C   0  0  0  0  0  0  0  0  0  0  0  0
   37.9070   25.0880   37.4310 N   0  0  0  0  0  0  0  0  0  0  0  0
   37.5790   24.4310   39.4140 H   0  0  0  0  0  0  0  0  0  0  0  0
   38.9870   22.4690   39.0980 H   0  0  0  0  0  0  0  0  0  0  0  0
   40.0700   22.1060   36.8980 H   0  0  0  0  0  0  0  0  0  0  0  0
  1  2  1  0  0  0  0
  1 20  1  0  0  0  0
  2  7  1  0  0  0  0
  3  8  1  0  0  0  0
  3  2  2  0  0  0  0
  4  3  1  0  0  0  0
  5  4  2  0  0  0  0
  5  6  1  0  0  0  0
  6  1  2  0  0  0  0
  9  4  1  0  0  0  0
 10  5  1  0  0  0  0
 11  6  1  0  0  0  0
 12 13  1  0  0  0  0
 12 11  2  0  0  0  0
 14 12  1  0  0  0  0
 15 14  2  0  0  0  0
 15 17  1  0  0  0  0
 16 15  1  0  0  0  0
 17 18  1  0  0  0  0
 17 19  2  0  0  0  0
 19 11  1  0  0  0  0
 20 21  1  6  0  0  0
 20 26  1  0  0  0  0
 22 28  1  0  0  0  0
 23 22  1  0  0  0  0
 23 29  1  0  0  0  0
 24 23  2  0  0  0  0
 25 26  2  0  0  0  0
 25 24  1  0  0  0  0
 26 27  1  0  0  0  0
 27 22  2  0  0  0  0
 30 24  1  0  0  0  0
M  END
>  <minimizedAffinity>
-5.52445555

$$$$

 OpenBabel03272509393D

 30 32  0  0  1  0  0  0  0  0999 V2000
   37.7720   25.3010   33.5590 C   0  0  0  0  0  0  0  0  0  0  0  0
   37.1230   26.3230   32.8730 C   0  0  0  0  0  0  0  0  0  0  0  0
   36.8120   27.5480   33.4550 C   0  0  0  0  0  0  0  0  0  0  0  0
   37.1620   27.7700   34.7820 C   0  0  0  0  0  0  0  0  0  0  0  0
   37.8150   26.7400   35.4630 C   0  0  0  0  0  0  0  0  0  0  0  0
   38.1100   25.5340   34.8600 C   0  0  0  0  0  0  0  0  0  0  0  0
   36.8400   26.1620   31.8260 H   0  0  0  0  0  0  0  0  0  0  0  0
   36.3090   28.2720   32.8420 H   0  0  0  0  0  0  0  0  0  0  0  0
   36.9100   28.7210   35.2020 H   0  0  0  0  0  0  0  0  0  0  0  0
   38.0370   27.0260   36.4820 H   0  0  0  0  0  0  0  0  0  0  0  0
   38.7470   24.6180   35.7820 C   0  0  0  0  0  0  0  0  0  0  0  0
   38.0360   24.3640   36.9690 C   0  0  0  0  0  0  0  0  0  0  0  0
   37.0790   24.8670   37.1550 H   0  0  0  0  0  0  0  0  0  0  0  0
   38.4350   23.5090   37.9740 C   0  0  0  0  0  3  0  0  0  0  0  0
   39.6270   22.8330   37.8270 C   0  0  0  0  0  0  0  0  0  0  0  0
   40.0210   22.1500   38.5470 H   0  0  0  0  0  0  0  0  0  0  0  0
   40.3580   23.0500   36.6790 C   0  0  0  0  0  0  0  0  0  0  0  0
   41.3120   22.5730   36.4550 H   0  0  0  0  0  0  0  0  0  0  0  0
   39.9270   23.9090   35.7020 C   0  0  0  0  0  3  0  0  0  0  0  0
   38.0520   24.0670   32.8610 C   0  0  1  0  0  3  0  0  0  0  0  0
   39.2160   24.0360   32.3140 O   0  0  0  0  0  1  0  0  0  0  0  0
   35.5370   21.9040   31.3890 C   0  0  0  0  0  0  0  0  0  0  0  0
   35.4250   20.8600   32.2910 C   0  0  0  0  0  0  0  0  0  0  0  0
   36.2090   20.8950   33.4210 C   0  0  0  0  0  0  0  0  0  0  0  0
   37.0650   21.9410   33.6210 N   0  0  0  0  0  0  0  0  0  0  0  0
   37.1600   22.9290   32.7470 C   0  0  0  0  0  0  0  0  0  0  0  0
   36.3920   22.8760   31.6640 N   0  0  0  0  0  0  0  0  0  0  0  0
   34.9280   21.8990   30.4920 H   0  0  0  0  0  0  0  0  0  0  0  0
   34.7380   20.0660   32.0840 H   0  0  0  0  0  0  0  0  0  0  0  0
   36.1380   20.0990   34.1300 H   0  0  0  0  0  0  0  0  0  0  0  0
  1  6  1  0  0  0  0
  2  3  1  0  0  0  0
  2  1  2  0  0  0  0
  3  4  2  0  0  0  0
  4  9  1  0  0  0  0
  4  5  1  0  0  0  0
  5 10  1  0  0  0  0
  6  5  2  0  0  0  0
  6 11  1  0  0  0  0
  7  2  1  0  0  0  0
  8  3  1  0  0  0  0
 11 12  1  0  0  0  0
 12 13  1  0  0  0  0
 12 14  2  0  0  0  0
 15 14  1  0  0  0  0
 15 16  1  0  0  0  0
 17 15  2  0  0  0  0
 18 17  1  0  0  0  0
 19 11  2  0  0  0  0
 19 17  1  0  0  0  0
 20 21  1  1  0  0  0
 20  1  1  0  0  0  0
 22 27  2  0  0  0  0
 22 23  1  0  0  0  0
 23 24  2  0  0  0  0
 24 25  1  0  0  0  0
 24 30  1  0  0  0  0
 26 20  1  0  0  0  0
 26 25  2  0  0  0  0
 27 26  1  0  0  0  0
 28 22  1  0  0  0  0
 29 23  1  0  0  0  0
M  END
>  <minimizedAffinity>
-5.51768446

$$$$

 OpenBabel03272509393D

 30 32  0  0  1  0  0  0  0  0999 V2000
   39.0230   26.4080   33.5100 C   0  0  0  0  0  0  0  0  0  0  0  0
   39.7220   27.1900   32.5980 C   0  0  0  0  0  0  0  0  0  0  0  0
   41.0770   27.4820   32.7300 C   0  0  0  0  0  0  0  0  0  0  0  0
   41.7700   26.9720   33.8220 C   0  0  0  0  0  0  0  0  0  0  0  0
   41.0610   26.1870   34.7330 C   0  0  0  0  0  0  0  0  0  0  0  0
   39.7170   25.9140   34.5760 C   0  0  0  0  0  0  0  0  0  0  0  0
   39.1890   27.6000   31.7320 H   0  0  0  0  0  0  0  0  0  0  0  0
   41.5260   28.0960   31.9730 H   0  0  0  0  0  0  0  0  0  0  0  0
   42.8090   27.2140   33.8980 H   0  0  0  0  0  0  0  0  0  0  0  0
   41.7010   25.8470   35.5360 H   0  0  0  0  0  0  0  0  0  0  0  0
   39.2020   25.1170   35.6690 C   0  0  0  0  0  0  0  0  0  0  0  0
   39.8220   23.8680   35.8500 C   0  0  0  0  0  0  0  0  0  0  0  0
   40.6210   23.5460   35.1700 H   0  0  0  0  0  0  0  0  0  0  0  0
   39.5170   22.9580   36.8390 C   0  0  0  0  0  3  0  0  0  0  0  0
   38.5240   23.2760   37.7400 C   0  0  0  0  0  0  0  0  0  0  0  0
   38.2150   22.6390   38.5410 H   0  0  0  0  0  0  0  0  0  0  0  0
   37.8890   24.4900   37.6030 C   0  0  0  0  0  0  0  0  0  0  0  0
   37.0910   24.8470   38.2550 H   0  0  0  0  0  0  0  0  0  0  0  0
   38.2220   25.3690   36.6050 C   0  0  0  0  0  3  0  0  0  0  0  0
   37.6180   26.1610   33.2780 C   0  0  1  0  0  3  0  0  0  0  0  0
   36.8510   27.0970   33.7150 O   0  0  0  0  0  1  0  0  0  0  0  0
   35.4090   24.2740   31.1040 C   0  0  0  0  0  0  0  0  0  0  0  0
   35.8420   22.9660   31.2410 C   0  0  0  0  0  0  0  0  0  0  0  0
   36.8950   22.7200   32.0920 C   0  0  0  0  0  0  0  0  0  0  0  0
   37.4780   23.7550   32.7680 N   0  0  0  0  0  0  0  0  0  0  0  0
   37.0510   24.9980   32.6220 C   0  0  0  0  0  0  0  0  0  0  0  0
   36.0320   25.2130   31.7970 N   0  0  0  0  0  0  0  0  0  0  0  0
   34.5800   24.4920   30.4390 H   0  0  0  0  0  0  0  0  0  0  0  0
   35.3500   22.1950   30.6870 H   0  0  0  0  0  0  0  0  0  0  0  0
   37.2440   21.7180   32.2120 H   0  0  0  0  0  0  0  0  0  0  0  0
  1  6  1  0  0  0  0
  2  3  1  0  0  0  0
  2  1  2  0  0  0  0
  3  4  2  0  0  0  0
  4  9  1  0  0  0  0
  4  5  1  0  0  0  0
  5 10  1  0  0  0  0
  6  5  2  0  0  0  0
  6 11  1  0  0  0  0
  7  2  1  0  0  0  0
  8  3  1  0  0  0  0
 11 12  2  0  0  0  0
 11 19  1  0  0  0  0
 12 14  1  0  0  0  0
 13 12  1  0  0  0  0
 14 15  2  0  0  0  0
 15 16  1  0  0  0  0
 17 15  1  0  0  0  0
 17 18  1  0  0  0  0
 19 17  2  0  0  0  0
 20  1  1  0  0  0  0
 20 21  1  6  0  0  0
 22 23  2  0  0  0  0
 22 27  1  0  0  0  0
 23 24  1  0  0  0  0
 24 30  1  0  0  0  0
 24 25  2  0  0  0  0
 26 25  1  0  0  0  0
 26 20  1  0  0  0  0
 27 26  2  0  0  0  0
 28 22  1  0  0  0  0
 29 23  1  0  0  0  0
M  END
>  <minimizedAffinity>
-5.43398762

$$$$

 OpenBabel03272509393D

 30 32  0  0  1  0  0  0  0  0999 V2000
   37.2200   24.0160   32.3020 C   0  0  0  0  0  0  0  0  0  0  0  0
   37.2000   25.3700   31.9860 C   0  0  0  0  0  0  0  0  0  0  0  0
   36.1480   25.9740   31.3030 C   0  0  0  0  0  0  0  0  0  0  0  0
   35.0630   25.1960   30.9170 C   0  0  0  0  0  0  0  0  0  0  0  0
   35.0900   23.8380   31.2400 C   0  0  0  0  0  0  0  0  0  0  0  0
   36.1480   23.2650   31.9170 C   0  0  0  0  0  0  0  0  0  0  0  0
   38.0490   25.9970   32.2840 H   0  0  0  0  0  0  0  0  0  0  0  0
   36.2270   27.0270   31.1060 H   0  0  0  0  0  0  0  0  0  0  0  0
   34.2690   25.6870   30.3940 H   0  0  0  0  0  0  0  0  0  0  0  0
   34.1970   23.3360   30.8920 H   0  0  0  0  0  0  0  0  0  0  0  0
   35.9610   21.8410   32.0940 C   0  0  0  0  0  0  0  0  0  0  0  0
   36.2180   21.0520   30.9590 C   0  0  0  0  0  0  0  0  0  0  0  0
   36.5140   21.5270   30.0140 H   0  0  0  0  0  0  0  0  0  0  0  0
   36.1330   19.6780   30.9020 C   0  0  0  0  0  3  0  0  0  0  0  0
   35.7680   18.9950   32.0420 C   0  0  0  0  0  0  0  0  0  0  0  0
   35.6740   17.9320   32.1000 H   0  0  0  0  0  0  0  0  0  0  0  0
   35.5060   19.7260   33.1800 C   0  0  0  0  0  0  0  0  0  0  0  0
   35.2090   19.2950   34.1370 H   0  0  0  0  0  0  0  0  0  0  0  0
   35.6020   21.0940   33.1960 C   0  0  0  0  0  3  0  0  0  0  0  0
   38.3600   23.4880   33.0160 C   0  0  1  0  0  3  0  0  0  0  0  0
   39.2890   23.0410   32.2470 O   0  0  0  0  0  1  0  0  0  0  0  0
   39.4460   22.2070   36.2330 C   0  0  0  0  0  0  0  0  0  0  0  0
   38.9730   23.1390   37.1410 C   0  0  0  0  0  0  0  0  0  0  0  0
   38.2670   24.2140   36.6540 C   0  0  0  0  0  0  0  0  0  0  0  0
   38.0540   24.3350   35.3100 N   0  0  0  0  0  0  0  0  0  0  0  0
   38.5160   23.4350   34.4580 C   0  0  0  0  0  0  0  0  0  0  0  0
   39.1940   22.4040   34.9500 N   0  0  0  0  0  0  0  0  0  0  0  0
   40.0050   21.3500   36.5940 H   0  0  0  0  0  0  0  0  0  0  0  0
   39.1690   22.9950   38.1830 H   0  0  0  0  0  0  0  0  0  0  0  0
   37.8930   24.9450   37.3380 H   0  0  0  0  0  0  0  0  0  0  0  0
  1 20  1  0  0  0  0
  2  7  1  0  0  0  0
  2  1  1  0  0  0  0
  3  2  2  0  0  0  0
  4  5  2  0  0  0  0
  4  3  1  0  0  0  0
  5  6  1  0  0  0  0
  6 11  1  0  0  0  0
  6  1  2  0  0  0  0
  8  3  1  0  0  0  0
  9  4  1  0  0  0  0
 10  5  1  0  0  0  0
 11 19  1  0  0  0  0
 12 11  2  0  0  0  0
 13 12  1  0  0  0  0
 14 12  1  0  0  0  0
 14 15  2  0  0  0  0
 15 16  1  0  0  0  0
 15 17  1  0  0  0  0
 17 19  2  0  0  0  0
 17 18  1  0  0  0  0
 20 21  1  6  0  0  0
 20 26  1  0  0  0  0
 22 28  1  0  0  0  0
 22 23  1  0  0  0  0
 23 29  1  0  0  0  0
 24 23  2  0  0  0  0
 24 30  1  0  0  0  0
 25 24  1  0  0  0  0
 26 27  1  0  0  0  0
 26 25  2  0  0  0  0
 27 22  2  0  0  0  0
M  END
>  <minimizedAffinity>
-5.42845392

$$$$

 OpenBabel03272509393D

 30 32  0  0  1  0  0  0  0  0999 V2000
   39.8630   23.5800   35.8410 C   0  0  0  0  0  0  0  0  0  0  0  0
   40.9720   22.7450   35.9310 C   0  0  0  0  0  0  0  0  0  0  0  0
   42.2370   23.1140   35.4820 C   0  0  0  0  0  0  0  0  0  0  0  0
   42.4090   24.3710   34.9160 C   0  0  0  0  0  0  0  0  0  0  0  0
   41.2910   25.2040   34.8290 C   0  0  0  0  0  0  0  0  0  0  0  0
   40.0470   24.8110   35.2830 C   0  0  0  0  0  0  0  0  0  0  0  0
   40.8520   21.7500   36.3750 H   0  0  0  0  0  0  0  0  0  0  0  0
   43.0290   22.3980   35.5960 H   0  0  0  0  0  0  0  0  0  0  0  0
   43.3920   24.6270   34.5790 H   0  0  0  0  0  0  0  0  0  0  0  0
   41.5440   26.1520   34.3750 H   0  0  0  0  0  0  0  0  0  0  0  0
   39.0460   25.8290   35.0440 C   0  0  0  0  0  0  0  0  0  0  0  0
   38.3420   25.7100   33.8330 C   0  0  0  0  0  0  0  0  0  0  0  0
   38.5830   24.9010   33.1330 H   0  0  0  0  0  0  0  0  0  0  0  0
   37.3300   26.5450   33.4100 C   0  0  0  0  0  3  0  0  0  0  0  0
   36.9580   27.5920   34.2250 C   0  0  0  0  0  0  0  0  0  0  0  0
   36.1870   28.2920   33.9880 H   0  0  0  0  0  0  0  0  0  0  0  0
   37.6210   27.7480   35.4230 C   0  0  0  0  0  0  0  0  0  0  0  0
   37.4130   28.5370   36.1460 H   0  0  0  0  0  0  0  0  0  0  0  0
   38.6230   26.8950   35.8090 C   0  0  0  0  0  3  0  0  0  0  0  0
   38.5940   23.1020   36.3400 C   0  0  1  0  0  3  0  0  0  0  0  0
   38.3310   23.4920   37.5370 O   0  0  0  0  0  1  0  0  0  0  0  0
   35.7350   20.9240   35.8420 C   0  0  0  0  0  0  0  0  0  0  0  0
   35.7390   20.6720   34.4800 C   0  0  0  0  0  0  0  0  0  0  0  0
   36.7340   21.2440   33.7210 C   0  0  0  0  0  0  0  0  0  0  0  0
   37.6760   22.0330   34.3180 N   0  0  0  0  0  0  0  0  0  0  0  0
   37.6530   22.2640   35.6210 C   0  0  0  0  0  0  0  0  0  0  0  0
   36.6850   21.7000   36.3350 N   0  0  0  0  0  0  0  0  0  0  0  0
   34.9610   20.4830   36.4600 H   0  0  0  0  0  0  0  0  0  0  0  0
   34.9770   20.0470   34.0650 H   0  0  0  0  0  0  0  0  0  0  0  0
   36.7560   21.0620   32.6690 H   0  0  0  0  0  0  0  0  0  0  0  0
  1  2  1  0  0  0  0
  1 20  1  0  0  0  0
  2  7  1  0  0  0  0
  3  8  1  0  0  0  0
  3  2  2  0  0  0  0
  4  3  1  0  0  0  0
  5  4  2  0  0  0  0
  5  6  1  0  0  0  0
  6  1  2  0  0  0  0
  9  4  1  0  0  0  0
 10  5  1  0  0  0  0
 11  6  1  0  0  0  0
 11 19  1  0  0  0  0
 12 11  2  0  0  0  0
 13 12  1  0  0  0  0
 14 12  1  0  0  0  0
 14 15  2  0  0  0  0
 15 17  1  0  0  0  0
 16 15  1  0  0  0  0
 17 19  2  0  0  0  0
 17 18  1  0  0  0  0
 20 21  1  6  0  0  0
 22 27  1  0  0  0  0
 22 28  1  0  0  0  0
 23 22  2  0  0  0  0
 24 25  2  0  0  0  0
 24 23  1  0  0  0  0
 25 26  1  0  0  0  0
 26 27  2  0  0  0  0
 26 20  1  0  0  0  0
 29 23  1  0  0  0  0
 30 24  1  0  0  0  0
M  END
>  <minimizedAffinity>
-5.39583969

$$$$

 OpenBabel03272509393D

 30 32  0  0  1  0  0  0  0  0999 V2000
   40.6180   25.2300   34.2600 C   0  0  0  0  0  0  0  0  0  0  0  0
   41.9660   24.8900   34.2150 C   0  0  0  0  0  0  0  0  0  0  0  0
   42.9630   25.7870   33.8420 C   0  0  0  0  0  0  0  0  0  0  0  0
   42.6040   27.0850   33.4990 C   0  0  0  0  0  0  0  0  0  0  0  0
   41.2490   27.4200   33.5480 C   0  0  0  0  0  0  0  0  0  0  0  0
   40.2810   26.5080   33.9200 C   0  0  0  0  0  0  0  0  0  0  0  0
   42.2640   23.8690   34.4820 H   0  0  0  0  0  0  0  0  0  0  0  0
   43.9740   25.4270   33.8390 H   0  0  0  0  0  0  0  0  0  0  0  0
   43.3910   27.7520   33.2170 H   0  0  0  0  0  0  0  0  0  0  0  0
   41.0910   28.4510   33.2630 H   0  0  0  0  0  0  0  0  0  0  0  0
   38.9540   27.0810   33.8510 C   0  0  0  0  0  0  0  0  0  0  0  0
   38.4560   27.2950   32.5540 C   0  0  0  0  0  0  0  0  0  0  0  0
   39.0740   27.0550   31.6800 H   0  0  0  0  0  0  0  0  0  0  0  0
   37.2110   27.8020   32.2480 C   0  0  0  0  0  3  0  0  0  0  0  0
   36.3640   28.1340   33.2830 C   0  0  0  0  0  0  0  0  0  0  0  0
   35.3820   28.5330   33.1500 H   0  0  0  0  0  0  0  0  0  0  0  0
   36.8100   27.9400   34.5720 C   0  0  0  0  0  0  0  0  0  0  0  0
   36.2290   28.1660   35.4670 H   0  0  0  0  0  0  0  0  0  0  0  0
   38.0550   27.4330   34.8360 C   0  0  0  0  0  3  0  0  0  0  0  0
   39.6620   24.2240   34.6630 C   0  0  1  0  0  3  0  0  0  0  0  0
   39.1700   23.5570   33.6790 O   0  0  0  0  0  1  0  0  0  0  0  0
   39.8310   22.7970   37.9940 C   0  0  0  0  0  0  0  0  0  0  0  0
   38.6960   23.2800   38.6240 C   0  0  0  0  0  0  0  0  0  0  0  0
   37.8560   24.0960   37.9020 C   0  0  0  0  0  0  0  0  0  0  0  0
   38.1580   24.4060   36.6060 N   0  0  0  0  0  0  0  0  0  0  0  0
   39.2480   23.9350   36.0230 C   0  0  0  0  0  0  0  0  0  0  0  0
   40.0440   23.1470   36.7370 N   0  0  0  0  0  0  0  0  0  0  0  0
   40.5080   22.1500   38.5430 H   0  0  0  0  0  0  0  0  0  0  0  0
   38.5100   23.0060   39.6400 H   0  0  0  0  0  0  0  0  0  0  0  0
   36.9750   24.4790   38.3690 H   0  0  0  0  0  0  0  0  0  0  0  0
  1 20  1  0  0  0  0
  2  1  1  0  0  0  0
  2  7  1  0  0  0  0
  3  2  2  0  0  0  0
  4  5  2  0  0  0  0
  4  3  1  0  0  0  0
  5  6  1  0  0  0  0
  6  1  2  0  0  0  0
  8  3  1  0  0  0  0
  9  4  1  0  0  0  0
 10  5  1  0  0  0  0
 11  6  1  0  0  0  0
 11 19  1  0  0  0  0
 12 11  2  0  0  0  0
 13 12  1  0  0  0  0
 14 12  1  0  0  0  0
 14 15  2  0  0  0  0
 15 17  1  0  0  0  0
 16 15  1  0  0  0  0
 17 19  2  0  0  0  0
 17 18  1  0  0  0  0
 20 21  1  1  0  0  0
 20 26  1  0  0  0  0
 22 28  1  0  0  0  0
 22 23  1  0  0  0  0
 23 29  1  0  0  0  0
 24 30  1  0  0  0  0
 24 23  2  0  0  0  0
 25 24  1  0  0  0  0
 26 25  2  0  0  0  0
 26 27  1  0  0  0  0
 27 22  2  0  0  0  0
M  END
>  <minimizedAffinity>
-5.32808113

$$$$

 OpenBabel03272509393D

 30 32  0  0  1  0  0  0  0  0999 V2000
   38.2500   23.3620   35.6400 C   0  0  0  0  0  0  0  0  0  0  0  0
   38.2130   22.7090   36.8670 C   0  0  0  0  0  0  0  0  0  0  0  0
   38.0960   23.3810   38.0800 C   0  0  0  0  0  0  0  0  0  0  0  0
   38.0110   24.7680   38.0740 C   0  0  0  0  0  0  0  0  0  0  0  0
   38.0480   25.4160   36.8380 C   0  0  0  0  0  0  0  0  0  0  0  0
   38.1660   24.7240   35.6500 C   0  0  0  0  0  0  0  0  0  0  0  0
   38.2790   21.6150   36.8870 H   0  0  0  0  0  0  0  0  0  0  0  0
   38.0770   22.7860   38.9740 H   0  0  0  0  0  0  0  0  0  0  0  0
   37.9220   25.2570   39.0220 H   0  0  0  0  0  0  0  0  0  0  0  0
   37.9740   26.4890   36.9580 H   0  0  0  0  0  0  0  0  0  0  0  0
   38.2240   25.6180   34.5140 C   0  0  0  0  0  0  0  0  0  0  0  0
   39.4950   26.1480   34.2270 C   0  0  0  0  0  0  0  0  0  0  0  0
   40.3530   25.8950   34.8620 H   0  0  0  0  0  0  0  0  0  0  0  0
   39.7920   26.9960   33.1820 C   0  0  0  0  0  3  0  0  0  0  0  0
   38.7760   27.3700   32.3300 C   0  0  0  0  0  0  0  0  0  0  0  0
   38.9040   28.0210   31.4920 H   0  0  0  0  0  0  0  0  0  0  0  0
   37.5130   26.8750   32.5710 C   0  0  0  0  0  0  0  0  0  0  0  0
   36.6340   27.1020   31.9660 H   0  0  0  0  0  0  0  0  0  0  0  0
   37.2570   26.0330   33.6230 C   0  0  0  0  0  3  0  0  0  0  0  0
   38.3710   22.5700   34.4360 C   0  0  1  0  0  3  0  0  0  0  0  0
   39.5830   22.2500   34.1490 O   0  0  0  0  0  1  0  0  0  0  0  0
   35.4570   20.6640   33.4170 C   0  0  0  0  0  0  0  0  0  0  0  0
   35.1340   21.1840   32.1750 C   0  0  0  0  0  0  0  0  0  0  0  0
   35.9240   22.1920   31.6720 C   0  0  0  0  0  0  0  0  0  0  0  0
   36.9880   22.6480   32.3990 N   0  0  0  0  0  0  0  0  0  0  0  0
   37.2790   22.1390   33.5840 C   0  0  0  0  0  0  0  0  0  0  0  0
   36.5040   21.1650   34.0500 N   0  0  0  0  0  0  0  0  0  0  0  0
   34.8490   19.8670   33.8330 H   0  0  0  0  0  0  0  0  0  0  0  0
   34.2900   20.7900   31.6500 H   0  0  0  0  0  0  0  0  0  0  0  0
   35.6930   22.6070   30.7160 H   0  0  0  0  0  0  0  0  0  0  0  0
  1  6  2  0  0  0  0
  1  2  1  0  0  0  0
  2  7  1  0  0  0  0
  2  3  2  0  0  0  0
  3  8  1  0  0  0  0
  4  3  1  0  0  0  0
  4  9  1  0  0  0  0
  5 10  1  0  0  0  0
  5  4  2  0  0  0  0
  6  5  1  0  0  0  0
 11  6  1  0  0  0  0
 12 11  1  0  0  0  0
 12 13  1  0  0  0  0
 14 12  2  0  0  0  0
 15 17  2  0  0  0  0
 15 14  1  0  0  0  0
 16 15  1  0  0  0  0
 17 19  1  0  0  0  0
 18 17  1  0  0  0  0
 19 11  2  0  0  0  0
 20 21  1  1  0  0  0
 20  1  1  0  0  0  0
 22 28  1  0  0  0  0
 22 27  1  0  0  0  0
 23 22  2  0  0  0  0
 24 23  1  0  0  0  0
 24 25  2  0  0  0  0
 25 26  1  0  0  0  0
 26 27  2  0  0  0  0
 26 20  1  0  0  0  0
 29 23  1  0  0  0  0
 30 24  1  0  0  0  0
M  END
>  <minimizedAffinity>
-5.10216856

$$$$

 OpenBabel03272509393D

 30 32  0  0  1  0  0  0  0  0999 V2000
   35.9670   26.3800   31.6440 C   0  0  0  0  0  0  0  0  0  0  0  0
   35.0610   25.6710   30.8610 C   0  0  0  0  0  0  0  0  0  0  0  0
   35.0240   24.2810   30.8140 C   0  0  0  0  0  0  0  0  0  0  0  0
   35.9310   23.5590   31.5810 C   0  0  0  0  0  0  0  0  0  0  0  0
   36.8360   24.2770   32.3650 C   0  0  0  0  0  0  0  0  0  0  0  0
   36.8500   25.6570   32.3920 C   0  0  0  0  0  0  0  0  0  0  0  0
   34.3400   26.2280   30.2510 H   0  0  0  0  0  0  0  0  0  0  0  0
   34.2870   23.8280   30.1780 H   0  0  0  0  0  0  0  0  0  0  0  0
   35.8790   22.4920   31.5250 H   0  0  0  0  0  0  0  0  0  0  0  0
   37.4880   23.6120   32.9160 H   0  0  0  0  0  0  0  0  0  0  0  0
   37.9040   26.1640   33.2440 C   0  0  0  0  0  0  0  0  0  0  0  0
   37.6190   26.1640   34.6210 C   0  0  0  0  0  0  0  0  0  0  0  0
   36.6420   25.8180   34.9810 H   0  0  0  0  0  0  0  0  0  0  0  0
   38.4800   26.5740   35.6170 C   0  0  0  0  0  3  0  0  0  0  0  0
   39.7310   27.0260   35.2590 C   0  0  0  0  0  0  0  0  0  0  0  0
   40.4680   27.3650   35.9540 H   0  0  0  0  0  0  0  0  0  0  0  0
   40.0550   27.0440   33.9190 C   0  0  0  0  0  0  0  0  0  0  0  0
   41.0120   27.3810   33.5200 H   0  0  0  0  0  0  0  0  0  0  0  0
   39.1710   26.6280   32.9590 C   0  0  0  0  0  3  0  0  0  0  0  0
   35.9190   27.8240   31.6240 C   0  0  1  0  0  3  0  0  0  0  0  0
   36.4460   28.3430   30.5720 O   0  0  0  0  0  1  0  0  0  0  0  0
   33.3570   29.6450   33.4360 C   0  0  0  0  0  0  0  0  0  0  0  0
   34.0390   30.2160   34.4970 C   0  0  0  0  0  0  0  0  0  0  0  0
   35.3920   29.9860   34.5930 C   0  0  0  0  0  0  0  0  0  0  0  0
   36.0180   29.2130   33.6570 N   0  0  0  0  0  0  0  0  0  0  0  0
   35.3480   28.6740   32.6520 C   0  0  0  0  0  0  0  0  0  0  0  0
   34.0430   28.9110   32.5760 N   0  0  0  0  0  0  0  0  0  0  0  0
   32.2900   29.8140   33.3390 H   0  0  0  0  0  0  0  0  0  0  0  0
   33.4980   30.8130   35.2010 H   0  0  0  0  0  0  0  0  0  0  0  0
   35.9370   30.4180   35.4040 H   0  0  0  0  0  0  0  0  0  0  0  0
  1  6  1  0  0  0  0
  2  1  2  0  0  0  0
  3  2  1  0  0  0  0
  3  4  2  0  0  0  0
  4  5  1  0  0  0  0
  5  6  2  0  0  0  0
  5 10  1  0  0  0  0
  6 11  1  0  0  0  0
  7  2  1  0  0  0  0
  8  3  1  0  0  0  0
  9  4  1  0  0  0  0
 11 12  1  0  0  0  0
 12 13  1  0  0  0  0
 12 14  2  0  0  0  0
 15 14  1  0  0  0  0
 15 16  1  0  0  0  0
 17 15  2  0  0  0  0
 18 17  1  0  0  0  0
 19 11  2  0  0  0  0
 19 17  1  0  0  0  0
 20 21  1  6  0  0  0
 20  1  1  0  0  0  0
 20 26  1  0  0  0  0
 22 23  1  0  0  0  0
 23 24  2  0  0  0  0
 23 29  1  0  0  0  0
 24 30  1  0  0  0  0
 25 24  1  0  0  0  0
 26 25  2  0  0  0  0
 27 26  1  0  0  0  0
 27 22  2  0  0  0  0
 28 22  1  0  0  0  0
M  END
>  <minimizedAffinity>
-5.06600237

$$$$

 OpenBabel03272509393D

 30 32  0  0  1  0  0  0  0  0999 V2000
   38.9410   24.2470   36.0500 C   0  0  0  0  0  0  0  0  0  0  0  0
   37.9540   24.6700   36.9330 C   0  0  0  0  0  0  0  0  0  0  0  0
   37.8760   24.2300   38.2510 C   0  0  0  0  0  0  0  0  0  0  0  0
   38.8240   23.3260   38.7140 C   0  0  0  0  0  0  0  0  0  0  0  0
   39.8130   22.9060   37.8220 C   0  0  0  0  0  0  0  0  0  0  0  0
   39.8660   23.3600   36.5190 C   0  0  0  0  0  0  0  0  0  0  0  0
   37.1990   25.3830   36.5810 H   0  0  0  0  0  0  0  0  0  0  0  0
   37.0750   24.6150   38.8530 H   0  0  0  0  0  0  0  0  0  0  0  0
   38.7390   23.0040   39.7310 H   0  0  0  0  0  0  0  0  0  0  0  0
   40.4920   22.2080   38.2910 H   0  0  0  0  0  0  0  0  0  0  0  0
   40.9530   22.7490   35.7840 C   0  0  0  0  0  0  0  0  0  0  0  0
   42.2410   23.0090   36.2850 C   0  0  0  0  0  0  0  0  0  0  0  0
   42.3710   23.6570   37.1610 H   0  0  0  0  0  0  0  0  0  0  0  0
   43.4170   22.5120   35.7660 C   0  0  0  0  0  3  0  0  0  0  0  0
   43.3520   21.6890   34.6630 C   0  0  0  0  0  0  0  0  0  0  0  0
   44.2050   21.2540   34.1880 H   0  0  0  0  0  0  0  0  0  0  0  0
   42.1100   21.4060   34.1370 C   0  0  0  0  0  0  0  0  0  0  0  0
   41.9370   20.7690   33.2690 H   0  0  0  0  0  0  0  0  0  0  0  0
   40.9630   21.9190   34.6830 C   0  0  0  0  0  3  0  0  0  0  0  0
   38.9350   24.7680   34.7020 C   0  0  1  0  0  3  0  0  0  0  0  0
   39.8510   25.6440   34.4830 O   0  0  0  0  0  1  0  0  0  0  0  0
   36.4810   25.2070   32.0650 C   0  0  0  0  0  0  0  0  0  0  0  0
   36.2610   23.9230   31.5960 C   0  0  0  0  0  0  0  0  0  0  0  0
   36.9500   22.8920   32.1900 C   0  0  0  0  0  0  0  0  0  0  0  0
   37.8210   23.1550   33.2090 N   0  0  0  0  0  0  0  0  0  0  0  0
   38.0190   24.3880   33.6430 C   0  0  0  0  0  0  0  0  0  0  0  0
   37.3410   25.3700   33.0570 N   0  0  0  0  0  0  0  0  0  0  0  0
   35.9470   26.0370   31.6130 H   0  0  0  0  0  0  0  0  0  0  0  0
   35.5680   23.7750   30.7940 H   0  0  0  0  0  0  0  0  0  0  0  0
   36.7950   21.8940   31.8430 H   0  0  0  0  0  0  0  0  0  0  0  0
  1  6  2  0  0  0  0
  1  2  1  0  0  0  0
  2  3  2  0  0  0  0
  3  4  1  0  0  0  0
  3  8  1  0  0  0  0
  4  9  1  0  0  0  0
  5 10  1  0  0  0  0
  5  4  2  0  0  0  0
  6  5  1  0  0  0  0
  7  2  1  0  0  0  0
 11 12  1  0  0  0  0
 11  6  1  0  0  0  0
 12 13  1  0  0  0  0
 14 12  2  0  0  0  0
 15 14  1  0  0  0  0
 16 15  1  0  0  0  0
 17 15  2  0  0  0  0
 17 19  1  0  0  0  0
 18 17  1  0  0  0  0
 19 11  2  0  0  0  0
 20 21  1  6  0  0  0
 20  1  1  0  0  0  0
 22 27  1  0  0  0  0
 23 22  2  0  0  0  0
 23 24  1  0  0  0  0
 24 25  2  0  0  0  0
 25 26  1  0  0  0  0
 26 20  1  0  0  0  0
 27 26  2  0  0  0  0
 28 22  1  0  0  0  0
 29 23  1  0  0  0  0
 30 24  1  0  0  0  0
M  END
>  <minimizedAffinity>
-5.04724073

$$$$
