
 OpenBabel03272503383D

 19 20  0  0  0  0  0  0  0  0999 V2000
   39.1560   23.0440   37.8900 C   0  0  0  0  0  0  0  0  0  0  0  0
   38.4150   24.0460   37.2510 C   0  0  0  0  0  0  0  0  0  0  0  0
   38.9150   24.5540   36.0640 C   0  0  0  0  0  0  0  0  0  0  0  0
   40.0810   24.0700   35.5720 N   0  0  0  0  0  0  0  0  0  0  0  0
   40.7820   23.0870   36.2240 C   0  0  0  0  0  0  0  0  0  0  0  0
   40.3120   22.5920   37.3640 N   0  0  0  0  0  0  0  0  0  0  0  0
   37.4850   24.4330   37.6410 H   0  0  0  0  0  0  0  0  0  0  0  0
   41.7130   22.7120   35.8170 H   0  0  0  0  0  0  0  0  0  0  0  0
   38.2560   25.5970   35.2900 C   0  0  0  0  0  0  0  0  0  0  0  0
   38.1290   26.8440   35.8640 C   0  0  0  0  0  0  0  0  0  0  0  0
   38.4920   27.0900   36.8590 H   0  0  0  0  0  0  0  0  0  0  0  0
   37.5040   27.8900   35.1710 C   0  0  0  0  0  3  0  0  0  0  0  0
   37.0090   27.6800   33.9000 C   0  0  0  0  0  0  0  0  0  0  0  0
   36.5150   28.4320   33.2990 H   0  0  0  0  0  0  0  0  0  0  0  0
   37.1290   26.4370   33.3110 C   0  0  0  0  0  0  0  0  0  0  0  0
   36.7580   26.2010   32.3070 H   0  0  0  0  0  0  0  0  0  0  0  0
   37.7510   25.4210   34.0200 C   0  0  0  0  0  3  0  0  0  0  0  0
   38.5760   22.6030   39.0640 O   0  0  0  0  0  0  0  0  0  0  0  0
   39.1760   22.4420   39.8630 H   0  0  0  0  0  0  0  0  0  0  0  0
  1 18  1  0  0  0  0
  2  7  1  0  0  0  0
  2  1  2  0  0  0  0
  3  2  1  0  0  0  0
  4  3  2  0  0  0  0
  4  5  1  0  0  0  0
  5  6  2  0  0  0  0
  6  1  1  0  0  0  0
  8  5  1  0  0  0  0
  9 10  1  0  0  0  0
  9  3  1  0  0  0  0
 10 11  1  0  0  0  0
 12 10  2  0  0  0  0
 13 12  1  0  0  0  0
 14 13  1  0  0  0  0
 15 13  2  0  0  0  0
 15 17  1  0  0  0  0
 16 15  1  0  0  0  0
 17  9  2  0  0  0  0
 18 19  1  0  0  0  0
M  END
>  <minimizedAffinity>
-4.70004845

$$$$

 OpenBabel03272503383D

 19 20  0  0  0  0  0  0  0  0999 V2000
   39.6390   22.7910   37.6780 C   0  0  0  0  0  0  0  0  0  0  0  0
   39.8040   23.4770   36.4670 C   0  0  0  0  0  0  0  0  0  0  0  0
   38.9730   24.5570   36.2250 C   0  0  0  0  0  0  0  0  0  0  0  0
   38.0480   24.9060   37.1520 N   0  0  0  0  0  0  0  0  0  0  0  0
   37.9140   24.2130   38.3280 C   0  0  0  0  0  0  0  0  0  0  0  0
   38.7060   23.1740   38.5720 N   0  0  0  0  0  0  0  0  0  0  0  0
   40.5400   23.2000   35.7270 H   0  0  0  0  0  0  0  0  0  0  0  0
   37.1690   24.5050   39.0590 H   0  0  0  0  0  0  0  0  0  0  0  0
   39.0270   25.3640   35.0130 C   0  0  0  0  0  0  0  0  0  0  0  0
   40.0700   26.2560   34.8780 C   0  0  0  0  0  0  0  0  0  0  0  0
   40.8500   26.3900   35.6230 H   0  0  0  0  0  0  0  0  0  0  0  0
   40.1780   27.0610   33.7350 C   0  0  0  0  0  3  0  0  0  0  0  0
   39.2370   26.9660   32.7300 C   0  0  0  0  0  0  0  0  0  0  0  0
   39.2480   27.5490   31.8180 H   0  0  0  0  0  0  0  0  0  0  0  0
   38.1880   26.0770   32.8510 C   0  0  0  0  0  0  0  0  0  0  0  0
   37.4060   25.9510   32.0920 H   0  0  0  0  0  0  0  0  0  0  0  0
   38.1060   25.2940   33.9920 C   0  0  0  0  0  3  0  0  0  0  0  0
   40.5120   21.7310   37.8250 O   0  0  0  0  0  0  0  0  0  0  0  0
   40.1550   20.8660   38.2090 H   0  0  0  0  0  0  0  0  0  0  0  0
  1 18  1  0  0  0  0
  1  6  1  0  0  0  0
  2  1  2  0  0  0  0
  3  2  1  0  0  0  0
  3  4  2  0  0  0  0
  4  5  1  0  0  0  0
  5  6  2  0  0  0  0
  5  8  1  0  0  0  0
  7  2  1  0  0  0  0
  9  3  1  0  0  0  0
 10  9  1  0  0  0  0
 10 11  1  0  0  0  0
 12 10  2  0  0  0  0
 13 15  2  0  0  0  0
 13 12  1  0  0  0  0
 14 13  1  0  0  0  0
 15 17  1  0  0  0  0
 16 15  1  0  0  0  0
 17  9  2  0  0  0  0
 18 19  1  0  0  0  0
M  END
>  <minimizedAffinity>
-4.53279543

$$$$

 OpenBabel03272503383D

 19 20  0  0  0  0  0  0  0  0999 V2000
   39.7720   22.7110   37.5930 C   0  0  0  0  0  0  0  0  0  0  0  0
   40.0830   23.3470   36.3840 C   0  0  0  0  0  0  0  0  0  0  0  0
   39.2960   24.4210   36.0050 C   0  0  0  0  0  0  0  0  0  0  0  0
   38.2720   24.8100   36.8030 N   0  0  0  0  0  0  0  0  0  0  0  0
   37.9950   24.1650   37.9810 C   0  0  0  0  0  0  0  0  0  0  0  0
   38.7440   23.1330   38.3570 N   0  0  0  0  0  0  0  0  0  0  0  0
   40.8980   23.0380   35.7470 H   0  0  0  0  0  0  0  0  0  0  0  0
   37.1730   24.4890   38.6080 H   0  0  0  0  0  0  0  0  0  0  0  0
   39.4980   25.1770   34.7770 C   0  0  0  0  0  0  0  0  0  0  0  0
   39.1300   24.5860   33.5860 C   0  0  0  0  0  0  0  0  0  0  0  0
   38.7000   23.5900   33.5150 H   0  0  0  0  0  0  0  0  0  0  0  0
   39.3000   25.2620   32.3700 C   0  0  0  0  0  3  0  0  0  0  0  0
   39.8390   26.5320   32.3530 C   0  0  0  0  0  0  0  0  0  0  0  0
   40.0010   27.1210   31.4600 H   0  0  0  0  0  0  0  0  0  0  0  0
   40.2110   27.1380   33.5370 C   0  0  0  0  0  0  0  0  0  0  0  0
   40.6440   28.1430   33.5960 H   0  0  0  0  0  0  0  0  0  0  0  0
   40.0320   26.4460   34.7250 C   0  0  0  0  0  3  0  0  0  0  0  0
   40.6130   21.6540   37.8840 O   0  0  0  0  0  0  0  0  0  0  0  0
   40.2060   20.8070   38.2570 H   0  0  0  0  0  0  0  0  0  0  0  0
  1 18  1  0  0  0  0
  1  6  1  0  0  0  0
  2  1  2  0  0  0  0
  3  2  1  0  0  0  0
  3  4  2  0  0  0  0
  4  5  1  0  0  0  0
  5  6  2  0  0  0  0
  5  8  1  0  0  0  0
  7  2  1  0  0  0  0
  9  3  1  0  0  0  0
 10  9  2  0  0  0  0
 11 10  1  0  0  0  0
 12 10  1  0  0  0  0
 13 12  2  0  0  0  0
 13 15  1  0  0  0  0
 14 13  1  0  0  0  0
 15 16  1  0  0  0  0
 15 17  2  0  0  0  0
 17  9  1  0  0  0  0
 18 19  1  0  0  0  0
M  END
>  <minimizedAffinity>
-4.3507719

$$$$

 OpenBabel03272503383D

 19 20  0  0  0  0  0  0  0  0999 V2000
   35.9370   24.8840   31.2500 C   0  0  0  0  0  0  0  0  0  0  0  0
   35.6390   23.5200   31.1300 C   0  0  0  0  0  0  0  0  0  0  0  0
   36.3350   22.6390   31.9400 C   0  0  0  0  0  0  0  0  0  0  0  0
   37.2620   23.1210   32.8040 N   0  0  0  0  0  0  0  0  0  0  0  0
   37.5290   24.4630   32.8950 C   0  0  0  0  0  0  0  0  0  0  0  0
   36.8670   25.3180   32.1230 N   0  0  0  0  0  0  0  0  0  0  0  0
   34.9010   23.1340   30.4430 H   0  0  0  0  0  0  0  0  0  0  0  0
   38.2730   24.8310   33.5920 H   0  0  0  0  0  0  0  0  0  0  0  0
   36.1350   21.1960   31.9260 C   0  0  0  0  0  0  0  0  0  0  0  0
   35.6210   20.6060   33.0620 C   0  0  0  0  0  0  0  0  0  0  0  0
   35.3590   21.1550   33.9620 H   0  0  0  0  0  0  0  0  0  0  0  0
   35.4050   19.2210   33.1110 C   0  0  0  0  0  3  0  0  0  0  0  0
   35.7060   18.4340   32.0190 C   0  0  0  0  0  0  0  0  0  0  0  0
   35.5680   17.3610   31.9750 H   0  0  0  0  0  0  0  0  0  0  0  0
   36.2200   19.0110   30.8750 C   0  0  0  0  0  0  0  0  0  0  0  0
   36.4810   18.4460   29.9730 H   0  0  0  0  0  0  0  0  0  0  0  0
   36.4240   20.3820   30.8540 C   0  0  0  0  0  3  0  0  0  0  0  0
   35.1910   25.6800   30.4010 O   0  0  0  0  0  0  0  0  0  0  0  0
   35.6580   26.4380   29.9230 H   0  0  0  0  0  0  0  0  0  0  0  0
  1  6  1  0  0  0  0
  2  1  2  0  0  0  0
  2  3  1  0  0  0  0
  3  4  2  0  0  0  0
  4  5  1  0  0  0  0
  5  8  1  0  0  0  0
  6  5  2  0  0  0  0
  7  2  1  0  0  0  0
  9  3  1  0  0  0  0
  9 10  1  0  0  0  0
 10 12  2  0  0  0  0
 10 11  1  0  0  0  0
 13 12  1  0  0  0  0
 14 13  1  0  0  0  0
 15 13  2  0  0  0  0
 16 15  1  0  0  0  0
 17 15  1  0  0  0  0
 17  9  2  0  0  0  0
 18  1  1  0  0  0  0
 19 18  1  0  0  0  0
M  END
>  <minimizedAffinity>
-4.30803919

$$$$

 OpenBabel03272503383D

 19 20  0  0  0  0  0  0  0  0999 V2000
   36.9230   27.2600   34.1390 C   0  0  0  0  0  0  0  0  0  0  0  0
   37.4210   26.5730   35.2530 C   0  0  0  0  0  0  0  0  0  0  0  0
   37.9720   25.3210   35.0400 C   0  0  0  0  0  0  0  0  0  0  0  0
   38.0100   24.8160   33.7820 N   0  0  0  0  0  0  0  0  0  0  0  0
   37.5130   25.5170   32.7130 C   0  0  0  0  0  0  0  0  0  0  0  0
   36.9820   26.7200   32.9050 N   0  0  0  0  0  0  0  0  0  0  0  0
   37.3920   26.9730   36.2560 H   0  0  0  0  0  0  0  0  0  0  0  0
   37.5510   25.0990   31.7140 H   0  0  0  0  0  0  0  0  0  0  0  0
   38.5270   24.4900   36.1000 C   0  0  0  0  0  0  0  0  0  0  0  0
   39.6270   23.7130   35.8020 C   0  0  0  0  0  0  0  0  0  0  0  0
   40.1010   23.6880   34.8230 H   0  0  0  0  0  0  0  0  0  0  0  0
   40.2080   22.8920   36.7790 C   0  0  0  0  0  3  0  0  0  0  0  0
   39.6800   22.8530   38.0530 C   0  0  0  0  0  0  0  0  0  0  0  0
   40.0680   22.2480   38.8620 H   0  0  0  0  0  0  0  0  0  0  0  0
   38.5790   23.6250   38.3670 C   0  0  0  0  0  0  0  0  0  0  0  0
   38.1100   23.6420   39.3570 H   0  0  0  0  0  0  0  0  0  0  0  0
   38.0260   24.4280   37.3810 C   0  0  0  0  0  3  0  0  0  0  0  0
   36.3960   28.4980   34.4540 O   0  0  0  0  0  0  0  0  0  0  0  0
   35.5300   28.7760   34.0100 H   0  0  0  0  0  0  0  0  0  0  0  0
  1 18  1  0  0  0  0
  1  2  1  0  0  0  0
  2  7  1  0  0  0  0
  3  2  2  0  0  0  0
  3  9  1  0  0  0  0
  4  3  1  0  0  0  0
  5  6  1  0  0  0  0
  5  4  2  0  0  0  0
  6  1  2  0  0  0  0
  8  5  1  0  0  0  0
  9 17  1  0  0  0  0
 10  9  2  0  0  0  0
 10 12  1  0  0  0  0
 11 10  1  0  0  0  0
 12 13  2  0  0  0  0
 13 15  1  0  0  0  0
 13 14  1  0  0  0  0
 15 16  1  0  0  0  0
 17 15  2  0  0  0  0
 19 18  1  0  0  0  0
M  END
>  <minimizedAffinity>
-4.29598522

$$$$

 OpenBabel03272503383D

 19 20  0  0  0  0  0  0  0  0999 V2000
   36.4970   28.4040   30.6150 C   0  0  0  0  0  0  0  0  0  0  0  0
   37.0800   27.5320   31.5440 C   0  0  0  0  0  0  0  0  0  0  0  0
   36.8850   27.8030   32.8870 C   0  0  0  0  0  0  0  0  0  0  0  0
   36.1490   28.8830   33.2470 N   0  0  0  0  0  0  0  0  0  0  0  0
   35.5920   29.7160   32.3110 C   0  0  0  0  0  0  0  0  0  0  0  0
   35.7720   29.4660   31.0190 N   0  0  0  0  0  0  0  0  0  0  0  0
   37.6670   26.6720   31.2580 H   0  0  0  0  0  0  0  0  0  0  0  0
   35.0060   30.5750   32.6170 H   0  0  0  0  0  0  0  0  0  0  0  0
   37.4290   26.9880   33.9640 C   0  0  0  0  0  0  0  0  0  0  0  0
   37.7700   27.6190   35.1420 C   0  0  0  0  0  0  0  0  0  0  0  0
   37.6540   28.6870   35.3100 H   0  0  0  0  0  0  0  0  0  0  0  0
   38.2990   26.8890   36.2160 C   0  0  0  0  0  3  0  0  0  0  0  0
   38.4850   25.5270   36.1030 C   0  0  0  0  0  0  0  0  0  0  0  0
   38.8850   24.8930   36.8830 H   0  0  0  0  0  0  0  0  0  0  0  0
   38.1480   24.8810   34.9300 C   0  0  0  0  0  0  0  0  0  0  0  0
   38.2690   23.8030   34.7730 H   0  0  0  0  0  0  0  0  0  0  0  0
   37.6270   25.6270   33.8840 C   0  0  0  0  0  3  0  0  0  0  0  0
   36.7490   28.0500   29.3030 O   0  0  0  0  0  0  0  0  0  0  0  0
   36.9780   28.7830   28.6450 H   0  0  0  0  0  0  0  0  0  0  0  0
  1  6  2  0  0  0  0
  1  2  1  0  0  0  0
  2  3  2  0  0  0  0
  3  4  1  0  0  0  0
  3  9  1  0  0  0  0
  5  8  1  0  0  0  0
  5  4  2  0  0  0  0
  6  5  1  0  0  0  0
  7  2  1  0  0  0  0
  9 10  1  0  0  0  0
 10 11  1  0  0  0  0
 10 12  2  0  0  0  0
 13 12  1  0  0  0  0
 13 14  1  0  0  0  0
 15 13  2  0  0  0  0
 16 15  1  0  0  0  0
 17  9  2  0  0  0  0
 17 15  1  0  0  0  0
 18  1  1  0  0  0  0
 19 18  1  0  0  0  0
M  END
>  <minimizedAffinity>
-4.27584124

$$$$

 OpenBabel03272503383D

 19 20  0  0  0  0  0  0  0  0999 V2000
   36.0020   29.3120   31.5400 C   0  0  0  0  0  0  0  0  0  0  0  0
   35.4130   30.1410   32.5040 C   0  0  0  0  0  0  0  0  0  0  0  0
   35.5210   29.7580   33.8300 C   0  0  0  0  0  0  0  0  0  0  0  0
   36.1810   28.6160   34.1410 N   0  0  0  0  0  0  0  0  0  0  0  0
   36.7460   27.8270   33.1710 C   0  0  0  0  0  0  0  0  0  0  0  0
   36.6490   28.1840   31.8950 N   0  0  0  0  0  0  0  0  0  0  0  0
   34.8870   31.0510   32.2580 H   0  0  0  0  0  0  0  0  0  0  0  0
   37.2710   26.9170   33.4370 H   0  0  0  0  0  0  0  0  0  0  0  0
   34.9610   30.5180   34.9390 C   0  0  0  0  0  0  0  0  0  0  0  0
   33.6150   30.3710   35.2070 C   0  0  0  0  0  0  0  0  0  0  0  0
   32.9540   29.7220   34.6380 H   0  0  0  0  0  0  0  0  0  0  0  0
   33.0160   31.0750   36.2610 C   0  0  0  0  0  3  0  0  0  0  0  0
   33.7700   31.9250   37.0440 C   0  0  0  0  0  0  0  0  0  0  0  0
   33.3850   32.5020   37.8740 H   0  0  0  0  0  0  0  0  0  0  0  0
   35.1180   32.0820   36.7880 C   0  0  0  0  0  0  0  0  0  0  0  0
   35.7750   32.7390   37.3690 H   0  0  0  0  0  0  0  0  0  0  0  0
   35.6850   31.3740   35.7390 C   0  0  0  0  0  3  0  0  0  0  0  0
   35.8400   29.7780   30.2490 O   0  0  0  0  0  0  0  0  0  0  0  0
   35.6100   29.1110   29.5250 H   0  0  0  0  0  0  0  0  0  0  0  0
  1  6  2  0  0  0  0
  1  2  1  0  0  0  0
  2  3  2  0  0  0  0
  3  4  1  0  0  0  0
  3  9  1  0  0  0  0
  5  8  1  0  0  0  0
  5  4  2  0  0  0  0
  6  5  1  0  0  0  0
  7  2  1  0  0  0  0
  9 10  2  0  0  0  0
  9 17  1  0  0  0  0
 10 12  1  0  0  0  0
 11 10  1  0  0  0  0
 12 13  2  0  0  0  0
 13 14  1  0  0  0  0
 15 13  1  0  0  0  0
 15 16  1  0  0  0  0
 17 15  2  0  0  0  0
 18  1  1  0  0  0  0
 19 18  1  0  0  0  0
M  END
>  <minimizedAffinity>
-4.24275017

$$$$

 OpenBabel03272503383D

 19 20  0  0  0  0  0  0  0  0999 V2000
   35.9920   29.3230   31.5490 C   0  0  0  0  0  0  0  0  0  0  0  0
   35.3580   30.1300   32.5030 C   0  0  0  0  0  0  0  0  0  0  0  0
   35.4620   29.7530   33.8310 C   0  0  0  0  0  0  0  0  0  0  0  0
   36.1620   28.6390   34.1530 N   0  0  0  0  0  0  0  0  0  0  0  0
   36.7710   27.8710   33.1940 C   0  0  0  0  0  0  0  0  0  0  0  0
   36.6790   28.2230   31.9150 N   0  0  0  0  0  0  0  0  0  0  0  0
   34.7990   31.0180   32.2480 H   0  0  0  0  0  0  0  0  0  0  0  0
   37.3280   26.9830   33.4690 H   0  0  0  0  0  0  0  0  0  0  0  0
   34.8560   30.4910   34.9310 C   0  0  0  0  0  0  0  0  0  0  0  0
   35.6660   31.3250   35.6720 C   0  0  0  0  0  0  0  0  0  0  0  0
   36.7280   31.4610   35.4810 H   0  0  0  0  0  0  0  0  0  0  0  0
   35.1430   32.0630   36.7440 C   0  0  0  0  0  3  0  0  0  0  0  0
   33.8050   31.9600   37.0680 C   0  0  0  0  0  0  0  0  0  0  0  0
   33.3240   32.4940   37.8760 H   0  0  0  0  0  0  0  0  0  0  0  0
   32.9810   31.1300   36.3340 C   0  0  0  0  0  0  0  0  0  0  0  0
   31.9120   31.0000   36.5360 H   0  0  0  0  0  0  0  0  0  0  0  0
   33.5260   30.4120   35.2800 C   0  0  0  0  0  3  0  0  0  0  0  0
   35.8300   29.7810   30.2550 O   0  0  0  0  0  0  0  0  0  0  0  0
   35.6380   29.1040   29.5290 H   0  0  0  0  0  0  0  0  0  0  0  0
  1  6  2  0  0  0  0
  1  2  1  0  0  0  0
  2  3  2  0  0  0  0
  3  4  1  0  0  0  0
  3  9  1  0  0  0  0
  5  8  1  0  0  0  0
  5  4  2  0  0  0  0
  6  5  1  0  0  0  0
  7  2  1  0  0  0  0
  9 17  2  0  0  0  0
  9 10  1  0  0  0  0
 10 12  2  0  0  0  0
 11 10  1  0  0  0  0
 12 13  1  0  0  0  0
 13 14  1  0  0  0  0
 15 16  1  0  0  0  0
 15 13  2  0  0  0  0
 17 15  1  0  0  0  0
 18  1  1  0  0  0  0
 19 18  1  0  0  0  0
M  END
>  <minimizedAffinity>
-4.22613287

$$$$

 OpenBabel03272503383D

 19 20  0  0  0  0  0  0  0  0999 V2000
   40.7690   27.1680   33.4190 C   0  0  0  0  0  0  0  0  0  0  0  0
   40.6480   26.4020   34.5860 C   0  0  0  0  0  0  0  0  0  0  0  0
   39.5130   25.6210   34.7240 C   0  0  0  0  0  0  0  0  0  0  0  0
   38.5790   25.6250   33.7430 N   0  0  0  0  0  0  0  0  0  0  0  0
   38.7290   26.3870   32.6120 C   0  0  0  0  0  0  0  0  0  0  0  0
   39.8140   27.1410   32.4680 N   0  0  0  0  0  0  0  0  0  0  0  0
   41.3910   26.3970   35.3690 H   0  0  0  0  0  0  0  0  0  0  0  0
   37.9720   26.3790   31.8370 H   0  0  0  0  0  0  0  0  0  0  0  0
   39.2500   24.7740   35.8800 C   0  0  0  0  0  0  0  0  0  0  0  0
   38.2090   25.1270   36.7140 C   0  0  0  0  0  0  0  0  0  0  0  0
   37.5780   25.9980   36.5560 H   0  0  0  0  0  0  0  0  0  0  0  0
   37.9060   24.3540   37.8440 C   0  0  0  0  0  3  0  0  0  0  0  0
   38.6500   23.2280   38.1320 C   0  0  0  0  0  0  0  0  0  0  0  0
   38.4800   22.5780   38.9810 H   0  0  0  0  0  0  0  0  0  0  0  0
   39.6940   22.8620   37.3070 C   0  0  0  0  0  0  0  0  0  0  0  0
   40.3240   21.9820   37.4760 H   0  0  0  0  0  0  0  0  0  0  0  0
   39.9720   23.6450   36.1970 C   0  0  0  0  0  3  0  0  0  0  0  0
   41.9320   27.9110   33.3740 O   0  0  0  0  0  0  0  0  0  0  0  0
   41.8800   28.8630   33.0370 H   0  0  0  0  0  0  0  0  0  0  0  0
  1  2  1  0  0  0  0
  2  3  2  0  0  0  0
  2  7  1  0  0  0  0
  3  9  1  0  0  0  0
  4  3  1  0  0  0  0
  5  4  2  0  0  0  0
  6  5  1  0  0  0  0
  6  1  2  0  0  0  0
  8  5  1  0  0  0  0
  9 17  2  0  0  0  0
  9 10  1  0  0  0  0
 10 12  2  0  0  0  0
 11 10  1  0  0  0  0
 12 13  1  0  0  0  0
 13 14  1  0  0  0  0
 15 16  1  0  0  0  0
 15 13  2  0  0  0  0
 17 15  1  0  0  0  0
 18  1  1  0  0  0  0
 19 18  1  0  0  0  0
M  END
>  <minimizedAffinity>
-4.10208321

$$$$
