
 OpenBabel03272506103D

 44 47  0  0  0  0  0  0  0  0999 V2000
   36.7200   26.3390   32.4600 C   0  0  0  0  0  0  0  0  0  0  0  0
   35.7170   26.3240   32.9120 H   0  0  0  0  0  0  0  0  0  0  0  0
   36.5440   26.1450   31.3620 H   0  0  0  0  0  0  0  0  0  0  0  0
   37.5550   25.2130   33.0070 C   0  0  0  0  0  0  0  0  0  0  0  0
   38.1470   24.2760   32.0830 C   0  0  0  0  0  0  0  0  0  0  0  0
   38.9950   23.1900   33.1900 S   0  0  0  0  0  0  0  0  0  0  0  0
   38.4630   24.1080   34.7410 C   0  0  0  0  0  0  0  0  0  0  0  0
   37.8140   24.9770   34.2530 N   0  0  0  0  0  0  0  0  0  0  0  0
   38.7350   23.8690   36.1520 N   0  0  0  0  0  0  0  0  0  0  0  0
   39.9720   23.2190   36.4450 C   0  0  0  0  0  0  0  0  0  0  0  0
   40.0640   22.6550   37.8210 C   0  0  0  0  0  0  0  0  0  0  0  0
   38.7920   22.6560   38.5250 N   0  0  0  0  0  0  0  0  0  0  0  0
   38.3410   24.0450   38.5030 C   0  0  0  0  0  0  0  0  0  0  0  0
   37.7750   24.2880   37.1340 C   0  0  0  0  0  0  0  0  0  0  0  0
   38.0680   24.2790   31.0300 H   0  0  0  0  0  0  0  0  0  0  0  0
   40.0820   22.3710   35.7320 H   0  0  0  0  0  0  0  0  0  0  0  0
   40.8520   23.8910   36.2400 H   0  0  0  0  0  0  0  0  0  0  0  0
   40.5690   21.6760   37.8610 H   0  0  0  0  0  0  0  0  0  0  0  0
   40.7190   23.3380   38.4260 H   0  0  0  0  0  0  0  0  0  0  0  0
   38.0830   22.0890   38.0020 H   0  0  0  0  0  0  0  0  0  0  0  0
   37.5240   24.1710   39.2570 H   0  0  0  0  0  0  0  0  0  0  0  0
   39.1490   24.7570   38.7160 H   0  0  0  0  0  0  0  0  0  0  0  0
   36.8110   23.7550   36.9940 H   0  0  0  0  0  0  0  0  0  0  0  0
   37.5800   25.3960   37.0610 H   0  0  0  0  0  0  0  0  0  0  0  0
   37.3930   27.6430   32.6150 C   0  0  0  0  0  0  0  0  0  0  0  0
   38.2190   27.7880   31.8850 H   0  0  0  0  0  0  0  0  0  0  0  0
   37.8530   27.7850   33.6200 H   0  0  0  0  0  0  0  0  0  0  0  0
   35.1520   30.2670   31.2550 C   0  0  0  0  0  0  0  0  0  0  0  0
   34.6080   30.8350   32.3980 C   0  0  0  0  0  0  0  0  0  0  0  0
   35.0160   30.3130   33.6230 C   0  0  0  0  0  0  0  0  0  0  0  0
   35.9020   29.2980   33.6470 N   0  0  0  0  0  0  0  0  0  0  0  0
   36.4060   28.7760   32.4870 C   0  0  0  0  0  0  0  0  0  0  0  0
   36.0310   29.2600   31.3110 N   0  0  0  0  0  0  0  0  0  0  0  0
   34.8300   30.6800   30.3030 H   0  0  0  0  0  0  0  0  0  0  0  0
   33.9000   31.6450   32.3630 H   0  0  0  0  0  0  0  0  0  0  0  0
   34.5230   30.8170   34.8900 C   0  0  0  0  0  0  0  0  0  0  0  0
   33.2330   30.4860   35.2460 C   0  0  0  0  0  0  0  0  0  0  0  0
   32.5520   29.8800   34.6640 H   0  0  0  0  0  0  0  0  0  0  0  0
   32.7040   30.9440   36.4590 C   0  0  0  0  0  3  0  0  0  0  0  0
   33.4180   31.7240   37.3310 C   0  0  0  0  0  0  0  0  0  0  0  0
   33.0340   32.0890   38.2680 H   0  0  0  0  0  0  0  0  0  0  0  0
   34.7220   32.0580   36.9670 C   0  0  0  0  0  0  0  0  0  0  0  0
   35.3190   32.6690   37.6190 H   0  0  0  0  0  0  0  0  0  0  0  0
   35.2150   31.5910   35.7650 C   0  0  0  0  0  3  0  0  0  0  0  0
  1 25  1  0  0  0  0
  1  2  1  0  0  0  0
  1  4  1  0  0  0  0
  3  1  1  0  0  0  0
  4  8  1  0  0  0  0
  5  4  2  0  0  0  0
  5  6  1  0  0  0  0
  6  7  1  0  0  0  0
  7  9  1  0  0  0  0
  8  7  2  0  0  0  0
  9 10  1  0  0  0  0
  9 14  1  0  0  0  0
 10 11  1  0  0  0  0
 11 18  1  0  0  0  0
 11 19  1  0  0  0  0
 11 12  1  0  0  0  0
 13 12  1  0  0  0  0
 13 22  1  0  0  0  0
 13 21  1  0  0  0  0
 14 13  1  0  0  0  0
 15  5  1  0  0  0  0
 16 10  1  0  0  0  0
 17 10  1  0  0  0  0
 20 12  1  0  0  0  0
 23 14  1  0  0  0  0
 24 14  1  0  0  0  0
 25 27  1  0  0  0  0
 26 25  1  0  0  0  0
 28 33  2  0  0  0  0
 28 29  1  0  0  0  0
 29 30  2  0  0  0  0
 30 31  1  0  0  0  0
 30 36  1  0  0  0  0
 32 25  1  0  0  0  0
 32 31  2  0  0  0  0
 33 32  1  0  0  0  0
 34 28  1  0  0  0  0
 35 29  1  0  0  0  0
 36 37  2  0  0  0  0
 36 44  1  0  0  0  0
 37 39  1  0  0  0  0
 38 37  1  0  0  0  0
 39 40  2  0  0  0  0
 40 41  1  0  0  0  0
 42 40  1  0  0  0  0
 42 43  1  0  0  0  0
 44 42  2  0  0  0  0
M  END
>  <minimizedAffinity>
-6.47694016

$$$$

 OpenBabel03272506103D

 44 47  0  0  0  0  0  0  0  0999 V2000
   39.5090   26.4480   31.9770 C   0  0  0  0  0  0  0  0  0  0  0  0
   40.5740   26.7210   32.0060 H   0  0  0  0  0  0  0  0  0  0  0  0
   39.0060   27.3060   31.4420 H   0  0  0  0  0  0  0  0  0  0  0  0
   38.9520   26.3760   33.3730 C   0  0  0  0  0  0  0  0  0  0  0  0
   38.1550   27.4740   33.8600 C   0  0  0  0  0  0  0  0  0  0  0  0
   37.7570   26.9160   35.4890 S   0  0  0  0  0  0  0  0  0  0  0  0
   38.6960   25.2960   35.3270 C   0  0  0  0  0  0  0  0  0  0  0  0
   39.1090   25.4080   34.2180 N   0  0  0  0  0  0  0  0  0  0  0  0
   38.8920   24.1910   36.2560 N   0  0  0  0  0  0  0  0  0  0  0  0
   37.8470   23.9860   37.2080 C   0  0  0  0  0  0  0  0  0  0  0  0
   38.2210   23.1200   38.3610 C   0  0  0  0  0  0  0  0  0  0  0  0
   39.6480   22.8460   38.4300 N   0  0  0  0  0  0  0  0  0  0  0  0
   39.9900   22.2590   37.1370 C   0  0  0  0  0  0  0  0  0  0  0  0
   40.0860   23.3980   36.1630 C   0  0  0  0  0  0  0  0  0  0  0  0
   37.9010   28.3590   33.3420 H   0  0  0  0  0  0  0  0  0  0  0  0
   37.5680   24.9810   37.6190 H   0  0  0  0  0  0  0  0  0  0  0  0
   36.9110   23.5970   36.7170 H   0  0  0  0  0  0  0  0  0  0  0  0
   37.8110   23.4680   39.3220 H   0  0  0  0  0  0  0  0  0  0  0  0
   37.7510   22.1130   38.1970 H   0  0  0  0  0  0  0  0  0  0  0  0
   40.1880   23.7390   38.5210 H   0  0  0  0  0  0  0  0  0  0  0  0
   40.9940   21.7700   37.2170 H   0  0  0  0  0  0  0  0  0  0  0  0
   39.2510   21.5240   36.7950 H   0  0  0  0  0  0  0  0  0  0  0  0
   40.9850   24.0190   36.3540 H   0  0  0  0  0  0  0  0  0  0  0  0
   40.1850   22.9360   35.1400 H   0  0  0  0  0  0  0  0  0  0  0  0
   39.2630   25.2030   31.2240 C   0  0  0  0  0  0  0  0  0  0  0  0
   39.8690   24.3490   31.5990 H   0  0  0  0  0  0  0  0  0  0  0  0
   39.5050   25.2880   30.1400 H   0  0  0  0  0  0  0  0  0  0  0  0
   35.5620   25.3230   31.0190 C   0  0  0  0  0  0  0  0  0  0  0  0
   35.1890   24.0310   31.3580 C   0  0  0  0  0  0  0  0  0  0  0  0
   36.2110   23.1320   31.6550 C   0  0  0  0  0  0  0  0  0  0  0  0
   37.4920   23.5460   31.5990 N   0  0  0  0  0  0  0  0  0  0  0  0
   37.8010   24.8340   31.2580 C   0  0  0  0  0  0  0  0  0  0  0  0
   36.8430   25.7040   30.9740 N   0  0  0  0  0  0  0  0  0  0  0  0
   34.7590   26.0190   30.7900 H   0  0  0  0  0  0  0  0  0  0  0  0
   34.1610   23.7140   31.3980 H   0  0  0  0  0  0  0  0  0  0  0  0
   35.9560   21.7530   32.0230 C   0  0  0  0  0  0  0  0  0  0  0  0
   35.8980   20.8240   31.0060 C   0  0  0  0  0  0  0  0  0  0  0  0
   36.0280   21.0310   29.9530 H   0  0  0  0  0  0  0  0  0  0  0  0
   35.6560   19.4770   31.3020 C   0  0  0  0  0  3  0  0  0  0  0  0
   35.4660   19.0230   32.5820 C   0  0  0  0  0  0  0  0  0  0  0  0
   35.2780   17.9940   32.8360 H   0  0  0  0  0  0  0  0  0  0  0  0
   35.5240   19.9650   33.6080 C   0  0  0  0  0  0  0  0  0  0  0  0
   35.3810   19.6550   34.6270 H   0  0  0  0  0  0  0  0  0  0  0  0
   35.7650   21.2850   33.2840 C   0  0  0  0  0  3  0  0  0  0  0  0
  1  2  1  0  0  0  0
  1  4  1  0  0  0  0
  3  1  1  0  0  0  0
  4  5  2  0  0  0  0
  4  8  1  0  0  0  0
  5  6  1  0  0  0  0
  7  6  1  0  0  0  0
  7  9  1  0  0  0  0
  8  7  2  0  0  0  0
  9 10  1  0  0  0  0
 10 16  1  0  0  0  0
 10 11  1  0  0  0  0
 11 12  1  0  0  0  0
 11 18  1  0  0  0  0
 12 20  1  0  0  0  0
 13 21  1  0  0  0  0
 13 12  1  0  0  0  0
 14  9  1  0  0  0  0
 14 23  1  0  0  0  0
 14 13  1  0  0  0  0
 15  5  1  0  0  0  0
 17 10  1  0  0  0  0
 19 11  1  0  0  0  0
 22 13  1  0  0  0  0
 24 14  1  0  0  0  0
 25 32  1  0  0  0  0
 25 26  1  0  0  0  0
 25  1  1  0  0  0  0
 27 25  1  0  0  0  0
 28 29  1  0  0  0  0
 29 35  1  0  0  0  0
 29 30  2  0  0  0  0
 30 36  1  0  0  0  0
 31 30  1  0  0  0  0
 32 31  2  0  0  0  0
 33 28  2  0  0  0  0
 33 32  1  0  0  0  0
 34 28  1  0  0  0  0
 36 44  1  0  0  0  0
 37 39  1  0  0  0  0
 37 36  2  0  0  0  0
 38 37  1  0  0  0  0
 39 40  2  0  0  0  0
 40 41  1  0  0  0  0
 40 42  1  0  0  0  0
 42 43  1  0  0  0  0
 44 42  2  0  0  0  0
M  END
>  <minimizedAffinity>
-6.3023963

$$$$

 OpenBabel03272506103D

 44 47  0  0  0  0  0  0  0  0999 V2000
   37.5730   25.7710   31.0490 C   0  0  0  0  0  0  0  0  0  0  0  0
   37.3210   26.2940   30.1150 H   0  0  0  0  0  0  0  0  0  0  0  0
   38.4860   26.3060   31.4420 H   0  0  0  0  0  0  0  0  0  0  0  0
   37.9550   24.3440   30.7610 C   0  0  0  0  0  0  0  0  0  0  0  0
   39.1480   24.0870   29.9930 C   0  0  0  0  0  0  0  0  0  0  0  0
   39.1480   22.3200   29.9390 S   0  0  0  0  0  0  0  0  0  0  0  0
   37.5680   22.1370   30.9390 C   0  0  0  0  0  0  0  0  0  0  0  0
   37.3160   23.2820   31.1360 N   0  0  0  0  0  0  0  0  0  0  0  0
   36.8250   20.9620   31.3750 N   0  0  0  0  0  0  0  0  0  0  0  0
   37.5980   19.7790   31.5780 C   0  0  0  0  0  0  0  0  0  0  0  0
   36.8000   18.5240   31.6530 C   0  0  0  0  0  0  0  0  0  0  0  0
   35.4110   18.7050   31.2630 N   0  0  0  0  0  0  0  0  0  0  0  0
   34.9020   19.7630   32.1340 C   0  0  0  0  0  0  0  0  0  0  0  0
   35.4060   21.0600   31.5690 C   0  0  0  0  0  0  0  0  0  0  0  0
   39.8160   24.7990   29.5910 H   0  0  0  0  0  0  0  0  0  0  0  0
   38.2910   19.6780   30.7120 H   0  0  0  0  0  0  0  0  0  0  0  0
   38.2670   19.8700   32.4800 H   0  0  0  0  0  0  0  0  0  0  0  0
   37.2740   17.6700   31.1420 H   0  0  0  0  0  0  0  0  0  0  0  0
   36.7480   18.2170   32.7330 H   0  0  0  0  0  0  0  0  0  0  0  0
   35.3500   19.0560   30.2780 H   0  0  0  0  0  0  0  0  0  0  0  0
   33.7840   19.7620   32.0870 H   0  0  0  0  0  0  0  0  0  0  0  0
   35.2250   19.6470   33.1760 H   0  0  0  0  0  0  0  0  0  0  0  0
   34.8960   21.3120   30.6160 H   0  0  0  0  0  0  0  0  0  0  0  0
   35.1560   21.8570   32.3260 H   0  0  0  0  0  0  0  0  0  0  0  0
   36.4970   25.8570   32.0550 C   0  0  0  0  0  0  0  0  0  0  0  0
   35.9670   24.8890   32.1990 H   0  0  0  0  0  0  0  0  0  0  0  0
   35.7060   26.5950   31.7930 H   0  0  0  0  0  0  0  0  0  0  0  0
   37.4630   27.9730   34.9440 C   0  0  0  0  0  0  0  0  0  0  0  0
   38.0530   27.0660   35.8110 C   0  0  0  0  0  0  0  0  0  0  0  0
   38.1140   25.7380   35.3970 C   0  0  0  0  0  0  0  0  0  0  0  0
   37.6070   25.3970   34.1960 N   0  0  0  0  0  0  0  0  0  0  0  0
   37.0360   26.3350   33.3800 C   0  0  0  0  0  0  0  0  0  0  0  0
   36.9690   27.6040   33.7570 N   0  0  0  0  0  0  0  0  0  0  0  0
   37.4190   29.0080   35.2740 H   0  0  0  0  0  0  0  0  0  0  0  0
   38.4530   27.3530   36.7690 H   0  0  0  0  0  0  0  0  0  0  0  0
   38.7040   24.6920   36.2100 C   0  0  0  0  0  0  0  0  0  0  0  0
   39.8300   24.0660   35.7190 C   0  0  0  0  0  0  0  0  0  0  0  0
   40.3170   24.2860   34.7790 H   0  0  0  0  0  0  0  0  0  0  0  0
   40.4440   23.0500   36.4610 C   0  0  0  0  0  3  0  0  0  0  0  0
   39.9710   22.6340   37.6790 C   0  0  0  0  0  0  0  0  0  0  0  0
   40.4240   21.8550   38.2680 H   0  0  0  0  0  0  0  0  0  0  0  0
   38.8320   23.2680   38.1720 C   0  0  0  0  0  0  0  0  0  0  0  0
   38.4250   22.9740   39.1220 H   0  0  0  0  0  0  0  0  0  0  0  0
   38.2500   24.2660   37.4160 C   0  0  0  0  0  3  0  0  0  0  0  0
  1  3  1  0  0  0  0
  1 25  1  0  0  0  0
  2  1  1  0  0  0  0
  4  1  1  0  0  0  0
  4  8  1  0  0  0  0
  5  4  2  0  0  0  0
  6  5  1  0  0  0  0
  6  7  1  0  0  0  0
  7  8  2  0  0  0  0
  7  9  1  0  0  0  0
  9 14  1  0  0  0  0
  9 10  1  0  0  0  0
 10 11  1  0  0  0  0
 10 17  1  0  0  0  0
 11 19  1  0  0  0  0
 12 11  1  0  0  0  0
 12 13  1  0  0  0  0
 13 22  1  0  0  0  0
 14 13  1  0  0  0  0
 14 24  1  0  0  0  0
 15  5  1  0  0  0  0
 16 10  1  0  0  0  0
 18 11  1  0  0  0  0
 20 12  1  0  0  0  0
 21 13  1  0  0  0  0
 23 14  1  0  0  0  0
 25 26  1  0  0  0  0
 25 32  1  0  0  0  0
 27 25  1  0  0  0  0
 28 34  1  0  0  0  0
 28 29  1  0  0  0  0
 29 35  1  0  0  0  0
 30 29  2  0  0  0  0
 30 36  1  0  0  0  0
 31 30  1  0  0  0  0
 32 33  1  0  0  0  0
 32 31  2  0  0  0  0
 33 28  2  0  0  0  0
 36 44  1  0  0  0  0
 37 36  2  0  0  0  0
 37 39  1  0  0  0  0
 38 37  1  0  0  0  0
 39 40  2  0  0  0  0
 40 42  1  0  0  0  0
 40 41  1  0  0  0  0
 42 43  1  0  0  0  0
 44 42  2  0  0  0  0
M  END
>  <minimizedAffinity>
-6.03826571

$$$$

 OpenBabel03272506103D

 44 47  0  0  0  0  0  0  0  0999 V2000
   35.7570   23.0490   31.9800 C   0  0  0  0  0  0  0  0  0  0  0  0
   35.2430   23.5500   32.8130 H   0  0  0  0  0  0  0  0  0  0  0  0
   35.0450   22.2370   31.6490 H   0  0  0  0  0  0  0  0  0  0  0  0
   37.0200   22.3920   32.4660 C   0  0  0  0  0  0  0  0  0  0  0  0
   37.6840   21.4420   31.6080 C   0  0  0  0  0  0  0  0  0  0  0  0
   39.0660   20.9800   32.6090 S   0  0  0  0  0  0  0  0  0  0  0  0
   38.5970   22.1010   34.0420 C   0  0  0  0  0  0  0  0  0  0  0  0
   37.6030   22.5870   33.6060 N   0  0  0  0  0  0  0  0  0  0  0  0
   39.2280   22.3420   35.3330 N   0  0  0  0  0  0  0  0  0  0  0  0
   40.6440   22.1670   35.3740 C   0  0  0  0  0  0  0  0  0  0  0  0
   41.2130   22.0490   36.7460 C   0  0  0  0  0  0  0  0  0  0  0  0
   40.1980   21.8890   37.7740 N   0  0  0  0  0  0  0  0  0  0  0  0
   39.3080   23.0370   37.6180 C   0  0  0  0  0  0  0  0  0  0  0  0
   38.4150   22.7300   36.4510 C   0  0  0  0  0  0  0  0  0  0  0  0
   37.3860   21.1350   30.6430 H   0  0  0  0  0  0  0  0  0  0  0  0
   40.8810   21.2220   34.8360 H   0  0  0  0  0  0  0  0  0  0  0  0
   41.1790   22.9740   34.7990 H   0  0  0  0  0  0  0  0  0  0  0  0
   42.0170   21.2990   36.8250 H   0  0  0  0  0  0  0  0  0  0  0  0
   41.7100   23.0260   36.9940 H   0  0  0  0  0  0  0  0  0  0  0  0
   39.6290   21.0270   37.5970 H   0  0  0  0  0  0  0  0  0  0  0  0
   38.6770   23.1320   38.5380 H   0  0  0  0  0  0  0  0  0  0  0  0
   39.8510   23.9750   37.4490 H   0  0  0  0  0  0  0  0  0  0  0  0
   37.6830   21.9330   36.7000 H   0  0  0  0  0  0  0  0  0  0  0  0
   37.8450   23.6760   36.2270 H   0  0  0  0  0  0  0  0  0  0  0  0
   36.0130   23.9540   30.8430 C   0  0  0  0  0  0  0  0  0  0  0  0
   35.1580   24.0040   30.1340 H   0  0  0  0  0  0  0  0  0  0  0  0
   36.8920   23.6530   30.2290 H   0  0  0  0  0  0  0  0  0  0  0  0
   35.8250   27.5560   31.7060 C   0  0  0  0  0  0  0  0  0  0  0  0
   37.0800   27.8150   32.2370 C   0  0  0  0  0  0  0  0  0  0  0  0
   37.9780   26.7520   32.2930 C   0  0  0  0  0  0  0  0  0  0  0  0
   37.5980   25.5410   31.8400 N   0  0  0  0  0  0  0  0  0  0  0  0
   36.3460   25.3430   31.3260 C   0  0  0  0  0  0  0  0  0  0  0  0
   35.4770   26.3420   31.2630 N   0  0  0  0  0  0  0  0  0  0  0  0
   35.1300   28.3900   31.6650 H   0  0  0  0  0  0  0  0  0  0  0  0
   37.3690   28.7870   32.5960 H   0  0  0  0  0  0  0  0  0  0  0  0
   39.3200   26.8900   32.8250 C   0  0  0  0  0  0  0  0  0  0  0  0
   40.3020   27.3320   31.9640 C   0  0  0  0  0  0  0  0  0  0  0  0
   40.1620   27.5870   30.9230 H   0  0  0  0  0  0  0  0  0  0  0  0
   41.6150   27.4850   32.4230 C   0  0  0  0  0  3  0  0  0  0  0  0
   41.9860   27.2110   33.7140 C   0  0  0  0  0  0  0  0  0  0  0  0
   42.9880   27.3200   34.0910 H   0  0  0  0  0  0  0  0  0  0  0  0
   40.9910   26.7630   34.5820 C   0  0  0  0  0  0  0  0  0  0  0  0
   41.2350   26.5360   35.6030 H   0  0  0  0  0  0  0  0  0  0  0  0
   39.7050   26.6230   34.0990 C   0  0  0  0  0  3  0  0  0  0  0  0
  1  4  1  0  0  0  0
  1  2  1  0  0  0  0
  3  1  1  0  0  0  0
  4  8  1  0  0  0  0
  5  4  2  0  0  0  0
  5  6  1  0  0  0  0
  6  7  1  0  0  0  0
  7  9  1  0  0  0  0
  8  7  2  0  0  0  0
  9 10  1  0  0  0  0
  9 14  1  0  0  0  0
 10 11  1  0  0  0  0
 11 18  1  0  0  0  0
 11 19  1  0  0  0  0
 11 12  1  0  0  0  0
 13 12  1  0  0  0  0
 13 21  1  0  0  0  0
 14 23  1  0  0  0  0
 14 13  1  0  0  0  0
 15  5  1  0  0  0  0
 16 10  1  0  0  0  0
 17 10  1  0  0  0  0
 20 12  1  0  0  0  0
 22 13  1  0  0  0  0
 24 14  1  0  0  0  0
 25 32  1  0  0  0  0
 25  1  1  0  0  0  0
 26 25  1  0  0  0  0
 27 25  1  0  0  0  0
 28 29  1  0  0  0  0
 29 30  2  0  0  0  0
 29 35  1  0  0  0  0
 30 36  1  0  0  0  0
 31 30  1  0  0  0  0
 32 31  2  0  0  0  0
 33 32  1  0  0  0  0
 33 28  2  0  0  0  0
 34 28  1  0  0  0  0
 36 44  1  0  0  0  0
 37 39  1  0  0  0  0
 37 36  2  0  0  0  0
 38 37  1  0  0  0  0
 39 40  2  0  0  0  0
 40 41  1  0  0  0  0
 40 42  1  0  0  0  0
 42 43  1  0  0  0  0
 44 42  2  0  0  0  0
M  END
>  <minimizedAffinity>
-6.03725004

$$$$

 OpenBabel03272506103D

 44 47  0  0  0  0  0  0  0  0999 V2000
   38.1350   26.7220   35.0820 C   0  0  0  0  0  0  0  0  0  0  0  0
   38.2190   27.0210   36.1370 H   0  0  0  0  0  0  0  0  0  0  0  0
   39.1580   26.9170   34.6450 H   0  0  0  0  0  0  0  0  0  0  0  0
   37.1460   27.6040   34.3680 C   0  0  0  0  0  0  0  0  0  0  0  0
   36.7630   27.2670   33.0200 C   0  0  0  0  0  0  0  0  0  0  0  0
   35.6230   28.5670   32.6510 S   0  0  0  0  0  0  0  0  0  0  0  0
   35.7920   29.3980   34.3280 C   0  0  0  0  0  0  0  0  0  0  0  0
   36.5770   28.6670   34.8410 N   0  0  0  0  0  0  0  0  0  0  0  0
   35.1700   30.5900   34.8880 N   0  0  0  0  0  0  0  0  0  0  0  0
   33.8740   30.9100   34.3820 C   0  0  0  0  0  0  0  0  0  0  0  0
   33.4200   32.2980   34.6740 C   0  0  0  0  0  0  0  0  0  0  0  0
   34.4770   33.1450   35.2040 N   0  0  0  0  0  0  0  0  0  0  0  0
   34.9760   32.4430   36.3840 C   0  0  0  0  0  0  0  0  0  0  0  0
   35.8740   31.3490   35.8830 C   0  0  0  0  0  0  0  0  0  0  0  0
   37.1000   26.4490   32.4440 H   0  0  0  0  0  0  0  0  0  0  0  0
   33.9080   30.8000   33.2750 H   0  0  0  0  0  0  0  0  0  0  0  0
   33.1000   30.1680   34.7270 H   0  0  0  0  0  0  0  0  0  0  0  0
   32.8820   32.7700   33.8360 H   0  0  0  0  0  0  0  0  0  0  0  0
   32.6650   32.2430   35.5040 H   0  0  0  0  0  0  0  0  0  0  0  0
   35.2700   33.2110   34.5220 H   0  0  0  0  0  0  0  0  0  0  0  0
   35.5870   33.1550   36.9960 H   0  0  0  0  0  0  0  0  0  0  0  0
   34.1710   32.0260   37.0030 H   0  0  0  0  0  0  0  0  0  0  0  0
   36.8190   31.7580   35.4700 H   0  0  0  0  0  0  0  0  0  0  0  0
   36.1260   30.7080   36.7750 H   0  0  0  0  0  0  0  0  0  0  0  0
   37.8100   25.2920   34.9200 C   0  0  0  0  0  0  0  0  0  0  0  0
   38.1980   24.8700   33.9680 H   0  0  0  0  0  0  0  0  0  0  0  0
   36.7150   25.0880   34.9130 H   0  0  0  0  0  0  0  0  0  0  0  0
   38.1690   23.5970   38.1990 C   0  0  0  0  0  0  0  0  0  0  0  0
   39.4160   22.9970   38.1040 C   0  0  0  0  0  0  0  0  0  0  0  0
   40.1210   23.1810   36.9170 C   0  0  0  0  0  0  0  0  0  0  0  0
   39.5730   23.9160   35.9310 N   0  0  0  0  0  0  0  0  0  0  0  0
   38.3380   24.4860   36.0790 C   0  0  0  0  0  0  0  0  0  0  0  0
   37.6530   24.3230   37.2020 N   0  0  0  0  0  0  0  0  0  0  0  0
   37.6260   23.4500   39.1280 H   0  0  0  0  0  0  0  0  0  0  0  0
   39.8410   22.4110   38.9010 H   0  0  0  0  0  0  0  0  0  0  0  0
   41.4340   22.6070   36.6910 C   0  0  0  0  0  0  0  0  0  0  0  0
   41.6090   21.2780   37.0120 C   0  0  0  0  0  0  0  0  0  0  0  0
   40.8530   20.6200   37.4180 H   0  0  0  0  0  0  0  0  0  0  0  0
   42.8550   20.6700   36.8140 C   0  0  0  0  0  3  0  0  0  0  0  0
   43.9350   21.3440   36.3070 C   0  0  0  0  0  0  0  0  0  0  0  0
   44.9030   20.9000   36.1470 H   0  0  0  0  0  0  0  0  0  0  0  0
   43.7550   22.6880   35.9850 C   0  0  0  0  0  0  0  0  0  0  0  0
   44.5740   23.2570   35.5850 H   0  0  0  0  0  0  0  0  0  0  0  0
   42.5150   23.2580   36.1910 C   0  0  0  0  0  3  0  0  0  0  0  0
  1  2  1  0  0  0  0
  3  1  1  0  0  0  0
  4  8  1  0  0  0  0
  4  1  1  0  0  0  0
  5  4  2  0  0  0  0
  6  5  1  0  0  0  0
  6  7  1  0  0  0  0
  7  8  2  0  0  0  0
  7  9  1  0  0  0  0
  9 14  1  0  0  0  0
 10 11  1  0  0  0  0
 10 17  1  0  0  0  0
 10  9  1  0  0  0  0
 11 12  1  0  0  0  0
 11 19  1  0  0  0  0
 12 13  1  0  0  0  0
 13 21  1  0  0  0  0
 13 22  1  0  0  0  0
 14 13  1  0  0  0  0
 14 24  1  0  0  0  0
 15  5  1  0  0  0  0
 16 10  1  0  0  0  0
 18 11  1  0  0  0  0
 20 12  1  0  0  0  0
 23 14  1  0  0  0  0
 25  1  1  0  0  0  0
 25 32  1  0  0  0  0
 26 25  1  0  0  0  0
 27 25  1  0  0  0  0
 28 34  1  0  0  0  0
 29 28  1  0  0  0  0
 29 35  1  0  0  0  0
 30 29  2  0  0  0  0
 31 32  2  0  0  0  0
 31 30  1  0  0  0  0
 32 33  1  0  0  0  0
 33 28  2  0  0  0  0
 36 30  1  0  0  0  0
 36 37  1  0  0  0  0
 37 38  1  0  0  0  0
 39 37  2  0  0  0  0
 40 39  1  0  0  0  0
 41 40  1  0  0  0  0
 42 44  1  0  0  0  0
 42 40  2  0  0  0  0
 43 42  1  0  0  0  0
 44 36  2  0  0  0  0
M  END
>  <minimizedAffinity>
-6.01405668

$$$$

 OpenBabel03272506103D

 44 47  0  0  0  0  0  0  0  0999 V2000
   37.0960   27.6190   33.6760 C   0  0  0  0  0  0  0  0  0  0  0  0
   36.9420   27.0300   34.5920 H   0  0  0  0  0  0  0  0  0  0  0  0
   38.0570   28.1830   33.8540 H   0  0  0  0  0  0  0  0  0  0  0  0
   35.9870   28.6230   33.5110 C   0  0  0  0  0  0  0  0  0  0  0  0
   35.2440   28.6400   32.2750 C   0  0  0  0  0  0  0  0  0  0  0  0
   34.1000   29.9530   32.5790 S   0  0  0  0  0  0  0  0  0  0  0  0
   34.7450   30.3200   34.3060 C   0  0  0  0  0  0  0  0  0  0  0  0
   35.6080   29.5060   34.3800 N   0  0  0  0  0  0  0  0  0  0  0  0
   34.3430   31.3020   35.3040 N   0  0  0  0  0  0  0  0  0  0  0  0
   32.9720   31.7000   35.2670 C   0  0  0  0  0  0  0  0  0  0  0  0
   32.6690   32.9470   36.0220 C   0  0  0  0  0  0  0  0  0  0  0  0
   33.8620   33.6590   36.4520 N   0  0  0  0  0  0  0  0  0  0  0  0
   34.6310   32.6890   37.2280 C   0  0  0  0  0  0  0  0  0  0  0  0
   35.3170   31.7950   36.2360 C   0  0  0  0  0  0  0  0  0  0  0  0
   35.3830   28.0130   31.4370 H   0  0  0  0  0  0  0  0  0  0  0  0
   32.7050   31.8850   34.2030 H   0  0  0  0  0  0  0  0  0  0  0  0
   32.2900   30.8680   35.6000 H   0  0  0  0  0  0  0  0  0  0  0  0
   31.9450   33.6040   35.5140 H   0  0  0  0  0  0  0  0  0  0  0  0
   32.1620   32.6510   36.9800 H   0  0  0  0  0  0  0  0  0  0  0  0
   34.4450   33.9290   35.6240 H   0  0  0  0  0  0  0  0  0  0  0  0
   35.4100   33.2360   37.8180 H   0  0  0  0  0  0  0  0  0  0  0  0
   34.0040   32.0980   37.9080 H   0  0  0  0  0  0  0  0  0  0  0  0
   36.1330   32.3300   35.7060 H   0  0  0  0  0  0  0  0  0  0  0  0
   35.7730   30.9510   36.8280 H   0  0  0  0  0  0  0  0  0  0  0  0
   37.2510   26.7740   32.4770 C   0  0  0  0  0  0  0  0  0  0  0  0
   38.0370   27.1520   31.7860 H   0  0  0  0  0  0  0  0  0  0  0  0
   36.3240   26.7030   31.8640 H   0  0  0  0  0  0  0  0  0  0  0  0
   37.8220   23.1110   32.3720 C   0  0  0  0  0  0  0  0  0  0  0  0
   38.1480   22.8090   33.6860 C   0  0  0  0  0  0  0  0  0  0  0  0
   38.1680   23.8650   34.5950 C   0  0  0  0  0  0  0  0  0  0  0  0
   37.8780   25.1090   34.1680 N   0  0  0  0  0  0  0  0  0  0  0  0
   37.5620   25.3490   32.8590 C   0  0  0  0  0  0  0  0  0  0  0  0
   37.5370   24.3570   31.9790 N   0  0  0  0  0  0  0  0  0  0  0  0
   37.8070   22.2820   31.6700 H   0  0  0  0  0  0  0  0  0  0  0  0
   38.3790   21.8100   34.0130 H   0  0  0  0  0  0  0  0  0  0  0  0
   38.4940   23.6830   35.9960 C   0  0  0  0  0  0  0  0  0  0  0  0
   37.6910   24.3140   36.9220 C   0  0  0  0  0  0  0  0  0  0  0  0
   36.8340   24.9350   36.6970 H   0  0  0  0  0  0  0  0  0  0  0  0
   37.9560   24.1740   38.2890 C   0  0  0  0  0  3  0  0  0  0  0  0
   39.0000   23.4250   38.7670 C   0  0  0  0  0  0  0  0  0  0  0  0
   39.2260   23.3020   39.8120 H   0  0  0  0  0  0  0  0  0  0  0  0
   39.8120   22.7890   37.8290 C   0  0  0  0  0  0  0  0  0  0  0  0
   40.6420   22.1910   38.1570 H   0  0  0  0  0  0  0  0  0  0  0  0
   39.5230   22.9460   36.4880 C   0  0  0  0  0  3  0  0  0  0  0  0
  1  3  1  0  0  0  0
  1  2  1  0  0  0  0
  4  1  1  0  0  0  0
  4  8  1  0  0  0  0
  5  6  1  0  0  0  0
  5  4  2  0  0  0  0
  6  7  1  0  0  0  0
  7  8  2  0  0  0  0
  7  9  1  0  0  0  0
  9 14  1  0  0  0  0
 10  9  1  0  0  0  0
 10 17  1  0  0  0  0
 10 11  1  0  0  0  0
 11 12  1  0  0  0  0
 11 19  1  0  0  0  0
 12 13  1  0  0  0  0
 13 21  1  0  0  0  0
 13 22  1  0  0  0  0
 14 24  1  0  0  0  0
 14 13  1  0  0  0  0
 15  5  1  0  0  0  0
 16 10  1  0  0  0  0
 18 11  1  0  0  0  0
 20 12  1  0  0  0  0
 23 14  1  0  0  0  0
 25 32  1  0  0  0  0
 25  1  1  0  0  0  0
 26 25  1  0  0  0  0
 27 25  1  0  0  0  0
 28 29  1  0  0  0  0
 29 35  1  0  0  0  0
 29 30  2  0  0  0  0
 30 36  1  0  0  0  0
 31 30  1  0  0  0  0
 32 31  2  0  0  0  0
 33 28  2  0  0  0  0
 33 32  1  0  0  0  0
 34 28  1  0  0  0  0
 36 44  2  0  0  0  0
 36 37  1  0  0  0  0
 37 39  2  0  0  0  0
 38 37  1  0  0  0  0
 39 40  1  0  0  0  0
 40 41  1  0  0  0  0
 42 43  1  0  0  0  0
 42 40  2  0  0  0  0
 44 42  1  0  0  0  0
M  END
>  <minimizedAffinity>
-5.95683813

$$$$

 OpenBabel03272506103D

 44 47  0  0  0  0  0  0  0  0999 V2000
   37.3190   27.0710   35.0540 C   0  0  0  0  0  0  0  0  0  0  0  0
   36.4500   26.6030   35.5390 H   0  0  0  0  0  0  0  0  0  0  0  0
   37.7270   27.7890   35.8230 H   0  0  0  0  0  0  0  0  0  0  0  0
   36.8800   27.8690   33.8560 C   0  0  0  0  0  0  0  0  0  0  0  0
   35.7070   28.7010   33.9690 C   0  0  0  0  0  0  0  0  0  0  0  0
   35.6240   29.4010   32.3470 S   0  0  0  0  0  0  0  0  0  0  0  0
   37.1520   28.5060   31.7180 C   0  0  0  0  0  0  0  0  0  0  0  0
   37.4520   27.8980   32.6950 N   0  0  0  0  0  0  0  0  0  0  0  0
   37.8180   28.5160   30.4220 N   0  0  0  0  0  0  0  0  0  0  0  0
   37.6860   29.7200   29.6650 C   0  0  0  0  0  0  0  0  0  0  0  0
   38.0400   29.5870   28.2250 C   0  0  0  0  0  0  0  0  0  0  0  0
   38.2180   28.2060   27.8050 N   0  0  0  0  0  0  0  0  0  0  0  0
   39.2360   27.6610   28.6990 C   0  0  0  0  0  0  0  0  0  0  0  0
   38.5450   27.3540   29.9960 C   0  0  0  0  0  0  0  0  0  0  0  0
   35.0920   28.8280   34.8180 H   0  0  0  0  0  0  0  0  0  0  0  0
   36.6190   30.0330   29.7160 H   0  0  0  0  0  0  0  0  0  0  0  0
   38.2630   30.5680   30.1310 H   0  0  0  0  0  0  0  0  0  0  0  0
   37.3700   30.1500   27.5540 H   0  0  0  0  0  0  0  0  0  0  0  0
   39.0510   30.0560   28.0770 H   0  0  0  0  0  0  0  0  0  0  0  0
   37.3380   27.6590   27.9630 H   0  0  0  0  0  0  0  0  0  0  0  0
   39.6230   26.7040   28.2640 H   0  0  0  0  0  0  0  0  0  0  0  0
   40.0720   28.3530   28.8640 H   0  0  0  0  0  0  0  0  0  0  0  0
   37.8670   26.4810   29.8970 H   0  0  0  0  0  0  0  0  0  0  0  0
   39.3550   27.0910   30.7350 H   0  0  0  0  0  0  0  0  0  0  0  0
   38.3680   26.0940   34.7050 C   0  0  0  0  0  0  0  0  0  0  0  0
   39.3490   26.5750   34.4990 H   0  0  0  0  0  0  0  0  0  0  0  0
   38.1310   25.4980   33.7940 H   0  0  0  0  0  0  0  0  0  0  0  0
   37.8290   23.9770   37.7020 C   0  0  0  0  0  0  0  0  0  0  0  0
   38.9560   23.1680   37.7190 C   0  0  0  0  0  0  0  0  0  0  0  0
   39.8900   23.3580   36.7030 C   0  0  0  0  0  0  0  0  0  0  0  0
   39.6630   24.2980   35.7650 N   0  0  0  0  0  0  0  0  0  0  0  0
   38.5330   25.0680   35.7970 C   0  0  0  0  0  0  0  0  0  0  0  0
   37.6330   24.9030   36.7570 N   0  0  0  0  0  0  0  0  0  0  0  0
   37.1060   23.8230   38.4980 H   0  0  0  0  0  0  0  0  0  0  0  0
   39.1240   22.4200   38.4750 H   0  0  0  0  0  0  0  0  0  0  0  0
   41.1090   22.5790   36.6060 C   0  0  0  0  0  0  0  0  0  0  0  0
   42.0790   23.0230   35.7340 C   0  0  0  0  0  0  0  0  0  0  0  0
   42.0150   23.9050   35.1120 H   0  0  0  0  0  0  0  0  0  0  0  0
   43.2770   22.3110   35.6000 C   0  0  0  0  0  3  0  0  0  0  0  0
   43.5420   21.1670   36.3070 C   0  0  0  0  0  0  0  0  0  0  0  0
   44.4540   20.6020   36.2220 H   0  0  0  0  0  0  0  0  0  0  0  0
   42.5580   20.7200   37.1880 C   0  0  0  0  0  0  0  0  0  0  0  0
   42.7210   19.8270   37.7630 H   0  0  0  0  0  0  0  0  0  0  0  0
   41.3880   21.4440   37.2980 C   0  0  0  0  0  3  0  0  0  0  0  0
  1  2  1  0  0  0  0
  1  3  1  0  0  0  0
  4  5  2  0  0  0  0
  4  1  1  0  0  0  0
  5 15  1  0  0  0  0
  6  5  1  0  0  0  0
  7  6  1  0  0  0  0
  7  8  2  0  0  0  0
  8  4  1  0  0  0  0
  9  7  1  0  0  0  0
 10 16  1  0  0  0  0
 10 17  1  0  0  0  0
 10  9  1  0  0  0  0
 11 10  1  0  0  0  0
 12 20  1  0  0  0  0
 12 11  1  0  0  0  0
 12 13  1  0  0  0  0
 13 22  1  0  0  0  0
 13 14  1  0  0  0  0
 14  9  1  0  0  0  0
 14 24  1  0  0  0  0
 18 11  1  0  0  0  0
 19 11  1  0  0  0  0
 21 13  1  0  0  0  0
 23 14  1  0  0  0  0
 25  1  1  0  0  0  0
 25 32  1  0  0  0  0
 26 25  1  0  0  0  0
 27 25  1  0  0  0  0
 28 29  1  0  0  0  0
 28 34  1  0  0  0  0
 29 35  1  0  0  0  0
 30 29  2  0  0  0  0
 31 32  2  0  0  0  0
 31 30  1  0  0  0  0
 32 33  1  0  0  0  0
 33 28  2  0  0  0  0
 36 30  1  0  0  0  0
 36 44  1  0  0  0  0
 37 36  2  0  0  0  0
 38 37  1  0  0  0  0
 39 37  1  0  0  0  0
 39 40  2  0  0  0  0
 40 42  1  0  0  0  0
 41 40  1  0  0  0  0
 42 44  2  0  0  0  0
 42 43  1  0  0  0  0
M  END
>  <minimizedAffinity>
-5.85743427

$$$$

 OpenBabel03272506103D

 44 47  0  0  0  0  0  0  0  0999 V2000
   35.9090   23.2570   31.9840 C   0  0  0  0  0  0  0  0  0  0  0  0
   35.3890   23.8590   32.7430 H   0  0  0  0  0  0  0  0  0  0  0  0
   35.1820   22.4350   31.7200 H   0  0  0  0  0  0  0  0  0  0  0  0
   37.1380   22.6210   32.5760 C   0  0  0  0  0  0  0  0  0  0  0  0
   37.8780   21.6700   31.7840 C   0  0  0  0  0  0  0  0  0  0  0  0
   39.1810   21.2350   32.8960 S   0  0  0  0  0  0  0  0  0  0  0  0
   38.5880   22.3650   34.2750 C   0  0  0  0  0  0  0  0  0  0  0  0
   37.6270   22.8350   33.7560 N   0  0  0  0  0  0  0  0  0  0  0  0
   39.1120   22.6270   35.6080 N   0  0  0  0  0  0  0  0  0  0  0  0
   40.5230   22.4690   35.7630 C   0  0  0  0  0  0  0  0  0  0  0  0
   40.9830   22.3720   37.1770 C   0  0  0  0  0  0  0  0  0  0  0  0
   39.8920   22.2110   38.1240 N   0  0  0  0  0  0  0  0  0  0  0  0
   39.0040   23.3470   37.8850 C   0  0  0  0  0  0  0  0  0  0  0  0
   38.2090   23.0170   36.6550 C   0  0  0  0  0  0  0  0  0  0  0  0
   37.6600   21.3490   30.8010 H   0  0  0  0  0  0  0  0  0  0  0  0
   40.8120   21.5220   35.2560 H   0  0  0  0  0  0  0  0  0  0  0  0
   41.0920   23.2770   35.2230 H   0  0  0  0  0  0  0  0  0  0  0  0
   41.7860   21.6330   37.3270 H   0  0  0  0  0  0  0  0  0  0  0  0
   41.4480   23.3580   37.4520 H   0  0  0  0  0  0  0  0  0  0  0  0
   39.3490   21.3400   37.9110 H   0  0  0  0  0  0  0  0  0  0  0  0
   38.3010   23.4430   38.7510 H   0  0  0  0  0  0  0  0  0  0  0  0
   39.5490   24.2900   37.7480 H   0  0  0  0  0  0  0  0  0  0  0  0
   37.4700   22.2140   36.8540 H   0  0  0  0  0  0  0  0  0  0  0  0
   37.6480   23.9540   36.3750 H   0  0  0  0  0  0  0  0  0  0  0  0
   36.2250   24.0280   30.7660 C   0  0  0  0  0  0  0  0  0  0  0  0
   35.3150   24.4000   30.2470 H   0  0  0  0  0  0  0  0  0  0  0  0
   36.7830   23.4380   30.0040 H   0  0  0  0  0  0  0  0  0  0  0  0
   39.1930   26.2180   31.1510 C   0  0  0  0  0  0  0  0  0  0  0  0
   38.6600   27.3690   31.7110 C   0  0  0  0  0  0  0  0  0  0  0  0
   37.2890   27.3820   31.9530 C   0  0  0  0  0  0  0  0  0  0  0  0
   36.5520   26.3000   31.6370 N   0  0  0  0  0  0  0  0  0  0  0  0
   37.1320   25.1900   31.0850 C   0  0  0  0  0  0  0  0  0  0  0  0
   38.4350   25.1580   30.8490 N   0  0  0  0  0  0  0  0  0  0  0  0
   40.2640   26.2150   30.9660 H   0  0  0  0  0  0  0  0  0  0  0  0
   39.2620   28.2270   31.9580 H   0  0  0  0  0  0  0  0  0  0  0  0
   36.6090   28.5230   32.5340 C   0  0  0  0  0  0  0  0  0  0  0  0
   36.2680   28.4480   33.8680 C   0  0  0  0  0  0  0  0  0  0  0  0
   36.4640   27.6110   34.5240 H   0  0  0  0  0  0  0  0  0  0  0  0
   35.6110   29.5200   34.4830 C   0  0  0  0  0  3  0  0  0  0  0  0
   35.2790   30.6680   33.8120 C   0  0  0  0  0  0  0  0  0  0  0  0
   34.7740   31.5060   34.2610 H   0  0  0  0  0  0  0  0  0  0  0  0
   35.6240   30.7410   32.4630 C   0  0  0  0  0  0  0  0  0  0  0  0
   35.3840   31.6220   31.8970 H   0  0  0  0  0  0  0  0  0  0  0  0
   36.2720   29.6680   31.8860 C   0  0  0  0  0  3  0  0  0  0  0  0
  1  4  1  0  0  0  0
  1  2  1  0  0  0  0
  3  1  1  0  0  0  0
  4  8  1  0  0  0  0
  5  4  2  0  0  0  0
  5  6  1  0  0  0  0
  6  7  1  0  0  0  0
  7  9  1  0  0  0  0
  8  7  2  0  0  0  0
  9 10  1  0  0  0  0
  9 14  1  0  0  0  0
 10 11  1  0  0  0  0
 11 18  1  0  0  0  0
 11 19  1  0  0  0  0
 11 12  1  0  0  0  0
 13 12  1  0  0  0  0
 13 21  1  0  0  0  0
 14 23  1  0  0  0  0
 14 13  1  0  0  0  0
 15  5  1  0  0  0  0
 16 10  1  0  0  0  0
 17 10  1  0  0  0  0
 20 12  1  0  0  0  0
 22 13  1  0  0  0  0
 24 14  1  0  0  0  0
 25 32  1  0  0  0  0
 25  1  1  0  0  0  0
 26 25  1  0  0  0  0
 27 25  1  0  0  0  0
 28 29  1  0  0  0  0
 29 30  2  0  0  0  0
 29 35  1  0  0  0  0
 30 36  1  0  0  0  0
 31 30  1  0  0  0  0
 32 31  2  0  0  0  0
 33 32  1  0  0  0  0
 33 28  2  0  0  0  0
 34 28  1  0  0  0  0
 36 37  1  0  0  0  0
 37 39  2  0  0  0  0
 37 38  1  0  0  0  0
 40 41  1  0  0  0  0
 40 39  1  0  0  0  0
 42 40  2  0  0  0  0
 43 42  1  0  0  0  0
 44 42  1  0  0  0  0
 44 36  2  0  0  0  0
M  END
>  <minimizedAffinity>
-5.84512234

$$$$

 OpenBabel03272506103D

 44 47  0  0  0  0  0  0  0  0999 V2000
   36.7110   27.8780   33.6930 C   0  0  0  0  0  0  0  0  0  0  0  0
   37.3530   28.6890   34.0690 H   0  0  0  0  0  0  0  0  0  0  0  0
   35.8140   27.8790   34.3780 H   0  0  0  0  0  0  0  0  0  0  0  0
   37.4090   26.5520   33.8370 C   0  0  0  0  0  0  0  0  0  0  0  0
   37.7220   25.8000   32.6470 C   0  0  0  0  0  0  0  0  0  0  0  0
   38.5080   24.3750   33.3380 S   0  0  0  0  0  0  0  0  0  0  0  0
   38.3250   24.9480   35.1180 C   0  0  0  0  0  0  0  0  0  0  0  0
   37.7740   25.9880   34.9430 N   0  0  0  0  0  0  0  0  0  0  0  0
   38.7230   24.3390   36.3800 N   0  0  0  0  0  0  0  0  0  0  0  0
   39.8620   23.4800   36.3230 C   0  0  0  0  0  0  0  0  0  0  0  0
   40.0260   22.5900   37.5060 C   0  0  0  0  0  0  0  0  0  0  0  0
   38.8660   22.5870   38.3840 N   0  0  0  0  0  0  0  0  0  0  0  0
   38.6510   23.9870   38.7420 C   0  0  0  0  0  0  0  0  0  0  0  0
   37.9710   24.6290   37.5680 C   0  0  0  0  0  0  0  0  0  0  0  0
   37.5180   26.0700   31.6470 H   0  0  0  0  0  0  0  0  0  0  0  0
   39.7440   22.8240   35.4310 H   0  0  0  0  0  0  0  0  0  0  0  0
   40.8100   24.0600   36.1380 H   0  0  0  0  0  0  0  0  0  0  0  0
   40.3630   21.5740   37.2480 H   0  0  0  0  0  0  0  0  0  0  0  0
   40.8530   23.0130   38.1390 H   0  0  0  0  0  0  0  0  0  0  0  0
   38.0150   22.2630   37.8650 H   0  0  0  0  0  0  0  0  0  0  0  0
   37.9620   24.0310   39.6240 H   0  0  0  0  0  0  0  0  0  0  0  0
   39.5850   24.5120   38.9800 H   0  0  0  0  0  0  0  0  0  0  0  0
   36.9230   24.2780   37.4650 H   0  0  0  0  0  0  0  0  0  0  0  0
   37.9540   25.7370   37.7750 H   0  0  0  0  0  0  0  0  0  0  0  0
   36.2570   28.1090   32.3080 C   0  0  0  0  0  0  0  0  0  0  0  0
   35.9260   27.1750   31.8050 H   0  0  0  0  0  0  0  0  0  0  0  0
   37.0470   28.5390   31.6510 H   0  0  0  0  0  0  0  0  0  0  0  0
   34.0980   30.9860   31.4030 C   0  0  0  0  0  0  0  0  0  0  0  0
   33.0540   30.8900   32.3110 C   0  0  0  0  0  0  0  0  0  0  0  0
   33.1020   29.8400   33.2250 C   0  0  0  0  0  0  0  0  0  0  0  0
   34.1370   28.9790   33.1890 N   0  0  0  0  0  0  0  0  0  0  0  0
   35.1400   29.1220   32.2700 C   0  0  0  0  0  0  0  0  0  0  0  0
   35.1140   30.1150   31.3930 N   0  0  0  0  0  0  0  0  0  0  0  0
   34.0550   31.8080   30.6940 H   0  0  0  0  0  0  0  0  0  0  0  0
   32.2330   31.5850   32.3280 H   0  0  0  0  0  0  0  0  0  0  0  0
   32.0730   29.6280   34.2250 C   0  0  0  0  0  0  0  0  0  0  0  0
   32.4850   29.3810   35.5170 C   0  0  0  0  0  0  0  0  0  0  0  0
   33.5110   29.3310   35.8550 H   0  0  0  0  0  0  0  0  0  0  0  0
   31.5370   29.1690   36.5250 C   0  0  0  0  0  3  0  0  0  0  0  0
   30.1870   29.1950   36.2880 C   0  0  0  0  0  0  0  0  0  0  0  0
   29.4380   29.0350   37.0440 H   0  0  0  0  0  0  0  0  0  0  0  0
   29.7730   29.4440   34.9800 C   0  0  0  0  0  0  0  0  0  0  0  0
   28.7250   29.4720   34.7470 H   0  0  0  0  0  0  0  0  0  0  0  0
   30.7330   29.6480   34.0090 C   0  0  0  0  0  3  0  0  0  0  0  0
  1  4  1  0  0  0  0
  1  2  1  0  0  0  0
  1  3  1  0  0  0  0
  4  8  1  0  0  0  0
  5  6  1  0  0  0  0
  5  4  2  0  0  0  0
  6  7  1  0  0  0  0
  7  9  1  0  0  0  0
  8  7  2  0  0  0  0
  9 14  1  0  0  0  0
 10  9  1  0  0  0  0
 10 11  1  0  0  0  0
 11 19  1  0  0  0  0
 11 12  1  0  0  0  0
 12 13  1  0  0  0  0
 13 22  1  0  0  0  0
 13 21  1  0  0  0  0
 14 24  1  0  0  0  0
 14 13  1  0  0  0  0
 15  5  1  0  0  0  0
 16 10  1  0  0  0  0
 17 10  1  0  0  0  0
 18 11  1  0  0  0  0
 20 12  1  0  0  0  0
 23 14  1  0  0  0  0
 25  1  1  0  0  0  0
 26 25  1  0  0  0  0
 27 25  1  0  0  0  0
 28 29  1  0  0  0  0
 29 35  1  0  0  0  0
 29 30  2  0  0  0  0
 30 36  1  0  0  0  0
 31 30  1  0  0  0  0
 32 25  1  0  0  0  0
 32 31  2  0  0  0  0
 33 28  2  0  0  0  0
 33 32  1  0  0  0  0
 34 28  1  0  0  0  0
 36 37  1  0  0  0  0
 37 38  1  0  0  0  0
 37 39  2  0  0  0  0
 40 39  1  0  0  0  0
 40 41  1  0  0  0  0
 42 40  2  0  0  0  0
 43 42  1  0  0  0  0
 44 36  2  0  0  0  0
 44 42  1  0  0  0  0
M  END
>  <minimizedAffinity>
-5.7750597

$$$$
